[H]Oc1c([H])c(C([H])([H])[H])c2c(oc(=O)c3c(O[H])c([H])c(OC([H])([H])[H])c([H])c32)c1O[H]
     RDKit          3D

 33 35  0  0  0  0  0  0  0  0999 V2000
    3.9081   -1.4397   -0.4085 C   0  0  0  0  0  0  0  0  0  0  0  0
    3.8448   -0.0424   -0.2785 O   0  0  0  0  0  0  0  0  0  0  0  0
    2.6523    0.6233   -0.1303 C   0  0  0  0  0  0  0  0  0  0  0  0
    2.6105    1.9874   -0.0049 C   0  0  0  0  0  0  0  0  0  0  0  0
    1.4370    2.6660    0.1428 C   0  0  0  0  0  0  0  0  0  0  0  0
    1.3731    4.0551    0.2718 O   0  0  0  0  0  0  0  0  0  0  0  0
    0.2682    1.9415    0.1647 C   0  0  0  0  0  0  0  0  0  0  0  0
    0.2805    0.5484    0.0395 C   0  0  0  0  0  0  0  0  0  0  0  0
    1.4558   -0.1263   -0.1089 C   0  0  0  0  0  0  0  0  0  0  0  0
   -0.9249   -0.1348    0.0620 C   0  0  0  0  0  0  0  0  0  0  0  0
   -0.9599   -1.4952   -0.0541 C   0  0  0  0  0  0  0  0  0  0  0  0
    0.1738   -2.3777   -0.1851 C   0  0  0  0  0  0  0  0  0  0  0  0
   -2.2594   -2.0742   -0.0181 C   0  0  0  0  0  0  0  0  0  0  0  0
   -3.4034   -1.3403    0.1230 C   0  0  0  0  0  0  0  0  0  0  0  0
   -4.6452   -1.9473    0.1526 O   0  0  0  0  0  0  0  0  0  0  0  0
   -3.3156    0.0109    0.2360 C   0  0  0  0  0  0  0  0  0  0  0  0
   -4.4509    0.7932    0.3813 O   0  0  0  0  0  0  0  0  0  0  0  0
   -2.0864    0.6288    0.2076 C   0  0  0  0  0  0  0  0  0  0  0  0
   -2.0471    1.9427    0.3214 O   0  0  0  0  0  0  0  0  0  0  0  0
   -0.9422    2.6147    0.3066 C   0  0  0  0  0  0  0  0  0  0  0  0
   -0.9260    3.8544    0.4160 O   0  0  0  0  0  0  0  0  0  0  0  0
    3.3644   -1.9641    0.4174 H   0  0  0  0  0  0  0  0  0  0  0  0
    4.9476   -1.8210   -0.3623 H   0  0  0  0  0  0  0  0  0  0  0  0
    3.4139   -1.7501   -1.3534 H   0  0  0  0  0  0  0  0  0  0  0  0
    3.5185    2.5673   -0.0196 H   0  0  0  0  0  0  0  0  0  0  0  0
    2.1633    4.6553    0.2669 H   0  0  0  0  0  0  0  0  0  0  0  0
    1.6154   -1.1341   -0.2232 H   0  0  0  0  0  0  0  0  0  0  0  0
    0.6370   -2.5039   -1.1871 H   0  0  0  0  0  0  0  0  0  0  0  0
    0.7987   -2.5834    0.7157 H   0  0  0  0  0  0  0  0  0  0  0  0
   -0.2937   -3.4423   -0.1810 H   0  0  0  0  0  0  0  0  0  0  0  0
   -2.3326   -3.1543   -0.1094 H   0  0  0  0  0  0  0  0  0  0  0  0
   -5.4554   -1.3586    0.2585 H   0  0  0  0  0  0  0  0  0  0  0  0
   -4.4204    1.8005    0.4679 H   0  0  0  0  0  0  0  0  0  0  0  0
  1  2  1  0
  2  3  1  0
  3  4  2  0
  4  5  1  0
  5  6  1  0
  5  7  2  0
  7  8  1  0
  8  9  2  0
  8 10  1  0
 10 11  2  0
 11 12  1  0
 11 13  1  0
 13 14  2  0
 14 15  1  0
 14 16  1  0
 16 17  1  0
 16 18  2  0
 18 19  1  0
 19 20  1  0
 20 21  2  0
  9  3  1  0
 18 10  1  0
 20  7  1  0
  1 22  1  0
  1 23  1  0
  1 24  1  0
  4 25  1  0
  6 26  1  0
  9 27  1  0
 12 28  1  0
 12 29  1  0
 12 30  1  0
 13 31  1  0
 15 32  1  0
 17 33  1  0
M  END
$$$$
[H]c1c([H])c(S(=O)(=O)N([H])[H])c([H])c([H])c1N([H])c1nc(N([H])C([H])(C([H])([H])[H])C([H])([H])[H])c2nc([H])n([H])c2n1
     RDKit          3D

 41 43  0  0  0  0  0  0  0  0999 V2000
   -3.5158    2.3834    0.9485 C   0  0  0  0  0  0  0  0  0  0  0  0
   -4.2656    1.5369   -0.0270 C   0  0  0  0  0  0  0  0  0  0  0  0
   -5.6979    1.9600   -0.0617 C   0  0  0  0  0  0  0  0  0  0  0  0
   -4.1222    0.1138    0.2149 N   0  0  0  0  0  0  0  0  0  0  0  0
   -2.8154   -0.4516    0.1703 C   0  0  0  0  0  0  0  0  0  0  0  0
   -1.7292    0.2944   -0.0872 N   0  0  0  0  0  0  0  0  0  0  0  0
   -0.4681   -0.2341   -0.1333 C   0  0  0  0  0  0  0  0  0  0  0  0
    0.5906    0.6623   -0.4304 N   0  0  0  0  0  0  0  0  0  0  0  0
    1.9674    0.3587   -0.5227 C   0  0  0  0  0  0  0  0  0  0  0  0
    2.5757   -0.7585   -0.0213 C   0  0  0  0  0  0  0  0  0  0  0  0
    3.9416   -0.9705   -0.1918 C   0  0  0  0  0  0  0  0  0  0  0  0
    4.7219   -0.0673   -0.8668 C   0  0  0  0  0  0  0  0  0  0  0  0
    4.1021    1.0455   -1.3626 C   0  0  0  0  0  0  0  0  0  0  0  0
    2.7775    1.2491   -1.1965 C   0  0  0  0  0  0  0  0  0  0  0  0
    6.4426   -0.3079   -1.0965 S   0  0  0  0  0  0  0  0  0  0  0  0
    7.2846    0.4043    0.2291 N   0  0  0  0  0  0  0  0  0  0  0  0
    6.8605    0.2590   -2.4115 O   0  0  0  0  0  0  0  0  0  0  0  0
    6.7714   -1.7856   -1.1095 O   0  0  0  0  0  0  0  0  0  0  0  0
   -0.3765   -1.5384    0.0929 N   0  0  0  0  0  0  0  0  0  0  0  0
   -1.4248   -2.3391    0.3560 C   0  0  0  0  0  0  0  0  0  0  0  0
   -1.5680   -3.6595    0.6116 N   0  0  0  0  0  0  0  0  0  0  0  0
   -2.8616   -3.9657    0.8127 C   0  0  0  0  0  0  0  0  0  0  0  0
   -3.5364   -2.8094    0.6790 N   0  0  0  0  0  0  0  0  0  0  0  0
   -2.6959   -1.8067    0.4026 C   0  0  0  0  0  0  0  0  0  0  0  0
   -4.0901    3.3198    1.2015 H   0  0  0  0  0  0  0  0  0  0  0  0
   -2.5184    2.7013    0.5789 H   0  0  0  0  0  0  0  0  0  0  0  0
   -3.3707    1.8765    1.9363 H   0  0  0  0  0  0  0  0  0  0  0  0
   -3.8350    1.7199   -1.0416 H   0  0  0  0  0  0  0  0  0  0  0  0
   -6.1304    2.1788    0.9349 H   0  0  0  0  0  0  0  0  0  0  0  0
   -5.7319    2.9443   -0.6128 H   0  0  0  0  0  0  0  0  0  0  0  0
   -6.3463    1.2825   -0.6461 H   0  0  0  0  0  0  0  0  0  0  0  0
   -4.9178   -0.5098    0.4176 H   0  0  0  0  0  0  0  0  0  0  0  0
    0.3341    1.6972   -0.5995 H   0  0  0  0  0  0  0  0  0  0  0  0
    2.0006   -1.4988    0.5332 H   0  0  0  0  0  0  0  0  0  0  0  0
    4.4294   -1.8579    0.2049 H   0  0  0  0  0  0  0  0  0  0  0  0
    4.7069    1.7672   -1.8976 H   0  0  0  0  0  0  0  0  0  0  0  0
    2.3297    2.1556   -1.6144 H   0  0  0  0  0  0  0  0  0  0  0  0
    7.6303    1.3508   -0.0955 H   0  0  0  0  0  0  0  0  0  0  0  0
    6.6235    0.5813    0.9988 H   0  0  0  0  0  0  0  0  0  0  0  0
   -0.7818   -4.3328    0.6452 H   0  0  0  0  0  0  0  0  0  0  0  0
   -3.2905   -4.9490    1.0393 H   0  0  0  0  0  0  0  0  0  0  0  0
  1  2  1  0
  2  3  1  0
  2  4  1  0
  4  5  1  0
  5  6  2  0
  6  7  1  0
  7  8  1  0
  8  9  1  0
  9 10  2  0
 10 11  1  0
 11 12  2  0
 12 13  1  0
 13 14  2  0
 12 15  1  0
 15 16  1  0
 15 17  2  0
 15 18  2  0
  7 19  2  0
 19 20  1  0
 20 21  1  0
 21 22  1  0
 22 23  2  0
 23 24  1  0
 24  5  1  0
 14  9  1  0
 24 20  2  0
  1 25  1  0
  1 26  1  0
  1 27  1  0
  2 28  1  0
  3 29  1  0
  3 30  1  0
  3 31  1  0
  4 32  1  0
  8 33  1  0
 10 34  1  0
 11 35  1  0
 13 36  1  0
 14 37  1  0
 16 38  1  0
 16 39  1  0
 21 40  1  0
 22 41  1  0
M  END
$$$$
[H]c1nc2c([H])c(OC([H])([H])C([H])([H])C([H])([H])N3C([H])([H])C([H])([H])OC([H])([H])C3([H])[H])c(OC([H])([H])[H])c([H])c2c(Oc2c([H])c([H])c(N([H])C(=O)C3(C(=O)N([H])c4c([H])c([H])c(F)c([H])c4[H])C([H])([H])C3([H])[H])c([H])c2F)c1[H]
     RDKit          3D

 80 85  0  0  0  0  0  0  0  0999 V2000
   -3.8348   -0.7830   -2.5268 C   0  0  0  0  0  0  0  0  0  0  0  0
   -4.4085   -0.0831   -1.4692 O   0  0  0  0  0  0  0  0  0  0  0  0
   -3.7050    0.3915   -0.3940 C   0  0  0  0  0  0  0  0  0  0  0  0
   -2.3426    0.2299   -0.2625 C   0  0  0  0  0  0  0  0  0  0  0  0
   -1.6750    0.7344    0.8625 C   0  0  0  0  0  0  0  0  0  0  0  0
   -0.2898    0.5501    0.9662 C   0  0  0  0  0  0  0  0  0  0  0  0
    0.3435   -0.1256   -0.0602 O   0  0  0  0  0  0  0  0  0  0  0  0
    1.7161   -0.3803   -0.1332 C   0  0  0  0  0  0  0  0  0  0  0  0
    2.1597   -1.6934   -0.1033 C   0  0  0  0  0  0  0  0  0  0  0  0
    3.5189   -2.0068   -0.1774 C   0  0  0  0  0  0  0  0  0  0  0  0
    4.4887   -1.0391   -0.2815 C   0  0  0  0  0  0  0  0  0  0  0  0
    5.8792   -1.3421   -0.3734 N   0  0  0  0  0  0  0  0  0  0  0  0
    6.4824   -2.5462    0.0493 C   0  0  0  0  0  0  0  0  0  0  0  0
    5.8571   -3.4761    0.5938 O   0  0  0  0  0  0  0  0  0  0  0  0
    7.9663   -2.7108   -0.2057 C   0  0  0  0  0  0  0  0  0  0  0  0
    8.3768   -4.0792   -0.7264 C   0  0  0  0  0  0  0  0  0  0  0  0
    8.5635   -3.7277    0.7383 C   0  0  0  0  0  0  0  0  0  0  0  0
    8.7412   -1.5075   -0.5379 C   0  0  0  0  0  0  0  0  0  0  0  0
    9.2658   -1.4618   -1.7261 O   0  0  0  0  0  0  0  0  0  0  0  0
    8.9847   -0.4096    0.2987 N   0  0  0  0  0  0  0  0  0  0  0  0
    9.7265    0.7540   -0.0941 C   0  0  0  0  0  0  0  0  0  0  0  0
   10.8357    1.1147    0.5958 C   0  0  0  0  0  0  0  0  0  0  0  0
   11.5248    2.2599    0.2548 C   0  0  0  0  0  0  0  0  0  0  0  0
   11.0639    3.0368   -0.8057 C   0  0  0  0  0  0  0  0  0  0  0  0
   11.7002    4.1760   -1.1980 F   0  0  0  0  0  0  0  0  0  0  0  0
    9.9259    2.6771   -1.5228 C   0  0  0  0  0  0  0  0  0  0  0  0
    9.2822    1.5333   -1.1426 C   0  0  0  0  0  0  0  0  0  0  0  0
    4.0405    0.2679   -0.3104 C   0  0  0  0  0  0  0  0  0  0  0  0
    2.6818    0.5942   -0.2385 C   0  0  0  0  0  0  0  0  0  0  0  0
    2.2895    1.9005   -0.2942 F   0  0  0  0  0  0  0  0  0  0  0  0
    0.3644    1.0374    2.0620 C   0  0  0  0  0  0  0  0  0  0  0  0
   -0.3737    1.7049    3.0395 C   0  0  0  0  0  0  0  0  0  0  0  0
   -1.7048    1.8658    2.9116 N   0  0  0  0  0  0  0  0  0  0  0  0
   -2.3620    1.3966    1.8519 C   0  0  0  0  0  0  0  0  0  0  0  0
   -3.7219    1.5655    1.7321 C   0  0  0  0  0  0  0  0  0  0  0  0
   -4.3695    1.0741    0.6362 C   0  0  0  0  0  0  0  0  0  0  0  0
   -5.7174    1.2662    0.5493 O   0  0  0  0  0  0  0  0  0  0  0  0
   -6.4811    1.9426    1.5276 C   0  0  0  0  0  0  0  0  0  0  0  0
   -7.9347    2.0328    1.1448 C   0  0  0  0  0  0  0  0  0  0  0  0
   -8.4979    0.6486    1.0445 C   0  0  0  0  0  0  0  0  0  0  0  0
   -9.9036    0.6228    0.6831 N   0  0  0  0  0  0  0  0  0  0  0  0
  -10.3079   -0.7910    0.8619 C   0  0  0  0  0  0  0  0  0  0  0  0
  -11.6524   -1.0829    0.2872 C   0  0  0  0  0  0  0  0  0  0  0  0
  -11.9057   -0.4129   -0.9237 O   0  0  0  0  0  0  0  0  0  0  0  0
  -10.6875   -0.1604   -1.5210 C   0  0  0  0  0  0  0  0  0  0  0  0
   -9.9805    0.9527   -0.7449 C   0  0  0  0  0  0  0  0  0  0  0  0
   -3.5752   -1.8606   -2.2552 H   0  0  0  0  0  0  0  0  0  0  0  0
   -4.5499   -0.8738   -3.3932 H   0  0  0  0  0  0  0  0  0  0  0  0
   -2.9103   -0.3554   -2.9443 H   0  0  0  0  0  0  0  0  0  0  0  0
   -1.7881   -0.2915   -1.0522 H   0  0  0  0  0  0  0  0  0  0  0  0
    1.4435   -2.4997   -0.0192 H   0  0  0  0  0  0  0  0  0  0  0  0
    3.8115   -3.0467   -0.1742 H   0  0  0  0  0  0  0  0  0  0  0  0
    6.5102   -0.6145   -0.7952 H   0  0  0  0  0  0  0  0  0  0  0  0
    9.3550   -4.1910   -1.2604 H   0  0  0  0  0  0  0  0  0  0  0  0
    7.5489   -4.7822   -0.9962 H   0  0  0  0  0  0  0  0  0  0  0  0
    7.9285   -4.2048    1.5021 H   0  0  0  0  0  0  0  0  0  0  0  0
    9.5761   -3.4402    1.0968 H   0  0  0  0  0  0  0  0  0  0  0  0
    8.6269   -0.4382    1.3024 H   0  0  0  0  0  0  0  0  0  0  0  0
   11.2158    0.5228    1.4404 H   0  0  0  0  0  0  0  0  0  0  0  0
   12.4267    2.5904    0.7817 H   0  0  0  0  0  0  0  0  0  0  0  0
    9.5578    3.2991   -2.3588 H   0  0  0  0  0  0  0  0  0  0  0  0
    8.3940    1.2002   -1.6567 H   0  0  0  0  0  0  0  0  0  0  0  0
    4.7885    1.0431   -0.3850 H   0  0  0  0  0  0  0  0  0  0  0  0
    1.4077    0.9219    2.2023 H   0  0  0  0  0  0  0  0  0  0  0  0
    0.1267    2.1033    3.9130 H   0  0  0  0  0  0  0  0  0  0  0  0
   -4.2450    2.0957    2.5441 H   0  0  0  0  0  0  0  0  0  0  0  0
   -6.0816    2.9259    1.7614 H   0  0  0  0  0  0  0  0  0  0  0  0
   -6.4223    1.2583    2.4406 H   0  0  0  0  0  0  0  0  0  0  0  0
   -8.0945    2.6326    0.2433 H   0  0  0  0  0  0  0  0  0  0  0  0
   -8.4948    2.5991    1.9539 H   0  0  0  0  0  0  0  0  0  0  0  0
   -7.8870    0.1130    0.2654 H   0  0  0  0  0  0  0  0  0  0  0  0
   -8.3089    0.1370    2.0005 H   0  0  0  0  0  0  0  0  0  0  0  0
   -9.4878   -1.3997    0.4459 H   0  0  0  0  0  0  0  0  0  0  0  0
  -10.2930   -0.9120    1.9864 H   0  0  0  0  0  0  0  0  0  0  0  0
  -11.6772   -2.1790    0.0299 H   0  0  0  0  0  0  0  0  0  0  0  0
  -12.4398   -0.9525    1.0381 H   0  0  0  0  0  0  0  0  0  0  0  0
  -10.0219   -1.0279   -1.4792 H   0  0  0  0  0  0  0  0  0  0  0  0
  -10.8743    0.1453   -2.5500 H   0  0  0  0  0  0  0  0  0  0  0  0
  -10.5228    1.8993   -0.8854 H   0  0  0  0  0  0  0  0  0  0  0  0
   -8.9666    1.0724   -1.1712 H   0  0  0  0  0  0  0  0  0  0  0  0
  1  2  1  0
  2  3  1  0
  3  4  2  0
  4  5  1  0
  5  6  2  0
  6  7  1  0
  7  8  1  0
  8  9  2  0
  9 10  1  0
 10 11  2  0
 11 12  1  0
 12 13  1  0
 13 14  2  0
 13 15  1  0
 15 16  1  0
 16 17  1  0
 15 18  1  0
 18 19  2  0
 18 20  1  0
 20 21  1  0
 21 22  2  0
 22 23  1  0
 23 24  2  0
 24 25  1  0
 24 26  1  0
 26 27  2  0
 11 28  1  0
 28 29  2  0
 29 30  1  0
  6 31  1  0
 31 32  2  0
 32 33  1  0
 33 34  2  0
 34 35  1  0
 35 36  2  0
 36 37  1  0
 37 38  1  0
 38 39  1  0
 39 40  1  0
 40 41  1  0
 41 42  1  0
 42 43  1  0
 43 44  1  0
 44 45  1  0
 45 46  1  0
 36  3  1  0
 46 41  1  0
 34  5  1  0
 29  8  1  0
 17 15  1  0
 27 21  1  0
  1 47  1  0
  1 48  1  0
  1 49  1  0
  4 50  1  0
  9 51  1  0
 10 52  1  0
 12 53  1  0
 16 54  1  0
 16 55  1  0
 17 56  1  0
 17 57  1  0
 20 58  1  0
 22 59  1  0
 23 60  1  0
 26 61  1  0
 27 62  1  0
 28 63  1  0
 31 64  1  0
 32 65  1  0
 35 66  1  0
 38 67  1  0
 38 68  1  0
 39 69  1  0
 39 70  1  0
 40 71  1  0
 40 72  1  0
 42 73  1  0
 42 74  1  0
 43 75  1  0
 43 76  1  0
 45 77  1  0
 45 78  1  0
 46 79  1  0
 46 80  1  0
M  END
$$$$
[H]Oc1c([H])c([H])c2c(c1[H])C([H])([H])C([H])([H])[C@]1([H])[C@]2([H])C([H])([H])C([H])([H])[C@]2(C([H])([H])[H])[C@@]([H])(N([H])C(=O)c3nc4c([H])c([H])c([H])c([H])c4n3[H])C([H])([H])C([H])([H])[C@]21[H]
     RDKit          3D

 60 65  0  0  0  0  0  0  0  0999 V2000
   -0.1880   -1.5978   -0.1451 C   0  0  0  0  0  0  0  0  0  0  0  0
   -0.2241   -0.1496   -0.4966 C   0  0  2  0  0  0  0  0  0  0  0  0
   -0.2866    0.7680    0.6746 C   0  0  0  0  0  0  0  0  0  0  0  0
   -1.5537    0.4155    1.4473 C   0  0  0  0  0  0  0  0  0  0  0  0
   -2.7278    0.7448    0.5829 C   0  0  1  0  0  0  0  0  0  0  0  0
   -2.7300   -0.0532   -0.7252 C   0  0  1  0  0  0  0  0  0  0  0  0
   -3.8202    0.4882   -1.6169 C   0  0  0  0  0  0  0  0  0  0  0  0
   -4.9203    1.1849   -0.8964 C   0  0  0  0  0  0  0  0  0  0  0  0
   -5.1586    0.6762    0.4808 C   0  0  0  0  0  0  0  0  0  0  0  0
   -6.4069    0.4412    0.9806 C   0  0  0  0  0  0  0  0  0  0  0  0
   -6.5661   -0.0306    2.2672 C   0  0  0  0  0  0  0  0  0  0  0  0
   -7.8342   -0.2835    2.8140 O   0  0  0  0  0  0  0  0  0  0  0  0
   -5.4204   -0.2488    3.0093 C   0  0  0  0  0  0  0  0  0  0  0  0
   -4.1548   -0.0170    2.5205 C   0  0  0  0  0  0  0  0  0  0  0  0
   -4.0192    0.4496    1.2454 C   0  0  0  0  0  0  0  0  0  0  0  0
   -1.4276    0.1896   -1.3898 C   0  0  2  0  0  0  0  0  0  0  0  0
   -1.1241   -0.6275   -2.5926 C   0  0  0  0  0  0  0  0  0  0  0  0
    0.4071   -0.5465   -2.7079 C   0  0  0  0  0  0  0  0  0  0  0  0
    0.8752    0.2176   -1.4909 C   0  0  2  0  0  0  0  0  0  0  0  0
    2.1847   -0.1271   -1.0459 N   0  0  0  0  0  0  0  0  0  0  0  0
    3.2565    0.7690   -0.8825 C   0  0  0  0  0  0  0  0  0  0  0  0
    3.0800    1.9774   -1.1406 O   0  0  0  0  0  0  0  0  0  0  0  0
    4.5613    0.3363   -0.4238 C   0  0  0  0  0  0  0  0  0  0  0  0
    4.9110   -0.9446   -0.1020 N   0  0  0  0  0  0  0  0  0  0  0  0
    6.1993   -0.9690    0.2822 C   0  0  0  0  0  0  0  0  0  0  0  0
    7.0729   -1.9522    0.7079 C   0  0  0  0  0  0  0  0  0  0  0  0
    8.3762   -1.6919    1.0481 C   0  0  0  0  0  0  0  0  0  0  0  0
    8.8716   -0.3928    0.9726 C   0  0  0  0  0  0  0  0  0  0  0  0
    8.0015    0.5889    0.5482 C   0  0  0  0  0  0  0  0  0  0  0  0
    6.6907    0.3183    0.2075 C   0  0  0  0  0  0  0  0  0  0  0  0
    5.6626    1.0654   -0.2233 N   0  0  0  0  0  0  0  0  0  0  0  0
   -1.1547   -2.1274   -0.2675 H   0  0  0  0  0  0  0  0  0  0  0  0
    0.5696   -2.1143   -0.7978 H   0  0  0  0  0  0  0  0  0  0  0  0
    0.1403   -1.8031    0.9034 H   0  0  0  0  0  0  0  0  0  0  0  0
    0.6068    0.7256    1.3144 H   0  0  0  0  0  0  0  0  0  0  0  0
   -0.4007    1.8021    0.2987 H   0  0  0  0  0  0  0  0  0  0  0  0
   -1.5821    1.0537    2.3290 H   0  0  0  0  0  0  0  0  0  0  0  0
   -1.5433   -0.6403    1.7786 H   0  0  0  0  0  0  0  0  0  0  0  0
   -2.7068    1.8134    0.3316 H   0  0  0  0  0  0  0  0  0  0  0  0
   -2.8981   -1.1139   -0.5416 H   0  0  0  0  0  0  0  0  0  0  0  0
   -4.2331   -0.3590   -2.2205 H   0  0  0  0  0  0  0  0  0  0  0  0
   -3.4104    1.2047   -2.3770 H   0  0  0  0  0  0  0  0  0  0  0  0
   -5.8473    1.0886   -1.5060 H   0  0  0  0  0  0  0  0  0  0  0  0
   -4.7087    2.2896   -0.8007 H   0  0  0  0  0  0  0  0  0  0  0  0
   -7.2905    0.6283    0.3558 H   0  0  0  0  0  0  0  0  0  0  0  0
   -8.2632    0.4973    3.2931 H   0  0  0  0  0  0  0  0  0  0  0  0
   -5.5445   -0.6189    4.0186 H   0  0  0  0  0  0  0  0  0  0  0  0
   -3.2554   -0.1880    3.1027 H   0  0  0  0  0  0  0  0  0  0  0  0
   -1.2930    1.2635   -1.6603 H   0  0  0  0  0  0  0  0  0  0  0  0
   -1.6120   -0.2091   -3.4994 H   0  0  0  0  0  0  0  0  0  0  0  0
   -1.4581   -1.6856   -2.5098 H   0  0  0  0  0  0  0  0  0  0  0  0
    0.8491   -1.5565   -2.7436 H   0  0  0  0  0  0  0  0  0  0  0  0
    0.6329   -0.0437   -3.6509 H   0  0  0  0  0  0  0  0  0  0  0  0
    0.7501    1.2963   -1.7135 H   0  0  0  0  0  0  0  0  0  0  0  0
    2.3556   -1.1384   -0.8233 H   0  0  0  0  0  0  0  0  0  0  0  0
    6.6706   -2.9615    0.7614 H   0  0  0  0  0  0  0  0  0  0  0  0
    9.0426   -2.4727    1.3781 H   0  0  0  0  0  0  0  0  0  0  0  0
    9.9033   -0.1715    1.2393 H   0  0  0  0  0  0  0  0  0  0  0  0
    8.3532    1.6261    0.4751 H   0  0  0  0  0  0  0  0  0  0  0  0
    5.7398    2.1041   -0.3779 H   0  0  0  0  0  0  0  0  0  0  0  0
  2  1  1  1
  2  3  1  0
  3  4  1  0
  4  5  1  0
  5  6  1  0
  6  7  1  0
  7  8  1  0
  8  9  1  0
  9 10  2  0
 10 11  1  0
 11 12  1  0
 11 13  2  0
 13 14  1  0
 14 15  2  0
  6 16  1  0
 16 17  1  0
 17 18  1  0
 18 19  1  0
 19 20  1  0
 20 21  1  0
 21 22  2  0
 21 23  1  0
 23 24  2  0
 24 25  1  0
 25 26  2  0
 26 27  1  0
 27 28  2  0
 28 29  1  0
 29 30  2  0
 30 31  1  0
 16  2  1  0
 31 23  1  0
 19  2  1  0
 30 25  1  0
 15  5  1  0
 15  9  1  0
  1 32  1  0
  1 33  1  0
  1 34  1  0
  3 35  1  0
  3 36  1  0
  4 37  1  0
  4 38  1  0
  5 39  1  6
  6 40  1  1
  7 41  1  0
  7 42  1  0
  8 43  1  0
  8 44  1  0
 10 45  1  0
 12 46  1  0
 13 47  1  0
 14 48  1  0
 16 49  1  6
 17 50  1  0
 17 51  1  0
 18 52  1  0
 18 53  1  0
 19 54  1  6
 20 55  1  0
 26 56  1  0
 27 57  1  0
 28 58  1  0
 29 59  1  0
 31 60  1  0
M  END
$$$$
[H]Oc1c([H])c([H])c(C([H])([H])[C@@]([H])(C(=O)N2C([H])([H])C([H])([H])C([H])([H])[C@@]2([H])C(=O)N([H])[C@]([H])(C(=O)N([H])[C@]([H])(C(=O)N([H])[C@]([H])(C(=O)N([H])[C@]([H])(C(=O)N([H])[C@]([H])(C(=O)N([H])[H])C([H])([H])c2c([H])c([H])c([H])c([H])c2[H])C([H])([H])C([H])([H])C(=O)N([H])[H])C([H])([H])C([H])([H])C(=O)N([H])[H])C([H])([H])c2c([H])c([H])c([H])c([H])c2[H])C([H])([H])C([H])(C([H])([H])[H])C([H])([H])[H])N([H])[H])c([H])c1[H]
     RDKit          3D

132135  0  0  0  0  0  0  0  0999 V2000
    6.5580   -5.1531   -0.9495 C   0  0  0  0  0  0  0  0  0  0  0  0
    5.5936   -4.1980   -1.7260 C   0  0  0  0  0  0  0  0  0  0  0  0
    4.5176   -5.0711   -2.2185 C   0  0  0  0  0  0  0  0  0  0  0  0
    5.3385   -3.0291   -0.8711 C   0  0  0  0  0  0  0  0  0  0  0  0
    4.4831   -1.9242   -1.2109 C   0  0  2  0  0  0  0  0  0  0  0  0
    4.6453   -0.8313   -0.1641 N   0  0  0  0  0  0  0  0  0  0  0  0
    5.1158    0.4323   -0.4142 C   0  0  0  0  0  0  0  0  0  0  0  0
    5.4789    0.8224   -1.5223 O   0  0  0  0  0  0  0  0  0  0  0  0
    5.1801    1.4097    0.7464 C   0  0  2  0  0  0  0  0  0  0  0  0
    3.7385    1.5785    1.2727 C   0  0  0  0  0  0  0  0  0  0  0  0
    3.3050    2.9418    0.7877 C   0  0  0  0  0  0  0  0  0  0  0  0
    4.3141    3.2733   -0.2642 C   0  0  0  0  0  0  0  0  0  0  0  0
    5.5568    2.7176    0.3419 N   0  0  0  0  0  0  0  0  0  0  0  0
    6.7415    3.4584    0.4112 C   0  0  0  0  0  0  0  0  0  0  0  0
    6.6835    4.6647   -0.0894 O   0  0  0  0  0  0  0  0  0  0  0  0
    8.0534    3.1005    0.9594 C   0  0  1  0  0  0  0  0  0  0  0  0
    7.9810    1.7848    1.5961 N   0  0  0  0  0  0  0  0  0  0  0  0
    9.1883    3.0477    0.0057 C   0  0  0  0  0  0  0  0  0  0  0  0
    9.5280    4.2807   -0.7098 C   0  0  0  0  0  0  0  0  0  0  0  0
    8.9995    4.5127   -1.9529 C   0  0  0  0  0  0  0  0  0  0  0  0
    9.2827    5.6538   -2.6925 C   0  0  0  0  0  0  0  0  0  0  0  0
   10.1326    6.5929   -2.1588 C   0  0  0  0  0  0  0  0  0  0  0  0
   10.4240    7.7498   -2.9047 O   0  0  0  0  0  0  0  0  0  0  0  0
   10.6648    6.3622   -0.9162 C   0  0  0  0  0  0  0  0  0  0  0  0
   10.3854    5.2334   -0.1812 C   0  0  0  0  0  0  0  0  0  0  0  0
    3.0421   -1.9477   -1.3658 C   0  0  0  0  0  0  0  0  0  0  0  0
    2.5302   -0.7452   -1.6205 O   0  0  0  0  0  0  0  0  0  0  0  0
    2.0795   -2.9291   -1.2906 N   0  0  0  0  0  0  0  0  0  0  0  0
    0.6523   -2.6070   -1.5025 C   0  0  1  0  0  0  0  0  0  0  0  0
   -0.2357   -3.7784   -1.6445 C   0  0  0  0  0  0  0  0  0  0  0  0
    0.0481   -4.7248   -2.7240 C   0  0  0  0  0  0  0  0  0  0  0  0
    0.8167   -5.8204   -2.4160 C   0  0  0  0  0  0  0  0  0  0  0  0
    1.1701   -6.7863   -3.3553 C   0  0  0  0  0  0  0  0  0  0  0  0
    0.7477   -6.6706   -4.6486 C   0  0  0  0  0  0  0  0  0  0  0  0
   -0.0388   -5.5559   -4.9785 C   0  0  0  0  0  0  0  0  0  0  0  0
   -0.3738   -4.6101   -4.0232 C   0  0  0  0  0  0  0  0  0  0  0  0
    0.1808   -1.9708   -0.1415 C   0  0  0  0  0  0  0  0  0  0  0  0
    1.0846   -2.0204    0.7049 O   0  0  0  0  0  0  0  0  0  0  0  0
   -1.1022   -1.4574   -0.0484 N   0  0  0  0  0  0  0  0  0  0  0  0
   -1.8556   -0.8702    0.9714 C   0  0  1  0  0  0  0  0  0  0  0  0
   -1.2528   -0.1634    2.1294 C   0  0  0  0  0  0  0  0  0  0  0  0
   -0.4811   -0.8963    3.1470 C   0  0  0  0  0  0  0  0  0  0  0  0
   -1.3824   -1.8625    3.8670 C   0  0  0  0  0  0  0  0  0  0  0  0
   -0.9072   -3.0182    4.5352 N   0  0  0  0  0  0  0  0  0  0  0  0
   -2.6054   -1.6246    3.8693 O   0  0  0  0  0  0  0  0  0  0  0  0
   -3.0371   -0.0930    0.4779 C   0  0  0  0  0  0  0  0  0  0  0  0
   -2.8897    0.6705   -0.5123 O   0  0  0  0  0  0  0  0  0  0  0  0
   -4.2932   -0.1950    1.0865 N   0  0  0  0  0  0  0  0  0  0  0  0
   -5.5045    0.5631    0.6759 C   0  0  1  0  0  0  0  0  0  0  0  0
   -5.9948   -0.2065   -0.5455 C   0  0  0  0  0  0  0  0  0  0  0  0
   -7.2270    0.2851   -1.1935 C   0  0  0  0  0  0  0  0  0  0  0  0
   -7.4861   -0.6546   -2.3667 C   0  0  0  0  0  0  0  0  0  0  0  0
   -8.6019   -0.4905   -3.1981 N   0  0  0  0  0  0  0  0  0  0  0  0
   -6.6972   -1.6095   -2.6185 O   0  0  0  0  0  0  0  0  0  0  0  0
   -6.4067    0.5485    1.8087 C   0  0  0  0  0  0  0  0  0  0  0  0
   -6.0536   -0.1239    2.8475 O   0  0  0  0  0  0  0  0  0  0  0  0
   -7.6329    1.1965    1.8909 N   0  0  0  0  0  0  0  0  0  0  0  0
   -8.5041    1.1218    3.0608 C   0  0  1  0  0  0  0  0  0  0  0  0
   -9.1478    2.3961    3.4156 C   0  0  0  0  0  0  0  0  0  0  0  0
  -10.0374    3.0165    2.4385 C   0  0  0  0  0  0  0  0  0  0  0  0
   -9.5630    3.8659    1.4629 C   0  0  0  0  0  0  0  0  0  0  0  0
  -10.3889    4.4941    0.5607 C   0  0  0  0  0  0  0  0  0  0  0  0
  -11.7472    4.2700    0.6292 C   0  0  0  0  0  0  0  0  0  0  0  0
  -12.2378    3.4218    1.6026 C   0  0  0  0  0  0  0  0  0  0  0  0
  -11.4300    2.7855    2.5101 C   0  0  0  0  0  0  0  0  0  0  0  0
   -9.4250   -0.0488    2.9311 C   0  0  0  0  0  0  0  0  0  0  0  0
  -10.3449   -0.4785    3.8829 N   0  0  0  0  0  0  0  0  0  0  0  0
   -9.3455   -0.7013    1.8334 O   0  0  0  0  0  0  0  0  0  0  0  0
    7.5771   -4.7402   -0.9254 H   0  0  0  0  0  0  0  0  0  0  0  0
    6.5063   -6.1318   -1.4006 H   0  0  0  0  0  0  0  0  0  0  0  0
    6.1881   -5.1875    0.1077 H   0  0  0  0  0  0  0  0  0  0  0  0
    6.2809   -3.8916   -2.6085 H   0  0  0  0  0  0  0  0  0  0  0  0
    3.9120   -5.5504   -1.4251 H   0  0  0  0  0  0  0  0  0  0  0  0
    4.9213   -5.9711   -2.7959 H   0  0  0  0  0  0  0  0  0  0  0  0
    3.9274   -4.5364   -2.9911 H   0  0  0  0  0  0  0  0  0  0  0  0
    6.3907   -2.5843   -0.6699 H   0  0  0  0  0  0  0  0  0  0  0  0
    5.0397   -3.4729    0.1716 H   0  0  0  0  0  0  0  0  0  0  0  0
    4.8937   -1.3910   -2.1228 H   0  0  0  0  0  0  0  0  0  0  0  0
    4.3555   -1.1512    0.7769 H   0  0  0  0  0  0  0  0  0  0  0  0
    5.7103    0.9489    1.5898 H   0  0  0  0  0  0  0  0  0  0  0  0
    3.1034    0.7530    0.9019 H   0  0  0  0  0  0  0  0  0  0  0  0
    3.6920    1.5852    2.3731 H   0  0  0  0  0  0  0  0  0  0  0  0
    3.3787    3.7335    1.5940 H   0  0  0  0  0  0  0  0  0  0  0  0
    2.2568    2.9207    0.4101 H   0  0  0  0  0  0  0  0  0  0  0  0
    4.0598    2.7681   -1.2074 H   0  0  0  0  0  0  0  0  0  0  0  0
    4.4092    4.3634   -0.4402 H   0  0  0  0  0  0  0  0  0  0  0  0
    8.2928    3.8558    1.8016 H   0  0  0  0  0  0  0  0  0  0  0  0
    7.6757    1.8811    2.5966 H   0  0  0  0  0  0  0  0  0  0  0  0
    8.8705    1.2949    1.4742 H   0  0  0  0  0  0  0  0  0  0  0  0
   10.1247    2.6327    0.5080 H   0  0  0  0  0  0  0  0  0  0  0  0
    8.9666    2.2602   -0.7626 H   0  0  0  0  0  0  0  0  0  0  0  0
    8.3179    3.7959   -2.4366 H   0  0  0  0  0  0  0  0  0  0  0  0
    8.8385    5.7824   -3.6594 H   0  0  0  0  0  0  0  0  0  0  0  0
    9.8209    8.5783   -2.7866 H   0  0  0  0  0  0  0  0  0  0  0  0
   11.3403    7.1029   -0.4991 H   0  0  0  0  0  0  0  0  0  0  0  0
   10.7988    5.0266    0.8065 H   0  0  0  0  0  0  0  0  0  0  0  0
    2.2171   -3.9283   -1.0569 H   0  0  0  0  0  0  0  0  0  0  0  0
    0.4767   -1.8125   -2.1835 H   0  0  0  0  0  0  0  0  0  0  0  0
   -0.3951   -4.3168   -0.6573 H   0  0  0  0  0  0  0  0  0  0  0  0
   -1.2709   -3.3673   -1.8433 H   0  0  0  0  0  0  0  0  0  0  0  0
    1.1609   -5.9682   -1.4117 H   0  0  0  0  0  0  0  0  0  0  0  0
    1.7889   -7.6368   -3.0705 H   0  0  0  0  0  0  0  0  0  0  0  0
    0.9717   -7.3654   -5.4291 H   0  0  0  0  0  0  0  0  0  0  0  0
   -0.3525   -5.4566   -5.9789 H   0  0  0  0  0  0  0  0  0  0  0  0
   -0.9894   -3.7376   -4.2893 H   0  0  0  0  0  0  0  0  0  0  0  0
   -1.6688   -1.5335   -1.0133 H   0  0  0  0  0  0  0  0  0  0  0  0
   -2.3724   -1.8311    1.4720 H   0  0  0  0  0  0  0  0  0  0  0  0
   -0.6590    0.7572    1.7629 H   0  0  0  0  0  0  0  0  0  0  0  0
   -2.0871    0.3978    2.7188 H   0  0  0  0  0  0  0  0  0  0  0  0
   -0.2207   -0.0619    3.9339 H   0  0  0  0  0  0  0  0  0  0  0  0
    0.4228   -1.4201    2.9543 H   0  0  0  0  0  0  0  0  0  0  0  0
   -0.7705   -3.1175    5.5586 H   0  0  0  0  0  0  0  0  0  0  0  0
   -0.6483   -3.8935    3.9859 H   0  0  0  0  0  0  0  0  0  0  0  0
   -4.4338   -0.8533    1.8835 H   0  0  0  0  0  0  0  0  0  0  0  0
   -5.1247    1.5251    0.3156 H   0  0  0  0  0  0  0  0  0  0  0  0
   -5.9258   -1.2857   -0.3609 H   0  0  0  0  0  0  0  0  0  0  0  0
   -5.1603   -0.0339   -1.3161 H   0  0  0  0  0  0  0  0  0  0  0  0
   -7.1300    1.2784   -1.7033 H   0  0  0  0  0  0  0  0  0  0  0  0
   -8.1369    0.3276   -0.5755 H   0  0  0  0  0  0  0  0  0  0  0  0
   -9.5572   -0.6362   -2.8598 H   0  0  0  0  0  0  0  0  0  0  0  0
   -8.4339   -0.2074   -4.1767 H   0  0  0  0  0  0  0  0  0  0  0  0
   -7.9850    1.7795    1.1192 H   0  0  0  0  0  0  0  0  0  0  0  0
   -7.8252    0.8055    3.9131 H   0  0  0  0  0  0  0  0  0  0  0  0
   -8.4068    3.1892    3.7291 H   0  0  0  0  0  0  0  0  0  0  0  0
   -9.7738    2.2844    4.3738 H   0  0  0  0  0  0  0  0  0  0  0  0
   -8.4856    4.0824    1.3474 H   0  0  0  0  0  0  0  0  0  0  0  0
   -9.9474    5.1603   -0.1889 H   0  0  0  0  0  0  0  0  0  0  0  0
  -12.4329    4.7614   -0.0730 H   0  0  0  0  0  0  0  0  0  0  0  0
  -13.3130    3.2528    1.6493 H   0  0  0  0  0  0  0  0  0  0  0  0
  -11.7808    2.1144    3.2849 H   0  0  0  0  0  0  0  0  0  0  0  0
  -10.9075   -1.3406    3.7192 H   0  0  0  0  0  0  0  0  0  0  0  0
  -10.5031    0.0280    4.7654 H   0  0  0  0  0  0  0  0  0  0  0  0
  1  2  1  0
  2  3  1  0
  2  4  1  0
  4  5  1  0
  5  6  1  0
  6  7  1  0
  7  8  2  0
  7  9  1  0
  9 10  1  0
 10 11  1  0
 11 12  1  0
 12 13  1  0
 13 14  1  0
 14 15  2  0
 14 16  1  0
 16 17  1  0
 16 18  1  0
 18 19  1  0
 19 20  2  0
 20 21  1  0
 21 22  2  0
 22 23  1  0
 22 24  1  0
 24 25  2  0
  5 26  1  0
 26 27  2  0
 26 28  1  0
 28 29  1  0
 29 30  1  0
 30 31  1  0
 31 32  2  0
 32 33  1  0
 33 34  2  0
 34 35  1  0
 35 36  2  0
 29 37  1  0
 37 38  2  0
 37 39  1  0
 39 40  1  0
 40 41  1  0
 41 42  1  0
 42 43  1  0
 43 44  1  0
 43 45  2  0
 40 46  1  0
 46 47  2  0
 46 48  1  0
 48 49  1  0
 49 50  1  0
 50 51  1  0
 51 52  1  0
 52 53  1  0
 52 54  2  0
 49 55  1  0
 55 56  2  0
 55 57  1  0
 57 58  1  0
 58 59  1  0
 59 60  1  0
 60 61  2  0
 61 62  1  0
 62 63  2  0
 63 64  1  0
 64 65  2  0
 58 66  1  0
 66 67  1  0
 66 68  2  0
 13  9  1  0
 25 19  1  0
 36 31  1  0
 65 60  1  0
  1 69  1  0
  1 70  1  0
  1 71  1  0
  2 72  1  0
  3 73  1  0
  3 74  1  0
  3 75  1  0
  4 76  1  0
  4 77  1  0
  5 78  1  6
  6 79  1  0
  9 80  1  1
 10 81  1  0
 10 82  1  0
 11 83  1  0
 11 84  1  0
 12 85  1  0
 12 86  1  0
 16 87  1  1
 17 88  1  0
 17 89  1  0
 18 90  1  0
 18 91  1  0
 20 92  1  0
 21 93  1  0
 23 94  1  0
 24 95  1  0
 25 96  1  0
 28 97  1  0
 29 98  1  6
 30 99  1  0
 30100  1  0
 32101  1  0
 33102  1  0
 34103  1  0
 35104  1  0
 36105  1  0
 39106  1  0
 40107  1  1
 41108  1  0
 41109  1  0
 42110  1  0
 42111  1  0
 44112  1  0
 44113  1  0
 48114  1  0
 49115  1  6
 50116  1  0
 50117  1  0
 51118  1  0
 51119  1  0
 53120  1  0
 53121  1  0
 57122  1  0
 58123  1  1
 59124  1  0
 59125  1  0
 61126  1  0
 62127  1  0
 63128  1  0
 64129  1  0
 65130  1  0
 67131  1  0
 67132  1  0
M  END
$$$$
[H]c1nc([H])c(Cl)c(N([H])C(=O)N([H])c2c([H])c(-c3c([H])c([H])c([H])c(-c4c([H])c([H])c([H])c(C(=O)N([H])C([H])([H])C([H])([H])N5C([H])([H])C([H])([H])OC([H])([H])C5([H])[H])c4[H])c3[H])nn(C([H])([H])C([H])([H])[H])c2=O)c1Cl
     RDKit          3D

 75 79  0  0  0  0  0  0  0  0999 V2000
    4.1284   -4.9952    0.8544 C   0  0  0  0  0  0  0  0  0  0  0  0
    4.1979   -4.3678   -0.5294 C   0  0  0  0  0  0  0  0  0  0  0  0
    4.5325   -2.9528   -0.4061 N   0  0  0  0  0  0  0  0  0  0  0  0
    3.5981   -2.0582   -0.2861 N   0  0  0  0  0  0  0  0  0  0  0  0
    3.8321   -0.7459   -0.1671 C   0  0  0  0  0  0  0  0  0  0  0  0
    5.1345   -0.2924   -0.1694 C   0  0  0  0  0  0  0  0  0  0  0  0
    6.1522   -1.2079   -0.2938 C   0  0  0  0  0  0  0  0  0  0  0  0
    7.5105   -0.8805   -0.2986 N   0  0  0  0  0  0  0  0  0  0  0  0
    8.0884    0.3781   -0.1839 C   0  0  0  0  0  0  0  0  0  0  0  0
    7.4240    1.4191   -0.0587 O   0  0  0  0  0  0  0  0  0  0  0  0
    9.5225    0.4760   -0.2103 N   0  0  0  0  0  0  0  0  0  0  0  0
   10.1065    1.7496   -0.0904 C   0  0  0  0  0  0  0  0  0  0  0  0
   10.3770    2.5280   -1.2036 C   0  0  0  0  0  0  0  0  0  0  0  0
    9.9852    1.9187   -2.8059 Cl  0  0  0  0  0  0  0  0  0  0  0  0
   10.9511    3.7646   -0.9997 C   0  0  0  0  0  0  0  0  0  0  0  0
   11.2427    4.2074    0.2465 N   0  0  0  0  0  0  0  0  0  0  0  0
   10.9733    3.4377    1.3223 C   0  0  0  0  0  0  0  0  0  0  0  0
   10.4022    2.1944    1.2018 C   0  0  0  0  0  0  0  0  0  0  0  0
   10.0426    1.1740    2.5858 Cl  0  0  0  0  0  0  0  0  0  0  0  0
    5.8016   -2.5685   -0.4137 C   0  0  0  0  0  0  0  0  0  0  0  0
    6.6897   -3.4687   -0.5327 O   0  0  0  0  0  0  0  0  0  0  0  0
    2.6721    0.1581   -0.0194 C   0  0  0  0  0  0  0  0  0  0  0  0
    2.7817    1.5195    0.0610 C   0  0  0  0  0  0  0  0  0  0  0  0
    1.6408    2.3127    0.2204 C   0  0  0  0  0  0  0  0  0  0  0  0
    0.3858    1.7159    0.2981 C   0  0  0  0  0  0  0  0  0  0  0  0
    0.2502    0.3444    0.2197 C   0  0  0  0  0  0  0  0  0  0  0  0
    1.4124   -0.3777    0.0624 C   0  0  0  0  0  0  0  0  0  0  0  0
   -1.0594   -0.2807    0.3181 C   0  0  0  0  0  0  0  0  0  0  0  0
   -1.1795   -1.5539    0.8699 C   0  0  0  0  0  0  0  0  0  0  0  0
   -2.3864   -2.1865    0.9984 C   0  0  0  0  0  0  0  0  0  0  0  0
   -3.5413   -1.5450    0.5661 C   0  0  0  0  0  0  0  0  0  0  0  0
   -3.4669   -0.2884    0.0157 C   0  0  0  0  0  0  0  0  0  0  0  0
   -2.2162    0.3295   -0.1010 C   0  0  0  0  0  0  0  0  0  0  0  0
   -4.6422    0.4318   -0.4429 C   0  0  0  0  0  0  0  0  0  0  0  0
   -4.5254    1.4887   -1.1492 O   0  0  0  0  0  0  0  0  0  0  0  0
   -5.9391   -0.0407   -0.1030 N   0  0  0  0  0  0  0  0  0  0  0  0
   -7.1253    0.6758   -0.5568 C   0  0  0  0  0  0  0  0  0  0  0  0
   -8.3375   -0.0440   -0.0491 C   0  0  0  0  0  0  0  0  0  0  0  0
   -9.5711    0.5265   -0.4059 N   0  0  0  0  0  0  0  0  0  0  0  0
   -9.9063    1.7783    0.1576 C   0  0  0  0  0  0  0  0  0  0  0  0
  -11.2302    2.3298   -0.2593 C   0  0  0  0  0  0  0  0  0  0  0  0
  -11.8710    1.7206   -1.2647 O   0  0  0  0  0  0  0  0  0  0  0  0
  -11.6348    0.4495   -1.5863 C   0  0  0  0  0  0  0  0  0  0  0  0
  -10.6411   -0.3136   -0.7712 C   0  0  0  0  0  0  0  0  0  0  0  0
    5.0126   -5.6564    0.9763 H   0  0  0  0  0  0  0  0  0  0  0  0
    3.2388   -5.6336    0.9402 H   0  0  0  0  0  0  0  0  0  0  0  0
    4.0981   -4.1891    1.6311 H   0  0  0  0  0  0  0  0  0  0  0  0
    3.1946   -4.4554   -0.9783 H   0  0  0  0  0  0  0  0  0  0  0  0
    4.9963   -4.8235   -1.1505 H   0  0  0  0  0  0  0  0  0  0  0  0
    5.2882    0.7517   -0.0742 H   0  0  0  0  0  0  0  0  0  0  0  0
    8.2062   -1.7100   -0.4036 H   0  0  0  0  0  0  0  0  0  0  0  0
   10.1088   -0.3542   -0.3122 H   0  0  0  0  0  0  0  0  0  0  0  0
   11.1670    4.3826   -1.8653 H   0  0  0  0  0  0  0  0  0  0  0  0
   11.1983    3.7693    2.3467 H   0  0  0  0  0  0  0  0  0  0  0  0
    3.7237    2.0033    0.0042 H   0  0  0  0  0  0  0  0  0  0  0  0
    1.7269    3.3989    0.2843 H   0  0  0  0  0  0  0  0  0  0  0  0
   -0.4855    2.3412    0.4207 H   0  0  0  0  0  0  0  0  0  0  0  0
    1.2868   -1.4666    0.0009 H   0  0  0  0  0  0  0  0  0  0  0  0
   -0.2673   -2.0377    1.2017 H   0  0  0  0  0  0  0  0  0  0  0  0
   -2.4573   -3.1797    1.4319 H   0  0  0  0  0  0  0  0  0  0  0  0
   -4.4641   -2.0779    0.6839 H   0  0  0  0  0  0  0  0  0  0  0  0
   -2.1918    1.3093   -0.5352 H   0  0  0  0  0  0  0  0  0  0  0  0
   -6.0612   -0.8915    0.4675 H   0  0  0  0  0  0  0  0  0  0  0  0
   -7.0676    0.7170   -1.6606 H   0  0  0  0  0  0  0  0  0  0  0  0
   -7.0315    1.7082   -0.1884 H   0  0  0  0  0  0  0  0  0  0  0  0
   -8.2893   -1.0911   -0.3955 H   0  0  0  0  0  0  0  0  0  0  0  0
   -8.2645   -0.0199    1.0793 H   0  0  0  0  0  0  0  0  0  0  0  0
   -9.8672    1.6872    1.2677 H   0  0  0  0  0  0  0  0  0  0  0  0
   -9.0611    2.4891   -0.0861 H   0  0  0  0  0  0  0  0  0  0  0  0
  -11.0636    3.4074   -0.5433 H   0  0  0  0  0  0  0  0  0  0  0  0
  -11.9176    2.3910    0.6315 H   0  0  0  0  0  0  0  0  0  0  0  0
  -12.6019   -0.1301   -1.5454 H   0  0  0  0  0  0  0  0  0  0  0  0
  -11.3319    0.3898   -2.6716 H   0  0  0  0  0  0  0  0  0  0  0  0
  -11.1301   -0.7403    0.1182 H   0  0  0  0  0  0  0  0  0  0  0  0
  -10.2556   -1.1494   -1.4022 H   0  0  0  0  0  0  0  0  0  0  0  0
  1  2  1  0
  2  3  1  0
  3  4  1  0
  4  5  2  0
  5  6  1  0
  6  7  2  0
  7  8  1  0
  8  9  1  0
  9 10  2  0
  9 11  1  0
 11 12  1  0
 12 13  2  0
 13 14  1  0
 13 15  1  0
 15 16  2  0
 16 17  1  0
 17 18  2  0
 18 19  1  0
  7 20  1  0
 20 21  2  0
  5 22  1  0
 22 23  2  0
 23 24  1  0
 24 25  2  0
 25 26  1  0
 26 27  2  0
 26 28  1  0
 28 29  2  0
 29 30  1  0
 30 31  2  0
 31 32  1  0
 32 33  2  0
 32 34  1  0
 34 35  2  0
 34 36  1  0
 36 37  1  0
 37 38  1  0
 38 39  1  0
 39 40  1  0
 40 41  1  0
 41 42  1  0
 42 43  1  0
 43 44  1  0
 20  3  1  0
 27 22  1  0
 33 28  1  0
 44 39  1  0
 18 12  1  0
  1 45  1  0
  1 46  1  0
  1 47  1  0
  2 48  1  0
  2 49  1  0
  6 50  1  0
  8 51  1  0
 11 52  1  0
 15 53  1  0
 17 54  1  0
 23 55  1  0
 24 56  1  0
 25 57  1  0
 27 58  1  0
 29 59  1  0
 30 60  1  0
 31 61  1  0
 33 62  1  0
 36 63  1  0
 37 64  1  0
 37 65  1  0
 38 66  1  0
 38 67  1  0
 40 68  1  0
 40 69  1  0
 41 70  1  0
 41 71  1  0
 43 72  1  0
 43 73  1  0
 44 74  1  0
 44 75  1  0
M  END
$$$$
[H]c1c([H])c(C(F)(F)F)c([H])c([H])c1C(=O)N([H])n1c(=O)c(N2C([H])([H])C([H])([H])N(C([H])([H])[H])C([H])([H])C2([H])[H])nc2c([H])c(Cl)c([H])c([H])c21
     RDKit          3D

 51 54  0  0  0  0  0  0  0  0999 V2000
   -6.5114    2.1312    0.3869 C   0  0  0  0  0  0  0  0  0  0  0  0
   -5.1512    1.8869    0.8092 N   0  0  0  0  0  0  0  0  0  0  0  0
   -5.0634    0.6771    1.5515 C   0  0  0  0  0  0  0  0  0  0  0  0
   -3.8228   -0.1111    1.3515 C   0  0  0  0  0  0  0  0  0  0  0  0
   -3.1478    0.0261    0.1180 N   0  0  0  0  0  0  0  0  0  0  0  0
   -3.6244    0.9069   -0.8916 C   0  0  0  0  0  0  0  0  0  0  0  0
   -4.2395    2.1082   -0.2223 C   0  0  0  0  0  0  0  0  0  0  0  0
   -1.9548   -0.7344   -0.0800 C   0  0  0  0  0  0  0  0  0  0  0  0
   -2.1063   -2.0650   -0.0694 N   0  0  0  0  0  0  0  0  0  0  0  0
   -1.0449   -2.8734   -0.2039 C   0  0  0  0  0  0  0  0  0  0  0  0
   -1.2149   -4.2498   -0.2437 C   0  0  0  0  0  0  0  0  0  0  0  0
   -0.1552   -5.1101   -0.4439 C   0  0  0  0  0  0  0  0  0  0  0  0
   -0.3232   -6.8552   -0.4901 Cl  0  0  0  0  0  0  0  0  0  0  0  0
    1.0951   -4.5730   -0.6072 C   0  0  0  0  0  0  0  0  0  0  0  0
    1.2499   -3.2034   -0.5623 C   0  0  0  0  0  0  0  0  0  0  0  0
    0.2174   -2.3023   -0.3555 C   0  0  0  0  0  0  0  0  0  0  0  0
    0.4174   -0.9906   -0.3650 N   0  0  0  0  0  0  0  0  0  0  0  0
    1.6008   -0.3153   -0.2429 N   0  0  0  0  0  0  0  0  0  0  0  0
    2.7920   -0.5762    0.4260 C   0  0  0  0  0  0  0  0  0  0  0  0
    3.0674   -1.5669    1.1616 O   0  0  0  0  0  0  0  0  0  0  0  0
    3.9385    0.3698    0.3282 C   0  0  0  0  0  0  0  0  0  0  0  0
    4.4655    0.7063   -0.8629 C   0  0  0  0  0  0  0  0  0  0  0  0
    5.5430    1.6048   -0.8487 C   0  0  0  0  0  0  0  0  0  0  0  0
    6.0353    2.1151    0.3102 C   0  0  0  0  0  0  0  0  0  0  0  0
    5.4690    1.7471    1.5146 C   0  0  0  0  0  0  0  0  0  0  0  0
    4.4184    0.8714    1.5081 C   0  0  0  0  0  0  0  0  0  0  0  0
    7.1934    3.0583    0.2846 C   0  0  0  0  0  0  0  0  0  0  0  0
    7.7914    3.0451    1.5575 F   0  0  0  0  0  0  0  0  0  0  0  0
    8.1702    2.6503   -0.5972 F   0  0  0  0  0  0  0  0  0  0  0  0
    6.7925    4.3470    0.0430 F   0  0  0  0  0  0  0  0  0  0  0  0
   -0.7274   -0.1956   -0.2242 C   0  0  0  0  0  0  0  0  0  0  0  0
   -0.5837    1.0688   -0.2343 O   0  0  0  0  0  0  0  0  0  0  0  0
   -7.1625    1.9953    1.2859 H   0  0  0  0  0  0  0  0  0  0  0  0
   -6.8594    1.3730   -0.3556 H   0  0  0  0  0  0  0  0  0  0  0  0
   -6.6552    3.1577   -0.0044 H   0  0  0  0  0  0  0  0  0  0  0  0
   -5.9762    0.0717    1.3257 H   0  0  0  0  0  0  0  0  0  0  0  0
   -5.1465    0.9245    2.6304 H   0  0  0  0  0  0  0  0  0  0  0  0
   -4.0751   -1.2013    1.4665 H   0  0  0  0  0  0  0  0  0  0  0  0
   -3.0590    0.0529    2.1705 H   0  0  0  0  0  0  0  0  0  0  0  0
   -2.7335    1.2641   -1.4648 H   0  0  0  0  0  0  0  0  0  0  0  0
   -4.3760    0.3908   -1.5279 H   0  0  0  0  0  0  0  0  0  0  0  0
   -3.3785    2.7108    0.1957 H   0  0  0  0  0  0  0  0  0  0  0  0
   -4.6749    2.7500   -1.0384 H   0  0  0  0  0  0  0  0  0  0  0  0
   -2.2026   -4.6779   -0.1025 H   0  0  0  0  0  0  0  0  0  0  0  0
    1.9639   -5.2233   -0.7769 H   0  0  0  0  0  0  0  0  0  0  0  0
    2.2243   -2.7758   -0.7866 H   0  0  0  0  0  0  0  0  0  0  0  0
    1.5894    0.6309   -0.8117 H   0  0  0  0  0  0  0  0  0  0  0  0
    4.1253    0.3363   -1.8109 H   0  0  0  0  0  0  0  0  0  0  0  0
    5.9701    1.8755   -1.8178 H   0  0  0  0  0  0  0  0  0  0  0  0
    5.8658    2.1619    2.4284 H   0  0  0  0  0  0  0  0  0  0  0  0
    3.9743    0.5850    2.4735 H   0  0  0  0  0  0  0  0  0  0  0  0
  1  2  1  0
  2  3  1  0
  3  4  1  0
  4  5  1  0
  5  6  1  0
  6  7  1  0
  5  8  1  0
  8  9  2  0
  9 10  1  0
 10 11  2  0
 11 12  1  0
 12 13  1  0
 12 14  2  0
 14 15  1  0
 15 16  2  0
 16 17  1  0
 17 18  1  0
 18 19  1  0
 19 20  2  0
 19 21  1  0
 21 22  2  0
 22 23  1  0
 23 24  2  0
 24 25  1  0
 25 26  2  0
 24 27  1  0
 27 28  1  0
 27 29  1  0
 27 30  1  0
 17 31  1  0
 31 32  2  0
  7  2  1  0
 31  8  1  0
 16 10  1  0
 26 21  1  0
  1 33  1  0
  1 34  1  0
  1 35  1  0
  3 36  1  0
  3 37  1  0
  4 38  1  0
  4 39  1  0
  6 40  1  0
  6 41  1  0
  7 42  1  0
  7 43  1  0
 11 44  1  0
 14 45  1  0
 15 46  1  0
 18 47  1  0
 22 48  1  0
 23 49  1  0
 25 50  1  0
 26 51  1  0
M  END
$$$$
[H]c1c([H])c([H])c(C2(C(=O)N([H])[H])C([H])([H])C([H])([H])N(C([H])([H])C([H])([H])[C@@]3(c4c([H])c([H])c(Cl)c(Cl)c4[H])C([H])([H])N(C(=O)c4c([H])c(OC([H])([H])[H])c(OC([H])([H])[H])c(OC([H])([H])[H])c4[H])C([H])([H])C3([H])[H])C([H])([H])C2([H])[H])c([H])c1[H]
     RDKit          3D

 83 87  0  0  0  0  0  0  0  0999 V2000
   -4.3454   -0.3403    3.3861 C   0  0  0  0  0  0  0  0  0  0  0  0
   -5.1707    0.6956    2.9146 O   0  0  0  0  0  0  0  0  0  0  0  0
   -5.1559    1.1938    1.6413 C   0  0  0  0  0  0  0  0  0  0  0  0
   -4.2810    0.6791    0.6808 C   0  0  0  0  0  0  0  0  0  0  0  0
   -4.2106    1.1266   -0.6083 C   0  0  0  0  0  0  0  0  0  0  0  0
   -5.0991    2.1690   -0.9227 C   0  0  0  0  0  0  0  0  0  0  0  0
   -5.9691    2.6849    0.0232 C   0  0  0  0  0  0  0  0  0  0  0  0
   -6.8459    3.7314   -0.3255 O   0  0  0  0  0  0  0  0  0  0  0  0
   -6.8142    4.2467   -1.6558 C   0  0  0  0  0  0  0  0  0  0  0  0
   -6.0118    2.2151    1.2955 C   0  0  0  0  0  0  0  0  0  0  0  0
   -6.9080    2.7697    2.2060 O   0  0  0  0  0  0  0  0  0  0  0  0
   -8.2242    2.3244    2.3885 C   0  0  0  0  0  0  0  0  0  0  0  0
   -3.3424    0.6662   -1.6503 C   0  0  0  0  0  0  0  0  0  0  0  0
   -3.5343    1.2085   -2.8200 O   0  0  0  0  0  0  0  0  0  0  0  0
   -2.3090   -0.2802   -1.6264 N   0  0  0  0  0  0  0  0  0  0  0  0
   -1.5654   -0.6200   -2.8542 C   0  0  0  0  0  0  0  0  0  0  0  0
   -0.7632   -1.8416   -2.5688 C   0  0  0  0  0  0  0  0  0  0  0  0
   -0.6380   -1.8724   -1.0717 C   0  0  1  0  0  0  0  0  0  0  0  0
    0.7565   -1.4283   -0.7357 C   0  0  0  0  0  0  0  0  0  0  0  0
    1.1757   -0.0904   -1.1877 C   0  0  0  0  0  0  0  0  0  0  0  0
    2.5309    0.1572   -0.8181 N   0  0  0  0  0  0  0  0  0  0  0  0
    2.7635    0.3177    0.5521 C   0  0  0  0  0  0  0  0  0  0  0  0
    4.1366    0.6513    0.9779 C   0  0  0  0  0  0  0  0  0  0  0  0
    5.0979    1.1266   -0.0916 C   0  0  0  0  0  0  0  0  0  0  0  0
    4.7221    0.6874   -1.4754 C   0  0  0  0  0  0  0  0  0  0  0  0
    3.2459    1.0700   -1.6782 C   0  0  0  0  0  0  0  0  0  0  0  0
    5.2104    2.5945   -0.0655 C   0  0  0  0  0  0  0  0  0  0  0  0
    5.2947    3.3436    1.1040 N   0  0  0  0  0  0  0  0  0  0  0  0
    5.2289    3.2098   -1.1873 O   0  0  0  0  0  0  0  0  0  0  0  0
    6.4278    0.5597    0.3249 C   0  0  0  0  0  0  0  0  0  0  0  0
    7.1030   -0.3309   -0.4826 C   0  0  0  0  0  0  0  0  0  0  0  0
    8.2996   -0.8477   -0.0372 C   0  0  0  0  0  0  0  0  0  0  0  0
    8.8702   -0.5297    1.1710 C   0  0  0  0  0  0  0  0  0  0  0  0
    8.1867    0.3561    1.9607 C   0  0  0  0  0  0  0  0  0  0  0  0
    6.9626    0.8961    1.5273 C   0  0  0  0  0  0  0  0  0  0  0  0
   -1.7516   -1.0460   -0.5870 C   0  0  0  0  0  0  0  0  0  0  0  0
   -0.8358   -3.2866   -0.5784 C   0  0  0  0  0  0  0  0  0  0  0  0
   -2.0055   -3.9166   -0.9409 C   0  0  0  0  0  0  0  0  0  0  0  0
   -2.2050   -5.2192   -0.5075 C   0  0  0  0  0  0  0  0  0  0  0  0
   -1.2903   -5.8926    0.2594 C   0  0  0  0  0  0  0  0  0  0  0  0
   -1.5406   -7.5525    0.8103 Cl  0  0  0  0  0  0  0  0  0  0  0  0
   -0.1277   -5.2452    0.6110 C   0  0  0  0  0  0  0  0  0  0  0  0
    1.0942   -6.0435    1.5979 Cl  0  0  0  0  0  0  0  0  0  0  0  0
    0.0992   -3.9365    0.1897 C   0  0  0  0  0  0  0  0  0  0  0  0
   -3.2993   -0.0434    3.2372 H   0  0  0  0  0  0  0  0  0  0  0  0
   -4.6232   -1.2734    2.8405 H   0  0  0  0  0  0  0  0  0  0  0  0
   -4.5403   -0.4506    4.4843 H   0  0  0  0  0  0  0  0  0  0  0  0
   -3.6518   -0.1246    1.0220 H   0  0  0  0  0  0  0  0  0  0  0  0
   -5.1460    2.6120   -1.8994 H   0  0  0  0  0  0  0  0  0  0  0  0
   -5.8208    4.7281   -1.8316 H   0  0  0  0  0  0  0  0  0  0  0  0
   -7.5818    5.0140   -1.8124 H   0  0  0  0  0  0  0  0  0  0  0  0
   -7.0042    3.4049   -2.3341 H   0  0  0  0  0  0  0  0  0  0  0  0
   -8.6087    1.9865    1.3943 H   0  0  0  0  0  0  0  0  0  0  0  0
   -8.8882    3.1208    2.7974 H   0  0  0  0  0  0  0  0  0  0  0  0
   -8.3153    1.4555    3.0679 H   0  0  0  0  0  0  0  0  0  0  0  0
   -2.2972   -0.7977   -3.6849 H   0  0  0  0  0  0  0  0  0  0  0  0
   -0.9864    0.2677   -3.1561 H   0  0  0  0  0  0  0  0  0  0  0  0
    0.2518   -1.8091   -3.0406 H   0  0  0  0  0  0  0  0  0  0  0  0
   -1.3470   -2.7096   -2.9602 H   0  0  0  0  0  0  0  0  0  0  0  0
    1.5182   -2.1689   -1.0386 H   0  0  0  0  0  0  0  0  0  0  0  0
    0.7923   -1.4180    0.3982 H   0  0  0  0  0  0  0  0  0  0  0  0
    0.5473    0.7467   -0.8346 H   0  0  0  0  0  0  0  0  0  0  0  0
    1.1628   -0.0073   -2.3229 H   0  0  0  0  0  0  0  0  0  0  0  0
    1.9950    1.0392    0.9833 H   0  0  0  0  0  0  0  0  0  0  0  0
    2.4905   -0.6453    1.0858 H   0  0  0  0  0  0  0  0  0  0  0  0
    4.6008   -0.1683    1.5808 H   0  0  0  0  0  0  0  0  0  0  0  0
    4.0575    1.4998    1.7245 H   0  0  0  0  0  0  0  0  0  0  0  0
    5.3778    1.1892   -2.1975 H   0  0  0  0  0  0  0  0  0  0  0  0
    4.7535   -0.4195   -1.6107 H   0  0  0  0  0  0  0  0  0  0  0  0
    2.9461    0.8321   -2.7169 H   0  0  0  0  0  0  0  0  0  0  0  0
    3.1122    2.1142   -1.4199 H   0  0  0  0  0  0  0  0  0  0  0  0
    4.5240    3.4776    1.7729 H   0  0  0  0  0  0  0  0  0  0  0  0
    6.2196    3.8130    1.3295 H   0  0  0  0  0  0  0  0  0  0  0  0
    6.6830   -0.5968   -1.4434 H   0  0  0  0  0  0  0  0  0  0  0  0
    8.8176   -1.5520   -0.6918 H   0  0  0  0  0  0  0  0  0  0  0  0
    9.8312   -0.9697    1.4893 H   0  0  0  0  0  0  0  0  0  0  0  0
    8.5748    0.6527    2.9253 H   0  0  0  0  0  0  0  0  0  0  0  0
    6.4785    1.5818    2.2380 H   0  0  0  0  0  0  0  0  0  0  0  0
   -2.5667   -1.7567   -0.2442 H   0  0  0  0  0  0  0  0  0  0  0  0
   -1.5041   -0.4640    0.3349 H   0  0  0  0  0  0  0  0  0  0  0  0
   -2.7285   -3.3869   -1.5453 H   0  0  0  0  0  0  0  0  0  0  0  0
   -3.1029   -5.7195   -0.7795 H   0  0  0  0  0  0  0  0  0  0  0  0
    1.0162   -3.4152    0.4631 H   0  0  0  0  0  0  0  0  0  0  0  0
  1  2  1  0
  2  3  1  0
  3  4  2  0
  4  5  1  0
  5  6  2  0
  6  7  1  0
  7  8  1  0
  8  9  1  0
  7 10  2  0
 10 11  1  0
 11 12  1  0
  5 13  1  0
 13 14  2  0
 13 15  1  0
 15 16  1  0
 16 17  1  0
 17 18  1  0
 18 19  1  6
 19 20  1  0
 20 21  1  0
 21 22  1  0
 22 23  1  0
 23 24  1  0
 24 25  1  0
 25 26  1  0
 24 27  1  0
 27 28  1  0
 27 29  2  0
 24 30  1  0
 30 31  2  0
 31 32  1  0
 32 33  2  0
 33 34  1  0
 34 35  2  0
 18 36  1  0
 18 37  1  0
 37 38  2  0
 38 39  1  0
 39 40  2  0
 40 41  1  0
 40 42  1  0
 42 43  1  0
 42 44  2  0
 10  3  1  0
 36 15  1  0
 44 37  1  0
 26 21  1  0
 35 30  1  0
  1 45  1  0
  1 46  1  0
  1 47  1  0
  4 48  1  0
  6 49  1  0
  9 50  1  0
  9 51  1  0
  9 52  1  0
 12 53  1  0
 12 54  1  0
 12 55  1  0
 16 56  1  0
 16 57  1  0
 17 58  1  0
 17 59  1  0
 19 60  1  0
 19 61  1  0
 20 62  1  0
 20 63  1  0
 22 64  1  0
 22 65  1  0
 23 66  1  0
 23 67  1  0
 25 68  1  0
 25 69  1  0
 26 70  1  0
 26 71  1  0
 28 72  1  0
 28 73  1  0
 31 74  1  0
 32 75  1  0
 33 76  1  0
 34 77  1  0
 35 78  1  0
 36 79  1  0
 36 80  1  0
 38 81  1  0
 39 82  1  0
 44 83  1  0
M  END
$$$$
[H]c1c([H])c(Cl)c(-c2c([H])c3c([H])nc(N([H])c4c([H])c([H])c(N5C([H])([H])C([H])([H])N(C([H])([H])[H])C([H])([H])C5([H])[H])c(C([H])([H])[H])c4[H])nc3n(C([H])([H])[H])c2=O)c(Cl)c1[H]
     RDKit          3D

 61 65  0  0  0  0  0  0  0  0999 V2000
   -8.0296    1.9170    1.0234 C   0  0  0  0  0  0  0  0  0  0  0  0
   -7.4907    0.6261    0.6568 N   0  0  0  0  0  0  0  0  0  0  0  0
   -7.0303    0.5799   -0.7055 C   0  0  0  0  0  0  0  0  0  0  0  0
   -5.5212    0.6443   -0.8074 C   0  0  0  0  0  0  0  0  0  0  0  0
   -4.9023   -0.4315   -0.0642 N   0  0  0  0  0  0  0  0  0  0  0  0
   -5.6468   -0.9388    1.0846 C   0  0  0  0  0  0  0  0  0  0  0  0
   -6.5232    0.1407    1.6046 C   0  0  0  0  0  0  0  0  0  0  0  0
   -3.6353   -0.9780   -0.4241 C   0  0  0  0  0  0  0  0  0  0  0  0
   -3.4949   -2.2812   -0.8397 C   0  0  0  0  0  0  0  0  0  0  0  0
   -2.2590   -2.7709   -1.1840 C   0  0  0  0  0  0  0  0  0  0  0  0
   -1.0907   -2.0022   -1.1377 C   0  0  0  0  0  0  0  0  0  0  0  0
    0.1160   -2.5983   -1.5274 N   0  0  0  0  0  0  0  0  0  0  0  0
    1.4321   -2.1776   -1.3058 C   0  0  0  0  0  0  0  0  0  0  0  0
    2.4777   -2.8971   -1.7776 N   0  0  0  0  0  0  0  0  0  0  0  0
    3.7521   -2.5229   -1.5661 C   0  0  0  0  0  0  0  0  0  0  0  0
    4.0455   -1.3813   -0.8540 C   0  0  0  0  0  0  0  0  0  0  0  0
    5.3086   -0.9321   -0.5943 C   0  0  0  0  0  0  0  0  0  0  0  0
    5.5663    0.2231    0.1280 C   0  0  0  0  0  0  0  0  0  0  0  0
    6.9391    0.6509    0.3740 C   0  0  0  0  0  0  0  0  0  0  0  0
    7.6707    0.2613    1.4726 C   0  0  0  0  0  0  0  0  0  0  0  0
    6.8950   -0.8035    2.6226 Cl  0  0  0  0  0  0  0  0  0  0  0  0
    8.9708    0.6780    1.6866 C   0  0  0  0  0  0  0  0  0  0  0  0
    9.5710    1.5168    0.7723 C   0  0  0  0  0  0  0  0  0  0  0  0
    8.8543    1.9282   -0.3504 C   0  0  0  0  0  0  0  0  0  0  0  0
    7.5600    1.4902   -0.5273 C   0  0  0  0  0  0  0  0  0  0  0  0
    6.6409    2.0022   -1.9434 Cl  0  0  0  0  0  0  0  0  0  0  0  0
    4.4644    0.9279    0.5915 C   0  0  0  0  0  0  0  0  0  0  0  0
    4.6487    1.9858    1.2536 O   0  0  0  0  0  0  0  0  0  0  0  0
    3.2110    0.4940    0.3413 N   0  0  0  0  0  0  0  0  0  0  0  0
    2.0583    1.2276    0.8233 C   0  0  0  0  0  0  0  0  0  0  0  0
    2.9785   -0.6365   -0.3659 C   0  0  0  0  0  0  0  0  0  0  0  0
    1.7456   -1.0857   -0.6253 N   0  0  0  0  0  0  0  0  0  0  0  0
   -1.2468   -0.7127   -0.7242 C   0  0  0  0  0  0  0  0  0  0  0  0
   -2.5065   -0.2053   -0.3704 C   0  0  0  0  0  0  0  0  0  0  0  0
   -2.5557    1.2098    0.0740 C   0  0  0  0  0  0  0  0  0  0  0  0
   -7.9301    2.0247    2.1137 H   0  0  0  0  0  0  0  0  0  0  0  0
   -7.4708    2.7212    0.5186 H   0  0  0  0  0  0  0  0  0  0  0  0
   -9.1001    2.0221    0.7022 H   0  0  0  0  0  0  0  0  0  0  0  0
   -7.4482   -0.3090   -1.2021 H   0  0  0  0  0  0  0  0  0  0  0  0
   -7.4310    1.4721   -1.2268 H   0  0  0  0  0  0  0  0  0  0  0  0
   -5.2887    0.4281   -1.8923 H   0  0  0  0  0  0  0  0  0  0  0  0
   -5.1260    1.6369   -0.6096 H   0  0  0  0  0  0  0  0  0  0  0  0
   -4.9488   -1.2530    1.8833 H   0  0  0  0  0  0  0  0  0  0  0  0
   -6.2484   -1.8104    0.6958 H   0  0  0  0  0  0  0  0  0  0  0  0
   -7.0459   -0.1868    2.5258 H   0  0  0  0  0  0  0  0  0  0  0  0
   -5.8486    1.0114    1.8571 H   0  0  0  0  0  0  0  0  0  0  0  0
   -4.3863   -2.8903   -0.8817 H   0  0  0  0  0  0  0  0  0  0  0  0
   -2.1647   -3.8043   -1.5093 H   0  0  0  0  0  0  0  0  0  0  0  0
    0.0422   -3.5251   -2.0935 H   0  0  0  0  0  0  0  0  0  0  0  0
    4.5838   -3.0946   -1.9406 H   0  0  0  0  0  0  0  0  0  0  0  0
    6.1534   -1.4923   -0.9621 H   0  0  0  0  0  0  0  0  0  0  0  0
    9.5555    0.3790    2.5456 H   0  0  0  0  0  0  0  0  0  0  0  0
   10.5847    1.8790    0.8808 H   0  0  0  0  0  0  0  0  0  0  0  0
    9.3461    2.5830   -1.0487 H   0  0  0  0  0  0  0  0  0  0  0  0
    1.4360    0.6091    1.5266 H   0  0  0  0  0  0  0  0  0  0  0  0
    1.4285    1.5913   -0.0186 H   0  0  0  0  0  0  0  0  0  0  0  0
    2.3494    2.1276    1.4012 H   0  0  0  0  0  0  0  0  0  0  0  0
   -0.4202   -0.0313   -0.6622 H   0  0  0  0  0  0  0  0  0  0  0  0
   -2.7617    1.8543   -0.8021 H   0  0  0  0  0  0  0  0  0  0  0  0
   -1.5560    1.5044    0.5166 H   0  0  0  0  0  0  0  0  0  0  0  0
   -3.2773    1.4047    0.8681 H   0  0  0  0  0  0  0  0  0  0  0  0
  1  2  1  0
  2  3  1  0
  3  4  1  0
  4  5  1  0
  5  6  1  0
  6  7  1  0
  5  8  1  0
  8  9  2  0
  9 10  1  0
 10 11  2  0
 11 12  1  0
 12 13  1  0
 13 14  2  0
 14 15  1  0
 15 16  2  0
 16 17  1  0
 17 18  2  0
 18 19  1  0
 19 20  2  0
 20 21  1  0
 20 22  1  0
 22 23  2  0
 23 24  1  0
 24 25  2  0
 25 26  1  0
 18 27  1  0
 27 28  2  0
 27 29  1  0
 29 30  1  0
 29 31  1  0
 31 32  2  0
 11 33  1  0
 33 34  2  0
 34 35  1  0
  7  2  1  0
 34  8  1  0
 32 13  1  0
 31 16  1  0
 25 19  1  0
  1 36  1  0
  1 37  1  0
  1 38  1  0
  3 39  1  0
  3 40  1  0
  4 41  1  0
  4 42  1  0
  6 43  1  0
  6 44  1  0
  7 45  1  0
  7 46  1  0
  9 47  1  0
 10 48  1  0
 12 49  1  0
 15 50  1  0
 17 51  1  0
 22 52  1  0
 23 53  1  0
 24 54  1  0
 30 55  1  0
 30 56  1  0
 30 57  1  0
 33 58  1  0
 35 59  1  0
 35 60  1  0
 35 61  1  0
M  END
$$$$
[H]OC(=O)[C@@]1([H])C([H])([H])C([H])([H])[C@@]2([H])[C@]3([H])C([H])([H])C([H])([H])c4c([H])c(O[H])c([H])c([H])c4[C@@]3([H])C([H])([H])C([H])([H])[C@]12C([H])([H])[H]
     RDKit          3D

 46 49  0  0  0  0  0  0  0  0999 V2000
    1.7860    1.7362   -0.0914 C   0  0  0  0  0  0  0  0  0  0  0  0
    1.8979    0.2616   -0.3825 C   0  0  2  0  0  0  0  0  0  0  0  0
    1.2909   -0.1205   -1.6804 C   0  0  0  0  0  0  0  0  0  0  0  0
   -0.1952    0.2362   -1.6158 C   0  0  0  0  0  0  0  0  0  0  0  0
   -0.8469   -0.5731   -0.5321 C   0  0  1  0  0  0  0  0  0  0  0  0
   -0.2185   -0.2942    0.8347 C   0  0  1  0  0  0  0  0  0  0  0  0
   -0.8279   -1.2498    1.8122 C   0  0  0  0  0  0  0  0  0  0  0  0
   -2.1842   -1.7471    1.4368 C   0  0  0  0  0  0  0  0  0  0  0  0
   -2.9721   -0.7776    0.6311 C   0  0  0  0  0  0  0  0  0  0  0  0
   -4.2872   -0.4794    0.8482 C   0  0  0  0  0  0  0  0  0  0  0  0
   -4.8869    0.4502    0.0076 C   0  0  0  0  0  0  0  0  0  0  0  0
   -6.2319    0.7213    0.2698 O   0  0  0  0  0  0  0  0  0  0  0  0
   -4.1954    1.0668   -1.0223 C   0  0  0  0  0  0  0  0  0  0  0  0
   -2.8661    0.7580   -1.2330 C   0  0  0  0  0  0  0  0  0  0  0  0
   -2.2768   -0.1551   -0.4074 C   0  0  0  0  0  0  0  0  0  0  0  0
    1.2320   -0.5705    0.7111 C   0  0  2  0  0  0  0  0  0  0  0  0
    2.0679   -0.2300    1.8892 C   0  0  0  0  0  0  0  0  0  0  0  0
    3.4779   -0.1198    1.3098 C   0  0  0  0  0  0  0  0  0  0  0  0
    3.3214   -0.1479   -0.1933 C   0  0  2  0  0  0  0  0  0  0  0  0
    4.2942    0.7252   -0.8727 C   0  0  0  0  0  0  0  0  0  0  0  0
    4.2008    0.8452   -2.2497 O   0  0  0  0  0  0  0  0  0  0  0  0
    5.1984    1.3655   -0.2926 O   0  0  0  0  0  0  0  0  0  0  0  0
    2.3472    1.9179    0.8600 H   0  0  0  0  0  0  0  0  0  0  0  0
    2.3174    2.2698   -0.8961 H   0  0  0  0  0  0  0  0  0  0  0  0
    0.7652    2.0993    0.0167 H   0  0  0  0  0  0  0  0  0  0  0  0
    1.3638   -1.1946   -1.8407 H   0  0  0  0  0  0  0  0  0  0  0  0
    1.7118    0.4686   -2.5282 H   0  0  0  0  0  0  0  0  0  0  0  0
   -0.6241   -0.1014   -2.5789 H   0  0  0  0  0  0  0  0  0  0  0  0
   -0.3182    1.3132   -1.5226 H   0  0  0  0  0  0  0  0  0  0  0  0
   -0.7268   -1.6348   -0.7551 H   0  0  0  0  0  0  0  0  0  0  0  0
   -0.4557    0.7328    1.1765 H   0  0  0  0  0  0  0  0  0  0  0  0
   -0.1579   -2.1511    1.9308 H   0  0  0  0  0  0  0  0  0  0  0  0
   -0.9003   -0.8221    2.8423 H   0  0  0  0  0  0  0  0  0  0  0  0
   -2.0566   -2.6626    0.7917 H   0  0  0  0  0  0  0  0  0  0  0  0
   -2.7379   -2.0904    2.3261 H   0  0  0  0  0  0  0  0  0  0  0  0
   -4.8086   -0.9695    1.6546 H   0  0  0  0  0  0  0  0  0  0  0  0
   -6.7928    1.3596   -0.2427 H   0  0  0  0  0  0  0  0  0  0  0  0
   -4.6943    1.7832   -1.6542 H   0  0  0  0  0  0  0  0  0  0  0  0
   -2.2935    1.2131   -2.0202 H   0  0  0  0  0  0  0  0  0  0  0  0
    1.3791   -1.6234    0.4417 H   0  0  0  0  0  0  0  0  0  0  0  0
    2.0043   -1.0508    2.6326 H   0  0  0  0  0  0  0  0  0  0  0  0
    1.7697    0.7007    2.4082 H   0  0  0  0  0  0  0  0  0  0  0  0
    4.0522   -0.9994    1.6839 H   0  0  0  0  0  0  0  0  0  0  0  0
    3.9812    0.8011    1.6484 H   0  0  0  0  0  0  0  0  0  0  0  0
    3.4579   -1.2206   -0.5128 H   0  0  0  0  0  0  0  0  0  0  0  0
    4.6385    0.1602   -2.8701 H   0  0  0  0  0  0  0  0  0  0  0  0
  2  1  1  1
  2  3  1  0
  3  4  1  0
  4  5  1  0
  5  6  1  0
  6  7  1  0
  7  8  1  0
  8  9  1  0
  9 10  2  0
 10 11  1  0
 11 12  1  0
 11 13  2  0
 13 14  1  0
 14 15  2  0
  6 16  1  0
 16 17  1  0
 17 18  1  0
 18 19  1  0
 19 20  1  0
 20 21  1  0
 20 22  2  0
 16  2  1  0
 19  2  1  0
 15  5  1  0
 15  9  1  0
  1 23  1  0
  1 24  1  0
  1 25  1  0
  3 26  1  0
  3 27  1  0
  4 28  1  0
  4 29  1  0
  5 30  1  6
  6 31  1  1
  7 32  1  0
  7 33  1  0
  8 34  1  0
  8 35  1  0
 10 36  1  0
 12 37  1  0
 13 38  1  0
 14 39  1  0
 16 40  1  6
 17 41  1  0
 17 42  1  0
 18 43  1  0
 18 44  1  0
 19 45  1  6
 21 46  1  0
M  END
$$$$
[H]OC(=O)C([H])([H])Oc1c([H])c([H])c([H])c2c1c(C(=O)C(=O)N([H])[H])c(C([H])([H])C([H])([H])[H])n2C([H])([H])c1c([H])c([H])c([H])c([H])c1[H]
     RDKit          3D

 48 50  0  0  0  0  0  0  0  0999 V2000
    1.5527    2.5939    1.3463 C   0  0  0  0  0  0  0  0  0  0  0  0
    1.2316    2.3902   -0.1145 C   0  0  0  0  0  0  0  0  0  0  0  0
    0.5790    1.0839   -0.3959 C   0  0  0  0  0  0  0  0  0  0  0  0
   -0.7546    0.8284   -0.0584 C   0  0  0  0  0  0  0  0  0  0  0  0
   -1.6609    1.7647    0.6190 C   0  0  0  0  0  0  0  0  0  0  0  0
   -1.7477    1.7945    1.8709 O   0  0  0  0  0  0  0  0  0  0  0  0
   -2.4924    2.6941   -0.1508 C   0  0  0  0  0  0  0  0  0  0  0  0
   -3.3733    3.6062    0.4909 N   0  0  0  0  0  0  0  0  0  0  0  0
   -2.4103    2.6684   -1.3997 O   0  0  0  0  0  0  0  0  0  0  0  0
   -1.0611   -0.4479   -0.4719 C   0  0  0  0  0  0  0  0  0  0  0  0
   -2.2096   -1.2165   -0.4104 C   0  0  0  0  0  0  0  0  0  0  0  0
   -3.3678   -0.6936    0.1843 O   0  0  0  0  0  0  0  0  0  0  0  0
   -4.5399   -1.4881    0.2430 C   0  0  0  0  0  0  0  0  0  0  0  0
   -5.6270   -0.7484    0.9036 C   0  0  0  0  0  0  0  0  0  0  0  0
   -5.4040    0.5373    1.3587 O   0  0  0  0  0  0  0  0  0  0  0  0
   -6.7580   -1.2805    1.0561 O   0  0  0  0  0  0  0  0  0  0  0  0
   -2.1970   -2.4876   -0.9360 C   0  0  0  0  0  0  0  0  0  0  0  0
   -1.0545   -2.9859   -1.5155 C   0  0  0  0  0  0  0  0  0  0  0  0
    0.0810   -2.2211   -1.5740 C   0  0  0  0  0  0  0  0  0  0  0  0
    0.1000   -0.9407   -1.0541 C   0  0  0  0  0  0  0  0  0  0  0  0
    1.0888   -0.0010   -1.0010 N   0  0  0  0  0  0  0  0  0  0  0  0
    2.4035   -0.1840   -1.5265 C   0  0  0  0  0  0  0  0  0  0  0  0
    3.4196   -0.7157   -0.6031 C   0  0  0  0  0  0  0  0  0  0  0  0
    3.6545   -2.0636   -0.4306 C   0  0  0  0  0  0  0  0  0  0  0  0
    4.6407   -2.5315    0.4547 C   0  0  0  0  0  0  0  0  0  0  0  0
    5.4189   -1.6693    1.1906 C   0  0  0  0  0  0  0  0  0  0  0  0
    5.1956   -0.3267    1.0277 C   0  0  0  0  0  0  0  0  0  0  0  0
    4.2369    0.1140    0.1669 C   0  0  0  0  0  0  0  0  0  0  0  0
    2.6524    2.8010    1.4141 H   0  0  0  0  0  0  0  0  0  0  0  0
    1.0249    3.4672    1.7772 H   0  0  0  0  0  0  0  0  0  0  0  0
    1.3002    1.6632    1.8777 H   0  0  0  0  0  0  0  0  0  0  0  0
    0.5874    3.2322   -0.4352 H   0  0  0  0  0  0  0  0  0  0  0  0
    2.1536    2.4698   -0.7557 H   0  0  0  0  0  0  0  0  0  0  0  0
   -4.3639    3.4363    0.6858 H   0  0  0  0  0  0  0  0  0  0  0  0
   -2.9639    4.5228    0.7831 H   0  0  0  0  0  0  0  0  0  0  0  0
   -4.8680   -1.7258   -0.8094 H   0  0  0  0  0  0  0  0  0  0  0  0
   -4.3288   -2.4634    0.7272 H   0  0  0  0  0  0  0  0  0  0  0  0
   -5.9664    1.3337    1.0917 H   0  0  0  0  0  0  0  0  0  0  0  0
   -3.1234   -3.0668   -0.8696 H   0  0  0  0  0  0  0  0  0  0  0  0
   -1.0424   -3.9898   -1.9318 H   0  0  0  0  0  0  0  0  0  0  0  0
    0.9680   -2.6586   -2.0525 H   0  0  0  0  0  0  0  0  0  0  0  0
    2.7802    0.7494   -2.0479 H   0  0  0  0  0  0  0  0  0  0  0  0
    2.3334   -0.9181   -2.3874 H   0  0  0  0  0  0  0  0  0  0  0  0
    3.0689   -2.7836   -0.9982 H   0  0  0  0  0  0  0  0  0  0  0  0
    4.7716   -3.6025    0.5411 H   0  0  0  0  0  0  0  0  0  0  0  0
    6.1641   -2.0742    1.8582 H   0  0  0  0  0  0  0  0  0  0  0  0
    5.8213    0.3567    1.6193 H   0  0  0  0  0  0  0  0  0  0  0  0
    4.0860    1.1769    0.0546 H   0  0  0  0  0  0  0  0  0  0  0  0
  1  2  1  0
  2  3  1  0
  3  4  2  0
  4  5  1  0
  5  6  2  0
  5  7  1  0
  7  8  1  0
  7  9  2  0
  4 10  1  0
 10 11  2  0
 11 12  1  0
 12 13  1  0
 13 14  1  0
 14 15  1  0
 14 16  2  0
 11 17  1  0
 17 18  2  0
 18 19  1  0
 19 20  2  0
 20 21  1  0
 21 22  1  0
 22 23  1  0
 23 24  2  0
 24 25  1  0
 25 26  2  0
 26 27  1  0
 27 28  2  0
 21  3  1  0
 28 23  1  0
 20 10  1  0
  1 29  1  0
  1 30  1  0
  1 31  1  0
  2 32  1  0
  2 33  1  0
  8 34  1  0
  8 35  1  0
 13 36  1  0
 13 37  1  0
 15 38  1  0
 17 39  1  0
 18 40  1  0
 19 41  1  0
 22 42  1  0
 22 43  1  0
 24 44  1  0
 25 45  1  0
 26 46  1  0
 27 47  1  0
 28 48  1  0
M  END
$$$$
[H]OC([H])([H])[C@@]1(O[H])C([H])([H])[C@@]2([H])O[C@]1(C([H])([H])[H])n1c3c([H])c([H])c([H])c([H])c3c3c4c(c5c6c([H])c([H])c([H])c([H])c6n2c5c31)C(=O)N([H])C4=O
     RDKit          3D

 53 60  0  0  0  0  0  0  0  0999 V2000
   -3.2536   -0.3191   -1.3077 C   0  0  0  0  0  0  0  0  0  0  0  0
   -1.9922   -0.5302   -0.4891 C   0  0  2  0  0  0  0  0  0  0  0  0
   -1.2261   -1.3263   -1.3816 O   0  0  0  0  0  0  0  0  0  0  0  0
   -0.4552   -2.1851   -0.6434 C   0  0  2  0  0  0  0  0  0  0  0  0
   -1.1492   -2.4550    0.6346 C   0  0  0  0  0  0  0  0  0  0  0  0
   -2.1837   -1.3578    0.7255 C   0  0  1  0  0  0  0  0  0  0  0  0
   -1.9546   -0.6647    1.9131 O   0  0  0  0  0  0  0  0  0  0  0  0
   -3.5376   -2.0044    0.8351 C   0  0  0  0  0  0  0  0  0  0  0  0
   -3.5035   -2.8809    1.9429 O   0  0  0  0  0  0  0  0  0  0  0  0
    0.8706   -1.5405   -0.4677 N   0  0  0  0  0  0  0  0  0  0  0  0
    2.0538   -2.1365   -0.4814 C   0  0  0  0  0  0  0  0  0  0  0  0
    2.3914   -3.4572   -0.6338 C   0  0  0  0  0  0  0  0  0  0  0  0
    3.7055   -3.8346   -0.6121 C   0  0  0  0  0  0  0  0  0  0  0  0
    4.7011   -2.9015   -0.4384 C   0  0  0  0  0  0  0  0  0  0  0  0
    4.3734   -1.5527   -0.2818 C   0  0  0  0  0  0  0  0  0  0  0  0
    3.0666   -1.1853   -0.3044 C   0  0  0  0  0  0  0  0  0  0  0  0
    2.4186    0.0421   -0.1795 C   0  0  0  0  0  0  0  0  0  0  0  0
    2.8449    1.3517    0.0302 C   0  0  0  0  0  0  0  0  0  0  0  0
    4.1760    1.9185    0.1715 C   0  0  0  0  0  0  0  0  0  0  0  0
    5.3248    1.4136    0.1523 O   0  0  0  0  0  0  0  0  0  0  0  0
    3.9953    3.3287    0.3634 N   0  0  0  0  0  0  0  0  0  0  0  0
    2.5851    3.6428    0.3433 C   0  0  0  0  0  0  0  0  0  0  0  0
    2.1845    4.8257    0.4922 O   0  0  0  0  0  0  0  0  0  0  0  0
    1.9021    2.3866    0.1339 C   0  0  0  0  0  0  0  0  0  0  0  0
    0.5577    2.0739    0.0234 C   0  0  0  0  0  0  0  0  0  0  0  0
   -0.6212    2.8071    0.1087 C   0  0  0  0  0  0  0  0  0  0  0  0
   -0.8522    4.1373    0.3325 C   0  0  0  0  0  0  0  0  0  0  0  0
   -2.1789    4.5830    0.3956 C   0  0  0  0  0  0  0  0  0  0  0  0
   -3.2184    3.7235    0.2404 C   0  0  0  0  0  0  0  0  0  0  0  0
   -2.9946    2.3720    0.0133 C   0  0  0  0  0  0  0  0  0  0  0  0
   -1.6901    1.9279   -0.0519 C   0  0  0  0  0  0  0  0  0  0  0  0
   -1.2201    0.6787   -0.2397 N   0  0  0  0  0  0  0  0  0  0  0  0
    0.1527    0.7758   -0.1867 C   0  0  0  0  0  0  0  0  0  0  0  0
    1.0789   -0.2375   -0.2874 C   0  0  0  0  0  0  0  0  0  0  0  0
   -3.1208    0.5742   -1.9395 H   0  0  0  0  0  0  0  0  0  0  0  0
   -3.3563   -1.1553   -2.0912 H   0  0  0  0  0  0  0  0  0  0  0  0
   -4.1831   -0.4024   -0.7531 H   0  0  0  0  0  0  0  0  0  0  0  0
   -0.2576   -3.0975   -1.2082 H   0  0  0  0  0  0  0  0  0  0  0  0
   -1.6411   -3.4681    0.5339 H   0  0  0  0  0  0  0  0  0  0  0  0
   -0.4690   -2.4559    1.5142 H   0  0  0  0  0  0  0  0  0  0  0  0
   -1.6587   -1.3562    2.5850 H   0  0  0  0  0  0  0  0  0  0  0  0
   -4.2695   -1.2222    1.1100 H   0  0  0  0  0  0  0  0  0  0  0  0
   -3.8200   -2.6146   -0.0282 H   0  0  0  0  0  0  0  0  0  0  0  0
   -4.2951   -3.4856    1.8211 H   0  0  0  0  0  0  0  0  0  0  0  0
    1.5744   -4.1807   -0.7709 H   0  0  0  0  0  0  0  0  0  0  0  0
    3.9673   -4.8787   -0.7329 H   0  0  0  0  0  0  0  0  0  0  0  0
    5.7406   -3.1581   -0.4159 H   0  0  0  0  0  0  0  0  0  0  0  0
    5.1602   -0.8441   -0.1477 H   0  0  0  0  0  0  0  0  0  0  0  0
    4.7619    4.0384    0.4993 H   0  0  0  0  0  0  0  0  0  0  0  0
   -0.0814    4.8576    0.4628 H   0  0  0  0  0  0  0  0  0  0  0  0
   -2.3091    5.6540    0.5756 H   0  0  0  0  0  0  0  0  0  0  0  0
   -4.2457    4.0593    0.2881 H   0  0  0  0  0  0  0  0  0  0  0  0
   -3.8490    1.7165   -0.0715 H   0  0  0  0  0  0  0  0  0  0  0  0
  2  1  1  6
  2  3  1  0
  3  4  1  0
  4  5  1  0
  5  6  1  0
  6  7  1  1
  6  8  1  0
  8  9  1  0
  4 10  1  0
 10 11  1  0
 11 12  2  0
 12 13  1  0
 13 14  2  0
 14 15  1  0
 15 16  2  0
 16 17  1  0
 17 18  2  0
 18 19  1  0
 19 20  2  0
 19 21  1  0
 21 22  1  0
 22 23  2  0
 22 24  1  0
 24 25  2  0
 25 26  1  0
 26 27  2  0
 27 28  1  0
 28 29  2  0
 29 30  1  0
 30 31  2  0
 31 32  1  0
 32 33  1  0
 33 34  2  0
  6  2  1  0
 34 10  1  0
 32  2  1  0
 16 11  1  0
 34 17  1  0
 24 18  1  0
 33 25  1  0
 31 26  1  0
  1 35  1  0
  1 36  1  0
  1 37  1  0
  4 38  1  6
  5 39  1  0
  5 40  1  0
  7 41  1  0
  8 42  1  0
  8 43  1  0
  9 44  1  0
 12 45  1  0
 13 46  1  0
 14 47  1  0
 15 48  1  0
 21 49  1  0
 27 50  1  0
 28 51  1  0
 29 52  1  0
 30 53  1  0
M  END
$$$$
[H]/C(C(=O)N([H])[C@]([H])(c1c([H])c([H])c(C(F)(F)F)c([H])c1[H])C([H])([H])[H])=C(/[H])c1c([H])c([H])c([H])c([H])c1[H]
     RDKit          3D

 39 40  0  0  0  0  0  0  0  0999 V2000
   -2.0591   -1.9874    1.7554 C   0  0  0  0  0  0  0  0  0  0  0  0
   -1.7423   -1.5995    0.3005 C   0  0  2  0  0  0  0  0  0  0  0  0
   -0.4978   -0.8545    0.3763 N   0  0  0  0  0  0  0  0  0  0  0  0
    0.7363   -1.4632    0.1144 C   0  0  0  0  0  0  0  0  0  0  0  0
    0.7735   -2.6808   -0.1613 O   0  0  0  0  0  0  0  0  0  0  0  0
    1.9283   -0.6400    0.1683 C   0  0  0  0  0  0  0  0  0  0  0  0
    3.1614   -1.0342   -0.0239 C   0  0  0  0  0  0  0  0  0  0  0  0
    4.3513   -0.2077    0.0246 C   0  0  0  0  0  0  0  0  0  0  0  0
    4.2763    1.1441    0.2492 C   0  0  0  0  0  0  0  0  0  0  0  0
    5.4208    1.8993    0.2900 C   0  0  0  0  0  0  0  0  0  0  0  0
    6.6399    1.3046    0.1069 C   0  0  0  0  0  0  0  0  0  0  0  0
    6.7295   -0.0588   -0.1195 C   0  0  0  0  0  0  0  0  0  0  0  0
    5.5977   -0.8052   -0.1602 C   0  0  0  0  0  0  0  0  0  0  0  0
   -2.8049   -0.6480   -0.1074 C   0  0  0  0  0  0  0  0  0  0  0  0
   -4.0685   -0.6848    0.3741 C   0  0  0  0  0  0  0  0  0  0  0  0
   -5.0405    0.2477    0.0221 C   0  0  0  0  0  0  0  0  0  0  0  0
   -4.6639    1.2432   -0.8593 C   0  0  0  0  0  0  0  0  0  0  0  0
   -3.3809    1.3145   -1.3752 C   0  0  0  0  0  0  0  0  0  0  0  0
   -2.4658    0.3831   -1.0043 C   0  0  0  0  0  0  0  0  0  0  0  0
   -5.6928    2.2729   -1.2344 C   0  0  0  0  0  0  0  0  0  0  0  0
   -6.1108    2.8805   -0.0616 F   0  0  0  0  0  0  0  0  0  0  0  0
   -5.1661    3.2073   -2.0665 F   0  0  0  0  0  0  0  0  0  0  0  0
   -6.7897    1.6064   -1.7414 F   0  0  0  0  0  0  0  0  0  0  0  0
   -1.1858   -2.4693    2.2190 H   0  0  0  0  0  0  0  0  0  0  0  0
   -2.9066   -2.7025    1.6993 H   0  0  0  0  0  0  0  0  0  0  0  0
   -2.3857   -1.0702    2.2649 H   0  0  0  0  0  0  0  0  0  0  0  0
   -1.6813   -2.4975   -0.3211 H   0  0  0  0  0  0  0  0  0  0  0  0
   -0.5931    0.1613    0.6404 H   0  0  0  0  0  0  0  0  0  0  0  0
    1.8125    0.4300    0.3763 H   0  0  0  0  0  0  0  0  0  0  0  0
    3.2832   -2.1102   -0.2324 H   0  0  0  0  0  0  0  0  0  0  0  0
    3.3410    1.6481    0.3976 H   0  0  0  0  0  0  0  0  0  0  0  0
    5.3153    2.9762    0.4607 H   0  0  0  0  0  0  0  0  0  0  0  0
    7.5063    1.9128    0.1390 H   0  0  0  0  0  0  0  0  0  0  0  0
    7.6963   -0.4748   -0.2530 H   0  0  0  0  0  0  0  0  0  0  0  0
    5.6351   -1.8678   -0.3275 H   0  0  0  0  0  0  0  0  0  0  0  0
   -4.3741   -1.4675    1.0667 H   0  0  0  0  0  0  0  0  0  0  0  0
   -6.0356    0.1968    0.4175 H   0  0  0  0  0  0  0  0  0  0  0  0
   -3.1175    2.1001   -2.0573 H   0  0  0  0  0  0  0  0  0  0  0  0
   -1.4419    0.3948   -1.3827 H   0  0  0  0  0  0  0  0  0  0  0  0
  1  2  1  0
  2  3  1  0
  3  4  1  0
  4  5  2  0
  4  6  1  0
  6  7  2  0
  7  8  1  0
  8  9  2  0
  9 10  1  0
 10 11  2  0
 11 12  1  0
 12 13  2  0
  2 14  1  0
 14 15  2  0
 15 16  1  0
 16 17  2  0
 17 18  1  0
 18 19  2  0
 17 20  1  0
 20 21  1  0
 20 22  1  0
 20 23  1  0
 13  8  1  0
 19 14  1  0
  1 24  1  0
  1 25  1  0
  1 26  1  0
  2 27  1  6
  3 28  1  0
  6 29  1  0
  7 30  1  0
  9 31  1  0
 10 32  1  0
 11 33  1  0
 12 34  1  0
 13 35  1  0
 15 36  1  0
 16 37  1  0
 18 38  1  0
 19 39  1  0
M  END
$$$$
[H]OC(=O)[C@@]1([H])N(C(=O)/C([H])=C(\[H])c2c([H])c([H])c([H])c(C(F)(F)F)c2[H])C([H])([H])C([H])([H])C1([H])[H]
     RDKit          3D

 36 37  0  0  0  0  0  0  0  0999 V2000
   -2.0743   -0.4215    2.5604 O   0  0  0  0  0  0  0  0  0  0  0  0
   -2.5523   -1.1022    1.4692 C   0  0  0  0  0  0  0  0  0  0  0  0
   -2.2737   -2.3330    1.3445 O   0  0  0  0  0  0  0  0  0  0  0  0
   -3.3683   -0.4233    0.4685 C   0  0  2  0  0  0  0  0  0  0  0  0
   -4.1238   -1.3421   -0.4401 C   0  0  0  0  0  0  0  0  0  0  0  0
   -4.3706   -0.5097   -1.7070 C   0  0  0  0  0  0  0  0  0  0  0  0
   -3.8980    0.8848   -1.2765 C   0  0  0  0  0  0  0  0  0  0  0  0
   -2.7114    0.4581   -0.4395 N   0  0  0  0  0  0  0  0  0  0  0  0
   -1.4672    0.8618   -0.6783 C   0  0  0  0  0  0  0  0  0  0  0  0
   -1.6650    1.8825   -1.7321 O   0  0  0  0  0  0  0  0  0  0  0  0
   -0.0894    0.8380   -0.4649 C   0  0  0  0  0  0  0  0  0  0  0  0
    0.7367    0.1480    0.3079 C   0  0  0  0  0  0  0  0  0  0  0  0
    2.1856    0.3818    0.3066 C   0  0  0  0  0  0  0  0  0  0  0  0
    2.6953    1.5854   -0.1803 C   0  0  0  0  0  0  0  0  0  0  0  0
    4.0515    1.8489   -0.3162 C   0  0  0  0  0  0  0  0  0  0  0  0
    4.9543    0.8825    0.0452 C   0  0  0  0  0  0  0  0  0  0  0  0
    4.4890   -0.3355    0.5392 C   0  0  0  0  0  0  0  0  0  0  0  0
    3.1229   -0.5724    0.6667 C   0  0  0  0  0  0  0  0  0  0  0  0
    5.5509   -1.3487    0.8366 C   0  0  0  0  0  0  0  0  0  0  0  0
    6.5382   -0.8667    1.6764 F   0  0  0  0  0  0  0  0  0  0  0  0
    6.1020   -1.7722   -0.3756 F   0  0  0  0  0  0  0  0  0  0  0  0
    4.9669   -2.4268    1.4441 F   0  0  0  0  0  0  0  0  0  0  0  0
   -2.7088    0.1943    3.1251 H   0  0  0  0  0  0  0  0  0  0  0  0
   -4.1423    0.2372    1.0022 H   0  0  0  0  0  0  0  0  0  0  0  0
   -5.1258   -1.5417    0.0259 H   0  0  0  0  0  0  0  0  0  0  0  0
   -3.5852   -2.2636   -0.6769 H   0  0  0  0  0  0  0  0  0  0  0  0
   -3.7517   -0.8661   -2.5496 H   0  0  0  0  0  0  0  0  0  0  0  0
   -5.4250   -0.5148   -2.0212 H   0  0  0  0  0  0  0  0  0  0  0  0
   -4.5783    1.3090   -0.5552 H   0  0  0  0  0  0  0  0  0  0  0  0
   -3.5687    1.4833   -2.1152 H   0  0  0  0  0  0  0  0  0  0  0  0
    0.5287    1.5422   -1.1218 H   0  0  0  0  0  0  0  0  0  0  0  0
    0.3200   -0.5794    0.9558 H   0  0  0  0  0  0  0  0  0  0  0  0
    1.9910    2.3571   -0.4332 H   0  0  0  0  0  0  0  0  0  0  0  0
    4.4201    2.7769   -0.6924 H   0  0  0  0  0  0  0  0  0  0  0  0
    6.0422    1.0379   -0.0428 H   0  0  0  0  0  0  0  0  0  0  0  0
    2.7848   -1.4900    1.0442 H   0  0  0  0  0  0  0  0  0  0  0  0
  1  2  1  0
  2  3  2  0
  2  4  1  0
  4  5  1  0
  5  6  1  0
  6  7  1  0
  7  8  1  0
  8  9  1  0
  9 10  2  0
  9 11  1  0
 11 12  2  0
 12 13  1  0
 13 14  2  0
 14 15  1  0
 15 16  2  0
 16 17  1  0
 17 18  2  0
 17 19  1  0
 19 20  1  0
 19 21  1  0
 19 22  1  0
  8  4  1  0
 18 13  1  0
  1 23  1  0
  4 24  1  1
  5 25  1  0
  5 26  1  0
  6 27  1  0
  6 28  1  0
  7 29  1  0
  7 30  1  0
 11 31  1  0
 12 32  1  0
 14 33  1  0
 15 34  1  0
 16 35  1  0
 18 36  1  0
M  END
$$$$
[H]OC(=O)[C@@]([H])(N([H])[C@]([H])(C(=O)N1C([H])([H])C([H])([H])C([H])([H])[C@@]1([H])C(=O)O[H])C([H])([H])[H])C([H])([H])C([H])([H])c1c([H])c([H])c([H])c([H])c1[H]
     RDKit          3D

 49 50  0  0  0  0  0  0  0  0999 V2000
   -1.5712   -2.1718    0.1444 C   0  0  0  0  0  0  0  0  0  0  0  0
   -0.8266   -0.9817    0.6472 C   0  0  2  0  0  0  0  0  0  0  0  0
    0.0583   -1.2214    1.7357 N   0  0  0  0  0  0  0  0  0  0  0  0
    1.1428   -2.0982    1.5007 C   0  0  1  0  0  0  0  0  0  0  0  0
    2.0853   -1.5511    0.4270 C   0  0  0  0  0  0  0  0  0  0  0  0
    2.6579   -0.2181    0.8358 C   0  0  0  0  0  0  0  0  0  0  0  0
    3.5639    0.3497   -0.1632 C   0  0  0  0  0  0  0  0  0  0  0  0
    3.0094    1.1719   -1.1449 C   0  0  0  0  0  0  0  0  0  0  0  0
    3.8018    1.7454   -2.1214 C   0  0  0  0  0  0  0  0  0  0  0  0
    5.1623    1.5322   -2.1678 C   0  0  0  0  0  0  0  0  0  0  0  0
    5.7092    0.7156   -1.1917 C   0  0  0  0  0  0  0  0  0  0  0  0
    4.9078    0.1493   -0.2229 C   0  0  0  0  0  0  0  0  0  0  0  0
    1.9570   -2.1816    2.7453 C   0  0  0  0  0  0  0  0  0  0  0  0
    3.1018   -2.9852    2.8058 O   0  0  0  0  0  0  0  0  0  0  0  0
    1.6726   -1.5492    3.7956 O   0  0  0  0  0  0  0  0  0  0  0  0
   -1.8166    0.0498    1.0699 C   0  0  0  0  0  0  0  0  0  0  0  0
   -1.8010    0.5516    2.2215 O   0  0  0  0  0  0  0  0  0  0  0  0
   -2.8336    0.5194    0.1823 N   0  0  0  0  0  0  0  0  0  0  0  0
   -3.0931    0.1293   -1.1809 C   0  0  0  0  0  0  0  0  0  0  0  0
   -3.5215    1.4192   -1.8320 C   0  0  0  0  0  0  0  0  0  0  0  0
   -3.7419    2.4200   -0.7203 C   0  0  0  0  0  0  0  0  0  0  0  0
   -3.8247    1.5174    0.5083 C   0  0  1  0  0  0  0  0  0  0  0  0
   -5.2019    0.9812    0.5964 C   0  0  0  0  0  0  0  0  0  0  0  0
   -6.2723    1.8177    0.8964 O   0  0  0  0  0  0  0  0  0  0  0  0
   -5.4895   -0.2257    0.4129 O   0  0  0  0  0  0  0  0  0  0  0  0
   -1.3684   -2.3296   -0.9360 H   0  0  0  0  0  0  0  0  0  0  0  0
   -2.6731   -2.0646    0.2929 H   0  0  0  0  0  0  0  0  0  0  0  0
   -1.3027   -3.1222    0.6424 H   0  0  0  0  0  0  0  0  0  0  0  0
   -0.2450   -0.5236   -0.1862 H   0  0  0  0  0  0  0  0  0  0  0  0
    0.3743   -0.3427    2.1689 H   0  0  0  0  0  0  0  0  0  0  0  0
    0.8499   -3.1046    1.1310 H   0  0  0  0  0  0  0  0  0  0  0  0
    2.8706   -2.3102    0.2418 H   0  0  0  0  0  0  0  0  0  0  0  0
    1.5576   -1.4031   -0.5374 H   0  0  0  0  0  0  0  0  0  0  0  0
    3.1686   -0.2883    1.8203 H   0  0  0  0  0  0  0  0  0  0  0  0
    1.8088    0.4819    0.9893 H   0  0  0  0  0  0  0  0  0  0  0  0
    1.9383    1.3549   -1.1286 H   0  0  0  0  0  0  0  0  0  0  0  0
    3.3552    2.3792   -2.8740 H   0  0  0  0  0  0  0  0  0  0  0  0
    5.7977    1.9758   -2.9292 H   0  0  0  0  0  0  0  0  0  0  0  0
    6.7809    0.5378   -1.2146 H   0  0  0  0  0  0  0  0  0  0  0  0
    5.3734   -0.4698    0.5056 H   0  0  0  0  0  0  0  0  0  0  0  0
    3.1839   -3.8028    2.2141 H   0  0  0  0  0  0  0  0  0  0  0  0
   -2.1745   -0.2117   -1.7057 H   0  0  0  0  0  0  0  0  0  0  0  0
   -3.8205   -0.6843   -1.2987 H   0  0  0  0  0  0  0  0  0  0  0  0
   -2.7552    1.8064   -2.5415 H   0  0  0  0  0  0  0  0  0  0  0  0
   -4.4560    1.2767   -2.4319 H   0  0  0  0  0  0  0  0  0  0  0  0
   -2.8270    3.0560   -0.5621 H   0  0  0  0  0  0  0  0  0  0  0  0
   -4.6401    3.0294   -0.8630 H   0  0  0  0  0  0  0  0  0  0  0  0
   -3.5561    2.0859    1.4287 H   0  0  0  0  0  0  0  0  0  0  0  0
   -6.0768    2.7875    1.1603 H   0  0  0  0  0  0  0  0  0  0  0  0
  1  2  1  0
  2  3  1  0
  3  4  1  0
  4  5  1  0
  5  6  1  0
  6  7  1  0
  7  8  2  0
  8  9  1  0
  9 10  2  0
 10 11  1  0
 11 12  2  0
  4 13  1  0
 13 14  1  0
 13 15  2  0
  2 16  1  0
 16 17  2  0
 16 18  1  0
 18 19  1  0
 19 20  1  0
 20 21  1  0
 21 22  1  0
 22 23  1  0
 23 24  1  0
 23 25  2  0
 12  7  1  0
 22 18  1  0
  1 26  1  0
  1 27  1  0
  1 28  1  0
  2 29  1  6
  3 30  1  0
  4 31  1  6
  5 32  1  0
  5 33  1  0
  6 34  1  0
  6 35  1  0
  8 36  1  0
  9 37  1  0
 10 38  1  0
 11 39  1  0
 12 40  1  0
 14 41  1  0
 19 42  1  0
 19 43  1  0
 20 44  1  0
 20 45  1  0
 21 46  1  0
 21 47  1  0
 22 48  1  1
 24 49  1  0
M  END
$$$$
[H]OC(=O)[C@@]1([H])N(C(=O)c2[se]c(-c3c([H])c([H])c(OC([H])([H])C([H])(C([H])([H])[H])C([H])([H])[H])c(C#N)c3[H])nc2C([H])([H])[H])C([H])([H])C([H])([H])C1([H])[H]
     RDKit          3D

 52 54  0  0  0  0  0  0  0  0999 V2000
    8.9245   -0.8666    0.7183 C   0  0  0  0  0  0  0  0  0  0  0  0
    7.4072   -0.9589    0.7147 C   0  0  0  0  0  0  0  0  0  0  0  0
    6.9054   -0.7072    2.0965 C   0  0  0  0  0  0  0  0  0  0  0  0
    6.8366    0.0755   -0.2854 C   0  0  0  0  0  0  0  0  0  0  0  0
    5.5470    0.1141   -0.4045 O   0  0  0  0  0  0  0  0  0  0  0  0
    4.2602    0.1925   -0.3542 C   0  0  0  0  0  0  0  0  0  0  0  0
    3.5645    0.5126    0.8323 C   0  0  0  0  0  0  0  0  0  0  0  0
    2.1953    0.5805    0.8194 C   0  0  0  0  0  0  0  0  0  0  0  0
    1.4642    0.3473   -0.3137 C   0  0  0  0  0  0  0  0  0  0  0  0
    2.1257    0.0368   -1.4685 C   0  0  0  0  0  0  0  0  0  0  0  0
    3.4880   -0.0456   -1.5176 C   0  0  0  0  0  0  0  0  0  0  0  0
    4.2015   -0.3710   -2.7222 C   0  0  0  0  0  0  0  0  0  0  0  0
    4.7489   -0.6308   -3.6893 N   0  0  0  0  0  0  0  0  0  0  0  0
    0.0327    0.4296   -0.2758 C   0  0  0  0  0  0  0  0  0  0  0  0
   -0.9561    0.2991   -1.0452 N   0  0  0  0  0  0  0  0  0  0  0  0
   -2.2105    0.3912   -0.9225 C   0  0  0  0  0  0  0  0  0  0  0  0
   -3.1227    0.2271   -2.1855 C   0  0  0  0  0  0  0  0  0  0  0  0
   -2.8839    0.6831    0.1888 C   0  0  0  0  0  0  0  0  0  0  0  0
   -1.0545    0.8825    1.4186 Se  0  0  0  0  0  2  0  0  0  0  0  0
   -4.1149    0.8176    0.8715 C   0  0  0  0  0  0  0  0  0  0  0  0
   -3.9679    1.3694    2.0816 O   0  0  0  0  0  0  0  0  0  0  0  0
   -5.4476    0.5133    0.5923 N   0  0  0  0  0  0  0  0  0  0  0  0
   -6.5098    0.8825    1.5767 C   0  0  0  0  0  0  0  0  0  0  0  0
   -7.2565   -0.4057    1.6706 C   0  0  0  0  0  0  0  0  0  0  0  0
   -7.2131   -0.9812    0.2839 C   0  0  0  0  0  0  0  0  0  0  0  0
   -6.1310   -0.1425   -0.4405 C   0  0  1  0  0  0  0  0  0  0  0  0
   -6.8609    0.7730   -1.3644 C   0  0  0  0  0  0  0  0  0  0  0  0
   -7.6060    0.2234   -2.4115 O   0  0  0  0  0  0  0  0  0  0  0  0
   -6.8633    2.0139   -1.2806 O   0  0  0  0  0  0  0  0  0  0  0  0
    9.1917    0.1446    0.3796 H   0  0  0  0  0  0  0  0  0  0  0  0
    9.3970   -1.6651    0.1123 H   0  0  0  0  0  0  0  0  0  0  0  0
    9.3031   -0.9978    1.7587 H   0  0  0  0  0  0  0  0  0  0  0  0
    7.1426   -1.9558    0.3128 H   0  0  0  0  0  0  0  0  0  0  0  0
    7.6377   -0.8868    2.8875 H   0  0  0  0  0  0  0  0  0  0  0  0
    5.9836   -1.3278    2.2358 H   0  0  0  0  0  0  0  0  0  0  0  0
    6.5426    0.3611    2.1347 H   0  0  0  0  0  0  0  0  0  0  0  0
    7.3550   -0.1169   -1.2804 H   0  0  0  0  0  0  0  0  0  0  0  0
    7.2366    1.0901    0.0757 H   0  0  0  0  0  0  0  0  0  0  0  0
    4.1556    0.6972    1.7171 H   0  0  0  0  0  0  0  0  0  0  0  0
    1.6821    0.8247    1.7290 H   0  0  0  0  0  0  0  0  0  0  0  0
    1.5587   -0.1478   -2.3635 H   0  0  0  0  0  0  0  0  0  0  0  0
   -2.5308    0.3567   -3.1007 H   0  0  0  0  0  0  0  0  0  0  0  0
   -3.5298   -0.7835   -2.2095 H   0  0  0  0  0  0  0  0  0  0  0  0
   -3.8662    1.0324   -2.2066 H   0  0  0  0  0  0  0  0  0  0  0  0
   -6.0732    1.2155    2.5254 H   0  0  0  0  0  0  0  0  0  0  0  0
   -7.0991    1.6931    1.1277 H   0  0  0  0  0  0  0  0  0  0  0  0
   -8.3095   -0.1492    1.9669 H   0  0  0  0  0  0  0  0  0  0  0  0
   -6.8626   -1.0974    2.4290 H   0  0  0  0  0  0  0  0  0  0  0  0
   -8.1431   -0.8360   -0.2546 H   0  0  0  0  0  0  0  0  0  0  0  0
   -6.8954   -2.0456    0.3263 H   0  0  0  0  0  0  0  0  0  0  0  0
   -5.5316   -0.8892   -1.0382 H   0  0  0  0  0  0  0  0  0  0  0  0
   -7.8476   -0.7721   -2.4488 H   0  0  0  0  0  0  0  0  0  0  0  0
  1  2  1  0
  2  3  1  0
  2  4  1  0
  4  5  1  0
  5  6  1  0
  6  7  2  0
  7  8  1  0
  8  9  2  0
  9 10  1  0
 10 11  2  0
 11 12  1  0
 12 13  3  0
  9 14  1  0
 14 15  2  0
 15 16  1  0
 16 17  1  0
 16 18  2  0
 18 19  1  0
 18 20  1  0
 20 21  2  0
 20 22  1  0
 22 23  1  0
 23 24  1  0
 24 25  1  0
 25 26  1  0
 26 27  1  0
 27 28  1  0
 27 29  2  0
 11  6  1  0
 19 14  1  0
 26 22  1  0
  1 30  1  0
  1 31  1  0
  1 32  1  0
  2 33  1  0
  3 34  1  0
  3 35  1  0
  3 36  1  0
  4 37  1  0
  4 38  1  0
  7 39  1  0
  8 40  1  0
 10 41  1  0
 17 42  1  0
 17 43  1  0
 17 44  1  0
 23 45  1  0
 23 46  1  0
 24 47  1  0
 24 48  1  0
 25 49  1  0
 25 50  1  0
 26 51  1  6
 28 52  1  0
M  END
$$$$
[H]O[C@]1([H])[C@@]([H])(C([H])([H])OP(=O)(O[H])OP(=O)(O[H])OP(=O)(O[H])OC([H])([H])[C@]2([H])[C@]([H])(O[H])[C@]([H])(O[H])[C@]2([H])O[H])O[C@@]([H])(n2c([H])nc3c(N([H])[H])nc([H])nc32)[C@]1([H])O[H]
     RDKit          3D

 63 66  0  0  0  0  0  0  0  0999 V2000
   -7.5861   -1.1539    0.8040 O   0  0  0  0  0  0  0  0  0  0  0  0
   -8.2964    0.0168    1.1074 C   0  0  1  0  0  0  0  0  0  0  0  0
   -8.1682    1.0843    0.0378 C   0  0  1  0  0  0  0  0  0  0  0  0
   -6.9532    0.9160   -0.8469 C   0  0  0  0  0  0  0  0  0  0  0  0
   -5.8068    0.9707   -0.0621 O   0  0  0  0  0  0  0  0  0  0  0  0
   -4.4324    0.7846   -1.0303 P   0  0  0  0  0  0  0  0  0  0  0  0
   -4.9173    0.4653   -2.6298 O   0  0  0  0  0  0  0  0  0  0  0  0
   -3.6851    2.0862   -1.0225 O   0  0  0  0  0  0  0  0  0  0  0  0
   -3.5258   -0.4855   -0.4013 O   0  0  0  0  0  0  0  0  0  0  0  0
   -1.8841   -0.2102   -0.4498 P   0  0  0  0  0  0  0  0  0  0  0  0
   -1.4647    0.8678   -1.6721 O   0  0  0  0  0  0  0  0  0  0  0  0
   -1.2018   -1.5447   -0.7565 O   0  0  0  0  0  0  0  0  0  0  0  0
   -1.3550    0.2769    1.0604 O   0  0  0  0  0  0  0  0  0  0  0  0
   -0.1178    1.4104    0.9961 P   0  0  0  0  0  0  0  0  0  0  0  0
    0.2400    1.8491    2.6091 O   0  0  0  0  0  0  0  0  0  0  0  0
   -0.4974    2.6666    0.2786 O   0  0  0  0  0  0  0  0  0  0  0  0
    1.2820    0.8022    0.3132 O   0  0  0  0  0  0  0  0  0  0  0  0
    1.8184   -0.2616    1.0748 C   0  0  0  0  0  0  0  0  0  0  0  0
    3.0644   -0.7005    0.3408 C   0  0  1  0  0  0  0  0  0  0  0  0
    3.9949    0.3112    0.2250 O   0  0  0  0  0  0  0  0  0  0  0  0
    5.0979   -0.3495   -0.3066 C   0  0  2  0  0  0  0  0  0  0  0  0
    5.1910   -1.6835    0.3983 C   0  0  2  0  0  0  0  0  0  0  0  0
    5.1798   -2.6903   -0.5723 O   0  0  0  0  0  0  0  0  0  0  0  0
    3.8331   -1.7557    1.1057 C   0  0  2  0  0  0  0  0  0  0  0  0
    3.2752   -3.0095    1.0169 O   0  0  0  0  0  0  0  0  0  0  0  0
    6.3335    0.3694   -0.0235 N   0  0  0  0  0  0  0  0  0  0  0  0
    6.5074    1.4918    0.6772 C   0  0  0  0  0  0  0  0  0  0  0  0
    7.8183    1.7887    0.6760 N   0  0  0  0  0  0  0  0  0  0  0  0
    8.4886    0.8552   -0.0270 C   0  0  0  0  0  0  0  0  0  0  0  0
    9.8105    0.6448   -0.3581 C   0  0  0  0  0  0  0  0  0  0  0  0
   10.7905    1.5606    0.0901 N   0  0  0  0  0  0  0  0  0  0  0  0
   10.1341   -0.4294   -1.1011 N   0  0  0  0  0  0  0  0  0  0  0  0
    9.2098   -1.2934   -1.5239 C   0  0  0  0  0  0  0  0  0  0  0  0
    7.9227   -1.0966   -1.2068 N   0  0  0  0  0  0  0  0  0  0  0  0
    7.5288   -0.0397   -0.4646 C   0  0  0  0  0  0  0  0  0  0  0  0
   -9.4029    0.5158   -0.6204 C   0  0  1  0  0  0  0  0  0  0  0  0
   -9.1261   -0.4576   -1.5726 O   0  0  0  0  0  0  0  0  0  0  0  0
   -9.7581   -0.1353    0.6953 C   0  0  1  0  0  0  0  0  0  0  0  0
  -10.1614   -1.4759    0.5598 O   0  0  0  0  0  0  0  0  0  0  0  0
   -8.1271   -1.7654    0.2783 H   0  0  0  0  0  0  0  0  0  0  0  0
   -8.1778    0.3682    2.1323 H   0  0  0  0  0  0  0  0  0  0  0  0
   -8.2928    2.0845    0.4787 H   0  0  0  0  0  0  0  0  0  0  0  0
   -7.0488   -0.0688   -1.3576 H   0  0  0  0  0  0  0  0  0  0  0  0
   -6.9201    1.7591   -1.5515 H   0  0  0  0  0  0  0  0  0  0  0  0
   -4.7284   -0.4967   -2.7952 H   0  0  0  0  0  0  0  0  0  0  0  0
   -0.6897    0.5800   -2.1892 H   0  0  0  0  0  0  0  0  0  0  0  0
   -0.5790    2.1852    3.0451 H   0  0  0  0  0  0  0  0  0  0  0  0
    1.0612   -1.0692    1.0142 H   0  0  0  0  0  0  0  0  0  0  0  0
    2.0184    0.0391    2.1154 H   0  0  0  0  0  0  0  0  0  0  0  0
    2.7835   -1.1086   -0.6337 H   0  0  0  0  0  0  0  0  0  0  0  0
    5.0030   -0.4616   -1.4118 H   0  0  0  0  0  0  0  0  0  0  0  0
    6.0243   -1.7598    1.0970 H   0  0  0  0  0  0  0  0  0  0  0  0
    4.5389   -2.3798   -1.2848 H   0  0  0  0  0  0  0  0  0  0  0  0
    3.9490   -1.4135    2.1645 H   0  0  0  0  0  0  0  0  0  0  0  0
    3.3714   -3.3306    0.0916 H   0  0  0  0  0  0  0  0  0  0  0  0
    5.6882    2.0279    1.1450 H   0  0  0  0  0  0  0  0  0  0  0  0
   11.4602    2.0486   -0.5671 H   0  0  0  0  0  0  0  0  0  0  0  0
   10.8663    1.7730    1.1145 H   0  0  0  0  0  0  0  0  0  0  0  0
    9.4745   -2.1411   -2.1116 H   0  0  0  0  0  0  0  0  0  0  0  0
  -10.1147    1.2970   -0.9586 H   0  0  0  0  0  0  0  0  0  0  0  0
   -9.2334   -0.1187   -2.5024 H   0  0  0  0  0  0  0  0  0  0  0  0
  -10.4584    0.4632    1.3221 H   0  0  0  0  0  0  0  0  0  0  0  0
  -11.0491   -1.4736    0.1663 H   0  0  0  0  0  0  0  0  0  0  0  0
  1  2  1  0
  2  3  1  0
  3  4  1  0
  4  5  1  0
  5  6  1  0
  6  7  1  0
  6  8  2  0
  6  9  1  0
  9 10  1  0
 10 11  1  0
 10 12  2  0
 10 13  1  0
 13 14  1  0
 14 15  1  0
 14 16  2  0
 14 17  1  0
 17 18  1  0
 18 19  1  0
 19 20  1  0
 20 21  1  0
 21 22  1  0
 22 23  1  0
 22 24  1  0
 24 25  1  0
 21 26  1  0
 26 27  1  0
 27 28  2  0
 28 29  1  0
 29 30  2  0
 30 31  1  0
 30 32  1  0
 32 33  2  0
 33 34  1  0
 34 35  2  0
  3 36  1  0
 36 37  1  0
 36 38  1  0
 38 39  1  0
 38  2  1  0
 24 19  1  0
 35 26  1  0
 35 29  1  0
  1 40  1  0
  2 41  1  1
  3 42  1  1
  4 43  1  0
  4 44  1  0
  7 45  1  0
 11 46  1  0
 15 47  1  0
 18 48  1  0
 18 49  1  0
 19 50  1  6
 21 51  1  6
 22 52  1  1
 23 53  1  0
 24 54  1  1
 25 55  1  0
 27 56  1  0
 31 57  1  0
 31 58  1  0
 33 59  1  0
 36 60  1  6
 37 61  1  0
 38 62  1  1
 39 63  1  0
M  END
$$$$
[H]OC(=O)C([H])([H])C([H])([H])[C@@]([H])(C(=O)N([H])[H])N([H])C(=O)[C@@]([H])(N([H])C(=O)[C@@]([H])(N([H])C(=O)[C@@]([H])(N([H])C(=O)[C@@]([H])(N([H])C(=O)[C@]([H])(N([H])[H])C([H])(C([H])([H])[H])C([H])([H])[H])C([H])([H])C([H])([H])C(=O)O[H])C([H])([H])C([H])([H])C(=O)O[H])C([H])([H])C([H])([H])C(=O)O[H])C([H])([H])C([H])([H])C(=O)O[H]
     RDKit          3D

100 99  0  0  0  0  0  0  0  0999 V2000
   -8.1467    3.7970    0.9032 C   0  0  0  0  0  0  0  0  0  0  0  0
   -8.2089    3.0846   -0.4325 C   0  0  0  0  0  0  0  0  0  0  0  0
   -9.3297    3.5569   -1.3072 C   0  0  0  0  0  0  0  0  0  0  0  0
   -6.8947    3.2084   -1.1753 C   0  0  1  0  0  0  0  0  0  0  0  0
   -6.5508    4.5771   -1.4300 N   0  0  0  0  0  0  0  0  0  0  0  0
   -5.8859    2.5465   -0.2882 C   0  0  0  0  0  0  0  0  0  0  0  0
   -5.0406    3.2267    0.3555 O   0  0  0  0  0  0  0  0  0  0  0  0
   -5.8985    1.1371   -0.1831 N   0  0  0  0  0  0  0  0  0  0  0  0
   -5.0212    0.3534    0.6335 C   0  0  1  0  0  0  0  0  0  0  0  0
   -5.7959   -0.6640    1.4019 C   0  0  0  0  0  0  0  0  0  0  0  0
   -6.8175   -0.0152    2.3127 C   0  0  0  0  0  0  0  0  0  0  0  0
   -7.5231   -1.1198    3.0296 C   0  0  0  0  0  0  0  0  0  0  0  0
   -8.5205   -0.8251    3.9781 O   0  0  0  0  0  0  0  0  0  0  0  0
   -7.2821   -2.3389    2.8418 O   0  0  0  0  0  0  0  0  0  0  0  0
   -3.9372   -0.2836   -0.1838 C   0  0  0  0  0  0  0  0  0  0  0  0
   -3.8798    0.0049   -1.3915 O   0  0  0  0  0  0  0  0  0  0  0  0
   -3.0139   -1.1740    0.3996 N   0  0  0  0  0  0  0  0  0  0  0  0
   -1.9197   -1.8817   -0.1541 C   0  0  1  0  0  0  0  0  0  0  0  0
   -1.8228   -1.9375   -1.6298 C   0  0  0  0  0  0  0  0  0  0  0  0
   -2.9459   -2.7445   -2.2220 C   0  0  0  0  0  0  0  0  0  0  0  0
   -2.8814   -2.6905   -3.7159 C   0  0  0  0  0  0  0  0  0  0  0  0
   -3.7868   -3.5098   -4.3969 O   0  0  0  0  0  0  0  0  0  0  0  0
   -2.0622   -1.9539   -4.3131 O   0  0  0  0  0  0  0  0  0  0  0  0
   -0.6353   -1.6284    0.4912 C   0  0  0  0  0  0  0  0  0  0  0  0
   -0.6486   -0.8426    1.4893 O   0  0  0  0  0  0  0  0  0  0  0  0
    0.6117   -2.1687    0.1156 N   0  0  0  0  0  0  0  0  0  0  0  0
    1.8379   -1.8826    0.8061 C   0  0  1  0  0  0  0  0  0  0  0  0
    2.6194   -3.0710    1.2249 C   0  0  0  0  0  0  0  0  0  0  0  0
    1.8401   -3.9639    2.2062 C   0  0  0  0  0  0  0  0  0  0  0  0
    2.7565   -5.0785    2.5081 C   0  0  0  0  0  0  0  0  0  0  0  0
    3.0425   -5.4415    3.8016 O   0  0  0  0  0  0  0  0  0  0  0  0
    3.2856   -5.7020    1.5622 O   0  0  0  0  0  0  0  0  0  0  0  0
    2.7015   -0.8732    0.1703 C   0  0  0  0  0  0  0  0  0  0  0  0
    2.4243   -0.3892   -0.9493 O   0  0  0  0  0  0  0  0  0  0  0  0
    3.8623   -0.4347    0.8361 N   0  0  0  0  0  0  0  0  0  0  0  0
    4.8115    0.5435    0.3857 C   0  0  1  0  0  0  0  0  0  0  0  0
    4.8491    1.7406    1.3165 C   0  0  0  0  0  0  0  0  0  0  0  0
    3.5485    2.4498    1.4308 C   0  0  0  0  0  0  0  0  0  0  0  0
    3.0353    3.0403    0.1692 C   0  0  0  0  0  0  0  0  0  0  0  0
    3.7704    3.1488   -0.9773 O   0  0  0  0  0  0  0  0  0  0  0  0
    1.8340    3.4752    0.1560 O   0  0  0  0  0  0  0  0  0  0  0  0
    6.1284   -0.1231    0.2931 C   0  0  0  0  0  0  0  0  0  0  0  0
    6.2433   -1.3739    0.3979 O   0  0  0  0  0  0  0  0  0  0  0  0
    7.3434    0.6217    0.0845 N   0  0  0  0  0  0  0  0  0  0  0  0
    8.6193    0.0015   -0.0111 C   0  0  1  0  0  0  0  0  0  0  0  0
    9.5059    0.5473   -1.0710 C   0  0  0  0  0  0  0  0  0  0  0  0
    8.9816    0.4122   -2.4614 C   0  0  0  0  0  0  0  0  0  0  0  0
    7.7512    1.1231   -2.7910 C   0  0  0  0  0  0  0  0  0  0  0  0
    6.6445    0.4358   -3.3403 O   0  0  0  0  0  0  0  0  0  0  0  0
    7.6630    2.3637   -2.5898 O   0  0  0  0  0  0  0  0  0  0  0  0
    9.2808    0.0911    1.3440 C   0  0  0  0  0  0  0  0  0  0  0  0
   10.5657   -0.4209    1.5783 N   0  0  0  0  0  0  0  0  0  0  0  0
    8.6478    0.6495    2.2945 O   0  0  0  0  0  0  0  0  0  0  0  0
   -9.1539    4.1551    1.1602 H   0  0  0  0  0  0  0  0  0  0  0  0
   -7.8460    3.0655    1.7026 H   0  0  0  0  0  0  0  0  0  0  0  0
   -7.3770    4.6025    0.9147 H   0  0  0  0  0  0  0  0  0  0  0  0
   -8.3735    1.9990   -0.2353 H   0  0  0  0  0  0  0  0  0  0  0  0
   -9.4205    2.8350   -2.1556 H   0  0  0  0  0  0  0  0  0  0  0  0
  -10.2685    3.4620   -0.6956 H   0  0  0  0  0  0  0  0  0  0  0  0
   -9.1552    4.5830   -1.6378 H   0  0  0  0  0  0  0  0  0  0  0  0
   -6.9839    2.6668   -2.1268 H   0  0  0  0  0  0  0  0  0  0  0  0
   -6.1998    4.6509   -2.4119 H   0  0  0  0  0  0  0  0  0  0  0  0
   -7.2791    5.2745   -1.2569 H   0  0  0  0  0  0  0  0  0  0  0  0
   -6.6035    0.6050   -0.7462 H   0  0  0  0  0  0  0  0  0  0  0  0
   -4.5360    1.0638    1.3680 H   0  0  0  0  0  0  0  0  0  0  0  0
   -5.1925   -1.3797    1.9745 H   0  0  0  0  0  0  0  0  0  0  0  0
   -6.4065   -1.2513    0.6587 H   0  0  0  0  0  0  0  0  0  0  0  0
   -6.2481    0.5562    3.0748 H   0  0  0  0  0  0  0  0  0  0  0  0
   -7.5199    0.6197    1.7667 H   0  0  0  0  0  0  0  0  0  0  0  0
   -9.2435   -1.4725    4.2254 H   0  0  0  0  0  0  0  0  0  0  0  0
   -3.1869   -1.3269    1.4583 H   0  0  0  0  0  0  0  0  0  0  0  0
   -2.1991   -3.0068    0.1622 H   0  0  0  0  0  0  0  0  0  0  0  0
   -1.7390   -0.9298   -2.1073 H   0  0  0  0  0  0  0  0  0  0  0  0
   -0.8747   -2.4508   -1.9730 H   0  0  0  0  0  0  0  0  0  0  0  0
   -2.6128   -3.8415   -2.0135 H   0  0  0  0  0  0  0  0  0  0  0  0
   -3.9090   -2.6095   -1.7856 H   0  0  0  0  0  0  0  0  0  0  0  0
   -4.3888   -3.0506   -5.0767 H   0  0  0  0  0  0  0  0  0  0  0  0
    0.6414   -2.8103   -0.7035 H   0  0  0  0  0  0  0  0  0  0  0  0
    1.5091   -1.3756    1.7801 H   0  0  0  0  0  0  0  0  0  0  0  0
    3.5420   -2.8139    1.7762 H   0  0  0  0  0  0  0  0  0  0  0  0
    2.9249   -3.7538    0.4157 H   0  0  0  0  0  0  0  0  0  0  0  0
    1.5487   -3.4153    3.1075 H   0  0  0  0  0  0  0  0  0  0  0  0
    0.9414   -4.3563    1.6642 H   0  0  0  0  0  0  0  0  0  0  0  0
    3.9857   -5.4839    4.1851 H   0  0  0  0  0  0  0  0  0  0  0  0
    4.0652   -0.8704    1.7910 H   0  0  0  0  0  0  0  0  0  0  0  0
    4.5755    0.9023   -0.6349 H   0  0  0  0  0  0  0  0  0  0  0  0
    5.6537    2.4457    1.0398 H   0  0  0  0  0  0  0  0  0  0  0  0
    5.0902    1.3359    2.3404 H   0  0  0  0  0  0  0  0  0  0  0  0
    2.7432    1.8203    1.8649 H   0  0  0  0  0  0  0  0  0  0  0  0
    3.6414    3.3178    2.1414 H   0  0  0  0  0  0  0  0  0  0  0  0
    3.5064    2.6804   -1.8206 H   0  0  0  0  0  0  0  0  0  0  0  0
    7.2471    1.6495    0.0313 H   0  0  0  0  0  0  0  0  0  0  0  0
    8.5220   -1.1188   -0.1570 H   0  0  0  0  0  0  0  0  0  0  0  0
   10.5171    0.0545   -1.0230 H   0  0  0  0  0  0  0  0  0  0  0  0
    9.7216    1.6432   -0.9106 H   0  0  0  0  0  0  0  0  0  0  0  0
    8.8316   -0.6973   -2.6288 H   0  0  0  0  0  0  0  0  0  0  0  0
    9.8064    0.7087   -3.1654 H   0  0  0  0  0  0  0  0  0  0  0  0
    5.8443    0.9519   -3.6329 H   0  0  0  0  0  0  0  0  0  0  0  0
   11.0898   -0.9418    0.8183 H   0  0  0  0  0  0  0  0  0  0  0  0
   11.0132   -0.2965    2.4950 H   0  0  0  0  0  0  0  0  0  0  0  0
  1  2  1  0
  2  3  1  0
  2  4  1  0
  4  5  1  0
  4  6  1  0
  6  7  2  0
  6  8  1  0
  8  9  1  0
  9 10  1  0
 10 11  1  0
 11 12  1  0
 12 13  1  0
 12 14  2  0
  9 15  1  0
 15 16  2  0
 15 17  1  0
 17 18  1  0
 18 19  1  0
 19 20  1  0
 20 21  1  0
 21 22  1  0
 21 23  2  0
 18 24  1  0
 24 25  2  0
 24 26  1  0
 26 27  1  0
 27 28  1  0
 28 29  1  0
 29 30  1  0
 30 31  1  0
 30 32  2  0
 27 33  1  0
 33 34  2  0
 33 35  1  0
 35 36  1  0
 36 37  1  0
 37 38  1  0
 38 39  1  0
 39 40  1  0
 39 41  2  0
 36 42  1  0
 42 43  2  0
 42 44  1  0
 44 45  1  0
 45 46  1  0
 46 47  1  0
 47 48  1  0
 48 49  1  0
 48 50  2  0
 45 51  1  0
 51 52  1  0
 51 53  2  0
  1 54  1  0
  1 55  1  0
  1 56  1  0
  2 57  1  0
  3 58  1  0
  3 59  1  0
  3 60  1  0
  4 61  1  6
  5 62  1  0
  5 63  1  0
  8 64  1  0
  9 65  1  1
 10 66  1  0
 10 67  1  0
 11 68  1  0
 11 69  1  0
 13 70  1  0
 17 71  1  0
 18 72  1  1
 19 73  1  0
 19 74  1  0
 20 75  1  0
 20 76  1  0
 22 77  1  0
 26 78  1  0
 27 79  1  1
 28 80  1  0
 28 81  1  0
 29 82  1  0
 29 83  1  0
 31 84  1  0
 35 85  1  0
 36 86  1  6
 37 87  1  0
 37 88  1  0
 38 89  1  0
 38 90  1  0
 40 91  1  0
 44 92  1  0
 45 93  1  6
 46 94  1  0
 46 95  1  0
 47 96  1  0
 47 97  1  0
 49 98  1  0
 52 99  1  0
 52100  1  0
M  END
$$$$
[H]c1nc(N([H])c2c([H])c([H])c(S(=O)(=O)N([H])[H])c([H])c2[H])nc(-c2c([H])c([H])c(C#N)c([H])c2[H])c1[H]
     RDKit          3D

 38 40  0  0  0  0  0  0  0  0999 V2000
    7.3802    1.6649    0.4382 N   0  0  0  0  0  0  0  0  0  0  0  0
    6.7310    0.1038    0.8578 S   0  0  0  0  0  0  0  0  0  0  0  0
    7.2953   -0.9576   -0.0357 O   0  0  0  0  0  0  0  0  0  0  0  0
    7.1361   -0.1643    2.2793 O   0  0  0  0  0  0  0  0  0  0  0  0
    4.9887    0.1349    0.7694 C   0  0  0  0  0  0  0  0  0  0  0  0
    4.2844   -0.1644   -0.3566 C   0  0  0  0  0  0  0  0  0  0  0  0
    2.8820   -0.1290   -0.3908 C   0  0  0  0  0  0  0  0  0  0  0  0
    2.1466    0.2104    0.7152 C   0  0  0  0  0  0  0  0  0  0  0  0
    0.7642    0.2541    0.7793 N   0  0  0  0  0  0  0  0  0  0  0  0
   -0.1790   -0.2639   -0.1361 C   0  0  0  0  0  0  0  0  0  0  0  0
    0.1105   -0.9180   -1.2619 N   0  0  0  0  0  0  0  0  0  0  0  0
   -0.8190   -1.3879   -2.0920 C   0  0  0  0  0  0  0  0  0  0  0  0
   -2.1694   -1.2185   -1.8245 C   0  0  0  0  0  0  0  0  0  0  0  0
   -2.4930   -0.5520   -0.6780 C   0  0  0  0  0  0  0  0  0  0  0  0
   -1.5102   -0.1107    0.1035 N   0  0  0  0  0  0  0  0  0  0  0  0
   -3.8949   -0.3274   -0.3162 C   0  0  0  0  0  0  0  0  0  0  0  0
   -4.9488   -0.7561   -1.0774 C   0  0  0  0  0  0  0  0  0  0  0  0
   -6.2725   -0.5122   -0.6807 C   0  0  0  0  0  0  0  0  0  0  0  0
   -6.5422    0.1655    0.4862 C   0  0  0  0  0  0  0  0  0  0  0  0
   -5.4790    0.5895    1.2395 C   0  0  0  0  0  0  0  0  0  0  0  0
   -4.1720    0.3607    0.8686 C   0  0  0  0  0  0  0  0  0  0  0  0
   -7.8950    0.4294    0.9171 C   0  0  0  0  0  0  0  0  0  0  0  0
   -8.9906    0.6569    1.2510 N   0  0  0  0  0  0  0  0  0  0  0  0
    2.9061    0.5146    1.8636 C   0  0  0  0  0  0  0  0  0  0  0  0
    4.2747    0.4795    1.8939 C   0  0  0  0  0  0  0  0  0  0  0  0
    6.9145    1.9752   -0.4312 H   0  0  0  0  0  0  0  0  0  0  0  0
    7.1077    2.3364    1.1922 H   0  0  0  0  0  0  0  0  0  0  0  0
    4.8517   -0.4382   -1.2503 H   0  0  0  0  0  0  0  0  0  0  0  0
    2.4423   -0.3764   -1.3461 H   0  0  0  0  0  0  0  0  0  0  0  0
    0.3374    0.7460    1.6303 H   0  0  0  0  0  0  0  0  0  0  0  0
   -0.5817   -1.9227   -3.0124 H   0  0  0  0  0  0  0  0  0  0  0  0
   -2.8982   -1.6153   -2.5245 H   0  0  0  0  0  0  0  0  0  0  0  0
   -4.7781   -1.2964   -2.0085 H   0  0  0  0  0  0  0  0  0  0  0  0
   -7.0741   -0.8721   -1.3181 H   0  0  0  0  0  0  0  0  0  0  0  0
   -5.7154    1.1290    2.1679 H   0  0  0  0  0  0  0  0  0  0  0  0
   -3.3769    0.7161    1.4981 H   0  0  0  0  0  0  0  0  0  0  0  0
    2.3951    0.7934    2.7807 H   0  0  0  0  0  0  0  0  0  0  0  0
    4.8413    0.7226    2.8076 H   0  0  0  0  0  0  0  0  0  0  0  0
  1  2  1  0
  2  3  2  0
  2  4  2  0
  2  5  1  0
  5  6  2  0
  6  7  1  0
  7  8  2  0
  8  9  1  0
  9 10  1  0
 10 11  2  0
 11 12  1  0
 12 13  2  0
 13 14  1  0
 14 15  2  0
 14 16  1  0
 16 17  2  0
 17 18  1  0
 18 19  2  0
 19 20  1  0
 20 21  2  0
 19 22  1  0
 22 23  3  0
  8 24  1  0
 24 25  2  0
 25  5  1  0
 15 10  1  0
 21 16  1  0
  1 26  1  0
  1 27  1  0
  6 28  1  0
  7 29  1  0
  9 30  1  0
 12 31  1  0
 13 32  1  0
 17 33  1  0
 18 34  1  0
 20 35  1  0
 21 36  1  0
 24 37  1  0
 25 38  1  0
M  END
$$$$
[H]c1nc(N([H])c2c([H])c([H])c(N3C([H])([H])C([H])([H])N(C([H])([H])[H])C([H])([H])C3([H])[H])c([H])c2[H])nc([H])c1N([H])C(=O)c1c([H])c(N([H])C(=O)c2c([H])c([H])c([H])c(C(F)(F)F)c2[H])c([H])c([H])c1C([H])([H])[H]
     RDKit          3D

 73 77  0  0  0  0  0  0  0  0999 V2000
   11.1626   -1.4295   -0.2901 C   0  0  0  0  0  0  0  0  0  0  0  0
   10.8066   -1.1520   -1.6725 N   0  0  0  0  0  0  0  0  0  0  0  0
   10.4159    0.1876   -1.8989 C   0  0  0  0  0  0  0  0  0  0  0  0
    9.0068    0.3313   -2.4400 C   0  0  0  0  0  0  0  0  0  0  0  0
    8.1717   -0.5294   -1.6086 N   0  0  0  0  0  0  0  0  0  0  0  0
    8.5007   -1.9673   -1.7161 C   0  0  0  0  0  0  0  0  0  0  0  0
    9.9119   -2.1440   -2.1967 C   0  0  0  0  0  0  0  0  0  0  0  0
    7.1297   -0.0633   -0.7731 C   0  0  0  0  0  0  0  0  0  0  0  0
    6.2840    0.9745   -1.1097 C   0  0  0  0  0  0  0  0  0  0  0  0
    5.2833    1.4252   -0.2729 C   0  0  0  0  0  0  0  0  0  0  0  0
    5.0750    0.8551    0.9607 C   0  0  0  0  0  0  0  0  0  0  0  0
    4.0727    1.2666    1.8554 N   0  0  0  0  0  0  0  0  0  0  0  0
    2.7010    1.4154    1.6495 C   0  0  0  0  0  0  0  0  0  0  0  0
    2.0640    1.1508    0.5212 N   0  0  0  0  0  0  0  0  0  0  0  0
    0.7045    1.2644    0.3632 C   0  0  0  0  0  0  0  0  0  0  0  0
   -0.0701    1.6664    1.3890 C   0  0  0  0  0  0  0  0  0  0  0  0
   -1.4860    1.7401    1.4642 N   0  0  0  0  0  0  0  0  0  0  0  0
   -2.4284    1.0827    0.7153 C   0  0  0  0  0  0  0  0  0  0  0  0
   -2.0837    0.3640   -0.2539 O   0  0  0  0  0  0  0  0  0  0  0  0
   -3.8748    1.1632    1.0101 C   0  0  0  0  0  0  0  0  0  0  0  0
   -4.8233    1.0463   -0.0402 C   0  0  0  0  0  0  0  0  0  0  0  0
   -6.1401    1.1096    0.1741 C   0  0  0  0  0  0  0  0  0  0  0  0
   -7.1975    0.8936   -0.7958 N   0  0  0  0  0  0  0  0  0  0  0  0
   -8.1468   -0.1045   -0.4596 C   0  0  0  0  0  0  0  0  0  0  0  0
   -7.8757   -0.7207    0.6821 O   0  0  0  0  0  0  0  0  0  0  0  0
   -9.3264   -0.5507   -1.1186 C   0  0  0  0  0  0  0  0  0  0  0  0
   -9.9814    0.1544   -2.0771 C   0  0  0  0  0  0  0  0  0  0  0  0
  -11.1622   -0.3133   -2.6274 C   0  0  0  0  0  0  0  0  0  0  0  0
  -11.7323   -1.5005   -2.2409 C   0  0  0  0  0  0  0  0  0  0  0  0
  -11.0947   -2.2428   -1.2745 C   0  0  0  0  0  0  0  0  0  0  0  0
   -9.9266   -1.7682   -0.7404 C   0  0  0  0  0  0  0  0  0  0  0  0
  -11.6644   -3.5222   -0.8140 C   0  0  0  0  0  0  0  0  0  0  0  0
  -12.7917   -3.2654   -0.0486 F   0  0  0  0  0  0  0  0  0  0  0  0
  -11.9253   -4.4025   -1.8601 F   0  0  0  0  0  0  0  0  0  0  0  0
  -10.7612   -4.1640    0.0259 F   0  0  0  0  0  0  0  0  0  0  0  0
   -6.6025    1.3075    1.4993 C   0  0  0  0  0  0  0  0  0  0  0  0
   -5.6979    1.4181    2.5023 C   0  0  0  0  0  0  0  0  0  0  0  0
   -4.3071    1.3475    2.3005 C   0  0  0  0  0  0  0  0  0  0  0  0
   -3.4568    1.3682    3.5224 C   0  0  0  0  0  0  0  0  0  0  0  0
    0.6065    1.9579    2.6074 C   0  0  0  0  0  0  0  0  0  0  0  0
    1.9026    1.8263    2.6842 N   0  0  0  0  0  0  0  0  0  0  0  0
    5.9322   -0.2082    1.3194 C   0  0  0  0  0  0  0  0  0  0  0  0
    6.9250   -0.6545    0.4876 C   0  0  0  0  0  0  0  0  0  0  0  0
   11.0028   -2.4892   -0.1086 H   0  0  0  0  0  0  0  0  0  0  0  0
   12.2320   -1.2035   -0.1608 H   0  0  0  0  0  0  0  0  0  0  0  0
   10.5559   -0.8453    0.4460 H   0  0  0  0  0  0  0  0  0  0  0  0
   10.4807    0.7587   -0.9317 H   0  0  0  0  0  0  0  0  0  0  0  0
   11.1376    0.6785   -2.5712 H   0  0  0  0  0  0  0  0  0  0  0  0
    8.6993    1.3874   -2.3241 H   0  0  0  0  0  0  0  0  0  0  0  0
    8.9493   -0.0226   -3.4739 H   0  0  0  0  0  0  0  0  0  0  0  0
    8.2939   -2.4781   -0.7843 H   0  0  0  0  0  0  0  0  0  0  0  0
    7.8182   -2.3492   -2.5036 H   0  0  0  0  0  0  0  0  0  0  0  0
   10.0159   -2.2026   -3.2872 H   0  0  0  0  0  0  0  0  0  0  0  0
   10.2623   -3.1415   -1.7933 H   0  0  0  0  0  0  0  0  0  0  0  0
    6.3766    1.4861   -2.0566 H   0  0  0  0  0  0  0  0  0  0  0  0
    4.6281    2.2472   -0.5569 H   0  0  0  0  0  0  0  0  0  0  0  0
    4.4192    1.4847    2.8598 H   0  0  0  0  0  0  0  0  0  0  0  0
    0.2446    1.0282   -0.6036 H   0  0  0  0  0  0  0  0  0  0  0  0
   -1.8616    2.4790    2.1563 H   0  0  0  0  0  0  0  0  0  0  0  0
   -4.4587    0.9050   -1.0588 H   0  0  0  0  0  0  0  0  0  0  0  0
   -7.2179    1.4473   -1.6332 H   0  0  0  0  0  0  0  0  0  0  0  0
   -9.5830    1.0984   -2.4225 H   0  0  0  0  0  0  0  0  0  0  0  0
  -11.7002    0.2519   -3.3961 H   0  0  0  0  0  0  0  0  0  0  0  0
  -12.6727   -1.8372   -2.6929 H   0  0  0  0  0  0  0  0  0  0  0  0
   -9.3932   -2.3435    0.0247 H   0  0  0  0  0  0  0  0  0  0  0  0
   -7.6706    1.3801    1.6361 H   0  0  0  0  0  0  0  0  0  0  0  0
   -6.0166    1.5663    3.5297 H   0  0  0  0  0  0  0  0  0  0  0  0
   -3.2707    2.3812    3.8991 H   0  0  0  0  0  0  0  0  0  0  0  0
   -2.6120    0.7004    3.4318 H   0  0  0  0  0  0  0  0  0  0  0  0
   -4.0929    0.8304    4.3335 H   0  0  0  0  0  0  0  0  0  0  0  0
   -0.0160    2.2938    3.4484 H   0  0  0  0  0  0  0  0  0  0  0  0
    5.7611   -0.6407    2.2843 H   0  0  0  0  0  0  0  0  0  0  0  0
    7.5890   -1.4651    0.7519 H   0  0  0  0  0  0  0  0  0  0  0  0
  1  2  1  0
  2  3  1  0
  3  4  1  0
  4  5  1  0
  5  6  1  0
  6  7  1  0
  5  8  1  0
  8  9  2  0
  9 10  1  0
 10 11  2  0
 11 12  1  0
 12 13  1  0
 13 14  2  0
 14 15  1  0
 15 16  2  0
 16 17  1  0
 17 18  1  0
 18 19  2  0
 18 20  1  0
 20 21  2  0
 21 22  1  0
 22 23  1  0
 23 24  1  0
 24 25  2  0
 24 26  1  0
 26 27  2  0
 27 28  1  0
 28 29  2  0
 29 30  1  0
 30 31  2  0
 30 32  1  0
 32 33  1  0
 32 34  1  0
 32 35  1  0
 22 36  2  0
 36 37  1  0
 37 38  2  0
 38 39  1  0
 16 40  1  0
 40 41  2  0
 11 42  1  0
 42 43  2  0
  7  2  1  0
 43  8  1  0
 41 13  1  0
 38 20  1  0
 31 26  1  0
  1 44  1  0
  1 45  1  0
  1 46  1  0
  3 47  1  0
  3 48  1  0
  4 49  1  0
  4 50  1  0
  6 51  1  0
  6 52  1  0
  7 53  1  0
  7 54  1  0
  9 55  1  0
 10 56  1  0
 12 57  1  0
 15 58  1  0
 17 59  1  0
 21 60  1  0
 23 61  1  0
 27 62  1  0
 28 63  1  0
 29 64  1  0
 31 65  1  0
 36 66  1  0
 37 67  1  0
 39 68  1  0
 39 69  1  0
 39 70  1  0
 40 71  1  0
 42 72  1  0
 43 73  1  0
M  END
$$$$
[H]c1c([H])c([H])c(C([H])([H])[C@@]2([H])C(=O)N([H])[C@@]([H])([C@@]([H])(C([H])([H])[H])C([H])([H])C([H])([H])[H])C(=O)N([H])[C@@]([H])([C@@]([H])(C([H])([H])[H])C([H])([H])C([H])([H])[H])C(=O)N([H])[C@@]([H])(C([H])(C([H])([H])[H])C([H])([H])[H])C(=O)N2[H])c([H])c1[H]
     RDKit          3D

 74 75  0  0  0  0  0  0  0  0999 V2000
   -1.1690    6.0565   -1.0635 C   0  0  0  0  0  0  0  0  0  0  0  0
   -0.8728    4.7140   -0.3545 C   0  0  0  0  0  0  0  0  0  0  0  0
   -1.1939    3.6090   -1.2920 C   0  0  2  0  0  0  0  0  0  0  0  0
   -2.6233    3.5985   -1.7557 C   0  0  0  0  0  0  0  0  0  0  0  0
   -0.9298    2.2489   -0.5875 C   0  0  2  0  0  0  0  0  0  0  0  0
    0.4644    2.1645   -0.2181 N   0  0  0  0  0  0  0  0  0  0  0  0
    1.4387    1.2143   -0.4854 C   0  0  0  0  0  0  0  0  0  0  0  0
    2.3358    1.5436   -1.3523 O   0  0  0  0  0  0  0  0  0  0  0  0
    1.6169   -0.1448    0.0782 C   0  0  2  0  0  0  0  0  0  0  0  0
    2.7193   -0.2359    1.1113 C   0  0  0  0  0  0  0  0  0  0  0  0
    4.0579    0.1353    0.6174 C   0  0  0  0  0  0  0  0  0  0  0  0
    4.5809    1.4206    0.7000 C   0  0  0  0  0  0  0  0  0  0  0  0
    5.8396    1.7158    0.2256 C   0  0  0  0  0  0  0  0  0  0  0  0
    6.6188    0.7587   -0.3422 C   0  0  0  0  0  0  0  0  0  0  0  0
    6.1204   -0.5269   -0.4355 C   0  0  0  0  0  0  0  0  0  0  0  0
    4.8614   -0.8264    0.0378 C   0  0  0  0  0  0  0  0  0  0  0  0
    1.8915   -1.1683   -0.8989 N   0  0  0  0  0  0  0  0  0  0  0  0
    1.0952   -2.3319   -1.0554 C   0  0  0  0  0  0  0  0  0  0  0  0
    1.0863   -2.8915   -2.1808 O   0  0  0  0  0  0  0  0  0  0  0  0
    0.2679   -2.9433    0.0124 C   0  0  1  0  0  0  0  0  0  0  0  0
   -1.1278   -3.0889   -0.3371 N   0  0  0  0  0  0  0  0  0  0  0  0
   -2.0194   -2.1226   -0.7858 C   0  0  0  0  0  0  0  0  0  0  0  0
   -2.6365   -2.2806   -1.8709 O   0  0  0  0  0  0  0  0  0  0  0  0
   -2.3626   -0.8155   -0.0789 C   0  0  1  0  0  0  0  0  0  0  0  0
   -2.4516    0.2239   -1.0792 N   0  0  0  0  0  0  0  0  0  0  0  0
   -1.4756    1.1762   -1.3870 C   0  0  0  0  0  0  0  0  0  0  0  0
   -0.9805    1.0865   -2.5832 O   0  0  0  0  0  0  0  0  0  0  0  0
   -3.6489   -1.1247    0.6329 C   0  0  1  0  0  0  0  0  0  0  0  0
   -3.4276   -2.3004    1.6130 C   0  0  0  0  0  0  0  0  0  0  0  0
   -4.2651   -0.0388    1.4251 C   0  0  0  0  0  0  0  0  0  0  0  0
   -4.6599    1.1971    0.6659 C   0  0  0  0  0  0  0  0  0  0  0  0
    0.8859   -4.3329    0.2255 C   0  0  0  0  0  0  0  0  0  0  0  0
    2.3319   -4.2044    0.6483 C   0  0  0  0  0  0  0  0  0  0  0  0
    0.1108   -5.1743    1.1814 C   0  0  0  0  0  0  0  0  0  0  0  0
   -0.9601    5.9500   -2.1433 H   0  0  0  0  0  0  0  0  0  0  0  0
   -0.5325    6.8470   -0.6038 H   0  0  0  0  0  0  0  0  0  0  0  0
   -2.2266    6.3394   -0.8910 H   0  0  0  0  0  0  0  0  0  0  0  0
   -1.3600    4.6745    0.6229 H   0  0  0  0  0  0  0  0  0  0  0  0
    0.2548    4.7574   -0.2513 H   0  0  0  0  0  0  0  0  0  0  0  0
   -0.4765    3.6271   -2.1346 H   0  0  0  0  0  0  0  0  0  0  0  0
   -2.7315    4.3589   -2.5682 H   0  0  0  0  0  0  0  0  0  0  0  0
   -3.2439    3.9884   -0.9050 H   0  0  0  0  0  0  0  0  0  0  0  0
   -2.9616    2.6311   -2.1238 H   0  0  0  0  0  0  0  0  0  0  0  0
   -1.5208    2.3445    0.3531 H   0  0  0  0  0  0  0  0  0  0  0  0
    0.7749    3.0083    0.3650 H   0  0  0  0  0  0  0  0  0  0  0  0
    0.7057   -0.4940    0.6215 H   0  0  0  0  0  0  0  0  0  0  0  0
    2.7778   -1.2337    1.5727 H   0  0  0  0  0  0  0  0  0  0  0  0
    2.5100    0.4614    1.9726 H   0  0  0  0  0  0  0  0  0  0  0  0
    3.9515    2.1754    1.1541 H   0  0  0  0  0  0  0  0  0  0  0  0
    6.2181    2.7326    0.3065 H   0  0  0  0  0  0  0  0  0  0  0  0
    7.6115    0.9420   -0.7284 H   0  0  0  0  0  0  0  0  0  0  0  0
    6.7413   -1.3125   -0.8934 H   0  0  0  0  0  0  0  0  0  0  0  0
    4.4903   -1.8409   -0.0455 H   0  0  0  0  0  0  0  0  0  0  0  0
    2.7056   -1.0601   -1.5203 H   0  0  0  0  0  0  0  0  0  0  0  0
    0.3560   -2.4499    0.9904 H   0  0  0  0  0  0  0  0  0  0  0  0
   -1.5068   -4.0916   -0.2313 H   0  0  0  0  0  0  0  0  0  0  0  0
   -1.6282   -0.5624    0.6918 H   0  0  0  0  0  0  0  0  0  0  0  0
   -3.3718    0.2045   -1.6316 H   0  0  0  0  0  0  0  0  0  0  0  0
   -4.4365   -1.5132   -0.0755 H   0  0  0  0  0  0  0  0  0  0  0  0
   -2.4835   -2.0811    2.1402 H   0  0  0  0  0  0  0  0  0  0  0  0
   -4.2442   -2.2546    2.3588 H   0  0  0  0  0  0  0  0  0  0  0  0
   -3.4201   -3.2563    1.0524 H   0  0  0  0  0  0  0  0  0  0  0  0
   -5.2114   -0.3942    1.9381 H   0  0  0  0  0  0  0  0  0  0  0  0
   -3.6334    0.3100    2.2768 H   0  0  0  0  0  0  0  0  0  0  0  0
   -3.8504    1.9057    0.5229 H   0  0  0  0  0  0  0  0  0  0  0  0
   -5.4188    1.7382    1.3140 H   0  0  0  0  0  0  0  0  0  0  0  0
   -5.1700    0.9401   -0.2985 H   0  0  0  0  0  0  0  0  0  0  0  0
    0.8789   -4.8338   -0.7688 H   0  0  0  0  0  0  0  0  0  0  0  0
    2.3824   -3.6244    1.5973 H   0  0  0  0  0  0  0  0  0  0  0  0
    2.7997   -5.1901    0.8233 H   0  0  0  0  0  0  0  0  0  0  0  0
    2.9382   -3.6755   -0.1040 H   0  0  0  0  0  0  0  0  0  0  0  0
    0.8248   -5.9450    1.5935 H   0  0  0  0  0  0  0  0  0  0  0  0
   -0.3425   -4.6380    2.0237 H   0  0  0  0  0  0  0  0  0  0  0  0
   -0.6699   -5.7963    0.6589 H   0  0  0  0  0  0  0  0  0  0  0  0
  1  2  1  0
  2  3  1  0
  3  4  1  0
  3  5  1  0
  5  6  1  0
  6  7  1  0
  7  8  2  0
  7  9  1  0
  9 10  1  0
 10 11  1  0
 11 12  2  0
 12 13  1  0
 13 14  2  0
 14 15  1  0
 15 16  2  0
  9 17  1  0
 17 18  1  0
 18 19  2  0
 18 20  1  0
 20 21  1  0
 21 22  1  0
 22 23  2  0
 22 24  1  0
 24 25  1  0
 25 26  1  0
 26 27  2  0
 24 28  1  0
 28 29  1  0
 28 30  1  0
 30 31  1  0
 20 32  1  0
 32 33  1  0
 32 34  1  0
 26  5  1  0
 16 11  1  0
  1 35  1  0
  1 36  1  0
  1 37  1  0
  2 38  1  0
  2 39  1  0
  3 40  1  6
  4 41  1  0
  4 42  1  0
  4 43  1  0
  5 44  1  1
  6 45  1  0
  9 46  1  1
 10 47  1  0
 10 48  1  0
 12 49  1  0
 13 50  1  0
 14 51  1  0
 15 52  1  0
 16 53  1  0
 17 54  1  0
 20 55  1  1
 21 56  1  0
 24 57  1  1
 25 58  1  0
 28 59  1  6
 29 60  1  0
 29 61  1  0
 29 62  1  0
 30 63  1  0
 30 64  1  0
 31 65  1  0
 31 66  1  0
 31 67  1  0
 32 68  1  0
 33 69  1  0
 33 70  1  0
 33 71  1  0
 34 72  1  0
 34 73  1  0
 34 74  1  0
M  END
$$$$
[H]N=C(N([H])[H])N([H])C([H])([H])C([H])([H])C([H])([H])[C@@]([H])(C(=O)N([H])[C@]([H])(C(=O)N([H])[C@]([H])(C(=O)O[H])C([H])([H])C([H])([H])C(=O)O[H])C([H])([H])C([H])([H])C(=O)O[H])N([H])C(=O)[C@@]([H])(N([H])C(=O)[C@@]([H])(N([H])C(=O)[C@@]([H])(N([H])[H])C([H])([H])C([H])([H])C(=O)O[H])C([H])([H])C([H])([H])C(=O)O[H])C([H])([H])C([H])([H])C(=O)O[H]
     RDKit          3D

106105  0  0  0  0  0  0  0  0999 V2000
    2.0517   -4.7635    1.0234 N   0  0  0  0  0  0  0  0  0  0  0  0
    1.5472   -4.3327    2.2682 C   0  0  0  0  0  0  0  0  0  0  0  0
    1.5394   -5.1640    3.2636 N   0  0  0  0  0  0  0  0  0  0  0  0
    1.0644   -3.0062    2.3931 N   0  0  0  0  0  0  0  0  0  0  0  0
   -0.1141   -2.5409    1.6450 C   0  0  0  0  0  0  0  0  0  0  0  0
   -0.3541   -1.1163    2.0270 C   0  0  0  0  0  0  0  0  0  0  0  0
   -1.5012   -0.4602    1.3723 C   0  0  0  0  0  0  0  0  0  0  0  0
   -1.4216   -0.3013   -0.1328 C   0  0  2  0  0  0  0  0  0  0  0  0
   -0.3061    0.5261   -0.5177 N   0  0  0  0  0  0  0  0  0  0  0  0
    0.8331    0.0902   -1.2214 C   0  0  0  0  0  0  0  0  0  0  0  0
    0.9518   -1.0798   -1.5645 O   0  0  0  0  0  0  0  0  0  0  0  0
    1.8576    1.1580   -1.4976 C   0  0  2  0  0  0  0  0  0  0  0  0
    1.4372    2.0159   -2.6647 C   0  0  0  0  0  0  0  0  0  0  0  0
    1.2863    1.1932   -3.9259 C   0  0  0  0  0  0  0  0  0  0  0  0
    0.8803    1.9804   -5.1046 C   0  0  0  0  0  0  0  0  0  0  0  0
    0.7102    1.3974   -6.3601 O   0  0  0  0  0  0  0  0  0  0  0  0
    0.6688    3.2184   -5.0327 O   0  0  0  0  0  0  0  0  0  0  0  0
    3.1907    0.5990   -1.7149 N   0  0  0  0  0  0  0  0  0  0  0  0
    4.1872    0.6703   -0.7344 C   0  0  0  0  0  0  0  0  0  0  0  0
    3.8257    1.2366    0.3714 O   0  0  0  0  0  0  0  0  0  0  0  0
    5.5760    0.2185   -0.7166 C   0  0  2  0  0  0  0  0  0  0  0  0
    6.1815   -0.3549   -1.9250 C   0  0  0  0  0  0  0  0  0  0  0  0
    6.2557    0.6356   -3.0887 C   0  0  0  0  0  0  0  0  0  0  0  0
    6.8534    0.0312   -4.3033 C   0  0  0  0  0  0  0  0  0  0  0  0
    7.0517    0.8632   -5.3883 O   0  0  0  0  0  0  0  0  0  0  0  0
    7.1647   -1.1655   -4.3517 O   0  0  0  0  0  0  0  0  0  0  0  0
    5.9440   -0.4649    0.4875 N   0  0  0  0  0  0  0  0  0  0  0  0
    6.7601    0.1114    1.5357 C   0  0  0  0  0  0  0  0  0  0  0  0
    7.1334    1.2860    1.2890 O   0  0  0  0  0  0  0  0  0  0  0  0
    7.1188   -0.5935    2.7621 C   0  0  1  0  0  0  0  0  0  0  0  0
    6.5023   -1.9419    2.7594 N   0  0  0  0  0  0  0  0  0  0  0  0
    8.5819   -0.8091    2.9011 C   0  0  0  0  0  0  0  0  0  0  0  0
    9.4346    0.4154    2.9355 C   0  0  0  0  0  0  0  0  0  0  0  0
   10.8793    0.0385    3.1335 C   0  0  0  0  0  0  0  0  0  0  0  0
   11.8812    0.9964    3.1959 O   0  0  0  0  0  0  0  0  0  0  0  0
   11.1966   -1.1772    3.2472 O   0  0  0  0  0  0  0  0  0  0  0  0
   -2.6792    0.3738   -0.5436 C   0  0  0  0  0  0  0  0  0  0  0  0
   -2.5970    1.4858   -1.1200 O   0  0  0  0  0  0  0  0  0  0  0  0
   -3.9535   -0.1756   -0.3104 N   0  0  0  0  0  0  0  0  0  0  0  0
   -5.1810    0.5558   -0.7254 C   0  0  1  0  0  0  0  0  0  0  0  0
   -6.0100   -0.1843   -1.6940 C   0  0  0  0  0  0  0  0  0  0  0  0
   -7.1338    0.6560   -2.2178 C   0  0  0  0  0  0  0  0  0  0  0  0
   -8.0002   -0.1277   -3.1658 C   0  0  0  0  0  0  0  0  0  0  0  0
   -7.6779   -1.4584   -3.3588 O   0  0  0  0  0  0  0  0  0  0  0  0
   -8.9695    0.3589   -3.7662 O   0  0  0  0  0  0  0  0  0  0  0  0
   -5.8690    0.8171    0.5521 C   0  0  0  0  0  0  0  0  0  0  0  0
   -5.1274    1.3149    1.4810 O   0  0  0  0  0  0  0  0  0  0  0  0
   -7.1890    0.5877    0.8703 N   0  0  0  0  0  0  0  0  0  0  0  0
   -7.7401    0.9146    2.2018 C   0  0  1  0  0  0  0  0  0  0  0  0
   -8.6546    2.1026    2.1622 C   0  0  0  0  0  0  0  0  0  0  0  0
   -9.8464    1.9458    1.2638 C   0  0  0  0  0  0  0  0  0  0  0  0
  -10.6243    3.2197    1.3720 C   0  0  0  0  0  0  0  0  0  0  0  0
  -11.7940    3.3352    0.6423 O   0  0  0  0  0  0  0  0  0  0  0  0
  -10.2739    4.1840    2.0862 O   0  0  0  0  0  0  0  0  0  0  0  0
   -8.3838   -0.2731    2.7632 C   0  0  0  0  0  0  0  0  0  0  0  0
   -8.9944   -0.3115    4.0029 O   0  0  0  0  0  0  0  0  0  0  0  0
   -8.4073   -1.3643    2.1025 O   0  0  0  0  0  0  0  0  0  0  0  0
    2.6043   -4.1831    0.3530 H   0  0  0  0  0  0  0  0  0  0  0  0
    1.8726   -5.7606    0.7068 H   0  0  0  0  0  0  0  0  0  0  0  0
    1.8796   -6.1279    3.2099 H   0  0  0  0  0  0  0  0  0  0  0  0
    1.5830   -2.3786    3.0402 H   0  0  0  0  0  0  0  0  0  0  0  0
   -0.9341   -3.2180    1.9784 H   0  0  0  0  0  0  0  0  0  0  0  0
    0.1213   -2.6757    0.5811 H   0  0  0  0  0  0  0  0  0  0  0  0
    0.5717   -0.5534    1.7500 H   0  0  0  0  0  0  0  0  0  0  0  0
   -0.3985   -1.0564    3.1347 H   0  0  0  0  0  0  0  0  0  0  0  0
   -1.7722    0.5124    1.7987 H   0  0  0  0  0  0  0  0  0  0  0  0
   -2.4022   -1.1211    1.5383 H   0  0  0  0  0  0  0  0  0  0  0  0
   -1.3840   -1.2859   -0.5863 H   0  0  0  0  0  0  0  0  0  0  0  0
   -0.4173    1.5511   -0.2199 H   0  0  0  0  0  0  0  0  0  0  0  0
    1.9023    1.7786   -0.6004 H   0  0  0  0  0  0  0  0  0  0  0  0
    2.1636    2.8251   -2.7676 H   0  0  0  0  0  0  0  0  0  0  0  0
    0.4481    2.4507   -2.4321 H   0  0  0  0  0  0  0  0  0  0  0  0
    0.6787    0.2998   -3.7819 H   0  0  0  0  0  0  0  0  0  0  0  0
    2.3281    0.8201   -4.1647 H   0  0  0  0  0  0  0  0  0  0  0  0
    0.7032    0.3778   -6.3861 H   0  0  0  0  0  0  0  0  0  0  0  0
    3.4099    0.1165   -2.6031 H   0  0  0  0  0  0  0  0  0  0  0  0
    6.2252    1.2262   -0.5911 H   0  0  0  0  0  0  0  0  0  0  0  0
    5.8124   -1.3462   -2.2463 H   0  0  0  0  0  0  0  0  0  0  0  0
    7.2732   -0.5359   -1.6686 H   0  0  0  0  0  0  0  0  0  0  0  0
    5.2876    1.0589   -3.3790 H   0  0  0  0  0  0  0  0  0  0  0  0
    6.9199    1.4809   -2.7282 H   0  0  0  0  0  0  0  0  0  0  0  0
    6.7492    1.8320   -5.4146 H   0  0  0  0  0  0  0  0  0  0  0  0
    5.6231   -1.4580    0.6710 H   0  0  0  0  0  0  0  0  0  0  0  0
    6.7759   -0.0473    3.6846 H   0  0  0  0  0  0  0  0  0  0  0  0
    6.9899   -2.4785    2.0055 H   0  0  0  0  0  0  0  0  0  0  0  0
    6.7035   -2.3983    3.6873 H   0  0  0  0  0  0  0  0  0  0  0  0
    8.8045   -1.3678    3.8537 H   0  0  0  0  0  0  0  0  0  0  0  0
    8.9622   -1.4814    2.0969 H   0  0  0  0  0  0  0  0  0  0  0  0
    9.0892    1.0708    3.7529 H   0  0  0  0  0  0  0  0  0  0  0  0
    9.4304    0.9725    1.9519 H   0  0  0  0  0  0  0  0  0  0  0  0
   12.5444    1.1144    2.4143 H   0  0  0  0  0  0  0  0  0  0  0  0
   -4.0974   -1.0815    0.1449 H   0  0  0  0  0  0  0  0  0  0  0  0
   -4.8349    1.5562   -1.1211 H   0  0  0  0  0  0  0  0  0  0  0  0
   -6.4992   -1.1020   -1.2284 H   0  0  0  0  0  0  0  0  0  0  0  0
   -5.4140   -0.6408   -2.5307 H   0  0  0  0  0  0  0  0  0  0  0  0
   -6.6686    1.4471   -2.9414 H   0  0  0  0  0  0  0  0  0  0  0  0
   -7.7683    1.1925   -1.5423 H   0  0  0  0  0  0  0  0  0  0  0  0
   -8.2859   -2.1193   -2.8626 H   0  0  0  0  0  0  0  0  0  0  0  0
   -7.8848    0.1440    0.2626 H   0  0  0  0  0  0  0  0  0  0  0  0
   -6.8745    1.2094    2.8332 H   0  0  0  0  0  0  0  0  0  0  0  0
   -8.1039    3.0386    2.0061 H   0  0  0  0  0  0  0  0  0  0  0  0
   -9.0764    2.1883    3.2093 H   0  0  0  0  0  0  0  0  0  0  0  0
  -10.5155    1.1408    1.6265 H   0  0  0  0  0  0  0  0  0  0  0  0
   -9.5086    1.8010    0.2192 H   0  0  0  0  0  0  0  0  0  0  0  0
  -12.6905    3.4680    1.1089 H   0  0  0  0  0  0  0  0  0  0  0  0
   -9.6699    0.3771    4.3220 H   0  0  0  0  0  0  0  0  0  0  0  0
  1  2  1  0
  2  3  2  3
  2  4  1  0
  4  5  1  0
  5  6  1  0
  6  7  1  0
  7  8  1  0
  8  9  1  0
  9 10  1  0
 10 11  2  0
 10 12  1  0
 12 13  1  0
 13 14  1  0
 14 15  1  0
 15 16  1  0
 15 17  2  0
 12 18  1  0
 18 19  1  0
 19 20  2  0
 19 21  1  0
 21 22  1  0
 22 23  1  0
 23 24  1  0
 24 25  1  0
 24 26  2  0
 21 27  1  0
 27 28  1  0
 28 29  2  0
 28 30  1  0
 30 31  1  0
 30 32  1  0
 32 33  1  0
 33 34  1  0
 34 35  1  0
 34 36  2  0
  8 37  1  0
 37 38  2  0
 37 39  1  0
 39 40  1  0
 40 41  1  0
 41 42  1  0
 42 43  1  0
 43 44  1  0
 43 45  2  0
 40 46  1  0
 46 47  2  0
 46 48  1  0
 48 49  1  0
 49 50  1  0
 50 51  1  0
 51 52  1  0
 52 53  1  0
 52 54  2  0
 49 55  1  0
 55 56  1  0
 55 57  2  0
  1 58  1  0
  1 59  1  0
  3 60  1  0
  4 61  1  0
  5 62  1  0
  5 63  1  0
  6 64  1  0
  6 65  1  0
  7 66  1  0
  7 67  1  0
  8 68  1  6
  9 69  1  0
 12 70  1  1
 13 71  1  0
 13 72  1  0
 14 73  1  0
 14 74  1  0
 16 75  1  0
 18 76  1  0
 21 77  1  1
 22 78  1  0
 22 79  1  0
 23 80  1  0
 23 81  1  0
 25 82  1  0
 27 83  1  0
 30 84  1  1
 31 85  1  0
 31 86  1  0
 32 87  1  0
 32 88  1  0
 33 89  1  0
 33 90  1  0
 35 91  1  0
 39 92  1  0
 40 93  1  6
 41 94  1  0
 41 95  1  0
 42 96  1  0
 42 97  1  0
 44 98  1  0
 48 99  1  0
 49100  1  1
 50101  1  0
 50102  1  0
 51103  1  0
 51104  1  0
 53105  1  0
 56106  1  0
M  END
$$$$
[H]O[C@@]1([H])[C@]([H])(C([H])([H])OP(=O)(O[H])OP(=O)(O[H])O[H])O[C@@]([H])(n2c([H])nc3c(N([H])[H])nc([H])nc32)[C@]1([H])O[H]
     RDKit          3D

 42 44  0  0  0  0  0  0  0  0999 V2000
   -6.1156    2.5785    0.3368 N   0  0  0  0  0  0  0  0  0  0  0  0
   -5.0308    1.9870    1.0292 C   0  0  0  0  0  0  0  0  0  0  0  0
   -5.0069    1.8944    2.3869 N   0  0  0  0  0  0  0  0  0  0  0  0
   -3.9447    1.3207    2.9705 C   0  0  0  0  0  0  0  0  0  0  0  0
   -2.8925    0.8268    2.2951 N   0  0  0  0  0  0  0  0  0  0  0  0
   -2.8841    0.9015    0.9609 C   0  0  0  0  0  0  0  0  0  0  0  0
   -1.9808    0.4974    0.0504 N   0  0  0  0  0  0  0  0  0  0  0  0
   -2.4931    0.8286   -1.1485 C   0  0  0  0  0  0  0  0  0  0  0  0
   -3.6688    1.4154   -0.9841 N   0  0  0  0  0  0  0  0  0  0  0  0
   -3.9556    1.4829    0.3272 C   0  0  0  0  0  0  0  0  0  0  0  0
   -0.7196   -0.1510    0.2086 C   0  0  2  0  0  0  0  0  0  0  0  0
   -0.5568   -1.0321   -0.8780 O   0  0  0  0  0  0  0  0  0  0  0  0
    0.3686   -1.9660   -0.4868 C   0  0  1  0  0  0  0  0  0  0  0  0
    1.7958   -1.5218   -0.7722 C   0  0  0  0  0  0  0  0  0  0  0  0
    1.9808   -1.3005   -2.1372 O   0  0  0  0  0  0  0  0  0  0  0  0
    3.5546   -0.8083   -2.4697 P   0  0  0  0  0  0  0  0  0  0  0  0
    3.4550    0.7817   -3.0848 O   0  0  0  0  0  0  0  0  0  0  0  0
    4.1988   -1.6603   -3.5417 O   0  0  0  0  0  0  0  0  0  0  0  0
    4.4912   -0.7555   -1.0651 O   0  0  0  0  0  0  0  0  0  0  0  0
    5.3077    0.6979   -0.9623 P   0  0  0  0  0  0  0  0  0  0  0  0
    4.2686    2.0029   -0.7039 O   0  0  0  0  0  0  0  0  0  0  0  0
    6.4259    0.6363    0.3203 O   0  0  0  0  0  0  0  0  0  0  0  0
    6.0969    0.9994   -2.2299 O   0  0  0  0  0  0  0  0  0  0  0  0
    0.1481   -2.2276    0.9650 C   0  0  2  0  0  0  0  0  0  0  0  0
   -0.6067   -3.3894    1.1458 O   0  0  0  0  0  0  0  0  0  0  0  0
   -0.5912   -0.9912    1.4446 C   0  0  1  0  0  0  0  0  0  0  0  0
    0.1933   -0.3099    2.3672 O   0  0  0  0  0  0  0  0  0  0  0  0
   -5.9855    3.5515   -0.0356 H   0  0  0  0  0  0  0  0  0  0  0  0
   -7.0340    2.1054    0.1752 H   0  0  0  0  0  0  0  0  0  0  0  0
   -3.9159    1.2421    4.0510 H   0  0  0  0  0  0  0  0  0  0  0  0
   -2.0380    0.6566   -2.1380 H   0  0  0  0  0  0  0  0  0  0  0  0
    0.0735    0.6114    0.1162 H   0  0  0  0  0  0  0  0  0  0  0  0
    0.1604   -2.9074   -1.0380 H   0  0  0  0  0  0  0  0  0  0  0  0
    2.4997   -2.3078   -0.4337 H   0  0  0  0  0  0  0  0  0  0  0  0
    2.0211   -0.6068   -0.1884 H   0  0  0  0  0  0  0  0  0  0  0  0
    2.7604    1.2322   -2.5348 H   0  0  0  0  0  0  0  0  0  0  0  0
    3.8924    2.0109    0.2084 H   0  0  0  0  0  0  0  0  0  0  0  0
    5.9798    0.2187    1.1174 H   0  0  0  0  0  0  0  0  0  0  0  0
    1.1006   -2.3728    1.5256 H   0  0  0  0  0  0  0  0  0  0  0  0
   -0.6438   -3.8713    0.2702 H   0  0  0  0  0  0  0  0  0  0  0  0
   -1.5473   -1.3407    1.8575 H   0  0  0  0  0  0  0  0  0  0  0  0
    0.8385   -0.9599    2.7417 H   0  0  0  0  0  0  0  0  0  0  0  0
  1  2  1  0
  2  3  2  0
  3  4  1  0
  4  5  2  0
  5  6  1  0
  6  7  1  0
  7  8  1  0
  8  9  2  0
  9 10  1  0
  7 11  1  0
 11 12  1  0
 12 13  1  0
 13 14  1  0
 14 15  1  0
 15 16  1  0
 16 17  1  0
 16 18  2  0
 16 19  1  0
 19 20  1  0
 20 21  1  0
 20 22  1  0
 20 23  2  0
 13 24  1  0
 24 25  1  0
 24 26  1  0
 26 27  1  0
 10  2  1  0
 26 11  1  0
 10  6  2  0
  1 28  1  0
  1 29  1  0
  4 30  1  0
  8 31  1  0
 11 32  1  1
 13 33  1  6
 14 34  1  0
 14 35  1  0
 17 36  1  0
 21 37  1  0
 22 38  1  0
 24 39  1  1
 25 40  1  0
 26 41  1  1
 27 42  1  0
M  END
$$$$
[H]C1=C([H])C([H])(F)C([H])([H])C([H])=C1N([H])C(=O)C1(C(=O)N([H])c2c([H])c([H])c(Oc3c([H])c([H])nc4c([H])c(OC([H])([H])C([H])([H])C([H])([H])N5C([H])([H])C([H])([H])C([H])([H])C5([H])[H])c(OC([H])([H])[H])c([H])c34)c(F)c2[H])C([H])([H])C1([H])[H]
     RDKit          3D

 81 86  0  0  0  0  0  0  0  0999 V2000
   -3.5877    0.0230   -2.5605 C   0  0  0  0  0  0  0  0  0  0  0  0
   -4.4433   -0.0435   -1.4508 O   0  0  0  0  0  0  0  0  0  0  0  0
   -3.9880   -0.2494   -0.1491 C   0  0  0  0  0  0  0  0  0  0  0  0
   -2.6478   -0.3994    0.1096 C   0  0  0  0  0  0  0  0  0  0  0  0
   -2.1587   -0.6042    1.3755 C   0  0  0  0  0  0  0  0  0  0  0  0
   -0.7923   -0.7567    1.6112 C   0  0  0  0  0  0  0  0  0  0  0  0
    0.0250   -0.6916    0.5279 O   0  0  0  0  0  0  0  0  0  0  0  0
    1.3913   -0.8525    0.4754 C   0  0  0  0  0  0  0  0  0  0  0  0
    2.2342    0.1729    0.0692 C   0  0  0  0  0  0  0  0  0  0  0  0
    3.5918   -0.0103    0.0220 C   0  0  0  0  0  0  0  0  0  0  0  0
    4.2120   -1.2204    0.3732 C   0  0  0  0  0  0  0  0  0  0  0  0
    5.6358   -1.3113    0.3171 N   0  0  0  0  0  0  0  0  0  0  0  0
    6.4056   -2.4553    0.1478 C   0  0  0  0  0  0  0  0  0  0  0  0
    5.7718   -3.5663    0.0427 O   0  0  0  0  0  0  0  0  0  0  0  0
    7.8601   -2.5227    0.0895 C   0  0  0  0  0  0  0  0  0  0  0  0
    8.4588   -3.8753   -0.2867 C   0  0  0  0  0  0  0  0  0  0  0  0
    8.4428   -3.4847    1.1392 C   0  0  0  0  0  0  0  0  0  0  0  0
    8.7035   -1.3424   -0.2300 C   0  0  0  0  0  0  0  0  0  0  0  0
    9.9255   -1.4864    0.1717 O   0  0  0  0  0  0  0  0  0  0  0  0
    8.2626   -0.2155   -0.8859 N   0  0  0  0  0  0  0  0  0  0  0  0
    8.9663    0.9916   -1.2279 C   0  0  0  0  0  0  0  0  0  0  0  0
   10.2261    1.1961   -0.9431 C   0  0  0  0  0  0  0  0  0  0  0  0
   10.9546    2.4310   -1.2907 C   0  0  0  0  0  0  0  0  0  0  0  0
   10.1946    3.4846   -1.9837 C   0  0  0  0  0  0  0  0  0  0  0  0
   10.2335    4.6437   -1.1848 F   0  0  0  0  0  0  0  0  0  0  0  0
    8.8021    3.1813   -2.2644 C   0  0  0  0  0  0  0  0  0  0  0  0
    8.2359    2.0634   -1.9301 C   0  0  0  0  0  0  0  0  0  0  0  0
    3.3805   -2.2291    0.7736 C   0  0  0  0  0  0  0  0  0  0  0  0
    1.9865   -2.0377    0.8203 C   0  0  0  0  0  0  0  0  0  0  0  0
    1.2365   -3.0982    1.2142 F   0  0  0  0  0  0  0  0  0  0  0  0
   -0.4287   -0.9581    2.9201 C   0  0  0  0  0  0  0  0  0  0  0  0
   -1.3521   -1.0070    3.9339 C   0  0  0  0  0  0  0  0  0  0  0  0
   -2.6377   -0.8567    3.6575 N   0  0  0  0  0  0  0  0  0  0  0  0
   -3.0892   -0.6527    2.3915 C   0  0  0  0  0  0  0  0  0  0  0  0
   -4.4416   -0.5052    2.1646 C   0  0  0  0  0  0  0  0  0  0  0  0
   -4.8811   -0.3029    0.8827 C   0  0  0  0  0  0  0  0  0  0  0  0
   -6.2490   -0.1596    0.6965 O   0  0  0  0  0  0  0  0  0  0  0  0
   -7.1921   -0.2052    1.7204 C   0  0  0  0  0  0  0  0  0  0  0  0
   -8.5663   -0.0150    1.1322 C   0  0  0  0  0  0  0  0  0  0  0  0
   -8.6955    1.3020    0.4220 C   0  0  0  0  0  0  0  0  0  0  0  0
  -10.0037    1.4621   -0.1281 N   0  0  0  0  0  0  0  0  0  0  0  0
  -10.2287    2.6808   -0.8350 C   0  0  0  0  0  0  0  0  0  0  0  0
  -11.1566    2.3511   -2.0081 C   0  0  0  0  0  0  0  0  0  0  0  0
  -11.7165    1.0092   -1.5741 C   0  0  0  0  0  0  0  0  0  0  0  0
  -10.4689    0.3786   -0.9383 C   0  0  0  0  0  0  0  0  0  0  0  0
   -4.1462    0.4826   -3.4058 H   0  0  0  0  0  0  0  0  0  0  0  0
   -2.7486    0.7305   -2.3481 H   0  0  0  0  0  0  0  0  0  0  0  0
   -3.2042   -0.9751   -2.8684 H   0  0  0  0  0  0  0  0  0  0  0  0
   -1.9172   -0.3599   -0.6920 H   0  0  0  0  0  0  0  0  0  0  0  0
    1.7492    1.1006   -0.1989 H   0  0  0  0  0  0  0  0  0  0  0  0
    4.2444    0.7990   -0.2985 H   0  0  0  0  0  0  0  0  0  0  0  0
    6.1068   -0.3582    0.4880 H   0  0  0  0  0  0  0  0  0  0  0  0
    7.7266   -4.6220   -0.6534 H   0  0  0  0  0  0  0  0  0  0  0  0
    9.4183   -3.8918   -0.8472 H   0  0  0  0  0  0  0  0  0  0  0  0
    9.4104   -3.1476    1.6028 H   0  0  0  0  0  0  0  0  0  0  0  0
    7.7630   -3.9592    1.8454 H   0  0  0  0  0  0  0  0  0  0  0  0
    7.2650   -0.2466   -1.2614 H   0  0  0  0  0  0  0  0  0  0  0  0
   10.8241    0.4296   -0.4110 H   0  0  0  0  0  0  0  0  0  0  0  0
   11.8456    2.1794   -1.9484 H   0  0  0  0  0  0  0  0  0  0  0  0
   11.3908    2.8108   -0.3161 H   0  0  0  0  0  0  0  0  0  0  0  0
   10.6645    3.7949   -2.9610 H   0  0  0  0  0  0  0  0  0  0  0  0
    8.2315    3.9729   -2.7929 H   0  0  0  0  0  0  0  0  0  0  0  0
    7.1670    1.8981   -2.1758 H   0  0  0  0  0  0  0  0  0  0  0  0
    3.7856   -3.1876    1.0764 H   0  0  0  0  0  0  0  0  0  0  0  0
    0.6075   -1.0712    3.1537 H   0  0  0  0  0  0  0  0  0  0  0  0
   -1.0717   -1.1659    4.9745 H   0  0  0  0  0  0  0  0  0  0  0  0
   -5.1120   -0.5552    3.0169 H   0  0  0  0  0  0  0  0  0  0  0  0
   -7.1820   -1.2490    2.1462 H   0  0  0  0  0  0  0  0  0  0  0  0
   -6.9796    0.4646    2.5680 H   0  0  0  0  0  0  0  0  0  0  0  0
   -9.3685   -0.0413    1.9143 H   0  0  0  0  0  0  0  0  0  0  0  0
   -8.7385   -0.8568    0.4359 H   0  0  0  0  0  0  0  0  0  0  0  0
   -8.5595    2.1075    1.1881 H   0  0  0  0  0  0  0  0  0  0  0  0
   -7.8715    1.4342   -0.3151 H   0  0  0  0  0  0  0  0  0  0  0  0
  -10.7856    3.4045   -0.1999 H   0  0  0  0  0  0  0  0  0  0  0  0
   -9.3011    3.1863   -1.1756 H   0  0  0  0  0  0  0  0  0  0  0  0
  -11.9700    3.1048   -2.1030 H   0  0  0  0  0  0  0  0  0  0  0  0
  -10.5960    2.2617   -2.9622 H   0  0  0  0  0  0  0  0  0  0  0  0
  -12.4672    1.2054   -0.7918 H   0  0  0  0  0  0  0  0  0  0  0  0
  -12.0978    0.4163   -2.4102 H   0  0  0  0  0  0  0  0  0  0  0  0
  -10.7030   -0.5229   -0.3684 H   0  0  0  0  0  0  0  0  0  0  0  0
   -9.7919    0.1704   -1.8195 H   0  0  0  0  0  0  0  0  0  0  0  0
  1  2  1  0
  2  3  1  0
  3  4  2  0
  4  5  1  0
  5  6  2  0
  6  7  1  0
  7  8  1  0
  8  9  2  0
  9 10  1  0
 10 11  2  0
 11 12  1  0
 12 13  1  0
 13 14  2  0
 13 15  1  0
 15 16  1  0
 16 17  1  0
 15 18  1  0
 18 19  2  0
 18 20  1  0
 20 21  1  0
 21 22  2  0
 22 23  1  0
 23 24  1  0
 24 25  1  0
 24 26  1  0
 26 27  2  0
 11 28  1  0
 28 29  2  0
 29 30  1  0
  6 31  1  0
 31 32  2  0
 32 33  1  0
 33 34  2  0
 34 35  1  0
 35 36  2  0
 36 37  1  0
 37 38  1  0
 38 39  1  0
 39 40  1  0
 40 41  1  0
 41 42  1  0
 42 43  1  0
 43 44  1  0
 44 45  1  0
 36  3  1  0
 45 41  1  0
 34  5  1  0
 29  8  1  0
 17 15  1  0
 27 21  1  0
  1 46  1  0
  1 47  1  0
  1 48  1  0
  4 49  1  0
  9 50  1  0
 10 51  1  0
 12 52  1  0
 16 53  1  0
 16 54  1  0
 17 55  1  0
 17 56  1  0
 20 57  1  0
 22 58  1  0
 23 59  1  0
 23 60  1  0
 24 61  1  0
 26 62  1  0
 27 63  1  0
 28 64  1  0
 31 65  1  0
 32 66  1  0
 35 67  1  0
 38 68  1  0
 38 69  1  0
 39 70  1  0
 39 71  1  0
 40 72  1  0
 40 73  1  0
 42 74  1  0
 42 75  1  0
 43 76  1  0
 43 77  1  0
 44 78  1  0
 44 79  1  0
 45 80  1  0
 45 81  1  0
M  END
$$$$
[H]C#CC([H])([H])[N+]([H])(C([H])([H])[H])C([H])([H])C(=C([H])[H])c1c([H])c([H])c(OC([H])([H])c2c([H])c([H])c([H])c([H])c2[H])c([H])c1[H].[H]OC(=O)C(=O)[O-]
     RDKit          3D

 51 51  0  0  0  0  0  0  0  0999 V2000
   -1.2939   -0.1486   -0.7352 O   0  0  0  0  0  0  0  0  0  0  0  0
   -0.3604   -0.0204    0.2763 C   0  0  0  0  0  0  0  0  0  0  0  0
   -0.7565   -0.2395    1.4424 O   0  0  0  0  0  0  0  0  0  0  0  0
    0.9988    0.3539   -0.0683 C   0  0  0  0  0  0  0  0  0  0  0  0
    1.8975    0.4665    1.0104 O   0  0  0  0  0  0  0  0  0  0  0  0
    1.3963    0.5719   -1.2205 O   0  0  0  0  0  0  0  0  0  0  0  0
    3.8229    0.4701   -0.0428 C   0  0  0  0  0  0  0  0  0  0  0  0
    4.3235   -0.6723    0.6555 N   0  0  0  0  0  0  0  0  0  0  0  0
    4.3468   -0.5268    2.0941 C   0  0  0  0  0  0  0  0  0  0  0  0
    4.0683    0.8520    2.5173 C   0  0  0  0  0  0  0  0  0  0  0  0
    3.8518    1.9857    2.8831 C   0  0  0  0  0  0  0  0  0  0  0  0
    3.8333   -1.9435    0.2459 C   0  0  0  0  0  0  0  0  0  0  0  0
    2.8032   -1.9654   -0.7976 C   0  0  0  0  0  0  0  0  0  0  0  0
    3.0713   -2.5367   -1.9433 C   0  0  0  0  0  0  0  0  0  0  0  0
    1.4917   -1.3865   -0.6051 C   0  0  0  0  0  0  0  0  0  0  0  0
    0.6818   -0.9598   -1.6607 C   0  0  0  0  0  0  0  0  0  0  0  0
   -0.5816   -0.4428   -1.4606 C   0  0  0  0  0  0  0  0  0  0  0  0
   -1.1014   -0.3250   -0.1955 C   0  0  0  0  0  0  0  0  0  0  0  0
   -2.3622    0.1858    0.0694 O   0  0  0  0  0  0  0  0  0  0  0  0
   -3.1659    0.6132   -1.0272 C   0  0  0  0  0  0  0  0  0  0  0  0
   -4.4570    1.1153   -0.4939 C   0  0  0  0  0  0  0  0  0  0  0  0
   -5.5502    0.2585   -0.3270 C   0  0  0  0  0  0  0  0  0  0  0  0
   -6.7109    0.8057    0.1740 C   0  0  0  0  0  0  0  0  0  0  0  0
   -6.8227    2.1492    0.5091 C   0  0  0  0  0  0  0  0  0  0  0  0
   -5.7229    2.9537    0.3284 C   0  0  0  0  0  0  0  0  0  0  0  0
   -4.5542    2.4469   -0.1662 C   0  0  0  0  0  0  0  0  0  0  0  0
   -0.3366   -0.7340    0.8765 C   0  0  0  0  0  0  0  0  0  0  0  0
    0.9378   -1.2534    0.6442 C   0  0  0  0  0  0  0  0  0  0  0  0
   -1.8818   -0.9838   -0.7051 H   0  0  0  0  0  0  0  0  0  0  0  0
    3.0403    1.0081    0.5327 H   0  0  0  0  0  0  0  0  0  0  0  0
    3.5571    0.2027   -1.0659 H   0  0  0  0  0  0  0  0  0  0  0  0
    4.6900    1.1961   -0.1612 H   0  0  0  0  0  0  0  0  0  0  0  0
    5.3758   -0.6966    0.3965 H   0  0  0  0  0  0  0  0  0  0  0  0
    5.3318   -0.8540    2.5136 H   0  0  0  0  0  0  0  0  0  0  0  0
    3.6053   -1.2315    2.5144 H   0  0  0  0  0  0  0  0  0  0  0  0
    3.6509    2.9805    3.2000 H   0  0  0  0  0  0  0  0  0  0  0  0
    3.4252   -2.4334    1.1896 H   0  0  0  0  0  0  0  0  0  0  0  0
    4.6739   -2.6496   -0.0303 H   0  0  0  0  0  0  0  0  0  0  0  0
    2.3473   -2.5716   -2.7235 H   0  0  0  0  0  0  0  0  0  0  0  0
    4.0349   -2.9779   -2.1025 H   0  0  0  0  0  0  0  0  0  0  0  0
    1.0775   -1.0392   -2.6826 H   0  0  0  0  0  0  0  0  0  0  0  0
   -1.1759   -0.1250   -2.2940 H   0  0  0  0  0  0  0  0  0  0  0  0
   -2.6270    1.4563   -1.5061 H   0  0  0  0  0  0  0  0  0  0  0  0
   -3.3294   -0.2172   -1.7489 H   0  0  0  0  0  0  0  0  0  0  0  0
   -5.4437   -0.7850   -0.5936 H   0  0  0  0  0  0  0  0  0  0  0  0
   -7.5474    0.1509    0.3018 H   0  0  0  0  0  0  0  0  0  0  0  0
   -7.7357    2.5646    0.8998 H   0  0  0  0  0  0  0  0  0  0  0  0
   -5.8299    4.0094    0.5980 H   0  0  0  0  0  0  0  0  0  0  0  0
   -3.7133    3.1228   -0.2908 H   0  0  0  0  0  0  0  0  0  0  0  0
   -0.7384   -0.6448    1.8779 H   0  0  0  0  0  0  0  0  0  0  0  0
    1.4636   -1.5556    1.5347 H   0  0  0  0  0  0  0  0  0  0  0  0
  1  2  1  0
  2  3  2  0
  2  4  1  0
  4  5  1  0
  4  6  2  0
  7  8  1  0
  8  9  1  0
  9 10  1  0
 10 11  3  0
  8 12  1  0
 12 13  1  0
 13 14  2  3
 13 15  1  0
 15 16  2  0
 16 17  1  0
 17 18  2  0
 18 19  1  0
 19 20  1  0
 20 21  1  0
 21 22  2  0
 22 23  1  0
 23 24  2  0
 24 25  1  0
 25 26  2  0
 18 27  1  0
 27 28  2  0
 28 15  1  0
 26 21  1  0
  1 29  1  0
  7 30  1  0
  7 31  1  0
  7 32  1  0
  8 33  1  0
  9 34  1  0
  9 35  1  0
 11 36  1  0
 12 37  1  0
 12 38  1  0
 14 39  1  0
 14 40  1  0
 16 41  1  0
 17 42  1  0
 20 43  1  0
 20 44  1  0
 22 45  1  0
 23 46  1  0
 24 47  1  0
 25 48  1  0
 26 49  1  0
 27 50  1  0
 28 51  1  0
M  CHG  2   5  -1   8   1
M  END
$$$$
[H]O[C@]1([H])C([H])([H])C([H])([H])[C@@]([H])(c2nc(-c3c([H])c([H])c(C(=O)N([H])c4nc([H])c([H])c(C(F)(F)F)c4[H])c([H])c3[H])c3c(N([H])[H])nc([H])c([H])n32)C([H])([H])C1([H])[H]
     RDKit          3D

 59 63  0  0  0  0  0  0  0  0999 V2000
    0.3413   -0.1825    3.0105 N   0  0  0  0  0  0  0  0  0  0  0  0
   -0.9498    0.2412    2.6404 C   0  0  0  0  0  0  0  0  0  0  0  0
   -1.7512    0.8186    3.5730 N   0  0  0  0  0  0  0  0  0  0  0  0
   -2.9782    1.2509    3.2825 C   0  0  0  0  0  0  0  0  0  0  0  0
   -3.4838    1.1237    2.0003 C   0  0  0  0  0  0  0  0  0  0  0  0
   -2.7131    0.5576    1.0597 N   0  0  0  0  0  0  0  0  0  0  0  0
   -2.9269    0.3255   -0.2482 C   0  0  0  0  0  0  0  0  0  0  0  0
   -1.7856   -0.2576   -0.7270 N   0  0  0  0  0  0  0  0  0  0  0  0
   -0.8686   -0.4042    0.2234 C   0  0  0  0  0  0  0  0  0  0  0  0
    0.4538   -1.0152   -0.0091 C   0  0  0  0  0  0  0  0  0  0  0  0
    0.9445   -2.0817    0.6797 C   0  0  0  0  0  0  0  0  0  0  0  0
    2.1870   -2.5740    0.4570 C   0  0  0  0  0  0  0  0  0  0  0  0
    3.0377   -1.9882   -0.5206 C   0  0  0  0  0  0  0  0  0  0  0  0
    2.5471   -0.9212   -1.2148 C   0  0  0  0  0  0  0  0  0  0  0  0
    1.2660   -0.4344   -0.9637 C   0  0  0  0  0  0  0  0  0  0  0  0
    4.2996   -2.6387   -0.6861 C   0  0  0  0  0  0  0  0  0  0  0  0
    4.0789   -3.9334   -1.0303 O   0  0  0  0  0  0  0  0  0  0  0  0
    5.5880   -2.3218   -0.5808 N   0  0  0  0  0  0  0  0  0  0  0  0
    6.4026   -1.1837   -0.3808 C   0  0  0  0  0  0  0  0  0  0  0  0
    6.0530    0.1148   -0.4503 C   0  0  0  0  0  0  0  0  0  0  0  0
    6.9793    1.1285   -0.1932 C   0  0  0  0  0  0  0  0  0  0  0  0
    8.2746    0.7834    0.1412 C   0  0  0  0  0  0  0  0  0  0  0  0
    8.6218   -0.5549    0.2100 C   0  0  0  0  0  0  0  0  0  0  0  0
    7.7059   -1.4601   -0.0453 N   0  0  0  0  0  0  0  0  0  0  0  0
    6.5935    2.5624   -0.3261 C   0  0  0  0  0  0  0  0  0  0  0  0
    7.6898    3.3335    0.0899 F   0  0  0  0  0  0  0  0  0  0  0  0
    5.5217    2.9169    0.4206 F   0  0  0  0  0  0  0  0  0  0  0  0
    6.4055    2.7871   -1.6954 F   0  0  0  0  0  0  0  0  0  0  0  0
   -1.4478    0.1117    1.3631 C   0  0  0  0  0  0  0  0  0  0  0  0
   -4.1411    0.5696   -1.0751 C   0  0  1  0  0  0  0  0  0  0  0  0
   -4.9502   -0.7259   -1.0482 C   0  0  0  0  0  0  0  0  0  0  0  0
   -6.2127   -0.3921   -1.8636 C   0  0  0  0  0  0  0  0  0  0  0  0
   -7.0200    0.4047   -0.8350 C   0  0  2  0  0  0  0  0  0  0  0  0
   -8.3387    0.5381   -1.2356 O   0  0  0  0  0  0  0  0  0  0  0  0
   -6.3509    1.7135   -0.5732 C   0  0  0  0  0  0  0  0  0  0  0  0
   -4.8933    1.7952   -0.9110 C   0  0  0  0  0  0  0  0  0  0  0  0
    1.2347    0.2135    2.7480 H   0  0  0  0  0  0  0  0  0  0  0  0
    0.3763   -1.0327    3.6568 H   0  0  0  0  0  0  0  0  0  0  0  0
   -3.5973    1.7034    4.0502 H   0  0  0  0  0  0  0  0  0  0  0  0
   -4.4892    1.4639    1.7779 H   0  0  0  0  0  0  0  0  0  0  0  0
    0.2973   -2.5965    1.4267 H   0  0  0  0  0  0  0  0  0  0  0  0
    2.5908   -3.4357    1.0163 H   0  0  0  0  0  0  0  0  0  0  0  0
    3.1755   -0.4431   -1.9898 H   0  0  0  0  0  0  0  0  0  0  0  0
    0.9335    0.4121   -1.5539 H   0  0  0  0  0  0  0  0  0  0  0  0
    6.2603   -3.2269   -0.7953 H   0  0  0  0  0  0  0  0  0  0  0  0
    5.0462    0.4027   -0.7222 H   0  0  0  0  0  0  0  0  0  0  0  0
    9.0218    1.5413    0.3504 H   0  0  0  0  0  0  0  0  0  0  0  0
    9.6445   -0.8207    0.4741 H   0  0  0  0  0  0  0  0  0  0  0  0
   -3.7506    0.5511   -2.1609 H   0  0  0  0  0  0  0  0  0  0  0  0
   -5.2031   -1.0589   -0.0459 H   0  0  0  0  0  0  0  0  0  0  0  0
   -4.4113   -1.5023   -1.6361 H   0  0  0  0  0  0  0  0  0  0  0  0
   -5.9344    0.2959   -2.6820 H   0  0  0  0  0  0  0  0  0  0  0  0
   -6.7184   -1.2900   -2.2193 H   0  0  0  0  0  0  0  0  0  0  0  0
   -7.0317   -0.2285    0.0870 H   0  0  0  0  0  0  0  0  0  0  0  0
   -8.8941   -0.2912   -1.1099 H   0  0  0  0  0  0  0  0  0  0  0  0
   -6.5082    1.9308    0.5270 H   0  0  0  0  0  0  0  0  0  0  0  0
   -6.9438    2.4946   -1.0863 H   0  0  0  0  0  0  0  0  0  0  0  0
   -4.8745    2.4129   -1.8888 H   0  0  0  0  0  0  0  0  0  0  0  0
   -4.4038    2.4967   -0.2197 H   0  0  0  0  0  0  0  0  0  0  0  0
  1  2  1  0
  2  3  2  0
  3  4  1  0
  4  5  2  0
  5  6  1  0
  6  7  1  0
  7  8  2  0
  8  9  1  0
  9 10  1  0
 10 11  2  0
 11 12  1  0
 12 13  2  0
 13 14  1  0
 14 15  2  0
 13 16  1  0
 16 17  2  0
 16 18  1  0
 18 19  1  0
 19 20  2  0
 20 21  1  0
 21 22  2  0
 22 23  1  0
 23 24  2  0
 21 25  1  0
 25 26  1  0
 25 27  1  0
 25 28  1  0
  9 29  2  0
  7 30  1  0
 30 31  1  0
 31 32  1  0
 32 33  1  0
 33 34  1  0
 33 35  1  0
 35 36  1  0
 29  2  1  0
 36 30  1  0
 29  6  1  0
 15 10  1  0
 24 19  1  0
  1 37  1  0
  1 38  1  0
  4 39  1  0
  5 40  1  0
 11 41  1  0
 12 42  1  0
 14 43  1  0
 15 44  1  0
 18 45  1  0
 20 46  1  0
 22 47  1  0
 23 48  1  0
 30 49  1  6
 31 50  1  0
 31 51  1  0
 32 52  1  0
 32 53  1  0
 33 54  1  1
 34 55  1  0
 35 56  1  0
 35 57  1  0
 36 58  1  0
 36 59  1  0
M  END
$$$$
[H]OC(=O)C([H])([H])C([H])([H])[C@@]([H])(C(=O)N([H])[C@]([H])(C(=O)O[H])C([H])([H])C([H])(C([H])([H])[H])C([H])([H])[H])N([H])C(=O)[C@@]([H])(N([H])C(=O)OC([H])([H])c1c([H])c([H])c([H])c([H])c1[H])C([H])(C([H])([H])[H])C([H])([H])[H]
     RDKit          3D

 70 70  0  0  0  0  0  0  0  0999 V2000
   -8.0552   -0.0865   -0.7021 C   0  0  0  0  0  0  0  0  0  0  0  0
   -6.8294    0.0189   -1.5642 C   0  0  0  0  0  0  0  0  0  0  0  0
   -7.2041   -0.6419   -2.9110 C   0  0  0  0  0  0  0  0  0  0  0  0
   -5.5775   -0.5341   -1.0417 C   0  0  0  0  0  0  0  0  0  0  0  0
   -4.9547   -0.0159    0.1969 C   0  0  2  0  0  0  0  0  0  0  0  0
   -3.7012   -0.7790    0.4451 N   0  0  0  0  0  0  0  0  0  0  0  0
   -2.4419   -0.1583    0.5396 C   0  0  0  0  0  0  0  0  0  0  0  0
   -2.3220    1.0826    0.4271 O   0  0  0  0  0  0  0  0  0  0  0  0
   -1.1864   -0.9609    0.7779 C   0  0  2  0  0  0  0  0  0  0  0  0
   -1.3888   -2.0868    1.7059 C   0  0  0  0  0  0  0  0  0  0  0  0
   -1.8494   -1.8588    3.0819 C   0  0  0  0  0  0  0  0  0  0  0  0
   -0.9911   -1.1471    4.0267 C   0  0  0  0  0  0  0  0  0  0  0  0
   -1.5728   -0.7265    5.2505 O   0  0  0  0  0  0  0  0  0  0  0  0
    0.2114   -0.8550    3.8968 O   0  0  0  0  0  0  0  0  0  0  0  0
   -0.0181   -0.1624    0.8480 N   0  0  0  0  0  0  0  0  0  0  0  0
    1.0504   -0.2046   -0.0815 C   0  0  0  0  0  0  0  0  0  0  0  0
    0.8473   -1.0600   -1.0332 O   0  0  0  0  0  0  0  0  0  0  0  0
    2.2807    0.5532   -0.1007 C   0  0  1  0  0  0  0  0  0  0  0  0
    3.0648    0.2461   -1.2626 N   0  0  0  0  0  0  0  0  0  0  0  0
    4.3241   -0.3942   -1.1764 C   0  0  0  0  0  0  0  0  0  0  0  0
    4.7673   -0.7056   -0.0201 O   0  0  0  0  0  0  0  0  0  0  0  0
    5.1166   -0.7101   -2.2379 O   0  0  0  0  0  0  0  0  0  0  0  0
    6.3608   -1.3328   -2.2329 C   0  0  0  0  0  0  0  0  0  0  0  0
    7.3441   -0.5079   -1.4629 C   0  0  0  0  0  0  0  0  0  0  0  0
    8.4781   -1.0781   -0.9298 C   0  0  0  0  0  0  0  0  0  0  0  0
    9.3710   -0.3064   -0.2389 C   0  0  0  0  0  0  0  0  0  0  0  0
    9.1680    1.0497   -0.0557 C   0  0  0  0  0  0  0  0  0  0  0  0
    8.0184    1.6060   -0.6010 C   0  0  0  0  0  0  0  0  0  0  0  0
    7.1201    0.8268   -1.2964 C   0  0  0  0  0  0  0  0  0  0  0  0
    2.1811    2.0515   -0.0115 C   0  0  0  0  0  0  0  0  0  0  0  0
    1.3756    2.6939   -1.0842 C   0  0  0  0  0  0  0  0  0  0  0  0
    1.8505    2.4727    1.3934 C   0  0  0  0  0  0  0  0  0  0  0  0
   -5.7535   -0.1525    1.4294 C   0  0  0  0  0  0  0  0  0  0  0  0
   -6.5785    0.8809    1.8363 O   0  0  0  0  0  0  0  0  0  0  0  0
   -5.7116   -1.2045    2.1567 O   0  0  0  0  0  0  0  0  0  0  0  0
   -7.8994   -0.8798    0.0557 H   0  0  0  0  0  0  0  0  0  0  0  0
   -8.9579   -0.4044   -1.3421 H   0  0  0  0  0  0  0  0  0  0  0  0
   -8.3936    0.8865   -0.3013 H   0  0  0  0  0  0  0  0  0  0  0  0
   -6.6802    1.1048   -1.8533 H   0  0  0  0  0  0  0  0  0  0  0  0
   -8.2780   -0.4306   -3.0581 H   0  0  0  0  0  0  0  0  0  0  0  0
   -6.9673   -1.7150   -2.8479 H   0  0  0  0  0  0  0  0  0  0  0  0
   -6.6748   -0.1719   -3.7469 H   0  0  0  0  0  0  0  0  0  0  0  0
   -4.8072   -0.4551   -1.8634 H   0  0  0  0  0  0  0  0  0  0  0  0
   -5.7211   -1.6601   -0.9562 H   0  0  0  0  0  0  0  0  0  0  0  0
   -4.6256    1.0254    0.0648 H   0  0  0  0  0  0  0  0  0  0  0  0
   -3.8240   -1.8003    0.5428 H   0  0  0  0  0  0  0  0  0  0  0  0
   -1.0778   -1.4937   -0.2657 H   0  0  0  0  0  0  0  0  0  0  0  0
   -0.3615   -2.5939    1.7977 H   0  0  0  0  0  0  0  0  0  0  0  0
   -2.0047   -2.8969    1.2207 H   0  0  0  0  0  0  0  0  0  0  0  0
   -1.9876   -2.8997    3.5412 H   0  0  0  0  0  0  0  0  0  0  0  0
   -2.9014   -1.4503    3.1333 H   0  0  0  0  0  0  0  0  0  0  0  0
   -1.9169    0.2150    5.3754 H   0  0  0  0  0  0  0  0  0  0  0  0
    0.0678    0.5301    1.6119 H   0  0  0  0  0  0  0  0  0  0  0  0
    2.8992    0.1684    0.7830 H   0  0  0  0  0  0  0  0  0  0  0  0
    2.7358    0.4867   -2.2386 H   0  0  0  0  0  0  0  0  0  0  0  0
    6.7502   -1.5899   -3.2161 H   0  0  0  0  0  0  0  0  0  0  0  0
    6.2960   -2.3107   -1.6689 H   0  0  0  0  0  0  0  0  0  0  0  0
    8.6338   -2.1395   -1.0736 H   0  0  0  0  0  0  0  0  0  0  0  0
   10.2861   -0.7128    0.2015 H   0  0  0  0  0  0  0  0  0  0  0  0
    9.8449    1.6838    0.4780 H   0  0  0  0  0  0  0  0  0  0  0  0
    7.8723    2.6853   -0.4465 H   0  0  0  0  0  0  0  0  0  0  0  0
    6.2437    1.3491   -1.6958 H   0  0  0  0  0  0  0  0  0  0  0  0
    3.2478    2.4738   -0.1694 H   0  0  0  0  0  0  0  0  0  0  0  0
    1.2798    2.0339   -1.9494 H   0  0  0  0  0  0  0  0  0  0  0  0
    1.8538    3.6554   -1.4066 H   0  0  0  0  0  0  0  0  0  0  0  0
    0.3744    3.0268   -0.6867 H   0  0  0  0  0  0  0  0  0  0  0  0
    2.4853    3.3330    1.7289 H   0  0  0  0  0  0  0  0  0  0  0  0
    2.0572    1.6765    2.1364 H   0  0  0  0  0  0  0  0  0  0  0  0
    0.7838    2.7706    1.5049 H   0  0  0  0  0  0  0  0  0  0  0  0
   -7.4270    0.6872    2.3308 H   0  0  0  0  0  0  0  0  0  0  0  0
  1  2  1  0
  2  3  1  0
  2  4  1  0
  4  5  1  0
  5  6  1  0
  6  7  1  0
  7  8  2  0
  7  9  1  0
  9 10  1  0
 10 11  1  0
 11 12  1  0
 12 13  1  0
 12 14  2  0
  9 15  1  0
 15 16  1  0
 16 17  2  0
 16 18  1  0
 18 19  1  0
 19 20  1  0
 20 21  2  0
 20 22  1  0
 22 23  1  0
 23 24  1  0
 24 25  2  0
 25 26  1  0
 26 27  2  0
 27 28  1  0
 28 29  2  0
 18 30  1  0
 30 31  1  0
 30 32  1  0
  5 33  1  0
 33 34  1  0
 33 35  2  0
 29 24  1  0
  1 36  1  0
  1 37  1  0
  1 38  1  0
  2 39  1  0
  3 40  1  0
  3 41  1  0
  3 42  1  0
  4 43  1  0
  4 44  1  0
  5 45  1  6
  6 46  1  0
  9 47  1  6
 10 48  1  0
 10 49  1  0
 11 50  1  0
 11 51  1  0
 13 52  1  0
 15 53  1  0
 18 54  1  1
 19 55  1  0
 23 56  1  0
 23 57  1  0
 25 58  1  0
 26 59  1  0
 27 60  1  0
 28 61  1  0
 29 62  1  0
 30 63  1  0
 31 64  1  0
 31 65  1  0
 31 66  1  0
 32 67  1  0
 32 68  1  0
 32 69  1  0
 34 70  1  0
M  END
$$$$
[H]c1nc(N([H])C(=O)c2c([H])c([H])c(C3([H])C([H])([H])C([H])([H])N(C([H])(C([H])([H])[H])C([H])([H])[H])C([H])([H])C3([H])[H])c([H])c2[H])c([H])c(Oc2c(OC([H])([H])[H])c([H])c3c(c2[H])c([H])c([H])n3C(=O)N([H])C([H])([H])[H])c1[H]
     RDKit          3D

 75 79  0  0  0  0  0  0  0  0999 V2000
   12.3420   -1.6616   -0.6990 C   0  0  0  0  0  0  0  0  0  0  0  0
   11.0401   -0.9362   -0.5579 N   0  0  0  0  0  0  0  0  0  0  0  0
   11.0533    0.2764    0.0965 C   0  0  0  0  0  0  0  0  0  0  0  0
   12.2367    0.6428    0.5200 O   0  0  0  0  0  0  0  0  0  0  0  0
   10.0081    1.1697    0.3769 N   0  0  0  0  0  0  0  0  0  0  0  0
   10.1891    2.3639    1.0526 C   0  0  0  0  0  0  0  0  0  0  0  0
    8.9902    3.0021    1.1598 C   0  0  0  0  0  0  0  0  0  0  0  0
    8.0411    2.2142    0.5513 C   0  0  0  0  0  0  0  0  0  0  0  0
    6.6879    2.3768    0.3707 C   0  0  0  0  0  0  0  0  0  0  0  0
    5.9325    1.4302   -0.2870 C   0  0  0  0  0  0  0  0  0  0  0  0
    4.5843    1.6220   -0.4550 O   0  0  0  0  0  0  0  0  0  0  0  0
    3.6664    0.7600    0.1162 C   0  0  0  0  0  0  0  0  0  0  0  0
    4.0199   -0.2194    1.0200 C   0  0  0  0  0  0  0  0  0  0  0  0
    3.0632   -1.0684    1.5723 C   0  0  0  0  0  0  0  0  0  0  0  0
    1.7788   -0.9189    1.2088 N   0  0  0  0  0  0  0  0  0  0  0  0
    1.4009    0.0310    0.3253 C   0  0  0  0  0  0  0  0  0  0  0  0
    0.0426    0.1890   -0.0504 N   0  0  0  0  0  0  0  0  0  0  0  0
   -0.9267   -0.6688    0.5472 C   0  0  0  0  0  0  0  0  0  0  0  0
   -0.6067   -1.5351    1.3856 O   0  0  0  0  0  0  0  0  0  0  0  0
   -2.3570   -0.5559    0.1890 C   0  0  0  0  0  0  0  0  0  0  0  0
   -2.7788    0.1208   -0.9348 C   0  0  0  0  0  0  0  0  0  0  0  0
   -4.1328    0.2007   -1.2109 C   0  0  0  0  0  0  0  0  0  0  0  0
   -5.1018   -0.3651   -0.4171 C   0  0  0  0  0  0  0  0  0  0  0  0
   -4.6456   -1.0388    0.7053 C   0  0  0  0  0  0  0  0  0  0  0  0
   -3.3103   -1.1384    1.0109 C   0  0  0  0  0  0  0  0  0  0  0  0
   -6.5148   -0.2302   -0.7985 C   0  0  0  0  0  0  0  0  0  0  0  0
   -7.2465    0.7776    0.0689 C   0  0  0  0  0  0  0  0  0  0  0  0
   -8.1890    0.1177    1.0458 C   0  0  0  0  0  0  0  0  0  0  0  0
   -9.2506   -0.5261    0.3378 N   0  0  0  0  0  0  0  0  0  0  0  0
   -8.7525   -1.2128   -0.8531 C   0  0  0  0  0  0  0  0  0  0  0  0
   -7.2729   -1.5180   -0.7413 C   0  0  0  0  0  0  0  0  0  0  0  0
  -10.2698    0.3917   -0.1220 C   0  0  0  0  0  0  0  0  0  0  0  0
  -11.4261   -0.3845   -0.7075 C   0  0  0  0  0  0  0  0  0  0  0  0
  -10.7430    1.3572    0.9090 C   0  0  0  0  0  0  0  0  0  0  0  0
    2.3210    0.8854   -0.2377 C   0  0  0  0  0  0  0  0  0  0  0  0
    6.5866    0.3153   -0.7558 C   0  0  0  0  0  0  0  0  0  0  0  0
    5.8477   -0.6466   -1.4200 O   0  0  0  0  0  0  0  0  0  0  0  0
    6.4380   -1.8280   -1.9372 C   0  0  0  0  0  0  0  0  0  0  0  0
    7.9409    0.1364   -0.5836 C   0  0  0  0  0  0  0  0  0  0  0  0
    8.7089    1.0739    0.0712 C   0  0  0  0  0  0  0  0  0  0  0  0
   12.3360   -2.4201    0.0945 H   0  0  0  0  0  0  0  0  0  0  0  0
   13.1788   -0.9547   -0.5316 H   0  0  0  0  0  0  0  0  0  0  0  0
   12.4475   -2.0475   -1.7202 H   0  0  0  0  0  0  0  0  0  0  0  0
   10.2571   -1.4370   -0.9773 H   0  0  0  0  0  0  0  0  0  0  0  0
   11.1188    2.7352    1.4334 H   0  0  0  0  0  0  0  0  0  0  0  0
    8.7709    3.9673    1.6354 H   0  0  0  0  0  0  0  0  0  0  0  0
    6.2185    3.2692    0.7552 H   0  0  0  0  0  0  0  0  0  0  0  0
    5.0637   -0.3453    1.3269 H   0  0  0  0  0  0  0  0  0  0  0  0
    3.3912   -1.8225    2.2814 H   0  0  0  0  0  0  0  0  0  0  0  0
   -0.2219    0.9157   -0.7517 H   0  0  0  0  0  0  0  0  0  0  0  0
   -2.0332    0.5762   -1.5816 H   0  0  0  0  0  0  0  0  0  0  0  0
   -4.4139    0.7518   -2.1239 H   0  0  0  0  0  0  0  0  0  0  0  0
   -5.3952   -1.4900    1.3392 H   0  0  0  0  0  0  0  0  0  0  0  0
   -2.9818   -1.6759    1.9022 H   0  0  0  0  0  0  0  0  0  0  0  0
   -6.5654    0.1698   -1.8351 H   0  0  0  0  0  0  0  0  0  0  0  0
   -7.8695    1.4404   -0.5630 H   0  0  0  0  0  0  0  0  0  0  0  0
   -6.5219    1.4600    0.5834 H   0  0  0  0  0  0  0  0  0  0  0  0
   -7.6359   -0.6646    1.6411 H   0  0  0  0  0  0  0  0  0  0  0  0
   -8.5562    0.8962    1.7498 H   0  0  0  0  0  0  0  0  0  0  0  0
   -8.9864   -0.6603   -1.7804 H   0  0  0  0  0  0  0  0  0  0  0  0
   -9.2729   -2.2156   -0.8505 H   0  0  0  0  0  0  0  0  0  0  0  0
   -7.0016   -2.1259   -1.6230 H   0  0  0  0  0  0  0  0  0  0  0  0
   -7.1444   -2.0564    0.2191 H   0  0  0  0  0  0  0  0  0  0  0  0
   -9.8174    0.9659   -0.9589 H   0  0  0  0  0  0  0  0  0  0  0  0
  -12.0470   -0.8652    0.0870 H   0  0  0  0  0  0  0  0  0  0  0  0
  -12.0948    0.3153   -1.2389 H   0  0  0  0  0  0  0  0  0  0  0  0
  -11.0347   -1.1171   -1.4299 H   0  0  0  0  0  0  0  0  0  0  0  0
  -11.0442    0.8201    1.8187 H   0  0  0  0  0  0  0  0  0  0  0  0
  -10.0163    2.1747    1.0915 H   0  0  0  0  0  0  0  0  0  0  0  0
  -11.6667    1.8481    0.4998 H   0  0  0  0  0  0  0  0  0  0  0  0
    2.0198    1.6455   -0.9441 H   0  0  0  0  0  0  0  0  0  0  0  0
    6.9737   -2.3129   -1.0731 H   0  0  0  0  0  0  0  0  0  0  0  0
    7.1509   -1.4982   -2.7198 H   0  0  0  0  0  0  0  0  0  0  0  0
    5.6430   -2.4875   -2.3345 H   0  0  0  0  0  0  0  0  0  0  0  0
    8.3566   -0.7568   -0.9798 H   0  0  0  0  0  0  0  0  0  0  0  0
  1  2  1  0
  2  3  1  0
  3  4  2  0
  3  5  1  0
  5  6  1  0
  6  7  2  0
  7  8  1  0
  8  9  2  0
  9 10  1  0
 10 11  1  0
 11 12  1  0
 12 13  2  0
 13 14  1  0
 14 15  2  0
 15 16  1  0
 16 17  1  0
 17 18  1  0
 18 19  2  0
 18 20  1  0
 20 21  2  0
 21 22  1  0
 22 23  2  0
 23 24  1  0
 24 25  2  0
 23 26  1  0
 26 27  1  0
 27 28  1  0
 28 29  1  0
 29 30  1  0
 30 31  1  0
 29 32  1  0
 32 33  1  0
 32 34  1  0
 16 35  2  0
 10 36  2  0
 36 37  1  0
 37 38  1  0
 36 39  1  0
 39 40  2  0
 40  5  1  0
 40  8  1  0
 35 12  1  0
 25 20  1  0
 31 26  1  0
  1 41  1  0
  1 42  1  0
  1 43  1  0
  2 44  1  0
  6 45  1  0
  7 46  1  0
  9 47  1  0
 13 48  1  0
 14 49  1  0
 17 50  1  0
 21 51  1  0
 22 52  1  0
 24 53  1  0
 25 54  1  0
 26 55  1  0
 27 56  1  0
 27 57  1  0
 28 58  1  0
 28 59  1  0
 30 60  1  0
 30 61  1  0
 31 62  1  0
 31 63  1  0
 32 64  1  0
 33 65  1  0
 33 66  1  0
 33 67  1  0
 34 68  1  0
 34 69  1  0
 34 70  1  0
 35 71  1  0
 38 72  1  0
 38 73  1  0
 38 74  1  0
 39 75  1  0
M  END
$$$$
[H]c1c(N2C([H])([H])C([H])([H])N(C([H])([H])[H])C([H])([H])C2([H])[H])c([H])c2c(nc(-c3c(N([H])[H])c4c(F)c([H])c([H])c([H])c4n([H])c3=O)n2[H])c1[H]
     RDKit          3D

 50 54  0  0  0  0  0  0  0  0999 V2000
   -7.5542    1.1250   -0.4011 C   0  0  0  0  0  0  0  0  0  0  0  0
   -6.7242   -0.0513   -0.2669 N   0  0  0  0  0  0  0  0  0  0  0  0
   -6.0477   -0.3472   -1.4926 C   0  0  0  0  0  0  0  0  0  0  0  0
   -4.7812   -1.1740   -1.2919 C   0  0  0  0  0  0  0  0  0  0  0  0
   -3.8987   -0.4052   -0.4548 N   0  0  0  0  0  0  0  0  0  0  0  0
   -4.5079    0.5628    0.4318 C   0  0  0  0  0  0  0  0  0  0  0  0
   -5.8592    0.0371    0.8700 C   0  0  0  0  0  0  0  0  0  0  0  0
   -2.4961   -0.6156   -0.5175 C   0  0  0  0  0  0  0  0  0  0  0  0
   -1.9852   -1.6372   -1.2888 C   0  0  0  0  0  0  0  0  0  0  0  0
   -0.6096   -1.8531   -1.3639 C   0  0  0  0  0  0  0  0  0  0  0  0
    0.2879   -1.0622   -0.6769 C   0  0  0  0  0  0  0  0  0  0  0  0
    1.6243   -1.0284   -0.5574 N   0  0  0  0  0  0  0  0  0  0  0  0
    1.9819   -0.0013    0.2787 C   0  0  0  0  0  0  0  0  0  0  0  0
    0.8585    0.5809    0.6605 N   0  0  0  0  0  0  0  0  0  0  0  0
   -0.2177   -0.0409    0.0947 C   0  0  0  0  0  0  0  0  0  0  0  0
   -1.5796    0.1642    0.1620 C   0  0  0  0  0  0  0  0  0  0  0  0
    3.3521    0.3314    0.6366 C   0  0  0  0  0  0  0  0  0  0  0  0
    4.4028   -0.4233    0.1135 C   0  0  0  0  0  0  0  0  0  0  0  0
    4.0915   -1.4981   -0.7568 N   0  0  0  0  0  0  0  0  0  0  0  0
    5.7279   -0.1909    0.3891 C   0  0  0  0  0  0  0  0  0  0  0  0
    6.7501   -0.9547   -0.1431 C   0  0  0  0  0  0  0  0  0  0  0  0
    6.4362   -1.9781   -0.9731 F   0  0  0  0  0  0  0  0  0  0  0  0
    8.0761   -0.7077    0.1440 C   0  0  0  0  0  0  0  0  0  0  0  0
    8.3653    0.3409    0.9920 C   0  0  0  0  0  0  0  0  0  0  0  0
    7.3431    1.1047    1.5243 C   0  0  0  0  0  0  0  0  0  0  0  0
    6.0177    0.8672    1.2447 C   0  0  0  0  0  0  0  0  0  0  0  0
    5.0206    1.6057    1.7587 N   0  0  0  0  0  0  0  0  0  0  0  0
    3.7172    1.3537    1.4693 C   0  0  0  0  0  0  0  0  0  0  0  0
    2.8682    2.0960    1.9965 O   0  0  0  0  0  0  0  0  0  0  0  0
   -7.8545    1.1935   -1.4715 H   0  0  0  0  0  0  0  0  0  0  0  0
   -7.0355    2.0591   -0.1227 H   0  0  0  0  0  0  0  0  0  0  0  0
   -8.4766    1.0461    0.2395 H   0  0  0  0  0  0  0  0  0  0  0  0
   -5.7342    0.6158   -1.9542 H   0  0  0  0  0  0  0  0  0  0  0  0
   -6.7133   -0.9227   -2.1549 H   0  0  0  0  0  0  0  0  0  0  0  0
   -4.3701   -1.3425   -2.3097 H   0  0  0  0  0  0  0  0  0  0  0  0
   -5.0409   -2.1137   -0.7744 H   0  0  0  0  0  0  0  0  0  0  0  0
   -3.8793    0.6548    1.3662 H   0  0  0  0  0  0  0  0  0  0  0  0
   -4.5594    1.5560   -0.0194 H   0  0  0  0  0  0  0  0  0  0  0  0
   -6.2616    0.7622    1.6129 H   0  0  0  0  0  0  0  0  0  0  0  0
   -5.6675   -0.9630    1.3290 H   0  0  0  0  0  0  0  0  0  0  0  0
   -2.6487   -2.2964   -1.8533 H   0  0  0  0  0  0  0  0  0  0  0  0
   -0.2378   -2.6569   -1.9729 H   0  0  0  0  0  0  0  0  0  0  0  0
    0.7361    1.3862    1.2881 H   0  0  0  0  0  0  0  0  0  0  0  0
   -1.9771    0.9716    0.7699 H   0  0  0  0  0  0  0  0  0  0  0  0
    3.9955   -1.4248   -1.7836 H   0  0  0  0  0  0  0  0  0  0  0  0
    3.9483   -2.4373   -0.3228 H   0  0  0  0  0  0  0  0  0  0  0  0
    8.8894   -1.3071   -0.2729 H   0  0  0  0  0  0  0  0  0  0  0  0
    9.4092    0.5505    1.2300 H   0  0  0  0  0  0  0  0  0  0  0  0
    7.5504    1.9413    2.1993 H   0  0  0  0  0  0  0  0  0  0  0  0
    5.2674    2.3910    2.3960 H   0  0  0  0  0  0  0  0  0  0  0  0
  1  2  1  0
  2  3  1  0
  3  4  1  0
  4  5  1  0
  5  6  1  0
  6  7  1  0
  5  8  1  0
  8  9  2  0
  9 10  1  0
 10 11  2  0
 11 12  1  0
 12 13  2  0
 13 14  1  0
 14 15  1  0
 15 16  2  0
 13 17  1  0
 17 18  2  0
 18 19  1  0
 18 20  1  0
 20 21  2  0
 21 22  1  0
 21 23  1  0
 23 24  2  0
 24 25  1  0
 25 26  2  0
 26 27  1  0
 27 28  1  0
 28 29  2  0
  7  2  1  0
 16  8  1  0
 28 17  1  0
 15 11  1  0
 26 20  1  0
  1 30  1  0
  1 31  1  0
  1 32  1  0
  3 33  1  0
  3 34  1  0
  4 35  1  0
  4 36  1  0
  6 37  1  0
  6 38  1  0
  7 39  1  0
  7 40  1  0
  9 41  1  0
 10 42  1  0
 14 43  1  0
 16 44  1  0
 19 45  1  0
 19 46  1  0
 23 47  1  0
 24 48  1  0
 25 49  1  0
 27 50  1  0
M  END
$$$$
[H]c1nc(N([H])c2c([H])c([H])c(N3C([H])([H])C([H])([H])C([H])(N4C([H])([H])C([H])([H])C([H])([H])C([H])([H])C4([H])[H])C([H])([H])C3([H])[H])c([H])c2OC([H])([H])[H])nc(N([H])c2c([H])c([H])c([H])c([H])c2S(=O)(=O)C([H])(C([H])([H])[H])C([H])([H])[H])c1Cl
     RDKit          3D

 80 84  0  0  0  0  0  0  0  0999 V2000
    0.6013    3.2247   -1.7319 C   0  0  0  0  0  0  0  0  0  0  0  0
   -0.1703    2.1434   -1.2168 O   0  0  0  0  0  0  0  0  0  0  0  0
    0.4716    1.0979   -0.5363 C   0  0  0  0  0  0  0  0  0  0  0  0
    1.8317    1.1416   -0.3822 C   0  0  0  0  0  0  0  0  0  0  0  0
    2.4759    0.1361    0.2756 C   0  0  0  0  0  0  0  0  0  0  0  0
    1.7236   -0.9023    0.7694 C   0  0  0  0  0  0  0  0  0  0  0  0
    0.3423   -0.9295    0.6031 C   0  0  0  0  0  0  0  0  0  0  0  0
   -0.3385    0.0691   -0.0573 C   0  0  0  0  0  0  0  0  0  0  0  0
   -1.7239    0.1236   -0.2735 N   0  0  0  0  0  0  0  0  0  0  0  0
   -2.6985   -0.8425    0.0627 C   0  0  0  0  0  0  0  0  0  0  0  0
   -2.4949   -2.0067    0.6583 N   0  0  0  0  0  0  0  0  0  0  0  0
   -3.5059   -2.8405    0.8915 C   0  0  0  0  0  0  0  0  0  0  0  0
   -4.8046   -2.5651    0.5417 C   0  0  0  0  0  0  0  0  0  0  0  0
   -6.1108   -3.6867    0.8595 Cl  0  0  0  0  0  0  0  0  0  0  0  0
   -5.0484   -1.3249   -0.0961 C   0  0  0  0  0  0  0  0  0  0  0  0
   -6.3685   -1.0114   -0.4714 N   0  0  0  0  0  0  0  0  0  0  0  0
   -6.8022    0.1565   -1.1088 C   0  0  0  0  0  0  0  0  0  0  0  0
   -5.9491    1.0828   -1.6893 C   0  0  0  0  0  0  0  0  0  0  0  0
   -6.3900    2.1983   -2.4109 C   0  0  0  0  0  0  0  0  0  0  0  0
   -7.7335    2.3953   -2.5575 C   0  0  0  0  0  0  0  0  0  0  0  0
   -8.5936    1.4953   -1.9910 C   0  0  0  0  0  0  0  0  0  0  0  0
   -8.1816    0.3629   -1.2577 C   0  0  0  0  0  0  0  0  0  0  0  0
   -9.3740   -0.6276   -0.5141 S   0  0  0  0  0  0  0  0  0  0  0  0
  -10.7237   -0.2577   -1.1916 O   0  0  0  0  0  0  0  0  0  0  0  0
   -9.2561   -2.1069   -0.8840 O   0  0  0  0  0  0  0  0  0  0  0  0
   -9.6494   -0.3712    1.1908 C   0  0  0  0  0  0  0  0  0  0  0  0
   -8.4334   -0.4229    2.0221 C   0  0  0  0  0  0  0  0  0  0  0  0
  -10.3964    0.9743    1.3961 C   0  0  0  0  0  0  0  0  0  0  0  0
   -3.9714   -0.5703   -0.2798 N   0  0  0  0  0  0  0  0  0  0  0  0
    3.9226    0.1616    0.4309 N   0  0  0  0  0  0  0  0  0  0  0  0
    4.4480   -0.7731    1.3637 C   0  0  0  0  0  0  0  0  0  0  0  0
    5.9195   -0.5967    1.5235 C   0  0  0  0  0  0  0  0  0  0  0  0
    6.5963   -0.4499    0.1589 C   0  0  0  0  0  0  0  0  0  0  0  0
    6.1843    0.8778   -0.3697 C   0  0  0  0  0  0  0  0  0  0  0  0
    4.7084    1.0728   -0.3306 C   0  0  0  0  0  0  0  0  0  0  0  0
    7.9829   -0.6311    0.3103 N   0  0  0  0  0  0  0  0  0  0  0  0
    8.4779   -1.8796    0.7468 C   0  0  0  0  0  0  0  0  0  0  0  0
    9.4768   -1.5829    1.8770 C   0  0  0  0  0  0  0  0  0  0  0  0
   10.1723   -0.2767    1.5357 C   0  0  0  0  0  0  0  0  0  0  0  0
   10.2603   -0.0404    0.0409 C   0  0  0  0  0  0  0  0  0  0  0  0
    8.8534    0.0879   -0.5662 C   0  0  0  0  0  0  0  0  0  0  0  0
    1.4356    2.8184   -2.3761 H   0  0  0  0  0  0  0  0  0  0  0  0
   -0.0267    3.8893   -2.3265 H   0  0  0  0  0  0  0  0  0  0  0  0
    1.0819    3.6972   -0.8521 H   0  0  0  0  0  0  0  0  0  0  0  0
    2.4137    1.9627   -0.7759 H   0  0  0  0  0  0  0  0  0  0  0  0
    2.2232   -1.7257    1.3036 H   0  0  0  0  0  0  0  0  0  0  0  0
   -0.1658   -1.7773    1.0259 H   0  0  0  0  0  0  0  0  0  0  0  0
   -2.0674    1.0225   -0.7512 H   0  0  0  0  0  0  0  0  0  0  0  0
   -3.3537   -3.8121    1.3855 H   0  0  0  0  0  0  0  0  0  0  0  0
   -7.0711   -1.7919   -0.2514 H   0  0  0  0  0  0  0  0  0  0  0  0
   -4.8765    0.9774   -1.6198 H   0  0  0  0  0  0  0  0  0  0  0  0
   -5.6613    2.8759   -2.8345 H   0  0  0  0  0  0  0  0  0  0  0  0
   -8.0840    3.2536   -3.1153 H   0  0  0  0  0  0  0  0  0  0  0  0
   -9.6741    1.6641   -2.1153 H   0  0  0  0  0  0  0  0  0  0  0  0
  -10.4053   -1.1075    1.6127 H   0  0  0  0  0  0  0  0  0  0  0  0
   -7.9976   -1.4290    2.0169 H   0  0  0  0  0  0  0  0  0  0  0  0
   -8.7480   -0.2405    3.0980 H   0  0  0  0  0  0  0  0  0  0  0  0
   -7.6961    0.3805    1.8033 H   0  0  0  0  0  0  0  0  0  0  0  0
  -11.4588    0.8727    1.1040 H   0  0  0  0  0  0  0  0  0  0  0  0
  -10.3343    1.2032    2.4601 H   0  0  0  0  0  0  0  0  0  0  0  0
   -9.9581    1.7377    0.7281 H   0  0  0  0  0  0  0  0  0  0  0  0
    3.9834   -0.6899    2.3752 H   0  0  0  0  0  0  0  0  0  0  0  0
    4.2845   -1.8036    0.9591 H   0  0  0  0  0  0  0  0  0  0  0  0
    6.3932   -1.4533    2.0291 H   0  0  0  0  0  0  0  0  0  0  0  0
    6.1856    0.3487    2.0709 H   0  0  0  0  0  0  0  0  0  0  0  0
    6.1034   -1.2402   -0.4831 H   0  0  0  0  0  0  0  0  0  0  0  0
    6.5817    1.0701   -1.3957 H   0  0  0  0  0  0  0  0  0  0  0  0
    6.6592    1.6515    0.2890 H   0  0  0  0  0  0  0  0  0  0  0  0
    4.2809    1.1505   -1.3782 H   0  0  0  0  0  0  0  0  0  0  0  0
    4.4611    2.1089    0.0863 H   0  0  0  0  0  0  0  0  0  0  0  0
    9.0771   -2.4059   -0.0426 H   0  0  0  0  0  0  0  0  0  0  0  0
    7.6906   -2.5655    1.0422 H   0  0  0  0  0  0  0  0  0  0  0  0
    8.8760   -1.4814    2.7991 H   0  0  0  0  0  0  0  0  0  0  0  0
   10.1889   -2.4073    2.0280 H   0  0  0  0  0  0  0  0  0  0  0  0
    9.5286    0.5385    1.9476 H   0  0  0  0  0  0  0  0  0  0  0  0
   11.1971   -0.2469    1.9436 H   0  0  0  0  0  0  0  0  0  0  0  0
   10.8182   -0.8682   -0.4032 H   0  0  0  0  0  0  0  0  0  0  0  0
   10.8333    0.9179   -0.0753 H   0  0  0  0  0  0  0  0  0  0  0  0
    8.9256   -0.3562   -1.5800 H   0  0  0  0  0  0  0  0  0  0  0  0
    8.6260    1.1557   -0.5846 H   0  0  0  0  0  0  0  0  0  0  0  0
  1  2  1  0
  2  3  1  0
  3  4  2  0
  4  5  1  0
  5  6  2  0
  6  7  1  0
  7  8  2  0
  8  9  1  0
  9 10  1  0
 10 11  2  0
 11 12  1  0
 12 13  2  0
 13 14  1  0
 13 15  1  0
 15 16  1  0
 16 17  1  0
 17 18  2  0
 18 19  1  0
 19 20  2  0
 20 21  1  0
 21 22  2  0
 22 23  1  0
 23 24  2  0
 23 25  2  0
 23 26  1  0
 26 27  1  0
 26 28  1  0
 15 29  2  0
  5 30  1  0
 30 31  1  0
 31 32  1  0
 32 33  1  0
 33 34  1  0
 34 35  1  0
 33 36  1  0
 36 37  1  0
 37 38  1  0
 38 39  1  0
 39 40  1  0
 40 41  1  0
  8  3  1  0
 29 10  1  0
 35 30  1  0
 41 36  1  0
 22 17  1  0
  1 42  1  0
  1 43  1  0
  1 44  1  0
  4 45  1  0
  6 46  1  0
  7 47  1  0
  9 48  1  0
 12 49  1  0
 16 50  1  0
 18 51  1  0
 19 52  1  0
 20 53  1  0
 21 54  1  0
 26 55  1  0
 27 56  1  0
 27 57  1  0
 27 58  1  0
 28 59  1  0
 28 60  1  0
 28 61  1  0
 31 62  1  0
 31 63  1  0
 32 64  1  0
 32 65  1  0
 33 66  1  0
 34 67  1  0
 34 68  1  0
 35 69  1  0
 35 70  1  0
 37 71  1  0
 37 72  1  0
 38 73  1  0
 38 74  1  0
 39 75  1  0
 39 76  1  0
 40 77  1  0
 40 78  1  0
 41 79  1  0
 41 80  1  0
M  END
$$$$
[H]c1c([H])c([H])c2c(c1[H])C(N1C([H])([H])C([H])([H])N(C([H])([H])[H])C([H])([H])C1([H])[H])=Nc1c([H])c(Cl)c([H])c([H])c1N2N([H])C(=O)c1c([H])c([H])c(S(=O)(=O)C([H])([H])[H])c([H])c1[H]
     RDKit          3D

 62 66  0  0  0  0  0  0  0  0999 V2000
   -6.8473    1.8433    1.1001 C   0  0  0  0  0  0  0  0  0  0  0  0
   -6.6811    0.4308    0.9794 N   0  0  0  0  0  0  0  0  0  0  0  0
   -5.8225   -0.1618    1.9417 C   0  0  0  0  0  0  0  0  0  0  0  0
   -4.5231   -0.6904    1.4713 C   0  0  0  0  0  0  0  0  0  0  0  0
   -4.1693   -0.4561    0.1166 N   0  0  0  0  0  0  0  0  0  0  0  0
   -5.1607   -0.1029   -0.8639 C   0  0  0  0  0  0  0  0  0  0  0  0
   -6.5585   -0.0771   -0.3441 C   0  0  0  0  0  0  0  0  0  0  0  0
   -2.8226   -0.5840   -0.3149 C   0  0  0  0  0  0  0  0  0  0  0  0
   -2.4603   -1.7070   -0.8277 N   0  0  0  0  0  0  0  0  0  0  0  0
   -1.2548   -2.2263   -1.3613 C   0  0  0  0  0  0  0  0  0  0  0  0
   -1.3825   -3.4805   -1.9172 C   0  0  0  0  0  0  0  0  0  0  0  0
   -0.3146   -4.1278   -2.4750 C   0  0  0  0  0  0  0  0  0  0  0  0
   -0.4825   -5.7404   -3.1890 Cl  0  0  0  0  0  0  0  0  0  0  0  0
    0.9098   -3.4861   -2.4673 C   0  0  0  0  0  0  0  0  0  0  0  0
    1.0433   -2.2348   -1.9140 C   0  0  0  0  0  0  0  0  0  0  0  0
   -0.0238   -1.5701   -1.3484 C   0  0  0  0  0  0  0  0  0  0  0  0
    0.3057   -0.2935   -0.8319 N   0  0  0  0  0  0  0  0  0  0  0  0
    1.6708    0.0261   -0.7860 N   0  0  0  0  0  0  0  0  0  0  0  0
    2.4454   -0.1595    0.3910 C   0  0  0  0  0  0  0  0  0  0  0  0
    1.8764   -0.6283    1.4258 O   0  0  0  0  0  0  0  0  0  0  0  0
    3.8555    0.1841    0.3962 C   0  0  0  0  0  0  0  0  0  0  0  0
    4.4967    0.6248   -0.7315 C   0  0  0  0  0  0  0  0  0  0  0  0
    5.8584    0.9535   -0.7044 C   0  0  0  0  0  0  0  0  0  0  0  0
    6.5804    0.8389    0.4624 C   0  0  0  0  0  0  0  0  0  0  0  0
    5.9512    0.3961    1.6103 C   0  0  0  0  0  0  0  0  0  0  0  0
    4.6291    0.0847    1.5534 C   0  0  0  0  0  0  0  0  0  0  0  0
    8.2817    1.2366    0.5505 S   0  0  0  0  0  0  0  0  0  0  0  0
    9.2444   -0.2009    0.1938 C   0  0  0  0  0  0  0  0  0  0  0  0
    8.6241    2.3074   -0.4342 O   0  0  0  0  0  0  0  0  0  0  0  0
    8.6336    1.7483    1.9256 O   0  0  0  0  0  0  0  0  0  0  0  0
   -0.6062    0.6856   -0.3620 C   0  0  0  0  0  0  0  0  0  0  0  0
   -0.0209    1.9050   -0.1110 C   0  0  0  0  0  0  0  0  0  0  0  0
   -0.7091    3.0057    0.3497 C   0  0  0  0  0  0  0  0  0  0  0  0
   -2.0652    2.9109    0.5823 C   0  0  0  0  0  0  0  0  0  0  0  0
   -2.6684    1.6957    0.3359 C   0  0  0  0  0  0  0  0  0  0  0  0
   -1.9886    0.5908   -0.1244 C   0  0  0  0  0  0  0  0  0  0  0  0
   -5.9276    2.4351    1.0048 H   0  0  0  0  0  0  0  0  0  0  0  0
   -7.2837    2.0460    2.1061 H   0  0  0  0  0  0  0  0  0  0  0  0
   -7.6045    2.1959    0.3706 H   0  0  0  0  0  0  0  0  0  0  0  0
   -6.3956   -0.9587    2.4743 H   0  0  0  0  0  0  0  0  0  0  0  0
   -5.6597    0.6208    2.7448 H   0  0  0  0  0  0  0  0  0  0  0  0
   -4.4366   -1.7729    1.7537 H   0  0  0  0  0  0  0  0  0  0  0  0
   -3.7034   -0.2099    2.0937 H   0  0  0  0  0  0  0  0  0  0  0  0
   -5.1240   -0.8644   -1.7029 H   0  0  0  0  0  0  0  0  0  0  0  0
   -4.8888    0.8541   -1.3837 H   0  0  0  0  0  0  0  0  0  0  0  0
   -7.0416   -1.0786   -0.4096 H   0  0  0  0  0  0  0  0  0  0  0  0
   -7.1493    0.5902   -1.0261 H   0  0  0  0  0  0  0  0  0  0  0  0
   -2.3370   -3.9857   -1.9252 H   0  0  0  0  0  0  0  0  0  0  0  0
    1.7661   -4.0061   -2.9152 H   0  0  0  0  0  0  0  0  0  0  0  0
    2.0169   -1.7697   -1.9285 H   0  0  0  0  0  0  0  0  0  0  0  0
    2.0574    0.4047   -1.6747 H   0  0  0  0  0  0  0  0  0  0  0  0
    4.0137    0.7440   -1.6869 H   0  0  0  0  0  0  0  0  0  0  0  0
    6.3476    1.3005   -1.6098 H   0  0  0  0  0  0  0  0  0  0  0  0
    6.5480    0.3122    2.5310 H   0  0  0  0  0  0  0  0  0  0  0  0
    4.1209   -0.2615    2.4357 H   0  0  0  0  0  0  0  0  0  0  0  0
    9.2826   -0.8170    1.1332 H   0  0  0  0  0  0  0  0  0  0  0  0
   10.2858    0.0758   -0.0657 H   0  0  0  0  0  0  0  0  0  0  0  0
    8.8311   -0.7734   -0.6593 H   0  0  0  0  0  0  0  0  0  0  0  0
    1.0376    2.0068   -0.2852 H   0  0  0  0  0  0  0  0  0  0  0  0
   -0.2248    3.9571    0.5407 H   0  0  0  0  0  0  0  0  0  0  0  0
   -2.6500    3.7594    0.9474 H   0  0  0  0  0  0  0  0  0  0  0  0
   -3.7256    1.6542    0.5266 H   0  0  0  0  0  0  0  0  0  0  0  0
  1  2  1  0
  2  3  1  0
  3  4  1  0
  4  5  1  0
  5  6  1  0
  6  7  1  0
  5  8  1  0
  8  9  2  0
  9 10  1  0
 10 11  2  0
 11 12  1  0
 12 13  1  0
 12 14  2  0
 14 15  1  0
 15 16  2  0
 16 17  1  0
 17 18  1  0
 18 19  1  0
 19 20  2  0
 19 21  1  0
 21 22  2  0
 22 23  1  0
 23 24  2  0
 24 25  1  0
 25 26  2  0
 24 27  1  0
 27 28  1  0
 27 29  2  0
 27 30  2  0
 17 31  1  0
 31 32  2  0
 32 33  1  0
 33 34  2  0
 34 35  1  0
 35 36  2  0
  7  2  1  0
 36  8  1  0
 16 10  1  0
 26 21  1  0
 36 31  1  0
  1 37  1  0
  1 38  1  0
  1 39  1  0
  3 40  1  0
  3 41  1  0
  4 42  1  0
  4 43  1  0
  6 44  1  0
  6 45  1  0
  7 46  1  0
  7 47  1  0
 11 48  1  0
 14 49  1  0
 15 50  1  0
 18 51  1  0
 22 52  1  0
 23 53  1  0
 25 54  1  0
 26 55  1  0
 28 56  1  0
 28 57  1  0
 28 58  1  0
 32 59  1  0
 33 60  1  0
 34 61  1  0
 35 62  1  0
M  END
$$$$
[H]N([H])C(=NC([H])([H])C([H])([H])C([H])([H])[C@@]1([H])N=C(N([H])[H])N(C2([H])C([H])([H])C([H])([H])C([H])([H])C([H])([H])C2([H])[H])C1=O)N([H])[H]
     RDKit          3D

 44 45  0  0  0  0  0  0  0  0999 V2000
    6.2294    0.0700   -0.1302 N   0  0  0  0  0  0  0  0  0  0  0  0
    5.4648    1.2640   -0.1362 C   0  0  0  0  0  0  0  0  0  0  0  0
    6.1620    2.4910   -0.0398 N   0  0  0  0  0  0  0  0  0  0  0  0
    4.1946    1.2892   -0.2229 N   0  0  0  0  0  0  0  0  0  0  0  0
    3.4436    0.0746   -0.3225 C   0  0  0  0  0  0  0  0  0  0  0  0
    2.5676   -0.0605    0.9037 C   0  0  0  0  0  0  0  0  0  0  0  0
    1.7478   -1.3032    0.8824 C   0  0  0  0  0  0  0  0  0  0  0  0
    0.8108   -1.4189   -0.2789 C   0  0  1  0  0  0  0  0  0  0  0  0
    0.0808   -2.6503   -0.1900 N   0  0  0  0  0  0  0  0  0  0  0  0
   -1.1681   -2.4625   -0.0823 C   0  0  0  0  0  0  0  0  0  0  0  0
   -2.1307   -3.5208    0.0241 N   0  0  0  0  0  0  0  0  0  0  0  0
   -1.4871   -1.0768   -0.0814 N   0  0  0  0  0  0  0  0  0  0  0  0
   -2.8264   -0.5015    0.0267 C   0  0  0  0  0  0  0  0  0  0  0  0
   -3.1832    0.2714   -1.2269 C   0  0  0  0  0  0  0  0  0  0  0  0
   -4.6311    0.7366   -1.0335 C   0  0  0  0  0  0  0  0  0  0  0  0
   -4.6999    1.7748    0.0778 C   0  0  0  0  0  0  0  0  0  0  0  0
   -3.4274    1.7673    0.8691 C   0  0  0  0  0  0  0  0  0  0  0  0
   -2.9733    0.3799    1.2328 C   0  0  0  0  0  0  0  0  0  0  0  0
   -0.2523   -0.3889   -0.2054 C   0  0  0  0  0  0  0  0  0  0  0  0
   -0.1293    0.8617   -0.2422 O   0  0  0  0  0  0  0  0  0  0  0  0
    6.3389   -0.4620    0.7559 H   0  0  0  0  0  0  0  0  0  0  0  0
    6.6732   -0.2743   -0.9824 H   0  0  0  0  0  0  0  0  0  0  0  0
    6.6732    2.7580    0.8211 H   0  0  0  0  0  0  0  0  0  0  0  0
    6.1628    3.1392   -0.8477 H   0  0  0  0  0  0  0  0  0  0  0  0
    2.8394    0.1212   -1.2584 H   0  0  0  0  0  0  0  0  0  0  0  0
    4.1241   -0.7903   -0.3533 H   0  0  0  0  0  0  0  0  0  0  0  0
    1.9592    0.8366    1.0601 H   0  0  0  0  0  0  0  0  0  0  0  0
    3.2576   -0.1342    1.7773 H   0  0  0  0  0  0  0  0  0  0  0  0
    1.1434   -1.3358    1.8092 H   0  0  0  0  0  0  0  0  0  0  0  0
    2.4297   -2.1868    0.9016 H   0  0  0  0  0  0  0  0  0  0  0  0
    1.3088   -1.3228   -1.2620 H   0  0  0  0  0  0  0  0  0  0  0  0
   -2.1987   -4.1750   -0.7903 H   0  0  0  0  0  0  0  0  0  0  0  0
   -2.7124   -3.6009    0.8817 H   0  0  0  0  0  0  0  0  0  0  0  0
   -3.5508   -1.3327    0.1080 H   0  0  0  0  0  0  0  0  0  0  0  0
   -3.1951   -0.4062   -2.0902 H   0  0  0  0  0  0  0  0  0  0  0  0
   -2.5339    1.1404   -1.3889 H   0  0  0  0  0  0  0  0  0  0  0  0
   -5.1949   -0.1828   -0.7330 H   0  0  0  0  0  0  0  0  0  0  0  0
   -5.0249    1.1759   -1.9572 H   0  0  0  0  0  0  0  0  0  0  0  0
   -4.8530    2.7863   -0.3507 H   0  0  0  0  0  0  0  0  0  0  0  0
   -5.5416    1.5227    0.7668 H   0  0  0  0  0  0  0  0  0  0  0  0
   -2.6312    2.3591    0.3766 H   0  0  0  0  0  0  0  0  0  0  0  0
   -3.6390    2.2948    1.8410 H   0  0  0  0  0  0  0  0  0  0  0  0
   -1.9722    0.4935    1.7289 H   0  0  0  0  0  0  0  0  0  0  0  0
   -3.6552   -0.0209    1.9984 H   0  0  0  0  0  0  0  0  0  0  0  0
  1  2  1  0
  2  3  1  0
  2  4  2  3
  4  5  1  0
  5  6  1  0
  6  7  1  0
  7  8  1  0
  8  9  1  0
  9 10  2  0
 10 11  1  0
 10 12  1  0
 12 13  1  0
 13 14  1  0
 14 15  1  0
 15 16  1  0
 16 17  1  0
 17 18  1  0
 12 19  1  0
 19 20  2  0
 19  8  1  0
 18 13  1  0
  1 21  1  0
  1 22  1  0
  3 23  1  0
  3 24  1  0
  5 25  1  0
  5 26  1  0
  6 27  1  0
  6 28  1  0
  7 29  1  0
  7 30  1  0
  8 31  1  6
 11 32  1  0
 11 33  1  0
 13 34  1  0
 14 35  1  0
 14 36  1  0
 15 37  1  0
 15 38  1  0
 16 39  1  0
 16 40  1  0
 17 41  1  0
 17 42  1  0
 18 43  1  0
 18 44  1  0
M  END
$$$$
[H]c1c([H])c([H])c2c(c1[H])C(N1C([H])([H])C([H])([H])N(C([H])([H])[H])C([H])([H])C1([H])[H])=Nc1c([H])c(Cl)c([H])c([H])c1N2S(=O)(=O)c1c([H])c([H])c([H])c(C(F)(F)F)c1[H]
     RDKit          3D

 58 62  0  0  0  0  0  0  0  0999 V2000
   -6.7344    0.9811    0.6774 C   0  0  0  0  0  0  0  0  0  0  0  0
   -6.0911   -0.1719    0.1549 N   0  0  0  0  0  0  0  0  0  0  0  0
   -5.4252   -0.0066   -1.0832 C   0  0  0  0  0  0  0  0  0  0  0  0
   -4.1443   -0.7425   -1.1198 C   0  0  0  0  0  0  0  0  0  0  0  0
   -3.3230   -0.6157    0.1027 N   0  0  0  0  0  0  0  0  0  0  0  0
   -3.9798   -0.7099    1.3551 C   0  0  0  0  0  0  0  0  0  0  0  0
   -5.4488   -1.0447    1.0684 C   0  0  0  0  0  0  0  0  0  0  0  0
   -1.9314   -0.4967   -0.1728 C   0  0  0  0  0  0  0  0  0  0  0  0
   -1.3057   -1.6082   -0.3340 N   0  0  0  0  0  0  0  0  0  0  0  0
    0.0436   -1.9168   -0.6268 C   0  0  0  0  0  0  0  0  0  0  0  0
    0.2261   -3.3039   -0.6764 C   0  0  0  0  0  0  0  0  0  0  0  0
    1.4216   -3.8199   -1.0178 C   0  0  0  0  0  0  0  0  0  0  0  0
    1.6032   -5.5793   -1.0529 Cl  0  0  0  0  0  0  0  0  0  0  0  0
    2.5180   -3.0052   -1.3333 C   0  0  0  0  0  0  0  0  0  0  0  0
    2.3222   -1.6359   -1.2820 C   0  0  0  0  0  0  0  0  0  0  0  0
    1.1197   -1.1028   -0.9355 C   0  0  0  0  0  0  0  0  0  0  0  0
    1.1903    0.3505   -0.8325 N   0  0  0  0  0  0  0  0  0  0  0  0
   -0.0120    1.1630   -0.7193 C   0  0  0  0  0  0  0  0  0  0  0  0
    0.3061    2.4731   -0.9480 C   0  0  0  0  0  0  0  0  0  0  0  0
   -0.6927    3.4344   -0.7445 C   0  0  0  0  0  0  0  0  0  0  0  0
   -1.9510    3.1020   -0.3392 C   0  0  0  0  0  0  0  0  0  0  0  0
   -2.2668    1.7847   -0.1196 C   0  0  0  0  0  0  0  0  0  0  0  0
   -1.2988    0.7991   -0.3115 C   0  0  0  0  0  0  0  0  0  0  0  0
    2.6806    1.0575   -0.9327 S   0  0  0  0  0  0  0  0  0  0  0  0
    3.2756    1.3518   -2.2734 O   0  0  0  0  0  0  0  0  0  0  0  0
    2.5769    2.5105   -0.2637 O   0  0  0  0  0  0  0  0  0  0  0  0
    3.9813    0.6807    0.1761 C   0  0  0  0  0  0  0  0  0  0  0  0
    3.9379    0.7124    1.5446 C   0  0  0  0  0  0  0  0  0  0  0  0
    5.0635    0.5218    2.3515 C   0  0  0  0  0  0  0  0  0  0  0  0
    6.2801    0.2894    1.7712 C   0  0  0  0  0  0  0  0  0  0  0  0
    6.3892    0.2445    0.3727 C   0  0  0  0  0  0  0  0  0  0  0  0
    5.2706    0.4354   -0.3520 C   0  0  0  0  0  0  0  0  0  0  0  0
    7.6943   -0.0049   -0.2393 C   0  0  0  0  0  0  0  0  0  0  0  0
    8.6428    0.8624    0.3376 F   0  0  0  0  0  0  0  0  0  0  0  0
    8.0920   -1.3006   -0.0605 F   0  0  0  0  0  0  0  0  0  0  0  0
    7.6551    0.3254   -1.5871 F   0  0  0  0  0  0  0  0  0  0  0  0
   -7.7581    0.9899    0.1650 H   0  0  0  0  0  0  0  0  0  0  0  0
   -6.8132    0.9919    1.7624 H   0  0  0  0  0  0  0  0  0  0  0  0
   -6.2613    1.9168    0.3212 H   0  0  0  0  0  0  0  0  0  0  0  0
   -5.1964    1.1054   -1.2018 H   0  0  0  0  0  0  0  0  0  0  0  0
   -6.0309   -0.2481   -2.0003 H   0  0  0  0  0  0  0  0  0  0  0  0
   -4.3394   -1.8612   -1.2608 H   0  0  0  0  0  0  0  0  0  0  0  0
   -3.5855   -0.4769   -2.0331 H   0  0  0  0  0  0  0  0  0  0  0  0
   -3.5865   -1.6596    1.8744 H   0  0  0  0  0  0  0  0  0  0  0  0
   -3.8491    0.0860    2.0651 H   0  0  0  0  0  0  0  0  0  0  0  0
   -5.5555   -2.0836    0.6562 H   0  0  0  0  0  0  0  0  0  0  0  0
   -5.9949   -1.0415    2.0138 H   0  0  0  0  0  0  0  0  0  0  0  0
   -0.6413   -3.9334   -0.4291 H   0  0  0  0  0  0  0  0  0  0  0  0
    3.4702   -3.3733   -1.5999 H   0  0  0  0  0  0  0  0  0  0  0  0
    3.0975   -0.9505   -1.5674 H   0  0  0  0  0  0  0  0  0  0  0  0
    1.2506    2.7422   -1.3695 H   0  0  0  0  0  0  0  0  0  0  0  0
   -0.4211    4.4608   -0.9058 H   0  0  0  0  0  0  0  0  0  0  0  0
   -2.7087    3.8577   -0.1701 H   0  0  0  0  0  0  0  0  0  0  0  0
   -3.2516    1.4863    0.2112 H   0  0  0  0  0  0  0  0  0  0  0  0
    2.9449    0.8946    1.9831 H   0  0  0  0  0  0  0  0  0  0  0  0
    5.0049    0.5463    3.4115 H   0  0  0  0  0  0  0  0  0  0  0  0
    7.2005    0.1317    2.3118 H   0  0  0  0  0  0  0  0  0  0  0  0
    5.3387    0.4044   -1.4332 H   0  0  0  0  0  0  0  0  0  0  0  0
  1  2  1  0
  2  3  1  0
  3  4  1  0
  4  5  1  0
  5  6  1  0
  6  7  1  0
  5  8  1  0
  8  9  2  0
  9 10  1  0
 10 11  2  0
 11 12  1  0
 12 13  1  0
 12 14  2  0
 14 15  1  0
 15 16  2  0
 16 17  1  0
 17 18  1  0
 18 19  2  0
 19 20  1  0
 20 21  2  0
 21 22  1  0
 22 23  2  0
 17 24  1  0
 24 25  2  0
 24 26  2  0
 24 27  1  0
 27 28  2  0
 28 29  1  0
 29 30  2  0
 30 31  1  0
 31 32  2  0
 31 33  1  0
 33 34  1  0
 33 35  1  0
 33 36  1  0
  7  2  1  0
 23  8  1  0
 32 27  1  0
 16 10  1  0
 23 18  1  0
  1 37  1  0
  1 38  1  0
  1 39  1  0
  3 40  1  0
  3 41  1  0
  4 42  1  0
  4 43  1  0
  6 44  1  0
  6 45  1  0
  7 46  1  0
  7 47  1  0
 11 48  1  0
 14 49  1  0
 15 50  1  0
 19 51  1  0
 20 52  1  0
 21 53  1  0
 22 54  1  0
 28 55  1  0
 29 56  1  0
 30 57  1  0
 32 58  1  0
M  END
$$$$
[H]/C(C(=O)N([H])[C@]([H])(c1c([H])c([H])c(C(C([H])([H])[H])(C([H])([H])[H])C([H])([H])[H])c([H])c1[H])C([H])([H])[H])=C(/[H])c1c([H])c([H])c([H])c([H])c1C([H])([H])[H]
     RDKit          3D

 51 52  0  0  0  0  0  0  0  0999 V2000
   -0.5499   -0.6722    3.2520 C   0  0  0  0  0  0  0  0  0  0  0  0
   -0.3905   -1.1479    1.8022 C   0  0  2  0  0  0  0  0  0  0  0  0
    0.8666   -0.6825    1.2669 N   0  0  0  0  0  0  0  0  0  0  0  0
    1.8875   -1.6159    1.0159 C   0  0  0  0  0  0  0  0  0  0  0  0
    1.6501   -2.8265    1.2772 O   0  0  0  0  0  0  0  0  0  0  0  0
    3.2130   -1.3053    0.4716 C   0  0  0  0  0  0  0  0  0  0  0  0
    3.6254   -0.1304    0.1490 C   0  0  0  0  0  0  0  0  0  0  0  0
    4.8539    0.3778   -0.3828 C   0  0  0  0  0  0  0  0  0  0  0  0
    4.8403    1.7147   -0.8555 C   0  0  0  0  0  0  0  0  0  0  0  0
    5.9346    2.3400   -1.3771 C   0  0  0  0  0  0  0  0  0  0  0  0
    7.1329    1.6520   -1.4602 C   0  0  0  0  0  0  0  0  0  0  0  0
    7.2150    0.3561   -1.0206 C   0  0  0  0  0  0  0  0  0  0  0  0
    6.0660   -0.2379   -0.4932 C   0  0  0  0  0  0  0  0  0  0  0  0
    6.2512   -1.6043    0.0191 C   0  0  0  0  0  0  0  0  0  0  0  0
   -1.5658   -0.6738    1.0833 C   0  0  0  0  0  0  0  0  0  0  0  0
   -1.6246   -0.3270   -0.2516 C   0  0  0  0  0  0  0  0  0  0  0  0
   -2.8256    0.0771   -0.8082 C   0  0  0  0  0  0  0  0  0  0  0  0
   -3.9897    0.1512   -0.0766 C   0  0  0  0  0  0  0  0  0  0  0  0
   -3.9534   -0.1894    1.2554 C   0  0  0  0  0  0  0  0  0  0  0  0
   -2.7566   -0.5894    1.7984 C   0  0  0  0  0  0  0  0  0  0  0  0
   -5.2724    0.5792   -0.6859 C   0  0  0  0  0  0  0  0  0  0  0  0
   -6.2307   -0.6063   -0.5520 C   0  0  0  0  0  0  0  0  0  0  0  0
   -5.1396    1.0224   -2.1101 C   0  0  0  0  0  0  0  0  0  0  0  0
   -5.8625    1.7112    0.1364 C   0  0  0  0  0  0  0  0  0  0  0  0
    0.4462   -0.3476    3.6731 H   0  0  0  0  0  0  0  0  0  0  0  0
   -1.1482    0.2642    3.2550 H   0  0  0  0  0  0  0  0  0  0  0  0
   -1.0783   -1.4000    3.8813 H   0  0  0  0  0  0  0  0  0  0  0  0
   -0.3962   -2.2405    1.8619 H   0  0  0  0  0  0  0  0  0  0  0  0
    1.0101    0.3160    1.0657 H   0  0  0  0  0  0  0  0  0  0  0  0
    3.8564   -2.1285    0.2997 H   0  0  0  0  0  0  0  0  0  0  0  0
    2.8390    0.6492    0.3517 H   0  0  0  0  0  0  0  0  0  0  0  0
    3.9114    2.2677   -0.8013 H   0  0  0  0  0  0  0  0  0  0  0  0
    5.8769    3.3681   -1.7263 H   0  0  0  0  0  0  0  0  0  0  0  0
    7.9567    2.2083   -1.8876 H   0  0  0  0  0  0  0  0  0  0  0  0
    8.1516   -0.1711   -1.0876 H   0  0  0  0  0  0  0  0  0  0  0  0
    5.8885   -2.4070   -0.6133 H   0  0  0  0  0  0  0  0  0  0  0  0
    7.3764   -1.7487    0.2018 H   0  0  0  0  0  0  0  0  0  0  0  0
    5.8639   -1.6359    1.0708 H   0  0  0  0  0  0  0  0  0  0  0  0
   -0.7022   -0.3921   -0.8023 H   0  0  0  0  0  0  0  0  0  0  0  0
   -2.8399    0.3498   -1.8665 H   0  0  0  0  0  0  0  0  0  0  0  0
   -4.8744   -0.1415    1.8340 H   0  0  0  0  0  0  0  0  0  0  0  0
   -2.7769   -0.8570    2.8669 H   0  0  0  0  0  0  0  0  0  0  0  0
   -6.6847   -0.5775    0.4579 H   0  0  0  0  0  0  0  0  0  0  0  0
   -5.5970   -1.5166   -0.6182 H   0  0  0  0  0  0  0  0  0  0  0  0
   -6.9644   -0.6586   -1.3612 H   0  0  0  0  0  0  0  0  0  0  0  0
   -6.1459    1.3406   -2.4544 H   0  0  0  0  0  0  0  0  0  0  0  0
   -4.7611    0.1742   -2.7118 H   0  0  0  0  0  0  0  0  0  0  0  0
   -4.4423    1.8873   -2.1382 H   0  0  0  0  0  0  0  0  0  0  0  0
   -5.8640    1.4825    1.2101 H   0  0  0  0  0  0  0  0  0  0  0  0
   -5.3302    2.6624   -0.0010 H   0  0  0  0  0  0  0  0  0  0  0  0
   -6.9463    1.8794   -0.1290 H   0  0  0  0  0  0  0  0  0  0  0  0
  1  2  1  0
  2  3  1  0
  3  4  1  0
  4  5  2  0
  4  6  1  0
  6  7  2  0
  7  8  1  0
  8  9  2  0
  9 10  1  0
 10 11  2  0
 11 12  1  0
 12 13  2  0
 13 14  1  0
  2 15  1  0
 15 16  2  0
 16 17  1  0
 17 18  2  0
 18 19  1  0
 19 20  2  0
 18 21  1  0
 21 22  1  0
 21 23  1  0
 21 24  1  0
 13  8  1  0
 20 15  1  0
  1 25  1  0
  1 26  1  0
  1 27  1  0
  2 28  1  1
  3 29  1  0
  6 30  1  0
  7 31  1  0
  9 32  1  0
 10 33  1  0
 11 34  1  0
 12 35  1  0
 14 36  1  0
 14 37  1  0
 14 38  1  0
 16 39  1  0
 17 40  1  0
 19 41  1  0
 20 42  1  0
 22 43  1  0
 22 44  1  0
 22 45  1  0
 23 46  1  0
 23 47  1  0
 23 48  1  0
 24 49  1  0
 24 50  1  0
 24 51  1  0
M  END
$$$$
[H]c1nc2c(N([H])C3([H])C([H])([H])C3([H])[H])nc(N([H])c3c([H])c(C#N)c([H])c(N4C([H])([H])C([H])([H])C([H])(N([H])C5([H])C([H])([H])C5([H])[H])C([H])([H])C4([H])[H])c3Cl)nn2c1C#N
     RDKit          3D

 60 65  0  0  0  0  0  0  0  0999 V2000
   -0.1893    1.6701    1.6037 Cl  0  0  0  0  0  0  0  0  0  0  0  0
    0.2043    0.3454    0.5311 C   0  0  0  0  0  0  0  0  0  0  0  0
   -0.8101   -0.3904   -0.0987 C   0  0  0  0  0  0  0  0  0  0  0  0
   -2.1329   -0.0238    0.1501 N   0  0  0  0  0  0  0  0  0  0  0  0
   -3.3347   -0.5646   -0.3218 C   0  0  0  0  0  0  0  0  0  0  0  0
   -4.5405   -0.0412    0.0550 N   0  0  0  0  0  0  0  0  0  0  0  0
   -5.7068   -0.5479   -0.3882 C   0  0  0  0  0  0  0  0  0  0  0  0
   -6.9506    0.0087    0.0133 N   0  0  0  0  0  0  0  0  0  0  0  0
   -7.0168    1.1400    0.9146 C   0  0  0  0  0  0  0  0  0  0  0  0
   -8.3791    1.6536    1.2803 C   0  0  0  0  0  0  0  0  0  0  0  0
   -7.6138    0.9186    2.3077 C   0  0  0  0  0  0  0  0  0  0  0  0
   -5.6889   -1.6277   -1.2489 C   0  0  0  0  0  0  0  0  0  0  0  0
   -6.6642   -2.3515   -1.8588 N   0  0  0  0  0  0  0  0  0  0  0  0
   -6.0668   -3.3031   -2.5977 C   0  0  0  0  0  0  0  0  0  0  0  0
   -4.7024   -3.1737   -2.4487 C   0  0  0  0  0  0  0  0  0  0  0  0
   -3.6541   -3.9627   -3.0434 C   0  0  0  0  0  0  0  0  0  0  0  0
   -2.8286   -4.5785   -3.5242 N   0  0  0  0  0  0  0  0  0  0  0  0
   -4.5106   -2.1272   -1.6078 N   0  0  0  0  0  0  0  0  0  0  0  0
   -3.4047   -1.5932   -1.1446 N   0  0  0  0  0  0  0  0  0  0  0  0
   -0.4352   -1.4067   -0.9050 C   0  0  0  0  0  0  0  0  0  0  0  0
    0.9189   -1.7322   -1.1192 C   0  0  0  0  0  0  0  0  0  0  0  0
    1.8950   -0.9945   -0.4895 C   0  0  0  0  0  0  0  0  0  0  0  0
    1.5278    0.0414    0.3328 C   0  0  0  0  0  0  0  0  0  0  0  0
    2.5497    0.8061    0.9703 N   0  0  0  0  0  0  0  0  0  0  0  0
    2.8066    2.1792    0.6521 C   0  0  0  0  0  0  0  0  0  0  0  0
    4.1398    2.5339    1.2931 C   0  0  0  0  0  0  0  0  0  0  0  0
    5.1870    1.4922    1.0593 C   0  0  0  0  0  0  0  0  0  0  0  0
    4.7801    0.1208    1.5203 C   0  0  0  0  0  0  0  0  0  0  0  0
    3.3542    0.1699    1.9941 C   0  0  0  0  0  0  0  0  0  0  0  0
    5.5259    1.4939   -0.3516 N   0  0  0  0  0  0  0  0  0  0  0  0
    6.5614    0.5132   -0.6459 C   0  0  0  0  0  0  0  0  0  0  0  0
    7.9002    0.6912   -0.0033 C   0  0  0  0  0  0  0  0  0  0  0  0
    7.7268    1.0598   -1.4460 C   0  0  0  0  0  0  0  0  0  0  0  0
    1.3025   -2.8144   -1.9789 C   0  0  0  0  0  0  0  0  0  0  0  0
    1.6069   -3.6739   -2.6878 N   0  0  0  0  0  0  0  0  0  0  0  0
   -2.3026    0.8289    0.8260 H   0  0  0  0  0  0  0  0  0  0  0  0
   -7.8342   -0.4028   -0.3466 H   0  0  0  0  0  0  0  0  0  0  0  0
   -6.2371    1.9413    0.8305 H   0  0  0  0  0  0  0  0  0  0  0  0
   -8.5622    2.7434    1.3391 H   0  0  0  0  0  0  0  0  0  0  0  0
   -9.2466    1.0981    0.8403 H   0  0  0  0  0  0  0  0  0  0  0  0
   -7.8757   -0.1184    2.5603 H   0  0  0  0  0  0  0  0  0  0  0  0
   -7.2218    1.5424    3.1407 H   0  0  0  0  0  0  0  0  0  0  0  0
   -6.5253   -4.0591   -3.2158 H   0  0  0  0  0  0  0  0  0  0  0  0
   -1.1122   -2.0405   -1.4400 H   0  0  0  0  0  0  0  0  0  0  0  0
    2.9537   -1.2117   -0.6285 H   0  0  0  0  0  0  0  0  0  0  0  0
    2.0826    2.8957    1.0374 H   0  0  0  0  0  0  0  0  0  0  0  0
    2.9094    2.3252   -0.4440 H   0  0  0  0  0  0  0  0  0  0  0  0
    4.4313    3.5089    0.8123 H   0  0  0  0  0  0  0  0  0  0  0  0
    3.9400    2.7316    2.3650 H   0  0  0  0  0  0  0  0  0  0  0  0
    6.0698    1.7953    1.6858 H   0  0  0  0  0  0  0  0  0  0  0  0
    5.3850   -0.2267    2.3895 H   0  0  0  0  0  0  0  0  0  0  0  0
    4.8334   -0.6177    0.6850 H   0  0  0  0  0  0  0  0  0  0  0  0
    2.9587   -0.8432    2.2444 H   0  0  0  0  0  0  0  0  0  0  0  0
    3.3588    0.7881    2.9392 H   0  0  0  0  0  0  0  0  0  0  0  0
    5.8518    2.4521   -0.5770 H   0  0  0  0  0  0  0  0  0  0  0  0
    6.2597   -0.5216   -0.8451 H   0  0  0  0  0  0  0  0  0  0  0  0
    8.4925   -0.1937    0.2910 H   0  0  0  0  0  0  0  0  0  0  0  0
    8.0829    1.5714    0.6610 H   0  0  0  0  0  0  0  0  0  0  0  0
    7.7305    2.1287   -1.7390 H   0  0  0  0  0  0  0  0  0  0  0  0
    8.2205    0.3685   -2.1794 H   0  0  0  0  0  0  0  0  0  0  0  0
  1  2  1  0
  2  3  2  0
  3  4  1  0
  4  5  1  0
  5  6  1  0
  6  7  2  0
  7  8  1  0
  8  9  1  0
  9 10  1  0
 10 11  1  0
  7 12  1  0
 12 13  2  0
 13 14  1  0
 14 15  2  0
 15 16  1  0
 16 17  3  0
 15 18  1  0
 18 19  1  0
  3 20  1  0
 20 21  2  0
 21 22  1  0
 22 23  2  0
 23 24  1  0
 24 25  1  0
 25 26  1  0
 26 27  1  0
 27 28  1  0
 28 29  1  0
 27 30  1  0
 30 31  1  0
 31 32  1  0
 32 33  1  0
 21 34  1  0
 34 35  3  0
 23  2  1  0
 29 24  1  0
 33 31  1  0
 19  5  2  0
 11  9  1  0
 18 12  1  0
  4 36  1  0
  8 37  1  0
  9 38  1  0
 10 39  1  0
 10 40  1  0
 11 41  1  0
 11 42  1  0
 14 43  1  0
 20 44  1  0
 22 45  1  0
 25 46  1  0
 25 47  1  0
 26 48  1  0
 26 49  1  0
 27 50  1  0
 28 51  1  0
 28 52  1  0
 29 53  1  0
 29 54  1  0
 30 55  1  0
 31 56  1  0
 32 57  1  0
 32 58  1  0
 33 59  1  0
 33 60  1  0
M  END
$$$$
[H]/C(=C(/[H])c1nn([H])c2c([H])c([H])c([H])c([H])c12)c1c([H])c([H])c(C(=O)N2C([H])([H])C([H])([H])N([H])C([H])([H])C2([H])[H])c([H])c1[H]
     RDKit          3D

 45 48  0  0  0  0  0  0  0  0999 V2000
    3.5514    0.7440    1.9711 O   0  0  0  0  0  0  0  0  0  0  0  0
    3.3892    0.0685    0.8672 C   0  0  0  0  0  0  0  0  0  0  0  0
    4.5907   -0.4046    0.3401 N   0  0  0  0  0  0  0  0  0  0  0  0
    5.8363   -0.0821    1.0805 C   0  0  0  0  0  0  0  0  0  0  0  0
    6.8464    0.5740    0.1955 C   0  0  0  0  0  0  0  0  0  0  0  0
    6.9351   -0.1389   -1.0738 N   0  0  0  0  0  0  0  0  0  0  0  0
    6.3062   -1.4335   -0.9851 C   0  0  0  0  0  0  0  0  0  0  0  0
    4.7909   -1.1844   -0.8492 C   0  0  0  0  0  0  0  0  0  0  0  0
    2.0269   -0.0476    0.4278 C   0  0  0  0  0  0  0  0  0  0  0  0
    1.6279   -0.7053   -0.7085 C   0  0  0  0  0  0  0  0  0  0  0  0
    0.2723   -0.7857   -1.0847 C   0  0  0  0  0  0  0  0  0  0  0  0
   -0.7036   -0.2003   -0.3150 C   0  0  0  0  0  0  0  0  0  0  0  0
   -2.0925   -0.3054   -0.7371 C   0  0  0  0  0  0  0  0  0  0  0  0
   -3.1132    0.2129   -0.0839 C   0  0  0  0  0  0  0  0  0  0  0  0
   -4.4888    0.0482   -0.6000 C   0  0  0  0  0  0  0  0  0  0  0  0
   -4.8416   -0.6046   -1.7200 N   0  0  0  0  0  0  0  0  0  0  0  0
   -6.1395   -0.5577   -1.8797 N   0  0  0  0  0  0  0  0  0  0  0  0
   -6.6557    0.1457   -0.8354 C   0  0  0  0  0  0  0  0  0  0  0  0
   -7.9602    0.4571   -0.5683 C   0  0  0  0  0  0  0  0  0  0  0  0
   -8.2539    1.1947    0.5715 C   0  0  0  0  0  0  0  0  0  0  0  0
   -7.2213    1.5923    1.4019 C   0  0  0  0  0  0  0  0  0  0  0  0
   -5.9075    1.2749    1.1269 C   0  0  0  0  0  0  0  0  0  0  0  0
   -5.6302    0.5432   -0.0064 C   0  0  0  0  0  0  0  0  0  0  0  0
   -0.3026    0.4578    0.8222 C   0  0  0  0  0  0  0  0  0  0  0  0
    1.0089    0.5439    1.1996 C   0  0  0  0  0  0  0  0  0  0  0  0
    6.2423   -0.9896    1.5215 H   0  0  0  0  0  0  0  0  0  0  0  0
    5.5531    0.6221    1.8808 H   0  0  0  0  0  0  0  0  0  0  0  0
    7.8569    0.5491    0.6272 H   0  0  0  0  0  0  0  0  0  0  0  0
    6.6110    1.6519   -0.0034 H   0  0  0  0  0  0  0  0  0  0  0  0
    7.9122   -0.2166   -1.4132 H   0  0  0  0  0  0  0  0  0  0  0  0
    6.6537   -2.0110   -0.1378 H   0  0  0  0  0  0  0  0  0  0  0  0
    6.4605   -1.9379   -1.9665 H   0  0  0  0  0  0  0  0  0  0  0  0
    4.2816   -2.1691   -0.7810 H   0  0  0  0  0  0  0  0  0  0  0  0
    4.4864   -0.6351   -1.7695 H   0  0  0  0  0  0  0  0  0  0  0  0
    2.3212   -1.1854   -1.3618 H   0  0  0  0  0  0  0  0  0  0  0  0
    0.0611   -1.3257   -1.9963 H   0  0  0  0  0  0  0  0  0  0  0  0
   -2.3642   -0.8450   -1.6590 H   0  0  0  0  0  0  0  0  0  0  0  0
   -2.9354    0.7590    0.8314 H   0  0  0  0  0  0  0  0  0  0  0  0
   -6.6500   -0.9934   -2.6771 H   0  0  0  0  0  0  0  0  0  0  0  0
   -8.7873    0.1480   -1.2184 H   0  0  0  0  0  0  0  0  0  0  0  0
   -9.2919    1.4273    0.7594 H   0  0  0  0  0  0  0  0  0  0  0  0
   -7.4766    2.1675    2.2861 H   0  0  0  0  0  0  0  0  0  0  0  0
   -5.0901    1.5762    1.7625 H   0  0  0  0  0  0  0  0  0  0  0  0
   -1.0284    0.9367    1.4648 H   0  0  0  0  0  0  0  0  0  0  0  0
    1.3120    1.0639    2.0958 H   0  0  0  0  0  0  0  0  0  0  0  0
  1  2  2  0
  2  3  1  0
  3  4  1  0
  4  5  1  0
  5  6  1  0
  6  7  1  0
  7  8  1  0
  2  9  1  0
  9 10  2  0
 10 11  1  0
 11 12  2  0
 12 13  1  0
 13 14  2  0
 14 15  1  0
 15 16  2  0
 16 17  1  0
 17 18  1  0
 18 19  2  0
 19 20  1  0
 20 21  2  0
 21 22  1  0
 22 23  2  0
 12 24  1  0
 24 25  2  0
  8  3  1  0
 25  9  1  0
 23 15  1  0
 23 18  1  0
  4 26  1  0
  4 27  1  0
  5 28  1  0
  5 29  1  0
  6 30  1  0
  7 31  1  0
  7 32  1  0
  8 33  1  0
  8 34  1  0
 10 35  1  0
 11 36  1  0
 13 37  1  0
 14 38  1  0
 17 39  1  0
 19 40  1  0
 20 41  1  0
 21 42  1  0
 22 43  1  0
 24 44  1  0
 25 45  1  0
M  END
$$$$
[H]OC(=O)c1c([H])c([H])c(/C([H])=C(\[H])c2c([H])c([H])c([H])c(/C([H])=C(\[H])c3nc4c([H])c(Cl)c([H])c([H])c4c([H])c3[H])c2[H])c([H])c1[H]
     RDKit          3D

 48 51  0  0  0  0  0  0  0  0999 V2000
   -9.4630    0.5062    2.4379 O   0  0  0  0  0  0  0  0  0  0  0  0
   -8.1623    0.7529    2.8486 C   0  0  0  0  0  0  0  0  0  0  0  0
   -7.8902    1.2427    3.9783 O   0  0  0  0  0  0  0  0  0  0  0  0
   -7.0536    0.4387    1.9492 C   0  0  0  0  0  0  0  0  0  0  0  0
   -7.3171   -0.0981    0.7064 C   0  0  0  0  0  0  0  0  0  0  0  0
   -6.2816   -0.3995   -0.1527 C   0  0  0  0  0  0  0  0  0  0  0  0
   -4.9554   -0.1879    0.1707 C   0  0  0  0  0  0  0  0  0  0  0  0
   -3.9127   -0.5299   -0.7859 C   0  0  0  0  0  0  0  0  0  0  0  0
   -2.6314   -0.3875   -0.6214 C   0  0  0  0  0  0  0  0  0  0  0  0
   -1.6158   -0.7455   -1.6125 C   0  0  0  0  0  0  0  0  0  0  0  0
   -1.8950   -1.2800   -2.8474 C   0  0  0  0  0  0  0  0  0  0  0  0
   -0.8750   -1.5958   -3.7386 C   0  0  0  0  0  0  0  0  0  0  0  0
    0.4236   -1.3644   -3.3646 C   0  0  0  0  0  0  0  0  0  0  0  0
    0.7638   -0.8281   -2.1336 C   0  0  0  0  0  0  0  0  0  0  0  0
    2.1666   -0.6120   -1.8101 C   0  0  0  0  0  0  0  0  0  0  0  0
    2.6231   -0.1206   -0.7019 C   0  0  0  0  0  0  0  0  0  0  0  0
    4.0542    0.0957   -0.3818 C   0  0  0  0  0  0  0  0  0  0  0  0
    5.0596   -0.2155   -1.2603 C   0  0  0  0  0  0  0  0  0  0  0  0
    6.3904   -0.0222   -0.9812 C   0  0  0  0  0  0  0  0  0  0  0  0
    6.7151    0.5144    0.2525 C   0  0  0  0  0  0  0  0  0  0  0  0
    8.0477    0.7212    0.5634 C   0  0  0  0  0  0  0  0  0  0  0  0
    8.3640    1.2521    1.7847 C   0  0  0  0  0  0  0  0  0  0  0  0
    7.3471    1.5615    2.6602 C   0  0  0  0  0  0  0  0  0  0  0  0
    7.7240    2.2451    4.2370 Cl  0  0  0  0  0  0  0  0  0  0  0  0
    6.0272    1.3564    2.3517 C   0  0  0  0  0  0  0  0  0  0  0  0
    5.6812    0.8196    1.1204 C   0  0  0  0  0  0  0  0  0  0  0  0
    4.3958    0.6186    0.8170 N   0  0  0  0  0  0  0  0  0  0  0  0
   -0.2770   -0.5316   -1.2855 C   0  0  0  0  0  0  0  0  0  0  0  0
   -4.7057    0.3437    1.4032 C   0  0  0  0  0  0  0  0  0  0  0  0
   -5.7452    0.6572    2.2916 C   0  0  0  0  0  0  0  0  0  0  0  0
   -9.8423   -0.4210    2.4403 H   0  0  0  0  0  0  0  0  0  0  0  0
   -8.3400   -0.2770    0.4194 H   0  0  0  0  0  0  0  0  0  0  0  0
   -6.5145   -0.8194   -1.1212 H   0  0  0  0  0  0  0  0  0  0  0  0
   -4.2248   -0.9520   -1.7488 H   0  0  0  0  0  0  0  0  0  0  0  0
   -2.3080    0.0299    0.3290 H   0  0  0  0  0  0  0  0  0  0  0  0
   -2.8950   -1.4620   -3.1445 H   0  0  0  0  0  0  0  0  0  0  0  0
   -1.1543   -2.0157   -4.7008 H   0  0  0  0  0  0  0  0  0  0  0  0
    1.1909   -1.6310   -4.1041 H   0  0  0  0  0  0  0  0  0  0  0  0
    2.8925   -0.8884   -2.5675 H   0  0  0  0  0  0  0  0  0  0  0  0
    1.9257    0.1636    0.0700 H   0  0  0  0  0  0  0  0  0  0  0  0
    4.8238   -0.6316   -2.2189 H   0  0  0  0  0  0  0  0  0  0  0  0
    7.1748   -0.2772   -1.6956 H   0  0  0  0  0  0  0  0  0  0  0  0
    8.8139    0.4590   -0.1657 H   0  0  0  0  0  0  0  0  0  0  0  0
    9.3845    1.4138    2.0306 H   0  0  0  0  0  0  0  0  0  0  0  0
    5.2614    1.6120    3.0647 H   0  0  0  0  0  0  0  0  0  0  0  0
   -0.0142   -0.1099   -0.3168 H   0  0  0  0  0  0  0  0  0  0  0  0
   -3.6804    0.5221    1.6885 H   0  0  0  0  0  0  0  0  0  0  0  0
   -5.4963    1.0773    3.2584 H   0  0  0  0  0  0  0  0  0  0  0  0
  1  2  1  0
  2  3  2  0
  2  4  1  0
  4  5  2  0
  5  6  1  0
  6  7  2  0
  7  8  1  0
  8  9  2  0
  9 10  1  0
 10 11  2  0
 11 12  1  0
 12 13  2  0
 13 14  1  0
 14 15  1  0
 15 16  2  0
 16 17  1  0
 17 18  2  0
 18 19  1  0
 19 20  2  0
 20 21  1  0
 21 22  2  0
 22 23  1  0
 23 24  1  0
 23 25  2  0
 25 26  1  0
 26 27  2  0
 14 28  2  0
  7 29  1  0
 29 30  2  0
 30  4  1  0
 28 10  1  0
 27 17  1  0
 26 20  1  0
  1 31  1  0
  5 32  1  0
  6 33  1  0
  8 34  1  0
  9 35  1  0
 11 36  1  0
 12 37  1  0
 13 38  1  0
 15 39  1  0
 16 40  1  0
 18 41  1  0
 19 42  1  0
 21 43  1  0
 22 44  1  0
 25 45  1  0
 28 46  1  0
 29 47  1  0
 30 48  1  0
M  END
$$$$
[H]OC(=O)C([H])([H])C([H])([H])[C@@]([H])(C([H])([H])[H])[C@@]1([H])C([H])([H])C([H])([H])[C@@]2([H])[C@]3([H])[C@@]([H])(O[H])C([H])([H])[C@]4([H])C([H])([H])[C@]([H])(O[H])C([H])([H])C([H])([H])[C@]4(C([H])([H])[H])[C@@]3([H])C([H])([H])C([H])([H])[C@@]21C([H])([H])[H]
     RDKit          3D

 68 71  0  0  0  0  0  0  0  0999 V2000
    4.0310    0.0812   -1.8654 C   0  0  0  0  0  0  0  0  0  0  0  0
    3.8145    0.5856   -0.4697 C   0  0  2  0  0  0  0  0  0  0  0  0
    5.0735    0.5784    0.3338 C   0  0  0  0  0  0  0  0  0  0  0  0
    5.8744   -0.6163    0.5140 C   0  0  0  0  0  0  0  0  0  0  0  0
    5.4421   -1.8302    1.1637 C   0  0  0  0  0  0  0  0  0  0  0  0
    6.3817   -2.9342    1.1685 O   0  0  0  0  0  0  0  0  0  0  0  0
    4.3930   -2.1388    1.7424 O   0  0  0  0  0  0  0  0  0  0  0  0
    2.6230    0.2687    0.2664 C   0  0  1  0  0  0  0  0  0  0  0  0
    2.6386    0.9429    1.6228 C   0  0  0  0  0  0  0  0  0  0  0  0
    1.1665    1.1305    2.0250 C   0  0  0  0  0  0  0  0  0  0  0  0
    0.4441    0.4443    0.9475 C   0  0  1  0  0  0  0  0  0  0  0  0
   -1.0046    0.7294    0.7734 C   0  0  2  0  0  0  0  0  0  0  0  0
   -1.7608    0.0346    1.8882 C   0  0  1  0  0  0  0  0  0  0  0  0
   -1.3249    0.3445    3.1494 O   0  0  0  0  0  0  0  0  0  0  0  0
   -3.1881    0.5072    1.7808 C   0  0  0  0  0  0  0  0  0  0  0  0
   -3.7683    0.4471    0.4072 C   0  0  2  0  0  0  0  0  0  0  0  0
   -5.1579   -0.1166    0.5212 C   0  0  0  0  0  0  0  0  0  0  0  0
   -5.3068   -1.5377    0.0833 C   0  0  2  0  0  0  0  0  0  0  0  0
   -4.6471   -2.3784    0.9831 O   0  0  0  0  0  0  0  0  0  0  0  0
   -4.6792   -1.7847   -1.2822 C   0  0  0  0  0  0  0  0  0  0  0  0
   -3.2246   -1.5632   -1.0166 C   0  0  0  0  0  0  0  0  0  0  0  0
   -2.9112   -0.1133   -0.6494 C   0  0  1  0  0  0  0  0  0  0  0  0
   -3.1838    0.6285   -1.9746 C   0  0  0  0  0  0  0  0  0  0  0  0
   -1.4470   -0.0771   -0.4466 C   0  0  1  0  0  0  0  0  0  0  0  0
   -0.6792    0.4163   -1.6564 C   0  0  0  0  0  0  0  0  0  0  0  0
    0.7752   -0.0097   -1.4047 C   0  0  0  0  0  0  0  0  0  0  0  0
    1.2981    0.7919   -0.2707 C   0  0  2  0  0  0  0  0  0  0  0  0
    1.2459    2.2618   -0.4547 C   0  0  0  0  0  0  0  0  0  0  0  0
    3.5440    0.7167   -2.5911 H   0  0  0  0  0  0  0  0  0  0  0  0
    5.1328    0.1723   -2.0690 H   0  0  0  0  0  0  0  0  0  0  0  0
    3.6762   -0.9546   -2.0187 H   0  0  0  0  0  0  0  0  0  0  0  0
    3.6904    1.7493   -0.6930 H   0  0  0  0  0  0  0  0  0  0  0  0
    5.7849    1.4085   -0.0339 H   0  0  0  0  0  0  0  0  0  0  0  0
    4.8744    0.9807    1.3915 H   0  0  0  0  0  0  0  0  0  0  0  0
    6.8469   -0.3251    1.0864 H   0  0  0  0  0  0  0  0  0  0  0  0
    6.3651   -0.9759   -0.4577 H   0  0  0  0  0  0  0  0  0  0  0  0
    6.4823   -3.4969    0.3417 H   0  0  0  0  0  0  0  0  0  0  0  0
    2.4427   -0.8161    0.3864 H   0  0  0  0  0  0  0  0  0  0  0  0
    3.1434    1.9353    1.5812 H   0  0  0  0  0  0  0  0  0  0  0  0
    3.1972    0.3506    2.3538 H   0  0  0  0  0  0  0  0  0  0  0  0
    0.9815    2.2143    2.1093 H   0  0  0  0  0  0  0  0  0  0  0  0
    1.0943    0.6990    3.0356 H   0  0  0  0  0  0  0  0  0  0  0  0
    0.5330   -0.6683    1.1243 H   0  0  0  0  0  0  0  0  0  0  0  0
   -1.2983    1.7706    0.7356 H   0  0  0  0  0  0  0  0  0  0  0  0
   -1.7327   -1.0695    1.7721 H   0  0  0  0  0  0  0  0  0  0  0  0
   -1.5130    1.2859    3.4167 H   0  0  0  0  0  0  0  0  0  0  0  0
   -3.2076    1.5202    2.2474 H   0  0  0  0  0  0  0  0  0  0  0  0
   -3.7679   -0.1330    2.5134 H   0  0  0  0  0  0  0  0  0  0  0  0
   -3.9396    1.5347    0.1267 H   0  0  0  0  0  0  0  0  0  0  0  0
   -5.9202    0.4700   -0.0357 H   0  0  0  0  0  0  0  0  0  0  0  0
   -5.5243   -0.0969    1.5855 H   0  0  0  0  0  0  0  0  0  0  0  0
   -6.3606   -1.7889    0.0062 H   0  0  0  0  0  0  0  0  0  0  0  0
   -4.7593   -3.3022    0.6157 H   0  0  0  0  0  0  0  0  0  0  0  0
   -4.8187   -2.8548   -1.5022 H   0  0  0  0  0  0  0  0  0  0  0  0
   -5.0877   -1.1190   -2.0521 H   0  0  0  0  0  0  0  0  0  0  0  0
   -2.9365   -2.2206   -0.1577 H   0  0  0  0  0  0  0  0  0  0  0  0
   -2.6035   -1.8342   -1.8822 H   0  0  0  0  0  0  0  0  0  0  0  0
   -2.7605    1.6302   -1.9813 H   0  0  0  0  0  0  0  0  0  0  0  0
   -2.9931    0.0031   -2.8445 H   0  0  0  0  0  0  0  0  0  0  0  0
   -4.3057    0.7774   -1.9576 H   0  0  0  0  0  0  0  0  0  0  0  0
   -1.0183   -1.1039   -0.2309 H   0  0  0  0  0  0  0  0  0  0  0  0
   -0.9880   -0.1629   -2.5506 H   0  0  0  0  0  0  0  0  0  0  0  0
   -0.7382    1.5085   -1.7914 H   0  0  0  0  0  0  0  0  0  0  0  0
    0.6917   -1.0719   -1.0523 H   0  0  0  0  0  0  0  0  0  0  0  0
    1.2640    0.0806   -2.3640 H   0  0  0  0  0  0  0  0  0  0  0  0
    0.2235    2.6950   -0.2619 H   0  0  0  0  0  0  0  0  0  0  0  0
    1.4741    2.5848   -1.5111 H   0  0  0  0  0  0  0  0  0  0  0  0
    1.9130    2.8141    0.2361 H   0  0  0  0  0  0  0  0  0  0  0  0
  1  2  1  0
  2  3  1  0
  3  4  1  0
  4  5  1  0
  5  6  1  0
  5  7  2  0
  2  8  1  0
  8  9  1  0
  9 10  1  0
 10 11  1  0
 11 12  1  0
 12 13  1  0
 13 14  1  0
 13 15  1  0
 15 16  1  0
 16 17  1  0
 17 18  1  0
 18 19  1  0
 18 20  1  0
 20 21  1  0
 21 22  1  0
 22 23  1  6
 22 24  1  0
 24 25  1  0
 25 26  1  0
 26 27  1  0
 27 28  1  6
 27  8  1  0
 27 11  1  0
 24 12  1  0
 22 16  1  0
  1 29  1  0
  1 30  1  0
  1 31  1  0
  2 32  1  6
  3 33  1  0
  3 34  1  0
  4 35  1  0
  4 36  1  0
  6 37  1  0
  8 38  1  1
  9 39  1  0
  9 40  1  0
 10 41  1  0
 10 42  1  0
 11 43  1  1
 12 44  1  6
 13 45  1  6
 14 46  1  0
 15 47  1  0
 15 48  1  0
 16 49  1  6
 17 50  1  0
 17 51  1  0
 18 52  1  6
 19 53  1  0
 20 54  1  0
 20 55  1  0
 21 56  1  0
 21 57  1  0
 23 58  1  0
 23 59  1  0
 23 60  1  0
 24 61  1  1
 25 62  1  0
 25 63  1  0
 26 64  1  0
 26 65  1  0
 28 66  1  0
 28 67  1  0
 28 68  1  0
M  END
$$$$
[H]c1c([H])c(C(F)(F)F)c([H])c([H])c1-c1nnc(N2C([H])([H])C([H])([H])N(C(=O)OC(C([H])([H])[H])(C([H])([H])[H])C([H])([H])[H])C([H])([H])[C@@]2([H])C([H])([H])[H])c2c([H])c([H])c([H])c([H])c12
     RDKit          3D

 61 64  0  0  0  0  0  0  0  0999 V2000
   -0.8262   -0.6948   -1.9505 C   0  0  0  0  0  0  0  0  0  0  0  0
   -1.4037   -0.2893   -0.6058 C   0  0  2  0  0  0  0  0  0  0  0  0
   -2.6018    0.6229   -0.9643 C   0  0  0  0  0  0  0  0  0  0  0  0
   -3.1671    1.1043    0.2611 N   0  0  0  0  0  0  0  0  0  0  0  0
   -2.3524    1.8808    1.1588 C   0  0  0  0  0  0  0  0  0  0  0  0
   -0.9295    1.4656    1.2012 C   0  0  0  0  0  0  0  0  0  0  0  0
   -0.5337    0.4882    0.2035 N   0  0  0  0  0  0  0  0  0  0  0  0
    0.8927    0.3653    0.0566 C   0  0  0  0  0  0  0  0  0  0  0  0
    1.5658    1.4308   -0.4631 N   0  0  0  0  0  0  0  0  0  0  0  0
    2.8611    1.4203   -0.6138 N   0  0  0  0  0  0  0  0  0  0  0  0
    3.6254    0.3744   -0.2741 C   0  0  0  0  0  0  0  0  0  0  0  0
    5.0825    0.4891   -0.4345 C   0  0  0  0  0  0  0  0  0  0  0  0
    5.8862   -0.3793   -1.0966 C   0  0  0  0  0  0  0  0  0  0  0  0
    7.2564   -0.1852   -1.1445 C   0  0  0  0  0  0  0  0  0  0  0  0
    7.8310    0.8937   -0.5226 C   0  0  0  0  0  0  0  0  0  0  0  0
    7.0046    1.7709    0.1439 C   0  0  0  0  0  0  0  0  0  0  0  0
    5.6405    1.6011    0.2065 C   0  0  0  0  0  0  0  0  0  0  0  0
    9.2867    1.1471   -0.5462 C   0  0  0  0  0  0  0  0  0  0  0  0
    9.9575    0.2459    0.2743 F   0  0  0  0  0  0  0  0  0  0  0  0
    9.7401    1.0500   -1.8447 F   0  0  0  0  0  0  0  0  0  0  0  0
    9.6205    2.3971   -0.0887 F   0  0  0  0  0  0  0  0  0  0  0  0
    3.0088   -0.7255    0.2509 C   0  0  0  0  0  0  0  0  0  0  0  0
    3.7320   -1.8180    0.6325 C   0  0  0  0  0  0  0  0  0  0  0  0
    3.0820   -2.9158    1.1745 C   0  0  0  0  0  0  0  0  0  0  0  0
    1.7245   -2.9378    1.3438 C   0  0  0  0  0  0  0  0  0  0  0  0
    0.9672   -1.8548    0.9765 C   0  0  0  0  0  0  0  0  0  0  0  0
    1.5982   -0.7453    0.4283 C   0  0  0  0  0  0  0  0  0  0  0  0
   -4.5076    0.7787    0.5737 C   0  0  0  0  0  0  0  0  0  0  0  0
   -5.0702    1.3242    1.5868 O   0  0  0  0  0  0  0  0  0  0  0  0
   -5.2501   -0.0884   -0.1424 O   0  0  0  0  0  0  0  0  0  0  0  0
   -6.5634   -0.3996    0.1105 C   0  0  0  0  0  0  0  0  0  0  0  0
   -7.0308   -1.5124   -0.8078 C   0  0  0  0  0  0  0  0  0  0  0  0
   -7.3678    0.8455   -0.4085 C   0  0  0  0  0  0  0  0  0  0  0  0
   -6.9987   -0.6211    1.5035 C   0  0  0  0  0  0  0  0  0  0  0  0
   -0.7421    0.1560   -2.6385 H   0  0  0  0  0  0  0  0  0  0  0  0
   -1.6189   -1.3630   -2.4123 H   0  0  0  0  0  0  0  0  0  0  0  0
    0.0744   -1.3002   -1.8968 H   0  0  0  0  0  0  0  0  0  0  0  0
   -1.8109   -1.1943   -0.1175 H   0  0  0  0  0  0  0  0  0  0  0  0
   -3.3431    0.0246   -1.5349 H   0  0  0  0  0  0  0  0  0  0  0  0
   -2.1908    1.4814   -1.5322 H   0  0  0  0  0  0  0  0  0  0  0  0
   -2.7639    1.7141    2.2026 H   0  0  0  0  0  0  0  0  0  0  0  0
   -2.5297    2.9529    0.9235 H   0  0  0  0  0  0  0  0  0  0  0  0
   -0.6015    1.1142    2.2011 H   0  0  0  0  0  0  0  0  0  0  0  0
   -0.3177    2.3815    0.9920 H   0  0  0  0  0  0  0  0  0  0  0  0
    5.4771   -1.2214   -1.6045 H   0  0  0  0  0  0  0  0  0  0  0  0
    7.9447   -0.8578   -1.6678 H   0  0  0  0  0  0  0  0  0  0  0  0
    7.4320    2.6596    0.6510 H   0  0  0  0  0  0  0  0  0  0  0  0
    4.9932    2.3208    0.7401 H   0  0  0  0  0  0  0  0  0  0  0  0
    4.8141   -1.8236    0.5536 H   0  0  0  0  0  0  0  0  0  0  0  0
    3.6855   -3.7723    1.4587 H   0  0  0  0  0  0  0  0  0  0  0  0
    1.2171   -3.8170    1.7665 H   0  0  0  0  0  0  0  0  0  0  0  0
   -0.0971   -1.8277    1.1137 H   0  0  0  0  0  0  0  0  0  0  0  0
   -6.4055   -2.4241   -0.6232 H   0  0  0  0  0  0  0  0  0  0  0  0
   -6.8230   -1.1998   -1.8550 H   0  0  0  0  0  0  0  0  0  0  0  0
   -8.1037   -1.7210   -0.7502 H   0  0  0  0  0  0  0  0  0  0  0  0
   -7.3150    0.7891   -1.5261 H   0  0  0  0  0  0  0  0  0  0  0  0
   -8.3664    0.8797    0.0139 H   0  0  0  0  0  0  0  0  0  0  0  0
   -6.7926    1.7218   -0.0905 H   0  0  0  0  0  0  0  0  0  0  0  0
   -6.3330   -1.3018    2.1177 H   0  0  0  0  0  0  0  0  0  0  0  0
   -7.2735    0.3022    2.0554 H   0  0  0  0  0  0  0  0  0  0  0  0
   -7.9701   -1.2025    1.4771 H   0  0  0  0  0  0  0  0  0  0  0  0
  1  2  1  0
  2  3  1  0
  3  4  1  0
  4  5  1  0
  5  6  1  0
  6  7  1  0
  7  8  1  0
  8  9  2  0
  9 10  1  0
 10 11  2  0
 11 12  1  0
 12 13  2  0
 13 14  1  0
 14 15  2  0
 15 16  1  0
 16 17  2  0
 15 18  1  0
 18 19  1  0
 18 20  1  0
 18 21  1  0
 11 22  1  0
 22 23  2  0
 23 24  1  0
 24 25  2  0
 25 26  1  0
 26 27  2  0
  4 28  1  0
 28 29  2  0
 28 30  1  0
 30 31  1  0
 31 32  1  0
 31 33  1  0
 31 34  1  0
  7  2  1  0
 27  8  1  0
 17 12  1  0
 27 22  1  0
  1 35  1  0
  1 36  1  0
  1 37  1  0
  2 38  1  1
  3 39  1  0
  3 40  1  0
  5 41  1  0
  5 42  1  0
  6 43  1  0
  6 44  1  0
 13 45  1  0
 14 46  1  0
 16 47  1  0
 17 48  1  0
 23 49  1  0
 24 50  1  0
 25 51  1  0
 26 52  1  0
 32 53  1  0
 32 54  1  0
 32 55  1  0
 33 56  1  0
 33 57  1  0
 33 58  1  0
 34 59  1  0
 34 60  1  0
 34 61  1  0
M  END
$$$$
[H]c1c([H])c([H])c(C2=NC([H])([H])c3nnc(C([H])([H])[H])n3-c3c([H])c([H])c(Cl)c([H])c32)c([H])c1[H]
     RDKit          3D

 35 38  0  0  0  0  0  0  0  0999 V2000
   -3.9386    1.2489   -0.6459 C   0  0  0  0  0  0  0  0  0  0  0  0
   -3.2896    0.0059   -1.0786 C   0  0  0  0  0  0  0  0  0  0  0  0
   -3.6261   -0.7990   -2.1404 N   0  0  0  0  0  0  0  0  0  0  0  0
   -2.7315   -1.8038   -2.2475 N   0  0  0  0  0  0  0  0  0  0  0  0
   -1.8346   -1.6721   -1.2927 C   0  0  0  0  0  0  0  0  0  0  0  0
   -0.6540   -2.5385   -1.0867 C   0  0  0  0  0  0  0  0  0  0  0  0
    0.5678   -1.7547   -0.9529 N   0  0  0  0  0  0  0  0  0  0  0  0
    0.8434   -0.6879   -0.2515 C   0  0  0  0  0  0  0  0  0  0  0  0
    2.1447   -0.0808   -0.2933 C   0  0  0  0  0  0  0  0  0  0  0  0
    3.1111   -0.8535   -0.9969 C   0  0  0  0  0  0  0  0  0  0  0  0
    4.3717   -0.4144   -1.2616 C   0  0  0  0  0  0  0  0  0  0  0  0
    4.7714    0.8403   -0.8422 C   0  0  0  0  0  0  0  0  0  0  0  0
    3.8414    1.5902   -0.1640 C   0  0  0  0  0  0  0  0  0  0  0  0
    2.5530    1.1417    0.1053 C   0  0  0  0  0  0  0  0  0  0  0  0
   -0.1220   -0.1640    0.6971 C   0  0  0  0  0  0  0  0  0  0  0  0
    0.4177    0.2694    1.8845 C   0  0  0  0  0  0  0  0  0  0  0  0
   -0.3956    0.7684    2.8712 C   0  0  0  0  0  0  0  0  0  0  0  0
    0.3802    1.3102    4.3496 Cl  0  0  0  0  0  0  0  0  0  0  0  0
   -1.7774    0.8376    2.6863 C   0  0  0  0  0  0  0  0  0  0  0  0
   -2.3723    0.4075    1.5095 C   0  0  0  0  0  0  0  0  0  0  0  0
   -1.5205   -0.0738    0.5636 C   0  0  0  0  0  0  0  0  0  0  0  0
   -2.2070   -0.5559   -0.5919 N   0  0  0  0  0  0  0  0  0  0  0  0
   -3.2803    2.0490   -0.2563 H   0  0  0  0  0  0  0  0  0  0  0  0
   -4.2497    1.7428   -1.6332 H   0  0  0  0  0  0  0  0  0  0  0  0
   -4.9229    1.1550   -0.1660 H   0  0  0  0  0  0  0  0  0  0  0  0
   -0.8606   -3.1947   -0.2290 H   0  0  0  0  0  0  0  0  0  0  0  0
   -0.5312   -3.1677   -1.9823 H   0  0  0  0  0  0  0  0  0  0  0  0
    2.8425   -1.8395   -1.3425 H   0  0  0  0  0  0  0  0  0  0  0  0
    5.0577   -1.0752   -1.8117 H   0  0  0  0  0  0  0  0  0  0  0  0
    5.7704    1.1498   -1.0681 H   0  0  0  0  0  0  0  0  0  0  0  0
    4.1047    2.5795    0.1856 H   0  0  0  0  0  0  0  0  0  0  0  0
    1.8449    1.8001    0.5937 H   0  0  0  0  0  0  0  0  0  0  0  0
    1.4919    0.1439    2.0185 H   0  0  0  0  0  0  0  0  0  0  0  0
   -2.3863    1.2337    3.4771 H   0  0  0  0  0  0  0  0  0  0  0  0
   -3.4141    0.4015    1.3932 H   0  0  0  0  0  0  0  0  0  0  0  0
  1  2  1  0
  2  3  2  0
  3  4  1  0
  4  5  2  0
  5  6  1  0
  6  7  1  0
  7  8  2  0
  8  9  1  0
  9 10  2  0
 10 11  1  0
 11 12  2  0
 12 13  1  0
 13 14  2  0
  8 15  1  0
 15 16  2  0
 16 17  1  0
 17 18  1  0
 17 19  2  0
 19 20  1  0
 20 21  2  0
 21 22  1  0
 22  2  1  0
 22  5  1  0
 14  9  1  0
 21 15  1  0
  1 23  1  0
  1 24  1  0
  1 25  1  0
  6 26  1  0
  6 27  1  0
 10 28  1  0
 11 29  1  0
 12 30  1  0
 13 31  1  0
 14 32  1  0
 16 33  1  0
 19 34  1  0
 20 35  1  0
M  END
$$$$
[H]c1nc(OC([H])([H])[H])c(N([H])S(=O)(=O)C([H])([H])[H])c([H])c1-c1c([H])c(OC([H])([H])[H])c2nc(-c3c(C([H])([H])[H])nn(C([H])([H])[H])c3C([H])([H])[H])n([H])c2c1[H]
     RDKit          3D

 56 59  0  0  0  0  0  0  0  0999 V2000
    6.5515   -3.5850    1.6902 C   0  0  0  0  0  0  0  0  0  0  0  0
    6.3392   -2.2493    1.2577 O   0  0  0  0  0  0  0  0  0  0  0  0
    5.0532   -1.7884    0.9370 C   0  0  0  0  0  0  0  0  0  0  0  0
    3.9845   -2.5986    1.0302 N   0  0  0  0  0  0  0  0  0  0  0  0
    2.7568   -2.1523    0.7222 C   0  0  0  0  0  0  0  0  0  0  0  0
    2.5516   -0.8543    0.3019 C   0  0  0  0  0  0  0  0  0  0  0  0
    3.6558   -0.0331    0.2104 C   0  0  0  0  0  0  0  0  0  0  0  0
    4.9307   -0.4789    0.5250 C   0  0  0  0  0  0  0  0  0  0  0  0
    6.0641    0.3502    0.4348 N   0  0  0  0  0  0  0  0  0  0  0  0
    5.9289    2.0032   -0.0447 S   0  0  0  0  0  0  0  0  0  0  0  0
    4.9205    2.8997    1.1094 C   0  0  0  0  0  0  0  0  0  0  0  0
    5.3128    2.0642   -1.4124 O   0  0  0  0  0  0  0  0  0  0  0  0
    7.2893    2.6308   -0.1526 O   0  0  0  0  0  0  0  0  0  0  0  0
    1.1959   -0.4358   -0.0158 C   0  0  0  0  0  0  0  0  0  0  0  0
    0.9732    0.5290   -0.9934 C   0  0  0  0  0  0  0  0  0  0  0  0
   -0.3095    0.9218   -1.2910 C   0  0  0  0  0  0  0  0  0  0  0  0
   -0.5114    1.8781   -2.2616 O   0  0  0  0  0  0  0  0  0  0  0  0
    0.6034    2.4306   -2.9261 C   0  0  0  0  0  0  0  0  0  0  0  0
   -1.4112    0.3892   -0.6481 C   0  0  0  0  0  0  0  0  0  0  0  0
   -2.7355    0.5624   -0.7157 N   0  0  0  0  0  0  0  0  0  0  0  0
   -3.3896   -0.2426    0.1706 C   0  0  0  0  0  0  0  0  0  0  0  0
   -2.4074   -0.9180    0.7855 N   0  0  0  0  0  0  0  0  0  0  0  0
   -1.1899   -0.5581    0.3115 C   0  0  0  0  0  0  0  0  0  0  0  0
    0.0986   -0.9588    0.6167 C   0  0  0  0  0  0  0  0  0  0  0  0
   -4.8342   -0.2946    0.3456 C   0  0  0  0  0  0  0  0  0  0  0  0
   -5.5245   -1.0905    1.2251 C   0  0  0  0  0  0  0  0  0  0  0  0
   -5.0113   -2.0804    2.2042 C   0  0  0  0  0  0  0  0  0  0  0  0
   -6.8438   -0.7847    1.0198 N   0  0  0  0  0  0  0  0  0  0  0  0
   -6.9653    0.1258    0.0900 N   0  0  0  0  0  0  0  0  0  0  0  0
   -8.2056    0.7206   -0.4205 C   0  0  0  0  0  0  0  0  0  0  0  0
   -5.7526    0.4744   -0.3715 C   0  0  0  0  0  0  0  0  0  0  0  0
   -5.3767    1.4478   -1.4078 C   0  0  0  0  0  0  0  0  0  0  0  0
    7.4113   -3.6167    2.4026 H   0  0  0  0  0  0  0  0  0  0  0  0
    5.6212   -3.9304    2.1981 H   0  0  0  0  0  0  0  0  0  0  0  0
    6.7519   -4.2163    0.7938 H   0  0  0  0  0  0  0  0  0  0  0  0
    1.8864   -2.8170    0.7996 H   0  0  0  0  0  0  0  0  0  0  0  0
    3.5185    0.9815   -0.1154 H   0  0  0  0  0  0  0  0  0  0  0  0
    6.9988   -0.0248    0.6567 H   0  0  0  0  0  0  0  0  0  0  0  0
    4.6818    2.2656    1.9919 H   0  0  0  0  0  0  0  0  0  0  0  0
    5.4885    3.7780    1.4656 H   0  0  0  0  0  0  0  0  0  0  0  0
    4.0124    3.2423    0.6050 H   0  0  0  0  0  0  0  0  0  0  0  0
    1.8408    0.9392   -1.4902 H   0  0  0  0  0  0  0  0  0  0  0  0
    1.1249    1.6210   -3.4721 H   0  0  0  0  0  0  0  0  0  0  0  0
    1.2431    2.9072   -2.1555 H   0  0  0  0  0  0  0  0  0  0  0  0
    0.2833    3.1784   -3.6911 H   0  0  0  0  0  0  0  0  0  0  0  0
   -2.5223   -1.6293    1.5298 H   0  0  0  0  0  0  0  0  0  0  0  0
    0.2460   -1.7139    1.3840 H   0  0  0  0  0  0  0  0  0  0  0  0
   -4.4084   -1.5908    2.9989 H   0  0  0  0  0  0  0  0  0  0  0  0
   -5.8974   -2.5018    2.7582 H   0  0  0  0  0  0  0  0  0  0  0  0
   -4.5090   -2.9456    1.7294 H   0  0  0  0  0  0  0  0  0  0  0  0
   -9.0504    0.0207   -0.2281 H   0  0  0  0  0  0  0  0  0  0  0  0
   -8.0731    0.8218   -1.5167 H   0  0  0  0  0  0  0  0  0  0  0  0
   -8.3605    1.7033    0.0347 H   0  0  0  0  0  0  0  0  0  0  0  0
   -4.6962    2.2321   -1.0130 H   0  0  0  0  0  0  0  0  0  0  0  0
   -6.3209    1.9932   -1.6960 H   0  0  0  0  0  0  0  0  0  0  0  0
   -5.0118    0.9779   -2.3360 H   0  0  0  0  0  0  0  0  0  0  0  0
  1  2  1  0
  2  3  1  0
  3  4  2  0
  4  5  1  0
  5  6  2  0
  6  7  1  0
  7  8  2  0
  8  9  1  0
  9 10  1  0
 10 11  1  0
 10 12  2  0
 10 13  2  0
  6 14  1  0
 14 15  2  0
 15 16  1  0
 16 17  1  0
 17 18  1  0
 16 19  2  0
 19 20  1  0
 20 21  2  0
 21 22  1  0
 22 23  1  0
 23 24  2  0
 21 25  1  0
 25 26  1  0
 26 27  1  0
 26 28  2  0
 28 29  1  0
 29 30  1  0
 29 31  1  0
 31 32  1  0
  8  3  1  0
 24 14  1  0
 31 25  2  0
 23 19  1  0
  1 33  1  0
  1 34  1  0
  1 35  1  0
  5 36  1  0
  7 37  1  0
  9 38  1  0
 11 39  1  0
 11 40  1  0
 11 41  1  0
 15 42  1  0
 18 43  1  0
 18 44  1  0
 18 45  1  0
 22 46  1  0
 24 47  1  0
 27 48  1  0
 27 49  1  0
 27 50  1  0
 30 51  1  0
 30 52  1  0
 30 53  1  0
 32 54  1  0
 32 55  1  0
 32 56  1  0
M  END
$$$$
[H]OC(=O)c1nc(C(=O)c2c([H])c([H])c(F)c(O[H])c2[H])c2c([H])c(O[H])c(O[H])c([H])c2c1[H]
     RDKit          3D

 35 37  0  0  0  0  0  0  0  0999 V2000
   -3.2445   -1.6911    3.6600 O   0  0  0  0  0  0  0  0  0  0  0  0
   -1.9697   -1.7492    3.1270 C   0  0  0  0  0  0  0  0  0  0  0  0
   -1.0582   -2.2774    3.7780 O   0  0  0  0  0  0  0  0  0  0  0  0
   -1.7190   -1.1855    1.8109 C   0  0  0  0  0  0  0  0  0  0  0  0
   -2.7692   -0.6316    1.1199 C   0  0  0  0  0  0  0  0  0  0  0  0
   -2.5295   -0.0768   -0.1369 C   0  0  0  0  0  0  0  0  0  0  0  0
   -3.6100    0.4737   -0.7916 C   0  0  0  0  0  0  0  0  0  0  0  0
   -3.3802    1.0383   -2.0437 C   0  0  0  0  0  0  0  0  0  0  0  0
   -4.4296    1.5983   -2.7346 O   0  0  0  0  0  0  0  0  0  0  0  0
   -2.1286    1.0304   -2.5661 C   0  0  0  0  0  0  0  0  0  0  0  0
   -1.7970    1.5731   -3.8175 O   0  0  0  0  0  0  0  0  0  0  0  0
   -1.0283    0.4608   -1.8822 C   0  0  0  0  0  0  0  0  0  0  0  0
   -1.2293   -0.0988   -0.6592 C   0  0  0  0  0  0  0  0  0  0  0  0
   -0.1913   -0.6622    0.0528 C   0  0  0  0  0  0  0  0  0  0  0  0
   -0.4781   -1.1850    1.2654 N   0  0  0  0  0  0  0  0  0  0  0  0
    1.1417   -0.7257   -0.5150 C   0  0  0  0  0  0  0  0  0  0  0  0
    1.3126   -1.1056   -1.7372 O   0  0  0  0  0  0  0  0  0  0  0  0
    2.3729   -0.3896    0.1767 C   0  0  0  0  0  0  0  0  0  0  0  0
    2.5731   -0.4312    1.5242 C   0  0  0  0  0  0  0  0  0  0  0  0
    3.7971   -0.0616    2.0989 C   0  0  0  0  0  0  0  0  0  0  0  0
    4.8387    0.3552    1.3301 C   0  0  0  0  0  0  0  0  0  0  0  0
    6.0226    0.7148    1.8933 F   0  0  0  0  0  0  0  0  0  0  0  0
    4.6704    0.4090   -0.0317 C   0  0  0  0  0  0  0  0  0  0  0  0
    5.7417    0.8359   -0.7987 O   0  0  0  0  0  0  0  0  0  0  0  0
    3.4587    0.0423   -0.5930 C   0  0  0  0  0  0  0  0  0  0  0  0
   -3.6398   -0.7419    3.7202 H   0  0  0  0  0  0  0  0  0  0  0  0
   -3.7857   -0.6122    1.5278 H   0  0  0  0  0  0  0  0  0  0  0  0
   -4.5961    0.4697   -0.3536 H   0  0  0  0  0  0  0  0  0  0  0  0
   -4.3969    2.0269   -3.6287 H   0  0  0  0  0  0  0  0  0  0  0  0
   -2.5426    1.9845   -4.3466 H   0  0  0  0  0  0  0  0  0  0  0  0
   -0.0647    0.5052   -2.3413 H   0  0  0  0  0  0  0  0  0  0  0  0
    1.7969   -0.7550    2.1964 H   0  0  0  0  0  0  0  0  0  0  0  0
    3.8799   -0.1157    3.1658 H   0  0  0  0  0  0  0  0  0  0  0  0
    5.6081    0.8751   -1.8033 H   0  0  0  0  0  0  0  0  0  0  0  0
    3.3737    0.1028   -1.6667 H   0  0  0  0  0  0  0  0  0  0  0  0
  1  2  1  0
  2  3  2  0
  2  4  1  0
  4  5  2  0
  5  6  1  0
  6  7  2  0
  7  8  1  0
  8  9  1  0
  8 10  2  0
 10 11  1  0
 10 12  1  0
 12 13  2  0
 13 14  1  0
 14 15  2  0
 14 16  1  0
 16 17  2  0
 16 18  1  0
 18 19  2  0
 19 20  1  0
 20 21  2  0
 21 22  1  0
 21 23  1  0
 23 24  1  0
 23 25  2  0
 15  4  1  0
 25 18  1  0
 13  6  1  0
  1 26  1  0
  5 27  1  0
  7 28  1  0
  9 29  1  0
 11 30  1  0
 12 31  1  0
 19 32  1  0
 20 33  1  0
 24 34  1  0
 25 35  1  0
M  END
$$$$
[H]ON([H])C(=O)C([H])([H])C([H])([H])C([H])([H])C([H])([H])C([H])([H])C([H])([H])Oc1c(OC([H])([H])[H])c([H])c2nc([H])nc(N([H])c3c([H])c([H])c(F)c(Cl)c3[H])c2c1[H]
     RDKit          3D

 56 58  0  0  0  0  0  0  0  0999 V2000
   -2.0783   -5.4144    1.5774 C   0  0  0  0  0  0  0  0  0  0  0  0
   -1.3276   -4.2803    1.2084 O   0  0  0  0  0  0  0  0  0  0  0  0
   -1.9803   -3.0878    0.9361 C   0  0  0  0  0  0  0  0  0  0  0  0
   -3.3346   -2.9225    1.0018 C   0  0  0  0  0  0  0  0  0  0  0  0
   -3.9820   -1.7544    0.7358 C   0  0  0  0  0  0  0  0  0  0  0  0
   -5.3214   -1.6378    0.8075 N   0  0  0  0  0  0  0  0  0  0  0  0
   -5.9699   -0.5032    0.5440 C   0  0  0  0  0  0  0  0  0  0  0  0
   -5.2681    0.5806    0.1908 N   0  0  0  0  0  0  0  0  0  0  0  0
   -3.9097    0.5459    0.0955 C   0  0  0  0  0  0  0  0  0  0  0  0
   -3.1730    1.7018   -0.2336 N   0  0  0  0  0  0  0  0  0  0  0  0
   -3.8467    2.9154   -0.5613 C   0  0  0  0  0  0  0  0  0  0  0  0
   -5.0422    3.0311   -1.2044 C   0  0  0  0  0  0  0  0  0  0  0  0
   -5.6478    4.2623   -1.4606 C   0  0  0  0  0  0  0  0  0  0  0  0
   -5.0100    5.4077   -1.0488 C   0  0  0  0  0  0  0  0  0  0  0  0
   -5.5843    6.6041   -1.2930 F   0  0  0  0  0  0  0  0  0  0  0  0
   -3.7887    5.3167   -0.3928 C   0  0  0  0  0  0  0  0  0  0  0  0
   -2.9724    6.7629    0.1363 Cl  0  0  0  0  0  0  0  0  0  0  0  0
   -3.2124    4.0925   -0.1498 C   0  0  0  0  0  0  0  0  0  0  0  0
   -3.2276   -0.6296    0.3664 C   0  0  0  0  0  0  0  0  0  0  0  0
   -1.8659   -0.7784    0.2956 C   0  0  0  0  0  0  0  0  0  0  0  0
   -1.1910   -1.9778    0.5677 C   0  0  0  0  0  0  0  0  0  0  0  0
    0.1147   -2.0735    0.4862 O   0  0  0  0  0  0  0  0  0  0  0  0
    1.3360   -1.6498    0.2682 C   0  0  0  0  0  0  0  0  0  0  0  0
    1.7056   -0.4909    1.1763 C   0  0  0  0  0  0  0  0  0  0  0  0
    3.1053   -0.0360    0.9387 C   0  0  0  0  0  0  0  0  0  0  0  0
    4.1607   -1.0546    1.2184 C   0  0  0  0  0  0  0  0  0  0  0  0
    5.5532   -0.5101    0.9567 C   0  0  0  0  0  0  0  0  0  0  0  0
    5.7740   -0.1166   -0.4697 C   0  0  0  0  0  0  0  0  0  0  0  0
    7.1711    0.4123   -0.6063 C   0  0  0  0  0  0  0  0  0  0  0  0
    7.9530    0.5206    0.3645 O   0  0  0  0  0  0  0  0  0  0  0  0
    7.5842    0.7913   -1.9097 N   0  0  0  0  0  0  0  0  0  0  0  0
    8.8246    1.2691   -2.1075 O   0  0  0  0  0  0  0  0  0  0  0  0
   -2.5262   -5.3220    2.6039 H   0  0  0  0  0  0  0  0  0  0  0  0
   -1.4422   -6.3113    1.5919 H   0  0  0  0  0  0  0  0  0  0  0  0
   -2.9387   -5.5439    0.8627 H   0  0  0  0  0  0  0  0  0  0  0  0
   -3.9315   -3.7881    1.2877 H   0  0  0  0  0  0  0  0  0  0  0  0
   -7.0504   -0.3802    0.5904 H   0  0  0  0  0  0  0  0  0  0  0  0
   -2.1157    1.6917   -0.2400 H   0  0  0  0  0  0  0  0  0  0  0  0
   -5.5496    2.1602   -1.5595 H   0  0  0  0  0  0  0  0  0  0  0  0
   -6.5840    4.2760   -1.9662 H   0  0  0  0  0  0  0  0  0  0  0  0
   -2.2663    4.0155    0.3621 H   0  0  0  0  0  0  0  0  0  0  0  0
   -1.2638    0.0909    0.0088 H   0  0  0  0  0  0  0  0  0  0  0  0
    1.5362   -1.2494   -0.7772 H   0  0  0  0  0  0  0  0  0  0  0  0
    2.1595   -2.4102    0.4030 H   0  0  0  0  0  0  0  0  0  0  0  0
    1.5318   -0.7258    2.2508 H   0  0  0  0  0  0  0  0  0  0  0  0
    1.0324    0.3819    0.9485 H   0  0  0  0  0  0  0  0  0  0  0  0
    3.3450    0.8711    1.5276 H   0  0  0  0  0  0  0  0  0  0  0  0
    3.1613    0.2786   -0.1360 H   0  0  0  0  0  0  0  0  0  0  0  0
    4.1409   -1.4208    2.2605 H   0  0  0  0  0  0  0  0  0  0  0  0
    4.0594   -1.9335    0.5146 H   0  0  0  0  0  0  0  0  0  0  0  0
    6.2374   -1.3720    1.1757 H   0  0  0  0  0  0  0  0  0  0  0  0
    5.8204    0.2973    1.6617 H   0  0  0  0  0  0  0  0  0  0  0  0
    5.0286    0.5472   -0.9036 H   0  0  0  0  0  0  0  0  0  0  0  0
    5.7071   -1.0735   -1.0757 H   0  0  0  0  0  0  0  0  0  0  0  0
    6.9487    0.7085   -2.7174 H   0  0  0  0  0  0  0  0  0  0  0  0
    9.4112    0.9152   -1.3736 H   0  0  0  0  0  0  0  0  0  0  0  0
  1  2  1  0
  2  3  1  0
  3  4  2  0
  4  5  1  0
  5  6  2  0
  6  7  1  0
  7  8  2  0
  8  9  1  0
  9 10  1  0
 10 11  1  0
 11 12  2  0
 12 13  1  0
 13 14  2  0
 14 15  1  0
 14 16  1  0
 16 17  1  0
 16 18  2  0
  9 19  2  0
 19 20  1  0
 20 21  2  0
 21 22  1  0
 22 23  1  0
 23 24  1  0
 24 25  1  0
 25 26  1  0
 26 27  1  0
 27 28  1  0
 28 29  1  0
 29 30  2  0
 29 31  1  0
 31 32  1  0
 21  3  1  0
 19  5  1  0
 18 11  1  0
  1 33  1  0
  1 34  1  0
  1 35  1  0
  4 36  1  0
  7 37  1  0
 10 38  1  0
 12 39  1  0
 13 40  1  0
 18 41  1  0
 20 42  1  0
 23 43  1  0
 23 44  1  0
 24 45  1  0
 24 46  1  0
 25 47  1  0
 25 48  1  0
 26 49  1  0
 26 50  1  0
 27 51  1  0
 27 52  1  0
 28 53  1  0
 28 54  1  0
 31 55  1  0
 32 56  1  0
M  END
$$$$
[H]OC(=O)[C@]1([H])C([H])([H])[C@@]2([H])N([C@@]([H])(c3nc(-c4c([H])c([H])c(C([H])([H])[H])c([H])c4[H])c([H])n3[H])C([H])([H])[H])[C@]([H])(C([H])([H])C2([H])[H])C1([H])[H]
     RDKit          3D

 50 53  0  0  0  0  0  0  0  0999 V2000
   -1.3805   -2.7652    0.8289 C   0  0  0  0  0  0  0  0  0  0  0  0
   -1.1860   -1.3568    0.2383 C   0  0  1  0  0  0  0  0  0  0  0  0
   -2.2591   -0.5808    0.6172 N   0  0  0  0  0  0  0  0  0  0  0  0
   -3.5622   -0.9124    0.2017 C   0  0  1  0  0  0  0  0  0  0  0  0
   -4.4138   -0.1399    1.2028 C   0  0  0  0  0  0  0  0  0  0  0  0
   -3.5301    1.0421    1.6003 C   0  0  0  0  0  0  0  0  0  0  0  0
   -2.2040    0.7711    0.8678 C   0  0  2  0  0  0  0  0  0  0  0  0
   -2.2850    1.5454   -0.4156 C   0  0  0  0  0  0  0  0  0  0  0  0
   -3.1679    0.9483   -1.4674 C   0  0  1  0  0  0  0  0  0  0  0  0
   -3.7333   -0.3869   -1.2057 C   0  0  0  0  0  0  0  0  0  0  0  0
   -4.2520    1.8758   -1.8874 C   0  0  0  0  0  0  0  0  0  0  0  0
   -4.0304    3.1231   -2.4402 O   0  0  0  0  0  0  0  0  0  0  0  0
   -5.4414    1.5134   -1.7349 O   0  0  0  0  0  0  0  0  0  0  0  0
    0.1356   -0.9163    0.6733 C   0  0  0  0  0  0  0  0  0  0  0  0
    1.2246   -0.8700   -0.1116 N   0  0  0  0  0  0  0  0  0  0  0  0
    2.2668   -0.4315    0.5682 C   0  0  0  0  0  0  0  0  0  0  0  0
    1.8661   -0.1749    1.8496 C   0  0  0  0  0  0  0  0  0  0  0  0
    0.5500   -0.4845    1.8777 N   0  0  0  0  0  0  0  0  0  0  0  0
    3.6152   -0.2644   -0.0075 C   0  0  0  0  0  0  0  0  0  0  0  0
    3.8553   -0.5710   -1.3240 C   0  0  0  0  0  0  0  0  0  0  0  0
    5.1048   -0.4153   -1.8558 C   0  0  0  0  0  0  0  0  0  0  0  0
    6.1612    0.0505   -1.1002 C   0  0  0  0  0  0  0  0  0  0  0  0
    7.5256    0.2142   -1.7052 C   0  0  0  0  0  0  0  0  0  0  0  0
    5.9139    0.3554    0.2160 C   0  0  0  0  0  0  0  0  0  0  0  0
    4.6579    0.2013    0.7595 C   0  0  0  0  0  0  0  0  0  0  0  0
   -2.2266   -3.2896    0.3808 H   0  0  0  0  0  0  0  0  0  0  0  0
   -0.4413   -3.3465    0.7477 H   0  0  0  0  0  0  0  0  0  0  0  0
   -1.5159   -2.5821    1.9367 H   0  0  0  0  0  0  0  0  0  0  0  0
   -1.1914   -1.5168   -0.8599 H   0  0  0  0  0  0  0  0  0  0  0  0
   -3.7957   -1.9945    0.1996 H   0  0  0  0  0  0  0  0  0  0  0  0
   -5.3895    0.1554    0.8182 H   0  0  0  0  0  0  0  0  0  0  0  0
   -4.5625   -0.7582    2.1288 H   0  0  0  0  0  0  0  0  0  0  0  0
   -3.3185    1.0647    2.6765 H   0  0  0  0  0  0  0  0  0  0  0  0
   -3.9528    2.0014    1.2757 H   0  0  0  0  0  0  0  0  0  0  0  0
   -1.3738    1.1852    1.4561 H   0  0  0  0  0  0  0  0  0  0  0  0
   -1.2615    1.8077   -0.7740 H   0  0  0  0  0  0  0  0  0  0  0  0
   -2.7398    2.5436   -0.1428 H   0  0  0  0  0  0  0  0  0  0  0  0
   -2.5078    0.8707   -2.3887 H   0  0  0  0  0  0  0  0  0  0  0  0
   -4.7988   -0.4259   -1.5203 H   0  0  0  0  0  0  0  0  0  0  0  0
   -3.2351   -1.1639   -1.8612 H   0  0  0  0  0  0  0  0  0  0  0  0
   -4.6065    3.8882   -2.1142 H   0  0  0  0  0  0  0  0  0  0  0  0
    2.5048    0.1927    2.6265 H   0  0  0  0  0  0  0  0  0  0  0  0
   -0.0338   -0.3863    2.7460 H   0  0  0  0  0  0  0  0  0  0  0  0
    3.0316   -0.9363   -1.9206 H   0  0  0  0  0  0  0  0  0  0  0  0
    5.3206   -0.6512   -2.8958 H   0  0  0  0  0  0  0  0  0  0  0  0
    8.1796    0.6912   -0.9462 H   0  0  0  0  0  0  0  0  0  0  0  0
    7.8728   -0.7895   -2.0112 H   0  0  0  0  0  0  0  0  0  0  0  0
    7.3916    0.8961   -2.5711 H   0  0  0  0  0  0  0  0  0  0  0  0
    6.7472    0.7271    0.8283 H   0  0  0  0  0  0  0  0  0  0  0  0
    4.4721    0.4461    1.8034 H   0  0  0  0  0  0  0  0  0  0  0  0
  1  2  1  0
  2  3  1  0
  3  4  1  0
  4  5  1  0
  5  6  1  0
  6  7  1  0
  7  8  1  0
  8  9  1  0
  9 10  1  0
  9 11  1  0
 11 12  1  0
 11 13  2  0
  2 14  1  0
 14 15  2  0
 15 16  1  0
 16 17  2  0
 17 18  1  0
 16 19  1  0
 19 20  2  0
 20 21  1  0
 21 22  2  0
 22 23  1  0
 22 24  1  0
 24 25  2  0
  7  3  1  0
 18 14  1  0
 25 19  1  0
 10  4  1  0
  1 26  1  0
  1 27  1  0
  1 28  1  0
  2 29  1  6
  4 30  1  6
  5 31  1  0
  5 32  1  0
  6 33  1  0
  6 34  1  0
  7 35  1  1
  8 36  1  0
  8 37  1  0
  9 38  1  6
 10 39  1  0
 10 40  1  0
 12 41  1  0
 17 42  1  0
 18 43  1  0
 20 44  1  0
 21 45  1  0
 23 46  1  0
 23 47  1  0
 23 48  1  0
 24 49  1  0
 25 50  1  0
M  END
$$$$
[H]c1nc(N([H])c2c([H])c([H])c([N+](=O)[O-])c([H])c2OC([H])([H])[H])nc(N([H])c2c([H])c([H])c([H])c([H])c2S(=O)(=O)C([H])(C([H])([H])[H])C([H])([H])[H])c1Cl
     RDKit          3D

 52 54  0  0  0  0  0  0  0  0999 V2000
    5.3729    2.6168   -2.1854 C   0  0  0  0  0  0  0  0  0  0  0  0
    4.5964    1.6737   -1.4959 O   0  0  0  0  0  0  0  0  0  0  0  0
    5.1794    0.6551   -0.7614 C   0  0  0  0  0  0  0  0  0  0  0  0
    6.5496    0.5376   -0.6861 C   0  0  0  0  0  0  0  0  0  0  0  0
    7.1629   -0.4517    0.0269 C   0  0  0  0  0  0  0  0  0  0  0  0
    6.3554   -1.3390    0.6762 C   0  0  0  0  0  0  0  0  0  0  0  0
    4.9635   -1.2241    0.6029 C   0  0  0  0  0  0  0  0  0  0  0  0
    4.3253   -0.2461   -0.1018 C   0  0  0  0  0  0  0  0  0  0  0  0
    2.9482   -0.0410   -0.2406 N   0  0  0  0  0  0  0  0  0  0  0  0
    1.9284   -0.8433    0.3485 C   0  0  0  0  0  0  0  0  0  0  0  0
    2.1080   -1.9066    1.1183 N   0  0  0  0  0  0  0  0  0  0  0  0
    1.1158   -2.6314    1.6510 C   0  0  0  0  0  0  0  0  0  0  0  0
   -0.1767   -2.2655    1.3949 C   0  0  0  0  0  0  0  0  0  0  0  0
   -1.4700   -3.2135    2.0917 Cl  0  0  0  0  0  0  0  0  0  0  0  0
   -0.4307   -1.1509    0.5886 C   0  0  0  0  0  0  0  0  0  0  0  0
   -1.7766   -0.7912    0.3410 N   0  0  0  0  0  0  0  0  0  0  0  0
   -2.3174    0.2451   -0.4093 C   0  0  0  0  0  0  0  0  0  0  0  0
   -1.5773    1.1426   -1.1337 C   0  0  0  0  0  0  0  0  0  0  0  0
   -2.1600    2.1744   -1.8952 C   0  0  0  0  0  0  0  0  0  0  0  0
   -3.5231    2.3068   -1.9290 C   0  0  0  0  0  0  0  0  0  0  0  0
   -4.2858    1.4160   -1.2084 C   0  0  0  0  0  0  0  0  0  0  0  0
   -3.6992    0.4121   -0.4680 C   0  0  0  0  0  0  0  0  0  0  0  0
   -4.7259   -0.6528    0.4100 S   0  0  0  0  0  0  0  0  0  0  0  0
   -4.6439   -2.0806   -0.0455 O   0  0  0  0  0  0  0  0  0  0  0  0
   -4.4492   -0.6544    1.9061 O   0  0  0  0  0  0  0  0  0  0  0  0
   -6.4655   -0.2305    0.1669 C   0  0  0  0  0  0  0  0  0  0  0  0
   -7.2192   -1.4064    0.8152 C   0  0  0  0  0  0  0  0  0  0  0  0
   -6.8503    1.0305    0.8529 C   0  0  0  0  0  0  0  0  0  0  0  0
    0.6226   -0.5118    0.1176 N   0  0  0  0  0  0  0  0  0  0  0  0
    8.5762   -0.5059    0.0560 N   0  0  0  0  0  0  0  0  0  0  0  0
    9.3245    0.4161   -0.6180 O   0  0  0  0  0  0  0  0  0  0  0  0
    9.1713   -1.3930    0.6950 O   0  0  0  0  0  0  0  0  0  0  0  0
    6.1662    3.0499   -1.5482 H   0  0  0  0  0  0  0  0  0  0  0  0
    5.8913    2.1004   -3.0429 H   0  0  0  0  0  0  0  0  0  0  0  0
    4.6841    3.4015   -2.5851 H   0  0  0  0  0  0  0  0  0  0  0  0
    7.1349    1.2795   -1.2283 H   0  0  0  0  0  0  0  0  0  0  0  0
    6.8066   -2.1371    1.2517 H   0  0  0  0  0  0  0  0  0  0  0  0
    4.4096   -1.9645    1.1438 H   0  0  0  0  0  0  0  0  0  0  0  0
    2.6352    0.7871   -0.8388 H   0  0  0  0  0  0  0  0  0  0  0  0
    1.3552   -3.5082    2.2850 H   0  0  0  0  0  0  0  0  0  0  0  0
   -2.4824   -1.4436    0.8170 H   0  0  0  0  0  0  0  0  0  0  0  0
   -0.5054    1.1047   -1.1602 H   0  0  0  0  0  0  0  0  0  0  0  0
   -1.5486    2.8672   -2.4564 H   0  0  0  0  0  0  0  0  0  0  0  0
   -3.9527    3.1071   -2.5210 H   0  0  0  0  0  0  0  0  0  0  0  0
   -5.3537    1.5549   -1.2658 H   0  0  0  0  0  0  0  0  0  0  0  0
   -6.6819   -0.2892   -0.8947 H   0  0  0  0  0  0  0  0  0  0  0  0
   -8.2598   -1.4516    0.4951 H   0  0  0  0  0  0  0  0  0  0  0  0
   -6.6516   -2.3440    0.5937 H   0  0  0  0  0  0  0  0  0  0  0  0
   -7.2109   -1.2909    1.9249 H   0  0  0  0  0  0  0  0  0  0  0  0
   -7.3712    1.6831    0.0927 H   0  0  0  0  0  0  0  0  0  0  0  0
   -6.0004    1.5665    1.3258 H   0  0  0  0  0  0  0  0  0  0  0  0
   -7.5942    0.8398    1.6352 H   0  0  0  0  0  0  0  0  0  0  0  0
  1  2  1  0
  2  3  1  0
  3  4  2  0
  4  5  1  0
  5  6  2  0
  6  7  1  0
  7  8  2  0
  8  9  1  0
  9 10  1  0
 10 11  2  0
 11 12  1  0
 12 13  2  0
 13 14  1  0
 13 15  1  0
 15 16  1  0
 16 17  1  0
 17 18  2  0
 18 19  1  0
 19 20  2  0
 20 21  1  0
 21 22  2  0
 22 23  1  0
 23 24  2  0
 23 25  2  0
 23 26  1  0
 26 27  1  0
 26 28  1  0
 15 29  2  0
  5 30  1  0
 30 31  1  0
 30 32  2  0
  8  3  1  0
 29 10  1  0
 22 17  1  0
  1 33  1  0
  1 34  1  0
  1 35  1  0
  4 36  1  0
  6 37  1  0
  7 38  1  0
  9 39  1  0
 12 40  1  0
 16 41  1  0
 18 42  1  0
 19 43  1  0
 20 44  1  0
 21 45  1  0
 26 46  1  0
 27 47  1  0
 27 48  1  0
 27 49  1  0
 28 50  1  0
 28 51  1  0
 28 52  1  0
M  CHG  2  30   1  31  -1
M  END
$$$$
[H]c1nc(N([H])c2c([H])c([H])c(OC([H])([H])c3c([H])c([H])c([H])c(F)c3[H])c(Cl)c2[H])c2c([H])c(-c3oc(C([H])([H])N([H])C([H])([H])C([H])([H])S(=O)(=O)C([H])([H])[H])c([H])c3[H])c([H])c([H])c2n1
     RDKit          3D

 66 70  0  0  0  0  0  0  0  0999 V2000
  -10.9120    0.8479   -0.2841 C   0  0  0  0  0  0  0  0  0  0  0  0
  -10.1733   -0.7401   -0.2927 S   0  0  0  0  0  0  0  0  0  0  0  0
  -11.0856   -1.8806   -0.4942 O   0  0  0  0  0  0  0  0  0  0  0  0
   -9.1107   -0.7368   -1.3861 O   0  0  0  0  0  0  0  0  0  0  0  0
   -9.2298   -1.0230    1.2375 C   0  0  0  0  0  0  0  0  0  0  0  0
   -8.2208    0.0653    1.2856 C   0  0  0  0  0  0  0  0  0  0  0  0
   -7.2178    0.0463    2.3240 N   0  0  0  0  0  0  0  0  0  0  0  0
   -6.3829   -1.1449    2.1160 C   0  0  0  0  0  0  0  0  0  0  0  0
   -4.9405   -0.8460    2.1683 C   0  0  0  0  0  0  0  0  0  0  0  0
   -3.9962   -1.0545    3.1064 C   0  0  0  0  0  0  0  0  0  0  0  0
   -2.8087   -0.5531    2.5308 C   0  0  0  0  0  0  0  0  0  0  0  0
   -3.0981   -0.0798    1.3069 C   0  0  0  0  0  0  0  0  0  0  0  0
   -4.3769   -0.2745    1.1382 O   0  0  0  0  0  0  0  0  0  0  0  0
   -2.2626    0.5529    0.2573 C   0  0  0  0  0  0  0  0  0  0  0  0
   -2.9159    1.2428   -0.7690 C   0  0  0  0  0  0  0  0  0  0  0  0
   -2.2397    1.7530   -1.8441 C   0  0  0  0  0  0  0  0  0  0  0  0
   -0.8824    1.5983   -1.9432 C   0  0  0  0  0  0  0  0  0  0  0  0
   -0.1823    2.0411   -3.0037 N   0  0  0  0  0  0  0  0  0  0  0  0
    1.1368    1.8409   -3.1108 C   0  0  0  0  0  0  0  0  0  0  0  0
    1.7801    1.1832   -2.1383 N   0  0  0  0  0  0  0  0  0  0  0  0
    1.1560    0.7006   -1.0310 C   0  0  0  0  0  0  0  0  0  0  0  0
    1.8969    0.0059   -0.0315 N   0  0  0  0  0  0  0  0  0  0  0  0
    3.2864   -0.1599   -0.3726 C   0  0  0  0  0  0  0  0  0  0  0  0
    4.2732    0.7634   -0.1494 C   0  0  0  0  0  0  0  0  0  0  0  0
    5.5719    0.5446   -0.5949 C   0  0  0  0  0  0  0  0  0  0  0  0
    5.9239   -0.5931   -1.2744 C   0  0  0  0  0  0  0  0  0  0  0  0
    7.1246   -0.8891   -1.7599 O   0  0  0  0  0  0  0  0  0  0  0  0
    8.3834   -0.5252   -1.8794 C   0  0  0  0  0  0  0  0  0  0  0  0
    9.2962   -0.3338   -0.7474 C   0  0  0  0  0  0  0  0  0  0  0  0
   10.6651   -0.1244   -1.0653 C   0  0  0  0  0  0  0  0  0  0  0  0
   11.5659    0.0710   -0.0528 C   0  0  0  0  0  0  0  0  0  0  0  0
   11.1922    0.0741    1.2996 C   0  0  0  0  0  0  0  0  0  0  0  0
    9.8682   -0.1273    1.6172 C   0  0  0  0  0  0  0  0  0  0  0  0
    9.3767   -0.1354    2.8873 F   0  0  0  0  0  0  0  0  0  0  0  0
    8.9537   -0.3282    0.5689 C   0  0  0  0  0  0  0  0  0  0  0  0
    4.8800   -1.5264   -1.4809 C   0  0  0  0  0  0  0  0  0  0  0  0
    5.2620   -3.0305   -2.3289 Cl  0  0  0  0  0  0  0  0  0  0  0  0
    3.6060   -1.3162   -1.0441 C   0  0  0  0  0  0  0  0  0  0  0  0
   -0.1800    0.9108   -0.9322 C   0  0  0  0  0  0  0  0  0  0  0  0
   -0.9092    0.4065    0.1487 C   0  0  0  0  0  0  0  0  0  0  0  0
  -10.1351    1.6306   -0.5653 H   0  0  0  0  0  0  0  0  0  0  0  0
  -11.6823    0.9639   -1.0866 H   0  0  0  0  0  0  0  0  0  0  0  0
  -11.2980    1.1246    0.6963 H   0  0  0  0  0  0  0  0  0  0  0  0
   -8.6915   -1.9883    1.0959 H   0  0  0  0  0  0  0  0  0  0  0  0
   -9.9572   -1.0221    2.0441 H   0  0  0  0  0  0  0  0  0  0  0  0
   -7.7183    0.1939    0.2706 H   0  0  0  0  0  0  0  0  0  0  0  0
   -8.8020    1.0291    1.3927 H   0  0  0  0  0  0  0  0  0  0  0  0
   -6.6524    0.9000    2.2736 H   0  0  0  0  0  0  0  0  0  0  0  0
   -6.6491   -1.6610    1.1870 H   0  0  0  0  0  0  0  0  0  0  0  0
   -6.6487   -1.8315    2.9648 H   0  0  0  0  0  0  0  0  0  0  0  0
   -4.0265   -1.4903    4.0785 H   0  0  0  0  0  0  0  0  0  0  0  0
   -1.8139   -0.5513    2.9916 H   0  0  0  0  0  0  0  0  0  0  0  0
   -4.0152    1.3510   -0.6756 H   0  0  0  0  0  0  0  0  0  0  0  0
   -2.7459    2.2925   -2.6309 H   0  0  0  0  0  0  0  0  0  0  0  0
    1.6727    2.2038   -3.9522 H   0  0  0  0  0  0  0  0  0  0  0  0
    1.5564   -0.3587    0.8617 H   0  0  0  0  0  0  0  0  0  0  0  0
    3.9907    1.6725    0.3839 H   0  0  0  0  0  0  0  0  0  0  0  0
    6.3146    1.2931   -0.4064 H   0  0  0  0  0  0  0  0  0  0  0  0
    8.8915   -1.3249   -2.5793 H   0  0  0  0  0  0  0  0  0  0  0  0
    8.5319    0.3916   -2.5868 H   0  0  0  0  0  0  0  0  0  0  0  0
   10.9212   -0.1340   -2.1029 H   0  0  0  0  0  0  0  0  0  0  0  0
   12.5957    0.2285   -0.2957 H   0  0  0  0  0  0  0  0  0  0  0  0
   11.9030    0.2273    2.0930 H   0  0  0  0  0  0  0  0  0  0  0  0
    7.9321   -0.5033    0.8574 H   0  0  0  0  0  0  0  0  0  0  0  0
    2.8310   -2.0850   -1.2350 H   0  0  0  0  0  0  0  0  0  0  0  0
   -0.3785   -0.1164    0.9436 H   0  0  0  0  0  0  0  0  0  0  0  0
  1  2  1  0
  2  3  2  0
  2  4  2  0
  2  5  1  0
  5  6  1  0
  6  7  1  0
  7  8  1  0
  8  9  1  0
  9 10  2  0
 10 11  1  0
 11 12  2  0
 12 13  1  0
 12 14  1  0
 14 15  2  0
 15 16  1  0
 16 17  2  0
 17 18  1  0
 18 19  2  0
 19 20  1  0
 20 21  2  0
 21 22  1  0
 22 23  1  0
 23 24  2  0
 24 25  1  0
 25 26  2  0
 26 27  1  0
 27 28  1  0
 28 29  1  0
 29 30  2  0
 30 31  1  0
 31 32  2  0
 32 33  1  0
 33 34  1  0
 33 35  2  0
 26 36  1  0
 36 37  1  0
 36 38  2  0
 21 39  1  0
 39 40  2  0
 13  9  1  0
 40 14  1  0
 39 17  1  0
 38 23  1  0
 35 29  1  0
  1 41  1  0
  1 42  1  0
  1 43  1  0
  5 44  1  0
  5 45  1  0
  6 46  1  0
  6 47  1  0
  7 48  1  0
  8 49  1  0
  8 50  1  0
 10 51  1  0
 11 52  1  0
 15 53  1  0
 16 54  1  0
 19 55  1  0
 22 56  1  0
 24 57  1  0
 25 58  1  0
 28 59  1  0
 28 60  1  0
 30 61  1  0
 31 62  1  0
 32 63  1  0
 35 64  1  0
 38 65  1  0
 40 66  1  0
M  END
$$$$
[H]c1c([H])c([H])c2c(c1[H])C(=O)N(C([H])([H])c1c([H])c([H])c([N+](=O)[O-])c([H])c1[H])C2=O
     RDKit          3D

 31 33  0  0  0  0  0  0  0  0999 V2000
    5.8460   -1.4491   -0.8917 O   0  0  0  0  0  0  0  0  0  0  0  0
    5.1772   -0.2566   -1.0003 N   0  0  0  0  0  0  0  0  0  0  0  0
    5.6389    0.6188   -1.7543 O   0  0  0  0  0  0  0  0  0  0  0  0
    3.9758    0.0120   -0.2813 C   0  0  0  0  0  0  0  0  0  0  0  0
    3.4370   -0.9383    0.5637 C   0  0  0  0  0  0  0  0  0  0  0  0
    2.2725   -0.6256    1.2352 C   0  0  0  0  0  0  0  0  0  0  0  0
    1.6142    0.5674    1.1188 C   0  0  0  0  0  0  0  0  0  0  0  0
    0.3581    0.8413    1.8739 C   0  0  0  0  0  0  0  0  0  0  0  0
   -0.8124    0.4469    1.1359 N   0  0  0  0  0  0  0  0  0  0  0  0
   -1.4586   -0.8171    1.1575 C   0  0  0  0  0  0  0  0  0  0  0  0
   -1.1034   -1.8221    1.8427 O   0  0  0  0  0  0  0  0  0  0  0  0
   -2.6172   -0.8129    0.2653 C   0  0  0  0  0  0  0  0  0  0  0  0
   -3.5617   -1.7930   -0.0588 C   0  0  0  0  0  0  0  0  0  0  0  0
   -4.5520   -1.4686   -0.9531 C   0  0  0  0  0  0  0  0  0  0  0  0
   -4.6320   -0.2210   -1.5262 C   0  0  0  0  0  0  0  0  0  0  0  0
   -3.6904    0.7160   -1.1866 C   0  0  0  0  0  0  0  0  0  0  0  0
   -2.6715    0.4378   -0.2894 C   0  0  0  0  0  0  0  0  0  0  0  0
   -1.5664    1.2409    0.2308 C   0  0  0  0  0  0  0  0  0  0  0  0
   -1.3534    2.4554   -0.1035 O   0  0  0  0  0  0  0  0  0  0  0  0
    2.1619    1.5174    0.2675 C   0  0  0  0  0  0  0  0  0  0  0  0
    3.3361    1.2250   -0.4207 C   0  0  0  0  0  0  0  0  0  0  0  0
    3.9423   -1.8899    0.6706 H   0  0  0  0  0  0  0  0  0  0  0  0
    1.8566   -1.3721    1.8938 H   0  0  0  0  0  0  0  0  0  0  0  0
    0.3624    1.9211    2.1306 H   0  0  0  0  0  0  0  0  0  0  0  0
    0.4573    0.3047    2.8515 H   0  0  0  0  0  0  0  0  0  0  0  0
   -3.4724   -2.7606    0.4065 H   0  0  0  0  0  0  0  0  0  0  0  0
   -5.3047   -2.2150   -1.2256 H   0  0  0  0  0  0  0  0  0  0  0  0
   -5.4211    0.0100   -2.2275 H   0  0  0  0  0  0  0  0  0  0  0  0
   -3.7204    1.7038   -1.6147 H   0  0  0  0  0  0  0  0  0  0  0  0
    1.7059    2.4699    0.1253 H   0  0  0  0  0  0  0  0  0  0  0  0
    3.7953    1.9535   -1.1012 H   0  0  0  0  0  0  0  0  0  0  0  0
  1  2  1  0
  2  3  2  0
  2  4  1  0
  4  5  2  0
  5  6  1  0
  6  7  2  0
  7  8  1  0
  8  9  1  0
  9 10  1  0
 10 11  2  0
 10 12  1  0
 12 13  2  0
 13 14  1  0
 14 15  2  0
 15 16  1  0
 16 17  2  0
 17 18  1  0
 18 19  2  0
  7 20  1  0
 20 21  2  0
 21  4  1  0
 18  9  1  0
 17 12  1  0
  5 22  1  0
  6 23  1  0
  8 24  1  0
  8 25  1  0
 13 26  1  0
 14 27  1  0
 15 28  1  0
 16 29  1  0
 20 30  1  0
 21 31  1  0
M  CHG  2   1  -1   2   1
M  END
$$$$
[H]OC(=O)c1c([H])c([H])c(N([H])S(=O)(=O)c2c(C([H])([H])[H])c([H])c(C([H])([H])[H])c([H])c2C([H])([H])[H])c([H])c1[H]
     RDKit          3D

 39 40  0  0  0  0  0  0  0  0999 V2000
   -5.6857    0.9988   -0.0491 C   0  0  0  0  0  0  0  0  0  0  0  0
   -4.3186    0.4321   -0.1801 C   0  0  0  0  0  0  0  0  0  0  0  0
   -3.4004    1.0097   -1.0130 C   0  0  0  0  0  0  0  0  0  0  0  0
   -2.1051    0.4736   -1.1377 C   0  0  0  0  0  0  0  0  0  0  0  0
   -1.1738    1.1286   -2.0642 C   0  0  0  0  0  0  0  0  0  0  0  0
   -1.6981   -0.6364   -0.4438 C   0  0  0  0  0  0  0  0  0  0  0  0
   -2.6526   -1.2225    0.4105 C   0  0  0  0  0  0  0  0  0  0  0  0
   -2.3740   -2.4224    1.2245 C   0  0  0  0  0  0  0  0  0  0  0  0
   -3.9134   -0.6768    0.5128 C   0  0  0  0  0  0  0  0  0  0  0  0
   -0.1555   -1.3853   -0.4725 S   0  0  0  0  0  0  0  0  0  0  0  0
    0.5644   -1.2489   -1.8133 O   0  0  0  0  0  0  0  0  0  0  0  0
   -0.3809   -2.9007   -0.3681 O   0  0  0  0  0  0  0  0  0  0  0  0
    0.9370   -0.9852    0.7441 N   0  0  0  0  0  0  0  0  0  0  0  0
    2.1919   -0.3687    0.6066 C   0  0  0  0  0  0  0  0  0  0  0  0
    2.3858    0.7194   -0.1904 C   0  0  0  0  0  0  0  0  0  0  0  0
    3.6403    1.3261   -0.3186 C   0  0  0  0  0  0  0  0  0  0  0  0
    4.7334    0.8435    0.3601 C   0  0  0  0  0  0  0  0  0  0  0  0
    4.5638   -0.2613    1.1768 C   0  0  0  0  0  0  0  0  0  0  0  0
    3.3202   -0.8373    1.2841 C   0  0  0  0  0  0  0  0  0  0  0  0
    6.0227    1.5010    0.2018 C   0  0  0  0  0  0  0  0  0  0  0  0
    7.1535    1.0393    0.8746 O   0  0  0  0  0  0  0  0  0  0  0  0
    6.1427    2.4883   -0.5368 O   0  0  0  0  0  0  0  0  0  0  0  0
   -6.4020    0.1649    0.1483 H   0  0  0  0  0  0  0  0  0  0  0  0
   -5.7406    1.6520    0.8613 H   0  0  0  0  0  0  0  0  0  0  0  0
   -5.9673    1.6046   -0.9215 H   0  0  0  0  0  0  0  0  0  0  0  0
   -3.6783    1.8913   -1.5819 H   0  0  0  0  0  0  0  0  0  0  0  0
   -0.4972    1.8456   -1.5300 H   0  0  0  0  0  0  0  0  0  0  0  0
   -1.7939    1.8392   -2.7036 H   0  0  0  0  0  0  0  0  0  0  0  0
   -0.6869    0.4931   -2.8002 H   0  0  0  0  0  0  0  0  0  0  0  0
   -3.1435   -2.4505    2.0527 H   0  0  0  0  0  0  0  0  0  0  0  0
   -2.5357   -3.3758    0.6853 H   0  0  0  0  0  0  0  0  0  0  0  0
   -1.4108   -2.3794    1.7712 H   0  0  0  0  0  0  0  0  0  0  0  0
   -4.6569   -1.1260    1.1722 H   0  0  0  0  0  0  0  0  0  0  0  0
    0.6570   -1.2221    1.7521 H   0  0  0  0  0  0  0  0  0  0  0  0
    1.6127    1.1912   -0.7713 H   0  0  0  0  0  0  0  0  0  0  0  0
    3.7795    2.1856   -0.9520 H   0  0  0  0  0  0  0  0  0  0  0  0
    5.4250   -0.6394    1.7099 H   0  0  0  0  0  0  0  0  0  0  0  0
    3.2333   -1.6971    1.9322 H   0  0  0  0  0  0  0  0  0  0  0  0
    8.0082    1.0083    0.3416 H   0  0  0  0  0  0  0  0  0  0  0  0
  1  2  1  0
  2  3  2  0
  3  4  1  0
  4  5  1  0
  4  6  2  0
  6  7  1  0
  7  8  1  0
  7  9  2  0
  6 10  1  0
 10 11  2  0
 10 12  2  0
 10 13  1  0
 13 14  1  0
 14 15  2  0
 15 16  1  0
 16 17  2  0
 17 18  1  0
 18 19  2  0
 17 20  1  0
 20 21  1  0
 20 22  2  0
  9  2  1  0
 19 14  1  0
  1 23  1  0
  1 24  1  0
  1 25  1  0
  3 26  1  0
  5 27  1  0
  5 28  1  0
  5 29  1  0
  8 30  1  0
  8 31  1  0
  8 32  1  0
  9 33  1  0
 13 34  1  0
 15 35  1  0
 16 36  1  0
 18 37  1  0
 19 38  1  0
 21 39  1  0
M  END
$$$$
[H]OC([H])([H])[C@@]1(O[H])C([H])([H])[C@@]2([H])O[C@]1(C([H])([H])[H])n1c3c([H])c([H])c([H])c([H])c3c3c4c(c5c6c([H])c([H])c([H])c([H])c6n2c5c31)C(=O)OC4([H])[H]
     RDKit          3D

 53 60  0  0  0  0  0  0  0  0999 V2000
   -2.9290   -0.7820   -1.6900 C   0  0  0  0  0  0  0  0  0  0  0  0
   -1.8067   -0.8176   -0.6645 C   0  0  2  0  0  0  0  0  0  0  0  0
   -0.8437   -1.6331   -1.3395 O   0  0  0  0  0  0  0  0  0  0  0  0
   -0.0655   -2.2530   -0.4267 C   0  0  2  0  0  0  0  0  0  0  0  0
   -0.7975   -2.3020    0.8949 C   0  0  0  0  0  0  0  0  0  0  0  0
   -2.1047   -1.6241    0.5317 C   0  0  1  0  0  0  0  0  0  0  0  0
   -2.4774   -0.8903    1.6526 O   0  0  0  0  0  0  0  0  0  0  0  0
   -3.0801   -2.7395    0.2418 C   0  0  0  0  0  0  0  0  0  0  0  0
   -3.0993   -3.5926    1.3716 O   0  0  0  0  0  0  0  0  0  0  0  0
    1.1341   -1.4293   -0.2410 N   0  0  0  0  0  0  0  0  0  0  0  0
    2.3755   -1.8408   -0.1002 C   0  0  0  0  0  0  0  0  0  0  0  0
    2.8857   -3.1211   -0.1179 C   0  0  0  0  0  0  0  0  0  0  0  0
    4.2510   -3.3515    0.0524 C   0  0  0  0  0  0  0  0  0  0  0  0
    5.0662   -2.2551    0.2380 C   0  0  0  0  0  0  0  0  0  0  0  0
    4.5771   -0.9466    0.2604 C   0  0  0  0  0  0  0  0  0  0  0  0
    3.2385   -0.7604    0.0908 C   0  0  0  0  0  0  0  0  0  0  0  0
    2.4544    0.3613    0.0606 C   0  0  0  0  0  0  0  0  0  0  0  0
    2.6566    1.7200    0.2030 C   0  0  0  0  0  0  0  0  0  0  0  0
    3.8536    2.4989    0.4255 C   0  0  0  0  0  0  0  0  0  0  0  0
    5.0537    2.1640    0.5538 O   0  0  0  0  0  0  0  0  0  0  0  0
    3.4205    3.8455    0.4832 O   0  0  0  0  0  0  0  0  0  0  0  0
    2.0602    3.9480    0.3169 C   0  0  0  0  0  0  0  0  0  0  0  0
    1.5692    2.5670    0.1327 C   0  0  0  0  0  0  0  0  0  0  0  0
    0.2730    2.1078   -0.0780 C   0  0  0  0  0  0  0  0  0  0  0  0
   -0.9331    2.7083   -0.1795 C   0  0  0  0  0  0  0  0  0  0  0  0
   -1.2991    4.0344   -0.0956 C   0  0  0  0  0  0  0  0  0  0  0  0
   -2.6244    4.3870   -0.2197 C   0  0  0  0  0  0  0  0  0  0  0  0
   -3.5394    3.3700   -0.4262 C   0  0  0  0  0  0  0  0  0  0  0  0
   -3.1427    2.0435   -0.5064 C   0  0  0  0  0  0  0  0  0  0  0  0
   -1.8407    1.6808   -0.3872 C   0  0  0  0  0  0  0  0  0  0  0  0
   -1.2315    0.4858   -0.4182 N   0  0  0  0  0  0  0  0  0  0  0  0
    0.0975    0.7743   -0.2167 C   0  0  0  0  0  0  0  0  0  0  0  0
    1.1549   -0.0791   -0.1479 C   0  0  0  0  0  0  0  0  0  0  0  0
   -2.7628    0.1153   -2.3179 H   0  0  0  0  0  0  0  0  0  0  0  0
   -2.8430   -1.6315   -2.4417 H   0  0  0  0  0  0  0  0  0  0  0  0
   -3.9287   -0.9050   -1.2819 H   0  0  0  0  0  0  0  0  0  0  0  0
    0.2428   -3.2686   -0.6641 H   0  0  0  0  0  0  0  0  0  0  0  0
   -0.9602   -3.3424    1.2411 H   0  0  0  0  0  0  0  0  0  0  0  0
   -0.2490   -1.7300    1.6848 H   0  0  0  0  0  0  0  0  0  0  0  0
   -2.9179   -1.5420    2.2700 H   0  0  0  0  0  0  0  0  0  0  0  0
   -2.7428   -3.3773   -0.5989 H   0  0  0  0  0  0  0  0  0  0  0  0
   -4.1004   -2.4301    0.0428 H   0  0  0  0  0  0  0  0  0  0  0  0
   -3.8847   -3.3621    1.9095 H   0  0  0  0  0  0  0  0  0  0  0  0
    2.2238   -3.9617   -0.2652 H   0  0  0  0  0  0  0  0  0  0  0  0
    4.6408   -4.3595    0.0369 H   0  0  0  0  0  0  0  0  0  0  0  0
    6.1357   -2.4249    0.3721 H   0  0  0  0  0  0  0  0  0  0  0  0
    5.3060   -0.2008    0.4102 H   0  0  0  0  0  0  0  0  0  0  0  0
    1.7850    4.5268   -0.6078 H   0  0  0  0  0  0  0  0  0  0  0  0
    1.6238    4.4518    1.2078 H   0  0  0  0  0  0  0  0  0  0  0  0
   -0.5272    4.7620    0.0665 H   0  0  0  0  0  0  0  0  0  0  0  0
   -2.8800    5.4273   -0.1504 H   0  0  0  0  0  0  0  0  0  0  0  0
   -4.5688    3.6458   -0.5221 H   0  0  0  0  0  0  0  0  0  0  0  0
   -3.8993    1.3285   -0.6463 H   0  0  0  0  0  0  0  0  0  0  0  0
  2  1  1  6
  2  3  1  0
  3  4  1  0
  4  5  1  0
  5  6  1  0
  6  7  1  1
  6  8  1  0
  8  9  1  0
  4 10  1  0
 10 11  1  0
 11 12  2  0
 12 13  1  0
 13 14  2  0
 14 15  1  0
 15 16  2  0
 16 17  1  0
 17 18  2  0
 18 19  1  0
 19 20  2  0
 19 21  1  0
 21 22  1  0
 22 23  1  0
 23 24  2  0
 24 25  1  0
 25 26  2  0
 26 27  1  0
 27 28  2  0
 28 29  1  0
 29 30  2  0
 30 31  1  0
 31 32  1  0
 32 33  2  0
  6  2  1  0
 33 10  1  0
 31  2  1  0
 16 11  1  0
 33 17  1  0
 23 18  1  0
 32 24  1  0
 30 25  1  0
  1 34  1  0
  1 35  1  0
  1 36  1  0
  4 37  1  6
  5 38  1  0
  5 39  1  0
  7 40  1  0
  8 41  1  0
  8 42  1  0
  9 43  1  0
 12 44  1  0
 13 45  1  0
 14 46  1  0
 15 47  1  0
 22 48  1  0
 22 49  1  0
 26 50  1  0
 27 51  1  0
 28 52  1  0
 29 53  1  0
M  END
$$$$
[H]OC(=O)c1nc(C(=O)c2c([H])c([H])c([H])c3c([H])c([H])c([H])c([H])c23)c2c([H])c(O[H])c(O[H])c([H])c2c1[H]
     RDKit          3D

 40 43  0  0  0  0  0  0  0  0999 V2000
   -0.5851   -3.7787    1.1554 O   0  0  0  0  0  0  0  0  0  0  0  0
   -1.7971   -3.1690    0.8896 C   0  0  0  0  0  0  0  0  0  0  0  0
   -2.8406   -3.8514    0.9663 O   0  0  0  0  0  0  0  0  0  0  0  0
   -1.7922   -1.7636    0.5343 C   0  0  0  0  0  0  0  0  0  0  0  0
   -3.0091   -1.1570    0.2686 C   0  0  0  0  0  0  0  0  0  0  0  0
   -3.0965    0.1741   -0.0771 C   0  0  0  0  0  0  0  0  0  0  0  0
   -4.3282    0.7225   -0.3441 C   0  0  0  0  0  0  0  0  0  0  0  0
   -4.4226    2.0526   -0.7073 C   0  0  0  0  0  0  0  0  0  0  0  0
   -5.6892    2.5862   -0.9732 O   0  0  0  0  0  0  0  0  0  0  0  0
   -3.2827    2.8003   -0.7946 C   0  0  0  0  0  0  0  0  0  0  0  0
   -3.3509    4.1258   -1.1548 O   0  0  0  0  0  0  0  0  0  0  0  0
   -2.0540    2.2227   -0.5198 C   0  0  0  0  0  0  0  0  0  0  0  0
   -1.8995    0.8994   -0.1507 C   0  0  0  0  0  0  0  0  0  0  0  0
   -0.6920    0.3074    0.1120 C   0  0  0  0  0  0  0  0  0  0  0  0
   -0.7177   -1.0035    0.4411 N   0  0  0  0  0  0  0  0  0  0  0  0
    0.5369    1.0702    0.0716 C   0  0  0  0  0  0  0  0  0  0  0  0
    0.5625    2.2428    0.5039 O   0  0  0  0  0  0  0  0  0  0  0  0
    1.7800    0.5068   -0.4729 C   0  0  0  0  0  0  0  0  0  0  0  0
    2.0960    0.6747   -1.7971 C   0  0  0  0  0  0  0  0  0  0  0  0
    3.2289    0.1420   -2.3764 C   0  0  0  0  0  0  0  0  0  0  0  0
    4.0628   -0.5911   -1.5500 C   0  0  0  0  0  0  0  0  0  0  0  0
    3.7717   -0.7760   -0.2157 C   0  0  0  0  0  0  0  0  0  0  0  0
    4.6632   -1.5110    0.5318 C   0  0  0  0  0  0  0  0  0  0  0  0
    4.4220   -1.7160    1.8771 C   0  0  0  0  0  0  0  0  0  0  0  0
    3.2800   -1.1661    2.4209 C   0  0  0  0  0  0  0  0  0  0  0  0
    2.3767   -0.4256    1.6788 C   0  0  0  0  0  0  0  0  0  0  0  0
    2.6118   -0.2194    0.3379 C   0  0  0  0  0  0  0  0  0  0  0  0
   -0.2412   -3.9618    2.0884 H   0  0  0  0  0  0  0  0  0  0  0  0
   -3.9516   -1.7235    0.3258 H   0  0  0  0  0  0  0  0  0  0  0  0
   -5.2513    0.1528   -0.2833 H   0  0  0  0  0  0  0  0  0  0  0  0
   -5.7172    3.5617   -1.2354 H   0  0  0  0  0  0  0  0  0  0  0  0
   -2.5547    4.7359   -1.2392 H   0  0  0  0  0  0  0  0  0  0  0  0
   -1.2112    2.8513   -0.6242 H   0  0  0  0  0  0  0  0  0  0  0  0
    1.4426    1.2545   -2.4641 H   0  0  0  0  0  0  0  0  0  0  0  0
    3.4461    0.2944   -3.4229 H   0  0  0  0  0  0  0  0  0  0  0  0
    4.9635   -1.0201   -1.9926 H   0  0  0  0  0  0  0  0  0  0  0  0
    5.5669   -1.9444    0.0954 H   0  0  0  0  0  0  0  0  0  0  0  0
    5.1284   -2.3014    2.4799 H   0  0  0  0  0  0  0  0  0  0  0  0
    3.0436   -1.2963    3.4704 H   0  0  0  0  0  0  0  0  0  0  0  0
    1.5011   -0.0025    2.1464 H   0  0  0  0  0  0  0  0  0  0  0  0
  1  2  1  0
  2  3  2  0
  2  4  1  0
  4  5  2  0
  5  6  1  0
  6  7  2  0
  7  8  1  0
  8  9  1  0
  8 10  2  0
 10 11  1  0
 10 12  1  0
 12 13  2  0
 13 14  1  0
 14 15  2  0
 14 16  1  0
 16 17  2  0
 16 18  1  0
 18 19  2  0
 19 20  1  0
 20 21  2  0
 21 22  1  0
 22 23  2  0
 23 24  1  0
 24 25  2  0
 25 26  1  0
 26 27  2  0
 15  4  1  0
 27 18  1  0
 13  6  1  0
 27 22  1  0
  1 28  1  0
  5 29  1  0
  7 30  1  0
  9 31  1  0
 11 32  1  0
 12 33  1  0
 19 34  1  0
 20 35  1  0
 21 36  1  0
 23 37  1  0
 24 38  1  0
 25 39  1  0
 26 40  1  0
M  END
$$$$
[H]N=C(N([H])[H])N([H])C([H])([H])C([H])([H])C([H])([H])[C@@]1([H])C(=O)N([H])[C@@]([H])(C([H])([H])c2c([H])n([H])c3c([H])c([H])c([H])c([H])c23)C(=O)N([H])[C@@]([H])([C@@]([H])(C([H])([H])[H])C([H])([H])C([H])([H])[H])C(=O)N([H])[C@@]([H])(C([H])([H])C(=O)N([H])[H])C(=O)N([H])[C@@]([H])(C([H])([H])c2c([H])c([H])c(O[H])c([H])c2[H])C(=O)N1[H]
     RDKit          3D

101104  0  0  0  0  0  0  0  0999 V2000
   -3.3391   -3.5294   -4.0453 C   0  0  0  0  0  0  0  0  0  0  0  0
   -4.1338   -3.3275   -2.8035 C   0  0  0  0  0  0  0  0  0  0  0  0
   -3.4477   -3.5057   -1.5059 C   0  0  2  0  0  0  0  0  0  0  0  0
   -4.3229   -3.2725   -0.2926 C   0  0  0  0  0  0  0  0  0  0  0  0
   -2.0618   -2.9350   -1.3696 C   0  0  2  0  0  0  0  0  0  0  0  0
   -1.9070   -1.5568   -1.6591 N   0  0  0  0  0  0  0  0  0  0  0  0
   -2.3649   -0.3897   -1.0970 C   0  0  0  0  0  0  0  0  0  0  0  0
   -3.2416    0.2754   -1.7826 O   0  0  0  0  0  0  0  0  0  0  0  0
   -2.0291    0.2784    0.1947 C   0  0  2  0  0  0  0  0  0  0  0  0
   -3.3801    0.3954    0.9133 C   0  0  0  0  0  0  0  0  0  0  0  0
   -3.3250    1.0319    2.2218 C   0  0  0  0  0  0  0  0  0  0  0  0
   -2.3413    1.1387    3.1781 C   0  0  0  0  0  0  0  0  0  0  0  0
   -2.7927    1.8436    4.2440 N   0  0  0  0  0  0  0  0  0  0  0  0
   -4.0579    2.1988    3.9990 C   0  0  0  0  0  0  0  0  0  0  0  0
   -4.9749    2.9157    4.7629 C   0  0  0  0  0  0  0  0  0  0  0  0
   -6.2545    3.1654    4.3223 C   0  0  0  0  0  0  0  0  0  0  0  0
   -6.6221    2.6881    3.0936 C   0  0  0  0  0  0  0  0  0  0  0  0
   -5.6994    1.9697    2.3304 C   0  0  0  0  0  0  0  0  0  0  0  0
   -4.4156    1.7189    2.7712 C   0  0  0  0  0  0  0  0  0  0  0  0
   -1.6776    1.6461   -0.1738 N   0  0  0  0  0  0  0  0  0  0  0  0
   -0.5912    2.4175    0.1898 C   0  0  0  0  0  0  0  0  0  0  0  0
   -0.8483    3.4723    0.8888 O   0  0  0  0  0  0  0  0  0  0  0  0
    0.8703    2.2518   -0.0872 C   0  0  2  0  0  0  0  0  0  0  0  0
    1.3089    3.6967   -0.4576 C   0  0  0  0  0  0  0  0  0  0  0  0
    2.7596    3.8097   -0.7567 C   0  0  0  0  0  0  0  0  0  0  0  0
    3.2362    5.1997   -1.0958 C   0  0  0  0  0  0  0  0  0  0  0  0
    2.6571    5.8089   -2.2446 N   0  0  0  0  0  0  0  0  0  0  0  0
    1.3519    6.2781   -2.4289 C   0  0  0  0  0  0  0  0  0  0  0  0
    0.6033    7.0065   -1.4607 N   0  0  0  0  0  0  0  0  0  0  0  0
    0.7502    6.0484   -3.5716 N   0  0  0  0  0  0  0  0  0  0  0  0
    1.1315    1.4554   -1.2361 N   0  0  0  0  0  0  0  0  0  0  0  0
    2.2071    0.5902   -1.4589 C   0  0  0  0  0  0  0  0  0  0  0  0
    2.8034    0.5547   -2.6104 O   0  0  0  0  0  0  0  0  0  0  0  0
    2.7936   -0.3614   -0.4817 C   0  0  2  0  0  0  0  0  0  0  0  0
    3.9303    0.2678    0.2780 C   0  0  0  0  0  0  0  0  0  0  0  0
    4.5139   -0.6821    1.2685 C   0  0  0  0  0  0  0  0  0  0  0  0
    3.9379   -0.7935    2.5392 C   0  0  0  0  0  0  0  0  0  0  0  0
    4.4352   -1.6350    3.5031 C   0  0  0  0  0  0  0  0  0  0  0  0
    5.5570   -2.4236    3.2349 C   0  0  0  0  0  0  0  0  0  0  0  0
    6.1000   -3.2918    4.1720 O   0  0  0  0  0  0  0  0  0  0  0  0
    6.1398   -2.3261    1.9836 C   0  0  0  0  0  0  0  0  0  0  0  0
    5.6142   -1.4674    1.0354 C   0  0  0  0  0  0  0  0  0  0  0  0
    3.3157   -1.5330   -1.2148 N   0  0  0  0  0  0  0  0  0  0  0  0
    2.4188   -2.4163   -1.8793 C   0  0  0  0  0  0  0  0  0  0  0  0
    2.7274   -2.8995   -2.9942 O   0  0  0  0  0  0  0  0  0  0  0  0
    1.1006   -2.7792   -1.2598 C   0  0  2  0  0  0  0  0  0  0  0  0
    1.4163   -3.6237   -0.0425 C   0  0  0  0  0  0  0  0  0  0  0  0
    2.1509   -4.8504   -0.3676 C   0  0  0  0  0  0  0  0  0  0  0  0
    3.5010   -5.0039    0.1210 N   0  0  0  0  0  0  0  0  0  0  0  0
    1.6834   -5.7824   -1.0442 O   0  0  0  0  0  0  0  0  0  0  0  0
    0.2888   -3.4886   -2.2216 N   0  0  0  0  0  0  0  0  0  0  0  0
   -1.0514   -3.8368   -1.9386 C   0  0  0  0  0  0  0  0  0  0  0  0
   -1.4130   -5.0382   -2.1985 O   0  0  0  0  0  0  0  0  0  0  0  0
   -3.2648   -4.6079   -4.3005 H   0  0  0  0  0  0  0  0  0  0  0  0
   -3.9154   -3.0491   -4.8912 H   0  0  0  0  0  0  0  0  0  0  0  0
   -2.3455   -3.0798   -4.0803 H   0  0  0  0  0  0  0  0  0  0  0  0
   -4.7352   -2.3763   -2.8516 H   0  0  0  0  0  0  0  0  0  0  0  0
   -4.9575   -4.1151   -2.8401 H   0  0  0  0  0  0  0  0  0  0  0  0
   -3.3115   -4.6736   -1.4493 H   0  0  0  0  0  0  0  0  0  0  0  0
   -3.6301   -2.9744    0.5559 H   0  0  0  0  0  0  0  0  0  0  0  0
   -4.9042   -4.1383    0.0181 H   0  0  0  0  0  0  0  0  0  0  0  0
   -4.9798   -2.3901   -0.5392 H   0  0  0  0  0  0  0  0  0  0  0  0
   -1.8172   -2.9787   -0.2136 H   0  0  0  0  0  0  0  0  0  0  0  0
   -1.2805   -1.3877   -2.5486 H   0  0  0  0  0  0  0  0  0  0  0  0
   -1.2776   -0.2406    0.7786 H   0  0  0  0  0  0  0  0  0  0  0  0
   -3.9732   -0.5141    0.8882 H   0  0  0  0  0  0  0  0  0  0  0  0
   -3.9551    1.1200    0.2430 H   0  0  0  0  0  0  0  0  0  0  0  0
   -1.3326    0.7130    3.0871 H   0  0  0  0  0  0  0  0  0  0  0  0
   -2.2776    2.0988    5.1371 H   0  0  0  0  0  0  0  0  0  0  0  0
   -4.7347    3.3222    5.7472 H   0  0  0  0  0  0  0  0  0  0  0  0
   -6.9801    3.7273    4.9161 H   0  0  0  0  0  0  0  0  0  0  0  0
   -7.6273    2.8795    2.7448 H   0  0  0  0  0  0  0  0  0  0  0  0
   -6.0465    1.6225    1.3860 H   0  0  0  0  0  0  0  0  0  0  0  0
   -2.4276    2.0806   -0.8271 H   0  0  0  0  0  0  0  0  0  0  0  0
    1.4106    1.8904    0.7864 H   0  0  0  0  0  0  0  0  0  0  0  0
    1.0207    4.4090    0.3236 H   0  0  0  0  0  0  0  0  0  0  0  0
    0.7116    3.9876   -1.3770 H   0  0  0  0  0  0  0  0  0  0  0  0
    3.3583    3.4225    0.1281 H   0  0  0  0  0  0  0  0  0  0  0  0
    3.0554    3.1365   -1.6046 H   0  0  0  0  0  0  0  0  0  0  0  0
    4.3621    5.2331   -1.1372 H   0  0  0  0  0  0  0  0  0  0  0  0
    2.9722    5.8317   -0.1853 H   0  0  0  0  0  0  0  0  0  0  0  0
    3.3030    5.9278   -3.0878 H   0  0  0  0  0  0  0  0  0  0  0  0
    1.0854    7.4812   -0.6628 H   0  0  0  0  0  0  0  0  0  0  0  0
   -0.4246    7.0859   -1.5129 H   0  0  0  0  0  0  0  0  0  0  0  0
    1.1780    5.5369   -4.3564 H   0  0  0  0  0  0  0  0  0  0  0  0
    0.4230    1.5292   -2.0298 H   0  0  0  0  0  0  0  0  0  0  0  0
    1.9681   -0.6900    0.2165 H   0  0  0  0  0  0  0  0  0  0  0  0
    4.7415    0.4587   -0.4672 H   0  0  0  0  0  0  0  0  0  0  0  0
    3.6305    1.2026    0.7780 H   0  0  0  0  0  0  0  0  0  0  0  0
    3.0764   -0.1954    2.7633 H   0  0  0  0  0  0  0  0  0  0  0  0
    4.0081   -1.7353    4.4809 H   0  0  0  0  0  0  0  0  0  0  0  0
    5.7886   -4.2560    4.2415 H   0  0  0  0  0  0  0  0  0  0  0  0
    7.0016   -2.9245    1.7608 H   0  0  0  0  0  0  0  0  0  0  0  0
    6.1351   -1.4320    0.0874 H   0  0  0  0  0  0  0  0  0  0  0  0
    4.3190   -1.7600   -1.2888 H   0  0  0  0  0  0  0  0  0  0  0  0
    0.5642   -1.8703   -0.9073 H   0  0  0  0  0  0  0  0  0  0  0  0
    1.9791   -3.0319    0.6793 H   0  0  0  0  0  0  0  0  0  0  0  0
    0.4197   -3.8297    0.4328 H   0  0  0  0  0  0  0  0  0  0  0  0
    3.7213   -4.5613    1.0458 H   0  0  0  0  0  0  0  0  0  0  0  0
    4.2347   -5.5184   -0.3984 H   0  0  0  0  0  0  0  0  0  0  0  0
    0.7192   -3.7408   -3.1341 H   0  0  0  0  0  0  0  0  0  0  0  0
  1  2  1  0
  2  3  1  0
  3  4  1  0
  3  5  1  0
  5  6  1  0
  6  7  1  0
  7  8  2  0
  7  9  1  0
  9 10  1  0
 10 11  1  0
 11 12  2  0
 12 13  1  0
 13 14  1  0
 14 15  2  0
 15 16  1  0
 16 17  2  0
 17 18  1  0
 18 19  2  0
  9 20  1  0
 20 21  1  0
 21 22  2  0
 21 23  1  0
 23 24  1  0
 24 25  1  0
 25 26  1  0
 26 27  1  0
 27 28  1  0
 28 29  1  0
 28 30  2  3
 23 31  1  0
 31 32  1  0
 32 33  2  0
 32 34  1  0
 34 35  1  0
 35 36  1  0
 36 37  2  0
 37 38  1  0
 38 39  2  0
 39 40  1  0
 39 41  1  0
 41 42  2  0
 34 43  1  0
 43 44  1  0
 44 45  2  0
 44 46  1  0
 46 47  1  0
 47 48  1  0
 48 49  1  0
 48 50  2  0
 46 51  1  0
 51 52  1  0
 52 53  2  0
 52  5  1  0
 19 11  1  0
 42 36  1  0
 19 14  1  0
  1 54  1  0
  1 55  1  0
  1 56  1  0
  2 57  1  0
  2 58  1  0
  3 59  1  1
  4 60  1  0
  4 61  1  0
  4 62  1  0
  5 63  1  1
  6 64  1  0
  9 65  1  1
 10 66  1  0
 10 67  1  0
 12 68  1  0
 13 69  1  0
 15 70  1  0
 16 71  1  0
 17 72  1  0
 18 73  1  0
 20 74  1  0
 23 75  1  1
 24 76  1  0
 24 77  1  0
 25 78  1  0
 25 79  1  0
 26 80  1  0
 26 81  1  0
 27 82  1  0
 29 83  1  0
 29 84  1  0
 30 85  1  0
 31 86  1  0
 34 87  1  1
 35 88  1  0
 35 89  1  0
 37 90  1  0
 38 91  1  0
 40 92  1  0
 41 93  1  0
 42 94  1  0
 43 95  1  0
 46 96  1  1
 47 97  1  0
 47 98  1  0
 49 99  1  0
 49100  1  0
 51101  1  0
M  END
$$$$
[H]N=C(N([H])[H])N([H])C([H])([H])C([H])([H])C([H])([H])[C@@]1([H])C(=O)N([H])[C@@]([H])(C([H])([H])C([H])([H])C(=O)N([H])[H])C(=O)N([H])[C@@]([H])(C([H])([H])c2c([H])c([H])c(O[H])c([H])c2[H])C(=O)N([H])[C@@]([H])(C([H])([H])S[H])C(=O)N([H])[C@@]([H])(C([H])([H])c2c([H])c([H])c(O[H])c([H])c2[H])C(=O)N1[H]
     RDKit          3D

 93 95  0  0  0  0  0  0  0  0999 V2000
    8.4467   -2.5313    1.0528 N   0  0  0  0  0  0  0  0  0  0  0  0
    7.5136   -1.4966    1.3151 C   0  0  0  0  0  0  0  0  0  0  0  0
    7.5212   -0.4247    0.5980 N   0  0  0  0  0  0  0  0  0  0  0  0
    6.5787   -1.6457    2.3683 N   0  0  0  0  0  0  0  0  0  0  0  0
    5.3882   -0.8394    2.4799 C   0  0  0  0  0  0  0  0  0  0  0  0
    4.4593   -1.2459    1.3151 C   0  0  0  0  0  0  0  0  0  0  0  0
    3.2488   -0.4017    1.4504 C   0  0  0  0  0  0  0  0  0  0  0  0
    2.1721   -0.5719    0.4227 C   0  0  2  0  0  0  0  0  0  0  0  0
    1.1261    0.3715    0.7977 N   0  0  0  0  0  0  0  0  0  0  0  0
    0.8165    1.5651    0.1084 C   0  0  0  0  0  0  0  0  0  0  0  0
   -0.0697    2.3564    0.5931 O   0  0  0  0  0  0  0  0  0  0  0  0
    1.4254    2.0178   -1.1569 C   0  0  2  0  0  0  0  0  0  0  0  0
    2.6939    2.8074   -0.9300 C   0  0  0  0  0  0  0  0  0  0  0  0
    2.5324    4.0120   -0.1347 C   0  0  0  0  0  0  0  0  0  0  0  0
    2.2404    5.2270   -0.6989 C   0  0  0  0  0  0  0  0  0  0  0  0
    2.0866    6.3737    0.0593 C   0  0  0  0  0  0  0  0  0  0  0  0
    2.2277    6.3111    1.4216 C   0  0  0  0  0  0  0  0  0  0  0  0
    2.0730    7.4736    2.2034 O   0  0  0  0  0  0  0  0  0  0  0  0
    2.5194    5.1122    2.0170 C   0  0  0  0  0  0  0  0  0  0  0  0
    2.6714    3.9615    1.2341 C   0  0  0  0  0  0  0  0  0  0  0  0
    0.5267    2.7800   -2.0000 N   0  0  0  0  0  0  0  0  0  0  0  0
   -0.8811    2.7012   -1.9945 C   0  0  0  0  0  0  0  0  0  0  0  0
   -1.5444    3.7647   -2.0029 O   0  0  0  0  0  0  0  0  0  0  0  0
   -1.6519    1.4334   -1.9801 C   0  0  2  0  0  0  0  0  0  0  0  0
   -1.7749    0.9549   -3.4379 C   0  0  0  0  0  0  0  0  0  0  0  0
   -2.6335    2.1826   -4.4555 S   0  0  0  0  0  0  0  0  0  0  0  0
   -2.9641    1.6829   -1.4329 N   0  0  0  0  0  0  0  0  0  0  0  0
   -3.9899    0.7050   -1.2821 C   0  0  0  0  0  0  0  0  0  0  0  0
   -5.1697    1.0870   -1.6409 O   0  0  0  0  0  0  0  0  0  0  0  0
   -3.6817   -0.6169   -0.7576 C   0  0  2  0  0  0  0  0  0  0  0  0
   -4.8107   -1.5253   -0.4502 C   0  0  0  0  0  0  0  0  0  0  0  0
   -5.8018   -1.1164    0.5207 C   0  0  0  0  0  0  0  0  0  0  0  0
   -7.0171   -0.5831    0.1617 C   0  0  0  0  0  0  0  0  0  0  0  0
   -7.9620   -0.1625    1.0888 C   0  0  0  0  0  0  0  0  0  0  0  0
   -7.6542   -0.2925    2.4186 C   0  0  0  0  0  0  0  0  0  0  0  0
   -8.5655    0.1140    3.3904 O   0  0  0  0  0  0  0  0  0  0  0  0
   -6.4566   -0.8191    2.8167 C   0  0  0  0  0  0  0  0  0  0  0  0
   -5.5515   -1.2218    1.8667 C   0  0  0  0  0  0  0  0  0  0  0  0
   -2.7444   -0.5555    0.3531 N   0  0  0  0  0  0  0  0  0  0  0  0
   -1.8184   -1.5671    0.6875 C   0  0  0  0  0  0  0  0  0  0  0  0
   -1.7960   -2.0032    1.8932 O   0  0  0  0  0  0  0  0  0  0  0  0
   -0.8357   -2.2050   -0.2167 C   0  0  2  0  0  0  0  0  0  0  0  0
   -1.4572   -3.5617   -0.6149 C   0  0  0  0  0  0  0  0  0  0  0  0
   -0.5332   -4.3058   -1.5464 C   0  0  0  0  0  0  0  0  0  0  0  0
   -1.1715   -5.5934   -1.9013 C   0  0  0  0  0  0  0  0  0  0  0  0
   -0.5342   -6.4986   -2.7916 N   0  0  0  0  0  0  0  0  0  0  0  0
   -2.2857   -5.9198   -1.4289 O   0  0  0  0  0  0  0  0  0  0  0  0
    0.4136   -2.4802    0.4672 N   0  0  0  0  0  0  0  0  0  0  0  0
    1.6794   -1.9576    0.2698 C   0  0  0  0  0  0  0  0  0  0  0  0
    2.5975   -2.7822   -0.1065 O   0  0  0  0  0  0  0  0  0  0  0  0
    8.3917   -3.1745    0.2445 H   0  0  0  0  0  0  0  0  0  0  0  0
    9.2396   -2.6417    1.7290 H   0  0  0  0  0  0  0  0  0  0  0  0
    8.1985   -0.2778   -0.1871 H   0  0  0  0  0  0  0  0  0  0  0  0
    6.7637   -2.3694    3.0907 H   0  0  0  0  0  0  0  0  0  0  0  0
    4.8520   -1.1193    3.3908 H   0  0  0  0  0  0  0  0  0  0  0  0
    5.6147    0.2439    2.4144 H   0  0  0  0  0  0  0  0  0  0  0  0
    4.2708   -2.3394    1.5463 H   0  0  0  0  0  0  0  0  0  0  0  0
    5.0419   -1.0981    0.4056 H   0  0  0  0  0  0  0  0  0  0  0  0
    3.5819    0.6654    1.3781 H   0  0  0  0  0  0  0  0  0  0  0  0
    2.8656   -0.5036    2.4898 H   0  0  0  0  0  0  0  0  0  0  0  0
    2.6248   -0.2987   -0.5567 H   0  0  0  0  0  0  0  0  0  0  0  0
    0.5828    0.1348    1.6475 H   0  0  0  0  0  0  0  0  0  0  0  0
    1.7375    1.1319   -1.7856 H   0  0  0  0  0  0  0  0  0  0  0  0
    3.0608    3.0951   -1.9581 H   0  0  0  0  0  0  0  0  0  0  0  0
    3.4696    2.1042   -0.5360 H   0  0  0  0  0  0  0  0  0  0  0  0
    2.1133    5.3667   -1.7719 H   0  0  0  0  0  0  0  0  0  0  0  0
    1.8532    7.3366   -0.4118 H   0  0  0  0  0  0  0  0  0  0  0  0
    2.9099    8.0473    2.3869 H   0  0  0  0  0  0  0  0  0  0  0  0
    2.6246    5.0974    3.0950 H   0  0  0  0  0  0  0  0  0  0  0  0
    2.9007    3.0583    1.7812 H   0  0  0  0  0  0  0  0  0  0  0  0
    1.0212    3.4467   -2.6716 H   0  0  0  0  0  0  0  0  0  0  0  0
   -1.1184    0.6246   -1.4669 H   0  0  0  0  0  0  0  0  0  0  0  0
   -0.6993    0.8446   -3.7688 H   0  0  0  0  0  0  0  0  0  0  0  0
   -2.2133   -0.0374   -3.5227 H   0  0  0  0  0  0  0  0  0  0  0  0
   -2.0680    2.1096   -5.7631 H   0  0  0  0  0  0  0  0  0  0  0  0
   -3.2217    2.6732   -1.1179 H   0  0  0  0  0  0  0  0  0  0  0  0
   -3.0805   -1.1332   -1.5853 H   0  0  0  0  0  0  0  0  0  0  0  0
   -5.3062   -1.8743   -1.4091 H   0  0  0  0  0  0  0  0  0  0  0  0
   -4.3519   -2.4837   -0.0598 H   0  0  0  0  0  0  0  0  0  0  0  0
   -7.3285   -0.4750   -0.8725 H   0  0  0  0  0  0  0  0  0  0  0  0
   -8.9233    0.2600    0.7725 H   0  0  0  0  0  0  0  0  0  0  0  0
   -8.3737    0.0341    4.3781 H   0  0  0  0  0  0  0  0  0  0  0  0
   -6.1996   -0.9279    3.8837 H   0  0  0  0  0  0  0  0  0  0  0  0
   -4.6182   -1.6347    2.1905 H   0  0  0  0  0  0  0  0  0  0  0  0
   -2.7908    0.3337    0.9419 H   0  0  0  0  0  0  0  0  0  0  0  0
   -0.7247   -1.6754   -1.1735 H   0  0  0  0  0  0  0  0  0  0  0  0
   -2.3823   -3.3754   -1.1558 H   0  0  0  0  0  0  0  0  0  0  0  0
   -1.6915   -4.1532    0.2916 H   0  0  0  0  0  0  0  0  0  0  0  0
    0.4743   -4.4487   -1.1241 H   0  0  0  0  0  0  0  0  0  0  0  0
   -0.4090   -3.7224   -2.4841 H   0  0  0  0  0  0  0  0  0  0  0  0
    0.2408   -7.1400   -2.5273 H   0  0  0  0  0  0  0  0  0  0  0  0
   -0.8357   -6.5564   -3.7968 H   0  0  0  0  0  0  0  0  0  0  0  0
    0.3001   -3.2181    1.2381 H   0  0  0  0  0  0  0  0  0  0  0  0
  1  2  1  0
  2  3  2  3
  2  4  1  0
  4  5  1  0
  5  6  1  0
  6  7  1  0
  7  8  1  0
  8  9  1  0
  9 10  1  0
 10 11  2  0
 10 12  1  0
 12 13  1  0
 13 14  1  0
 14 15  2  0
 15 16  1  0
 16 17  2  0
 17 18  1  0
 17 19  1  0
 19 20  2  0
 12 21  1  0
 21 22  1  0
 22 23  2  0
 22 24  1  0
 24 25  1  0
 25 26  1  0
 24 27  1  0
 27 28  1  0
 28 29  2  0
 28 30  1  0
 30 31  1  0
 31 32  1  0
 32 33  2  0
 33 34  1  0
 34 35  2  0
 35 36  1  0
 35 37  1  0
 37 38  2  0
 30 39  1  0
 39 40  1  0
 40 41  2  0
 40 42  1  0
 42 43  1  0
 43 44  1  0
 44 45  1  0
 45 46  1  0
 45 47  2  0
 42 48  1  0
 48 49  1  0
 49 50  2  0
 49  8  1  0
 20 14  1  0
 38 32  1  0
  1 51  1  0
  1 52  1  0
  3 53  1  0
  4 54  1  0
  5 55  1  0
  5 56  1  0
  6 57  1  0
  6 58  1  0
  7 59  1  0
  7 60  1  0
  8 61  1  6
  9 62  1  0
 12 63  1  6
 13 64  1  0
 13 65  1  0
 15 66  1  0
 16 67  1  0
 18 68  1  0
 19 69  1  0
 20 70  1  0
 21 71  1  0
 24 72  1  1
 25 73  1  0
 25 74  1  0
 26 75  1  0
 27 76  1  0
 30 77  1  6
 31 78  1  0
 31 79  1  0
 33 80  1  0
 34 81  1  0
 36 82  1  0
 37 83  1  0
 38 84  1  0
 39 85  1  0
 42 86  1  6
 43 87  1  0
 43 88  1  0
 44 89  1  0
 44 90  1  0
 46 91  1  0
 46 92  1  0
 48 93  1  0
M  END
$$$$
[H]c1c([H])c(C([H])([H])[H])c([H])c(N([H])C(=O)N([H])c2c([H])c([H])c(-c3c([H])c([H])c([H])c4c3c(N([H])[H])nn4[H])c([H])c2[H])c1F
     RDKit          3D

 46 49  0  0  0  0  0  0  0  0999 V2000
   -8.1735    0.6512    0.2236 C   0  0  0  0  0  0  0  0  0  0  0  0
   -6.8196    0.0859    0.0600 C   0  0  0  0  0  0  0  0  0  0  0  0
   -6.6162   -1.2344    0.4234 C   0  0  0  0  0  0  0  0  0  0  0  0
   -5.3559   -1.7963    0.2710 C   0  0  0  0  0  0  0  0  0  0  0  0
   -4.3191   -1.1008   -0.2188 C   0  0  0  0  0  0  0  0  0  0  0  0
   -3.1259   -1.7004   -0.3581 F   0  0  0  0  0  0  0  0  0  0  0  0
   -4.4823    0.2879   -0.6121 C   0  0  0  0  0  0  0  0  0  0  0  0
   -3.3558    0.8783   -0.9820 N   0  0  0  0  0  0  0  0  0  0  0  0
   -2.1870    1.5339   -1.3952 C   0  0  0  0  0  0  0  0  0  0  0  0
   -2.3272    2.6395   -2.0906 O   0  0  0  0  0  0  0  0  0  0  0  0
   -0.9461    1.0611   -1.1002 N   0  0  0  0  0  0  0  0  0  0  0  0
    0.3015    0.5858   -0.8036 C   0  0  0  0  0  0  0  0  0  0  0  0
    1.4404    0.7281   -1.5659 C   0  0  0  0  0  0  0  0  0  0  0  0
    2.6513    0.2304   -1.1456 C   0  0  0  0  0  0  0  0  0  0  0  0
    2.7568   -0.4267    0.0578 C   0  0  0  0  0  0  0  0  0  0  0  0
    1.6601   -0.5919    0.8489 C   0  0  0  0  0  0  0  0  0  0  0  0
    0.4533   -0.1038    0.4439 C   0  0  0  0  0  0  0  0  0  0  0  0
    4.0545   -0.9420    0.5156 C   0  0  0  0  0  0  0  0  0  0  0  0
    4.2630   -2.3041    0.5874 C   0  0  0  0  0  0  0  0  0  0  0  0
    5.4962   -2.8052    0.8953 C   0  0  0  0  0  0  0  0  0  0  0  0
    6.5050   -1.9061    1.1268 C   0  0  0  0  0  0  0  0  0  0  0  0
    6.3222   -0.5328    1.0643 C   0  0  0  0  0  0  0  0  0  0  0  0
    7.1276    0.5201    1.2688 N   0  0  0  0  0  0  0  0  0  0  0  0
    6.4381    1.6274    1.1043 N   0  0  0  0  0  0  0  0  0  0  0  0
    5.1584    1.3585    0.7854 C   0  0  0  0  0  0  0  0  0  0  0  0
    4.1040    2.2789    0.5822 N   0  0  0  0  0  0  0  0  0  0  0  0
    5.0561   -0.0160    0.7499 C   0  0  0  0  0  0  0  0  0  0  0  0
   -5.7380    0.7682   -0.4370 C   0  0  0  0  0  0  0  0  0  0  0  0
   -8.3653    1.4781   -0.4964 H   0  0  0  0  0  0  0  0  0  0  0  0
   -8.3369    1.0257    1.2865 H   0  0  0  0  0  0  0  0  0  0  0  0
   -8.9097   -0.1476   -0.0043 H   0  0  0  0  0  0  0  0  0  0  0  0
   -7.4340   -1.8119    0.8248 H   0  0  0  0  0  0  0  0  0  0  0  0
   -5.2770   -2.8440    0.5627 H   0  0  0  0  0  0  0  0  0  0  0  0
   -4.0534    1.6634   -1.8750 H   0  0  0  0  0  0  0  0  0  0  0  0
   -0.4171    2.2611   -1.5205 H   0  0  0  0  0  0  0  0  0  0  0  0
    1.3771    1.2329   -2.5205 H   0  0  0  0  0  0  0  0  0  0  0  0
    3.5118    0.3654   -1.7765 H   0  0  0  0  0  0  0  0  0  0  0  0
    1.7274   -1.1123    1.8254 H   0  0  0  0  0  0  0  0  0  0  0  0
   -0.4568   -0.1942    1.0133 H   0  0  0  0  0  0  0  0  0  0  0  0
    3.4244   -2.9481    0.3969 H   0  0  0  0  0  0  0  0  0  0  0  0
    5.6792   -3.8972    0.9558 H   0  0  0  0  0  0  0  0  0  0  0  0
    7.4910   -2.2772    1.3623 H   0  0  0  0  0  0  0  0  0  0  0  0
    8.1492    0.4122    1.5148 H   0  0  0  0  0  0  0  0  0  0  0  0
    4.1742    2.9793   -0.1744 H   0  0  0  0  0  0  0  0  0  0  0  0
    3.2805    2.2118    1.2051 H   0  0  0  0  0  0  0  0  0  0  0  0
   -5.9066    1.8281   -0.7107 H   0  0  0  0  0  0  0  0  0  0  0  0
  1  2  1  0
  2  3  2  0
  3  4  1  0
  4  5  2  0
  5  6  1  0
  5  7  1  0
  7  8  1  0
  8  9  1  0
  9 10  2  0
  9 11  1  0
 11 12  1  0
 12 13  2  0
 13 14  1  0
 14 15  2  0
 15 16  1  0
 16 17  2  0
 15 18  1  0
 18 19  2  0
 19 20  1  0
 20 21  2  0
 21 22  1  0
 22 23  1  0
 23 24  1  0
 24 25  2  0
 25 26  1  0
 25 27  1  0
  7 28  2  0
 28  2  1  0
 17 12  1  0
 27 18  1  0
 27 22  2  0
  1 29  1  0
  1 30  1  0
  1 31  1  0
  3 32  1  0
  4 33  1  0
  8 34  1  0
 11 35  1  0
 13 36  1  0
 14 37  1  0
 16 38  1  0
 17 39  1  0
 19 40  1  0
 20 41  1  0
 21 42  1  0
 23 43  1  0
 26 44  1  0
 26 45  1  0
 28 46  1  0
M  END
$$$$
[H]c1nc(N([H])c2c([H])c([H])c(C(=O)N([H])C3([H])C([H])([H])C([H])([H])N(C([H])([H])[H])C([H])([H])C3([H])[H])c([H])c2OC([H])([H])[H])nc2c1N(C([H])([H])[H])C(=O)[C@@]([H])(C([H])([H])C([H])([H])[H])N2C1([H])C([H])([H])C([H])([H])C([H])([H])C1([H])[H]
     RDKit          3D

 77 81  0  0  0  0  0  0  0  0999 V2000
   -5.8388    2.6577   -0.5266 C   0  0  0  0  0  0  0  0  0  0  0  0
   -6.9164    1.6287   -0.2316 C   0  0  0  0  0  0  0  0  0  0  0  0
   -6.5830    0.5643    0.6917 C   0  0  1  0  0  0  0  0  0  0  0  0
   -5.5161   -0.3570    0.4652 N   0  0  0  0  0  0  0  0  0  0  0  0
   -5.5093   -1.6020   -0.1918 C   0  0  0  0  0  0  0  0  0  0  0  0
   -6.5863   -2.5694   -0.0163 C   0  0  0  0  0  0  0  0  0  0  0  0
   -7.4601   -2.4837   -1.3005 C   0  0  0  0  0  0  0  0  0  0  0  0
   -6.3198   -2.5344   -2.2934 C   0  0  0  0  0  0  0  0  0  0  0  0
   -5.3521   -1.4873   -1.6902 C   0  0  0  0  0  0  0  0  0  0  0  0
   -4.2443    0.0886    0.9473 C   0  0  0  0  0  0  0  0  0  0  0  0
   -3.0847   -0.3319    0.4817 N   0  0  0  0  0  0  0  0  0  0  0  0
   -1.8275    0.0506    0.8628 C   0  0  0  0  0  0  0  0  0  0  0  0
   -0.7270   -0.5474    0.1711 N   0  0  0  0  0  0  0  0  0  0  0  0
    0.6336   -0.3021    0.3671 C   0  0  0  0  0  0  0  0  0  0  0  0
    1.1312    0.5833    1.2997 C   0  0  0  0  0  0  0  0  0  0  0  0
    2.5074    0.7818    1.3852 C   0  0  0  0  0  0  0  0  0  0  0  0
    3.4107    0.1333    0.5784 C   0  0  0  0  0  0  0  0  0  0  0  0
    2.8791   -0.7411   -0.3336 C   0  0  0  0  0  0  0  0  0  0  0  0
    1.5471   -0.9823   -0.4710 C   0  0  0  0  0  0  0  0  0  0  0  0
    1.0422   -1.8735   -1.4046 O   0  0  0  0  0  0  0  0  0  0  0  0
    1.8437   -2.6008   -2.2867 C   0  0  0  0  0  0  0  0  0  0  0  0
    4.8115    0.4131    0.6777 C   0  0  0  0  0  0  0  0  0  0  0  0
    5.2304    1.1806    1.5789 O   0  0  0  0  0  0  0  0  0  0  0  0
    5.7425   -0.1473   -0.2144 N   0  0  0  0  0  0  0  0  0  0  0  0
    7.1685    0.1254   -0.1609 C   0  0  0  0  0  0  0  0  0  0  0  0
    8.0099   -1.0857    0.0628 C   0  0  0  0  0  0  0  0  0  0  0  0
    9.4355   -0.6142    0.2532 C   0  0  0  0  0  0  0  0  0  0  0  0
    9.7580    0.5095   -0.5586 N   0  0  0  0  0  0  0  0  0  0  0  0
    9.7599    1.7779    0.1304 C   0  0  0  0  0  0  0  0  0  0  0  0
    9.0023    0.6264   -1.7741 C   0  0  0  0  0  0  0  0  0  0  0  0
    7.5289    0.7556   -1.4861 C   0  0  0  0  0  0  0  0  0  0  0  0
   -1.7774    0.9519    1.8165 N   0  0  0  0  0  0  0  0  0  0  0  0
   -2.8737    1.4631    2.3768 C   0  0  0  0  0  0  0  0  0  0  0  0
   -4.1238    1.0525    1.9655 C   0  0  0  0  0  0  0  0  0  0  0  0
   -5.2700    1.6244    2.5541 N   0  0  0  0  0  0  0  0  0  0  0  0
   -5.2146    2.6270    3.6207 C   0  0  0  0  0  0  0  0  0  0  0  0
   -6.5040    1.1567    2.0400 C   0  0  0  0  0  0  0  0  0  0  0  0
   -7.4995    1.2921    2.8342 O   0  0  0  0  0  0  0  0  0  0  0  0
   -5.7018    3.3992    0.2558 H   0  0  0  0  0  0  0  0  0  0  0  0
   -6.1373    3.2577   -1.4473 H   0  0  0  0  0  0  0  0  0  0  0  0
   -4.9082    2.1461   -0.8398 H   0  0  0  0  0  0  0  0  0  0  0  0
   -7.6960    2.2621    0.2949 H   0  0  0  0  0  0  0  0  0  0  0  0
   -7.4889    1.3583   -1.1473 H   0  0  0  0  0  0  0  0  0  0  0  0
   -7.5197   -0.0949    0.7381 H   0  0  0  0  0  0  0  0  0  0  0  0
   -4.5592   -2.1512    0.1349 H   0  0  0  0  0  0  0  0  0  0  0  0
   -7.1708   -2.5947    0.8855 H   0  0  0  0  0  0  0  0  0  0  0  0
   -6.1564   -3.5967   -0.1173 H   0  0  0  0  0  0  0  0  0  0  0  0
   -7.9008   -1.4800   -1.2879 H   0  0  0  0  0  0  0  0  0  0  0  0
   -8.1472   -3.3227   -1.3321 H   0  0  0  0  0  0  0  0  0  0  0  0
   -5.8950   -3.5591   -2.2029 H   0  0  0  0  0  0  0  0  0  0  0  0
   -6.5810   -2.3264   -3.3297 H   0  0  0  0  0  0  0  0  0  0  0  0
   -4.3607   -1.8349   -2.0525 H   0  0  0  0  0  0  0  0  0  0  0  0
   -5.6877   -0.5295   -2.1213 H   0  0  0  0  0  0  0  0  0  0  0  0
   -0.9669   -1.2780   -0.5898 H   0  0  0  0  0  0  0  0  0  0  0  0
    0.5073    1.1380    1.9840 H   0  0  0  0  0  0  0  0  0  0  0  0
    2.8459    1.4912    2.1409 H   0  0  0  0  0  0  0  0  0  0  0  0
    3.5242   -1.3077   -1.0208 H   0  0  0  0  0  0  0  0  0  0  0  0
    2.3771   -3.3997   -1.7382 H   0  0  0  0  0  0  0  0  0  0  0  0
    1.1667   -3.0798   -3.0539 H   0  0  0  0  0  0  0  0  0  0  0  0
    2.5643   -2.0025   -2.8568 H   0  0  0  0  0  0  0  0  0  0  0  0
    5.4288   -0.7968   -0.9641 H   0  0  0  0  0  0  0  0  0  0  0  0
    7.3146    0.8317    0.6848 H   0  0  0  0  0  0  0  0  0  0  0  0
    7.6659   -1.5964    1.0007 H   0  0  0  0  0  0  0  0  0  0  0  0
    7.9412   -1.8343   -0.7414 H   0  0  0  0  0  0  0  0  0  0  0  0
   10.1589   -1.4584    0.1167 H   0  0  0  0  0  0  0  0  0  0  0  0
    9.5345   -0.3048    1.3267 H   0  0  0  0  0  0  0  0  0  0  0  0
   10.7121    2.3437   -0.0546 H   0  0  0  0  0  0  0  0  0  0  0  0
    9.5679    1.6511    1.2088 H   0  0  0  0  0  0  0  0  0  0  0  0
    8.9148    2.4206   -0.2523 H   0  0  0  0  0  0  0  0  0  0  0  0
    9.3644    1.5461   -2.3059 H   0  0  0  0  0  0  0  0  0  0  0  0
    9.2176   -0.2061   -2.4903 H   0  0  0  0  0  0  0  0  0  0  0  0
    7.2651    1.8420   -1.4642 H   0  0  0  0  0  0  0  0  0  0  0  0
    6.9950    0.2757   -2.3372 H   0  0  0  0  0  0  0  0  0  0  0  0
   -2.8004    2.2191    3.1749 H   0  0  0  0  0  0  0  0  0  0  0  0
   -4.7710    2.2484    4.5427 H   0  0  0  0  0  0  0  0  0  0  0  0
   -6.2393    3.0298    3.7404 H   0  0  0  0  0  0  0  0  0  0  0  0
   -4.5923    3.5093    3.2892 H   0  0  0  0  0  0  0  0  0  0  0  0
  1  2  1  0
  2  3  1  0
  3  4  1  0
  4  5  1  0
  5  6  1  0
  6  7  1  0
  7  8  1  0
  8  9  1  0
  4 10  1  0
 10 11  2  0
 11 12  1  0
 12 13  1  0
 13 14  1  0
 14 15  2  0
 15 16  1  0
 16 17  2  0
 17 18  1  0
 18 19  2  0
 19 20  1  0
 20 21  1  0
 17 22  1  0
 22 23  2  0
 22 24  1  0
 24 25  1  0
 25 26  1  0
 26 27  1  0
 27 28  1  0
 28 29  1  0
 28 30  1  0
 30 31  1  0
 12 32  2  0
 32 33  1  0
 33 34  2  0
 34 35  1  0
 35 36  1  0
 35 37  1  0
 37 38  2  0
 37  3  1  0
  9  5  1  0
 34 10  1  0
 19 14  1  0
 31 25  1  0
  1 39  1  0
  1 40  1  0
  1 41  1  0
  2 42  1  0
  2 43  1  0
  3 44  1  1
  5 45  1  0
  6 46  1  0
  6 47  1  0
  7 48  1  0
  7 49  1  0
  8 50  1  0
  8 51  1  0
  9 52  1  0
  9 53  1  0
 13 54  1  0
 15 55  1  0
 16 56  1  0
 18 57  1  0
 21 58  1  0
 21 59  1  0
 21 60  1  0
 24 61  1  0
 25 62  1  0
 26 63  1  0
 26 64  1  0
 27 65  1  0
 27 66  1  0
 29 67  1  0
 29 68  1  0
 29 69  1  0
 30 70  1  0
 30 71  1  0
 31 72  1  0
 31 73  1  0
 33 74  1  0
 36 75  1  0
 36 76  1  0
 36 77  1  0
M  END
$$$$
[H]OC(=O)c1[se]c(-c2c([H])c([H])c(OC([H])([H])C([H])(C([H])([H])[H])C([H])([H])[H])c(C(F)(F)F)c2[H])nc1C([H])([H])[H]
     RDKit          3D

 40 41  0  0  0  0  0  0  0  0999 V2000
   -5.4313   -0.7428    0.8469 C   0  0  0  0  0  0  0  0  0  0  0  0
   -5.0690    0.7422    0.9588 C   0  0  0  0  0  0  0  0  0  0  0  0
   -5.3111    1.3650   -0.3903 C   0  0  0  0  0  0  0  0  0  0  0  0
   -3.6067    0.8412    1.2939 C   0  0  0  0  0  0  0  0  0  0  0  0
   -2.8666    0.2226    0.2590 O   0  0  0  0  0  0  0  0  0  0  0  0
   -1.4917    0.1397    0.2571 C   0  0  0  0  0  0  0  0  0  0  0  0
   -0.7321    0.6690    1.2905 C   0  0  0  0  0  0  0  0  0  0  0  0
    0.6434    0.5838    1.2844 C   0  0  0  0  0  0  0  0  0  0  0  0
    1.2892   -0.0420    0.2280 C   0  0  0  0  0  0  0  0  0  0  0  0
    0.5156   -0.5564   -0.7801 C   0  0  0  0  0  0  0  0  0  0  0  0
   -0.8562   -0.4827   -0.7945 C   0  0  0  0  0  0  0  0  0  0  0  0
   -1.6712   -1.0493   -1.9007 C   0  0  0  0  0  0  0  0  0  0  0  0
   -0.8009   -1.6241   -2.8377 F   0  0  0  0  0  0  0  0  0  0  0  0
   -2.4623   -0.0963   -2.5118 F   0  0  0  0  0  0  0  0  0  0  0  0
   -2.4591   -2.0820   -1.4287 F   0  0  0  0  0  0  0  0  0  0  0  0
    2.7198   -0.1641    0.1615 C   0  0  0  0  0  0  0  0  0  0  0  0
    3.6782   -0.5942   -0.5096 N   0  0  0  0  0  0  0  0  0  0  0  0
    4.9379   -0.6044   -0.3930 C   0  0  0  0  0  0  0  0  0  0  0  0
    5.8417   -1.2656   -1.4880 C   0  0  0  0  0  0  0  0  0  0  0  0
    5.6186   -0.0715    0.6385 C   0  0  0  0  0  0  0  0  0  0  0  0
    3.9193    0.6338    1.7252 Se  0  0  0  0  0  2  0  0  0  0  0  0
    6.9545    0.1128    1.1131 C   0  0  0  0  0  0  0  0  0  0  0  0
    7.1498    0.7772    2.3294 O   0  0  0  0  0  0  0  0  0  0  0  0
    7.9777   -0.2761    0.5231 O   0  0  0  0  0  0  0  0  0  0  0  0
   -5.0272   -1.3021    1.7311 H   0  0  0  0  0  0  0  0  0  0  0  0
   -6.5327   -0.8263    0.7777 H   0  0  0  0  0  0  0  0  0  0  0  0
   -4.9677   -1.1009   -0.0916 H   0  0  0  0  0  0  0  0  0  0  0  0
   -5.7108    1.2435    1.7091 H   0  0  0  0  0  0  0  0  0  0  0  0
   -5.7690    2.3611   -0.2286 H   0  0  0  0  0  0  0  0  0  0  0  0
   -5.9927    0.7649   -1.0320 H   0  0  0  0  0  0  0  0  0  0  0  0
   -4.3398    1.5075   -0.9422 H   0  0  0  0  0  0  0  0  0  0  0  0
   -3.4469    0.3832    2.2806 H   0  0  0  0  0  0  0  0  0  0  0  0
   -3.2581    1.8893    1.3551 H   0  0  0  0  0  0  0  0  0  0  0  0
   -1.2263    1.1651    2.1301 H   0  0  0  0  0  0  0  0  0  0  0  0
    1.2592    0.9887    2.0787 H   0  0  0  0  0  0  0  0  0  0  0  0
    1.0264   -1.0388   -1.5933 H   0  0  0  0  0  0  0  0  0  0  0  0
    6.5476   -1.9359   -1.0100 H   0  0  0  0  0  0  0  0  0  0  0  0
    5.2236   -1.8496   -2.1836 H   0  0  0  0  0  0  0  0  0  0  0  0
    6.4087   -0.4671   -1.9984 H   0  0  0  0  0  0  0  0  0  0  0  0
    7.3181    1.7816    2.3646 H   0  0  0  0  0  0  0  0  0  0  0  0
  1  2  1  0
  2  3  1  0
  2  4  1  0
  4  5  1  0
  5  6  1  0
  6  7  2  0
  7  8  1  0
  8  9  2  0
  9 10  1  0
 10 11  2  0
 11 12  1  0
 12 13  1  0
 12 14  1  0
 12 15  1  0
  9 16  1  0
 16 17  2  0
 17 18  1  0
 18 19  1  0
 18 20  2  0
 20 21  1  0
 20 22  1  0
 22 23  1  0
 22 24  2  0
 11  6  1  0
 21 16  1  0
  1 25  1  0
  1 26  1  0
  1 27  1  0
  2 28  1  0
  3 29  1  0
  3 30  1  0
  3 31  1  0
  4 32  1  0
  4 33  1  0
  7 34  1  0
  8 35  1  0
 10 36  1  0
 19 37  1  0
 19 38  1  0
 19 39  1  0
 23 40  1  0
M  END
$$$$
[H]OC([H])([H])[C@@]1([H])N([H])C([H])([H])[C@]([H])(O[H])[C@]([H])(O[H])[C@]1([H])O[H]
     RDKit          3D

 24 24  0  0  0  0  0  0  0  0999 V2000
    2.7346   -0.7003   -0.0658 O   0  0  0  0  0  0  0  0  0  0  0  0
    2.2785    0.5476   -0.4706 C   0  0  0  0  0  0  0  0  0  0  0  0
    0.7460    0.5667   -0.4950 C   0  0  1  0  0  0  0  0  0  0  0  0
    0.3272   -0.4358   -1.4174 N   0  0  0  0  0  0  0  0  0  0  0  0
   -1.0861   -0.6429   -1.4882 C   0  0  0  0  0  0  0  0  0  0  0  0
   -1.7961   -0.1838   -0.2105 C   0  0  2  0  0  0  0  0  0  0  0  0
   -1.8681    1.1974   -0.1332 O   0  0  0  0  0  0  0  0  0  0  0  0
   -0.8646   -0.6248    0.9244 C   0  0  2  0  0  0  0  0  0  0  0  0
   -1.5267   -0.6686    2.1254 O   0  0  0  0  0  0  0  0  0  0  0  0
    0.2880    0.3533    0.9142 C   0  0  2  0  0  0  0  0  0  0  0  0
   -0.0927    1.6018    1.4236 O   0  0  0  0  0  0  0  0  0  0  0  0
    3.6802   -0.5858    0.1946 H   0  0  0  0  0  0  0  0  0  0  0  0
    2.6336    1.2995    0.2931 H   0  0  0  0  0  0  0  0  0  0  0  0
    2.7030    0.7667   -1.4694 H   0  0  0  0  0  0  0  0  0  0  0  0
    0.4841    1.5954   -0.8745 H   0  0  0  0  0  0  0  0  0  0  0  0
    0.8749   -1.2986   -1.2648 H   0  0  0  0  0  0  0  0  0  0  0  0
   -1.5660   -0.2319   -2.3862 H   0  0  0  0  0  0  0  0  0  0  0  0
   -1.2629   -1.7577   -1.5187 H   0  0  0  0  0  0  0  0  0  0  0  0
   -2.7814   -0.6583   -0.1219 H   0  0  0  0  0  0  0  0  0  0  0  0
   -2.3443    1.6073   -0.8922 H   0  0  0  0  0  0  0  0  0  0  0  0
   -0.4336   -1.6271    0.6860 H   0  0  0  0  0  0  0  0  0  0  0  0
   -1.4919   -1.5880    2.5034 H   0  0  0  0  0  0  0  0  0  0  0  0
    1.0850   -0.0510    1.5731 H   0  0  0  0  0  0  0  0  0  0  0  0
   -0.7205    1.5189    2.1705 H   0  0  0  0  0  0  0  0  0  0  0  0
  1  2  1  0
  2  3  1  0
  3  4  1  0
  4  5  1  0
  5  6  1  0
  6  7  1  0
  6  8  1  0
  8  9  1  0
  8 10  1  0
 10 11  1  0
 10  3  1  0
  1 12  1  0
  2 13  1  0
  2 14  1  0
  3 15  1  6
  4 16  1  0
  5 17  1  0
  5 18  1  0
  6 19  1  1
  7 20  1  0
  8 21  1  6
  9 22  1  0
 10 23  1  1
 11 24  1  0
M  END
$$$$
[H]c1c([H])c(Cl)c(-c2c([H])c3c([H])nc(N([H])c4c([H])c([H])c(N5C([H])([H])C([H])([H])N(C([H])([H])[H])C([H])([H])C5([H])[H])c(C([H])([H])[H])c4[H])nc3n(C([H])([H])[H])c2=O)c(Cl)c1[H]
     RDKit          3D

 61 65  0  0  0  0  0  0  0  0999 V2000
   -8.0296    1.9170    1.0234 C   0  0  0  0  0  0  0  0  0  0  0  0
   -7.4907    0.6261    0.6568 N   0  0  0  0  0  0  0  0  0  0  0  0
   -7.0303    0.5799   -0.7055 C   0  0  0  0  0  0  0  0  0  0  0  0
   -5.5212    0.6443   -0.8074 C   0  0  0  0  0  0  0  0  0  0  0  0
   -4.9023   -0.4315   -0.0642 N   0  0  0  0  0  0  0  0  0  0  0  0
   -5.6468   -0.9388    1.0846 C   0  0  0  0  0  0  0  0  0  0  0  0
   -6.5232    0.1407    1.6046 C   0  0  0  0  0  0  0  0  0  0  0  0
   -3.6353   -0.9780   -0.4241 C   0  0  0  0  0  0  0  0  0  0  0  0
   -3.4949   -2.2812   -0.8397 C   0  0  0  0  0  0  0  0  0  0  0  0
   -2.2590   -2.7709   -1.1840 C   0  0  0  0  0  0  0  0  0  0  0  0
   -1.0907   -2.0022   -1.1377 C   0  0  0  0  0  0  0  0  0  0  0  0
    0.1160   -2.5983   -1.5274 N   0  0  0  0  0  0  0  0  0  0  0  0
    1.4321   -2.1776   -1.3058 C   0  0  0  0  0  0  0  0  0  0  0  0
    2.4777   -2.8971   -1.7776 N   0  0  0  0  0  0  0  0  0  0  0  0
    3.7521   -2.5229   -1.5661 C   0  0  0  0  0  0  0  0  0  0  0  0
    4.0455   -1.3813   -0.8540 C   0  0  0  0  0  0  0  0  0  0  0  0
    5.3086   -0.9321   -0.5943 C   0  0  0  0  0  0  0  0  0  0  0  0
    5.5663    0.2231    0.1280 C   0  0  0  0  0  0  0  0  0  0  0  0
    6.9391    0.6509    0.3740 C   0  0  0  0  0  0  0  0  0  0  0  0
    7.6707    0.2613    1.4726 C   0  0  0  0  0  0  0  0  0  0  0  0
    6.8950   -0.8035    2.6226 Cl  0  0  0  0  0  0  0  0  0  0  0  0
    8.9708    0.6780    1.6866 C   0  0  0  0  0  0  0  0  0  0  0  0
    9.5710    1.5168    0.7723 C   0  0  0  0  0  0  0  0  0  0  0  0
    8.8543    1.9282   -0.3504 C   0  0  0  0  0  0  0  0  0  0  0  0
    7.5600    1.4902   -0.5273 C   0  0  0  0  0  0  0  0  0  0  0  0
    6.6409    2.0022   -1.9434 Cl  0  0  0  0  0  0  0  0  0  0  0  0
    4.4644    0.9279    0.5915 C   0  0  0  0  0  0  0  0  0  0  0  0
    4.6487    1.9858    1.2536 O   0  0  0  0  0  0  0  0  0  0  0  0
    3.2110    0.4940    0.3413 N   0  0  0  0  0  0  0  0  0  0  0  0
    2.0583    1.2276    0.8233 C   0  0  0  0  0  0  0  0  0  0  0  0
    2.9785   -0.6365   -0.3659 C   0  0  0  0  0  0  0  0  0  0  0  0
    1.7456   -1.0857   -0.6253 N   0  0  0  0  0  0  0  0  0  0  0  0
   -1.2468   -0.7127   -0.7242 C   0  0  0  0  0  0  0  0  0  0  0  0
   -2.5065   -0.2053   -0.3704 C   0  0  0  0  0  0  0  0  0  0  0  0
   -2.5557    1.2098    0.0740 C   0  0  0  0  0  0  0  0  0  0  0  0
   -7.9301    2.0247    2.1137 H   0  0  0  0  0  0  0  0  0  0  0  0
   -7.4708    2.7212    0.5186 H   0  0  0  0  0  0  0  0  0  0  0  0
   -9.1001    2.0221    0.7022 H   0  0  0  0  0  0  0  0  0  0  0  0
   -7.4482   -0.3090   -1.2021 H   0  0  0  0  0  0  0  0  0  0  0  0
   -7.4310    1.4721   -1.2268 H   0  0  0  0  0  0  0  0  0  0  0  0
   -5.2887    0.4281   -1.8923 H   0  0  0  0  0  0  0  0  0  0  0  0
   -5.1260    1.6369   -0.6096 H   0  0  0  0  0  0  0  0  0  0  0  0
   -4.9488   -1.2530    1.8833 H   0  0  0  0  0  0  0  0  0  0  0  0
   -6.2484   -1.8104    0.6958 H   0  0  0  0  0  0  0  0  0  0  0  0
   -7.0459   -0.1868    2.5258 H   0  0  0  0  0  0  0  0  0  0  0  0
   -5.8486    1.0114    1.8571 H   0  0  0  0  0  0  0  0  0  0  0  0
   -4.3863   -2.8903   -0.8817 H   0  0  0  0  0  0  0  0  0  0  0  0
   -2.1647   -3.8043   -1.5093 H   0  0  0  0  0  0  0  0  0  0  0  0
    0.0422   -3.5251   -2.0935 H   0  0  0  0  0  0  0  0  0  0  0  0
    4.5838   -3.0946   -1.9406 H   0  0  0  0  0  0  0  0  0  0  0  0
    6.1534   -1.4923   -0.9621 H   0  0  0  0  0  0  0  0  0  0  0  0
    9.5555    0.3790    2.5456 H   0  0  0  0  0  0  0  0  0  0  0  0
   10.5847    1.8790    0.8808 H   0  0  0  0  0  0  0  0  0  0  0  0
    9.3461    2.5830   -1.0487 H   0  0  0  0  0  0  0  0  0  0  0  0
    1.4360    0.6091    1.5266 H   0  0  0  0  0  0  0  0  0  0  0  0
    1.4285    1.5913   -0.0186 H   0  0  0  0  0  0  0  0  0  0  0  0
    2.3494    2.1276    1.4012 H   0  0  0  0  0  0  0  0  0  0  0  0
   -0.4202   -0.0313   -0.6622 H   0  0  0  0  0  0  0  0  0  0  0  0
   -2.7617    1.8543   -0.8021 H   0  0  0  0  0  0  0  0  0  0  0  0
   -1.5560    1.5044    0.5166 H   0  0  0  0  0  0  0  0  0  0  0  0
   -3.2773    1.4047    0.8681 H   0  0  0  0  0  0  0  0  0  0  0  0
  1  2  1  0
  2  3  1  0
  3  4  1  0
  4  5  1  0
  5  6  1  0
  6  7  1  0
  5  8  1  0
  8  9  2  0
  9 10  1  0
 10 11  2  0
 11 12  1  0
 12 13  1  0
 13 14  2  0
 14 15  1  0
 15 16  2  0
 16 17  1  0
 17 18  2  0
 18 19  1  0
 19 20  2  0
 20 21  1  0
 20 22  1  0
 22 23  2  0
 23 24  1  0
 24 25  2  0
 25 26  1  0
 18 27  1  0
 27 28  2  0
 27 29  1  0
 29 30  1  0
 29 31  1  0
 31 32  2  0
 11 33  1  0
 33 34  2  0
 34 35  1  0
  7  2  1  0
 34  8  1  0
 32 13  1  0
 31 16  1  0
 25 19  1  0
  1 36  1  0
  1 37  1  0
  1 38  1  0
  3 39  1  0
  3 40  1  0
  4 41  1  0
  4 42  1  0
  6 43  1  0
  6 44  1  0
  7 45  1  0
  7 46  1  0
  9 47  1  0
 10 48  1  0
 12 49  1  0
 15 50  1  0
 17 51  1  0
 22 52  1  0
 23 53  1  0
 24 54  1  0
 30 55  1  0
 30 56  1  0
 30 57  1  0
 33 58  1  0
 35 59  1  0
 35 60  1  0
 35 61  1  0
M  END
$$$$
[H]Oc1c([H])c(C([H])([H])[H])c2c(oc(=O)c3c(O[H])c([H])c(OS(=O)(=O)O[H])c([H])c32)c1[H]
     RDKit          3D

 33 35  0  0  0  0  0  0  0  0999 V2000
   -0.7993    0.7034   -2.2809 C   0  0  0  0  0  0  0  0  0  0  0  0
   -1.7235    0.5040   -1.1931 C   0  0  0  0  0  0  0  0  0  0  0  0
   -3.0832    0.8660   -1.3807 C   0  0  0  0  0  0  0  0  0  0  0  0
   -4.0575    0.7122   -0.4422 C   0  0  0  0  0  0  0  0  0  0  0  0
   -5.3745    1.1086   -0.7425 O   0  0  0  0  0  0  0  0  0  0  0  0
   -3.7143    0.1759    0.7605 C   0  0  0  0  0  0  0  0  0  0  0  0
   -2.4117   -0.1968    1.0090 C   0  0  0  0  0  0  0  0  0  0  0  0
   -2.0923   -0.7097    2.1622 O   0  0  0  0  0  0  0  0  0  0  0  0
   -0.9062   -1.0890    2.4919 C   0  0  0  0  0  0  0  0  0  0  0  0
   -0.6296   -1.5836    3.6196 O   0  0  0  0  0  0  0  0  0  0  0  0
    0.1250   -0.9594    1.5902 C   0  0  0  0  0  0  0  0  0  0  0  0
    1.3969   -1.3512    1.9220 C   0  0  0  0  0  0  0  0  0  0  0  0
    1.6124   -1.8913    3.1992 O   0  0  0  0  0  0  0  0  0  0  0  0
    2.4164   -1.2102    1.0153 C   0  0  0  0  0  0  0  0  0  0  0  0
    2.1929   -0.6816   -0.2270 C   0  0  0  0  0  0  0  0  0  0  0  0
    3.2684   -0.5660   -1.0968 O   0  0  0  0  0  0  0  0  0  0  0  0
    4.2637    0.7870   -1.1940 S   0  0  0  0  0  0  0  0  0  0  0  0
    5.3473    0.7157    0.0988 O   0  0  0  0  0  0  0  0  0  0  0  0
    5.0222    0.7546   -2.4990 O   0  0  0  0  0  0  0  0  0  0  0  0
    3.4851    2.0501   -1.0566 O   0  0  0  0  0  0  0  0  0  0  0  0
    0.8930   -0.2778   -0.5756 C   0  0  0  0  0  0  0  0  0  0  0  0
   -0.1116   -0.4219    0.3280 C   0  0  0  0  0  0  0  0  0  0  0  0
   -1.4201   -0.0293    0.0271 C   0  0  0  0  0  0  0  0  0  0  0  0
   -0.1412    1.5967   -2.2684 H   0  0  0  0  0  0  0  0  0  0  0  0
   -0.4712   -0.1864   -2.8706 H   0  0  0  0  0  0  0  0  0  0  0  0
   -1.4665    1.1047   -3.1472 H   0  0  0  0  0  0  0  0  0  0  0  0
   -3.3275    1.2946   -2.3539 H   0  0  0  0  0  0  0  0  0  0  0  0
   -5.6110    2.0658   -0.5162 H   0  0  0  0  0  0  0  0  0  0  0  0
   -4.4564    0.0341    1.5383 H   0  0  0  0  0  0  0  0  0  0  0  0
    2.5583   -2.1718    3.4183 H   0  0  0  0  0  0  0  0  0  0  0  0
    3.4153   -1.5233    1.2884 H   0  0  0  0  0  0  0  0  0  0  0  0
    4.9587    0.2694    0.8830 H   0  0  0  0  0  0  0  0  0  0  0  0
    0.8419    0.1064   -1.5071 H   0  0  0  0  0  0  0  0  0  0  0  0
  1  2  1  0
  2  3  2  0
  3  4  1  0
  4  5  1  0
  4  6  2  0
  6  7  1  0
  7  8  1  0
  8  9  1  0
  9 10  2  0
  9 11  1  0
 11 12  2  0
 12 13  1  0
 12 14  1  0
 14 15  2  0
 15 16  1  0
 16 17  1  0
 17 18  1  0
 17 19  2  0
 17 20  2  0
 15 21  1  0
 21 22  2  0
 22 23  1  0
 23  2  1  0
 23  7  2  0
 22 11  1  0
  1 24  1  0
  1 25  1  0
  1 26  1  0
  3 27  1  0
  5 28  1  0
  6 29  1  0
 13 30  1  0
 14 31  1  0
 18 32  1  0
 21 33  1  0
M  END
$$$$
[H]O[C@]1([H])C([H])([H])C2=C([H])C([H])([H])[C@@]3([H])[C@]4([H])C([H])([H])C([H])([H])[C@]([H])(O[H])[C@@]4(C([H])([H])[H])C([H])([H])[C@]3([H])[C@@]2(C([H])([H])[H])C([H])([H])C1([H])[H]
     RDKit          3D

 48 51  0  0  0  0  0  0  0  0999 V2000
   -2.5169   -0.9757    1.3407 C   0  0  0  0  0  0  0  0  0  0  0  0
   -2.2141   -0.5761   -0.0656 C   0  0  2  0  0  0  0  0  0  0  0  0
   -0.9403   -1.1284   -0.5609 C   0  0  0  0  0  0  0  0  0  0  0  0
    0.0389   -0.0257   -0.3556 C   0  0  1  0  0  0  0  0  0  0  0  0
   -0.6803    1.0558    0.4821 C   0  0  1  0  0  0  0  0  0  0  0  0
    0.1186    2.3001    0.2945 C   0  0  0  0  0  0  0  0  0  0  0  0
    1.5709    2.0632    0.1751 C   0  0  0  0  0  0  0  0  0  0  0  0
    2.1706    0.8944    0.1280 C   0  0  0  0  0  0  0  0  0  0  0  0
    3.6550    0.8260    0.0055 C   0  0  0  0  0  0  0  0  0  0  0  0
    4.0770   -0.2759   -0.9506 C   0  0  1  0  0  0  0  0  0  0  0  0
    5.4604   -0.4124   -0.8558 O   0  0  0  0  0  0  0  0  0  0  0  0
    3.4616   -1.5637   -0.4458 C   0  0  0  0  0  0  0  0  0  0  0  0
    1.9667   -1.4588   -0.6441 C   0  0  0  0  0  0  0  0  0  0  0  0
    1.3532   -0.3775    0.1972 C   0  0  2  0  0  0  0  0  0  0  0  0
    1.3225   -0.7636    1.6602 C   0  0  0  0  0  0  0  0  0  0  0  0
   -1.9500    0.9386   -0.1960 C   0  0  2  0  0  0  0  0  0  0  0  0
   -3.1894    1.4980    0.2474 C   0  0  0  0  0  0  0  0  0  0  0  0
   -4.2097    0.5843   -0.4556 C   0  0  0  0  0  0  0  0  0  0  0  0
   -3.4071   -0.6427   -0.9216 C   0  0  2  0  0  0  0  0  0  0  0  0
   -4.1602   -1.8040   -0.7807 O   0  0  0  0  0  0  0  0  0  0  0  0
   -2.4863   -0.1740    2.0722 H   0  0  0  0  0  0  0  0  0  0  0  0
   -3.5311   -1.4256    1.3643 H   0  0  0  0  0  0  0  0  0  0  0  0
   -1.8328   -1.7889    1.7147 H   0  0  0  0  0  0  0  0  0  0  0  0
   -0.9645   -1.5353   -1.5819 H   0  0  0  0  0  0  0  0  0  0  0  0
   -0.6346   -1.9761    0.1197 H   0  0  0  0  0  0  0  0  0  0  0  0
    0.1956    0.4708   -1.3508 H   0  0  0  0  0  0  0  0  0  0  0  0
   -0.7381    0.7339    1.5423 H   0  0  0  0  0  0  0  0  0  0  0  0
   -0.0832    2.9862    1.1405 H   0  0  0  0  0  0  0  0  0  0  0  0
   -0.2957    2.8281   -0.6122 H   0  0  0  0  0  0  0  0  0  0  0  0
    2.1986    2.9694    0.1216 H   0  0  0  0  0  0  0  0  0  0  0  0
    4.0671    1.7603   -0.3831 H   0  0  0  0  0  0  0  0  0  0  0  0
    4.1105    0.5945    0.9894 H   0  0  0  0  0  0  0  0  0  0  0  0
    3.7214   -0.0990   -1.9711 H   0  0  0  0  0  0  0  0  0  0  0  0
    5.8849    0.3133   -1.3551 H   0  0  0  0  0  0  0  0  0  0  0  0
    3.8127   -2.3706   -1.1260 H   0  0  0  0  0  0  0  0  0  0  0  0
    3.7322   -1.8007    0.5827 H   0  0  0  0  0  0  0  0  0  0  0  0
    1.8124   -1.1567   -1.7160 H   0  0  0  0  0  0  0  0  0  0  0  0
    1.4364   -2.3949   -0.4317 H   0  0  0  0  0  0  0  0  0  0  0  0
    2.2981   -1.2283    1.9148 H   0  0  0  0  0  0  0  0  0  0  0  0
    0.5400   -1.4840    1.9049 H   0  0  0  0  0  0  0  0  0  0  0  0
    1.2457    0.1385    2.3168 H   0  0  0  0  0  0  0  0  0  0  0  0
   -1.8164    1.0955   -1.2932 H   0  0  0  0  0  0  0  0  0  0  0  0
   -3.3969    1.5986    1.3049 H   0  0  0  0  0  0  0  0  0  0  0  0
   -3.3514    2.5211   -0.2053 H   0  0  0  0  0  0  0  0  0  0  0  0
   -5.0247    0.2954    0.2246 H   0  0  0  0  0  0  0  0  0  0  0  0
   -4.5841    1.0519   -1.3893 H   0  0  0  0  0  0  0  0  0  0  0  0
   -3.1150   -0.5522   -1.9819 H   0  0  0  0  0  0  0  0  0  0  0  0
   -5.1279   -1.5271   -0.8019 H   0  0  0  0  0  0  0  0  0  0  0  0
  2  1  1  1
  2  3  1  0
  3  4  1  0
  4  5  1  0
  5  6  1  0
  6  7  1  0
  7  8  2  0
  8  9  1  0
  9 10  1  0
 10 11  1  0
 10 12  1  0
 12 13  1  0
 13 14  1  0
 14 15  1  1
  5 16  1  0
 16 17  1  0
 17 18  1  0
 18 19  1  0
 19 20  1  0
 16  2  1  0
 19  2  1  0
 14  4  1  0
 14  8  1  0
  1 21  1  0
  1 22  1  0
  1 23  1  0
  3 24  1  0
  3 25  1  0
  4 26  1  6
  5 27  1  1
  6 28  1  0
  6 29  1  0
  7 30  1  0
  9 31  1  0
  9 32  1  0
 10 33  1  6
 11 34  1  0
 12 35  1  0
 12 36  1  0
 13 37  1  0
 13 38  1  0
 15 39  1  0
 15 40  1  0
 15 41  1  0
 16 42  1  6
 17 43  1  0
 17 44  1  0
 18 45  1  0
 18 46  1  0
 19 47  1  6
 20 48  1  0
M  END
$$$$
[H]c1c([H])c(Cl)c(-c2c([H])c3c([H])nc(N([H])c4c([H])c([H])c(N5C([H])([H])C([H])([H])N(C([H])([H])C([H])([H])[H])C([H])([H])C5([H])[H])c([H])c4[H])nc3n(C([H])([H])[H])c2=O)c(Cl)c1[H]
     RDKit          3D

 61 65  0  0  0  0  0  0  0  0999 V2000
   -9.5649    0.4916   -0.3068 C   0  0  0  0  0  0  0  0  0  0  0  0
   -8.7019    0.7167    0.9167 C   0  0  0  0  0  0  0  0  0  0  0  0
   -7.3874    0.1987    0.7814 N   0  0  0  0  0  0  0  0  0  0  0  0
   -7.2713   -1.2273    0.7300 C   0  0  0  0  0  0  0  0  0  0  0  0
   -5.8793   -1.6200    0.2240 C   0  0  0  0  0  0  0  0  0  0  0  0
   -4.9481   -0.7783    0.9183 N   0  0  0  0  0  0  0  0  0  0  0  0
   -5.4129   -0.1399    2.1257 C   0  0  0  0  0  0  0  0  0  0  0  0
   -6.5031    0.8512    1.7100 C   0  0  0  0  0  0  0  0  0  0  0  0
   -3.6411   -0.5872    0.4183 C   0  0  0  0  0  0  0  0  0  0  0  0
   -3.3529   -0.8167   -0.9161 C   0  0  0  0  0  0  0  0  0  0  0  0
   -2.0707   -0.6381   -1.4072 C   0  0  0  0  0  0  0  0  0  0  0  0
   -1.0055   -0.2241   -0.6101 C   0  0  0  0  0  0  0  0  0  0  0  0
    0.2612   -0.0370   -1.1901 N   0  0  0  0  0  0  0  0  0  0  0  0
    1.5169   -0.0579   -0.5669 C   0  0  0  0  0  0  0  0  0  0  0  0
    1.7680   -0.2849    0.7263 N   0  0  0  0  0  0  0  0  0  0  0  0
    3.0001   -0.2907    1.2693 C   0  0  0  0  0  0  0  0  0  0  0  0
    4.0886   -0.0487    0.4576 C   0  0  0  0  0  0  0  0  0  0  0  0
    5.3800   -0.0314    0.8935 C   0  0  0  0  0  0  0  0  0  0  0  0
    6.4299    0.2143    0.0380 C   0  0  0  0  0  0  0  0  0  0  0  0
    7.8268    0.2401    0.4538 C   0  0  0  0  0  0  0  0  0  0  0  0
    8.6067   -0.8993    0.4399 C   0  0  0  0  0  0  0  0  0  0  0  0
    7.9312   -2.4067   -0.0791 Cl  0  0  0  0  0  0  0  0  0  0  0  0
    9.9452   -0.8477    0.8432 C   0  0  0  0  0  0  0  0  0  0  0  0
   10.5137    0.3393    1.2623 C   0  0  0  0  0  0  0  0  0  0  0  0
    9.7481    1.4777    1.2803 C   0  0  0  0  0  0  0  0  0  0  0  0
    8.4232    1.4130    0.8781 C   0  0  0  0  0  0  0  0  0  0  0  0
    7.4187    2.8649    0.8923 Cl  0  0  0  0  0  0  0  0  0  0  0  0
    6.1159    0.4472   -1.3043 C   0  0  0  0  0  0  0  0  0  0  0  0
    7.0502    0.6792   -2.1324 O   0  0  0  0  0  0  0  0  0  0  0  0
    4.8631    0.4339   -1.7460 N   0  0  0  0  0  0  0  0  0  0  0  0
    4.5747    0.6841   -3.1363 C   0  0  0  0  0  0  0  0  0  0  0  0
    3.8619    0.1912   -0.8901 C   0  0  0  0  0  0  0  0  0  0  0  0
    2.6102    0.1763   -1.3344 N   0  0  0  0  0  0  0  0  0  0  0  0
   -1.3158   -0.0028    0.7087 C   0  0  0  0  0  0  0  0  0  0  0  0
   -2.5975   -0.1796    1.2089 C   0  0  0  0  0  0  0  0  0  0  0  0
  -10.3496    1.2792   -0.3032 H   0  0  0  0  0  0  0  0  0  0  0  0
  -10.0980   -0.4840   -0.2408 H   0  0  0  0  0  0  0  0  0  0  0  0
   -8.9950    0.6024   -1.2360 H   0  0  0  0  0  0  0  0  0  0  0  0
   -8.6179    1.8273    1.0329 H   0  0  0  0  0  0  0  0  0  0  0  0
   -9.2627    0.3642    1.7821 H   0  0  0  0  0  0  0  0  0  0  0  0
   -7.4173   -1.7282    1.6869 H   0  0  0  0  0  0  0  0  0  0  0  0
   -7.9849   -1.5924   -0.0368 H   0  0  0  0  0  0  0  0  0  0  0  0
   -5.7293   -2.6824    0.5607 H   0  0  0  0  0  0  0  0  0  0  0  0
   -5.8443   -1.5461   -0.8728 H   0  0  0  0  0  0  0  0  0  0  0  0
   -4.6439    0.3419    2.7297 H   0  0  0  0  0  0  0  0  0  0  0  0
   -5.9333   -0.8675    2.7875 H   0  0  0  0  0  0  0  0  0  0  0  0
   -5.9876    1.6665    1.1228 H   0  0  0  0  0  0  0  0  0  0  0  0
   -7.0233    1.2753    2.5949 H   0  0  0  0  0  0  0  0  0  0  0  0
   -4.0922   -1.1399   -1.6356 H   0  0  0  0  0  0  0  0  0  0  0  0
   -1.8412   -0.8195   -2.4551 H   0  0  0  0  0  0  0  0  0  0  0  0
    0.2454    0.1493   -2.2428 H   0  0  0  0  0  0  0  0  0  0  0  0
    3.1829   -0.4775    2.3164 H   0  0  0  0  0  0  0  0  0  0  0  0
    5.5971   -0.2157    1.9369 H   0  0  0  0  0  0  0  0  0  0  0  0
   10.5689   -1.7284    0.8390 H   0  0  0  0  0  0  0  0  0  0  0  0
   11.5537    0.3830    1.5753 H   0  0  0  0  0  0  0  0  0  0  0  0
   10.2085    2.3842    1.6088 H   0  0  0  0  0  0  0  0  0  0  0  0
    5.4201    1.1482   -3.6737 H   0  0  0  0  0  0  0  0  0  0  0  0
    3.7353    1.4405   -3.2118 H   0  0  0  0  0  0  0  0  0  0  0  0
    4.2888   -0.2280   -3.6888 H   0  0  0  0  0  0  0  0  0  0  0  0
   -0.5296    0.3298    1.3784 H   0  0  0  0  0  0  0  0  0  0  0  0
   -2.7329    0.0166    2.2595 H   0  0  0  0  0  0  0  0  0  0  0  0
  1  2  1  0
  2  3  1  0
  3  4  1  0
  4  5  1  0
  5  6  1  0
  6  7  1  0
  7  8  1  0
  6  9  1  0
  9 10  2  0
 10 11  1  0
 11 12  2  0
 12 13  1  0
 13 14  1  0
 14 15  2  0
 15 16  1  0
 16 17  2  0
 17 18  1  0
 18 19  2  0
 19 20  1  0
 20 21  2  0
 21 22  1  0
 21 23  1  0
 23 24  2  0
 24 25  1  0
 25 26  2  0
 26 27  1  0
 19 28  1  0
 28 29  2  0
 28 30  1  0
 30 31  1  0
 30 32  1  0
 32 33  2  0
 12 34  1  0
 34 35  2  0
  8  3  1  0
 35  9  1  0
 33 14  1  0
 32 17  1  0
 26 20  1  0
  1 36  1  0
  1 37  1  0
  1 38  1  0
  2 39  1  0
  2 40  1  0
  4 41  1  0
  4 42  1  0
  5 43  1  0
  5 44  1  0
  7 45  1  0
  7 46  1  0
  8 47  1  0
  8 48  1  0
 10 49  1  0
 11 50  1  0
 13 51  1  0
 16 52  1  0
 18 53  1  0
 23 54  1  0
 24 55  1  0
 25 56  1  0
 31 57  1  0
 31 58  1  0
 31 59  1  0
 34 60  1  0
 35 61  1  0
M  END
$$$$
[H]c1nc([H])c(C([H])([H])[C@]2([H])N3C([H])([H])C([H])([H])C([H])(C([H])([H])C3([H])[H])[C@@]2([H])N([H])C(=O)c2c([H])c([H])c([H])c([H])c2[H])c([H])c1[H]
     RDKit          3D

 47 50  0  0  0  0  0  0  0  0999 V2000
    1.8799   -0.9040    2.1132 O   0  0  0  0  0  0  0  0  0  0  0  0
    2.2737   -0.3679    1.0170 C   0  0  0  0  0  0  0  0  0  0  0  0
    1.4170   -0.4062   -0.1217 N   0  0  0  0  0  0  0  0  0  0  0  0
    0.1331   -1.0353   -0.0430 C   0  0  2  0  0  0  0  0  0  0  0  0
    0.0796   -2.2131   -1.0258 C   0  0  0  0  0  0  0  0  0  0  0  0
   -0.2947   -1.6119   -2.3816 C   0  0  0  0  0  0  0  0  0  0  0  0
   -1.7755   -1.2511   -2.2908 C   0  0  0  0  0  0  0  0  0  0  0  0
   -2.0838   -0.8990   -0.8944 N   0  0  0  0  0  0  0  0  0  0  0  0
   -2.2089   -2.1649   -0.1976 C   0  0  0  0  0  0  0  0  0  0  0  0
   -1.0973   -3.1004   -0.6268 C   0  0  0  0  0  0  0  0  0  0  0  0
   -1.0017   -0.0825   -0.3521 C   0  0  1  0  0  0  0  0  0  0  0  0
   -1.5266    0.5641    0.9129 C   0  0  0  0  0  0  0  0  0  0  0  0
   -2.6406    1.5021    0.6287 C   0  0  0  0  0  0  0  0  0  0  0  0
   -3.9742    1.1199    0.6103 C   0  0  0  0  0  0  0  0  0  0  0  0
   -4.9811    2.0224    0.3418 C   0  0  0  0  0  0  0  0  0  0  0  0
   -4.6979    3.3438    0.0806 C   0  0  0  0  0  0  0  0  0  0  0  0
   -3.4029    3.7051    0.1006 N   0  0  0  0  0  0  0  0  0  0  0  0
   -2.4005    2.8351    0.3618 C   0  0  0  0  0  0  0  0  0  0  0  0
    3.5865    0.2567    0.9943 C   0  0  0  0  0  0  0  0  0  0  0  0
    4.3202    0.2672    2.1834 C   0  0  0  0  0  0  0  0  0  0  0  0
    5.5739    0.8458    2.2220 C   0  0  0  0  0  0  0  0  0  0  0  0
    6.0789    1.4071    1.0712 C   0  0  0  0  0  0  0  0  0  0  0  0
    5.3715    1.4076   -0.1129 C   0  0  0  0  0  0  0  0  0  0  0  0
    4.1036    0.8203   -0.1445 C   0  0  0  0  0  0  0  0  0  0  0  0
    1.7523    0.0324   -0.9975 H   0  0  0  0  0  0  0  0  0  0  0  0
   -0.0266   -1.4415    0.9896 H   0  0  0  0  0  0  0  0  0  0  0  0
    1.0280   -2.7471   -1.0492 H   0  0  0  0  0  0  0  0  0  0  0  0
    0.2731   -0.6653   -2.4853 H   0  0  0  0  0  0  0  0  0  0  0  0
   -0.0941   -2.3177   -3.2110 H   0  0  0  0  0  0  0  0  0  0  0  0
   -1.9800   -0.4056   -2.9671 H   0  0  0  0  0  0  0  0  0  0  0  0
   -2.3423   -2.1693   -2.5392 H   0  0  0  0  0  0  0  0  0  0  0  0
   -2.1787   -2.0844    0.8896 H   0  0  0  0  0  0  0  0  0  0  0  0
   -3.2122   -2.5747   -0.4683 H   0  0  0  0  0  0  0  0  0  0  0  0
   -0.7501   -3.7374    0.2344 H   0  0  0  0  0  0  0  0  0  0  0  0
   -1.4534   -3.7188   -1.4716 H   0  0  0  0  0  0  0  0  0  0  0  0
   -0.6364    0.6422   -1.0759 H   0  0  0  0  0  0  0  0  0  0  0  0
   -0.6672    1.0709    1.3966 H   0  0  0  0  0  0  0  0  0  0  0  0
   -1.8634   -0.2125    1.6294 H   0  0  0  0  0  0  0  0  0  0  0  0
   -4.1852    0.0670    0.8195 H   0  0  0  0  0  0  0  0  0  0  0  0
   -6.0155    1.7188    0.3291 H   0  0  0  0  0  0  0  0  0  0  0  0
   -5.4889    4.0739   -0.1348 H   0  0  0  0  0  0  0  0  0  0  0  0
   -1.3785    3.1955    0.3615 H   0  0  0  0  0  0  0  0  0  0  0  0
    3.9094   -0.1789    3.0823 H   0  0  0  0  0  0  0  0  0  0  0  0
    6.1287    0.8429    3.1597 H   0  0  0  0  0  0  0  0  0  0  0  0
    7.0635    1.8607    1.1047 H   0  0  0  0  0  0  0  0  0  0  0  0
    5.8112    1.8573   -0.9761 H   0  0  0  0  0  0  0  0  0  0  0  0
    3.5741    0.8305   -1.0672 H   0  0  0  0  0  0  0  0  0  0  0  0
  1  2  2  0
  2  3  1  0
  3  4  1  0
  4  5  1  0
  5  6  1  0
  6  7  1  0
  7  8  1  0
  8  9  1  0
  9 10  1  0
  8 11  1  0
 11 12  1  0
 12 13  1  0
 13 14  2  0
 14 15  1  0
 15 16  2  0
 16 17  1  0
 17 18  2  0
  2 19  1  0
 19 20  2  0
 20 21  1  0
 21 22  2  0
 22 23  1  0
 23 24  2  0
 11  4  1  0
 18 13  1  0
 24 19  1  0
 10  5  1  0
  3 25  1  0
  4 26  1  1
  5 27  1  0
  6 28  1  0
  6 29  1  0
  7 30  1  0
  7 31  1  0
  9 32  1  0
  9 33  1  0
 10 34  1  0
 10 35  1  0
 11 36  1  6
 12 37  1  0
 12 38  1  0
 14 39  1  0
 15 40  1  0
 16 41  1  0
 18 42  1  0
 20 43  1  0
 21 44  1  0
 22 45  1  0
 23 46  1  0
 24 47  1  0
M  END
$$$$
[H]c1c([H])c([H])c(C2=NC([H])([H])c3nnc(C([H])([H])[H])n3-c3c([H])c([H])c(Cl)c([H])c32)c(Cl)c1[H]
     RDKit          3D

 35 38  0  0  0  0  0  0  0  0999 V2000
    4.0307   -0.4201   -1.0699 C   0  0  0  0  0  0  0  0  0  0  0  0
    3.3908   -0.6986    0.2265 C   0  0  0  0  0  0  0  0  0  0  0  0
    3.8234   -1.5595    1.2051 N   0  0  0  0  0  0  0  0  0  0  0  0
    2.9220   -1.5902    2.2053 N   0  0  0  0  0  0  0  0  0  0  0  0
    1.9207   -0.7864    1.9220 C   0  0  0  0  0  0  0  0  0  0  0  0
    0.6545   -0.5063    2.7022 C   0  0  0  0  0  0  0  0  0  0  0  0
   -0.5327   -0.7346    1.8842 N   0  0  0  0  0  0  0  0  0  0  0  0
   -0.8154   -0.2721    0.6850 C   0  0  0  0  0  0  0  0  0  0  0  0
   -2.0557   -0.6352    0.0515 C   0  0  0  0  0  0  0  0  0  0  0  0
   -2.4940   -0.4144   -1.2021 C   0  0  0  0  0  0  0  0  0  0  0  0
   -3.7527   -0.7521   -1.6290 C   0  0  0  0  0  0  0  0  0  0  0  0
   -4.6570   -1.3579   -0.7604 C   0  0  0  0  0  0  0  0  0  0  0  0
   -4.2220   -1.5944    0.5302 C   0  0  0  0  0  0  0  0  0  0  0  0
   -2.9726   -1.2503    0.9298 C   0  0  0  0  0  0  0  0  0  0  0  0
   -2.5165   -1.5994    2.6099 Cl  0  0  0  0  0  0  0  0  0  0  0  0
    0.0468    0.6933    0.0256 C   0  0  0  0  0  0  0  0  0  0  0  0
   -0.6131    1.6975   -0.6222 C   0  0  0  0  0  0  0  0  0  0  0  0
    0.0995    2.6784   -1.2750 C   0  0  0  0  0  0  0  0  0  0  0  0
   -0.8060    3.9409   -2.1091 Cl  0  0  0  0  0  0  0  0  0  0  0  0
    1.4992    2.6628   -1.2785 C   0  0  0  0  0  0  0  0  0  0  0  0
    2.2088    1.6488   -0.6171 C   0  0  0  0  0  0  0  0  0  0  0  0
    1.4424    0.7122    0.0016 C   0  0  0  0  0  0  0  0  0  0  0  0
    2.2412   -0.2436    0.6879 N   0  0  0  0  0  0  0  0  0  0  0  0
    4.9499    0.1755   -1.0577 H   0  0  0  0  0  0  0  0  0  0  0  0
    3.3460   -0.2503   -1.9241 H   0  0  0  0  0  0  0  0  0  0  0  0
    4.4545   -1.4385   -1.3788 H   0  0  0  0  0  0  0  0  0  0  0  0
    0.6141   -1.1647    3.5610 H   0  0  0  0  0  0  0  0  0  0  0  0
    0.6815    0.5736    2.9336 H   0  0  0  0  0  0  0  0  0  0  0  0
   -1.8259   -0.0091   -1.9274 H   0  0  0  0  0  0  0  0  0  0  0  0
   -4.1133   -0.5775   -2.6295 H   0  0  0  0  0  0  0  0  0  0  0  0
   -5.6518   -1.6428   -1.0394 H   0  0  0  0  0  0  0  0  0  0  0  0
   -4.9071   -2.0718    1.2437 H   0  0  0  0  0  0  0  0  0  0  0  0
   -1.6955    1.7158   -0.5471 H   0  0  0  0  0  0  0  0  0  0  0  0
    2.0489    3.4174   -1.7815 H   0  0  0  0  0  0  0  0  0  0  0  0
    3.2565    1.6536   -0.5560 H   0  0  0  0  0  0  0  0  0  0  0  0
  1  2  1  0
  2  3  2  0
  3  4  1  0
  4  5  2  0
  5  6  1  0
  6  7  1  0
  7  8  2  0
  8  9  1  0
  9 10  2  0
 10 11  1  0
 11 12  2  0
 12 13  1  0
 13 14  2  0
 14 15  1  0
  8 16  1  0
 16 17  2  0
 17 18  1  0
 18 19  1  0
 18 20  2  0
 20 21  1  0
 21 22  2  0
 22 23  1  0
 23  2  1  0
 23  5  1  0
 14  9  1  0
 22 16  1  0
  1 24  1  0
  1 25  1  0
  1 26  1  0
  6 27  1  0
  6 28  1  0
 10 29  1  0
 11 30  1  0
 12 31  1  0
 13 32  1  0
 17 33  1  0
 20 34  1  0
 21 35  1  0
M  END
$$$$
[H]N=C(N([H])[H])N([H])C([H])([H])C([H])([H])C([H])([H])[C@]([H])(C(=O)N([H])[C@]([H])(C(=O)N([H])[H])C([H])([H])c1c([H])n([H])c2c([H])c([H])c([H])c([H])c12)N([H])S(=O)(=O)C([H])([H])c1c([H])c([H])c([H])c([H])c1[H]
     RDKit          3D

 67 69  0  0  0  0  0  0  0  0999 V2000
    4.3966    5.1833   -0.7829 N   0  0  0  0  0  0  0  0  0  0  0  0
    3.2814    4.3136   -0.5519 C   0  0  0  0  0  0  0  0  0  0  0  0
    2.8236    3.6583   -1.5397 N   0  0  0  0  0  0  0  0  0  0  0  0
    2.7141    4.1970    0.7575 N   0  0  0  0  0  0  0  0  0  0  0  0
    3.2508    3.2906    1.7360 C   0  0  0  0  0  0  0  0  0  0  0  0
    2.9729    1.8647    1.3373 C   0  0  0  0  0  0  0  0  0  0  0  0
    1.4753    1.6689    1.2961 C   0  0  0  0  0  0  0  0  0  0  0  0
    1.0573    0.2746    0.9191 C   0  0  1  0  0  0  0  0  0  0  0  0
    1.5474   -0.7422    1.8147 N   0  0  0  0  0  0  0  0  0  0  0  0
    2.4312   -1.9284    0.9973 S   0  0  0  0  0  0  0  0  0  0  0  0
    2.8653   -3.0182    1.9409 O   0  0  0  0  0  0  0  0  0  0  0  0
    1.5163   -2.5126   -0.0723 O   0  0  0  0  0  0  0  0  0  0  0  0
    3.8773   -1.3620    0.1655 C   0  0  0  0  0  0  0  0  0  0  0  0
    4.5719   -2.4830   -0.4873 C   0  0  0  0  0  0  0  0  0  0  0  0
    4.1958   -2.8700   -1.7543 C   0  0  0  0  0  0  0  0  0  0  0  0
    4.8378   -3.9174   -2.4126 C   0  0  0  0  0  0  0  0  0  0  0  0
    5.8771   -4.5781   -1.7693 C   0  0  0  0  0  0  0  0  0  0  0  0
    6.2752   -4.2083   -0.4943 C   0  0  0  0  0  0  0  0  0  0  0  0
    5.6213   -3.1691    0.1310 C   0  0  0  0  0  0  0  0  0  0  0  0
   -0.4489    0.1934    0.8139 C   0  0  0  0  0  0  0  0  0  0  0  0
   -1.0120   -0.7572    1.3996 O   0  0  0  0  0  0  0  0  0  0  0  0
   -1.2076    1.1321    0.0981 N   0  0  0  0  0  0  0  0  0  0  0  0
   -2.6588    1.1151   -0.0405 C   0  0  1  0  0  0  0  0  0  0  0  0
   -3.0762    0.1256   -1.0548 C   0  0  0  0  0  0  0  0  0  0  0  0
   -4.5003   -0.0870   -1.3168 C   0  0  0  0  0  0  0  0  0  0  0  0
   -5.2328    0.6819   -2.2214 C   0  0  0  0  0  0  0  0  0  0  0  0
   -6.5086    0.2922   -2.2285 N   0  0  0  0  0  0  0  0  0  0  0  0
   -6.6376   -0.7100   -1.3568 C   0  0  0  0  0  0  0  0  0  0  0  0
   -7.7501   -1.4706   -1.0158 C   0  0  0  0  0  0  0  0  0  0  0  0
   -7.6279   -2.4822   -0.1006 C   0  0  0  0  0  0  0  0  0  0  0  0
   -6.3907   -2.7271    0.4694 C   0  0  0  0  0  0  0  0  0  0  0  0
   -5.2823   -1.9825    0.1431 C   0  0  0  0  0  0  0  0  0  0  0  0
   -5.4189   -0.9724   -0.7740 C   0  0  0  0  0  0  0  0  0  0  0  0
   -3.3349    1.2047    1.2354 C   0  0  0  0  0  0  0  0  0  0  0  0
   -4.7713    1.4223    1.2145 N   0  0  0  0  0  0  0  0  0  0  0  0
   -2.8099    1.1221    2.3888 O   0  0  0  0  0  0  0  0  0  0  0  0
    4.2079    6.1803   -0.9596 H   0  0  0  0  0  0  0  0  0  0  0  0
    5.3485    4.7866   -0.7652 H   0  0  0  0  0  0  0  0  0  0  0  0
    2.0387    3.0124   -1.5012 H   0  0  0  0  0  0  0  0  0  0  0  0
    1.8929    4.8012    0.9634 H   0  0  0  0  0  0  0  0  0  0  0  0
    4.3496    3.4850    1.8352 H   0  0  0  0  0  0  0  0  0  0  0  0
    2.7073    3.4525    2.6998 H   0  0  0  0  0  0  0  0  0  0  0  0
    3.3676    1.7109    0.3038 H   0  0  0  0  0  0  0  0  0  0  0  0
    3.4730    1.1380    2.0089 H   0  0  0  0  0  0  0  0  0  0  0  0
    1.0592    2.4123    0.5873 H   0  0  0  0  0  0  0  0  0  0  0  0
    1.0279    1.9607    2.2962 H   0  0  0  0  0  0  0  0  0  0  0  0
    1.4290    0.0594   -0.1023 H   0  0  0  0  0  0  0  0  0  0  0  0
    1.9914   -0.3768    2.6806 H   0  0  0  0  0  0  0  0  0  0  0  0
    3.5896   -0.5617   -0.5572 H   0  0  0  0  0  0  0  0  0  0  0  0
    4.5966   -0.8690    0.8584 H   0  0  0  0  0  0  0  0  0  0  0  0
    3.3881   -2.3599   -2.2607 H   0  0  0  0  0  0  0  0  0  0  0  0
    4.5031   -4.1878   -3.4107 H   0  0  0  0  0  0  0  0  0  0  0  0
    6.3638   -5.3933   -2.2986 H   0  0  0  0  0  0  0  0  0  0  0  0
    7.0910   -4.7763   -0.0745 H   0  0  0  0  0  0  0  0  0  0  0  0
    5.9332   -2.8870    1.1112 H   0  0  0  0  0  0  0  0  0  0  0  0
   -0.6764    1.9040   -0.3686 H   0  0  0  0  0  0  0  0  0  0  0  0
   -2.8812    2.1484   -0.5372 H   0  0  0  0  0  0  0  0  0  0  0  0
   -2.6316   -0.8939   -0.7759 H   0  0  0  0  0  0  0  0  0  0  0  0
   -2.5980    0.3150   -2.0574 H   0  0  0  0  0  0  0  0  0  0  0  0
   -4.8250    1.4735   -2.8245 H   0  0  0  0  0  0  0  0  0  0  0  0
   -7.2515    0.7272   -2.8308 H   0  0  0  0  0  0  0  0  0  0  0  0
   -8.7174   -1.2590   -1.4787 H   0  0  0  0  0  0  0  0  0  0  0  0
   -8.4813   -3.0841    0.1754 H   0  0  0  0  0  0  0  0  0  0  0  0
   -6.3340   -3.5248    1.1789 H   0  0  0  0  0  0  0  0  0  0  0  0
   -4.2948   -2.1508    0.5758 H   0  0  0  0  0  0  0  0  0  0  0  0
   -5.3855    0.8604    1.8270 H   0  0  0  0  0  0  0  0  0  0  0  0
   -5.2017    2.1349    0.5914 H   0  0  0  0  0  0  0  0  0  0  0  0
  1  2  1  0
  2  3  2  3
  2  4  1  0
  4  5  1  0
  5  6  1  0
  6  7  1  0
  7  8  1  0
  8  9  1  0
  9 10  1  0
 10 11  2  0
 10 12  2  0
 10 13  1  0
 13 14  1  0
 14 15  2  0
 15 16  1  0
 16 17  2  0
 17 18  1  0
 18 19  2  0
  8 20  1  0
 20 21  2  0
 20 22  1  0
 22 23  1  0
 23 24  1  0
 24 25  1  0
 25 26  2  0
 26 27  1  0
 27 28  1  0
 28 29  2  0
 29 30  1  0
 30 31  2  0
 31 32  1  0
 32 33  2  0
 23 34  1  0
 34 35  1  0
 34 36  2  0
 19 14  1  0
 33 25  1  0
 33 28  1  0
  1 37  1  0
  1 38  1  0
  3 39  1  0
  4 40  1  0
  5 41  1  0
  5 42  1  0
  6 43  1  0
  6 44  1  0
  7 45  1  0
  7 46  1  0
  8 47  1  6
  9 48  1  0
 13 49  1  0
 13 50  1  0
 15 51  1  0
 16 52  1  0
 17 53  1  0
 18 54  1  0
 19 55  1  0
 22 56  1  0
 23 57  1  6
 24 58  1  0
 24 59  1  0
 26 60  1  0
 27 61  1  0
 29 62  1  0
 30 63  1  0
 31 64  1  0
 32 65  1  0
 35 66  1  0
 35 67  1  0
M  END
$$$$
[H]O[C@@]1([H])C([H])([H])C([H])([H])[C@]2([H])[C@]1(C([H])([H])[H])C([H])([H])C([H])([H])[C@]1([H])[C@]3(C([H])([H])[H])C(=C([H])C(=O)C([H])([H])C3([H])[H])C([H])([H])C([H])([H])[C@@]21[H]
     RDKit          3D

 49 52  0  0  0  0  0  0  0  0999 V2000
    2.6003    1.3949    0.7370 C   0  0  0  0  0  0  0  0  0  0  0  0
    2.3315    0.4990   -0.4424 C   0  0  2  0  0  0  0  0  0  0  0  0
    1.5103    1.1614   -1.4949 C   0  0  0  0  0  0  0  0  0  0  0  0
    0.1483    1.4556   -0.9170 C   0  0  0  0  0  0  0  0  0  0  0  0
   -0.5369    0.1560   -0.5507 C   0  0  1  0  0  0  0  0  0  0  0  0
    0.2754   -0.6369    0.4710 C   0  0  1  0  0  0  0  0  0  0  0  0
   -0.3169   -2.0384    0.5263 C   0  0  0  0  0  0  0  0  0  0  0  0
   -1.7749   -2.0482    0.8169 C   0  0  0  0  0  0  0  0  0  0  0  0
   -2.5405   -0.9871    0.1457 C   0  0  0  0  0  0  0  0  0  0  0  0
   -3.7658   -1.2727   -0.2625 C   0  0  0  0  0  0  0  0  0  0  0  0
   -4.6079   -0.3042   -0.9341 C   0  0  0  0  0  0  0  0  0  0  0  0
   -5.6066   -0.6232   -1.6118 O   0  0  0  0  0  0  0  0  0  0  0  0
   -4.2087    1.1393   -0.7699 C   0  0  0  0  0  0  0  0  0  0  0  0
   -2.7163    1.1869   -1.0278 C   0  0  0  0  0  0  0  0  0  0  0  0
   -1.9296    0.3620   -0.0560 C   0  0  2  0  0  0  0  0  0  0  0  0
   -1.9459    1.0713    1.2829 C   0  0  0  0  0  0  0  0  0  0  0  0
    1.6457   -0.7900   -0.0472 C   0  0  2  0  0  0  0  0  0  0  0  0
    2.6444   -1.3862    0.8737 C   0  0  0  0  0  0  0  0  0  0  0  0
    3.9631   -1.0731    0.1623 C   0  0  0  0  0  0  0  0  0  0  0  0
    3.6050   -0.1289   -0.9688 C   0  0  2  0  0  0  0  0  0  0  0  0
    4.5812    0.7519   -1.2889 O   0  0  0  0  0  0  0  0  0  0  0  0
    3.6756    1.2716    1.0471 H   0  0  0  0  0  0  0  0  0  0  0  0
    1.9625    1.2047    1.6015 H   0  0  0  0  0  0  0  0  0  0  0  0
    2.4819    2.4492    0.4115 H   0  0  0  0  0  0  0  0  0  0  0  0
    1.9872    2.1545   -1.7263 H   0  0  0  0  0  0  0  0  0  0  0  0
    1.4562    0.5158   -2.3781 H   0  0  0  0  0  0  0  0  0  0  0  0
   -0.4734    1.9510   -1.6671 H   0  0  0  0  0  0  0  0  0  0  0  0
    0.2714    2.1214   -0.0498 H   0  0  0  0  0  0  0  0  0  0  0  0
   -0.5888   -0.4547   -1.4753 H   0  0  0  0  0  0  0  0  0  0  0  0
    0.1940   -0.1895    1.4684 H   0  0  0  0  0  0  0  0  0  0  0  0
   -0.0876   -2.5040   -0.4691 H   0  0  0  0  0  0  0  0  0  0  0  0
    0.2474   -2.5825    1.3004 H   0  0  0  0  0  0  0  0  0  0  0  0
   -2.1698   -3.0559    0.5263 H   0  0  0  0  0  0  0  0  0  0  0  0
   -1.9002   -2.0016    1.9294 H   0  0  0  0  0  0  0  0  0  0  0  0
   -4.1853   -2.2671   -0.1012 H   0  0  0  0  0  0  0  0  0  0  0  0
   -4.4637    1.4087    0.2637 H   0  0  0  0  0  0  0  0  0  0  0  0
   -4.7180    1.7173   -1.5432 H   0  0  0  0  0  0  0  0  0  0  0  0
   -2.5697    0.8169   -2.0700 H   0  0  0  0  0  0  0  0  0  0  0  0
   -2.4147    2.2480   -0.9356 H   0  0  0  0  0  0  0  0  0  0  0  0
   -2.6695    1.9362    1.2729 H   0  0  0  0  0  0  0  0  0  0  0  0
   -2.2828    0.4031    2.1004 H   0  0  0  0  0  0  0  0  0  0  0  0
   -0.9566    1.5164    1.5155 H   0  0  0  0  0  0  0  0  0  0  0  0
    1.6091   -1.4204   -0.9702 H   0  0  0  0  0  0  0  0  0  0  0  0
    2.6340   -0.7940    1.8359 H   0  0  0  0  0  0  0  0  0  0  0  0
    2.5188   -2.4554    1.0564 H   0  0  0  0  0  0  0  0  0  0  0  0
    4.3735   -2.0337   -0.2265 H   0  0  0  0  0  0  0  0  0  0  0  0
    4.6899   -0.6220    0.8558 H   0  0  0  0  0  0  0  0  0  0  0  0
    3.3380   -0.7531   -1.8418 H   0  0  0  0  0  0  0  0  0  0  0  0
    4.6855    1.5297   -0.7163 H   0  0  0  0  0  0  0  0  0  0  0  0
  2  1  1  1
  2  3  1  0
  3  4  1  0
  4  5  1  0
  5  6  1  0
  6  7  1  0
  7  8  1  0
  8  9  1  0
  9 10  2  0
 10 11  1  0
 11 12  2  0
 11 13  1  0
 13 14  1  0
 14 15  1  0
 15 16  1  1
  6 17  1  0
 17 18  1  0
 18 19  1  0
 19 20  1  0
 20 21  1  0
 17  2  1  0
 20  2  1  0
 15  5  1  0
 15  9  1  0
  1 22  1  0
  1 23  1  0
  1 24  1  0
  3 25  1  0
  3 26  1  0
  4 27  1  0
  4 28  1  0
  5 29  1  6
  6 30  1  1
  7 31  1  0
  7 32  1  0
  8 33  1  0
  8 34  1  0
 10 35  1  0
 13 36  1  0
 13 37  1  0
 14 38  1  0
 14 39  1  0
 16 40  1  0
 16 41  1  0
 16 42  1  0
 17 43  1  6
 18 44  1  0
 18 45  1  0
 19 46  1  0
 19 47  1  0
 20 48  1  6
 21 49  1  0
M  END
$$$$
[H]OC([H])([H])C([H])([H])N(C(=O)[C@]([H])(Oc1c([H])c([H])c([H])c2nc([H])nc(N([H])c3c([H])c([H])c(OC([H])([H])c4nc([H])c([H])c([H])c4[H])c(Cl)c3[H])c12)C([H])([H])[H])C([H])([H])[H]
     RDKit          3D

 62 65  0  0  0  0  0  0  0  0999 V2000
   -4.7188   -1.0933    2.6431 C   0  0  0  0  0  0  0  0  0  0  0  0
   -3.7122   -0.4604    1.6625 C   0  0  1  0  0  0  0  0  0  0  0  0
   -2.8635   -1.2822    1.0257 O   0  0  0  0  0  0  0  0  0  0  0  0
   -2.7705   -2.5779    0.6917 C   0  0  0  0  0  0  0  0  0  0  0  0
   -3.8604   -3.4473    0.8398 C   0  0  0  0  0  0  0  0  0  0  0  0
   -3.7279   -4.7576    0.4892 C   0  0  0  0  0  0  0  0  0  0  0  0
   -2.5822   -5.2931   -0.0088 C   0  0  0  0  0  0  0  0  0  0  0  0
   -1.4978   -4.4662   -0.1654 C   0  0  0  0  0  0  0  0  0  0  0  0
   -0.3530   -4.9832   -0.6752 N   0  0  0  0  0  0  0  0  0  0  0  0
    0.6962   -4.1816   -0.8392 C   0  0  0  0  0  0  0  0  0  0  0  0
    0.6877   -2.9001   -0.5296 N   0  0  0  0  0  0  0  0  0  0  0  0
   -0.4602   -2.3300   -0.0047 C   0  0  0  0  0  0  0  0  0  0  0  0
   -0.3726   -1.0107    0.4473 N   0  0  0  0  0  0  0  0  0  0  0  0
    0.7974   -0.2408    0.0662 C   0  0  0  0  0  0  0  0  0  0  0  0
    1.3458    0.6524    0.9687 C   0  0  0  0  0  0  0  0  0  0  0  0
    2.4146    1.4326    0.6468 C   0  0  0  0  0  0  0  0  0  0  0  0
    3.0138    1.3657   -0.6266 C   0  0  0  0  0  0  0  0  0  0  0  0
    4.0351    2.1110   -0.9372 O   0  0  0  0  0  0  0  0  0  0  0  0
    5.0346    2.8520   -1.2160 C   0  0  0  0  0  0  0  0  0  0  0  0
    6.2525    2.6540   -0.3468 C   0  0  0  0  0  0  0  0  0  0  0  0
    6.3451    3.3307    0.8245 C   0  0  0  0  0  0  0  0  0  0  0  0
    7.4833    3.1328    1.6159 C   0  0  0  0  0  0  0  0  0  0  0  0
    8.4379    2.2674    1.1621 C   0  0  0  0  0  0  0  0  0  0  0  0
    8.3275    1.5873   -0.0320 C   0  0  0  0  0  0  0  0  0  0  0  0
    7.1941    1.8245   -0.7559 N   0  0  0  0  0  0  0  0  0  0  0  0
    2.4423    0.4530   -1.5284 C   0  0  0  0  0  0  0  0  0  0  0  0
    3.1785    0.3591   -3.1167 Cl  0  0  0  0  0  0  0  0  0  0  0  0
    1.3676   -0.3189   -1.1786 C   0  0  0  0  0  0  0  0  0  0  0  0
   -1.5716   -3.1121    0.1795 C   0  0  0  0  0  0  0  0  0  0  0  0
   -4.4144    0.6385    1.0432 C   0  0  0  0  0  0  0  0  0  0  0  0
   -5.1452    1.3092    1.9208 O   0  0  0  0  0  0  0  0  0  0  0  0
   -4.5136    1.1596   -0.2377 N   0  0  0  0  0  0  0  0  0  0  0  0
   -5.4124    2.3201   -0.4613 C   0  0  0  0  0  0  0  0  0  0  0  0
   -3.7743    0.6554   -1.3637 C   0  0  0  0  0  0  0  0  0  0  0  0
   -2.4860    1.4703   -1.4404 C   0  0  0  0  0  0  0  0  0  0  0  0
   -1.7099    1.0514   -2.5010 O   0  0  0  0  0  0  0  0  0  0  0  0
   -4.3358   -1.9382    3.1869 H   0  0  0  0  0  0  0  0  0  0  0  0
   -4.8886   -0.2912    3.4357 H   0  0  0  0  0  0  0  0  0  0  0  0
   -5.7034   -1.2456    2.2185 H   0  0  0  0  0  0  0  0  0  0  0  0
   -3.0214    0.0689    2.4897 H   0  0  0  0  0  0  0  0  0  0  0  0
   -4.7853   -3.0553    1.1970 H   0  0  0  0  0  0  0  0  0  0  0  0
   -4.5825   -5.4068    0.6145 H   0  0  0  0  0  0  0  0  0  0  0  0
   -2.4691   -6.3429   -0.2932 H   0  0  0  0  0  0  0  0  0  0  0  0
    1.6097   -4.6150   -1.2525 H   0  0  0  0  0  0  0  0  0  0  0  0
   -0.9866   -0.4967    1.0419 H   0  0  0  0  0  0  0  0  0  0  0  0
    0.9236    0.7425    1.9595 H   0  0  0  0  0  0  0  0  0  0  0  0
    2.8679    2.1444    1.3355 H   0  0  0  0  0  0  0  0  0  0  0  0
    4.8369    3.9797   -1.1013 H   0  0  0  0  0  0  0  0  0  0  0  0
    5.4071    2.8509   -2.3112 H   0  0  0  0  0  0  0  0  0  0  0  0
    5.5791    4.0075    1.1604 H   0  0  0  0  0  0  0  0  0  0  0  0
    7.6114    3.6458    2.5607 H   0  0  0  0  0  0  0  0  0  0  0  0
    9.3530    2.0690    1.7355 H   0  0  0  0  0  0  0  0  0  0  0  0
    9.0638    0.9095   -0.3990 H   0  0  0  0  0  0  0  0  0  0  0  0
    0.9680   -0.9874   -1.9607 H   0  0  0  0  0  0  0  0  0  0  0  0
   -5.6984    2.7910    0.4787 H   0  0  0  0  0  0  0  0  0  0  0  0
   -6.3119    1.8949   -0.9428 H   0  0  0  0  0  0  0  0  0  0  0  0
   -4.9017    2.9669   -1.1832 H   0  0  0  0  0  0  0  0  0  0  0  0
   -3.5470   -0.3934   -1.2167 H   0  0  0  0  0  0  0  0  0  0  0  0
   -4.3447    0.8351   -2.3145 H   0  0  0  0  0  0  0  0  0  0  0  0
   -1.9352    1.3878   -0.4943 H   0  0  0  0  0  0  0  0  0  0  0  0
   -2.7665    2.5480   -1.5366 H   0  0  0  0  0  0  0  0  0  0  0  0
   -1.0500    1.7588   -2.6910 H   0  0  0  0  0  0  0  0  0  0  0  0
  1  2  1  0
  2  3  1  0
  3  4  1  0
  4  5  2  0
  5  6  1  0
  6  7  2  0
  7  8  1  0
  8  9  2  0
  9 10  1  0
 10 11  2  0
 11 12  1  0
 12 13  1  0
 13 14  1  0
 14 15  2  0
 15 16  1  0
 16 17  2  0
 17 18  1  0
 18 19  1  0
 19 20  1  0
 20 21  2  0
 21 22  1  0
 22 23  2  0
 23 24  1  0
 24 25  2  0
 17 26  1  0
 26 27  1  0
 26 28  2  0
 12 29  2  0
  2 30  1  0
 30 31  2  0
 30 32  1  0
 32 33  1  0
 32 34  1  0
 34 35  1  0
 35 36  1  0
 29  4  1  0
 29  8  1  0
 28 14  1  0
 25 20  1  0
  1 37  1  0
  1 38  1  0
  1 39  1  0
  2 40  1  1
  5 41  1  0
  6 42  1  0
  7 43  1  0
 10 44  1  0
 13 45  1  0
 15 46  1  0
 16 47  1  0
 19 48  1  0
 19 49  1  0
 21 50  1  0
 22 51  1  0
 23 52  1  0
 24 53  1  0
 28 54  1  0
 33 55  1  0
 33 56  1  0
 33 57  1  0
 34 58  1  0
 34 59  1  0
 35 60  1  0
 35 61  1  0
 36 62  1  0
M  END
$$$$
[H]c1nc(N([H])c2c([H])c([H])c(N3C([H])([H])C([H])([H])C([H])(N4C([H])([H])C([H])([H])C([H])([H])C4([H])[H])C([H])([H])C3([H])[H])c([H])c2OC([H])([H])[H])nc(N([H])c2c([H])c([H])c([H])c([H])c2S(=O)(=O)C([H])(C([H])([H])[H])C([H])([H])[H])c1F
     RDKit          3D

 77 81  0  0  0  0  0  0  0  0999 V2000
    0.8006    0.7567   -3.6679 C   0  0  0  0  0  0  0  0  0  0  0  0
    0.1148    0.6306   -2.4558 O   0  0  0  0  0  0  0  0  0  0  0  0
    0.7693    0.2253   -1.3068 C   0  0  0  0  0  0  0  0  0  0  0  0
    2.1120   -0.0513   -1.3844 C   0  0  0  0  0  0  0  0  0  0  0  0
    2.8191   -0.4630   -0.2585 C   0  0  0  0  0  0  0  0  0  0  0  0
    2.1849   -0.6009    0.9554 C   0  0  0  0  0  0  0  0  0  0  0  0
    0.8124   -0.3091    0.9951 C   0  0  0  0  0  0  0  0  0  0  0  0
    0.1021    0.0941   -0.0906 C   0  0  0  0  0  0  0  0  0  0  0  0
   -1.2705    0.3929   -0.0694 N   0  0  0  0  0  0  0  0  0  0  0  0
   -2.1894    0.3379    0.9801 C   0  0  0  0  0  0  0  0  0  0  0  0
   -1.8847   -0.0353    2.2146 N   0  0  0  0  0  0  0  0  0  0  0  0
   -2.7647   -0.0907    3.2235 C   0  0  0  0  0  0  0  0  0  0  0  0
   -4.0543    0.2640    2.9428 C   0  0  0  0  0  0  0  0  0  0  0  0
   -4.9794    0.2249    3.9264 F   0  0  0  0  0  0  0  0  0  0  0  0
   -4.4455    0.6705    1.6510 C   0  0  0  0  0  0  0  0  0  0  0  0
   -5.7754    1.0058    1.3698 N   0  0  0  0  0  0  0  0  0  0  0  0
   -6.3240    1.4562    0.1543 C   0  0  0  0  0  0  0  0  0  0  0  0
   -5.5575    1.9743   -0.8896 C   0  0  0  0  0  0  0  0  0  0  0  0
   -6.0963    2.5129   -2.0449 C   0  0  0  0  0  0  0  0  0  0  0  0
   -7.4464    2.5489   -2.1898 C   0  0  0  0  0  0  0  0  0  0  0  0
   -8.2258    2.0461   -1.1809 C   0  0  0  0  0  0  0  0  0  0  0  0
   -7.7025    1.4945   -0.0034 C   0  0  0  0  0  0  0  0  0  0  0  0
   -8.8062    0.8112    1.1114 S   0  0  0  0  0  0  0  0  0  0  0  0
   -8.6810    1.3756    2.5240 O   0  0  0  0  0  0  0  0  0  0  0  0
  -10.2310    1.2768    0.7171 O   0  0  0  0  0  0  0  0  0  0  0  0
   -8.9053   -0.9417    1.1378 C   0  0  0  0  0  0  0  0  0  0  0  0
   -7.6797   -1.7139    1.4061 C   0  0  0  0  0  0  0  0  0  0  0  0
   -9.4815   -1.3866   -0.2047 C   0  0  0  0  0  0  0  0  0  0  0  0
   -3.4821    0.6797    0.7543 N   0  0  0  0  0  0  0  0  0  0  0  0
    4.1986   -0.7578   -0.3129 N   0  0  0  0  0  0  0  0  0  0  0  0
    4.9324   -1.0839    0.9224 C   0  0  0  0  0  0  0  0  0  0  0  0
    6.4246   -1.0783    0.6713 C   0  0  0  0  0  0  0  0  0  0  0  0
    6.8039    0.2045   -0.0465 C   0  0  0  0  0  0  0  0  0  0  0  0
    6.0449    0.3419   -1.3194 C   0  0  0  0  0  0  0  0  0  0  0  0
    5.0134   -0.7805   -1.5076 C   0  0  0  0  0  0  0  0  0  0  0  0
    8.2171    0.3643   -0.1838 N   0  0  0  0  0  0  0  0  0  0  0  0
    8.8807   -0.6195   -0.9536 C   0  0  0  0  0  0  0  0  0  0  0  0
    9.5899   -1.5554    0.0167 C   0  0  0  0  0  0  0  0  0  0  0  0
    9.6644   -0.7878    1.2992 C   0  0  0  0  0  0  0  0  0  0  0  0
    8.9101    0.4957    1.0503 C   0  0  0  0  0  0  0  0  0  0  0  0
    1.2769   -0.1888   -3.9987 H   0  0  0  0  0  0  0  0  0  0  0  0
    0.1969    1.2115   -4.4690 H   0  0  0  0  0  0  0  0  0  0  0  0
    1.6533    1.4707   -3.4776 H   0  0  0  0  0  0  0  0  0  0  0  0
    2.6077    0.0603   -2.3460 H   0  0  0  0  0  0  0  0  0  0  0  0
    2.6881   -0.9163    1.8526 H   0  0  0  0  0  0  0  0  0  0  0  0
    0.3843   -0.4387    1.9803 H   0  0  0  0  0  0  0  0  0  0  0  0
   -1.7221    0.7265   -1.0133 H   0  0  0  0  0  0  0  0  0  0  0  0
   -2.4780   -0.3988    4.2117 H   0  0  0  0  0  0  0  0  0  0  0  0
   -6.4306    0.9174    2.2281 H   0  0  0  0  0  0  0  0  0  0  0  0
   -4.4883    1.9908   -0.8337 H   0  0  0  0  0  0  0  0  0  0  0  0
   -5.4481    2.9053   -2.8332 H   0  0  0  0  0  0  0  0  0  0  0  0
   -7.9343    2.9534   -3.0598 H   0  0  0  0  0  0  0  0  0  0  0  0
   -9.3251    2.0735   -1.2963 H   0  0  0  0  0  0  0  0  0  0  0  0
   -9.6645   -1.2192    1.9149 H   0  0  0  0  0  0  0  0  0  0  0  0
   -6.9212   -1.6328    0.6025 H   0  0  0  0  0  0  0  0  0  0  0  0
   -7.9248   -2.8126    1.4310 H   0  0  0  0  0  0  0  0  0  0  0  0
   -7.1731   -1.4283    2.3629 H   0  0  0  0  0  0  0  0  0  0  0  0
   -8.6601   -1.5314   -0.9198 H   0  0  0  0  0  0  0  0  0  0  0  0
  -10.2037   -0.6107   -0.5161 H   0  0  0  0  0  0  0  0  0  0  0  0
   -9.9768   -2.3516   -0.0690 H   0  0  0  0  0  0  0  0  0  0  0  0
    4.6520   -2.1089    1.2351 H   0  0  0  0  0  0  0  0  0  0  0  0
    4.6492   -0.3870    1.7406 H   0  0  0  0  0  0  0  0  0  0  0  0
    6.8942   -1.1052    1.6990 H   0  0  0  0  0  0  0  0  0  0  0  0
    6.7027   -1.9847    0.1340 H   0  0  0  0  0  0  0  0  0  0  0  0
    6.4535    1.0348    0.6361 H   0  0  0  0  0  0  0  0  0  0  0  0
    5.4489    1.2827   -1.3664 H   0  0  0  0  0  0  0  0  0  0  0  0
    6.7174    0.3870   -2.2241 H   0  0  0  0  0  0  0  0  0  0  0  0
    5.5179   -1.7707   -1.5104 H   0  0  0  0  0  0  0  0  0  0  0  0
    4.4972   -0.5617   -2.4376 H   0  0  0  0  0  0  0  0  0  0  0  0
    9.6780   -0.1355   -1.5564 H   0  0  0  0  0  0  0  0  0  0  0  0
    8.2450   -1.1787   -1.6642 H   0  0  0  0  0  0  0  0  0  0  0  0
    9.0436   -2.5236    0.1247 H   0  0  0  0  0  0  0  0  0  0  0  0
   10.6003   -1.8311   -0.3836 H   0  0  0  0  0  0  0  0  0  0  0  0
    9.2736   -1.3450    2.1757 H   0  0  0  0  0  0  0  0  0  0  0  0
   10.7536   -0.6016    1.5206 H   0  0  0  0  0  0  0  0  0  0  0  0
    9.6989    1.2921    0.9069 H   0  0  0  0  0  0  0  0  0  0  0  0
    8.3052    0.8273    1.9053 H   0  0  0  0  0  0  0  0  0  0  0  0
  1  2  1  0
  2  3  1  0
  3  4  2  0
  4  5  1  0
  5  6  2  0
  6  7  1  0
  7  8  2  0
  8  9  1  0
  9 10  1  0
 10 11  2  0
 11 12  1  0
 12 13  2  0
 13 14  1  0
 13 15  1  0
 15 16  1  0
 16 17  1  0
 17 18  2  0
 18 19  1  0
 19 20  2  0
 20 21  1  0
 21 22  2  0
 22 23  1  0
 23 24  2  0
 23 25  2  0
 23 26  1  0
 26 27  1  0
 26 28  1  0
 15 29  2  0
  5 30  1  0
 30 31  1  0
 31 32  1  0
 32 33  1  0
 33 34  1  0
 34 35  1  0
 33 36  1  0
 36 37  1  0
 37 38  1  0
 38 39  1  0
 39 40  1  0
  8  3  1  0
 29 10  1  0
 35 30  1  0
 40 36  1  0
 22 17  1  0
  1 41  1  0
  1 42  1  0
  1 43  1  0
  4 44  1  0
  6 45  1  0
  7 46  1  0
  9 47  1  0
 12 48  1  0
 16 49  1  0
 18 50  1  0
 19 51  1  0
 20 52  1  0
 21 53  1  0
 26 54  1  0
 27 55  1  0
 27 56  1  0
 27 57  1  0
 28 58  1  0
 28 59  1  0
 28 60  1  0
 31 61  1  0
 31 62  1  0
 32 63  1  0
 32 64  1  0
 33 65  1  0
 34 66  1  0
 34 67  1  0
 35 68  1  0
 35 69  1  0
 37 70  1  0
 37 71  1  0
 38 72  1  0
 38 73  1  0
 39 74  1  0
 39 75  1  0
 40 76  1  0
 40 77  1  0
M  END
$$$$
[H]c1nc(N([H])c2c([H])c([H])c(N3C([H])([H])C([H])([H])N(C([H])([H])[H])C([H])([H])C3([H])[H])c([H])c2OC([H])([H])[H])nc(N([H])c2c([H])c([H])c([H])c([H])c2S(=O)(=O)C([H])(C([H])([H])[H])C([H])([H])[H])c1Cl
     RDKit          3D

 67 70  0  0  0  0  0  0  0  0999 V2000
    2.7980   -3.3310   -1.2288 C   0  0  0  0  0  0  0  0  0  0  0  0
    1.9415   -2.2352   -0.9986 O   0  0  0  0  0  0  0  0  0  0  0  0
    2.4816   -1.0407   -0.5265 C   0  0  0  0  0  0  0  0  0  0  0  0
    3.8274   -0.9244   -0.2865 C   0  0  0  0  0  0  0  0  0  0  0  0
    4.4213    0.2145    0.1751 C   0  0  0  0  0  0  0  0  0  0  0  0
    3.5861    1.2917    0.4024 C   0  0  0  0  0  0  0  0  0  0  0  0
    2.2085    1.1836    0.1606 C   0  0  0  0  0  0  0  0  0  0  0  0
    1.6255    0.0523   -0.2972 C   0  0  0  0  0  0  0  0  0  0  0  0
    0.2667   -0.0963   -0.5497 N   0  0  0  0  0  0  0  0  0  0  0  0
   -0.7485    0.8732   -0.3847 C   0  0  0  0  0  0  0  0  0  0  0  0
   -0.5976    2.1249    0.0475 N   0  0  0  0  0  0  0  0  0  0  0  0
   -1.5696    3.0148    0.1930 C   0  0  0  0  0  0  0  0  0  0  0  0
   -2.8553    2.6370   -0.1234 C   0  0  0  0  0  0  0  0  0  0  0  0
   -4.1874    3.7633    0.0449 Cl  0  0  0  0  0  0  0  0  0  0  0  0
   -3.1059    1.3214   -0.5915 C   0  0  0  0  0  0  0  0  0  0  0  0
   -4.4442    0.9705   -0.8839 N   0  0  0  0  0  0  0  0  0  0  0  0
   -4.8563   -0.2771   -1.3763 C   0  0  0  0  0  0  0  0  0  0  0  0
   -4.0250   -1.2445   -1.8945 C   0  0  0  0  0  0  0  0  0  0  0  0
   -4.4990   -2.4531   -2.4340 C   0  0  0  0  0  0  0  0  0  0  0  0
   -5.8636   -2.6532   -2.4324 C   0  0  0  0  0  0  0  0  0  0  0  0
   -6.7143   -1.7053   -1.9218 C   0  0  0  0  0  0  0  0  0  0  0  0
   -6.2437   -0.5196   -1.3917 C   0  0  0  0  0  0  0  0  0  0  0  0
   -7.3164    0.6608   -0.6987 S   0  0  0  0  0  0  0  0  0  0  0  0
   -7.3933    1.9371   -1.4847 O   0  0  0  0  0  0  0  0  0  0  0  0
   -8.7283    0.0574   -0.8397 O   0  0  0  0  0  0  0  0  0  0  0  0
   -7.0890    0.8939    1.0249 C   0  0  0  0  0  0  0  0  0  0  0  0
   -7.3480   -0.4235    1.7701 C   0  0  0  0  0  0  0  0  0  0  0  0
   -8.1301    1.8608    1.6013 C   0  0  0  0  0  0  0  0  0  0  0  0
   -2.0417    0.5457   -0.6857 N   0  0  0  0  0  0  0  0  0  0  0  0
    5.8136    0.2932    0.3958 N   0  0  0  0  0  0  0  0  0  0  0  0
    6.4498    1.3219    1.2076 C   0  0  0  0  0  0  0  0  0  0  0  0
    7.4716    0.7173    2.1500 C   0  0  0  0  0  0  0  0  0  0  0  0
    8.2281   -0.3570    1.5914 N   0  0  0  0  0  0  0  0  0  0  0  0
    9.2895    0.0606    0.7233 C   0  0  0  0  0  0  0  0  0  0  0  0
    7.3758   -1.3808    0.9847 C   0  0  0  0  0  0  0  0  0  0  0  0
    6.7127   -0.6643   -0.2033 C   0  0  0  0  0  0  0  0  0  0  0  0
    2.1978   -4.1742   -1.5940 H   0  0  0  0  0  0  0  0  0  0  0  0
    3.3465   -3.6080   -0.3147 H   0  0  0  0  0  0  0  0  0  0  0  0
    3.5586   -2.9887   -1.9679 H   0  0  0  0  0  0  0  0  0  0  0  0
    4.4382   -1.8245   -0.4810 H   0  0  0  0  0  0  0  0  0  0  0  0
    4.0232    2.2148    0.7675 H   0  0  0  0  0  0  0  0  0  0  0  0
    1.6829    2.0994    0.3817 H   0  0  0  0  0  0  0  0  0  0  0  0
   -0.0953   -1.0472   -0.9152 H   0  0  0  0  0  0  0  0  0  0  0  0
   -1.3686    4.0319    0.5559 H   0  0  0  0  0  0  0  0  0  0  0  0
   -5.1553    1.7451   -0.7241 H   0  0  0  0  0  0  0  0  0  0  0  0
   -2.9519   -1.1300   -1.9331 H   0  0  0  0  0  0  0  0  0  0  0  0
   -3.8051   -3.1751   -2.8254 H   0  0  0  0  0  0  0  0  0  0  0  0
   -6.2117   -3.5899   -2.8525 H   0  0  0  0  0  0  0  0  0  0  0  0
   -7.7729   -1.8830   -1.9315 H   0  0  0  0  0  0  0  0  0  0  0  0
   -6.0945    1.2164    1.2893 H   0  0  0  0  0  0  0  0  0  0  0  0
   -7.0459   -0.2515    2.8164 H   0  0  0  0  0  0  0  0  0  0  0  0
   -6.7761   -1.2538    1.3513 H   0  0  0  0  0  0  0  0  0  0  0  0
   -8.4409   -0.6809    1.6975 H   0  0  0  0  0  0  0  0  0  0  0  0
   -8.1469    1.6683    2.6953 H   0  0  0  0  0  0  0  0  0  0  0  0
   -7.8558    2.8834    1.3399 H   0  0  0  0  0  0  0  0  0  0  0  0
   -9.1318    1.5480    1.2224 H   0  0  0  0  0  0  0  0  0  0  0  0
    5.6986    1.8496    1.8178 H   0  0  0  0  0  0  0  0  0  0  0  0
    6.9306    2.0340    0.5190 H   0  0  0  0  0  0  0  0  0  0  0  0
    6.9661    0.3984    3.0955 H   0  0  0  0  0  0  0  0  0  0  0  0
    8.1853    1.5113    2.4512 H   0  0  0  0  0  0  0  0  0  0  0  0
    9.0845    1.0803    0.3255 H   0  0  0  0  0  0  0  0  0  0  0  0
   10.2479    0.0559    1.3173 H   0  0  0  0  0  0  0  0  0  0  0  0
    9.3924   -0.6645   -0.1011 H   0  0  0  0  0  0  0  0  0  0  0  0
    6.5706   -1.6106    1.6897 H   0  0  0  0  0  0  0  0  0  0  0  0
    7.9791   -2.2304    0.6689 H   0  0  0  0  0  0  0  0  0  0  0  0
    6.2815   -1.3420   -0.9293 H   0  0  0  0  0  0  0  0  0  0  0  0
    7.5281   -0.0532   -0.6714 H   0  0  0  0  0  0  0  0  0  0  0  0
  1  2  1  0
  2  3  1  0
  3  4  2  0
  4  5  1  0
  5  6  2  0
  6  7  1  0
  7  8  2  0
  8  9  1  0
  9 10  1  0
 10 11  2  0
 11 12  1  0
 12 13  2  0
 13 14  1  0
 13 15  1  0
 15 16  1  0
 16 17  1  0
 17 18  2  0
 18 19  1  0
 19 20  2  0
 20 21  1  0
 21 22  2  0
 22 23  1  0
 23 24  2  0
 23 25  2  0
 23 26  1  0
 26 27  1  0
 26 28  1  0
 15 29  2  0
  5 30  1  0
 30 31  1  0
 31 32  1  0
 32 33  1  0
 33 34  1  0
 33 35  1  0
 35 36  1  0
  8  3  1  0
 29 10  1  0
 36 30  1  0
 22 17  1  0
  1 37  1  0
  1 38  1  0
  1 39  1  0
  4 40  1  0
  6 41  1  0
  7 42  1  0
  9 43  1  0
 12 44  1  0
 16 45  1  0
 18 46  1  0
 19 47  1  0
 20 48  1  0
 21 49  1  0
 26 50  1  0
 27 51  1  0
 27 52  1  0
 27 53  1  0
 28 54  1  0
 28 55  1  0
 28 56  1  0
 31 57  1  0
 31 58  1  0
 32 59  1  0
 32 60  1  0
 34 61  1  0
 34 62  1  0
 34 63  1  0
 35 64  1  0
 35 65  1  0
 36 66  1  0
 36 67  1  0
M  END
$$$$
[H]C#CC([H])([H])[N+]([H])(C([H])([H])[H])C([H])([H])C(=C([H])[H])c1c([H])c([H])c(F)c(F)c1[H].[H]OC(=O)C(=O)[O-]
     RDKit          3D

 37 36  0  0  0  0  0  0  0  0999 V2000
   -1.2939   -0.1486   -0.7352 O   0  0  0  0  0  0  0  0  0  0  0  0
   -0.3604   -0.0204    0.2763 C   0  0  0  0  0  0  0  0  0  0  0  0
   -0.7565   -0.2395    1.4424 O   0  0  0  0  0  0  0  0  0  0  0  0
    0.9988    0.3539   -0.0683 C   0  0  0  0  0  0  0  0  0  0  0  0
    1.8975    0.4665    1.0104 O   0  0  0  0  0  0  0  0  0  0  0  0
    1.3963    0.5719   -1.2205 O   0  0  0  0  0  0  0  0  0  0  0  0
   -2.8447   -0.2287    1.3549 C   0  0  0  0  0  0  0  0  0  0  0  0
   -1.9818   -0.5127    0.1942 N   0  0  0  0  0  0  0  0  0  0  0  0
   -2.5450    0.0794   -0.9986 C   0  0  0  0  0  0  0  0  0  0  0  0
   -3.3930    1.2003   -0.5926 C   0  0  0  0  0  0  0  0  0  0  0  0
   -4.1065    2.1226   -0.2723 C   0  0  0  0  0  0  0  0  0  0  0  0
   -0.6605   -0.0620    0.4545 C   0  0  0  0  0  0  0  0  0  0  0  0
    0.3710   -0.6957   -0.3776 C   0  0  0  0  0  0  0  0  0  0  0  0
    0.0893   -1.5895   -1.2734 C   0  0  0  0  0  0  0  0  0  0  0  0
    1.7795   -0.2928   -0.1760 C   0  0  0  0  0  0  0  0  0  0  0  0
    2.0745    0.6871    0.7733 C   0  0  0  0  0  0  0  0  0  0  0  0
    3.3499    1.0922    0.9986 C   0  0  0  0  0  0  0  0  0  0  0  0
    4.4177    0.5704    0.3156 C   0  0  0  0  0  0  0  0  0  0  0  0
    5.6806    1.0054    0.5730 F   0  0  0  0  0  0  0  0  0  0  0  0
    4.1585   -0.3945   -0.6236 C   0  0  0  0  0  0  0  0  0  0  0  0
    5.1677   -0.9514   -1.3335 F   0  0  0  0  0  0  0  0  0  0  0  0
    2.8385   -0.8166   -0.8595 C   0  0  0  0  0  0  0  0  0  0  0  0
   -1.8818   -0.9838   -0.7051 H   0  0  0  0  0  0  0  0  0  0  0  0
   -2.6123    0.7586    1.7957 H   0  0  0  0  0  0  0  0  0  0  0  0
   -2.5788   -0.9889    2.1186 H   0  0  0  0  0  0  0  0  0  0  0  0
   -3.8889   -0.3800    1.0855 H   0  0  0  0  0  0  0  0  0  0  0  0
   -2.0019   -1.5422    0.1015 H   0  0  0  0  0  0  0  0  0  0  0  0
   -3.1928   -0.6213   -1.5562 H   0  0  0  0  0  0  0  0  0  0  0  0
   -1.7341    0.3870   -1.6842 H   0  0  0  0  0  0  0  0  0  0  0  0
   -4.7471    2.9336    0.0170 H   0  0  0  0  0  0  0  0  0  0  0  0
   -0.6345    1.0571    0.3703 H   0  0  0  0  0  0  0  0  0  0  0  0
   -0.3673   -0.2420    1.5327 H   0  0  0  0  0  0  0  0  0  0  0  0
   -0.9416   -1.8962   -1.4313 H   0  0  0  0  0  0  0  0  0  0  0  0
    0.8701   -2.0593   -1.8940 H   0  0  0  0  0  0  0  0  0  0  0  0
    1.2254    1.1136    1.3279 H   0  0  0  0  0  0  0  0  0  0  0  0
    3.5239    1.8554    1.7460 H   0  0  0  0  0  0  0  0  0  0  0  0
    2.6843   -1.5889   -1.6178 H   0  0  0  0  0  0  0  0  0  0  0  0
  1  2  1  0
  2  3  2  0
  2  4  1  0
  4  5  1  0
  4  6  2  0
  7  8  1  0
  8  9  1  0
  9 10  1  0
 10 11  3  0
  8 12  1  0
 12 13  1  0
 13 14  2  3
 13 15  1  0
 15 16  2  0
 16 17  1  0
 17 18  2  0
 18 19  1  0
 18 20  1  0
 20 21  1  0
 20 22  2  0
 22 15  1  0
  1 23  1  0
  7 24  1  0
  7 25  1  0
  7 26  1  0
  8 27  1  0
  9 28  1  0
  9 29  1  0
 11 30  1  0
 12 31  1  0
 12 32  1  0
 14 33  1  0
 14 34  1  0
 16 35  1  0
 17 36  1  0
 22 37  1  0
M  CHG  2   5  -1   8   1
M  END
$$$$
[H]C#CC([H])([H])[N+]([H])(C([H])([H])[H])C([H])([H])C(=C([H])[H])c1c([H])c([H])c(Cl)c(Cl)c1[H].[H]OC(=O)C(=O)[O-]
     RDKit          3D

 37 36  0  0  0  0  0  0  0  0999 V2000
   -1.2939   -0.1486   -0.7352 O   0  0  0  0  0  0  0  0  0  0  0  0
   -0.3604   -0.0204    0.2763 C   0  0  0  0  0  0  0  0  0  0  0  0
   -0.7565   -0.2395    1.4424 O   0  0  0  0  0  0  0  0  0  0  0  0
    0.9988    0.3539   -0.0683 C   0  0  0  0  0  0  0  0  0  0  0  0
    1.8975    0.4665    1.0104 O   0  0  0  0  0  0  0  0  0  0  0  0
    1.3963    0.5719   -1.2205 O   0  0  0  0  0  0  0  0  0  0  0  0
   -1.4304   -0.1909    1.0127 C   0  0  0  0  0  0  0  0  0  0  0  0
   -1.5047    0.8014   -0.0457 N   0  0  0  0  0  0  0  0  0  0  0  0
   -2.9183    0.9412   -0.3676 C   0  0  0  0  0  0  0  0  0  0  0  0
   -3.6429   -0.2922   -0.1683 C   0  0  0  0  0  0  0  0  0  0  0  0
   -4.2669   -1.3131    0.0007 C   0  0  0  0  0  0  0  0  0  0  0  0
   -0.8024    0.4228   -1.2241 C   0  0  0  0  0  0  0  0  0  0  0  0
    0.3514   -0.4589   -1.0479 C   0  0  0  0  0  0  0  0  0  0  0  0
    0.3513   -1.6477   -1.6040 C   0  0  0  0  0  0  0  0  0  0  0  0
    1.5066   -0.0615   -0.2692 C   0  0  0  0  0  0  0  0  0  0  0  0
    1.7606    1.2525    0.0818 C   0  0  0  0  0  0  0  0  0  0  0  0
    2.8452    1.6416    0.8347 C   0  0  0  0  0  0  0  0  0  0  0  0
    3.7343    0.6992    1.2714 C   0  0  0  0  0  0  0  0  0  0  0  0
    5.1284    1.1832    2.2366 Cl  0  0  0  0  0  0  0  0  0  0  0  0
    3.5302   -0.6154    0.9520 C   0  0  0  0  0  0  0  0  0  0  0  0
    4.6554   -1.8225    1.5022 Cl  0  0  0  0  0  0  0  0  0  0  0  0
    2.4453   -0.9785    0.2029 C   0  0  0  0  0  0  0  0  0  0  0  0
   -1.8818   -0.9838   -0.7051 H   0  0  0  0  0  0  0  0  0  0  0  0
   -1.4638   -1.2191    0.5890 H   0  0  0  0  0  0  0  0  0  0  0  0
   -2.3428   -0.0674    1.6330 H   0  0  0  0  0  0  0  0  0  0  0  0
   -0.5818   -0.0886    1.6825 H   0  0  0  0  0  0  0  0  0  0  0  0
   -1.1626    1.7007    0.3205 H   0  0  0  0  0  0  0  0  0  0  0  0
   -3.3660    1.7293    0.2693 H   0  0  0  0  0  0  0  0  0  0  0  0
   -3.0499    1.2452   -1.4380 H   0  0  0  0  0  0  0  0  0  0  0  0
   -4.8265   -2.2046    0.1567 H   0  0  0  0  0  0  0  0  0  0  0  0
   -0.4337    1.3825   -1.6976 H   0  0  0  0  0  0  0  0  0  0  0  0
   -1.5346    0.0350   -1.9718 H   0  0  0  0  0  0  0  0  0  0  0  0
   -0.5466   -1.9171   -2.1874 H   0  0  0  0  0  0  0  0  0  0  0  0
    1.1479   -2.3720   -1.5417 H   0  0  0  0  0  0  0  0  0  0  0  0
    1.0936    2.0106   -0.2482 H   0  0  0  0  0  0  0  0  0  0  0  0
    2.9832    2.7006    1.0751 H   0  0  0  0  0  0  0  0  0  0  0  0
    2.3408   -2.0308   -0.0096 H   0  0  0  0  0  0  0  0  0  0  0  0
  1  2  1  0
  2  3  2  0
  2  4  1  0
  4  5  1  0
  4  6  2  0
  7  8  1  0
  8  9  1  0
  9 10  1  0
 10 11  3  0
  8 12  1  0
 12 13  1  0
 13 14  2  3
 13 15  1  0
 15 16  2  0
 16 17  1  0
 17 18  2  0
 18 19  1  0
 18 20  1  0
 20 21  1  0
 20 22  2  0
 22 15  1  0
  1 23  1  0
  7 24  1  0
  7 25  1  0
  7 26  1  0
  8 27  1  0
  9 28  1  0
  9 29  1  0
 11 30  1  0
 12 31  1  0
 12 32  1  0
 14 33  1  0
 14 34  1  0
 16 35  1  0
 17 36  1  0
 22 37  1  0
M  CHG  2   5  -1   8   1
M  END
$$$$
[H]c1nc([H])c(C(=O)N2C([H])([H])C([H])([H])N(c3nnc(-c4c([H])c([H])c(C(F)(F)F)c([H])c4[H])c4c([H])c([H])c([H])c([H])c34)[C@]([H])(C([H])([H])[H])C2([H])[H])c([H])c1[H]
     RDKit          3D

 57 61  0  0  0  0  0  0  0  0999 V2000
   -0.6268    1.8940   -0.9795 C   0  0  0  0  0  0  0  0  0  0  0  0
   -1.6073    0.9377   -0.4209 C   0  0  2  0  0  0  0  0  0  0  0  0
   -2.6926    1.7136    0.3112 C   0  0  0  0  0  0  0  0  0  0  0  0
   -3.6998    0.7014    0.7644 N   0  0  0  0  0  0  0  0  0  0  0  0
   -3.1875   -0.1924    1.7381 C   0  0  0  0  0  0  0  0  0  0  0  0
   -1.9437   -0.9060    1.2533 C   0  0  0  0  0  0  0  0  0  0  0  0
   -1.0672   -0.0407    0.5298 N   0  0  0  0  0  0  0  0  0  0  0  0
    0.3520   -0.0450    0.6091 C   0  0  0  0  0  0  0  0  0  0  0  0
    1.0519    0.6834    1.4759 N   0  0  0  0  0  0  0  0  0  0  0  0
    2.3641    0.7296    1.4828 N   0  0  0  0  0  0  0  0  0  0  0  0
    3.1086    0.0129    0.5735 C   0  0  0  0  0  0  0  0  0  0  0  0
    4.5540    0.1222    0.5972 C   0  0  0  0  0  0  0  0  0  0  0  0
    5.3327   -0.1194    1.6926 C   0  0  0  0  0  0  0  0  0  0  0  0
    6.7037    0.0774    1.6610 C   0  0  0  0  0  0  0  0  0  0  0  0
    7.3687    0.5255    0.5390 C   0  0  0  0  0  0  0  0  0  0  0  0
    6.5866    0.7715   -0.5743 C   0  0  0  0  0  0  0  0  0  0  0  0
    5.2311    0.5770   -0.5451 C   0  0  0  0  0  0  0  0  0  0  0  0
    8.8438    0.7242    0.4797 C   0  0  0  0  0  0  0  0  0  0  0  0
    9.3420    0.1950   -0.7146 F   0  0  0  0  0  0  0  0  0  0  0  0
    9.2038    2.0357    0.5270 F   0  0  0  0  0  0  0  0  0  0  0  0
    9.3836    0.0822    1.5794 F   0  0  0  0  0  0  0  0  0  0  0  0
    2.4517   -0.7639   -0.3435 C   0  0  0  0  0  0  0  0  0  0  0  0
    3.1475   -1.5431   -1.2499 C   0  0  0  0  0  0  0  0  0  0  0  0
    2.4512   -2.3517   -2.1439 C   0  0  0  0  0  0  0  0  0  0  0  0
    1.0784   -2.3609   -2.1101 C   0  0  0  0  0  0  0  0  0  0  0  0
    0.3889   -1.5891   -1.2085 C   0  0  0  0  0  0  0  0  0  0  0  0
    1.0554   -0.7894   -0.3216 C   0  0  0  0  0  0  0  0  0  0  0  0
   -4.9420    0.8107    0.1633 C   0  0  0  0  0  0  0  0  0  0  0  0
   -4.9585    1.8305   -0.7424 O   0  0  0  0  0  0  0  0  0  0  0  0
   -6.1995    0.1628    0.2182 C   0  0  0  0  0  0  0  0  0  0  0  0
   -7.2324    0.5654   -0.6535 C   0  0  0  0  0  0  0  0  0  0  0  0
   -8.4708   -0.0304   -0.6324 C   0  0  0  0  0  0  0  0  0  0  0  0
   -8.7504   -1.0584    0.2579 C   0  0  0  0  0  0  0  0  0  0  0  0
   -7.7738   -1.4272    1.0718 N   0  0  0  0  0  0  0  0  0  0  0  0
   -6.5292   -0.8439    1.0643 C   0  0  0  0  0  0  0  0  0  0  0  0
    0.1592    1.4567   -1.6349 H   0  0  0  0  0  0  0  0  0  0  0  0
   -0.2188    2.6089   -0.2268 H   0  0  0  0  0  0  0  0  0  0  0  0
   -1.2105    2.5648   -1.6852 H   0  0  0  0  0  0  0  0  0  0  0  0
   -2.0876    0.3636   -1.2273 H   0  0  0  0  0  0  0  0  0  0  0  0
   -2.2884    2.1660    1.2236 H   0  0  0  0  0  0  0  0  0  0  0  0
   -3.1423    2.4452   -0.3302 H   0  0  0  0  0  0  0  0  0  0  0  0
   -3.8456   -0.9976    2.0924 H   0  0  0  0  0  0  0  0  0  0  0  0
   -2.8975    0.3805    2.6972 H   0  0  0  0  0  0  0  0  0  0  0  0
   -2.3408   -1.7463    0.6019 H   0  0  0  0  0  0  0  0  0  0  0  0
   -1.4010   -1.3622    2.1143 H   0  0  0  0  0  0  0  0  0  0  0  0
    4.8354   -0.4759    2.5986 H   0  0  0  0  0  0  0  0  0  0  0  0
    7.3178   -0.1193    2.5442 H   0  0  0  0  0  0  0  0  0  0  0  0
    7.0920    1.1306   -1.4822 H   0  0  0  0  0  0  0  0  0  0  0  0
    4.6654    0.7928   -1.4462 H   0  0  0  0  0  0  0  0  0  0  0  0
    4.2249   -1.5522   -1.2666 H   0  0  0  0  0  0  0  0  0  0  0  0
    2.9586   -2.9643   -2.8431 H   0  0  0  0  0  0  0  0  0  0  0  0
    0.5247   -2.9950   -2.8195 H   0  0  0  0  0  0  0  0  0  0  0  0
   -0.6958   -1.5760   -1.1681 H   0  0  0  0  0  0  0  0  0  0  0  0
   -7.1170    1.3542   -1.3786 H   0  0  0  0  0  0  0  0  0  0  0  0
   -9.2757    0.2617   -1.2898 H   0  0  0  0  0  0  0  0  0  0  0  0
   -9.6985   -1.5565    0.3107 H   0  0  0  0  0  0  0  0  0  0  0  0
   -5.8770   -1.2706    1.8001 H   0  0  0  0  0  0  0  0  0  0  0  0
  1  2  1  0
  2  3  1  0
  3  4  1  0
  4  5  1  0
  5  6  1  0
  6  7  1  0
  7  8  1  0
  8  9  2  0
  9 10  1  0
 10 11  2  0
 11 12  1  0
 12 13  2  0
 13 14  1  0
 14 15  2  0
 15 16  1  0
 16 17  2  0
 15 18  1  0
 18 19  1  0
 18 20  1  0
 18 21  1  0
 11 22  1  0
 22 23  2  0
 23 24  1  0
 24 25  2  0
 25 26  1  0
 26 27  2  0
  4 28  1  0
 28 29  2  0
 28 30  1  0
 30 31  2  0
 31 32  1  0
 32 33  2  0
 33 34  1  0
 34 35  2  0
  7  2  1  0
 27  8  1  0
 35 30  1  0
 17 12  1  0
 27 22  1  0
  1 36  1  0
  1 37  1  0
  1 38  1  0
  2 39  1  6
  3 40  1  0
  3 41  1  0
  5 42  1  0
  5 43  1  0
  6 44  1  0
  6 45  1  0
 13 46  1  0
 14 47  1  0
 16 48  1  0
 17 49  1  0
 23 50  1  0
 24 51  1  0
 25 52  1  0
 26 53  1  0
 31 54  1  0
 32 55  1  0
 33 56  1  0
 35 57  1  0
M  END
$$$$
[H]c1c([H])c([H])c2c(c1[H])c(C([H])([H])[C@@]1([H])C(=O)N([H])[C@@]([H])(C([H])([H])c3c([H])n([H])c4c([H])c([H])c([H])c([H])c34)C(=O)N([H])[C@]([H])(C([H])([H])c3c([H])n([H])c4c([H])c([H])c([H])c([H])c34)C(=O)N([H])[C@@]([H])(C([H])([H])C([H])([H])C([H])([H])C([H])([H])N([H])[H])C(=O)N([H])[C@@]([H])(C([H])(C([H])([H])[H])C([H])([H])[H])C(=O)N1[H])c([H])n2[H]
     RDKit          3D

109115  0  0  0  0  0  0  0  0999 V2000
    1.2739   -5.7015    0.8662 C   0  0  0  0  0  0  0  0  0  0  0  0
    1.0778   -4.8953   -0.3945 C   0  0  0  0  0  0  0  0  0  0  0  0
    0.1392   -5.5351   -1.3362 C   0  0  0  0  0  0  0  0  0  0  0  0
    0.7645   -3.4223   -0.0644 C   0  0  2  0  0  0  0  0  0  0  0  0
   -0.4192   -3.2945    0.7246 N   0  0  0  0  0  0  0  0  0  0  0  0
   -1.5742   -2.5506    0.7857 C   0  0  0  0  0  0  0  0  0  0  0  0
   -1.4871   -1.5464    1.6232 O   0  0  0  0  0  0  0  0  0  0  0  0
   -2.9093   -2.5505    0.1833 C   0  0  2  0  0  0  0  0  0  0  0  0
   -3.0810   -3.2591   -1.1283 C   0  0  0  0  0  0  0  0  0  0  0  0
   -4.5290   -3.1408   -1.5580 C   0  0  0  0  0  0  0  0  0  0  0  0
   -4.7845   -3.8867   -2.8524 C   0  0  0  0  0  0  0  0  0  0  0  0
   -4.4872   -5.3660   -2.7400 C   0  0  0  0  0  0  0  0  0  0  0  0
   -4.7720   -5.9508   -4.0556 N   0  0  0  0  0  0  0  0  0  0  0  0
   -3.6481   -1.3112    0.2418 N   0  0  0  0  0  0  0  0  0  0  0  0
   -3.3655    0.0152    0.5063 C   0  0  0  0  0  0  0  0  0  0  0  0
   -3.7327    0.4033    1.7051 O   0  0  0  0  0  0  0  0  0  0  0  0
   -2.7475    1.1118   -0.2465 C   0  0  1  0  0  0  0  0  0  0  0  0
   -2.6517    2.3796    0.5492 C   0  0  0  0  0  0  0  0  0  0  0  0
   -3.9849    2.8510    0.9690 C   0  0  0  0  0  0  0  0  0  0  0  0
   -5.1364    2.9037    0.2236 C   0  0  0  0  0  0  0  0  0  0  0  0
   -6.1228    3.3244    1.0037 N   0  0  0  0  0  0  0  0  0  0  0  0
   -5.6529    3.5469    2.2377 C   0  0  0  0  0  0  0  0  0  0  0  0
   -6.2188    3.9944    3.4263 C   0  0  0  0  0  0  0  0  0  0  0  0
   -5.4961    4.1599    4.5976 C   0  0  0  0  0  0  0  0  0  0  0  0
   -4.1324    3.8636    4.5854 C   0  0  0  0  0  0  0  0  0  0  0  0
   -3.5622    3.4222    3.4272 C   0  0  0  0  0  0  0  0  0  0  0  0
   -4.3054    3.2574    2.2462 C   0  0  0  0  0  0  0  0  0  0  0  0
   -1.5499    0.7802   -0.9770 N   0  0  0  0  0  0  0  0  0  0  0  0
   -0.3375    1.3970   -1.1831 C   0  0  0  0  0  0  0  0  0  0  0  0
   -0.1429    1.9984   -2.3322 O   0  0  0  0  0  0  0  0  0  0  0  0
    0.8959    1.5534   -0.3573 C   0  0  2  0  0  0  0  0  0  0  0  0
    1.1064    2.9396    0.1884 C   0  0  0  0  0  0  0  0  0  0  0  0
    1.2523    4.0495   -0.7185 C   0  0  0  0  0  0  0  0  0  0  0  0
    0.1992    4.8289   -1.1690 C   0  0  0  0  0  0  0  0  0  0  0  0
    0.6838    5.7401   -2.0264 N   0  0  0  0  0  0  0  0  0  0  0  0
    2.0119    5.5753   -2.1425 C   0  0  0  0  0  0  0  0  0  0  0  0
    2.9685    6.2743   -2.8891 C   0  0  0  0  0  0  0  0  0  0  0  0
    4.3039    5.9646   -2.8557 C   0  0  0  0  0  0  0  0  0  0  0  0
    4.6522    4.9044   -2.0291 C   0  0  0  0  0  0  0  0  0  0  0  0
    3.7282    4.2102   -1.2948 C   0  0  0  0  0  0  0  0  0  0  0  0
    2.3947    4.5291   -1.3374 C   0  0  0  0  0  0  0  0  0  0  0  0
    2.0527    1.2336   -1.1723 N   0  0  0  0  0  0  0  0  0  0  0  0
    3.0781    0.3121   -0.9701 C   0  0  0  0  0  0  0  0  0  0  0  0
    4.2294    0.6608   -1.3846 O   0  0  0  0  0  0  0  0  0  0  0  0
    2.9049   -0.9899   -0.3393 C   0  0  2  0  0  0  0  0  0  0  0  0
    4.0222   -1.6827    0.3126 C   0  0  0  0  0  0  0  0  0  0  0  0
    4.6462   -1.0974    1.4872 C   0  0  0  0  0  0  0  0  0  0  0  0
    4.0663   -1.2592    2.7865 C   0  0  0  0  0  0  0  0  0  0  0  0
    4.8185   -0.5812    3.6430 N   0  0  0  0  0  0  0  0  0  0  0  0
    5.8447    0.0125    3.0275 C   0  0  0  0  0  0  0  0  0  0  0  0
    6.9036    0.7816    3.4797 C   0  0  0  0  0  0  0  0  0  0  0  0
    7.8655    1.2384    2.6379 C   0  0  0  0  0  0  0  0  0  0  0  0
    7.7834    0.9252    1.2799 C   0  0  0  0  0  0  0  0  0  0  0  0
    6.7212    0.1644    0.8694 C   0  0  0  0  0  0  0  0  0  0  0  0
    5.7275   -0.3162    1.6864 C   0  0  0  0  0  0  0  0  0  0  0  0
    2.2806   -1.8721   -1.3519 N   0  0  0  0  0  0  0  0  0  0  0  0
    1.0528   -2.5594   -1.1830 C   0  0  0  0  0  0  0  0  0  0  0  0
    0.2527   -2.3041   -2.1625 O   0  0  0  0  0  0  0  0  0  0  0  0
    1.9155   -5.1057    1.5542 H   0  0  0  0  0  0  0  0  0  0  0  0
    1.8224   -6.6498    0.6229 H   0  0  0  0  0  0  0  0  0  0  0  0
    0.3383   -5.9177    1.3815 H   0  0  0  0  0  0  0  0  0  0  0  0
    2.1159   -4.9134   -0.8857 H   0  0  0  0  0  0  0  0  0  0  0  0
   -0.5808   -4.8820   -1.8329 H   0  0  0  0  0  0  0  0  0  0  0  0
   -0.3621   -6.4472   -0.8882 H   0  0  0  0  0  0  0  0  0  0  0  0
    0.7384   -5.9902   -2.1785 H   0  0  0  0  0  0  0  0  0  0  0  0
    1.6328   -3.2264    0.6909 H   0  0  0  0  0  0  0  0  0  0  0  0
   -0.3045   -4.0397    1.5658 H   0  0  0  0  0  0  0  0  0  0  0  0
   -3.5514   -3.3204    0.8441 H   0  0  0  0  0  0  0  0  0  0  0  0
   -2.4092   -2.9033   -1.9345 H   0  0  0  0  0  0  0  0  0  0  0  0
   -2.7927   -4.3369   -0.9616 H   0  0  0  0  0  0  0  0  0  0  0  0
   -5.2567   -3.4485   -0.8164 H   0  0  0  0  0  0  0  0  0  0  0  0
   -4.6785   -2.0577   -1.8164 H   0  0  0  0  0  0  0  0  0  0  0  0
   -4.2396   -3.4041   -3.6605 H   0  0  0  0  0  0  0  0  0  0  0  0
   -5.8787   -3.7902   -3.0656 H   0  0  0  0  0  0  0  0  0  0  0  0
   -3.4746   -5.5951   -2.4002 H   0  0  0  0  0  0  0  0  0  0  0  0
   -5.1952   -5.8557   -2.0301 H   0  0  0  0  0  0  0  0  0  0  0  0
   -5.2410   -5.2612   -4.6803 H   0  0  0  0  0  0  0  0  0  0  0  0
   -3.8523   -6.2427   -4.4865 H   0  0  0  0  0  0  0  0  0  0  0  0
   -4.7068   -1.5156    0.0615 H   0  0  0  0  0  0  0  0  0  0  0  0
   -3.5345    1.4715   -1.0606 H   0  0  0  0  0  0  0  0  0  0  0  0
   -2.1263    2.0643    1.5221 H   0  0  0  0  0  0  0  0  0  0  0  0
   -2.1542    3.2135    0.0870 H   0  0  0  0  0  0  0  0  0  0  0  0
   -5.2189    2.6380   -0.8396 H   0  0  0  0  0  0  0  0  0  0  0  0
   -7.1493    3.4774    0.7448 H   0  0  0  0  0  0  0  0  0  0  0  0
   -7.2642    4.2198    3.4205 H   0  0  0  0  0  0  0  0  0  0  0  0
   -5.9914    4.5153    5.5059 H   0  0  0  0  0  0  0  0  0  0  0  0
   -3.5972    4.0063    5.5216 H   0  0  0  0  0  0  0  0  0  0  0  0
   -2.5087    3.1892    3.3964 H   0  0  0  0  0  0  0  0  0  0  0  0
   -1.6885   -0.1654   -1.4916 H   0  0  0  0  0  0  0  0  0  0  0  0
    0.9124    0.8609    0.5276 H   0  0  0  0  0  0  0  0  0  0  0  0
    2.0267    2.8721    0.8813 H   0  0  0  0  0  0  0  0  0  0  0  0
    0.2967    3.1266    0.9619 H   0  0  0  0  0  0  0  0  0  0  0  0
   -0.8630    4.7843   -0.9208 H   0  0  0  0  0  0  0  0  0  0  0  0
    0.1293    6.4752   -2.5376 H   0  0  0  0  0  0  0  0  0  0  0  0
    2.6109    7.0916   -3.5102 H   0  0  0  0  0  0  0  0  0  0  0  0
    5.0480    6.4981   -3.4280 H   0  0  0  0  0  0  0  0  0  0  0  0
    5.7197    4.6431   -1.9938 H   0  0  0  0  0  0  0  0  0  0  0  0
    4.0395    3.4027   -0.6484 H   0  0  0  0  0  0  0  0  0  0  0  0
    2.0820    1.7975   -2.0814 H   0  0  0  0  0  0  0  0  0  0  0  0
    2.0797   -0.7968    0.4780 H   0  0  0  0  0  0  0  0  0  0  0  0
    4.8640   -1.6890   -0.5003 H   0  0  0  0  0  0  0  0  0  0  0  0
    3.8548   -2.7863    0.4309 H   0  0  0  0  0  0  0  0  0  0  0  0
    3.1927   -1.8350    2.9495 H   0  0  0  0  0  0  0  0  0  0  0  0
    4.6677   -0.4921    4.6900 H   0  0  0  0  0  0  0  0  0  0  0  0
    6.9388    1.0073    4.5528 H   0  0  0  0  0  0  0  0  0  0  0  0
    8.6808    1.8353    3.0316 H   0  0  0  0  0  0  0  0  0  0  0  0
    8.5287    1.2730    0.6092 H   0  0  0  0  0  0  0  0  0  0  0  0
    6.6525   -0.0982   -0.1833 H   0  0  0  0  0  0  0  0  0  0  0  0
    2.8603   -1.9306   -2.2477 H   0  0  0  0  0  0  0  0  0  0  0  0
  1  2  1  0
  2  3  1  0
  2  4  1  0
  4  5  1  0
  5  6  1  0
  6  7  2  0
  6  8  1  0
  8  9  1  0
  9 10  1  0
 10 11  1  0
 11 12  1  0
 12 13  1  0
  8 14  1  0
 14 15  1  0
 15 16  2  0
 15 17  1  0
 17 18  1  0
 18 19  1  0
 19 20  2  0
 20 21  1  0
 21 22  1  0
 22 23  2  0
 23 24  1  0
 24 25  2  0
 25 26  1  0
 26 27  2  0
 17 28  1  0
 28 29  1  0
 29 30  2  0
 29 31  1  0
 31 32  1  0
 32 33  1  0
 33 34  2  0
 34 35  1  0
 35 36  1  0
 36 37  2  0
 37 38  1  0
 38 39  2  0
 39 40  1  0
 40 41  2  0
 31 42  1  0
 42 43  1  0
 43 44  2  0
 43 45  1  0
 45 46  1  0
 46 47  1  0
 47 48  2  0
 48 49  1  0
 49 50  1  0
 50 51  2  0
 51 52  1  0
 52 53  2  0
 53 54  1  0
 54 55  2  0
 45 56  1  0
 56 57  1  0
 57 58  2  0
 57  4  1  0
 27 19  1  0
 41 33  1  0
 55 47  1  0
 27 22  1  0
 41 36  1  0
 55 50  1  0
  1 59  1  0
  1 60  1  0
  1 61  1  0
  2 62  1  0
  3 63  1  0
  3 64  1  0
  3 65  1  0
  4 66  1  1
  5 67  1  0
  8 68  1  1
  9 69  1  0
  9 70  1  0
 10 71  1  0
 10 72  1  0
 11 73  1  0
 11 74  1  0
 12 75  1  0
 12 76  1  0
 13 77  1  0
 13 78  1  0
 14 79  1  0
 17 80  1  6
 18 81  1  0
 18 82  1  0
 20 83  1  0
 21 84  1  0
 23 85  1  0
 24 86  1  0
 25 87  1  0
 26 88  1  0
 28 89  1  0
 31 90  1  1
 32 91  1  0
 32 92  1  0
 34 93  1  0
 35 94  1  0
 37 95  1  0
 38 96  1  0
 39 97  1  0
 40 98  1  0
 42 99  1  0
 45100  1  1
 46101  1  0
 46102  1  0
 48103  1  0
 49104  1  0
 51105  1  0
 52106  1  0
 53107  1  0
 54108  1  0
 56109  1  0
M  END
$$$$
[H]OC(=O)[C@@]([H])(N([H])C(=O)[C@@]([H])(S[H])C([H])([H])C([H])(C([H])([H])[H])C([H])([H])[H])C([H])([H])c1c([H])c([H])c(-c2c([H])c([H])c([H])c([H])c2[H])c([H])c1[H]
     RDKit          3D

 51 52  0  0  0  0  0  0  0  0999 V2000
    6.0048   -0.5063   -0.9983 C   0  0  0  0  0  0  0  0  0  0  0  0
    5.7845   -0.3751    0.4829 C   0  0  0  0  0  0  0  0  0  0  0  0
    4.8718   -1.4431    0.9706 C   0  0  0  0  0  0  0  0  0  0  0  0
    5.5336    0.9993    0.9626 C   0  0  0  0  0  0  0  0  0  0  0  0
    4.3870    1.7544    0.4321 C   0  0  2  0  0  0  0  0  0  0  0  0
    4.3037    3.4284    1.1950 S   0  0  0  0  0  0  0  0  0  0  0  0
    3.0428    1.1776    0.5940 C   0  0  0  0  0  0  0  0  0  0  0  0
    2.4057    1.3958    1.6908 O   0  0  0  0  0  0  0  0  0  0  0  0
    2.3656    0.3826   -0.3751 N   0  0  0  0  0  0  0  0  0  0  0  0
    1.0105   -0.1337   -0.0935 C   0  0  1  0  0  0  0  0  0  0  0  0
    0.1043    0.8081   -0.8719 C   0  0  0  0  0  0  0  0  0  0  0  0
   -1.3221    0.5228   -0.7636 C   0  0  0  0  0  0  0  0  0  0  0  0
   -2.0146    1.0905    0.2968 C   0  0  0  0  0  0  0  0  0  0  0  0
   -3.3687    0.8526    0.4116 C   0  0  0  0  0  0  0  0  0  0  0  0
   -4.0581    0.0697   -0.4917 C   0  0  0  0  0  0  0  0  0  0  0  0
   -3.3772   -0.4940   -1.5423 C   0  0  0  0  0  0  0  0  0  0  0  0
   -2.0165   -0.2575   -1.6613 C   0  0  0  0  0  0  0  0  0  0  0  0
   -5.4894   -0.1692   -0.3524 C   0  0  0  0  0  0  0  0  0  0  0  0
   -6.3366    0.7792    0.1960 C   0  0  0  0  0  0  0  0  0  0  0  0
   -7.6915    0.5603    0.3308 C   0  0  0  0  0  0  0  0  0  0  0  0
   -8.2570   -0.6248   -0.0807 C   0  0  0  0  0  0  0  0  0  0  0  0
   -7.4238   -1.5788   -0.6291 C   0  0  0  0  0  0  0  0  0  0  0  0
   -6.0719   -1.3614   -0.7640 C   0  0  0  0  0  0  0  0  0  0  0  0
    0.9124   -1.5090   -0.6014 C   0  0  0  0  0  0  0  0  0  0  0  0
   -0.1963   -2.3313   -0.4166 O   0  0  0  0  0  0  0  0  0  0  0  0
    1.8753   -2.0281   -1.2556 O   0  0  0  0  0  0  0  0  0  0  0  0
    5.0564   -0.7004   -1.5338 H   0  0  0  0  0  0  0  0  0  0  0  0
    6.5632    0.3610   -1.4023 H   0  0  0  0  0  0  0  0  0  0  0  0
    6.6086   -1.4475   -1.1566 H   0  0  0  0  0  0  0  0  0  0  0  0
    6.8187   -0.6484    0.9256 H   0  0  0  0  0  0  0  0  0  0  0  0
    5.4174   -2.3035    1.4331 H   0  0  0  0  0  0  0  0  0  0  0  0
    4.3583   -1.8793    0.0945 H   0  0  0  0  0  0  0  0  0  0  0  0
    4.1086   -1.0314    1.6479 H   0  0  0  0  0  0  0  0  0  0  0  0
    5.4593    0.9560    2.0838 H   0  0  0  0  0  0  0  0  0  0  0  0
    6.4641    1.6054    0.7376 H   0  0  0  0  0  0  0  0  0  0  0  0
    4.4821    1.9750   -0.6664 H   0  0  0  0  0  0  0  0  0  0  0  0
    2.9938    3.9490    1.0777 H   0  0  0  0  0  0  0  0  0  0  0  0
    2.8543    0.1874   -1.2673 H   0  0  0  0  0  0  0  0  0  0  0  0
    0.7836    0.0064    0.9710 H   0  0  0  0  0  0  0  0  0  0  0  0
    0.3358    1.8352   -0.5313 H   0  0  0  0  0  0  0  0  0  0  0  0
    0.4018    0.6840   -1.9466 H   0  0  0  0  0  0  0  0  0  0  0  0
   -1.5187    1.7180    1.0396 H   0  0  0  0  0  0  0  0  0  0  0  0
   -3.9493    1.2834    1.2339 H   0  0  0  0  0  0  0  0  0  0  0  0
   -3.8509   -1.1205   -2.2919 H   0  0  0  0  0  0  0  0  0  0  0  0
   -1.4255   -0.6802   -2.4771 H   0  0  0  0  0  0  0  0  0  0  0  0
   -5.8604    1.7050    0.5118 H   0  0  0  0  0  0  0  0  0  0  0  0
   -8.3155    1.3105    0.7570 H   0  0  0  0  0  0  0  0  0  0  0  0
   -9.3234   -0.8287    0.0119 H   0  0  0  0  0  0  0  0  0  0  0  0
   -7.8758   -2.5135   -0.9530 H   0  0  0  0  0  0  0  0  0  0  0  0
   -5.4177   -2.1045   -1.1921 H   0  0  0  0  0  0  0  0  0  0  0  0
   -0.1473   -3.3277   -0.4115 H   0  0  0  0  0  0  0  0  0  0  0  0
  1  2  1  0
  2  3  1  0
  2  4  1  0
  4  5  1  0
  5  6  1  0
  5  7  1  0
  7  8  2  0
  7  9  1  0
  9 10  1  0
 10 11  1  0
 11 12  1  0
 12 13  2  0
 13 14  1  0
 14 15  2  0
 15 16  1  0
 16 17  2  0
 15 18  1  0
 18 19  2  0
 19 20  1  0
 20 21  2  0
 21 22  1  0
 22 23  2  0
 10 24  1  0
 24 25  1  0
 24 26  2  0
 17 12  1  0
 23 18  1  0
  1 27  1  0
  1 28  1  0
  1 29  1  0
  2 30  1  0
  3 31  1  0
  3 32  1  0
  3 33  1  0
  4 34  1  0
  4 35  1  0
  5 36  1  6
  6 37  1  0
  9 38  1  0
 10 39  1  1
 11 40  1  0
 11 41  1  0
 13 42  1  0
 14 43  1  0
 16 44  1  0
 17 45  1  0
 19 46  1  0
 20 47  1  0
 21 48  1  0
 22 49  1  0
 23 50  1  0
 25 51  1  0
M  END
$$$$
[H]OC1(C(F)(F)F)c2c([H])c([H])c([H])c([H])c2-c2c(-c3c([H])nn(C([H])([H])[H])c3[H])c([H])c(C(=O)N3C([H])([H])C([H])([H])C([H])(O[H])C3([H])[H])c([H])c21
     RDKit          3D

 52 56  0  0  0  0  0  0  0  0999 V2000
   -3.8495    5.2201   -0.0994 C   0  0  0  0  0  0  0  0  0  0  0  0
   -3.1265    4.0805   -0.6128 N   0  0  0  0  0  0  0  0  0  0  0  0
   -2.3733    3.1685    0.0732 C   0  0  0  0  0  0  0  0  0  0  0  0
   -1.8686    2.2516   -0.8234 C   0  0  0  0  0  0  0  0  0  0  0  0
   -2.3453    2.6493   -2.0546 C   0  0  0  0  0  0  0  0  0  0  0  0
   -3.0907    3.7420   -1.8904 N   0  0  0  0  0  0  0  0  0  0  0  0
   -0.9557    1.1543   -0.4911 C   0  0  0  0  0  0  0  0  0  0  0  0
    0.3936    1.4095   -0.3752 C   0  0  0  0  0  0  0  0  0  0  0  0
    1.3730    0.4269   -0.1128 C   0  0  0  0  0  0  0  0  0  0  0  0
    0.9144   -0.8605    0.0310 C   0  0  0  0  0  0  0  0  0  0  0  0
   -0.4554   -1.1503   -0.0807 C   0  0  0  0  0  0  0  0  0  0  0  0
   -1.3740   -0.1530   -0.3374 C   0  0  0  0  0  0  0  0  0  0  0  0
   -2.6841   -0.8080   -0.3652 C   0  0  0  0  0  0  0  0  0  0  0  0
   -3.9414   -0.2884   -0.5592 C   0  0  0  0  0  0  0  0  0  0  0  0
   -5.0459   -1.1443   -0.5203 C   0  0  0  0  0  0  0  0  0  0  0  0
   -4.9368   -2.4866   -0.2959 C   0  0  0  0  0  0  0  0  0  0  0  0
   -3.6842   -3.0098   -0.1008 C   0  0  0  0  0  0  0  0  0  0  0  0
   -2.5681   -2.1753   -0.1355 C   0  0  0  0  0  0  0  0  0  0  0  0
   -1.1293   -2.4573    0.0417 C   0  0  0  0  0  0  0  0  0  0  0  0
   -0.6661   -3.3934   -0.8696 O   0  0  0  0  0  0  0  0  0  0  0  0
   -0.9638   -2.9343    1.4721 C   0  0  0  0  0  0  0  0  0  0  0  0
   -1.5943   -4.1748    1.6215 F   0  0  0  0  0  0  0  0  0  0  0  0
   -1.6311   -2.0246    2.2752 F   0  0  0  0  0  0  0  0  0  0  0  0
    0.3322   -3.0241    1.8811 F   0  0  0  0  0  0  0  0  0  0  0  0
    2.7535    0.8188   -0.0176 C   0  0  0  0  0  0  0  0  0  0  0  0
    2.9530    2.0944   -0.2094 O   0  0  0  0  0  0  0  0  0  0  0  0
    3.8858    0.0604    0.2426 N   0  0  0  0  0  0  0  0  0  0  0  0
    4.0520   -1.3337    0.5011 C   0  0  0  0  0  0  0  0  0  0  0  0
    5.5580   -1.5251    0.7613 C   0  0  0  0  0  0  0  0  0  0  0  0
    6.1323   -0.4254   -0.1076 C   0  0  0  0  0  0  0  0  0  0  0  0
    5.8579   -0.7160   -1.4563 O   0  0  0  0  0  0  0  0  0  0  0  0
    5.2287    0.7114    0.2823 C   0  0  0  0  0  0  0  0  0  0  0  0
   -3.5630    5.3801    0.9593 H   0  0  0  0  0  0  0  0  0  0  0  0
   -4.9387    5.0610   -0.2243 H   0  0  0  0  0  0  0  0  0  0  0  0
   -3.5336    6.1339   -0.6502 H   0  0  0  0  0  0  0  0  0  0  0  0
   -2.2443    3.2275    1.1459 H   0  0  0  0  0  0  0  0  0  0  0  0
   -2.1532    2.1650   -2.9965 H   0  0  0  0  0  0  0  0  0  0  0  0
    0.6976    2.4334   -0.4963 H   0  0  0  0  0  0  0  0  0  0  0  0
    1.5910   -1.6757    0.2280 H   0  0  0  0  0  0  0  0  0  0  0  0
   -4.1082    0.7593   -0.7268 H   0  0  0  0  0  0  0  0  0  0  0  0
   -6.0178   -0.6939   -0.6787 H   0  0  0  0  0  0  0  0  0  0  0  0
   -5.8358   -3.1292   -0.2730 H   0  0  0  0  0  0  0  0  0  0  0  0
   -3.5435   -4.0649    0.0804 H   0  0  0  0  0  0  0  0  0  0  0  0
   -1.0172   -3.1642   -1.7434 H   0  0  0  0  0  0  0  0  0  0  0  0
    3.5391   -1.6881    1.4300 H   0  0  0  0  0  0  0  0  0  0  0  0
    3.7896   -1.9576   -0.3838 H   0  0  0  0  0  0  0  0  0  0  0  0
    5.8947   -2.5256    0.4822 H   0  0  0  0  0  0  0  0  0  0  0  0
    5.7525   -1.2614    1.8158 H   0  0  0  0  0  0  0  0  0  0  0  0
    7.1867   -0.2358    0.0804 H   0  0  0  0  0  0  0  0  0  0  0  0
    6.6647   -1.0383   -1.9256 H   0  0  0  0  0  0  0  0  0  0  0  0
    5.2715    1.5675   -0.3996 H   0  0  0  0  0  0  0  0  0  0  0  0
    5.4177    1.0045    1.3132 H   0  0  0  0  0  0  0  0  0  0  0  0
  1  2  1  0
  2  3  1  0
  3  4  2  0
  4  5  1  0
  5  6  2  0
  4  7  1  0
  7  8  2  0
  8  9  1  0
  9 10  2  0
 10 11  1  0
 11 12  2  0
 12 13  1  0
 13 14  2  0
 14 15  1  0
 15 16  2  0
 16 17  1  0
 17 18  2  0
 18 19  1  0
 19 20  1  0
 19 21  1  0
 21 22  1  0
 21 23  1  0
 21 24  1  0
  9 25  1  0
 25 26  2  0
 25 27  1  0
 27 28  1  0
 28 29  1  0
 29 30  1  0
 30 31  1  0
 30 32  1  0
  6  2  1  0
 12  7  1  0
 18 13  1  0
 32 27  1  0
 19 11  1  0
  1 33  1  0
  1 34  1  0
  1 35  1  0
  3 36  1  0
  5 37  1  0
  8 38  1  0
 10 39  1  0
 14 40  1  0
 15 41  1  0
 16 42  1  0
 17 43  1  0
 20 44  1  0
 28 45  1  0
 28 46  1  0
 29 47  1  0
 29 48  1  0
 30 49  1  0
 31 50  1  0
 32 51  1  0
 32 52  1  0
M  END
$$$$
[H]c1c([H])c([H])c(C2=NC([H])([H])c3nnc(C([H])([H])[H])n3-c3c([H])c([H])c(Cl)c([H])c32)c(F)c1[H]
     RDKit          3D

 35 38  0  0  0  0  0  0  0  0999 V2000
    4.0270   -0.4692   -1.1839 C   0  0  0  0  0  0  0  0  0  0  0  0
    3.3922   -0.7519    0.1170 C   0  0  0  0  0  0  0  0  0  0  0  0
    3.8307   -1.6321    1.0732 N   0  0  0  0  0  0  0  0  0  0  0  0
    2.9570   -1.6754    2.0895 N   0  0  0  0  0  0  0  0  0  0  0  0
    1.9545   -0.8549    1.8421 C   0  0  0  0  0  0  0  0  0  0  0  0
    0.7100   -0.5829    2.6614 C   0  0  0  0  0  0  0  0  0  0  0  0
   -0.5009   -0.7549    1.8723 N   0  0  0  0  0  0  0  0  0  0  0  0
   -0.7983   -0.2625    0.6917 C   0  0  0  0  0  0  0  0  0  0  0  0
   -2.0770   -0.6100    0.1441 C   0  0  0  0  0  0  0  0  0  0  0  0
   -2.5232   -0.3624   -1.0997 C   0  0  0  0  0  0  0  0  0  0  0  0
   -3.8063   -0.6607   -1.4881 C   0  0  0  0  0  0  0  0  0  0  0  0
   -4.6913   -1.2420   -0.5804 C   0  0  0  0  0  0  0  0  0  0  0  0
   -4.2557   -1.5071    0.6981 C   0  0  0  0  0  0  0  0  0  0  0  0
   -2.9818   -1.2027    1.0624 C   0  0  0  0  0  0  0  0  0  0  0  0
   -2.5832   -1.4818    2.3473 F   0  0  0  0  0  0  0  0  0  0  0  0
    0.0684    0.6879    0.0221 C   0  0  0  0  0  0  0  0  0  0  0  0
   -0.6052    1.7066   -0.5932 C   0  0  0  0  0  0  0  0  0  0  0  0
    0.1081    2.6783   -1.2586 C   0  0  0  0  0  0  0  0  0  0  0  0
   -0.8153    3.9497   -2.0421 Cl  0  0  0  0  0  0  0  0  0  0  0  0
    1.5081    2.6358   -1.3050 C   0  0  0  0  0  0  0  0  0  0  0  0
    2.2174    1.6063   -0.6767 C   0  0  0  0  0  0  0  0  0  0  0  0
    1.4563    0.6790   -0.0431 C   0  0  0  0  0  0  0  0  0  0  0  0
    2.2566   -0.2926    0.6081 N   0  0  0  0  0  0  0  0  0  0  0  0
    4.9477    0.1196   -1.1722 H   0  0  0  0  0  0  0  0  0  0  0  0
    3.3318   -0.2868   -2.0279 H   0  0  0  0  0  0  0  0  0  0  0  0
    4.4372   -1.4840   -1.5189 H   0  0  0  0  0  0  0  0  0  0  0  0
    0.6917   -1.2693    3.5013 H   0  0  0  0  0  0  0  0  0  0  0  0
    0.7723    0.4587    3.0126 H   0  0  0  0  0  0  0  0  0  0  0  0
   -1.8848    0.0276   -1.8716 H   0  0  0  0  0  0  0  0  0  0  0  0
   -4.1526   -0.4506   -2.5022 H   0  0  0  0  0  0  0  0  0  0  0  0
   -5.7035   -1.4837   -0.8663 H   0  0  0  0  0  0  0  0  0  0  0  0
   -4.9194   -1.9656    1.4460 H   0  0  0  0  0  0  0  0  0  0  0  0
   -1.6811    1.7393   -0.4811 H   0  0  0  0  0  0  0  0  0  0  0  0
    2.0507    3.3886   -1.8205 H   0  0  0  0  0  0  0  0  0  0  0  0
    3.2620    1.6056   -0.6576 H   0  0  0  0  0  0  0  0  0  0  0  0
  1  2  1  0
  2  3  2  0
  3  4  1  0
  4  5  2  0
  5  6  1  0
  6  7  1  0
  7  8  2  0
  8  9  1  0
  9 10  2  0
 10 11  1  0
 11 12  2  0
 12 13  1  0
 13 14  2  0
 14 15  1  0
  8 16  1  0
 16 17  2  0
 17 18  1  0
 18 19  1  0
 18 20  2  0
 20 21  1  0
 21 22  2  0
 22 23  1  0
 23  2  1  0
 23  5  1  0
 14  9  1  0
 22 16  1  0
  1 24  1  0
  1 25  1  0
  1 26  1  0
  6 27  1  0
  6 28  1  0
 10 29  1  0
 11 30  1  0
 12 31  1  0
 13 32  1  0
 17 33  1  0
 20 34  1  0
 21 35  1  0
M  END
$$$$
[H]c1c([H])c([H])c(C(=O)N2C([H])([H])C3([H])C([H])([H])N([H])C([H])([H])C([H])(C2([H])[H])C3([H])[H])c([H])c1[H]
     RDKit          3D

 35 37  0  0  0  0  0  0  0  0999 V2000
    1.2108   -0.8276    2.2210 O   0  0  0  0  0  0  0  0  0  0  0  0
    1.1849   -0.4484    0.9620 C   0  0  0  0  0  0  0  0  0  0  0  0
   -0.1044   -0.3457    0.3878 N   0  0  0  0  0  0  0  0  0  0  0  0
   -1.2779   -0.7409    1.2101 C   0  0  0  0  0  0  0  0  0  0  0  0
   -2.4074    0.2388    1.1564 C   0  0  0  0  0  0  0  0  0  0  0  0
   -3.6893   -0.3967    0.6461 C   0  0  0  0  0  0  0  0  0  0  0  0
   -3.9159   -0.0948   -0.7535 N   0  0  0  0  0  0  0  0  0  0  0  0
   -2.6583   -0.2507   -1.4488 C   0  0  0  0  0  0  0  0  0  0  0  0
   -1.7103    0.8334   -1.0722 C   0  0  0  0  0  0  0  0  0  0  0  0
   -1.9875    1.4050    0.3115 C   0  0  0  0  0  0  0  0  0  0  0  0
   -0.3115    0.1774   -0.9302 C   0  0  0  0  0  0  0  0  0  0  0  0
    2.4571   -0.1938    0.3616 C   0  0  0  0  0  0  0  0  0  0  0  0
    3.5369   -0.0572    1.2712 C   0  0  0  0  0  0  0  0  0  0  0  0
    4.8136    0.1322    0.8590 C   0  0  0  0  0  0  0  0  0  0  0  0
    5.0701    0.1938   -0.4782 C   0  0  0  0  0  0  0  0  0  0  0  0
    4.0644    0.0670   -1.3960 C   0  0  0  0  0  0  0  0  0  0  0  0
    2.7618   -0.1272   -0.9702 C   0  0  0  0  0  0  0  0  0  0  0  0
   -0.9068   -0.7146    2.2777 H   0  0  0  0  0  0  0  0  0  0  0  0
   -1.5559   -1.7853    0.9512 H   0  0  0  0  0  0  0  0  0  0  0  0
   -2.6763    0.6643    2.1612 H   0  0  0  0  0  0  0  0  0  0  0  0
   -4.5858   -0.0437    1.1965 H   0  0  0  0  0  0  0  0  0  0  0  0
   -3.6407   -1.5119    0.7180 H   0  0  0  0  0  0  0  0  0  0  0  0
   -4.5881   -0.7593   -1.1616 H   0  0  0  0  0  0  0  0  0  0  0  0
   -2.3021   -1.2824   -1.2540 H   0  0  0  0  0  0  0  0  0  0  0  0
   -2.9067   -0.2494   -2.5441 H   0  0  0  0  0  0  0  0  0  0  0  0
   -1.7055    1.6598   -1.7817 H   0  0  0  0  0  0  0  0  0  0  0  0
   -1.0256    1.7812    0.7017 H   0  0  0  0  0  0  0  0  0  0  0  0
   -2.7276    2.2234    0.2774 H   0  0  0  0  0  0  0  0  0  0  0  0
    0.3591    1.0397   -1.1455 H   0  0  0  0  0  0  0  0  0  0  0  0
   -0.2206   -0.6387   -1.6662 H   0  0  0  0  0  0  0  0  0  0  0  0
    3.3641   -0.0976    2.3447 H   0  0  0  0  0  0  0  0  0  0  0  0
    5.6126    0.2325    1.5698 H   0  0  0  0  0  0  0  0  0  0  0  0
    6.1051    0.3478   -0.7951 H   0  0  0  0  0  0  0  0  0  0  0  0
    4.3234    0.1238   -2.4511 H   0  0  0  0  0  0  0  0  0  0  0  0
    2.0406   -0.2556   -1.7366 H   0  0  0  0  0  0  0  0  0  0  0  0
  1  2  2  0
  2  3  1  0
  3  4  1  0
  4  5  1  0
  5  6  1  0
  6  7  1  0
  7  8  1  0
  8  9  1  0
  9 10  1  0
  9 11  1  0
  2 12  1  0
 12 13  2  0
 13 14  1  0
 14 15  2  0
 15 16  1  0
 16 17  2  0
 11  3  1  0
 17 12  1  0
 10  5  1  0
  4 18  1  0
  4 19  1  0
  5 20  1  0
  6 21  1  0
  6 22  1  0
  7 23  1  0
  8 24  1  0
  8 25  1  0
  9 26  1  0
 10 27  1  0
 10 28  1  0
 11 29  1  0
 11 30  1  0
 13 31  1  0
 14 32  1  0
 15 33  1  0
 16 34  1  0
 17 35  1  0
M  END
$$$$
[H]c1c([H])c2c3c(c([H])c([H])c(N4C([H])([H])C([H])([H])N([H])C([H])([H])C4([H])[H])c3c1[H])C(=O)N(c1c(C([H])([H])[H])c([H])c3c(c1[H])c(=O)n(C([H])([H])[H])c(=O)n3C([H])([H])[H])C2=O
     RDKit          3D

 61 66  0  0  0  0  0  0  0  0999 V2000
    2.3839   -2.8949    0.1725 C   0  0  0  0  0  0  0  0  0  0  0  0
    3.1476   -1.6278    0.2211 C   0  0  0  0  0  0  0  0  0  0  0  0
    4.5203   -1.6377    0.1521 C   0  0  0  0  0  0  0  0  0  0  0  0
    5.2557   -0.4635    0.1960 C   0  0  0  0  0  0  0  0  0  0  0  0
    6.5937   -0.4590    0.1294 N   0  0  0  0  0  0  0  0  0  0  0  0
    7.3314   -1.6905    0.0078 C   0  0  0  0  0  0  0  0  0  0  0  0
    7.2754    0.7042    0.1751 C   0  0  0  0  0  0  0  0  0  0  0  0
    8.5386    0.6786    0.1101 O   0  0  0  0  0  0  0  0  0  0  0  0
    6.5950    1.8543    0.2881 N   0  0  0  0  0  0  0  0  0  0  0  0
    7.3477    3.0923    0.3352 C   0  0  0  0  0  0  0  0  0  0  0  0
    5.2631    1.9031    0.3581 C   0  0  0  0  0  0  0  0  0  0  0  0
    4.6004    2.9659    0.4638 O   0  0  0  0  0  0  0  0  0  0  0  0
    4.5351    0.7174    0.3131 C   0  0  0  0  0  0  0  0  0  0  0  0
    3.1669    0.7373    0.3825 C   0  0  0  0  0  0  0  0  0  0  0  0
    2.4727   -0.4361    0.3365 C   0  0  0  0  0  0  0  0  0  0  0  0
    1.0538   -0.3589    0.4103 N   0  0  0  0  0  0  0  0  0  0  0  0
    0.4042   -0.8283    1.5750 C   0  0  0  0  0  0  0  0  0  0  0  0
    1.0510   -1.3116    2.5426 O   0  0  0  0  0  0  0  0  0  0  0  0
   -1.0461   -0.7639    1.6866 C   0  0  0  0  0  0  0  0  0  0  0  0
   -1.6535   -1.2321    2.8492 C   0  0  0  0  0  0  0  0  0  0  0  0
   -3.0063   -1.1634    2.9420 C   0  0  0  0  0  0  0  0  0  0  0  0
   -3.7672   -0.6512    1.9299 C   0  0  0  0  0  0  0  0  0  0  0  0
   -3.2063   -0.1831    0.7741 C   0  0  0  0  0  0  0  0  0  0  0  0
   -3.9968    0.3305   -0.2319 C   0  0  0  0  0  0  0  0  0  0  0  0
   -3.3234    0.7886   -1.3756 C   0  0  0  0  0  0  0  0  0  0  0  0
   -1.9577    0.7357   -1.5031 C   0  0  0  0  0  0  0  0  0  0  0  0
   -1.1953    0.2131   -0.4734 C   0  0  0  0  0  0  0  0  0  0  0  0
    0.2531    0.1643   -0.6195 C   0  0  0  0  0  0  0  0  0  0  0  0
    0.8116    0.5902   -1.6706 O   0  0  0  0  0  0  0  0  0  0  0  0
   -1.8090   -0.2496    0.6698 C   0  0  0  0  0  0  0  0  0  0  0  0
   -5.4070    0.3912   -0.1650 N   0  0  0  0  0  0  0  0  0  0  0  0
   -6.3127   -0.7299   -0.1398 C   0  0  0  0  0  0  0  0  0  0  0  0
   -7.3940   -0.5769   -1.2024 C   0  0  0  0  0  0  0  0  0  0  0  0
   -8.0227    0.7292   -1.0896 N   0  0  0  0  0  0  0  0  0  0  0  0
   -7.0302    1.7374   -1.3095 C   0  0  0  0  0  0  0  0  0  0  0  0
   -6.0632    1.7117   -0.1299 C   0  0  0  0  0  0  0  0  0  0  0  0
    2.8236   -3.5935   -0.5945 H   0  0  0  0  0  0  0  0  0  0  0  0
    2.4782   -3.4163    1.1543 H   0  0  0  0  0  0  0  0  0  0  0  0
    1.3384   -2.7296   -0.0892 H   0  0  0  0  0  0  0  0  0  0  0  0
    5.0536   -2.5718    0.0612 H   0  0  0  0  0  0  0  0  0  0  0  0
    8.3883   -1.4844   -0.2652 H   0  0  0  0  0  0  0  0  0  0  0  0
    6.9019   -2.3477   -0.7755 H   0  0  0  0  0  0  0  0  0  0  0  0
    7.3585   -2.2216    0.9895 H   0  0  0  0  0  0  0  0  0  0  0  0
    6.7215    3.8715    0.8322 H   0  0  0  0  0  0  0  0  0  0  0  0
    8.2955    2.9092    0.8797 H   0  0  0  0  0  0  0  0  0  0  0  0
    7.6090    3.4016   -0.6871 H   0  0  0  0  0  0  0  0  0  0  0  0
    2.6551    1.7020    0.4748 H   0  0  0  0  0  0  0  0  0  0  0  0
   -1.0328   -1.6407    3.6544 H   0  0  0  0  0  0  0  0  0  0  0  0
   -3.4884   -1.5284    3.8486 H   0  0  0  0  0  0  0  0  0  0  0  0
   -4.8555   -0.5998    2.0330 H   0  0  0  0  0  0  0  0  0  0  0  0
   -3.8953    1.2034   -2.1981 H   0  0  0  0  0  0  0  0  0  0  0  0
   -1.4337    1.0855   -2.3775 H   0  0  0  0  0  0  0  0  0  0  0  0
   -5.8525   -1.7078   -0.2180 H   0  0  0  0  0  0  0  0  0  0  0  0
   -6.8771   -0.6679    0.8364 H   0  0  0  0  0  0  0  0  0  0  0  0
   -6.9688   -0.6722   -2.2089 H   0  0  0  0  0  0  0  0  0  0  0  0
   -8.1817   -1.3322   -1.0080 H   0  0  0  0  0  0  0  0  0  0  0  0
   -8.5220    0.8475   -0.2000 H   0  0  0  0  0  0  0  0  0  0  0  0
   -6.5353    1.5426   -2.2609 H   0  0  0  0  0  0  0  0  0  0  0  0
   -7.4490    2.7651   -1.3408 H   0  0  0  0  0  0  0  0  0  0  0  0
   -5.3123    2.5252   -0.2656 H   0  0  0  0  0  0  0  0  0  0  0  0
   -6.6292    1.8737    0.7856 H   0  0  0  0  0  0  0  0  0  0  0  0
  1  2  1  0
  2  3  2  0
  3  4  1  0
  4  5  1  0
  5  6  1  0
  5  7  1  0
  7  8  2  0
  7  9  1  0
  9 10  1  0
  9 11  1  0
 11 12  2  0
 11 13  1  0
 13 14  1  0
 14 15  2  0
 15 16  1  0
 16 17  1  0
 17 18  2  0
 17 19  1  0
 19 20  2  0
 20 21  1  0
 21 22  2  0
 22 23  1  0
 23 24  2  0
 24 25  1  0
 25 26  2  0
 26 27  1  0
 27 28  1  0
 28 29  2  0
 27 30  2  0
 24 31  1  0
 31 32  1  0
 32 33  1  0
 33 34  1  0
 34 35  1  0
 35 36  1  0
 15  2  1  0
 28 16  1  0
 36 31  1  0
 13  4  2  0
 30 19  1  0
 30 23  1  0
  1 37  1  0
  1 38  1  0
  1 39  1  0
  3 40  1  0
  6 41  1  0
  6 42  1  0
  6 43  1  0
 10 44  1  0
 10 45  1  0
 10 46  1  0
 14 47  1  0
 20 48  1  0
 21 49  1  0
 22 50  1  0
 25 51  1  0
 26 52  1  0
 32 53  1  0
 32 54  1  0
 33 55  1  0
 33 56  1  0
 34 57  1  0
 35 58  1  0
 35 59  1  0
 36 60  1  0
 36 61  1  0
M  END
$$$$
[H]c1c(F)c([H])c2c(C3=C(c4c([H])n([H])c5c([H])c([H])c([H])c([H])c45)C(=O)N([H])C3=O)nc(N3C([H])([H])C([H])([H])N(C([H])([H])[H])C([H])([H])C3([H])[H])nc2c1[H]
     RDKit          3D

 55 60  0  0  0  0  0  0  0  0999 V2000
   -4.7346    2.7211   -0.6279 C   0  0  0  0  0  0  0  0  0  0  0  0
   -4.0606    2.5657    0.6314 N   0  0  0  0  0  0  0  0  0  0  0  0
   -2.6953    2.9485    0.6233 C   0  0  0  0  0  0  0  0  0  0  0  0
   -1.7438    1.8464    0.1397 C   0  0  0  0  0  0  0  0  0  0  0  0
   -2.0728    0.6669    0.8931 N   0  0  0  0  0  0  0  0  0  0  0  0
   -3.1104    0.7621    1.8812 C   0  0  0  0  0  0  0  0  0  0  0  0
   -4.3344    1.2720    1.1552 C   0  0  0  0  0  0  0  0  0  0  0  0
   -1.4014   -0.5607    0.6747 C   0  0  0  0  0  0  0  0  0  0  0  0
   -0.4356   -0.6409   -0.2585 N   0  0  0  0  0  0  0  0  0  0  0  0
    0.2539   -1.7794   -0.5322 C   0  0  0  0  0  0  0  0  0  0  0  0
    1.2879   -1.7760   -1.5618 C   0  0  0  0  0  0  0  0  0  0  0  0
    2.3808   -0.9786   -1.4986 C   0  0  0  0  0  0  0  0  0  0  0  0
    3.1760   -1.2389   -2.6890 C   0  0  0  0  0  0  0  0  0  0  0  0
    4.2833   -0.6790   -2.9761 O   0  0  0  0  0  0  0  0  0  0  0  0
    2.5278   -2.2112   -3.4743 N   0  0  0  0  0  0  0  0  0  0  0  0
    1.3474   -2.5584   -2.7903 C   0  0  0  0  0  0  0  0  0  0  0  0
    0.5259   -3.4143   -3.2370 O   0  0  0  0  0  0  0  0  0  0  0  0
    2.6987   -0.0639   -0.4101 C   0  0  0  0  0  0  0  0  0  0  0  0
    2.6686   -0.4135    0.9313 C   0  0  0  0  0  0  0  0  0  0  0  0
    2.9920    0.6511    1.6719 N   0  0  0  0  0  0  0  0  0  0  0  0
    3.2411    1.7153    0.8762 C   0  0  0  0  0  0  0  0  0  0  0  0
    3.5993    3.0128    1.1608 C   0  0  0  0  0  0  0  0  0  0  0  0
    3.7775    3.8873    0.1120 C   0  0  0  0  0  0  0  0  0  0  0  0
    3.5934    3.4428   -1.1782 C   0  0  0  0  0  0  0  0  0  0  0  0
    3.2340    2.1402   -1.4594 C   0  0  0  0  0  0  0  0  0  0  0  0
    3.0555    1.2633   -0.4306 C   0  0  0  0  0  0  0  0  0  0  0  0
   -0.0685   -2.8985    0.1997 C   0  0  0  0  0  0  0  0  0  0  0  0
    0.5925   -4.0794    0.0097 C   0  0  0  0  0  0  0  0  0  0  0  0
    0.2733   -5.1953    0.7651 C   0  0  0  0  0  0  0  0  0  0  0  0
    0.9566   -6.3411    0.5379 F   0  0  0  0  0  0  0  0  0  0  0  0
   -0.7170   -5.1180    1.7179 C   0  0  0  0  0  0  0  0  0  0  0  0
   -1.3992   -3.9443    1.9354 C   0  0  0  0  0  0  0  0  0  0  0  0
   -1.0737   -2.8368    1.1779 C   0  0  0  0  0  0  0  0  0  0  0  0
   -1.6973   -1.6685    1.3723 N   0  0  0  0  0  0  0  0  0  0  0  0
   -5.8052    2.9678   -0.4330 H   0  0  0  0  0  0  0  0  0  0  0  0
   -4.6280    1.7720   -1.2043 H   0  0  0  0  0  0  0  0  0  0  0  0
   -4.3128    3.5570   -1.1979 H   0  0  0  0  0  0  0  0  0  0  0  0
   -2.5451    3.8009   -0.0774 H   0  0  0  0  0  0  0  0  0  0  0  0
   -2.3514    3.3008    1.6242 H   0  0  0  0  0  0  0  0  0  0  0  0
   -0.7328    2.1887    0.4212 H   0  0  0  0  0  0  0  0  0  0  0  0
   -1.8792    1.7146   -0.9542 H   0  0  0  0  0  0  0  0  0  0  0  0
   -3.3124   -0.2088    2.3889 H   0  0  0  0  0  0  0  0  0  0  0  0
   -2.8330    1.5426    2.6203 H   0  0  0  0  0  0  0  0  0  0  0  0
   -4.5159    0.5896    0.2766 H   0  0  0  0  0  0  0  0  0  0  0  0
   -5.2334    1.2522    1.8075 H   0  0  0  0  0  0  0  0  0  0  0  0
    2.8979   -2.5766   -4.3936 H   0  0  0  0  0  0  0  0  0  0  0  0
    2.4254   -1.3942    1.3212 H   0  0  0  0  0  0  0  0  0  0  0  0
    3.0620    0.7214    2.7232 H   0  0  0  0  0  0  0  0  0  0  0  0
    3.7515    3.3921    2.1598 H   0  0  0  0  0  0  0  0  0  0  0  0
    4.0634    4.9351    0.2757 H   0  0  0  0  0  0  0  0  0  0  0  0
    3.7229    4.0975   -2.0266 H   0  0  0  0  0  0  0  0  0  0  0  0
    3.0838    1.8192   -2.4958 H   0  0  0  0  0  0  0  0  0  0  0  0
    1.4032   -4.1411   -0.7268 H   0  0  0  0  0  0  0  0  0  0  0  0
   -0.9909   -5.9733    2.3247 H   0  0  0  0  0  0  0  0  0  0  0  0
   -2.1906   -3.8561    2.6868 H   0  0  0  0  0  0  0  0  0  0  0  0
  1  2  1  0
  2  3  1  0
  3  4  1  0
  4  5  1  0
  5  6  1  0
  6  7  1  0
  5  8  1  0
  8  9  2  0
  9 10  1  0
 10 11  1  0
 11 12  2  0
 12 13  1  0
 13 14  2  0
 13 15  1  0
 15 16  1  0
 16 17  2  0
 12 18  1  0
 18 19  2  0
 19 20  1  0
 20 21  1  0
 21 22  2  0
 22 23  1  0
 23 24  2  0
 24 25  1  0
 25 26  2  0
 10 27  2  0
 27 28  1  0
 28 29  2  0
 29 30  1  0
 29 31  1  0
 31 32  2  0
 32 33  1  0
 33 34  2  0
  7  2  1  0
 34  8  1  0
 16 11  1  0
 26 18  1  0
 33 27  1  0
 26 21  1  0
  1 35  1  0
  1 36  1  0
  1 37  1  0
  3 38  1  0
  3 39  1  0
  4 40  1  0
  4 41  1  0
  6 42  1  0
  6 43  1  0
  7 44  1  0
  7 45  1  0
 15 46  1  0
 19 47  1  0
 20 48  1  0
 22 49  1  0
 23 50  1  0
 24 51  1  0
 25 52  1  0
 28 53  1  0
 31 54  1  0
 32 55  1  0
M  END
$$$$
[H]Oc1c([H])c(-c2c([H])c([H])c([H])c(C(=O)C([H])([H])[H])c2[H])nc2c([H])c(OC([H])([H])[H])c(-c3oc([H])nc3[H])c([H])c12
     RDKit          3D

 43 46  0  0  0  0  0  0  0  0999 V2000
   -3.0611    3.6065   -0.5294 C   0  0  0  0  0  0  0  0  0  0  0  0
   -3.6686    2.3551   -0.3594 O   0  0  0  0  0  0  0  0  0  0  0  0
   -2.9907    1.1642   -0.2117 C   0  0  0  0  0  0  0  0  0  0  0  0
   -1.5868    1.1666   -0.2277 C   0  0  0  0  0  0  0  0  0  0  0  0
   -0.8861   -0.0035   -0.0830 C   0  0  0  0  0  0  0  0  0  0  0  0
    0.4590   -0.0150   -0.0965 N   0  0  0  0  0  0  0  0  0  0  0  0
    1.1907   -1.1481    0.0430 C   0  0  0  0  0  0  0  0  0  0  0  0
    0.5090   -2.3135    0.2026 C   0  0  0  0  0  0  0  0  0  0  0  0
   -0.8858   -2.3376    0.2214 C   0  0  0  0  0  0  0  0  0  0  0  0
   -1.5382   -3.5315    0.3843 O   0  0  0  0  0  0  0  0  0  0  0  0
   -1.5819   -1.1661    0.0764 C   0  0  0  0  0  0  0  0  0  0  0  0
   -2.9391   -1.1509    0.0896 C   0  0  0  0  0  0  0  0  0  0  0  0
   -3.7153    0.0107   -0.0532 C   0  0  0  0  0  0  0  0  0  0  0  0
   -5.1519   -0.0802   -0.0253 C   0  0  0  0  0  0  0  0  0  0  0  0
   -6.1226    0.8520   -0.1360 C   0  0  0  0  0  0  0  0  0  0  0  0
   -7.3192    0.2085   -0.0387 N   0  0  0  0  0  0  0  0  0  0  0  0
   -7.0725   -1.0933    0.1283 C   0  0  0  0  0  0  0  0  0  0  0  0
   -5.7979   -1.2414    0.1334 O   0  0  0  0  0  0  0  0  0  0  0  0
    2.6252   -1.0673    0.0164 C   0  0  0  0  0  0  0  0  0  0  0  0
    3.4266   -2.1760    0.1520 C   0  0  0  0  0  0  0  0  0  0  0  0
    4.8162   -2.0223    0.1164 C   0  0  0  0  0  0  0  0  0  0  0  0
    5.4232   -0.7964   -0.0503 C   0  0  0  0  0  0  0  0  0  0  0  0
    4.6160    0.3167   -0.1864 C   0  0  0  0  0  0  0  0  0  0  0  0
    3.2495    0.1666   -0.1515 C   0  0  0  0  0  0  0  0  0  0  0  0
    5.2106    1.6395   -0.3657 C   0  0  0  0  0  0  0  0  0  0  0  0
    6.6633    1.8678   -0.4118 C   0  0  0  0  0  0  0  0  0  0  0  0
    4.4595    2.6442   -0.4883 O   0  0  0  0  0  0  0  0  0  0  0  0
   -2.6985    3.6619   -1.5789 H   0  0  0  0  0  0  0  0  0  0  0  0
   -3.8076    4.4060   -0.3366 H   0  0  0  0  0  0  0  0  0  0  0  0
   -2.2453    3.6940    0.2125 H   0  0  0  0  0  0  0  0  0  0  0  0
   -1.0823    2.1177   -0.3574 H   0  0  0  0  0  0  0  0  0  0  0  0
    1.0266   -3.2732    0.3220 H   0  0  0  0  0  0  0  0  0  0  0  0
   -1.0641   -4.4068    0.4932 H   0  0  0  0  0  0  0  0  0  0  0  0
   -3.4420   -2.1021    0.2193 H   0  0  0  0  0  0  0  0  0  0  0  0
   -5.9937    1.9096   -0.2754 H   0  0  0  0  0  0  0  0  0  0  0  0
   -7.7948   -1.9165    0.2437 H   0  0  0  0  0  0  0  0  0  0  0  0
    3.0294   -3.1713    0.2863 H   0  0  0  0  0  0  0  0  0  0  0  0
    5.4167   -2.9290    0.2279 H   0  0  0  0  0  0  0  0  0  0  0  0
    6.5063   -0.7023   -0.0747 H   0  0  0  0  0  0  0  0  0  0  0  0
    2.6538    1.0509   -0.2602 H   0  0  0  0  0  0  0  0  0  0  0  0
    6.8981    2.8127   -0.9438 H   0  0  0  0  0  0  0  0  0  0  0  0
    7.2138    1.0550   -0.9286 H   0  0  0  0  0  0  0  0  0  0  0  0
    7.0528    1.9382    0.6296 H   0  0  0  0  0  0  0  0  0  0  0  0
  1  2  1  0
  2  3  1  0
  3  4  2  0
  4  5  1  0
  5  6  2  0
  6  7  1  0
  7  8  2  0
  8  9  1  0
  9 10  1  0
  9 11  2  0
 11 12  1  0
 12 13  2  0
 13 14  1  0
 14 15  2  0
 15 16  1  0
 16 17  2  0
 17 18  1  0
  7 19  1  0
 19 20  2  0
 20 21  1  0
 21 22  2  0
 22 23  1  0
 23 24  2  0
 23 25  1  0
 25 26  1  0
 25 27  2  0
 13  3  1  0
 18 14  1  0
 24 19  1  0
 11  5  1  0
  1 28  1  0
  1 29  1  0
  1 30  1  0
  4 31  1  0
  8 32  1  0
 10 33  1  0
 12 34  1  0
 15 35  1  0
 17 36  1  0
 20 37  1  0
 21 38  1  0
 22 39  1  0
 24 40  1  0
 26 41  1  0
 26 42  1  0
 26 43  1  0
M  END
$$$$
[H]c1nc(N([H])c2c([H])c([H])c(S(=O)(=O)C([H])([H])[H])c([H])c2[H])nc(O[C@]([H])(c2c([H])c([H])c([H])c([H])c2[H])C([H])([H])[H])c1C(F)(F)F
     RDKit          3D

 48 50  0  0  0  0  0  0  0  0999 V2000
    4.4000   -2.2393   -0.0225 C   0  0  0  0  0  0  0  0  0  0  0  0
    3.5690   -0.9876    0.1457 C   0  0  2  0  0  0  0  0  0  0  0  0
    3.0484   -0.5258   -1.0798 O   0  0  0  0  0  0  0  0  0  0  0  0
    1.6788   -0.3275   -1.2701 C   0  0  0  0  0  0  0  0  0  0  0  0
    0.7789   -0.5607   -0.3105 N   0  0  0  0  0  0  0  0  0  0  0  0
   -0.5735   -0.3668   -0.4929 C   0  0  0  0  0  0  0  0  0  0  0  0
   -1.4623   -0.6550    0.5551 N   0  0  0  0  0  0  0  0  0  0  0  0
   -2.8482   -0.4827    0.4930 C   0  0  0  0  0  0  0  0  0  0  0  0
   -3.4890    0.3839   -0.3489 C   0  0  0  0  0  0  0  0  0  0  0  0
   -4.8838    0.5037   -0.3977 C   0  0  0  0  0  0  0  0  0  0  0  0
   -5.6321   -0.2851    0.4386 C   0  0  0  0  0  0  0  0  0  0  0  0
   -4.9798   -1.1656    1.2952 C   0  0  0  0  0  0  0  0  0  0  0  0
   -3.6240   -1.2801    1.3401 C   0  0  0  0  0  0  0  0  0  0  0  0
   -7.3603   -0.2089    0.4512 S   0  0  0  0  0  0  0  0  0  0  0  0
   -7.9175    0.9976    1.6221 C   0  0  0  0  0  0  0  0  0  0  0  0
   -7.9030    0.1128   -0.9280 O   0  0  0  0  0  0  0  0  0  0  0  0
   -7.8873   -1.5530    0.9016 O   0  0  0  0  0  0  0  0  0  0  0  0
   -0.8978    0.0719   -1.7069 N   0  0  0  0  0  0  0  0  0  0  0  0
   -0.0410    0.3242   -2.7108 C   0  0  0  0  0  0  0  0  0  0  0  0
    1.3121    0.1261   -2.5164 C   0  0  0  0  0  0  0  0  0  0  0  0
    2.2935    0.3910   -3.5943 C   0  0  0  0  0  0  0  0  0  0  0  0
    3.2157    1.3672   -3.2030 F   0  0  0  0  0  0  0  0  0  0  0  0
    1.6745    0.8927   -4.7223 F   0  0  0  0  0  0  0  0  0  0  0  0
    2.9442   -0.7740   -3.9853 F   0  0  0  0  0  0  0  0  0  0  0  0
    4.5017    0.0722    0.6743 C   0  0  0  0  0  0  0  0  0  0  0  0
    5.3976    0.6576   -0.1830 C   0  0  0  0  0  0  0  0  0  0  0  0
    6.2529    1.6211    0.2750 C   0  0  0  0  0  0  0  0  0  0  0  0
    6.1962    1.9877    1.6033 C   0  0  0  0  0  0  0  0  0  0  0  0
    5.3219    1.4356    2.5001 C   0  0  0  0  0  0  0  0  0  0  0  0
    4.4696    0.4586    1.9901 C   0  0  0  0  0  0  0  0  0  0  0  0
    4.9137   -2.2503   -0.9956 H   0  0  0  0  0  0  0  0  0  0  0  0
    5.1855   -2.2414    0.7585 H   0  0  0  0  0  0  0  0  0  0  0  0
    3.8204   -3.1666    0.0981 H   0  0  0  0  0  0  0  0  0  0  0  0
    2.7927   -1.1644    0.9006 H   0  0  0  0  0  0  0  0  0  0  0  0
   -1.0577   -1.0298    1.4726 H   0  0  0  0  0  0  0  0  0  0  0  0
   -2.9741    1.0556   -1.0269 H   0  0  0  0  0  0  0  0  0  0  0  0
   -5.3690    1.1821   -1.0585 H   0  0  0  0  0  0  0  0  0  0  0  0
   -5.5657   -1.8032    1.9707 H   0  0  0  0  0  0  0  0  0  0  0  0
   -3.1212   -1.9791    2.0204 H   0  0  0  0  0  0  0  0  0  0  0  0
   -9.0097    1.2005    1.4847 H   0  0  0  0  0  0  0  0  0  0  0  0
   -7.3620    1.9461    1.4763 H   0  0  0  0  0  0  0  0  0  0  0  0
   -7.8058    0.5920    2.6533 H   0  0  0  0  0  0  0  0  0  0  0  0
   -0.3838    0.6851   -3.6871 H   0  0  0  0  0  0  0  0  0  0  0  0
    5.4286    0.3586   -1.2199 H   0  0  0  0  0  0  0  0  0  0  0  0
    6.9867    2.1117   -0.3919 H   0  0  0  0  0  0  0  0  0  0  0  0
    6.8941    2.7614    1.9378 H   0  0  0  0  0  0  0  0  0  0  0  0
    5.3119    1.7499    3.5220 H   0  0  0  0  0  0  0  0  0  0  0  0
    3.7603    0.0001    2.6845 H   0  0  0  0  0  0  0  0  0  0  0  0
  1  2  1  0
  2  3  1  0
  3  4  1  0
  4  5  2  0
  5  6  1  0
  6  7  1  0
  7  8  1  0
  8  9  2  0
  9 10  1  0
 10 11  2  0
 11 12  1  0
 12 13  2  0
 11 14  1  0
 14 15  1  0
 14 16  2  0
 14 17  2  0
  6 18  2  0
 18 19  1  0
 19 20  2  0
 20 21  1  0
 21 22  1  0
 21 23  1  0
 21 24  1  0
  2 25  1  0
 25 26  2  0
 26 27  1  0
 27 28  2  0
 28 29  1  0
 29 30  2  0
 20  4  1  0
 30 25  1  0
 13  8  1  0
  1 31  1  0
  1 32  1  0
  1 33  1  0
  2 34  1  1
  7 35  1  0
  9 36  1  0
 10 37  1  0
 12 38  1  0
 13 39  1  0
 15 40  1  0
 15 41  1  0
 15 42  1  0
 19 43  1  0
 26 44  1  0
 27 45  1  0
 28 46  1  0
 29 47  1  0
 30 48  1  0
M  END
$$$$
[H]c1nc2c([H])c([H])c([H])c([H])c2c(-c2c([H])nn3c([H])c(-c4c([H])c([H])c(F)c([H])c4[H])c([H])nc23)c1[H]
     RDKit          3D

 39 43  0  0  0  0  0  0  0  0999 V2000
    8.1101    0.0515   -0.4999 F   0  0  0  0  0  0  0  0  0  0  0  0
    6.7758    0.0353   -0.3207 C   0  0  0  0  0  0  0  0  0  0  0  0
    6.1367   -1.1260    0.0498 C   0  0  0  0  0  0  0  0  0  0  0  0
    4.7637   -1.1435    0.2336 C   0  0  0  0  0  0  0  0  0  0  0  0
    4.0284   -0.0076    0.0495 C   0  0  0  0  0  0  0  0  0  0  0  0
    4.6481    1.1564   -0.3191 C   0  0  0  0  0  0  0  0  0  0  0  0
    6.0136    1.1825   -0.5043 C   0  0  0  0  0  0  0  0  0  0  0  0
    2.5738   -0.0274    0.2459 C   0  0  0  0  0  0  0  0  0  0  0  0
    1.7889    0.8209   -0.5146 C   0  0  0  0  0  0  0  0  0  0  0  0
    0.4602    0.7760   -0.3092 N   0  0  0  0  0  0  0  0  0  0  0  0
   -0.1443   -0.0360    0.5836 C   0  0  0  0  0  0  0  0  0  0  0  0
   -1.4758   -0.2337    0.9462 C   0  0  0  0  0  0  0  0  0  0  0  0
   -1.4714   -1.1951    1.9174 C   0  0  0  0  0  0  0  0  0  0  0  0
   -0.1942   -1.5458    2.1154 N   0  0  0  0  0  0  0  0  0  0  0  0
    0.6113   -0.8604    1.3242 N   0  0  0  0  0  0  0  0  0  0  0  0
    1.9543   -0.8493    1.1497 C   0  0  0  0  0  0  0  0  0  0  0  0
   -2.5356    0.5481    0.3326 C   0  0  0  0  0  0  0  0  0  0  0  0
   -2.4219    1.9546    0.2940 C   0  0  0  0  0  0  0  0  0  0  0  0
   -3.4300    2.7102   -0.2583 C   0  0  0  0  0  0  0  0  0  0  0  0
   -4.5402    2.1598   -0.7735 N   0  0  0  0  0  0  0  0  0  0  0  0
   -4.6877    0.8228   -0.7579 C   0  0  0  0  0  0  0  0  0  0  0  0
   -5.8240    0.2257   -1.2929 C   0  0  0  0  0  0  0  0  0  0  0  0
   -6.0237   -1.1355   -1.3113 C   0  0  0  0  0  0  0  0  0  0  0  0
   -5.0385   -1.9288   -0.7689 C   0  0  0  0  0  0  0  0  0  0  0  0
   -3.8943   -1.3245   -0.2306 C   0  0  0  0  0  0  0  0  0  0  0  0
   -3.6929    0.0331   -0.2097 C   0  0  0  0  0  0  0  0  0  0  0  0
    6.7275   -2.0203    0.1934 H   0  0  0  0  0  0  0  0  0  0  0  0
    4.3120   -2.0888    0.5269 H   0  0  0  0  0  0  0  0  0  0  0  0
    4.1035    2.0706   -0.4717 H   0  0  0  0  0  0  0  0  0  0  0  0
    6.4782    2.1119   -0.7930 H   0  0  0  0  0  0  0  0  0  0  0  0
    2.2423    1.4904   -1.2449 H   0  0  0  0  0  0  0  0  0  0  0  0
   -2.3558   -1.5764    2.4132 H   0  0  0  0  0  0  0  0  0  0  0  0
    2.5677   -1.5159    1.7459 H   0  0  0  0  0  0  0  0  0  0  0  0
   -1.5221    2.3658    0.7116 H   0  0  0  0  0  0  0  0  0  0  0  0
   -3.2952    3.7893   -0.2637 H   0  0  0  0  0  0  0  0  0  0  0  0
   -6.5869    0.8647   -1.7158 H   0  0  0  0  0  0  0  0  0  0  0  0
   -6.9163   -1.5867   -1.7332 H   0  0  0  0  0  0  0  0  0  0  0  0
   -5.1243   -3.0069   -0.7466 H   0  0  0  0  0  0  0  0  0  0  0  0
   -3.1211   -1.9609    0.1811 H   0  0  0  0  0  0  0  0  0  0  0  0
  1  2  1  0
  2  3  2  0
  3  4  1  0
  4  5  2  0
  5  6  1  0
  6  7  2  0
  5  8  1  0
  8  9  1  0
  9 10  2  0
 10 11  1  0
 11 12  2  0
 12 13  1  0
 13 14  2  0
 14 15  1  0
 15 16  1  0
 12 17  1  0
 17 18  2  0
 18 19  1  0
 19 20  2  0
 20 21  1  0
 21 22  2  0
 22 23  1  0
 23 24  2  0
 24 25  1  0
 25 26  2  0
  7  2  1  0
 16  8  2  0
 26 17  1  0
 15 11  1  0
 26 21  1  0
  3 27  1  0
  4 28  1  0
  6 29  1  0
  7 30  1  0
  9 31  1  0
 13 32  1  0
 16 33  1  0
 18 34  1  0
 19 35  1  0
 22 36  1  0
 23 37  1  0
 24 38  1  0
 25 39  1  0
M  END
$$$$
[H]c1nc([H])c(-c2c([H])c([H])c(C([H])([H])N3C([H])([H])C([H])([H])N(C([H])([H])[H])C([H])([H])C3([H])[H])c([H])c2[H])c(N([H])c2c([H])c([H])c3c(c([H])c([H])n3[H])c2C([H])([H])[H])c1C#N
     RDKit          3D

 61 65  0  0  0  0  0  0  0  0999 V2000
   -7.3774    1.0820    0.8095 C   0  0  0  0  0  0  0  0  0  0  0  0
   -6.1679    0.5880    0.2408 N   0  0  0  0  0  0  0  0  0  0  0  0
   -4.9965    1.3460    0.4931 C   0  0  0  0  0  0  0  0  0  0  0  0
   -4.0440    0.7543    1.4941 C   0  0  0  0  0  0  0  0  0  0  0  0
   -3.9606   -0.6374    1.5178 N   0  0  0  0  0  0  0  0  0  0  0  0
   -2.7096   -1.2712    1.6693 C   0  0  0  0  0  0  0  0  0  0  0  0
   -1.7414   -0.9503    0.5897 C   0  0  0  0  0  0  0  0  0  0  0  0
   -0.7946    0.0065    0.7676 C   0  0  0  0  0  0  0  0  0  0  0  0
    0.1110    0.3070   -0.2388 C   0  0  0  0  0  0  0  0  0  0  0  0
    0.1212   -0.3162   -1.4469 C   0  0  0  0  0  0  0  0  0  0  0  0
   -0.8609   -1.3048   -1.6258 C   0  0  0  0  0  0  0  0  0  0  0  0
   -1.7664   -1.6121   -0.6334 C   0  0  0  0  0  0  0  0  0  0  0  0
    1.0248   -0.1077   -2.5490 C   0  0  0  0  0  0  0  0  0  0  0  0
    0.5364    0.2993   -3.8072 C   0  0  0  0  0  0  0  0  0  0  0  0
    1.3108    0.5059   -4.8647 N   0  0  0  0  0  0  0  0  0  0  0  0
    2.6472    0.3321   -4.7899 C   0  0  0  0  0  0  0  0  0  0  0  0
    3.2030   -0.0642   -3.5976 C   0  0  0  0  0  0  0  0  0  0  0  0
    4.6308   -0.2590   -3.4850 C   0  0  0  0  0  0  0  0  0  0  0  0
    5.7856   -0.4039   -3.4023 N   0  0  0  0  0  0  0  0  0  0  0  0
    2.3764   -0.2824   -2.4768 C   0  0  0  0  0  0  0  0  0  0  0  0
    3.0302   -0.6818   -1.2935 N   0  0  0  0  0  0  0  0  0  0  0  0
    3.7129    0.2192   -0.4185 C   0  0  0  0  0  0  0  0  0  0  0  0
    3.8248    1.5568   -0.6861 C   0  0  0  0  0  0  0  0  0  0  0  0
    4.4980    2.3738    0.1811 C   0  0  0  0  0  0  0  0  0  0  0  0
    5.0907    1.9210    1.3461 C   0  0  0  0  0  0  0  0  0  0  0  0
    5.7902    2.4935    2.3421 N   0  0  0  0  0  0  0  0  0  0  0  0
    6.1299    1.5560    3.2421 C   0  0  0  0  0  0  0  0  0  0  0  0
    5.6254    0.3532    2.7942 C   0  0  0  0  0  0  0  0  0  0  0  0
    4.9612    0.5684    1.5888 C   0  0  0  0  0  0  0  0  0  0  0  0
    4.2903   -0.2750    0.7344 C   0  0  0  0  0  0  0  0  0  0  0  0
    4.1812   -1.7295    1.0457 C   0  0  0  0  0  0  0  0  0  0  0  0
   -5.0762   -1.4150    1.1656 C   0  0  0  0  0  0  0  0  0  0  0  0
   -6.0278   -0.8230    0.1902 C   0  0  0  0  0  0  0  0  0  0  0  0
   -8.1786    0.9771    0.0207 H   0  0  0  0  0  0  0  0  0  0  0  0
   -7.2530    2.1654    1.0284 H   0  0  0  0  0  0  0  0  0  0  0  0
   -7.6527    0.4849    1.6775 H   0  0  0  0  0  0  0  0  0  0  0  0
   -4.4757    1.5199   -0.4780 H   0  0  0  0  0  0  0  0  0  0  0  0
   -5.3238    2.3765    0.8219 H   0  0  0  0  0  0  0  0  0  0  0  0
   -4.4107    1.1063    2.5052 H   0  0  0  0  0  0  0  0  0  0  0  0
   -3.0598    1.2502    1.3812 H   0  0  0  0  0  0  0  0  0  0  0  0
   -2.2443   -1.1508    2.6706 H   0  0  0  0  0  0  0  0  0  0  0  0
   -2.8859   -2.3840    1.5786 H   0  0  0  0  0  0  0  0  0  0  0  0
   -0.7603    0.5311    1.7117 H   0  0  0  0  0  0  0  0  0  0  0  0
    0.8233    1.0904   -0.0437 H   0  0  0  0  0  0  0  0  0  0  0  0
   -0.9147   -1.8416   -2.5600 H   0  0  0  0  0  0  0  0  0  0  0  0
   -2.5296   -2.3699   -0.7516 H   0  0  0  0  0  0  0  0  0  0  0  0
   -0.5424    0.4370   -3.8580 H   0  0  0  0  0  0  0  0  0  0  0  0
    3.3027    0.4929   -5.6347 H   0  0  0  0  0  0  0  0  0  0  0  0
    3.0294   -1.6998   -1.0169 H   0  0  0  0  0  0  0  0  0  0  0  0
    3.3920    1.9883   -1.5715 H   0  0  0  0  0  0  0  0  0  0  0  0
    4.6098    3.4547    0.0016 H   0  0  0  0  0  0  0  0  0  0  0  0
    6.0139    3.5282    2.3690 H   0  0  0  0  0  0  0  0  0  0  0  0
    6.6963    1.7614    4.1369 H   0  0  0  0  0  0  0  0  0  0  0  0
    5.7041   -0.6165    3.2602 H   0  0  0  0  0  0  0  0  0  0  0  0
    4.7774   -1.9187    1.9600 H   0  0  0  0  0  0  0  0  0  0  0  0
    3.1375   -2.0228    1.2857 H   0  0  0  0  0  0  0  0  0  0  0  0
    4.6104   -2.3449    0.2263 H   0  0  0  0  0  0  0  0  0  0  0  0
   -4.7521   -2.4201    0.7659 H   0  0  0  0  0  0  0  0  0  0  0  0
   -5.6356   -1.6775    2.1114 H   0  0  0  0  0  0  0  0  0  0  0  0
   -5.7898   -1.1391   -0.8679 H   0  0  0  0  0  0  0  0  0  0  0  0
   -7.0467   -1.2757    0.3731 H   0  0  0  0  0  0  0  0  0  0  0  0
  1  2  1  0
  2  3  1  0
  3  4  1  0
  4  5  1  0
  5  6  1  0
  6  7  1  0
  7  8  2  0
  8  9  1  0
  9 10  2  0
 10 11  1  0
 11 12  2  0
 10 13  1  0
 13 14  2  0
 14 15  1  0
 15 16  2  0
 16 17  1  0
 17 18  1  0
 18 19  3  0
 17 20  2  0
 20 21  1  0
 21 22  1  0
 22 23  2  0
 23 24  1  0
 24 25  2  0
 25 26  1  0
 26 27  1  0
 27 28  2  0
 28 29  1  0
 29 30  2  0
 30 31  1  0
  5 32  1  0
 32 33  1  0
 33  2  1  0
 12  7  1  0
 20 13  1  0
 30 22  1  0
 29 25  1  0
  1 34  1  0
  1 35  1  0
  1 36  1  0
  3 37  1  0
  3 38  1  0
  4 39  1  0
  4 40  1  0
  6 41  1  0
  6 42  1  0
  8 43  1  0
  9 44  1  0
 11 45  1  0
 12 46  1  0
 14 47  1  0
 16 48  1  0
 21 49  1  0
 23 50  1  0
 24 51  1  0
 26 52  1  0
 27 53  1  0
 28 54  1  0
 31 55  1  0
 31 56  1  0
 31 57  1  0
 32 58  1  0
 32 59  1  0
 33 60  1  0
 33 61  1  0
M  END
$$$$
[H]c1c([H])c([H])c(N2C([H])([H])C([H])([H])N(C([H])([H])C([H])([H])n3c(=O)c4sc5c([H])c([H])c([H])c([H])c5c4n([H])c3=O)C([H])([H])C2([H])[H])c(OC([H])([H])[H])c1[H]
     RDKit          3D

 55 59  0  0  0  0  0  0  0  0999 V2000
   -6.0740   -2.8309   -0.3147 C   0  0  0  0  0  0  0  0  0  0  0  0
   -5.3798   -1.6215   -0.2374 O   0  0  0  0  0  0  0  0  0  0  0  0
   -5.9135   -0.3778   -0.0775 C   0  0  0  0  0  0  0  0  0  0  0  0
   -7.3005   -0.2045    0.0283 C   0  0  0  0  0  0  0  0  0  0  0  0
   -7.8149    1.0628    0.1869 C   0  0  0  0  0  0  0  0  0  0  0  0
   -6.9945    2.1622    0.2439 C   0  0  0  0  0  0  0  0  0  0  0  0
   -5.6063    1.9993    0.1396 C   0  0  0  0  0  0  0  0  0  0  0  0
   -5.1014    0.7298   -0.0188 C   0  0  0  0  0  0  0  0  0  0  0  0
   -3.6694    0.5619   -0.0942 N   0  0  0  0  0  0  0  0  0  0  0  0
   -2.8589    1.6008   -0.6819 C   0  0  0  0  0  0  0  0  0  0  0  0
   -1.4334    1.6386   -0.1491 C   0  0  0  0  0  0  0  0  0  0  0  0
   -0.9736    0.2888   -0.1185 N   0  0  0  0  0  0  0  0  0  0  0  0
    0.4219    0.0877    0.0553 C   0  0  0  0  0  0  0  0  0  0  0  0
    1.2441    0.5344   -1.1319 C   0  0  0  0  0  0  0  0  0  0  0  0
    2.6336    0.2816   -0.8534 N   0  0  0  0  0  0  0  0  0  0  0  0
    3.2235   -0.8967   -1.1744 C   0  0  0  0  0  0  0  0  0  0  0  0
    2.4560   -1.7440   -1.7272 O   0  0  0  0  0  0  0  0  0  0  0  0
    4.4843   -1.1995   -0.9571 N   0  0  0  0  0  0  0  0  0  0  0  0
    5.3575   -0.3135   -0.3597 C   0  0  0  0  0  0  0  0  0  0  0  0
    6.6783   -0.4798   -0.0713 C   0  0  0  0  0  0  0  0  0  0  0  0
    7.4972   -1.6150   -0.3134 C   0  0  0  0  0  0  0  0  0  0  0  0
    8.8002   -1.6273    0.0325 C   0  0  0  0  0  0  0  0  0  0  0  0
    9.4459   -0.5759    0.6349 C   0  0  0  0  0  0  0  0  0  0  0  0
    8.6736    0.5380    0.8811 C   0  0  0  0  0  0  0  0  0  0  0  0
    7.3121    0.5708    0.5278 C   0  0  0  0  0  0  0  0  0  0  0  0
    6.0818    1.7446    0.6748 S   0  0  0  0  0  0  0  0  0  0  0  0
    4.7951    0.8829   -0.0236 C   0  0  0  0  0  0  0  0  0  0  0  0
    3.4462    1.1770   -0.2682 C   0  0  0  0  0  0  0  0  0  0  0  0
    3.0115    2.2992    0.0724 O   0  0  0  0  0  0  0  0  0  0  0  0
   -1.6902   -0.3659    0.9555 C   0  0  0  0  0  0  0  0  0  0  0  0
   -3.0893   -0.6522    0.4445 C   0  0  0  0  0  0  0  0  0  0  0  0
   -5.4725   -3.4961   -1.0016 H   0  0  0  0  0  0  0  0  0  0  0  0
   -7.0875   -2.7568   -0.7199 H   0  0  0  0  0  0  0  0  0  0  0  0
   -6.1128   -3.2950    0.6764 H   0  0  0  0  0  0  0  0  0  0  0  0
   -7.9760   -1.0391   -0.0119 H   0  0  0  0  0  0  0  0  0  0  0  0
   -8.8965    1.1524    0.2639 H   0  0  0  0  0  0  0  0  0  0  0  0
   -7.4087    3.1474    0.3680 H   0  0  0  0  0  0  0  0  0  0  0  0
   -5.0088    2.8900    0.1990 H   0  0  0  0  0  0  0  0  0  0  0  0
   -3.3227    2.5932   -0.6643 H   0  0  0  0  0  0  0  0  0  0  0  0
   -2.7381    1.2742   -1.7693 H   0  0  0  0  0  0  0  0  0  0  0  0
   -1.4256    2.0164    0.9115 H   0  0  0  0  0  0  0  0  0  0  0  0
   -0.8670    2.2977   -0.8333 H   0  0  0  0  0  0  0  0  0  0  0  0
    0.5863   -1.0153    0.1507 H   0  0  0  0  0  0  0  0  0  0  0  0
    0.7994    0.5530    0.9697 H   0  0  0  0  0  0  0  0  0  0  0  0
    1.0731    1.6435   -1.2166 H   0  0  0  0  0  0  0  0  0  0  0  0
    0.9752    0.0045   -2.0518 H   0  0  0  0  0  0  0  0  0  0  0  0
    4.8168   -2.1387   -1.2501 H   0  0  0  0  0  0  0  0  0  0  0  0
    7.0911   -2.5076   -0.7854 H   0  0  0  0  0  0  0  0  0  0  0  0
    9.4027   -2.5089   -0.1642 H   0  0  0  0  0  0  0  0  0  0  0  0
   10.4692   -0.5516    0.9198 H   0  0  0  0  0  0  0  0  0  0  0  0
    9.0711    1.4129    1.3445 H   0  0  0  0  0  0  0  0  0  0  0  0
   -1.2000   -1.2991    1.2750 H   0  0  0  0  0  0  0  0  0  0  0  0
   -1.7533    0.3831    1.7920 H   0  0  0  0  0  0  0  0  0  0  0  0
   -3.7084   -0.9678    1.3350 H   0  0  0  0  0  0  0  0  0  0  0  0
   -2.9706   -1.4485   -0.3093 H   0  0  0  0  0  0  0  0  0  0  0  0
  1  2  1  0
  2  3  1  0
  3  4  2  0
  4  5  1  0
  5  6  2  0
  6  7  1  0
  7  8  2  0
  8  9  1  0
  9 10  1  0
 10 11  1  0
 11 12  1  0
 12 13  1  0
 13 14  1  0
 14 15  1  0
 15 16  1  0
 16 17  2  0
 16 18  1  0
 18 19  1  0
 19 20  1  0
 20 21  2  0
 21 22  1  0
 22 23  2  0
 23 24  1  0
 24 25  2  0
 25 26  1  0
 26 27  1  0
 27 28  1  0
 28 29  2  0
 12 30  1  0
 30 31  1  0
  8  3  1  0
 31  9  1  0
 28 15  1  0
 27 19  2  0
 25 20  1  0
  1 32  1  0
  1 33  1  0
  1 34  1  0
  4 35  1  0
  5 36  1  0
  6 37  1  0
  7 38  1  0
 10 39  1  0
 10 40  1  0
 11 41  1  0
 11 42  1  0
 13 43  1  0
 13 44  1  0
 14 45  1  0
 14 46  1  0
 18 47  1  0
 21 48  1  0
 22 49  1  0
 23 50  1  0
 24 51  1  0
 30 52  1  0
 30 53  1  0
 31 54  1  0
 31 55  1  0
M  END
$$$$
[H]OC(=O)C([H])([H])[C@@]([H])(C(=O)C([H])([H])N([H])C([H])([H])N(C([H])([H])[H])C([H])([H])C([H])([H])C([H])([H])C([H])([H])[H])N([H])C(=O)C([H])(n1c([H])c(C(C([H])([H])[H])(C([H])([H])[H])C([H])([H])[H])nc(N([H])C([H])([H])c2nonc2C([H])([H])[H])c1=O)C([H])([H])C([H])([H])[H]
     RDKit          3D

 85 86  0  0  0  0  0  0  0  0999 V2000
    9.6019    2.9718    0.0166 C   0  0  0  0  0  0  0  0  0  0  0  0
    8.5344    1.9646   -0.3728 C   0  0  0  0  0  0  0  0  0  0  0  0
    8.4539    0.9118    0.7067 C   0  0  0  0  0  0  0  0  0  0  0  0
    7.3634   -0.0535    0.4909 C   0  0  0  0  0  0  0  0  0  0  0  0
    7.2785   -0.9042   -0.6059 N   0  0  0  0  0  0  0  0  0  0  0  0
    8.1070   -1.9899   -0.8393 C   0  0  0  0  0  0  0  0  0  0  0  0
    5.9412   -0.9116   -1.1876 C   0  0  0  0  0  0  0  0  0  0  0  0
    5.0647   -1.3068   -0.0696 N   0  0  0  0  0  0  0  0  0  0  0  0
    3.7123   -1.0704   -0.3745 C   0  0  0  0  0  0  0  0  0  0  0  0
    2.7373   -1.6118    0.6311 C   0  0  0  0  0  0  0  0  0  0  0  0
    2.7939   -2.7263    1.0332 O   0  0  0  0  0  0  0  0  0  0  0  0
    1.6577   -0.6688    1.1002 C   0  0  2  0  0  0  0  0  0  0  0  0
    1.0875   -1.1933    2.3797 C   0  0  0  0  0  0  0  0  0  0  0  0
    0.4058   -2.4858    2.3215 C   0  0  0  0  0  0  0  0  0  0  0  0
    0.0293   -3.0627    1.1388 O   0  0  0  0  0  0  0  0  0  0  0  0
    0.1314   -3.1267    3.3786 O   0  0  0  0  0  0  0  0  0  0  0  0
    0.6716   -0.7214    0.0138 N   0  0  0  0  0  0  0  0  0  0  0  0
   -0.1319    0.3501   -0.4002 C   0  0  0  0  0  0  0  0  0  0  0  0
    0.0570    1.4203    0.3366 O   0  0  0  0  0  0  0  0  0  0  0  0
   -1.0679    0.3405   -1.5108 C   0  0  0  0  0  0  0  0  0  0  0  0
   -0.5485   -0.2538   -2.7269 C   0  0  0  0  0  0  0  0  0  0  0  0
   -0.1049   -1.6406   -2.8849 C   0  0  0  0  0  0  0  0  0  0  0  0
   -2.4466    0.3455   -1.1655 N   0  0  0  0  0  0  0  0  0  0  0  0
   -2.8502    1.4107   -0.4357 C   0  0  0  0  0  0  0  0  0  0  0  0
   -4.1638    1.5826   -0.0401 C   0  0  0  0  0  0  0  0  0  0  0  0
   -5.0494    0.6517   -0.4058 N   0  0  0  0  0  0  0  0  0  0  0  0
   -4.6862   -0.4220   -1.1321 C   0  0  0  0  0  0  0  0  0  0  0  0
   -5.5989   -1.4211   -1.5305 N   0  0  0  0  0  0  0  0  0  0  0  0
   -6.9880   -1.3486   -1.1504 C   0  0  0  0  0  0  0  0  0  0  0  0
   -7.2363   -1.4268    0.3103 C   0  0  0  0  0  0  0  0  0  0  0  0
   -6.3372   -1.5292    1.3172 N   0  0  0  0  0  0  0  0  0  0  0  0
   -6.9464   -1.5665    2.4615 O   0  0  0  0  0  0  0  0  0  0  0  0
   -8.2373   -1.4939    2.2757 N   0  0  0  0  0  0  0  0  0  0  0  0
   -8.4543   -1.4035    0.9378 C   0  0  0  0  0  0  0  0  0  0  0  0
   -9.7889   -1.3195    0.2596 C   0  0  0  0  0  0  0  0  0  0  0  0
   -3.3519   -0.5567   -1.5067 C   0  0  0  0  0  0  0  0  0  0  0  0
   -3.0595   -1.5520   -2.1716 O   0  0  0  0  0  0  0  0  0  0  0  0
   -4.6522    2.7065    0.7507 C   0  0  0  0  0  0  0  0  0  0  0  0
   -5.8041    3.4234    0.0984 C   0  0  0  0  0  0  0  0  0  0  0  0
   -3.6003    3.7307    1.1111 C   0  0  0  0  0  0  0  0  0  0  0  0
   -5.1608    2.1011    2.0590 C   0  0  0  0  0  0  0  0  0  0  0  0
   10.5874    2.5191   -0.0960 H   0  0  0  0  0  0  0  0  0  0  0  0
    9.3820    3.2100    1.1015 H   0  0  0  0  0  0  0  0  0  0  0  0
    9.4483    3.9137   -0.5588 H   0  0  0  0  0  0  0  0  0  0  0  0
    8.8225    1.4738   -1.3389 H   0  0  0  0  0  0  0  0  0  0  0  0
    7.5926    2.5068   -0.5020 H   0  0  0  0  0  0  0  0  0  0  0  0
    8.3266    1.4422    1.6691 H   0  0  0  0  0  0  0  0  0  0  0  0
    9.4712    0.4480    0.7774 H   0  0  0  0  0  0  0  0  0  0  0  0
    7.1725   -0.6537    1.4334 H   0  0  0  0  0  0  0  0  0  0  0  0
    6.3958    0.5936    0.4632 H   0  0  0  0  0  0  0  0  0  0  0  0
    8.2696   -2.5731    0.1012 H   0  0  0  0  0  0  0  0  0  0  0  0
    9.0441   -1.8467   -1.4300 H   0  0  0  0  0  0  0  0  0  0  0  0
    7.5226   -2.7417   -1.4778 H   0  0  0  0  0  0  0  0  0  0  0  0
    5.8846   -1.6644   -1.9834 H   0  0  0  0  0  0  0  0  0  0  0  0
    5.6737    0.0552   -1.6115 H   0  0  0  0  0  0  0  0  0  0  0  0
    5.2975   -2.2110    0.3103 H   0  0  0  0  0  0  0  0  0  0  0  0
    3.4673   -1.6067   -1.3697 H   0  0  0  0  0  0  0  0  0  0  0  0
    3.4781   -0.0109   -0.5622 H   0  0  0  0  0  0  0  0  0  0  0  0
    2.0150    0.3541    1.1824 H   0  0  0  0  0  0  0  0  0  0  0  0
    2.0281   -1.4166    3.0151 H   0  0  0  0  0  0  0  0  0  0  0  0
    0.4757   -0.4844    2.9324 H   0  0  0  0  0  0  0  0  0  0  0  0
    0.1982   -3.9945    0.8483 H   0  0  0  0  0  0  0  0  0  0  0  0
    0.6243   -1.6221   -0.4749 H   0  0  0  0  0  0  0  0  0  0  0  0
   -0.9596    1.5349   -1.8408 H   0  0  0  0  0  0  0  0  0  0  0  0
   -1.0690    0.1467   -3.6816 H   0  0  0  0  0  0  0  0  0  0  0  0
    0.4568    0.3373   -2.8928 H   0  0  0  0  0  0  0  0  0  0  0  0
   -0.4013   -1.9457   -3.9680 H   0  0  0  0  0  0  0  0  0  0  0  0
   -0.4475   -2.4166   -2.2077 H   0  0  0  0  0  0  0  0  0  0  0  0
    1.0198   -1.7940   -2.9433 H   0  0  0  0  0  0  0  0  0  0  0  0
   -2.1742    2.2105   -0.1061 H   0  0  0  0  0  0  0  0  0  0  0  0
   -5.2955   -2.2267   -2.1053 H   0  0  0  0  0  0  0  0  0  0  0  0
   -7.3713   -0.3489   -1.4839 H   0  0  0  0  0  0  0  0  0  0  0  0
   -7.6003   -2.1222   -1.6951 H   0  0  0  0  0  0  0  0  0  0  0  0
   -9.6284   -1.0857   -0.8063 H   0  0  0  0  0  0  0  0  0  0  0  0
  -10.3174   -2.2929    0.3964 H   0  0  0  0  0  0  0  0  0  0  0  0
  -10.3266   -0.4844    0.7225 H   0  0  0  0  0  0  0  0  0  0  0  0
   -6.6199    2.6901   -0.1159 H   0  0  0  0  0  0  0  0  0  0  0  0
   -5.5138    3.8632   -0.8801 H   0  0  0  0  0  0  0  0  0  0  0  0
   -6.1816    4.2293    0.7715 H   0  0  0  0  0  0  0  0  0  0  0  0
   -3.0917    4.1720    0.2455 H   0  0  0  0  0  0  0  0  0  0  0  0
   -4.1510    4.5885    1.5842 H   0  0  0  0  0  0  0  0  0  0  0  0
   -2.9153    3.3817    1.9198 H   0  0  0  0  0  0  0  0  0  0  0  0
   -6.1677    1.6589    1.7937 H   0  0  0  0  0  0  0  0  0  0  0  0
   -5.2774    2.8195    2.8639 H   0  0  0  0  0  0  0  0  0  0  0  0
   -4.5083    1.2497    2.2975 H   0  0  0  0  0  0  0  0  0  0  0  0
  1  2  1  0
  2  3  1  0
  3  4  1  0
  4  5  1  0
  5  6  1  0
  5  7  1  0
  7  8  1  0
  8  9  1  0
  9 10  1  0
 10 11  2  0
 10 12  1  0
 12 13  1  0
 13 14  1  0
 14 15  1  0
 14 16  2  0
 12 17  1  0
 17 18  1  0
 18 19  2  0
 18 20  1  0
 20 21  1  0
 21 22  1  0
 20 23  1  0
 23 24  1  0
 24 25  2  0
 25 26  1  0
 26 27  2  0
 27 28  1  0
 28 29  1  0
 29 30  1  0
 30 31  2  0
 31 32  1  0
 32 33  1  0
 33 34  2  0
 34 35  1  0
 27 36  1  0
 36 37  2  0
 25 38  1  0
 38 39  1  0
 38 40  1  0
 38 41  1  0
 36 23  1  0
 34 30  1  0
  1 42  1  0
  1 43  1  0
  1 44  1  0
  2 45  1  0
  2 46  1  0
  3 47  1  0
  3 48  1  0
  4 49  1  0
  4 50  1  0
  6 51  1  0
  6 52  1  0
  6 53  1  0
  7 54  1  0
  7 55  1  0
  8 56  1  0
  9 57  1  0
  9 58  1  0
 12 59  1  1
 13 60  1  0
 13 61  1  0
 15 62  1  0
 17 63  1  0
 20 64  1  0
 21 65  1  0
 21 66  1  0
 22 67  1  0
 22 68  1  0
 22 69  1  0
 24 70  1  0
 28 71  1  0
 29 72  1  0
 29 73  1  0
 35 74  1  0
 35 75  1  0
 35 76  1  0
 39 77  1  0
 39 78  1  0
 39 79  1  0
 40 80  1  0
 40 81  1  0
 40 82  1  0
 41 83  1  0
 41 84  1  0
 41 85  1  0
M  END
$$$$
[H]OC(=O)c1c([H])c([H])c(N2C([H])([H])C([H])([H])N(C(=O)/C([H])=C(\[H])c3c([H])c([H])c(-c4c([H])c([H])c([H])c(C(=O)O[H])c4[H])c([H])c3[H])C([H])([H])C2([H])[H])c([H])c1[H]
     RDKit          3D

 58 61  0  0  0  0  0  0  0  0999 V2000
   -8.1687    2.0453    2.8781 O   0  0  0  0  0  0  0  0  0  0  0  0
   -8.9881    1.6802    1.8322 C   0  0  0  0  0  0  0  0  0  0  0  0
  -10.2022    1.9742    1.8877 O   0  0  0  0  0  0  0  0  0  0  0  0
   -8.4674    0.9692    0.6843 C   0  0  0  0  0  0  0  0  0  0  0  0
   -9.2301    0.5825   -0.3831 C   0  0  0  0  0  0  0  0  0  0  0  0
   -8.6847   -0.0988   -1.4632 C   0  0  0  0  0  0  0  0  0  0  0  0
   -7.3261   -0.4160   -1.4980 C   0  0  0  0  0  0  0  0  0  0  0  0
   -6.5847   -0.0168   -0.4156 C   0  0  0  0  0  0  0  0  0  0  0  0
   -7.1229    0.6562    0.6515 C   0  0  0  0  0  0  0  0  0  0  0  0
   -5.1358   -0.3192   -0.3838 C   0  0  0  0  0  0  0  0  0  0  0  0
   -4.6334   -1.4401   -0.9719 C   0  0  0  0  0  0  0  0  0  0  0  0
   -3.2589   -1.6861   -0.9168 C   0  0  0  0  0  0  0  0  0  0  0  0
   -2.3708   -0.8573   -0.2986 C   0  0  0  0  0  0  0  0  0  0  0  0
   -0.9359   -1.0956   -0.2302 C   0  0  0  0  0  0  0  0  0  0  0  0
   -0.3455   -2.1256   -0.7533 C   0  0  0  0  0  0  0  0  0  0  0  0
    1.0486   -2.4933   -0.7668 C   0  0  0  0  0  0  0  0  0  0  0  0
    1.2834   -3.6186   -1.4057 O   0  0  0  0  0  0  0  0  0  0  0  0
    2.1561   -1.8707   -0.2302 N   0  0  0  0  0  0  0  0  0  0  0  0
    2.1894   -0.6643    0.5123 C   0  0  0  0  0  0  0  0  0  0  0  0
    3.6218   -0.3391    0.9479 C   0  0  0  0  0  0  0  0  0  0  0  0
    4.5652   -0.4383   -0.1262 N   0  0  0  0  0  0  0  0  0  0  0  0
    4.3069   -1.4461   -1.1396 C   0  0  0  0  0  0  0  0  0  0  0  0
    3.4770   -2.5434   -0.4625 C   0  0  0  0  0  0  0  0  0  0  0  0
    5.6928    0.3990   -0.1800 C   0  0  0  0  0  0  0  0  0  0  0  0
    6.0954    1.2234    0.8356 C   0  0  0  0  0  0  0  0  0  0  0  0
    7.2235    2.0464    0.7341 C   0  0  0  0  0  0  0  0  0  0  0  0
    7.9588    2.0327   -0.4223 C   0  0  0  0  0  0  0  0  0  0  0  0
    7.5665    1.2110   -1.4479 C   0  0  0  0  0  0  0  0  0  0  0  0
    6.4512    0.3929   -1.3566 C   0  0  0  0  0  0  0  0  0  0  0  0
    9.1298    2.8968   -0.5037 C   0  0  0  0  0  0  0  0  0  0  0  0
    9.5300    3.7169    0.5261 O   0  0  0  0  0  0  0  0  0  0  0  0
    9.8112    2.8992   -1.5586 O   0  0  0  0  0  0  0  0  0  0  0  0
   -2.9144    0.2884    0.2982 C   0  0  0  0  0  0  0  0  0  0  0  0
   -4.2620    0.5362    0.2481 C   0  0  0  0  0  0  0  0  0  0  0  0
   -8.3002    2.8895    3.4346 H   0  0  0  0  0  0  0  0  0  0  0  0
  -10.2895    0.8284   -0.3588 H   0  0  0  0  0  0  0  0  0  0  0  0
   -9.3260   -0.3893   -2.2941 H   0  0  0  0  0  0  0  0  0  0  0  0
   -6.9042   -0.9492   -2.3455 H   0  0  0  0  0  0  0  0  0  0  0  0
   -6.4891    0.9550    1.4955 H   0  0  0  0  0  0  0  0  0  0  0  0
   -5.3041   -2.1206   -1.4708 H   0  0  0  0  0  0  0  0  0  0  0  0
   -2.9376   -2.6146   -1.4180 H   0  0  0  0  0  0  0  0  0  0  0  0
   -0.3459   -0.3677    0.2831 H   0  0  0  0  0  0  0  0  0  0  0  0
   -1.0527   -2.8370   -1.2776 H   0  0  0  0  0  0  0  0  0  0  0  0
    1.8525    0.1959   -0.0902 H   0  0  0  0  0  0  0  0  0  0  0  0
    1.5821   -0.6766    1.4571 H   0  0  0  0  0  0  0  0  0  0  0  0
    3.6543    0.6474    1.4553 H   0  0  0  0  0  0  0  0  0  0  0  0
    3.8799   -1.0980    1.7144 H   0  0  0  0  0  0  0  0  0  0  0  0
    5.2042   -1.9384   -1.5179 H   0  0  0  0  0  0  0  0  0  0  0  0
    3.6781   -0.9816   -1.9251 H   0  0  0  0  0  0  0  0  0  0  0  0
    3.3309   -3.4097   -1.0971 H   0  0  0  0  0  0  0  0  0  0  0  0
    3.8943   -2.7899    0.5137 H   0  0  0  0  0  0  0  0  0  0  0  0
    5.5319    1.2449    1.7538 H   0  0  0  0  0  0  0  0  0  0  0  0
    7.4496    2.6534    1.5892 H   0  0  0  0  0  0  0  0  0  0  0  0
    8.1308    1.1875   -2.3616 H   0  0  0  0  0  0  0  0  0  0  0  0
    6.1429   -0.2538   -2.1662 H   0  0  0  0  0  0  0  0  0  0  0  0
   10.0218    3.3513    1.3485 H   0  0  0  0  0  0  0  0  0  0  0  0
   -2.2295    0.9640    0.7970 H   0  0  0  0  0  0  0  0  0  0  0  0
   -4.6500    1.4280    0.7178 H   0  0  0  0  0  0  0  0  0  0  0  0
  1  2  1  0
  2  3  2  0
  2  4  1  0
  4  5  2  0
  5  6  1  0
  6  7  2  0
  7  8  1  0
  8  9  2  0
  8 10  1  0
 10 11  2  0
 11 12  1  0
 12 13  2  0
 13 14  1  0
 14 15  2  0
 15 16  1  0
 16 17  2  0
 16 18  1  0
 18 19  1  0
 19 20  1  0
 20 21  1  0
 21 22  1  0
 22 23  1  0
 21 24  1  0
 24 25  2  0
 25 26  1  0
 26 27  2  0
 27 28  1  0
 28 29  2  0
 27 30  1  0
 30 31  1  0
 30 32  2  0
 13 33  1  0
 33 34  2  0
  9  4  1  0
 34 10  1  0
 23 18  1  0
 29 24  1  0
  1 35  1  0
  5 36  1  0
  6 37  1  0
  7 38  1  0
  9 39  1  0
 11 40  1  0
 12 41  1  0
 14 42  1  0
 15 43  1  0
 19 44  1  0
 19 45  1  0
 20 46  1  0
 20 47  1  0
 22 48  1  0
 22 49  1  0
 23 50  1  0
 23 51  1  0
 25 52  1  0
 26 53  1  0
 28 54  1  0
 29 55  1  0
 31 56  1  0
 33 57  1  0
 34 58  1  0
M  END
$$$$
[H]OC(=O)C([H])([H])[C@@]([H])(C([H])=O)N([H])C(=O)[C@@]1([H])N2C(=O)[C@@]([H])(N([H])C(=O)c3c([H])c([H])c([H])c([H])c3[H])C([H])([H])C(=O)N2C([H])([H])C([H])([H])C1([H])[H]
     RDKit          3D

 53 55  0  0  0  0  0  0  0  0999 V2000
    6.1144    2.9412    3.1909 O   0  0  0  0  0  0  0  0  0  0  0  0
    5.7388    1.9755    2.2392 C   0  0  0  0  0  0  0  0  0  0  0  0
    5.9589    0.7900    2.5836 O   0  0  0  0  0  0  0  0  0  0  0  0
    5.1423    2.3543    0.9614 C   0  0  0  0  0  0  0  0  0  0  0  0
    4.7355    1.1927    0.0910 C   0  0  2  0  0  0  0  0  0  0  0  0
    3.7427    0.3362    0.6925 N   0  0  0  0  0  0  0  0  0  0  0  0
    2.4943    0.0636    0.0496 C   0  0  0  0  0  0  0  0  0  0  0  0
    2.2403    0.5744   -1.0651 O   0  0  0  0  0  0  0  0  0  0  0  0
    1.5355   -0.8196    0.7280 C   0  0  2  0  0  0  0  0  0  0  0  0
    2.1785   -2.1494    1.0550 C   0  0  0  0  0  0  0  0  0  0  0  0
    2.3242   -3.0800   -0.0913 C   0  0  0  0  0  0  0  0  0  0  0  0
    1.5528   -2.7492   -1.3229 C   0  0  0  0  0  0  0  0  0  0  0  0
    0.3371   -2.0393   -1.0175 N   0  0  0  0  0  0  0  0  0  0  0  0
    0.3269   -1.0729   -0.0010 N   0  0  0  0  0  0  0  0  0  0  0  0
   -0.8937   -0.4094    0.2407 C   0  0  0  0  0  0  0  0  0  0  0  0
   -0.8705    0.7717    0.6567 O   0  0  0  0  0  0  0  0  0  0  0  0
   -2.2138   -1.0546    0.0228 C   0  0  2  0  0  0  0  0  0  0  0  0
   -2.1650   -2.1253   -1.0165 C   0  0  0  0  0  0  0  0  0  0  0  0
   -0.8821   -2.2716   -1.7206 C   0  0  0  0  0  0  0  0  0  0  0  0
   -0.7993   -2.6014   -2.9499 O   0  0  0  0  0  0  0  0  0  0  0  0
   -3.2523   -0.1056   -0.2473 N   0  0  0  0  0  0  0  0  0  0  0  0
   -4.3040    0.0832    0.6772 C   0  0  0  0  0  0  0  0  0  0  0  0
   -4.3061   -0.5980    1.7357 O   0  0  0  0  0  0  0  0  0  0  0  0
   -5.3965    1.0293    0.4742 C   0  0  0  0  0  0  0  0  0  0  0  0
   -5.4234    1.8150   -0.6517 C   0  0  0  0  0  0  0  0  0  0  0  0
   -6.4849    2.7020   -0.8023 C   0  0  0  0  0  0  0  0  0  0  0  0
   -7.4881    2.8041    0.1379 C   0  0  0  0  0  0  0  0  0  0  0  0
   -7.4761    2.0200    1.2779 C   0  0  0  0  0  0  0  0  0  0  0  0
   -6.4185    1.1488    1.4096 C   0  0  0  0  0  0  0  0  0  0  0  0
    5.9674    0.3939   -0.1628 C   0  0  0  0  0  0  0  0  0  0  0  0
    5.9694   -0.7821    0.1473 O   0  0  0  0  0  0  0  0  0  0  0  0
    6.7294    3.6946    2.9993 H   0  0  0  0  0  0  0  0  0  0  0  0
    5.9014    2.9369    0.3853 H   0  0  0  0  0  0  0  0  0  0  0  0
    4.2712    3.0349    1.0943 H   0  0  0  0  0  0  0  0  0  0  0  0
    4.4033    1.5514   -0.9203 H   0  0  0  0  0  0  0  0  0  0  0  0
    3.9519   -0.0898    1.6157 H   0  0  0  0  0  0  0  0  0  0  0  0
    1.3265   -0.3291    1.7185 H   0  0  0  0  0  0  0  0  0  0  0  0
    3.2009   -1.9829    1.5043 H   0  0  0  0  0  0  0  0  0  0  0  0
    1.5716   -2.6411    1.8503 H   0  0  0  0  0  0  0  0  0  0  0  0
    3.4111   -3.2590   -0.3500 H   0  0  0  0  0  0  0  0  0  0  0  0
    1.9694   -4.1053    0.2324 H   0  0  0  0  0  0  0  0  0  0  0  0
    2.2375   -2.1406   -1.9869 H   0  0  0  0  0  0  0  0  0  0  0  0
    1.2946   -3.6564   -1.9200 H   0  0  0  0  0  0  0  0  0  0  0  0
   -2.4399   -1.5470    1.0210 H   0  0  0  0  0  0  0  0  0  0  0  0
   -2.3596   -3.1290   -0.5366 H   0  0  0  0  0  0  0  0  0  0  0  0
   -2.9735   -2.0217   -1.7789 H   0  0  0  0  0  0  0  0  0  0  0  0
   -3.2096    0.4273   -1.1236 H   0  0  0  0  0  0  0  0  0  0  0  0
   -4.6748    1.7896   -1.4265 H   0  0  0  0  0  0  0  0  0  0  0  0
   -6.4974    3.3211   -1.7014 H   0  0  0  0  0  0  0  0  0  0  0  0
   -8.2978    3.5303   -0.0486 H   0  0  0  0  0  0  0  0  0  0  0  0
   -8.2670    2.1032    2.0132 H   0  0  0  0  0  0  0  0  0  0  0  0
   -6.3922    0.5227    2.3078 H   0  0  0  0  0  0  0  0  0  0  0  0
    6.8582    0.8526   -0.6200 H   0  0  0  0  0  0  0  0  0  0  0  0
  1  2  1  0
  2  3  2  0
  2  4  1  0
  4  5  1  0
  5  6  1  0
  6  7  1  0
  7  8  2  0
  7  9  1  0
  9 10  1  0
 10 11  1  0
 11 12  1  0
 12 13  1  0
 13 14  1  0
 14 15  1  0
 15 16  2  0
 15 17  1  0
 17 18  1  0
 18 19  1  0
 19 20  2  0
 17 21  1  0
 21 22  1  0
 22 23  2  0
 22 24  1  0
 24 25  2  0
 25 26  1  0
 26 27  2  0
 27 28  1  0
 28 29  2  0
  5 30  1  0
 30 31  2  0
 14  9  1  0
 29 24  1  0
 19 13  1  0
  1 32  1  0
  4 33  1  0
  4 34  1  0
  5 35  1  6
  6 36  1  0
  9 37  1  1
 10 38  1  0
 10 39  1  0
 11 40  1  0
 11 41  1  0
 12 42  1  0
 12 43  1  0
 17 44  1  1
 18 45  1  0
 18 46  1  0
 21 47  1  0
 25 48  1  0
 26 49  1  0
 27 50  1  0
 28 51  1  0
 29 52  1  0
 30 53  1  0
M  END
$$$$
[H]OC(=O)[C@@]1([H])N(C(=O)C([H])([H])N([H])C(=O)[C@@]([H])(S[H])C([H])([H])c2c([H])c([H])c([H])c([H])c2[H])[C@@]([H])(c2c([H])c([H])c([H])c([H])c2[H])C([H])([H])C1([H])[H]
     RDKit          3D

 53 55  0  0  0  0  0  0  0  0999 V2000
   -2.8120   -4.5943    1.1437 O   0  0  0  0  0  0  0  0  0  0  0  0
   -2.7142   -3.5491    0.2492 C   0  0  0  0  0  0  0  0  0  0  0  0
   -1.9717   -3.6011   -0.7203 O   0  0  0  0  0  0  0  0  0  0  0  0
   -3.5510   -2.3459    0.5119 C   0  0  2  0  0  0  0  0  0  0  0  0
   -4.7129   -2.4100   -0.5386 C   0  0  0  0  0  0  0  0  0  0  0  0
   -4.7580   -0.9919   -1.1477 C   0  0  0  0  0  0  0  0  0  0  0  0
   -4.1534   -0.2461   -0.0332 C   0  0  1  0  0  0  0  0  0  0  0  0
   -2.9635   -1.0889    0.2226 N   0  0  0  0  0  0  0  0  0  0  0  0
   -1.6792   -0.5941    0.2852 C   0  0  0  0  0  0  0  0  0  0  0  0
   -1.4687    0.5387   -0.3289 O   0  0  0  0  0  0  0  0  0  0  0  0
   -0.4584   -1.1009    0.9447 C   0  0  0  0  0  0  0  0  0  0  0  0
    0.6758   -0.2707    0.7796 N   0  0  0  0  0  0  0  0  0  0  0  0
    1.7358    0.5053    0.6253 C   0  0  0  0  0  0  0  0  0  0  0  0
    1.8228    1.7541    0.9316 O   0  0  0  0  0  0  0  0  0  0  0  0
    3.0601    0.0191    0.0451 C   0  0  1  0  0  0  0  0  0  0  0  0
    2.7905   -0.3024   -1.7000 S   0  0  0  0  0  0  0  0  0  0  0  0
    4.1124    1.0750    0.2275 C   0  0  0  0  0  0  0  0  0  0  0  0
    5.4418    0.7069   -0.2963 C   0  0  0  0  0  0  0  0  0  0  0  0
    5.8425    1.0128   -1.5762 C   0  0  0  0  0  0  0  0  0  0  0  0
    7.0777    0.6840   -2.0760 C   0  0  0  0  0  0  0  0  0  0  0  0
    7.9735    0.0219   -1.2920 C   0  0  0  0  0  0  0  0  0  0  0  0
    7.5837   -0.2928    0.0045 C   0  0  0  0  0  0  0  0  0  0  0  0
    6.3460    0.0292    0.5276 C   0  0  0  0  0  0  0  0  0  0  0  0
   -4.0008    1.1632   -0.0356 C   0  0  0  0  0  0  0  0  0  0  0  0
   -3.6175    1.7896    1.1673 C   0  0  0  0  0  0  0  0  0  0  0  0
   -3.4563    3.1603    1.2352 C   0  0  0  0  0  0  0  0  0  0  0  0
   -3.6661    3.9538    0.1254 C   0  0  0  0  0  0  0  0  0  0  0  0
   -4.0374    3.3605   -1.0489 C   0  0  0  0  0  0  0  0  0  0  0  0
   -4.1954    2.0042   -1.1067 C   0  0  0  0  0  0  0  0  0  0  0  0
   -1.9805   -5.0524    1.4848 H   0  0  0  0  0  0  0  0  0  0  0  0
   -3.9766   -2.3094    1.5256 H   0  0  0  0  0  0  0  0  0  0  0  0
   -5.6157   -2.5756    0.0478 H   0  0  0  0  0  0  0  0  0  0  0  0
   -4.4699   -3.1480   -1.3006 H   0  0  0  0  0  0  0  0  0  0  0  0
   -5.8225   -0.7048   -1.3178 H   0  0  0  0  0  0  0  0  0  0  0  0
   -4.1946   -1.0262   -2.0734 H   0  0  0  0  0  0  0  0  0  0  0  0
   -4.8153   -0.5664    0.8916 H   0  0  0  0  0  0  0  0  0  0  0  0
   -0.6908   -1.2222    2.0403 H   0  0  0  0  0  0  0  0  0  0  0  0
   -0.1806   -2.1512    0.6363 H   0  0  0  0  0  0  0  0  0  0  0  0
   -0.0265    0.7442    1.3439 H   0  0  0  0  0  0  0  0  0  0  0  0
    3.3588   -0.8840    0.6259 H   0  0  0  0  0  0  0  0  0  0  0  0
    3.2016   -1.5932   -2.1020 H   0  0  0  0  0  0  0  0  0  0  0  0
    3.8076    2.0341   -0.2829 H   0  0  0  0  0  0  0  0  0  0  0  0
    4.1937    1.3667    1.3055 H   0  0  0  0  0  0  0  0  0  0  0  0
    5.1500    1.5474   -2.2440 H   0  0  0  0  0  0  0  0  0  0  0  0
    7.3328    0.9546   -3.1109 H   0  0  0  0  0  0  0  0  0  0  0  0
    8.9331   -0.2273   -1.7052 H   0  0  0  0  0  0  0  0  0  0  0  0
    8.3373   -0.8287    0.6113 H   0  0  0  0  0  0  0  0  0  0  0  0
    6.0620   -0.2235    1.5355 H   0  0  0  0  0  0  0  0  0  0  0  0
   -3.4555    1.1714    2.0303 H   0  0  0  0  0  0  0  0  0  0  0  0
   -3.1643    3.6708    2.1329 H   0  0  0  0  0  0  0  0  0  0  0  0
   -3.5352    5.0464    0.1944 H   0  0  0  0  0  0  0  0  0  0  0  0
   -4.2001    3.9908   -1.9263 H   0  0  0  0  0  0  0  0  0  0  0  0
   -4.4951    1.5962   -2.0575 H   0  0  0  0  0  0  0  0  0  0  0  0
  1  2  1  0
  2  3  2  0
  2  4  1  0
  4  5  1  0
  5  6  1  0
  6  7  1  0
  7  8  1  0
  8  9  1  0
  9 10  2  0
  9 11  1  0
 11 12  1  0
 12 13  1  0
 13 14  2  0
 13 15  1  0
 15 16  1  0
 15 17  1  0
 17 18  1  0
 18 19  2  0
 19 20  1  0
 20 21  2  0
 21 22  1  0
 22 23  2  0
  7 24  1  0
 24 25  2  0
 25 26  1  0
 26 27  2  0
 27 28  1  0
 28 29  2  0
  8  4  1  0
 23 18  1  0
 29 24  1  0
  1 30  1  0
  4 31  1  1
  5 32  1  0
  5 33  1  0
  6 34  1  0
  6 35  1  0
  7 36  1  1
 11 37  1  0
 11 38  1  0
 12 39  1  0
 15 40  1  1
 16 41  1  0
 17 42  1  0
 17 43  1  0
 19 44  1  0
 20 45  1  0
 21 46  1  0
 22 47  1  0
 23 48  1  0
 25 49  1  0
 26 50  1  0
 27 51  1  0
 28 52  1  0
 29 53  1  0
M  END
$$$$
[H]c1nc(N([H])c2c([H])c([H])c(N3C([H])([H])C([H])([H])C([H])(N4C([H])([H])C([H])([H])N(C([H])([H])[H])C([H])([H])C4([H])[H])C([H])([H])C3([H])[H])c([H])c2OC([H])([H])[H])nc(N([H])c2c([H])c([H])c([H])c([H])c2S(=O)(=O)C([H])(C([H])([H])[H])C([H])([H])[H])c1Cl
     RDKit          3D

 82 86  0  0  0  0  0  0  0  0999 V2000
   -0.1870    3.7228   -1.2569 C   0  0  0  0  0  0  0  0  0  0  0  0
    0.4390    2.5297   -0.8437 O   0  0  0  0  0  0  0  0  0  0  0  0
   -0.3483    1.4775   -0.4024 C   0  0  0  0  0  0  0  0  0  0  0  0
   -1.7220    1.6350   -0.3827 C   0  0  0  0  0  0  0  0  0  0  0  0
   -2.5624    0.6308    0.0436 C   0  0  0  0  0  0  0  0  0  0  0  0
   -1.9599   -0.5357    0.4478 C   0  0  0  0  0  0  0  0  0  0  0  0
   -0.5748   -0.7280    0.4408 C   0  0  0  0  0  0  0  0  0  0  0  0
    0.2576    0.2764    0.0150 C   0  0  0  0  0  0  0  0  0  0  0  0
    1.6540    0.2011   -0.0367 N   0  0  0  0  0  0  0  0  0  0  0  0
    2.4984   -0.8842    0.3177 C   0  0  0  0  0  0  0  0  0  0  0  0
    2.1033   -2.0726    0.7812 N   0  0  0  0  0  0  0  0  0  0  0  0
    2.9559   -3.0558    1.0957 C   0  0  0  0  0  0  0  0  0  0  0  0
    4.3092   -2.8632    0.9451 C   0  0  0  0  0  0  0  0  0  0  0  0
    5.4455   -4.1449    1.3534 Cl  0  0  0  0  0  0  0  0  0  0  0  0
    4.7527   -1.6166    0.4572 C   0  0  0  0  0  0  0  0  0  0  0  0
    6.1380   -1.4466    0.3110 N   0  0  0  0  0  0  0  0  0  0  0  0
    6.9009   -0.3576   -0.1368 C   0  0  0  0  0  0  0  0  0  0  0  0
    6.2766    0.8084   -0.5266 C   0  0  0  0  0  0  0  0  0  0  0  0
    7.0240    1.9039   -0.9778 C   0  0  0  0  0  0  0  0  0  0  0  0
    8.3820    1.8034   -1.0274 C   0  0  0  0  0  0  0  0  0  0  0  0
    9.0024    0.6381   -0.6374 C   0  0  0  0  0  0  0  0  0  0  0  0
    8.2961   -0.4485   -0.1920 C   0  0  0  0  0  0  0  0  0  0  0  0
    9.0842   -1.8926    0.2913 S   0  0  0  0  0  0  0  0  0  0  0  0
    8.6633   -3.0312   -0.6035 O   0  0  0  0  0  0  0  0  0  0  0  0
    8.8235   -2.3045    1.7132 O   0  0  0  0  0  0  0  0  0  0  0  0
   10.8572   -1.7881    0.1370 C   0  0  0  0  0  0  0  0  0  0  0  0
   11.2609   -1.6791   -1.2975 C   0  0  0  0  0  0  0  0  0  0  0  0
   11.4760   -0.7869    1.0544 C   0  0  0  0  0  0  0  0  0  0  0  0
    3.8248   -0.7008    0.1721 N   0  0  0  0  0  0  0  0  0  0  0  0
   -3.9818    0.8060    0.0512 N   0  0  0  0  0  0  0  0  0  0  0  0
   -4.5241    1.9609   -0.5784 C   0  0  0  0  0  0  0  0  0  0  0  0
   -6.0011    1.9283   -0.8544 C   0  0  0  0  0  0  0  0  0  0  0  0
   -6.8245    1.3726    0.2584 C   0  0  0  0  0  0  0  0  0  0  0  0
   -6.0036    0.6088    1.2781 C   0  0  0  0  0  0  0  0  0  0  0  0
   -4.8657   -0.1463    0.6796 C   0  0  0  0  0  0  0  0  0  0  0  0
   -7.9560    0.6086   -0.0875 N   0  0  0  0  0  0  0  0  0  0  0  0
   -7.7905   -0.5856   -0.8057 C   0  0  0  0  0  0  0  0  0  0  0  0
   -9.1362   -1.0235   -1.3907 C   0  0  0  0  0  0  0  0  0  0  0  0
  -10.1390   -0.8718   -0.3544 N   0  0  0  0  0  0  0  0  0  0  0  0
  -10.0361   -1.8235    0.7053 C   0  0  0  0  0  0  0  0  0  0  0  0
  -10.3349    0.4834    0.0484 C   0  0  0  0  0  0  0  0  0  0  0  0
   -9.1475    1.3193   -0.4248 C   0  0  0  0  0  0  0  0  0  0  0  0
    0.5375    4.4499   -1.6799 H   0  0  0  0  0  0  0  0  0  0  0  0
   -0.9481    3.5330   -2.0530 H   0  0  0  0  0  0  0  0  0  0  0  0
   -0.6880    4.2523   -0.4156 H   0  0  0  0  0  0  0  0  0  0  0  0
   -2.1476    2.5764   -0.7105 H   0  0  0  0  0  0  0  0  0  0  0  0
   -2.6020   -1.3517    0.7883 H   0  0  0  0  0  0  0  0  0  0  0  0
   -0.2121   -1.6859    0.7807 H   0  0  0  0  0  0  0  0  0  0  0  0
    2.1500    1.0935   -0.3956 H   0  0  0  0  0  0  0  0  0  0  0  0
    2.6174   -4.0222    1.4737 H   0  0  0  0  0  0  0  0  0  0  0  0
    6.7215   -2.3022    0.5911 H   0  0  0  0  0  0  0  0  0  0  0  0
    5.2202    0.9989   -0.5296 H   0  0  0  0  0  0  0  0  0  0  0  0
    6.5603    2.8305   -1.2896 H   0  0  0  0  0  0  0  0  0  0  0  0
    9.0220    2.6252   -1.3712 H   0  0  0  0  0  0  0  0  0  0  0  0
   10.0936    0.6299   -0.7052 H   0  0  0  0  0  0  0  0  0  0  0  0
   11.2252   -2.8031    0.4806 H   0  0  0  0  0  0  0  0  0  0  0  0
   11.9033   -0.7785   -1.4926 H   0  0  0  0  0  0  0  0  0  0  0  0
   10.3307   -1.5514   -1.9199 H   0  0  0  0  0  0  0  0  0  0  0  0
   11.7765   -2.5763   -1.6995 H   0  0  0  0  0  0  0  0  0  0  0  0
   12.0225   -1.2557    1.8769 H   0  0  0  0  0  0  0  0  0  0  0  0
   12.1781   -0.1622    0.4319 H   0  0  0  0  0  0  0  0  0  0  0  0
   10.7434   -0.0899    1.5079 H   0  0  0  0  0  0  0  0  0  0  0  0
   -4.2803    2.8410    0.0525 H   0  0  0  0  0  0  0  0  0  0  0  0
   -3.9354    2.1199   -1.5269 H   0  0  0  0  0  0  0  0  0  0  0  0
   -6.3084    2.9635   -1.1164 H   0  0  0  0  0  0  0  0  0  0  0  0
   -6.1470    1.3325   -1.7818 H   0  0  0  0  0  0  0  0  0  0  0  0
   -7.2139    2.2642    0.8421 H   0  0  0  0  0  0  0  0  0  0  0  0
   -6.6586   -0.1075    1.8153 H   0  0  0  0  0  0  0  0  0  0  0  0
   -5.5929    1.2907    2.0626 H   0  0  0  0  0  0  0  0  0  0  0  0
   -5.1731   -0.8869   -0.0780 H   0  0  0  0  0  0  0  0  0  0  0  0
   -4.3121   -0.6097    1.5260 H   0  0  0  0  0  0  0  0  0  0  0  0
   -7.5080   -1.4012   -0.0997 H   0  0  0  0  0  0  0  0  0  0  0  0
   -7.0082   -0.5774   -1.5870 H   0  0  0  0  0  0  0  0  0  0  0  0
   -9.4445   -0.3742   -2.2343 H   0  0  0  0  0  0  0  0  0  0  0  0
   -9.0261   -2.0597   -1.7202 H   0  0  0  0  0  0  0  0  0  0  0  0
   -9.1822   -2.5377    0.5321 H   0  0  0  0  0  0  0  0  0  0  0  0
   -9.9814   -1.3564    1.7041 H   0  0  0  0  0  0  0  0  0  0  0  0
  -10.9456   -2.4645    0.6802 H   0  0  0  0  0  0  0  0  0  0  0  0
  -11.2261    0.8855   -0.4545 H   0  0  0  0  0  0  0  0  0  0  0  0
  -10.4517    0.5517    1.1515 H   0  0  0  0  0  0  0  0  0  0  0  0
   -9.2778    1.5186   -1.4917 H   0  0  0  0  0  0  0  0  0  0  0  0
   -9.1611    2.2698    0.1783 H   0  0  0  0  0  0  0  0  0  0  0  0
  1  2  1  0
  2  3  1  0
  3  4  2  0
  4  5  1  0
  5  6  2  0
  6  7  1  0
  7  8  2  0
  8  9  1  0
  9 10  1  0
 10 11  2  0
 11 12  1  0
 12 13  2  0
 13 14  1  0
 13 15  1  0
 15 16  1  0
 16 17  1  0
 17 18  2  0
 18 19  1  0
 19 20  2  0
 20 21  1  0
 21 22  2  0
 22 23  1  0
 23 24  2  0
 23 25  2  0
 23 26  1  0
 26 27  1  0
 26 28  1  0
 15 29  2  0
  5 30  1  0
 30 31  1  0
 31 32  1  0
 32 33  1  0
 33 34  1  0
 34 35  1  0
 33 36  1  0
 36 37  1  0
 37 38  1  0
 38 39  1  0
 39 40  1  0
 39 41  1  0
 41 42  1  0
  8  3  1  0
 29 10  1  0
 35 30  1  0
 42 36  1  0
 22 17  1  0
  1 43  1  0
  1 44  1  0
  1 45  1  0
  4 46  1  0
  6 47  1  0
  7 48  1  0
  9 49  1  0
 12 50  1  0
 16 51  1  0
 18 52  1  0
 19 53  1  0
 20 54  1  0
 21 55  1  0
 26 56  1  0
 27 57  1  0
 27 58  1  0
 27 59  1  0
 28 60  1  0
 28 61  1  0
 28 62  1  0
 31 63  1  0
 31 64  1  0
 32 65  1  0
 32 66  1  0
 33 67  1  0
 34 68  1  0
 34 69  1  0
 35 70  1  0
 35 71  1  0
 37 72  1  0
 37 73  1  0
 38 74  1  0
 38 75  1  0
 40 76  1  0
 40 77  1  0
 40 78  1  0
 41 79  1  0
 41 80  1  0
 42 81  1  0
 42 82  1  0
M  END
$$$$
[H]/C(C(=O)N([H])[C@]([H])(c1c([H])c([H])c([H])c([H])c1[H])C([H])([H])[H])=C(/[H])c1c([H])c([H])c([H])c([H])c1[H]
     RDKit          3D

 36 37  0  0  0  0  0  0  0  0999 V2000
   -2.5141    2.5290   -0.2841 C   0  0  0  0  0  0  0  0  0  0  0  0
   -2.2312    1.3212    0.5888 C   0  0  2  0  0  0  0  0  0  0  0  0
   -0.8446    0.9275    0.3375 N   0  0  0  0  0  0  0  0  0  0  0  0
    0.0339    0.8850    1.4273 C   0  0  0  0  0  0  0  0  0  0  0  0
   -0.3497    1.1786    2.6112 O   0  0  0  0  0  0  0  0  0  0  0  0
    1.4427    0.5022    1.2753 C   0  0  0  0  0  0  0  0  0  0  0  0
    1.9971    0.1725    0.1345 C   0  0  0  0  0  0  0  0  0  0  0  0
    3.3854   -0.2124   -0.0611 C   0  0  0  0  0  0  0  0  0  0  0  0
    4.3170   -0.2832    0.9392 C   0  0  0  0  0  0  0  0  0  0  0  0
    5.6317   -0.6459    0.7642 C   0  0  0  0  0  0  0  0  0  0  0  0
    6.0669   -0.9659   -0.5010 C   0  0  0  0  0  0  0  0  0  0  0  0
    5.1641   -0.9104   -1.5494 C   0  0  0  0  0  0  0  0  0  0  0  0
    3.8555   -0.5433   -1.3383 C   0  0  0  0  0  0  0  0  0  0  0  0
   -3.0971    0.1778    0.2033 C   0  0  0  0  0  0  0  0  0  0  0  0
   -4.1394   -0.2200    1.0475 C   0  0  0  0  0  0  0  0  0  0  0  0
   -4.9538   -1.2787    0.7067 C   0  0  0  0  0  0  0  0  0  0  0  0
   -4.7541   -1.9633   -0.4730 C   0  0  0  0  0  0  0  0  0  0  0  0
   -3.7233   -1.5855   -1.3288 C   0  0  0  0  0  0  0  0  0  0  0  0
   -2.9225   -0.5226   -0.9642 C   0  0  0  0  0  0  0  0  0  0  0  0
   -1.9090    2.5023   -1.2213 H   0  0  0  0  0  0  0  0  0  0  0  0
   -3.5818    2.5584   -0.5822 H   0  0  0  0  0  0  0  0  0  0  0  0
   -2.2762    3.4856    0.2470 H   0  0  0  0  0  0  0  0  0  0  0  0
   -2.4053    1.5455    1.6599 H   0  0  0  0  0  0  0  0  0  0  0  0
   -0.6015    0.7053   -0.6322 H   0  0  0  0  0  0  0  0  0  0  0  0
    2.1011    0.4799    2.1493 H   0  0  0  0  0  0  0  0  0  0  0  0
    1.3388    0.1932   -0.7490 H   0  0  0  0  0  0  0  0  0  0  0  0
    4.0153   -0.0402    1.9441 H   0  0  0  0  0  0  0  0  0  0  0  0
    6.2933   -0.6722    1.6195 H   0  0  0  0  0  0  0  0  0  0  0  0
    7.1030   -1.2524   -0.6428 H   0  0  0  0  0  0  0  0  0  0  0  0
    5.5569   -1.1713   -2.5223 H   0  0  0  0  0  0  0  0  0  0  0  0
    3.1560   -0.5029   -2.1660 H   0  0  0  0  0  0  0  0  0  0  0  0
   -4.2628    0.3430    1.9638 H   0  0  0  0  0  0  0  0  0  0  0  0
   -5.7580   -1.5847    1.3591 H   0  0  0  0  0  0  0  0  0  0  0  0
   -5.4223   -2.7848   -0.6897 H   0  0  0  0  0  0  0  0  0  0  0  0
   -3.5952   -2.1437   -2.2448 H   0  0  0  0  0  0  0  0  0  0  0  0
   -2.1169   -0.2234   -1.6283 H   0  0  0  0  0  0  0  0  0  0  0  0
  1  2  1  0
  2  3  1  0
  3  4  1  0
  4  5  2  0
  4  6  1  0
  6  7  2  0
  7  8  1  0
  8  9  2  0
  9 10  1  0
 10 11  2  0
 11 12  1  0
 12 13  2  0
  2 14  1  0
 14 15  2  0
 15 16  1  0
 16 17  2  0
 17 18  1  0
 18 19  2  0
 13  8  1  0
 19 14  1  0
  1 20  1  0
  1 21  1  0
  1 22  1  0
  2 23  1  1
  3 24  1  0
  6 25  1  0
  7 26  1  0
  9 27  1  0
 10 28  1  0
 11 29  1  0
 12 30  1  0
 13 31  1  0
 15 32  1  0
 16 33  1  0
 17 34  1  0
 18 35  1  0
 19 36  1  0
M  END
$$$$
[H]O[C@@]1(C([H])=C([H])[H])C([H])([H])C([H])([H])[C@]2([H])[C@]1(C([H])([H])[H])C([H])([H])C([H])([H])[C@]1([H])[C@]3(C([H])([H])[H])C(=C([H])C(=O)C([H])([H])C3([H])[H])C([H])([H])C([H])([H])[C@@]21[H]
     RDKit          3D

 53 56  0  0  0  0  0  0  0  0999 V2000
    1.8002    0.0577    1.8739 C   0  0  0  0  0  0  0  0  0  0  0  0
    1.8784    0.3394    0.4145 C   0  0  2  0  0  0  0  0  0  0  0  0
    1.2239    1.6339    0.0578 C   0  0  0  0  0  0  0  0  0  0  0  0
   -0.2563    1.5599    0.2536 C   0  0  0  0  0  0  0  0  0  0  0  0
   -0.9221    0.3831   -0.3338 C   0  0  1  0  0  0  0  0  0  0  0  0
   -0.1859   -0.9299   -0.1211 C   0  0  1  0  0  0  0  0  0  0  0  0
   -0.7720   -1.9485   -1.0774 C   0  0  0  0  0  0  0  0  0  0  0  0
   -2.2658   -2.0878   -0.9609 C   0  0  0  0  0  0  0  0  0  0  0  0
   -2.9603   -0.7895   -0.7807 C   0  0  0  0  0  0  0  0  0  0  0  0
   -4.0865   -0.5982   -1.4384 C   0  0  0  0  0  0  0  0  0  0  0  0
   -4.7818    0.6657   -1.2761 C   0  0  0  0  0  0  0  0  0  0  0  0
   -6.0190    0.7173   -1.4566 O   0  0  0  0  0  0  0  0  0  0  0  0
   -3.9467    1.8356   -0.8969 C   0  0  0  0  0  0  0  0  0  0  0  0
   -3.1009    1.4523    0.3140 C   0  0  0  0  0  0  0  0  0  0  0  0
   -2.3284    0.1963    0.1325 C   0  0  2  0  0  0  0  0  0  0  0  0
   -2.2904   -0.4926    1.5062 C   0  0  0  0  0  0  0  0  0  0  0  0
    1.2317   -0.7154   -0.4520 C   0  0  2  0  0  0  0  0  0  0  0  0
    2.1619   -1.8550   -0.3190 C   0  0  0  0  0  0  0  0  0  0  0  0
    3.4917   -1.1458   -0.6349 C   0  0  0  0  0  0  0  0  0  0  0  0
    3.3184    0.2380   -0.0112 C   0  0  2  0  0  0  0  0  0  0  0  0
    4.1638    0.2312    1.1239 O   0  0  0  0  0  0  0  0  0  0  0  0
    3.7794    1.3200   -0.8734 C   0  0  0  0  0  0  0  0  0  0  0  0
    4.7225    1.1101   -1.7659 C   0  0  0  0  0  0  0  0  0  0  0  0
    2.6748   -0.5381    2.2639 H   0  0  0  0  0  0  0  0  0  0  0  0
    0.8905   -0.4121    2.2299 H   0  0  0  0  0  0  0  0  0  0  0  0
    1.8790    1.0503    2.4076 H   0  0  0  0  0  0  0  0  0  0  0  0
    1.3924    1.8139   -1.0364 H   0  0  0  0  0  0  0  0  0  0  0  0
    1.6449    2.4293    0.6927 H   0  0  0  0  0  0  0  0  0  0  0  0
   -0.6713    2.4762   -0.2654 H   0  0  0  0  0  0  0  0  0  0  0  0
   -0.4649    1.6292    1.3316 H   0  0  0  0  0  0  0  0  0  0  0  0
   -0.9637    0.5189   -1.4513 H   0  0  0  0  0  0  0  0  0  0  0  0
   -0.3418   -1.3387    0.8979 H   0  0  0  0  0  0  0  0  0  0  0  0
   -0.4853   -1.7599   -2.1212 H   0  0  0  0  0  0  0  0  0  0  0  0
   -0.3337   -2.9420   -0.7739 H   0  0  0  0  0  0  0  0  0  0  0  0
   -2.6177   -2.5549   -1.9074 H   0  0  0  0  0  0  0  0  0  0  0  0
   -2.5404   -2.8292   -0.1643 H   0  0  0  0  0  0  0  0  0  0  0  0
   -4.4982   -1.3738   -2.0982 H   0  0  0  0  0  0  0  0  0  0  0  0
   -4.6338    2.6371   -0.5444 H   0  0  0  0  0  0  0  0  0  0  0  0
   -3.3433    2.2262   -1.7181 H   0  0  0  0  0  0  0  0  0  0  0  0
   -2.5182    2.3302    0.5769 H   0  0  0  0  0  0  0  0  0  0  0  0
   -3.8521    1.3189    1.1485 H   0  0  0  0  0  0  0  0  0  0  0  0
   -3.2348   -0.2328    2.0709 H   0  0  0  0  0  0  0  0  0  0  0  0
   -2.2929   -1.5824    1.4265 H   0  0  0  0  0  0  0  0  0  0  0  0
   -1.4756   -0.0617    2.1030 H   0  0  0  0  0  0  0  0  0  0  0  0
    1.2967   -0.3331   -1.5035 H   0  0  0  0  0  0  0  0  0  0  0  0
    2.2696   -2.2443    0.7007 H   0  0  0  0  0  0  0  0  0  0  0  0
    1.9874   -2.6924   -1.0194 H   0  0  0  0  0  0  0  0  0  0  0  0
    4.3502   -1.6878   -0.2438 H   0  0  0  0  0  0  0  0  0  0  0  0
    3.4930   -0.9935   -1.7325 H   0  0  0  0  0  0  0  0  0  0  0  0
    4.9395   -0.3685    0.9918 H   0  0  0  0  0  0  0  0  0  0  0  0
    3.3529    2.3030   -0.7882 H   0  0  0  0  0  0  0  0  0  0  0  0
    5.1845    0.1320   -1.8883 H   0  0  0  0  0  0  0  0  0  0  0  0
    5.0564    1.9025   -2.3936 H   0  0  0  0  0  0  0  0  0  0  0  0
  2  1  1  1
  2  3  1  0
  3  4  1  0
  4  5  1  0
  5  6  1  0
  6  7  1  0
  7  8  1  0
  8  9  1  0
  9 10  2  0
 10 11  1  0
 11 12  2  0
 11 13  1  0
 13 14  1  0
 14 15  1  0
 15 16  1  1
  6 17  1  0
 17 18  1  0
 18 19  1  0
 19 20  1  0
 20 21  1  1
 20 22  1  0
 22 23  2  3
 17  2  1  0
 20  2  1  0
 15  5  1  0
 15  9  1  0
  1 24  1  0
  1 25  1  0
  1 26  1  0
  3 27  1  0
  3 28  1  0
  4 29  1  0
  4 30  1  0
  5 31  1  6
  6 32  1  1
  7 33  1  0
  7 34  1  0
  8 35  1  0
  8 36  1  0
 10 37  1  0
 13 38  1  0
 13 39  1  0
 14 40  1  0
 14 41  1  0
 16 42  1  0
 16 43  1  0
 16 44  1  0
 17 45  1  6
 18 46  1  0
 18 47  1  0
 19 48  1  0
 19 49  1  0
 21 50  1  0
 22 51  1  0
 23 52  1  0
 23 53  1  0
M  END
$$$$
[H]OC(=O)c1c([H])c([H])c(-c2sc(N([H])C(=O)c3c([H])c([H])c(OC([H])([H])[H])c([H])c3[H])nc2[H])c(OC([H])([H])c2c([H])c([H])c([H])c([H])c2[H])c1[H]
     RDKit          3D

 53 56  0  0  0  0  0  0  0  0999 V2000
  -10.3334   -0.9807    0.0839 C   0  0  0  0  0  0  0  0  0  0  0  0
   -9.6614    0.1623    0.5910 O   0  0  0  0  0  0  0  0  0  0  0  0
   -8.2759    0.2068    0.4653 C   0  0  0  0  0  0  0  0  0  0  0  0
   -7.6298    1.3010    0.9505 C   0  0  0  0  0  0  0  0  0  0  0  0
   -6.2710    1.4511    0.8811 C   0  0  0  0  0  0  0  0  0  0  0  0
   -5.5148    0.4420    0.2891 C   0  0  0  0  0  0  0  0  0  0  0  0
   -6.1772   -0.6516   -0.1939 C   0  0  0  0  0  0  0  0  0  0  0  0
   -7.5508   -0.8001   -0.1222 C   0  0  0  0  0  0  0  0  0  0  0  0
   -4.0758    0.6395    0.2371 C   0  0  0  0  0  0  0  0  0  0  0  0
   -3.5655    1.6603    0.7823 O   0  0  0  0  0  0  0  0  0  0  0  0
   -3.2685   -0.2987   -0.4141 N   0  0  0  0  0  0  0  0  0  0  0  0
   -1.8363   -0.1138   -0.4727 C   0  0  0  0  0  0  0  0  0  0  0  0
   -0.9589   -0.9128   -1.0496 N   0  0  0  0  0  0  0  0  0  0  0  0
    0.3055   -0.6107   -1.0190 C   0  0  0  0  0  0  0  0  0  0  0  0
    0.6905    0.5245   -0.3911 C   0  0  0  0  0  0  0  0  0  0  0  0
   -0.8560    1.1297    0.1495 S   0  0  0  0  0  0  0  0  0  0  0  0
    1.9959    1.1694   -0.1619 C   0  0  0  0  0  0  0  0  0  0  0  0
    2.0000    2.3763    0.5538 C   0  0  0  0  0  0  0  0  0  0  0  0
    3.1915    3.0116    0.7906 C   0  0  0  0  0  0  0  0  0  0  0  0
    4.4014    2.4960    0.3421 C   0  0  0  0  0  0  0  0  0  0  0  0
    4.3999    1.3178   -0.3572 C   0  0  0  0  0  0  0  0  0  0  0  0
    3.1936    0.6726   -0.5976 C   0  0  0  0  0  0  0  0  0  0  0  0
    3.1678   -0.5118   -1.2993 O   0  0  0  0  0  0  0  0  0  0  0  0
    4.1865   -1.2524   -1.8443 C   0  0  0  0  0  0  0  0  0  0  0  0
    5.1049   -1.7270   -0.7834 C   0  0  0  0  0  0  0  0  0  0  0  0
    4.6046   -1.8665    0.5167 C   0  0  0  0  0  0  0  0  0  0  0  0
    5.3842   -2.2970    1.5387 C   0  0  0  0  0  0  0  0  0  0  0  0
    6.7032   -2.6060    1.2948 C   0  0  0  0  0  0  0  0  0  0  0  0
    7.2087   -2.4721    0.0141 C   0  0  0  0  0  0  0  0  0  0  0  0
    6.4144   -2.0349   -1.0207 C   0  0  0  0  0  0  0  0  0  0  0  0
    5.6613    3.1644    0.5906 C   0  0  0  0  0  0  0  0  0  0  0  0
    6.8399    2.6272    0.1328 O   0  0  0  0  0  0  0  0  0  0  0  0
    5.6801    4.2376    1.2255 O   0  0  0  0  0  0  0  0  0  0  0  0
  -10.2527   -0.9638   -1.0189 H   0  0  0  0  0  0  0  0  0  0  0  0
   -9.8224   -1.8600    0.5345 H   0  0  0  0  0  0  0  0  0  0  0  0
  -11.3828   -0.9838    0.4482 H   0  0  0  0  0  0  0  0  0  0  0  0
   -8.1817    2.1140    1.4213 H   0  0  0  0  0  0  0  0  0  0  0  0
   -5.7846    2.3516    1.2852 H   0  0  0  0  0  0  0  0  0  0  0  0
   -5.6268   -1.4577   -0.6600 H   0  0  0  0  0  0  0  0  0  0  0  0
   -8.0724   -1.6637   -0.5039 H   0  0  0  0  0  0  0  0  0  0  0  0
   -3.6868   -1.1325   -0.8594 H   0  0  0  0  0  0  0  0  0  0  0  0
    1.0406   -1.2918   -1.5092 H   0  0  0  0  0  0  0  0  0  0  0  0
    1.0442    2.7669    0.8980 H   0  0  0  0  0  0  0  0  0  0  0  0
    3.2117    3.9450    1.3424 H   0  0  0  0  0  0  0  0  0  0  0  0
    5.3259    0.8948   -0.7301 H   0  0  0  0  0  0  0  0  0  0  0  0
    3.7640   -2.1883   -2.3121 H   0  0  0  0  0  0  0  0  0  0  0  0
    4.7290   -0.7520   -2.6744 H   0  0  0  0  0  0  0  0  0  0  0  0
    3.5700   -1.6259    0.7134 H   0  0  0  0  0  0  0  0  0  0  0  0
    4.9966   -2.4032    2.5378 H   0  0  0  0  0  0  0  0  0  0  0  0
    7.3431   -2.9503    2.0910 H   0  0  0  0  0  0  0  0  0  0  0  0
    8.2480   -2.7190   -0.1626 H   0  0  0  0  0  0  0  0  0  0  0  0
    6.7954   -1.9267   -2.0203 H   0  0  0  0  0  0  0  0  0  0  0  0
    7.5827    2.3927    0.8025 H   0  0  0  0  0  0  0  0  0  0  0  0
  1  2  1  0
  2  3  1  0
  3  4  2  0
  4  5  1  0
  5  6  2  0
  6  7  1  0
  7  8  2  0
  6  9  1  0
  9 10  2  0
  9 11  1  0
 11 12  1  0
 12 13  2  0
 13 14  1  0
 14 15  2  0
 15 16  1  0
 15 17  1  0
 17 18  2  0
 18 19  1  0
 19 20  2  0
 20 21  1  0
 21 22  2  0
 22 23  1  0
 23 24  1  0
 24 25  1  0
 25 26  2  0
 26 27  1  0
 27 28  2  0
 28 29  1  0
 29 30  2  0
 20 31  1  0
 31 32  1  0
 31 33  2  0
  8  3  1  0
 16 12  1  0
 22 17  1  0
 30 25  1  0
  1 34  1  0
  1 35  1  0
  1 36  1  0
  4 37  1  0
  5 38  1  0
  7 39  1  0
  8 40  1  0
 11 41  1  0
 14 42  1  0
 18 43  1  0
 19 44  1  0
 21 45  1  0
 24 46  1  0
 24 47  1  0
 26 48  1  0
 27 49  1  0
 28 50  1  0
 29 51  1  0
 30 52  1  0
 32 53  1  0
M  END
$$$$
[H]OC(=O)C([H])([H])N(C([H])([H])c1c([H])c([H])c([N+](=O)[O-])c([H])c1[H])S(=O)(=O)c1c([H])c([H])c([N+](=O)[O-])c([H])c1[H]
     RDKit          3D

 40 41  0  0  0  0  0  0  0  0999 V2000
   -0.2071   -2.3128    1.5225 O   0  0  0  0  0  0  0  0  0  0  0  0
   -0.4520   -2.9017    0.3041 C   0  0  0  0  0  0  0  0  0  0  0  0
   -0.9291   -4.0634    0.2966 O   0  0  0  0  0  0  0  0  0  0  0  0
   -0.1855   -2.2469   -0.9887 C   0  0  0  0  0  0  0  0  0  0  0  0
    0.2974   -0.9068   -0.9105 N   0  0  0  0  0  0  0  0  0  0  0  0
    1.2677   -0.5355   -1.8811 C   0  0  0  0  0  0  0  0  0  0  0  0
    2.2957    0.3981   -1.4374 C   0  0  0  0  0  0  0  0  0  0  0  0
    3.2044    0.8607   -2.3622 C   0  0  0  0  0  0  0  0  0  0  0  0
    4.1960    1.7494   -1.9625 C   0  0  0  0  0  0  0  0  0  0  0  0
    4.3152    2.1980   -0.6602 C   0  0  0  0  0  0  0  0  0  0  0  0
    3.3978    1.7259    0.2544 C   0  0  0  0  0  0  0  0  0  0  0  0
    2.4038    0.8375   -0.1374 C   0  0  0  0  0  0  0  0  0  0  0  0
    5.3479    3.1007   -0.3278 N   0  0  0  0  0  0  0  0  0  0  0  0
    5.4701    3.5452    0.9506 O   0  0  0  0  0  0  0  0  0  0  0  0
    6.1399    3.4889   -1.1884 O   0  0  0  0  0  0  0  0  0  0  0  0
   -1.0342    0.1811   -1.0380 S   0  0  0  0  0  0  0  0  0  0  0  0
   -0.4594    1.5900   -1.0226 O   0  0  0  0  0  0  0  0  0  0  0  0
   -1.6962    0.0363   -2.3827 O   0  0  0  0  0  0  0  0  0  0  0  0
   -2.1959    0.0182    0.2228 C   0  0  0  0  0  0  0  0  0  0  0  0
   -2.1321    0.7585    1.3839 C   0  0  0  0  0  0  0  0  0  0  0  0
   -3.0863    0.5956    2.3666 C   0  0  0  0  0  0  0  0  0  0  0  0
   -4.1318   -0.3000    2.2373 C   0  0  0  0  0  0  0  0  0  0  0  0
   -4.1618   -1.0214    1.0635 C   0  0  0  0  0  0  0  0  0  0  0  0
   -3.2256   -0.8811    0.0666 C   0  0  0  0  0  0  0  0  0  0  0  0
   -5.1105   -0.4613    3.2550 N   0  0  0  0  0  0  0  0  0  0  0  0
   -5.0769    0.2566    4.4180 O   0  0  0  0  0  0  0  0  0  0  0  0
   -6.0336   -1.2785    3.0965 O   0  0  0  0  0  0  0  0  0  0  0  0
   -0.6759   -2.4986    2.3766 H   0  0  0  0  0  0  0  0  0  0  0  0
   -1.1574   -2.2929   -1.5638 H   0  0  0  0  0  0  0  0  0  0  0  0
    0.5222   -2.8460   -1.6041 H   0  0  0  0  0  0  0  0  0  0  0  0
    0.7282   -0.0408   -2.7429 H   0  0  0  0  0  0  0  0  0  0  0  0
    1.7345   -1.4381   -2.3412 H   0  0  0  0  0  0  0  0  0  0  0  0
    3.2030    0.5755   -3.4046 H   0  0  0  0  0  0  0  0  0  0  0  0
    4.8995    2.1030   -2.6950 H   0  0  0  0  0  0  0  0  0  0  0  0
    3.4890    2.0750    1.2721 H   0  0  0  0  0  0  0  0  0  0  0  0
    1.7088    0.5017    0.6356 H   0  0  0  0  0  0  0  0  0  0  0  0
   -1.3177    1.4867    1.5360 H   0  0  0  0  0  0  0  0  0  0  0  0
   -3.0488    1.1775    3.2958 H   0  0  0  0  0  0  0  0  0  0  0  0
   -4.9830   -1.7377    0.9405 H   0  0  0  0  0  0  0  0  0  0  0  0
   -3.3203   -1.4965   -0.8437 H   0  0  0  0  0  0  0  0  0  0  0  0
  1  2  1  0
  2  3  2  0
  2  4  1  0
  4  5  1  0
  5  6  1  0
  6  7  1  0
  7  8  2  0
  8  9  1  0
  9 10  2  0
 10 11  1  0
 11 12  2  0
 10 13  1  0
 13 14  1  0
 13 15  2  0
  5 16  1  0
 16 17  2  0
 16 18  2  0
 16 19  1  0
 19 20  2  0
 20 21  1  0
 21 22  2  0
 22 23  1  0
 23 24  2  0
 22 25  1  0
 25 26  1  0
 25 27  2  0
 12  7  1  0
 24 19  1  0
  1 28  1  0
  4 29  1  0
  4 30  1  0
  6 31  1  0
  6 32  1  0
  8 33  1  0
  9 34  1  0
 11 35  1  0
 12 36  1  0
 20 37  1  0
 21 38  1  0
 23 39  1  0
 24 40  1  0
M  CHG  4  13   1  14  -1  25   1  26  -1
M  END
$$$$
[H]N=C(N([H])[H])N([H])C([H])([H])C([H])([H])C([H])([H])[C@@]([H])(C(=O)C(F)(F)F)N([H])C(=O)[C@@]([H])(N([H])C(=O)[C@@]([H])(N([H])C(=O)OC([H])([H])c1c([H])c([H])c([H])c([H])c1[H])C([H])(C([H])([H])[H])C([H])([H])[H])C([H])(C([H])([H])[H])C([H])([H])[H]
     RDKit          3D

 76 76  0  0  0  0  0  0  0  0999 V2000
    0.9652    3.0545    1.6298 C   0  0  0  0  0  0  0  0  0  0  0  0
    1.0271    2.4187    0.2691 C   0  0  0  0  0  0  0  0  0  0  0  0
    2.1608    2.8896   -0.5954 C   0  0  0  0  0  0  0  0  0  0  0  0
    0.8260    0.9532    0.2262 C   0  0  2  0  0  0  0  0  0  0  0  0
   -0.4842    0.6071    0.7322 N   0  0  0  0  0  0  0  0  0  0  0  0
   -1.4646    0.0385   -0.1047 C   0  0  0  0  0  0  0  0  0  0  0  0
   -1.1620   -0.1639   -1.3160 O   0  0  0  0  0  0  0  0  0  0  0  0
   -2.8223   -0.3224    0.3940 C   0  0  1  0  0  0  0  0  0  0  0  0
   -3.5637   -0.8832   -0.7060 N   0  0  0  0  0  0  0  0  0  0  0  0
   -4.7009   -0.3312   -1.2865 C   0  0  0  0  0  0  0  0  0  0  0  0
   -5.1724    0.7429   -0.8608 O   0  0  0  0  0  0  0  0  0  0  0  0
   -5.3358   -0.9464   -2.3392 O   0  0  0  0  0  0  0  0  0  0  0  0
   -6.4805   -0.3959   -2.9210 C   0  0  0  0  0  0  0  0  0  0  0  0
   -7.6338   -0.2427   -2.0357 C   0  0  0  0  0  0  0  0  0  0  0  0
   -7.7696   -0.9327   -0.8608 C   0  0  0  0  0  0  0  0  0  0  0  0
   -8.8664   -0.7554   -0.0651 C   0  0  0  0  0  0  0  0  0  0  0  0
   -9.8600    0.1340   -0.4459 C   0  0  0  0  0  0  0  0  0  0  0  0
   -9.7545    0.8437   -1.6206 C   0  0  0  0  0  0  0  0  0  0  0  0
   -8.6304    0.6451   -2.4104 C   0  0  0  0  0  0  0  0  0  0  0  0
   -2.7622   -1.1990    1.6144 C   0  0  0  0  0  0  0  0  0  0  0  0
   -2.0633   -2.4984    1.3984 C   0  0  0  0  0  0  0  0  0  0  0  0
   -4.1238   -1.3019    2.2347 C   0  0  0  0  0  0  0  0  0  0  0  0
    1.8497    0.1003    0.8298 C   0  0  0  0  0  0  0  0  0  0  0  0
    1.4315   -1.0820    1.1451 O   0  0  0  0  0  0  0  0  0  0  0  0
    3.1788    0.3491    1.1173 N   0  0  0  0  0  0  0  0  0  0  0  0
    4.0886   -0.6295    1.7225 C   0  0  1  0  0  0  0  0  0  0  0  0
    5.3841   -0.6375    0.9335 C   0  0  0  0  0  0  0  0  0  0  0  0
    5.0496   -1.0127   -0.4962 C   0  0  0  0  0  0  0  0  0  0  0  0
    6.2832   -1.0170   -1.3795 C   0  0  0  0  0  0  0  0  0  0  0  0
    6.9039    0.3006   -1.4037 N   0  0  0  0  0  0  0  0  0  0  0  0
    8.0599    0.4804   -2.1997 C   0  0  0  0  0  0  0  0  0  0  0  0
    9.2443   -0.2350   -1.8905 N   0  0  0  0  0  0  0  0  0  0  0  0
    8.0654    1.2917   -3.2198 N   0  0  0  0  0  0  0  0  0  0  0  0
    4.3966   -0.2007    3.1122 C   0  0  0  0  0  0  0  0  0  0  0  0
    3.9074    0.8306    3.5295 O   0  0  0  0  0  0  0  0  0  0  0  0
    5.2690   -0.9585    4.0255 C   0  0  0  0  0  0  0  0  0  0  0  0
    4.8765   -2.2898    4.1663 F   0  0  0  0  0  0  0  0  0  0  0  0
    5.2030   -0.4396    5.3276 F   0  0  0  0  0  0  0  0  0  0  0  0
    6.5999   -0.9531    3.6961 F   0  0  0  0  0  0  0  0  0  0  0  0
    0.2735    2.4958    2.2629 H   0  0  0  0  0  0  0  0  0  0  0  0
    0.5699    4.0986    1.5490 H   0  0  0  0  0  0  0  0  0  0  0  0
    1.9826    3.1749    2.1023 H   0  0  0  0  0  0  0  0  0  0  0  0
    0.0943    2.8450   -0.2603 H   0  0  0  0  0  0  0  0  0  0  0  0
    2.6378    2.0092   -1.0880 H   0  0  0  0  0  0  0  0  0  0  0  0
    2.9296    3.3537    0.0488 H   0  0  0  0  0  0  0  0  0  0  0  0
    1.8432    3.5925   -1.4105 H   0  0  0  0  0  0  0  0  0  0  0  0
    0.8185    0.6749   -0.8753 H   0  0  0  0  0  0  0  0  0  0  0  0
   -0.7101    0.7786    1.7277 H   0  0  0  0  0  0  0  0  0  0  0  0
   -3.3137    0.6279    0.6903 H   0  0  0  0  0  0  0  0  0  0  0  0
   -3.1880   -1.7991   -1.0853 H   0  0  0  0  0  0  0  0  0  0  0  0
   -6.1911    0.5673   -3.3984 H   0  0  0  0  0  0  0  0  0  0  0  0
   -6.7771   -1.0542   -3.7809 H   0  0  0  0  0  0  0  0  0  0  0  0
   -7.0057   -1.6190   -0.5653 H   0  0  0  0  0  0  0  0  0  0  0  0
   -9.0364   -1.2739    0.8817 H   0  0  0  0  0  0  0  0  0  0  0  0
  -10.7210    0.2744    0.1765 H   0  0  0  0  0  0  0  0  0  0  0  0
  -10.5363    1.5522   -1.9302 H   0  0  0  0  0  0  0  0  0  0  0  0
   -8.5258    1.1950   -3.3391 H   0  0  0  0  0  0  0  0  0  0  0  0
   -2.1269   -0.6203    2.3513 H   0  0  0  0  0  0  0  0  0  0  0  0
   -1.7292   -2.6808    0.3649 H   0  0  0  0  0  0  0  0  0  0  0  0
   -2.7632   -3.3132    1.7511 H   0  0  0  0  0  0  0  0  0  0  0  0
   -1.1625   -2.6349    2.0536 H   0  0  0  0  0  0  0  0  0  0  0  0
   -4.4958   -2.3447    2.3286 H   0  0  0  0  0  0  0  0  0  0  0  0
   -4.8547   -0.6426    1.6941 H   0  0  0  0  0  0  0  0  0  0  0  0
   -4.1435   -0.9019    3.2872 H   0  0  0  0  0  0  0  0  0  0  0  0
    3.6157    1.2661    0.9213 H   0  0  0  0  0  0  0  0  0  0  0  0
    3.5748   -1.5908    1.7341 H   0  0  0  0  0  0  0  0  0  0  0  0
    5.8231    0.3584    0.9332 H   0  0  0  0  0  0  0  0  0  0  0  0
    6.1058   -1.3779    1.3274 H   0  0  0  0  0  0  0  0  0  0  0  0
    4.5629   -1.9937   -0.5988 H   0  0  0  0  0  0  0  0  0  0  0  0
    4.3669   -0.2259   -0.8859 H   0  0  0  0  0  0  0  0  0  0  0  0
    5.9390   -1.1979   -2.4234 H   0  0  0  0  0  0  0  0  0  0  0  0
    6.9940   -1.8247   -1.1264 H   0  0  0  0  0  0  0  0  0  0  0  0
    6.4894    1.0920   -0.8387 H   0  0  0  0  0  0  0  0  0  0  0  0
    9.5994   -0.8952   -2.6146 H   0  0  0  0  0  0  0  0  0  0  0  0
    9.6864   -0.0677   -0.9766 H   0  0  0  0  0  0  0  0  0  0  0  0
    7.2545    1.8509   -3.5215 H   0  0  0  0  0  0  0  0  0  0  0  0
  1  2  1  0
  2  3  1  0
  2  4  1  0
  4  5  1  0
  5  6  1  0
  6  7  2  0
  6  8  1  0
  8  9  1  0
  9 10  1  0
 10 11  2  0
 10 12  1  0
 12 13  1  0
 13 14  1  0
 14 15  2  0
 15 16  1  0
 16 17  2  0
 17 18  1  0
 18 19  2  0
  8 20  1  0
 20 21  1  0
 20 22  1  0
  4 23  1  0
 23 24  2  0
 23 25  1  0
 25 26  1  0
 26 27  1  0
 27 28  1  0
 28 29  1  0
 29 30  1  0
 30 31  1  0
 31 32  1  0
 31 33  2  3
 26 34  1  0
 34 35  2  0
 34 36  1  0
 36 37  1  0
 36 38  1  0
 36 39  1  0
 19 14  1  0
  1 40  1  0
  1 41  1  0
  1 42  1  0
  2 43  1  0
  3 44  1  0
  3 45  1  0
  3 46  1  0
  4 47  1  6
  5 48  1  0
  8 49  1  1
  9 50  1  0
 13 51  1  0
 13 52  1  0
 15 53  1  0
 16 54  1  0
 17 55  1  0
 18 56  1  0
 19 57  1  0
 20 58  1  0
 21 59  1  0
 21 60  1  0
 21 61  1  0
 22 62  1  0
 22 63  1  0
 22 64  1  0
 25 65  1  0
 26 66  1  1
 27 67  1  0
 27 68  1  0
 28 69  1  0
 28 70  1  0
 29 71  1  0
 29 72  1  0
 30 73  1  0
 32 74  1  0
 32 75  1  0
 33 76  1  0
M  END
$$$$
[H]c1nc([H])c(C([H])([H])[C@]2([H])N3C([H])([H])C([H])([H])C([H])(C([H])([H])C3([H])[H])[C@@]2([H])N([H])C(=O)c2sc3c([H])c([H])c([H])c([H])c3c2[H])c([H])c1[H]
     RDKit          3D

 50 54  0  0  0  0  0  0  0  0999 V2000
    1.1470    1.5564    2.2692 O   0  0  0  0  0  0  0  0  0  0  0  0
    1.5114    0.7748    1.3565 C   0  0  0  0  0  0  0  0  0  0  0  0
    0.6518   -0.2357    0.9104 N   0  0  0  0  0  0  0  0  0  0  0  0
   -0.6708   -0.4300    1.4628 C   0  0  2  0  0  0  0  0  0  0  0  0
   -0.7574   -1.8239    2.0182 C   0  0  0  0  0  0  0  0  0  0  0  0
   -2.0119   -1.8873    2.8709 C   0  0  0  0  0  0  0  0  0  0  0  0
   -3.1506   -1.3707    2.0204 C   0  0  0  0  0  0  0  0  0  0  0  0
   -2.8128   -1.2812    0.6364 N   0  0  0  0  0  0  0  0  0  0  0  0
   -2.3091   -2.6052    0.2351 C   0  0  0  0  0  0  0  0  0  0  0  0
   -0.9449   -2.7742    0.8412 C   0  0  0  0  0  0  0  0  0  0  0  0
   -1.7347   -0.3533    0.3661 C   0  0  1  0  0  0  0  0  0  0  0  0
   -2.1792    1.0633    0.2550 C   0  0  0  0  0  0  0  0  0  0  0  0
   -3.2052    1.2995   -0.7618 C   0  0  0  0  0  0  0  0  0  0  0  0
   -2.8584    1.6143   -2.0517 C   0  0  0  0  0  0  0  0  0  0  0  0
   -3.8581    1.8276   -2.9734 C   0  0  0  0  0  0  0  0  0  0  0  0
   -5.1905    1.7324   -2.6307 C   0  0  0  0  0  0  0  0  0  0  0  0
   -5.4623    1.4209   -1.3513 N   0  0  0  0  0  0  0  0  0  0  0  0
   -4.5259    1.2051   -0.4218 C   0  0  0  0  0  0  0  0  0  0  0  0
    2.8652    0.9681    0.7862 C   0  0  0  0  0  0  0  0  0  0  0  0
    3.4615    0.2398   -0.2051 C   0  0  0  0  0  0  0  0  0  0  0  0
    4.7118    0.5941   -0.5715 C   0  0  0  0  0  0  0  0  0  0  0  0
    5.5164   -0.0088   -1.5634 C   0  0  0  0  0  0  0  0  0  0  0  0
    6.7715    0.4470   -1.8400 C   0  0  0  0  0  0  0  0  0  0  0  0
    7.3396    1.5115   -1.1843 C   0  0  0  0  0  0  0  0  0  0  0  0
    6.5655    2.1109   -0.2123 C   0  0  0  0  0  0  0  0  0  0  0  0
    5.2718    1.6548    0.0852 C   0  0  0  0  0  0  0  0  0  0  0  0
    4.0534    2.1222    1.1819 S   0  0  0  0  0  0  0  0  0  0  0  0
    1.0095   -0.8615    0.1419 H   0  0  0  0  0  0  0  0  0  0  0  0
   -0.8319    0.3437    2.2455 H   0  0  0  0  0  0  0  0  0  0  0  0
    0.0888   -2.1260    2.6290 H   0  0  0  0  0  0  0  0  0  0  0  0
   -2.1465   -2.9405    3.1804 H   0  0  0  0  0  0  0  0  0  0  0  0
   -1.8789   -1.2904    3.7948 H   0  0  0  0  0  0  0  0  0  0  0  0
   -3.5960   -0.4451    2.4342 H   0  0  0  0  0  0  0  0  0  0  0  0
   -3.9638   -2.1455    2.1017 H   0  0  0  0  0  0  0  0  0  0  0  0
   -2.9942   -3.3390    0.7132 H   0  0  0  0  0  0  0  0  0  0  0  0
   -2.3096   -2.7133   -0.8675 H   0  0  0  0  0  0  0  0  0  0  0  0
   -0.7736   -3.8114    1.2121 H   0  0  0  0  0  0  0  0  0  0  0  0
   -0.1945   -2.4874    0.0788 H   0  0  0  0  0  0  0  0  0  0  0  0
   -1.2778   -0.6621   -0.5957 H   0  0  0  0  0  0  0  0  0  0  0  0
   -1.2939    1.6791   -0.0066 H   0  0  0  0  0  0  0  0  0  0  0  0
   -2.5208    1.4601    1.2528 H   0  0  0  0  0  0  0  0  0  0  0  0
   -1.8020    1.6993   -2.3632 H   0  0  0  0  0  0  0  0  0  0  0  0
   -3.6290    2.0810   -4.0140 H   0  0  0  0  0  0  0  0  0  0  0  0
   -5.9691    1.9054   -3.3771 H   0  0  0  0  0  0  0  0  0  0  0  0
   -4.8115    0.9582    0.5898 H   0  0  0  0  0  0  0  0  0  0  0  0
    2.8916   -0.6049   -0.6598 H   0  0  0  0  0  0  0  0  0  0  0  0
    5.1730   -0.8521   -2.1417 H   0  0  0  0  0  0  0  0  0  0  0  0
    7.3732   -0.0268   -2.6027 H   0  0  0  0  0  0  0  0  0  0  0  0
    8.3328    1.8623   -1.4121 H   0  0  0  0  0  0  0  0  0  0  0  0
    6.9291    2.9444    0.3459 H   0  0  0  0  0  0  0  0  0  0  0  0
  1  2  2  0
  2  3  1  0
  3  4  1  0
  4  5  1  0
  5  6  1  0
  6  7  1  0
  7  8  1  0
  8  9  1  0
  9 10  1  0
  8 11  1  0
 11 12  1  0
 12 13  1  0
 13 14  2  0
 14 15  1  0
 15 16  2  0
 16 17  1  0
 17 18  2  0
  2 19  1  0
 19 20  2  0
 20 21  1  0
 21 22  2  0
 22 23  1  0
 23 24  2  0
 24 25  1  0
 25 26  2  0
 26 27  1  0
 11  4  1  0
 18 13  1  0
 27 19  1  0
 10  5  1  0
 26 21  1  0
  3 28  1  0
  4 29  1  1
  5 30  1  0
  6 31  1  0
  6 32  1  0
  7 33  1  0
  7 34  1  0
  9 35  1  0
  9 36  1  0
 10 37  1  0
 10 38  1  0
 11 39  1  6
 12 40  1  0
 12 41  1  0
 14 42  1  0
 15 43  1  0
 16 44  1  0
 18 45  1  0
 20 46  1  0
 22 47  1  0
 23 48  1  0
 24 49  1  0
 25 50  1  0
M  END
$$$$
[H]c1c([H])c(N2C([H])([H])C([H])([H])C([H])([H])C2([H])[H])c([H])c([H])c1N([H])C(=O)N1C([H])([H])C([H])([H])N(c2c([H])c([H])c([N+](=O)[O-])c([H])c2[H])C([H])([H])C1([H])[H]
     RDKit          3D

 54 57  0  0  0  0  0  0  0  0999 V2000
    9.3275    2.4516   -1.6046 O   0  0  0  0  0  0  0  0  0  0  0  0
    8.8278    2.1977   -0.3605 N   0  0  0  0  0  0  0  0  0  0  0  0
    9.3914    2.6669    0.6252 O   0  0  0  0  0  0  0  0  0  0  0  0
    7.6611    1.3903   -0.2525 C   0  0  0  0  0  0  0  0  0  0  0  0
    7.0346    0.8661   -1.3635 C   0  0  0  0  0  0  0  0  0  0  0  0
    5.8935    0.0779   -1.2354 C   0  0  0  0  0  0  0  0  0  0  0  0
    5.3309   -0.2219   -0.0234 C   0  0  0  0  0  0  0  0  0  0  0  0
    5.9823    0.3204    1.0967 C   0  0  0  0  0  0  0  0  0  0  0  0
    7.1091    1.0992    0.9747 C   0  0  0  0  0  0  0  0  0  0  0  0
    4.1754   -1.0153    0.1660 N   0  0  0  0  0  0  0  0  0  0  0  0
    3.6906   -1.2890    1.5171 C   0  0  0  0  0  0  0  0  0  0  0  0
    2.3828   -2.0523    1.4200 C   0  0  0  0  0  0  0  0  0  0  0  0
    1.5086   -1.4605    0.4280 N   0  0  0  0  0  0  0  0  0  0  0  0
    2.0106   -1.0607   -0.8550 C   0  0  0  0  0  0  0  0  0  0  0  0
    3.4622   -1.5636   -0.9506 C   0  0  0  0  0  0  0  0  0  0  0  0
    0.1052   -1.2584    0.7072 C   0  0  0  0  0  0  0  0  0  0  0  0
   -0.3155   -1.6202    1.8348 O   0  0  0  0  0  0  0  0  0  0  0  0
   -0.6942   -0.6809   -0.2763 N   0  0  0  0  0  0  0  0  0  0  0  0
   -2.0557   -0.4269   -0.1701 C   0  0  0  0  0  0  0  0  0  0  0  0
   -2.6401    0.4818   -1.0561 C   0  0  0  0  0  0  0  0  0  0  0  0
   -3.9829    0.7451   -1.0014 C   0  0  0  0  0  0  0  0  0  0  0  0
   -4.8318    0.1395   -0.0826 C   0  0  0  0  0  0  0  0  0  0  0  0
   -4.2274   -0.7482    0.7735 C   0  0  0  0  0  0  0  0  0  0  0  0
   -2.8638   -1.0363    0.7414 C   0  0  0  0  0  0  0  0  0  0  0  0
   -6.2136    0.4218   -0.0420 N   0  0  0  0  0  0  0  0  0  0  0  0
   -7.1550   -0.1341    0.8889 C   0  0  0  0  0  0  0  0  0  0  0  0
   -8.0000    1.0982    1.2467 C   0  0  0  0  0  0  0  0  0  0  0  0
   -7.9174    1.9726    0.0378 C   0  0  0  0  0  0  0  0  0  0  0  0
   -6.9420    1.3038   -0.9131 C   0  0  0  0  0  0  0  0  0  0  0  0
    7.4728    1.0982   -2.3236 H   0  0  0  0  0  0  0  0  0  0  0  0
    5.4765   -0.2853   -2.1436 H   0  0  0  0  0  0  0  0  0  0  0  0
    5.5658    0.1038    2.0649 H   0  0  0  0  0  0  0  0  0  0  0  0
    7.5915    1.5043    1.8502 H   0  0  0  0  0  0  0  0  0  0  0  0
    3.4730   -0.3567    2.0661 H   0  0  0  0  0  0  0  0  0  0  0  0
    4.4069   -1.9106    2.0625 H   0  0  0  0  0  0  0  0  0  0  0  0
    1.8876   -2.0444    2.4115 H   0  0  0  0  0  0  0  0  0  0  0  0
    2.6170   -3.1066    1.1713 H   0  0  0  0  0  0  0  0  0  0  0  0
    1.4148   -1.4802   -1.6962 H   0  0  0  0  0  0  0  0  0  0  0  0
    2.0696    0.0373   -0.8796 H   0  0  0  0  0  0  0  0  0  0  0  0
    3.4445   -2.6701   -0.7980 H   0  0  0  0  0  0  0  0  0  0  0  0
    3.8060   -1.2895   -1.9395 H   0  0  0  0  0  0  0  0  0  0  0  0
   -0.2288   -0.4091   -1.2008 H   0  0  0  0  0  0  0  0  0  0  0  0
   -1.9859    0.9701   -1.7874 H   0  0  0  0  0  0  0  0  0  0  0  0
   -4.4127    1.4522   -1.6981 H   0  0  0  0  0  0  0  0  0  0  0  0
   -4.8660   -1.2491    1.5144 H   0  0  0  0  0  0  0  0  0  0  0  0
   -2.5527   -1.7604    1.4680 H   0  0  0  0  0  0  0  0  0  0  0  0
   -7.7962   -0.9028    0.3967 H   0  0  0  0  0  0  0  0  0  0  0  0
   -6.7307   -0.5524    1.8046 H   0  0  0  0  0  0  0  0  0  0  0  0
   -7.4342    1.6200    2.0671 H   0  0  0  0  0  0  0  0  0  0  0  0
   -9.0072    0.8283    1.5619 H   0  0  0  0  0  0  0  0  0  0  0  0
   -8.9342    2.0390   -0.4031 H   0  0  0  0  0  0  0  0  0  0  0  0
   -7.5178    2.9892    0.2429 H   0  0  0  0  0  0  0  0  0  0  0  0
   -7.4897    0.6514   -1.6357 H   0  0  0  0  0  0  0  0  0  0  0  0
   -6.3239    2.0588   -1.4323 H   0  0  0  0  0  0  0  0  0  0  0  0
  1  2  1  0
  2  3  2  0
  2  4  1  0
  4  5  2  0
  5  6  1  0
  6  7  2  0
  7  8  1  0
  8  9  2  0
  7 10  1  0
 10 11  1  0
 11 12  1  0
 12 13  1  0
 13 14  1  0
 14 15  1  0
 13 16  1  0
 16 17  2  0
 16 18  1  0
 18 19  1  0
 19 20  2  0
 20 21  1  0
 21 22  2  0
 22 23  1  0
 23 24  2  0
 22 25  1  0
 25 26  1  0
 26 27  1  0
 27 28  1  0
 28 29  1  0
  9  4  1  0
 15 10  1  0
 24 19  1  0
 29 25  1  0
  5 30  1  0
  6 31  1  0
  8 32  1  0
  9 33  1  0
 11 34  1  0
 11 35  1  0
 12 36  1  0
 12 37  1  0
 14 38  1  0
 14 39  1  0
 15 40  1  0
 15 41  1  0
 18 42  1  0
 20 43  1  0
 21 44  1  0
 23 45  1  0
 24 46  1  0
 26 47  1  0
 26 48  1  0
 27 49  1  0
 27 50  1  0
 28 51  1  0
 28 52  1  0
 29 53  1  0
 29 54  1  0
M  CHG  2   1  -1   2   1
M  END
$$$$
[H]ON(C([H])=O)C([H])([H])[C@]([H])(C(=O)N1C([H])([H])C([H])([H])C([H])([H])[C@@]1([H])C#N)C([H])([H])C1([H])C([H])([H])C([H])([H])C([H])([H])C1([H])[H]
     RDKit          3D

 44 45  0  0  0  0  0  0  0  0999 V2000
    0.0280    2.7947    1.9041 O   0  0  0  0  0  0  0  0  0  0  0  0
    0.3041    2.6059    0.5895 N   0  0  0  0  0  0  0  0  0  0  0  0
   -0.5253    1.6508   -0.1166 C   0  0  0  0  0  0  0  0  0  0  0  0
   -0.1278    0.2473   -0.0865 C   0  0  1  0  0  0  0  0  0  0  0  0
   -0.9755   -0.6899   -0.8543 C   0  0  0  0  0  0  0  0  0  0  0  0
   -2.3998   -0.8655   -0.5051 C   0  0  0  0  0  0  0  0  0  0  0  0
   -3.3383    0.2373   -0.5762 C   0  0  0  0  0  0  0  0  0  0  0  0
   -4.6719   -0.3548   -1.0451 C   0  0  0  0  0  0  0  0  0  0  0  0
   -4.4777   -1.8571   -0.9442 C   0  0  0  0  0  0  0  0  0  0  0  0
   -3.0169   -2.0072   -1.3115 C   0  0  0  0  0  0  0  0  0  0  0  0
    1.2783    0.0700   -0.6048 C   0  0  0  0  0  0  0  0  0  0  0  0
    1.3657    0.0922   -1.8726 O   0  0  0  0  0  0  0  0  0  0  0  0
    2.4040   -0.1057    0.2241 N   0  0  0  0  0  0  0  0  0  0  0  0
    3.7657   -0.2512   -0.2684 C   0  0  0  0  0  0  0  0  0  0  0  0
    4.1644   -1.5638    0.3731 C   0  0  0  0  0  0  0  0  0  0  0  0
    3.4740   -1.4985    1.7182 C   0  0  0  0  0  0  0  0  0  0  0  0
    2.5761   -0.2374    1.6534 C   0  0  1  0  0  0  0  0  0  0  0  0
    3.3179    0.8857    2.2160 C   0  0  0  0  0  0  0  0  0  0  0  0
    3.9131    1.7859    2.6648 N   0  0  0  0  0  0  0  0  0  0  0  0
    1.3752    3.3388    0.0413 C   0  0  0  0  0  0  0  0  0  0  0  0
    1.7673    3.3089   -1.1498 O   0  0  0  0  0  0  0  0  0  0  0  0
    0.1281    3.7297    2.1902 H   0  0  0  0  0  0  0  0  0  0  0  0
   -1.5550    1.8341    0.2876 H   0  0  0  0  0  0  0  0  0  0  0  0
   -0.6056    2.0323   -1.1805 H   0  0  0  0  0  0  0  0  0  0  0  0
   -0.1430   -0.1701    0.9838 H   0  0  0  0  0  0  0  0  0  0  0  0
   -0.4658   -1.7170   -0.9467 H   0  0  0  0  0  0  0  0  0  0  0  0
   -0.9724   -0.3878   -1.9691 H   0  0  0  0  0  0  0  0  0  0  0  0
   -2.4019   -1.2856    0.5689 H   0  0  0  0  0  0  0  0  0  0  0  0
   -3.5090    0.6967    0.4368 H   0  0  0  0  0  0  0  0  0  0  0  0
   -3.0808    1.0211   -1.3178 H   0  0  0  0  0  0  0  0  0  0  0  0
   -5.4968   -0.0026   -0.3903 H   0  0  0  0  0  0  0  0  0  0  0  0
   -4.8290   -0.1337   -2.1124 H   0  0  0  0  0  0  0  0  0  0  0  0
   -4.5731   -2.1251    0.1288 H   0  0  0  0  0  0  0  0  0  0  0  0
   -5.1452   -2.4133   -1.6038 H   0  0  0  0  0  0  0  0  0  0  0  0
   -2.8940   -1.7240   -2.3774 H   0  0  0  0  0  0  0  0  0  0  0  0
   -2.5946   -2.9790   -1.0616 H   0  0  0  0  0  0  0  0  0  0  0  0
    4.4373    0.5259    0.1932 H   0  0  0  0  0  0  0  0  0  0  0  0
    3.8295   -0.2639   -1.3631 H   0  0  0  0  0  0  0  0  0  0  0  0
    3.7076   -2.3792   -0.2489 H   0  0  0  0  0  0  0  0  0  0  0  0
    5.2629   -1.6766    0.4609 H   0  0  0  0  0  0  0  0  0  0  0  0
    2.8375   -2.3989    1.8928 H   0  0  0  0  0  0  0  0  0  0  0  0
    4.2049   -1.3230    2.5066 H   0  0  0  0  0  0  0  0  0  0  0  0
    1.6794   -0.4779    2.2110 H   0  0  0  0  0  0  0  0  0  0  0  0
    1.9786    4.0313    0.6615 H   0  0  0  0  0  0  0  0  0  0  0  0
  1  2  1  0
  2  3  1  0
  3  4  1  0
  4  5  1  0
  5  6  1  0
  6  7  1  0
  7  8  1  0
  8  9  1  0
  9 10  1  0
  4 11  1  0
 11 12  2  0
 11 13  1  0
 13 14  1  0
 14 15  1  0
 15 16  1  0
 16 17  1  0
 17 18  1  0
 18 19  3  0
  2 20  1  0
 20 21  2  0
 10  6  1  0
 17 13  1  0
  1 22  1  0
  3 23  1  0
  3 24  1  0
  4 25  1  1
  5 26  1  0
  5 27  1  0
  6 28  1  0
  7 29  1  0
  7 30  1  0
  8 31  1  0
  8 32  1  0
  9 33  1  0
  9 34  1  0
 10 35  1  0
 10 36  1  0
 14 37  1  0
 14 38  1  0
 15 39  1  0
 15 40  1  0
 16 41  1  0
 16 42  1  0
 17 43  1  1
 20 44  1  0
M  END
$$$$
[H]c1c([H])c([H])c(N2C([H])([H])C([H])([H])N(C([H])([H])C([H])([H])C([H])([H])C([H])([H])N3C(=O)c4c([H])c([H])c([H])c([H])c4C3=O)C([H])([H])C2([H])[H])c(OC([H])([H])[H])c1[H]
     RDKit          3D

 56 59  0  0  0  0  0  0  0  0999 V2000
   -5.4903   -3.1511    0.2717 C   0  0  0  0  0  0  0  0  0  0  0  0
   -4.8270   -1.9065    0.1627 O   0  0  0  0  0  0  0  0  0  0  0  0
   -5.5459   -0.7373   -0.0416 C   0  0  0  0  0  0  0  0  0  0  0  0
   -6.9178   -0.7263   -0.1468 C   0  0  0  0  0  0  0  0  0  0  0  0
   -7.5975    0.4329   -0.3468 C   0  0  0  0  0  0  0  0  0  0  0  0
   -6.9014    1.6415   -0.4493 C   0  0  0  0  0  0  0  0  0  0  0  0
   -5.5246    1.6181   -0.3422 C   0  0  0  0  0  0  0  0  0  0  0  0
   -4.8218    0.4530   -0.1395 C   0  0  0  0  0  0  0  0  0  0  0  0
   -3.4074    0.4790   -0.0307 N   0  0  0  0  0  0  0  0  0  0  0  0
   -2.7409    0.0377    1.1693 C   0  0  0  0  0  0  0  0  0  0  0  0
   -1.6368    0.9439    1.6085 C   0  0  0  0  0  0  0  0  0  0  0  0
   -0.9586    1.6376    0.5880 N   0  0  0  0  0  0  0  0  0  0  0  0
    0.4419    1.3814    0.5463 C   0  0  0  0  0  0  0  0  0  0  0  0
    0.6818   -0.0453    0.1174 C   0  0  0  0  0  0  0  0  0  0  0  0
    2.1571   -0.3163    0.0732 C   0  0  0  0  0  0  0  0  0  0  0  0
    2.9300    0.5471   -0.8760 C   0  0  0  0  0  0  0  0  0  0  0  0
    4.3316    0.1183   -0.7590 N   0  0  0  0  0  0  0  0  0  0  0  0
    4.9785   -0.8957   -1.5177 C   0  0  0  0  0  0  0  0  0  0  0  0
    4.4667   -1.6186   -2.4360 O   0  0  0  0  0  0  0  0  0  0  0  0
    6.3645   -0.9491   -1.0340 C   0  0  0  0  0  0  0  0  0  0  0  0
    7.4475   -1.7337   -1.3949 C   0  0  0  0  0  0  0  0  0  0  0  0
    8.6803   -1.6084   -0.7922 C   0  0  0  0  0  0  0  0  0  0  0  0
    8.8818   -0.6798    0.2099 C   0  0  0  0  0  0  0  0  0  0  0  0
    7.8144    0.1084    0.5809 C   0  0  0  0  0  0  0  0  0  0  0  0
    6.5659   -0.0220   -0.0328 C   0  0  0  0  0  0  0  0  0  0  0  0
    5.2884    0.6575    0.1485 C   0  0  0  0  0  0  0  0  0  0  0  0
    5.0637    1.5713    0.9714 O   0  0  0  0  0  0  0  0  0  0  0  0
   -1.6002    1.9070   -0.6190 C   0  0  0  0  0  0  0  0  0  0  0  0
   -2.6167    0.9462   -1.1236 C   0  0  0  0  0  0  0  0  0  0  0  0
   -4.7834   -3.9799    0.0625 H   0  0  0  0  0  0  0  0  0  0  0  0
   -5.8379   -3.2371    1.3267 H   0  0  0  0  0  0  0  0  0  0  0  0
   -6.3262   -3.2681   -0.4526 H   0  0  0  0  0  0  0  0  0  0  0  0
   -7.4955   -1.6433   -0.0730 H   0  0  0  0  0  0  0  0  0  0  0  0
   -8.6710    0.5060   -0.4370 H   0  0  0  0  0  0  0  0  0  0  0  0
   -7.4610    2.5766   -0.6113 H   0  0  0  0  0  0  0  0  0  0  0  0
   -4.9984    2.5800   -0.4258 H   0  0  0  0  0  0  0  0  0  0  0  0
   -3.5015    0.0009    1.9757 H   0  0  0  0  0  0  0  0  0  0  0  0
   -2.4079   -1.0108    0.9991 H   0  0  0  0  0  0  0  0  0  0  0  0
   -0.9082    0.3391    2.1861 H   0  0  0  0  0  0  0  0  0  0  0  0
   -2.0189    1.7131    2.3465 H   0  0  0  0  0  0  0  0  0  0  0  0
    1.0184    2.1275   -0.0397 H   0  0  0  0  0  0  0  0  0  0  0  0
    0.8156    1.4348    1.6129 H   0  0  0  0  0  0  0  0  0  0  0  0
    0.2638   -0.7028    0.9063 H   0  0  0  0  0  0  0  0  0  0  0  0
    0.1812   -0.2055   -0.8593 H   0  0  0  0  0  0  0  0  0  0  0  0
    2.2865   -1.3972   -0.1733 H   0  0  0  0  0  0  0  0  0  0  0  0
    2.5499   -0.0995    1.0996 H   0  0  0  0  0  0  0  0  0  0  0  0
    2.5853    0.4796   -1.9188 H   0  0  0  0  0  0  0  0  0  0  0  0
    2.9087    1.5917   -0.5652 H   0  0  0  0  0  0  0  0  0  0  0  0
    7.2808   -2.4704   -2.1932 H   0  0  0  0  0  0  0  0  0  0  0  0
    9.5276   -2.2206   -1.0725 H   0  0  0  0  0  0  0  0  0  0  0  0
    9.8418   -0.5548    0.7061 H   0  0  0  0  0  0  0  0  0  0  0  0
    7.9560    0.8370    1.3612 H   0  0  0  0  0  0  0  0  0  0  0  0
   -0.8089    1.9765   -1.4279 H   0  0  0  0  0  0  0  0  0  0  0  0
   -2.0962    2.9194   -0.5456 H   0  0  0  0  0  0  0  0  0  0  0  0
   -2.1691    0.1100   -1.7238 H   0  0  0  0  0  0  0  0  0  0  0  0
   -3.2388    1.5071   -1.8825 H   0  0  0  0  0  0  0  0  0  0  0  0
  1  2  1  0
  2  3  1  0
  3  4  2  0
  4  5  1  0
  5  6  2  0
  6  7  1  0
  7  8  2  0
  8  9  1  0
  9 10  1  0
 10 11  1  0
 11 12  1  0
 12 13  1  0
 13 14  1  0
 14 15  1  0
 15 16  1  0
 16 17  1  0
 17 18  1  0
 18 19  2  0
 18 20  1  0
 20 21  2  0
 21 22  1  0
 22 23  2  0
 23 24  1  0
 24 25  2  0
 25 26  1  0
 26 27  2  0
 12 28  1  0
 28 29  1  0
  8  3  1  0
 29  9  1  0
 26 17  1  0
 25 20  1  0
  1 30  1  0
  1 31  1  0
  1 32  1  0
  4 33  1  0
  5 34  1  0
  6 35  1  0
  7 36  1  0
 10 37  1  0
 10 38  1  0
 11 39  1  0
 11 40  1  0
 13 41  1  0
 13 42  1  0
 14 43  1  0
 14 44  1  0
 15 45  1  0
 15 46  1  0
 16 47  1  0
 16 48  1  0
 21 49  1  0
 22 50  1  0
 23 51  1  0
 24 52  1  0
 28 53  1  0
 28 54  1  0
 29 55  1  0
 29 56  1  0
M  END
$$$$
[H]c1nc(N([H])c2c([H])c([H])c([H])c(S(=O)(=O)N([H])[H])c2[H])nc(-c2c([H])c([H])c(C#N)c([H])c2[H])c1[H]
     RDKit          3D

 38 40  0  0  0  0  0  0  0  0999 V2000
    6.5136    0.7665   -1.4508 N   0  0  0  0  0  0  0  0  0  0  0  0
    5.8271    1.9069   -0.3263 S   0  0  0  0  0  0  0  0  0  0  0  0
    5.3994    3.0964   -1.1031 O   0  0  0  0  0  0  0  0  0  0  0  0
    6.9273    2.2928    0.6144 O   0  0  0  0  0  0  0  0  0  0  0  0
    4.5340    1.1767    0.5850 C   0  0  0  0  0  0  0  0  0  0  0  0
    4.8422    0.5429    1.7809 C   0  0  0  0  0  0  0  0  0  0  0  0
    3.8383   -0.0379    2.5135 C   0  0  0  0  0  0  0  0  0  0  0  0
    2.5050   -0.0109    2.0896 C   0  0  0  0  0  0  0  0  0  0  0  0
    2.2023    0.6119    0.9125 C   0  0  0  0  0  0  0  0  0  0  0  0
    0.9003    0.6663    0.3931 N   0  0  0  0  0  0  0  0  0  0  0  0
   -0.1578   -0.2303    0.6448 C   0  0  0  0  0  0  0  0  0  0  0  0
   -0.0499   -1.2901    1.4206 N   0  0  0  0  0  0  0  0  0  0  0  0
   -0.9832   -2.1824    1.7134 C   0  0  0  0  0  0  0  0  0  0  0  0
   -2.2371   -1.9735    1.1267 C   0  0  0  0  0  0  0  0  0  0  0  0
   -2.4143   -0.8856    0.3070 C   0  0  0  0  0  0  0  0  0  0  0  0
   -1.3821   -0.0353    0.0782 N   0  0  0  0  0  0  0  0  0  0  0  0
   -3.7126   -0.6679   -0.3015 C   0  0  0  0  0  0  0  0  0  0  0  0
   -4.7611   -1.4904   -0.0978 C   0  0  0  0  0  0  0  0  0  0  0  0
   -6.0053   -1.2446   -0.7068 C   0  0  0  0  0  0  0  0  0  0  0  0
   -6.1283   -0.1399   -1.5191 C   0  0  0  0  0  0  0  0  0  0  0  0
   -5.0809    0.7086   -1.7413 C   0  0  0  0  0  0  0  0  0  0  0  0
   -3.8733    0.4291   -1.1217 C   0  0  0  0  0  0  0  0  0  0  0  0
   -7.3932    0.1159   -2.1424 C   0  0  0  0  0  0  0  0  0  0  0  0
   -8.4130    0.3138   -2.6556 N   0  0  0  0  0  0  0  0  0  0  0  0
    3.2400    1.2125    0.1558 C   0  0  0  0  0  0  0  0  0  0  0  0
    7.4705    1.0739   -1.7330 H   0  0  0  0  0  0  0  0  0  0  0  0
    6.6691   -0.1226   -0.8940 H   0  0  0  0  0  0  0  0  0  0  0  0
    5.8756    0.5261    2.1022 H   0  0  0  0  0  0  0  0  0  0  0  0
    4.0696   -0.5364    3.4511 H   0  0  0  0  0  0  0  0  0  0  0  0
    1.7530   -0.4830    2.7447 H   0  0  0  0  0  0  0  0  0  0  0  0
    0.6745    1.4910   -0.2783 H   0  0  0  0  0  0  0  0  0  0  0  0
   -0.7940   -3.0126    2.3580 H   0  0  0  0  0  0  0  0  0  0  0  0
   -2.9816   -2.7086    1.3765 H   0  0  0  0  0  0  0  0  0  0  0  0
   -4.7175   -2.3581    0.5215 H   0  0  0  0  0  0  0  0  0  0  0  0
   -6.8504   -1.8950   -0.5514 H   0  0  0  0  0  0  0  0  0  0  0  0
   -5.2252    1.5658   -2.3888 H   0  0  0  0  0  0  0  0  0  0  0  0
   -3.0456    1.1072   -1.3025 H   0  0  0  0  0  0  0  0  0  0  0  0
    2.9645    1.7007   -0.7764 H   0  0  0  0  0  0  0  0  0  0  0  0
  1  2  1  0
  2  3  2  0
  2  4  2  0
  2  5  1  0
  5  6  2  0
  6  7  1  0
  7  8  2  0
  8  9  1  0
  9 10  1  0
 10 11  1  0
 11 12  2  0
 12 13  1  0
 13 14  2  0
 14 15  1  0
 15 16  2  0
 15 17  1  0
 17 18  2  0
 18 19  1  0
 19 20  2  0
 20 21  1  0
 21 22  2  0
 20 23  1  0
 23 24  3  0
  9 25  2  0
 25  5  1  0
 16 11  1  0
 22 17  1  0
  1 26  1  0
  1 27  1  0
  6 28  1  0
  7 29  1  0
  8 30  1  0
 10 31  1  0
 13 32  1  0
 14 33  1  0
 18 34  1  0
 19 35  1  0
 21 36  1  0
 22 37  1  0
 25 38  1  0
M  END
$$$$
[H]c1nc(N2C([H])([H])C([H])([H])N(C([H])([H])[H])C([H])([H])C2([H])[H])c([H])c([H])c1N([H])c1nc([H])c2c([H])c(-c3c(Cl)c([H])c([H])c([H])c3Cl)c(=O)n(C([H])([H])[H])c2n1
     RDKit          3D

 57 61  0  0  0  0  0  0  0  0999 V2000
    9.2417    0.5611    0.8474 C   0  0  0  0  0  0  0  0  0  0  0  0
    8.1152    1.1542    0.2070 N   0  0  0  0  0  0  0  0  0  0  0  0
    7.6855    0.4805   -0.9909 C   0  0  0  0  0  0  0  0  0  0  0  0
    6.6591   -0.5699   -0.7531 C   0  0  0  0  0  0  0  0  0  0  0  0
    5.6435   -0.1360    0.1745 N   0  0  0  0  0  0  0  0  0  0  0  0
    6.0431    0.4921    1.3901 C   0  0  0  0  0  0  0  0  0  0  0  0
    7.0618    1.5666    1.0596 C   0  0  0  0  0  0  0  0  0  0  0  0
    4.2817   -0.3385   -0.1398 C   0  0  0  0  0  0  0  0  0  0  0  0
    3.2656   -0.1283    0.7519 C   0  0  0  0  0  0  0  0  0  0  0  0
    1.9270   -0.3397    0.3806 C   0  0  0  0  0  0  0  0  0  0  0  0
    1.5687   -0.7595   -0.8695 C   0  0  0  0  0  0  0  0  0  0  0  0
    0.2503   -0.9678   -1.3052 N   0  0  0  0  0  0  0  0  0  0  0  0
   -0.9543   -0.5803   -0.7208 C   0  0  0  0  0  0  0  0  0  0  0  0
   -1.1071    0.0974    0.4073 N   0  0  0  0  0  0  0  0  0  0  0  0
   -2.2832    0.4592    0.9470 C   0  0  0  0  0  0  0  0  0  0  0  0
   -3.4537    0.1120    0.2976 C   0  0  0  0  0  0  0  0  0  0  0  0
   -4.6970    0.4428    0.7811 C   0  0  0  0  0  0  0  0  0  0  0  0
   -5.8543    0.0758    0.0991 C   0  0  0  0  0  0  0  0  0  0  0  0
   -7.1720    0.4286    0.6154 C   0  0  0  0  0  0  0  0  0  0  0  0
   -7.8130    1.5853    0.2977 C   0  0  0  0  0  0  0  0  0  0  0  0
   -7.0367    2.7160   -0.7794 Cl  0  0  0  0  0  0  0  0  0  0  0  0
   -9.0490    1.8656    0.8113 C   0  0  0  0  0  0  0  0  0  0  0  0
   -9.6393    0.9685    1.6519 C   0  0  0  0  0  0  0  0  0  0  0  0
   -9.0224   -0.2139    1.9976 C   0  0  0  0  0  0  0  0  0  0  0  0
   -7.7790   -0.4731    1.4678 C   0  0  0  0  0  0  0  0  0  0  0  0
   -6.9926   -1.9739    1.9048 Cl  0  0  0  0  0  0  0  0  0  0  0  0
   -5.6704   -0.6291   -1.0727 C   0  0  0  0  0  0  0  0  0  0  0  0
   -6.7298   -0.9671   -1.7006 O   0  0  0  0  0  0  0  0  0  0  0  0
   -4.4515   -0.9508   -1.5425 N   0  0  0  0  0  0  0  0  0  0  0  0
   -4.3171   -1.6940   -2.7814 C   0  0  0  0  0  0  0  0  0  0  0  0
   -3.3308   -0.5914   -0.8754 C   0  0  0  0  0  0  0  0  0  0  0  0
   -2.1315   -0.9144   -1.3486 N   0  0  0  0  0  0  0  0  0  0  0  0
    2.6513   -0.9598   -1.7433 C   0  0  0  0  0  0  0  0  0  0  0  0
    3.9211   -0.7599   -1.3928 N   0  0  0  0  0  0  0  0  0  0  0  0
    9.1409    0.4382    1.9439 H   0  0  0  0  0  0  0  0  0  0  0  0
    9.5841   -0.3938    0.3659 H   0  0  0  0  0  0  0  0  0  0  0  0
   10.1077    1.2752    0.7168 H   0  0  0  0  0  0  0  0  0  0  0  0
    7.3450    1.1890   -1.7599 H   0  0  0  0  0  0  0  0  0  0  0  0
    8.6004   -0.0273   -1.4120 H   0  0  0  0  0  0  0  0  0  0  0  0
    6.1905   -0.8320   -1.7336 H   0  0  0  0  0  0  0  0  0  0  0  0
    7.0885   -1.5316   -0.3813 H   0  0  0  0  0  0  0  0  0  0  0  0
    6.4489   -0.2271    2.1407 H   0  0  0  0  0  0  0  0  0  0  0  0
    5.2030    1.0398    1.8858 H   0  0  0  0  0  0  0  0  0  0  0  0
    7.4986    1.8863    2.0311 H   0  0  0  0  0  0  0  0  0  0  0  0
    6.4827    2.4051    0.5919 H   0  0  0  0  0  0  0  0  0  0  0  0
    3.4384    0.1993    1.7684 H   0  0  0  0  0  0  0  0  0  0  0  0
    1.1719   -0.1647    1.1368 H   0  0  0  0  0  0  0  0  0  0  0  0
    0.1765   -1.5150   -2.2320 H   0  0  0  0  0  0  0  0  0  0  0  0
   -2.3783    1.0079    1.8620 H   0  0  0  0  0  0  0  0  0  0  0  0
   -4.7904    0.9880    1.6904 H   0  0  0  0  0  0  0  0  0  0  0  0
   -9.5676    2.7895    0.5611 H   0  0  0  0  0  0  0  0  0  0  0  0
  -10.6317    1.1986    2.0613 H   0  0  0  0  0  0  0  0  0  0  0  0
   -9.4812   -0.9205    2.6564 H   0  0  0  0  0  0  0  0  0  0  0  0
   -3.2645   -1.7623   -3.0801 H   0  0  0  0  0  0  0  0  0  0  0  0
   -4.9120   -1.2131   -3.5819 H   0  0  0  0  0  0  0  0  0  0  0  0
   -4.6923   -2.7285   -2.5608 H   0  0  0  0  0  0  0  0  0  0  0  0
    2.4102   -1.2924   -2.7444 H   0  0  0  0  0  0  0  0  0  0  0  0
  1  2  1  0
  2  3  1  0
  3  4  1  0
  4  5  1  0
  5  6  1  0
  6  7  1  0
  5  8  1  0
  8  9  2  0
  9 10  1  0
 10 11  2  0
 11 12  1  0
 12 13  1  0
 13 14  2  0
 14 15  1  0
 15 16  2  0
 16 17  1  0
 17 18  2  0
 18 19  1  0
 19 20  2  0
 20 21  1  0
 20 22  1  0
 22 23  2  0
 23 24  1  0
 24 25  2  0
 25 26  1  0
 18 27  1  0
 27 28  2  0
 27 29  1  0
 29 30  1  0
 29 31  1  0
 31 32  2  0
 11 33  1  0
 33 34  2  0
  7  2  1  0
 34  8  1  0
 32 13  1  0
 31 16  1  0
 25 19  1  0
  1 35  1  0
  1 36  1  0
  1 37  1  0
  3 38  1  0
  3 39  1  0
  4 40  1  0
  4 41  1  0
  6 42  1  0
  6 43  1  0
  7 44  1  0
  7 45  1  0
  9 46  1  0
 10 47  1  0
 12 48  1  0
 15 49  1  0
 17 50  1  0
 22 51  1  0
 23 52  1  0
 24 53  1  0
 30 54  1  0
 30 55  1  0
 30 56  1  0
 33 57  1  0
M  END
$$$$
