[H]c1nc(N([H])c2c([H])c([H])c(N3C([H])([H])C([H])([H])N(C(=O)N([H])c4c(Cl)c([H])c([H])c([H])c4Cl)C([H])([H])C3([H])[H])c([H])c2[H])nc(OC([H])([H])[H])c1-c1c([H])nn(C([H])([H])C([H])([H])C([H])([H])S(=O)(=O)C([H])([H])[H])c1[H]
     RDKit          3D

 76 80  0  0  0  0  0  0  0  0999 V2000
   -2.3697   -1.5201    2.2349 C   0  0  0  0  0  0  0  0  0  0  0  0
   -3.5669   -1.3167    1.5088 O   0  0  0  0  0  0  0  0  0  0  0  0
   -3.4845   -0.6958    0.2408 C   0  0  0  0  0  0  0  0  0  0  0  0
   -2.3152   -0.3102   -0.2620 N   0  0  0  0  0  0  0  0  0  0  0  0
   -2.1585    0.2766   -1.4398 C   0  0  0  0  0  0  0  0  0  0  0  0
   -0.9400    0.6905   -2.0046 N   0  0  0  0  0  0  0  0  0  0  0  0
    0.3632    0.5803   -1.4621 C   0  0  0  0  0  0  0  0  0  0  0  0
    0.6821    0.1941   -0.1952 C   0  0  0  0  0  0  0  0  0  0  0  0
    2.0161    0.1020    0.2352 C   0  0  0  0  0  0  0  0  0  0  0  0
    3.0698    0.3956   -0.5944 C   0  0  0  0  0  0  0  0  0  0  0  0
    2.7627    0.7886   -1.8789 C   0  0  0  0  0  0  0  0  0  0  0  0
    1.4562    0.8773   -2.2969 C   0  0  0  0  0  0  0  0  0  0  0  0
    4.4146    0.2956   -0.1385 N   0  0  0  0  0  0  0  0  0  0  0  0
    5.5531    0.5066   -0.9814 C   0  0  0  0  0  0  0  0  0  0  0  0
    6.5872   -0.5682   -0.5854 C   0  0  0  0  0  0  0  0  0  0  0  0
    7.0338   -0.1469    0.7157 N   0  0  0  0  0  0  0  0  0  0  0  0
    6.0224   -0.0265    1.7357 C   0  0  0  0  0  0  0  0  0  0  0  0
    4.6325   -0.0327    1.2493 C   0  0  0  0  0  0  0  0  0  0  0  0
    8.3908    0.1266    0.9443 C   0  0  0  0  0  0  0  0  0  0  0  0
    8.6870    0.4921    2.1353 O   0  0  0  0  0  0  0  0  0  0  0  0
    9.4238    0.0318   -0.0123 N   0  0  0  0  0  0  0  0  0  0  0  0
   10.7498    0.3469    0.3901 C   0  0  0  0  0  0  0  0  0  0  0  0
   11.5424   -0.6671    0.8790 C   0  0  0  0  0  0  0  0  0  0  0  0
   10.9462   -2.3076    1.0077 Cl  0  0  0  0  0  0  0  0  0  0  0  0
   12.8554   -0.3955    1.2851 C   0  0  0  0  0  0  0  0  0  0  0  0
   13.3242    0.9054    1.1809 C   0  0  0  0  0  0  0  0  0  0  0  0
   12.5460    1.9330    0.6944 C   0  0  0  0  0  0  0  0  0  0  0  0
   11.2521    1.6255    0.3024 C   0  0  0  0  0  0  0  0  0  0  0  0
   10.2454    2.9184   -0.3195 Cl  0  0  0  0  0  0  0  0  0  0  0  0
   -3.2974    0.4835   -2.1589 N   0  0  0  0  0  0  0  0  0  0  0  0
   -4.5067    0.1256   -1.7243 C   0  0  0  0  0  0  0  0  0  0  0  0
   -4.6356   -0.4809   -0.4981 C   0  0  0  0  0  0  0  0  0  0  0  0
   -5.9338   -0.8928    0.0328 C   0  0  0  0  0  0  0  0  0  0  0  0
   -6.2356   -2.0561    0.6680 C   0  0  0  0  0  0  0  0  0  0  0  0
   -7.5582   -2.0049    0.9741 N   0  0  0  0  0  0  0  0  0  0  0  0
   -8.0570   -0.8605    0.5480 N   0  0  0  0  0  0  0  0  0  0  0  0
   -9.4839   -0.5095    0.7355 C   0  0  0  0  0  0  0  0  0  0  0  0
  -10.1910   -1.0269   -0.4602 C   0  0  0  0  0  0  0  0  0  0  0  0
  -11.6512   -0.8512   -0.4887 C   0  0  0  0  0  0  0  0  0  0  0  0
  -12.2600    0.7895   -0.4379 S   0  0  0  0  0  0  0  0  0  0  0  0
  -11.8441    1.6458    1.0431 C   0  0  0  0  0  0  0  0  0  0  0  0
  -13.7756    0.7645   -0.5771 O   0  0  0  0  0  0  0  0  0  0  0  0
  -11.6688    1.5590   -1.6035 O   0  0  0  0  0  0  0  0  0  0  0  0
   -7.1047   -0.1545   -0.0297 C   0  0  0  0  0  0  0  0  0  0  0  0
   -1.6092   -1.9296    1.5262 H   0  0  0  0  0  0  0  0  0  0  0  0
   -2.0122   -0.5467    2.6242 H   0  0  0  0  0  0  0  0  0  0  0  0
   -2.5459   -2.2504    3.0489 H   0  0  0  0  0  0  0  0  0  0  0  0
   -1.0444    1.1535   -2.9792 H   0  0  0  0  0  0  0  0  0  0  0  0
   -0.0709   -0.0438    0.5138 H   0  0  0  0  0  0  0  0  0  0  0  0
    2.2447   -0.2096    1.2502 H   0  0  0  0  0  0  0  0  0  0  0  0
    3.5963    1.0234   -2.5320 H   0  0  0  0  0  0  0  0  0  0  0  0
    1.2453    1.1863   -3.3077 H   0  0  0  0  0  0  0  0  0  0  0  0
    6.0324    1.4770   -0.7209 H   0  0  0  0  0  0  0  0  0  0  0  0
    5.4129    0.3586   -2.0482 H   0  0  0  0  0  0  0  0  0  0  0  0
    5.9614   -1.5097   -0.5163 H   0  0  0  0  0  0  0  0  0  0  0  0
    7.3484   -0.6693   -1.3470 H   0  0  0  0  0  0  0  0  0  0  0  0
    6.2087    0.9060    2.3153 H   0  0  0  0  0  0  0  0  0  0  0  0
    6.2257   -0.8596    2.4725 H   0  0  0  0  0  0  0  0  0  0  0  0
    4.1980   -1.0403    1.4254 H   0  0  0  0  0  0  0  0  0  0  0  0
    3.9746    0.6644    1.8485 H   0  0  0  0  0  0  0  0  0  0  0  0
    9.2416   -0.2643   -1.0118 H   0  0  0  0  0  0  0  0  0  0  0  0
   13.4792   -1.1805    1.6674 H   0  0  0  0  0  0  0  0  0  0  0  0
   14.3536    1.1161    1.4995 H   0  0  0  0  0  0  0  0  0  0  0  0
   12.9832    2.9161    0.6450 H   0  0  0  0  0  0  0  0  0  0  0  0
   -5.4184    0.2850   -2.2873 H   0  0  0  0  0  0  0  0  0  0  0  0
   -5.6127   -2.8913    0.9137 H   0  0  0  0  0  0  0  0  0  0  0  0
   -9.8377   -0.9443    1.6763 H   0  0  0  0  0  0  0  0  0  0  0  0
   -9.4951    0.6216    0.7730 H   0  0  0  0  0  0  0  0  0  0  0  0
   -9.9025   -2.0898   -0.6791 H   0  0  0  0  0  0  0  0  0  0  0  0
   -9.7717   -0.4724   -1.3655 H   0  0  0  0  0  0  0  0  0  0  0  0
  -12.0672   -1.4438    0.3827 H   0  0  0  0  0  0  0  0  0  0  0  0
  -12.0628   -1.3735   -1.4043 H   0  0  0  0  0  0  0  0  0  0  0  0
  -12.7713    2.2053    1.3873 H   0  0  0  0  0  0  0  0  0  0  0  0
  -11.0413    2.3944    0.8578 H   0  0  0  0  0  0  0  0  0  0  0  0
  -11.5551    0.9607    1.8710 H   0  0  0  0  0  0  0  0  0  0  0  0
   -7.2057    0.8202   -0.4730 H   0  0  0  0  0  0  0  0  0  0  0  0
  1  2  1  0
  2  3  1  0
  3  4  2  0
  4  5  1  0
  5  6  1  0
  6  7  1  0
  7  8  2  0
  8  9  1  0
  9 10  2  0
 10 11  1  0
 11 12  2  0
 10 13  1  0
 13 14  1  0
 14 15  1  0
 15 16  1  0
 16 17  1  0
 17 18  1  0
 16 19  1  0
 19 20  2  0
 19 21  1  0
 21 22  1  0
 22 23  2  0
 23 24  1  0
 23 25  1  0
 25 26  2  0
 26 27  1  0
 27 28  2  0
 28 29  1  0
  5 30  2  0
 30 31  1  0
 31 32  2  0
 32 33  1  0
 33 34  1  0
 34 35  2  0
 35 36  1  0
 36 37  1  0
 37 38  1  0
 38 39  1  0
 39 40  1  0
 40 41  1  0
 40 42  2  0
 40 43  2  0
 36 44  1  0
 32  3  1  0
 44 33  2  0
 12  7  1  0
 18 13  1  0
 28 22  1  0
  1 45  1  0
  1 46  1  0
  1 47  1  0
  6 48  1  0
  8 49  1  0
  9 50  1  0
 11 51  1  0
 12 52  1  0
 14 53  1  0
 14 54  1  0
 15 55  1  0
 15 56  1  0
 17 57  1  0
 17 58  1  0
 18 59  1  0
 18 60  1  0
 21 61  1  0
 25 62  1  0
 26 63  1  0
 27 64  1  0
 31 65  1  0
 34 66  1  0
 37 67  1  0
 37 68  1  0
 38 69  1  0
 38 70  1  0
 39 71  1  0
 39 72  1  0
 41 73  1  0
 41 74  1  0
 41 75  1  0
 44 76  1  0
M  END
$$$$
[H]c1nc2c(-c3c([H])c([H])c(OC([H])([H])C([H])([H])Oc4c([H])c([H])c([H])c(C(F)(F)F)c4[H])c([H])c3[H])c([H])nn2c(N([H])[H])c1-c1c([H])c([H])c([H])c(N([H])C(=O)c2c([H])c([H])c(C([H])([H])N(C([H])([H])[H])C([H])([H])[H])c([H])c2[H])c1C([H])([H])[H]
     RDKit          3D

 85 90  0  0  0  0  0  0  0  0999 V2000
  -12.6209   -0.5407   -0.1446 C   0  0  0  0  0  0  0  0  0  0  0  0
  -12.3227   -0.5074   -1.5595 N   0  0  0  0  0  0  0  0  0  0  0  0
  -11.3934   -1.6085   -1.8223 C   0  0  0  0  0  0  0  0  0  0  0  0
  -11.7513    0.7560   -1.9988 C   0  0  0  0  0  0  0  0  0  0  0  0
  -10.4314    0.9564   -1.3579 C   0  0  0  0  0  0  0  0  0  0  0  0
   -9.2640    0.5623   -1.9671 C   0  0  0  0  0  0  0  0  0  0  0  0
   -8.0817    0.6576   -1.2737 C   0  0  0  0  0  0  0  0  0  0  0  0
   -8.0613    1.1439    0.0053 C   0  0  0  0  0  0  0  0  0  0  0  0
   -9.2379    1.5581    0.6245 C   0  0  0  0  0  0  0  0  0  0  0  0
  -10.4324    1.4520   -0.0871 C   0  0  0  0  0  0  0  0  0  0  0  0
   -6.8235    1.0216    0.8428 C   0  0  0  0  0  0  0  0  0  0  0  0
   -6.9240    1.7146    1.9191 O   0  0  0  0  0  0  0  0  0  0  0  0
   -5.8362    0.2483    0.4227 N   0  0  0  0  0  0  0  0  0  0  0  0
   -4.8010   -0.5581   -0.0072 C   0  0  0  0  0  0  0  0  0  0  0  0
   -5.1405   -1.8972   -0.2595 C   0  0  0  0  0  0  0  0  0  0  0  0
   -4.2197   -2.7792   -0.7368 C   0  0  0  0  0  0  0  0  0  0  0  0
   -2.9095   -2.3591   -0.9812 C   0  0  0  0  0  0  0  0  0  0  0  0
   -2.5647   -1.0619   -0.7335 C   0  0  0  0  0  0  0  0  0  0  0  0
   -3.5125   -0.1796   -0.2596 C   0  0  0  0  0  0  0  0  0  0  0  0
   -3.1267    1.2097   -0.0328 C   0  0  0  0  0  0  0  0  0  0  0  0
   -1.1580   -0.7335   -0.5581 C   0  0  0  0  0  0  0  0  0  0  0  0
   -0.1875   -0.2401   -1.2957 C   0  0  0  0  0  0  0  0  0  0  0  0
    1.0843   -0.0384   -0.8134 N   0  0  0  0  0  0  0  0  0  0  0  0
    1.3904   -0.3430    0.4684 C   0  0  0  0  0  0  0  0  0  0  0  0
    2.5329   -0.2522    1.2182 C   0  0  0  0  0  0  0  0  0  0  0  0
    2.1791   -0.7289    2.4847 C   0  0  0  0  0  0  0  0  0  0  0  0
    0.9024   -1.0882    2.5006 N   0  0  0  0  0  0  0  0  0  0  0  0
    0.4265   -0.8488    1.2628 N   0  0  0  0  0  0  0  0  0  0  0  0
   -0.7977   -1.0458    0.7936 C   0  0  0  0  0  0  0  0  0  0  0  0
   -1.7956   -1.5923    1.6652 N   0  0  0  0  0  0  0  0  0  0  0  0
    3.8708    0.1901    0.8898 C   0  0  0  0  0  0  0  0  0  0  0  0
    4.8624    0.0115    1.8593 C   0  0  0  0  0  0  0  0  0  0  0  0
    6.1619    0.3573    1.6927 C   0  0  0  0  0  0  0  0  0  0  0  0
    6.5898    0.9205    0.5170 C   0  0  0  0  0  0  0  0  0  0  0  0
    7.9441    1.2761    0.3652 O   0  0  0  0  0  0  0  0  0  0  0  0
    8.8267    0.9557    1.4493 C   0  0  0  0  0  0  0  0  0  0  0  0
    9.1235   -0.5124    1.5782 C   0  0  0  0  0  0  0  0  0  0  0  0
    9.8439   -0.9994    0.4285 O   0  0  0  0  0  0  0  0  0  0  0  0
   11.1966   -0.6830    0.2362 C   0  0  0  0  0  0  0  0  0  0  0  0
   11.8895    0.0273    1.1907 C   0  0  0  0  0  0  0  0  0  0  0  0
   13.2204    0.3250    0.9643 C   0  0  0  0  0  0  0  0  0  0  0  0
   13.8277   -0.1084   -0.2283 C   0  0  0  0  0  0  0  0  0  0  0  0
   13.1042   -0.8192   -1.1669 C   0  0  0  0  0  0  0  0  0  0  0  0
   11.7973   -1.0881   -0.9077 C   0  0  0  0  0  0  0  0  0  0  0  0
   13.7734   -1.2569   -2.3919 C   0  0  0  0  0  0  0  0  0  0  0  0
   12.9996   -1.1652   -3.5109 F   0  0  0  0  0  0  0  0  0  0  0  0
   14.8831   -0.4685   -2.5883 F   0  0  0  0  0  0  0  0  0  0  0  0
   14.1715   -2.5999   -2.2987 F   0  0  0  0  0  0  0  0  0  0  0  0
    5.6399    1.1108   -0.4662 C   0  0  0  0  0  0  0  0  0  0  0  0
    4.3098    0.7505   -0.2758 C   0  0  0  0  0  0  0  0  0  0  0  0
  -13.1902    0.3407    0.2226 H   0  0  0  0  0  0  0  0  0  0  0  0
  -13.3222   -1.4087    0.0161 H   0  0  0  0  0  0  0  0  0  0  0  0
  -11.7676   -0.7514    0.4890 H   0  0  0  0  0  0  0  0  0  0  0  0
  -10.9353   -1.4912   -2.8009 H   0  0  0  0  0  0  0  0  0  0  0  0
  -10.5545   -1.5950   -1.0564 H   0  0  0  0  0  0  0  0  0  0  0  0
  -11.9443   -2.5670   -1.6636 H   0  0  0  0  0  0  0  0  0  0  0  0
  -11.6609    0.7235   -3.0828 H   0  0  0  0  0  0  0  0  0  0  0  0
  -12.4211    1.5599   -1.6242 H   0  0  0  0  0  0  0  0  0  0  0  0
   -9.2276    0.1834   -2.9775 H   0  0  0  0  0  0  0  0  0  0  0  0
   -7.1642    0.3497   -1.7732 H   0  0  0  0  0  0  0  0  0  0  0  0
   -9.1962    1.9282    1.6203 H   0  0  0  0  0  0  0  0  0  0  0  0
  -11.3029    1.7827    0.4429 H   0  0  0  0  0  0  0  0  0  0  0  0
   -5.2399    0.3067    1.6481 H   0  0  0  0  0  0  0  0  0  0  0  0
   -6.1451   -2.2421   -0.0721 H   0  0  0  0  0  0  0  0  0  0  0  0
   -4.4895   -3.8140   -0.9422 H   0  0  0  0  0  0  0  0  0  0  0  0
   -2.2047   -3.0927   -1.3695 H   0  0  0  0  0  0  0  0  0  0  0  0
   -3.1000    1.4858    1.0262 H   0  0  0  0  0  0  0  0  0  0  0  0
   -2.1200    1.4455   -0.4695 H   0  0  0  0  0  0  0  0  0  0  0  0
   -3.8588    1.8559   -0.5552 H   0  0  0  0  0  0  0  0  0  0  0  0
   -0.3944    0.0198   -2.3591 H   0  0  0  0  0  0  0  0  0  0  0  0
    2.8108   -0.8222    3.3582 H   0  0  0  0  0  0  0  0  0  0  0  0
   -2.3679   -0.9105    2.1783 H   0  0  0  0  0  0  0  0  0  0  0  0
   -1.9260   -2.6120    1.7677 H   0  0  0  0  0  0  0  0  0  0  0  0
    4.5752   -0.4268    2.8108 H   0  0  0  0  0  0  0  0  0  0  0  0
    6.8386    0.2027    2.5684 H   0  0  0  0  0  0  0  0  0  0  0  0
    9.7810    1.4998    1.2154 H   0  0  0  0  0  0  0  0  0  0  0  0
    8.4405    1.3920    2.3921 H   0  0  0  0  0  0  0  0  0  0  0  0
    9.7729   -0.6876    2.4588 H   0  0  0  0  0  0  0  0  0  0  0  0
    8.2518   -1.1886    1.6198 H   0  0  0  0  0  0  0  0  0  0  0  0
   11.4678    0.3472    2.1068 H   0  0  0  0  0  0  0  0  0  0  0  0
   13.8085    0.8844    1.6924 H   0  0  0  0  0  0  0  0  0  0  0  0
   14.8531    0.1013   -0.4256 H   0  0  0  0  0  0  0  0  0  0  0  0
   11.2220   -1.6615   -1.6520 H   0  0  0  0  0  0  0  0  0  0  0  0
    5.9628    1.5548   -1.4009 H   0  0  0  0  0  0  0  0  0  0  0  0
    3.5907    0.9227   -1.0645 H   0  0  0  0  0  0  0  0  0  0  0  0
  1  2  1  0
  2  3  1  0
  2  4  1  0
  4  5  1  0
  5  6  2  0
  6  7  1  0
  7  8  2  0
  8  9  1  0
  9 10  2  0
  8 11  1  0
 11 12  2  0
 11 13  1  0
 13 14  1  0
 14 15  2  0
 15 16  1  0
 16 17  2  0
 17 18  1  0
 18 19  2  0
 19 20  1  0
 18 21  1  0
 21 22  1  0
 22 23  2  0
 23 24  1  0
 24 25  2  0
 25 26  1  0
 26 27  2  0
 27 28  1  0
 28 29  1  0
 29 30  1  0
 25 31  1  0
 31 32  2  0
 32 33  1  0
 33 34  2  0
 34 35  1  0
 35 36  1  0
 36 37  1  0
 37 38  1  0
 38 39  1  0
 39 40  2  0
 40 41  1  0
 41 42  2  0
 42 43  1  0
 43 44  2  0
 43 45  1  0
 45 46  1  0
 45 47  1  0
 45 48  1  0
 34 49  1  0
 49 50  2  0
 10  5  1  0
 19 14  1  0
 29 21  2  0
 50 31  1  0
 28 24  1  0
 44 39  1  0
  1 51  1  0
  1 52  1  0
  1 53  1  0
  3 54  1  0
  3 55  1  0
  3 56  1  0
  4 57  1  0
  4 58  1  0
  6 59  1  0
  7 60  1  0
  9 61  1  0
 10 62  1  0
 13 63  1  0
 15 64  1  0
 16 65  1  0
 17 66  1  0
 20 67  1  0
 20 68  1  0
 20 69  1  0
 22 70  1  0
 26 71  1  0
 30 72  1  0
 30 73  1  0
 32 74  1  0
 33 75  1  0
 36 76  1  0
 36 77  1  0
 37 78  1  0
 37 79  1  0
 40 80  1  0
 41 81  1  0
 42 82  1  0
 44 83  1  0
 49 84  1  0
 50 85  1  0
M  END
$$$$
[H]C([H])=C([H])C(=O)N([H])c1c([H])c([H])c([H])c(-n2c([H])nc3c([H])nc(N([H])c4c([H])c([H])c(OC([H])([H])C([H])([H])N(C([H])([H])[H])C([H])([H])[H])c([H])c4[H])nc32)c1[H]
     RDKit          3D

 58 61  0  0  0  0  0  0  0  0999 V2000
   -8.3473    2.7136   -0.7277 C   0  0  0  0  0  0  0  0  0  0  0  0
   -8.6263    1.6001    0.1624 N   0  0  0  0  0  0  0  0  0  0  0  0
   -9.7576    0.8191   -0.3186 C   0  0  0  0  0  0  0  0  0  0  0  0
   -7.4501    0.7453    0.3001 C   0  0  0  0  0  0  0  0  0  0  0  0
   -7.1426    0.0265   -0.9774 C   0  0  0  0  0  0  0  0  0  0  0  0
   -6.0595   -0.7897   -0.9305 O   0  0  0  0  0  0  0  0  0  0  0  0
   -4.7238   -0.6304   -0.7434 C   0  0  0  0  0  0  0  0  0  0  0  0
   -3.8847   -1.7567   -0.7293 C   0  0  0  0  0  0  0  0  0  0  0  0
   -2.5242   -1.6766   -0.5485 C   0  0  0  0  0  0  0  0  0  0  0  0
   -1.9477   -0.4487   -0.3722 C   0  0  0  0  0  0  0  0  0  0  0  0
   -0.5759   -0.2696   -0.1531 N   0  0  0  0  0  0  0  0  0  0  0  0
    0.3743   -1.2070    0.3291 C   0  0  0  0  0  0  0  0  0  0  0  0
    0.1154   -2.4636    0.6839 N   0  0  0  0  0  0  0  0  0  0  0  0
    0.9718   -3.3734    1.1399 C   0  0  0  0  0  0  0  0  0  0  0  0
    2.2962   -2.9561    1.2584 C   0  0  0  0  0  0  0  0  0  0  0  0
    3.4228   -3.5299    1.6581 N   0  0  0  0  0  0  0  0  0  0  0  0
    4.4220   -2.6376    1.5618 C   0  0  0  0  0  0  0  0  0  0  0  0
    3.9648   -1.4653    1.0973 N   0  0  0  0  0  0  0  0  0  0  0  0
    4.6653   -0.2526    0.8397 C   0  0  0  0  0  0  0  0  0  0  0  0
    4.1242    0.9714    1.1144 C   0  0  0  0  0  0  0  0  0  0  0  0
    4.8398    2.1201    0.8469 C   0  0  0  0  0  0  0  0  0  0  0  0
    6.1010    2.0835    0.3043 C   0  0  0  0  0  0  0  0  0  0  0  0
    6.6819    0.8404    0.0122 C   0  0  0  0  0  0  0  0  0  0  0  0
    7.9725    0.7840   -0.5603 N   0  0  0  0  0  0  0  0  0  0  0  0
    8.8137   -0.3130   -0.7391 C   0  0  0  0  0  0  0  0  0  0  0  0
    8.5083   -1.5052   -0.3776 O   0  0  0  0  0  0  0  0  0  0  0  0
   10.1159   -0.1896   -1.3559 C   0  0  0  0  0  0  0  0  0  0  0  0
   10.5864    0.9368   -1.7807 C   0  0  0  0  0  0  0  0  0  0  0  0
    5.9596   -0.2695    0.2836 C   0  0  0  0  0  0  0  0  0  0  0  0
    2.6214   -1.6604    0.9037 C   0  0  0  0  0  0  0  0  0  0  0  0
    1.6852   -0.8194    0.4545 N   0  0  0  0  0  0  0  0  0  0  0  0
   -2.7879    0.6924   -0.3861 C   0  0  0  0  0  0  0  0  0  0  0  0
   -4.1370    0.5976   -0.5675 C   0  0  0  0  0  0  0  0  0  0  0  0
   -9.0825    3.5134   -0.5399 H   0  0  0  0  0  0  0  0  0  0  0  0
   -7.3597    3.1163   -0.4217 H   0  0  0  0  0  0  0  0  0  0  0  0
   -8.4015    2.4402   -1.7833 H   0  0  0  0  0  0  0  0  0  0  0  0
  -10.6801    1.3905   -0.1493 H   0  0  0  0  0  0  0  0  0  0  0  0
   -9.8046   -0.1281    0.2441 H   0  0  0  0  0  0  0  0  0  0  0  0
   -9.6914    0.6616   -1.4260 H   0  0  0  0  0  0  0  0  0  0  0  0
   -6.6274    1.3768    0.6126 H   0  0  0  0  0  0  0  0  0  0  0  0
   -7.6113    0.0154    1.1497 H   0  0  0  0  0  0  0  0  0  0  0  0
   -6.9323    0.8408   -1.7311 H   0  0  0  0  0  0  0  0  0  0  0  0
   -8.0248   -0.5788   -1.3256 H   0  0  0  0  0  0  0  0  0  0  0  0
   -4.3491   -2.6991   -0.8669 H   0  0  0  0  0  0  0  0  0  0  0  0
   -1.9174   -2.5985   -0.5645 H   0  0  0  0  0  0  0  0  0  0  0  0
   -0.1940    0.7186   -0.3865 H   0  0  0  0  0  0  0  0  0  0  0  0
    0.7486   -4.3740    1.4191 H   0  0  0  0  0  0  0  0  0  0  0  0
    5.4442   -2.8622    1.8292 H   0  0  0  0  0  0  0  0  0  0  0  0
    3.1227    1.0374    1.5469 H   0  0  0  0  0  0  0  0  0  0  0  0
    4.4003    3.0881    1.0687 H   0  0  0  0  0  0  0  0  0  0  0  0
    6.6778    2.9751    0.0879 H   0  0  0  0  0  0  0  0  0  0  0  0
    8.3645    1.7242   -0.9126 H   0  0  0  0  0  0  0  0  0  0  0  0
   10.7238   -1.0900   -1.4648 H   0  0  0  0  0  0  0  0  0  0  0  0
   10.0864    1.8772   -1.7283 H   0  0  0  0  0  0  0  0  0  0  0  0
   11.5937    0.9370   -2.2402 H   0  0  0  0  0  0  0  0  0  0  0  0
    6.2989   -1.2870    0.0931 H   0  0  0  0  0  0  0  0  0  0  0  0
   -2.3410    1.6606   -0.2488 H   0  0  0  0  0  0  0  0  0  0  0  0
   -4.7217    1.5282   -0.5855 H   0  0  0  0  0  0  0  0  0  0  0  0
  1  2  1  0
  2  3  1  0
  2  4  1  0
  4  5  1  0
  5  6  1  0
  6  7  1  0
  7  8  2  0
  8  9  1  0
  9 10  2  0
 10 11  1  0
 11 12  1  0
 12 13  2  0
 13 14  1  0
 14 15  2  0
 15 16  1  0
 16 17  2  0
 17 18  1  0
 18 19  1  0
 19 20  2  0
 20 21  1  0
 21 22  2  0
 22 23  1  0
 23 24  1  0
 24 25  1  0
 25 26  2  0
 25 27  1  0
 27 28  2  3
 23 29  2  0
 18 30  1  0
 30 31  2  0
 10 32  1  0
 32 33  2  0
 33  7  1  0
 31 12  1  0
 30 15  1  0
 29 19  1  0
  1 34  1  0
  1 35  1  0
  1 36  1  0
  3 37  1  0
  3 38  1  0
  3 39  1  0
  4 40  1  0
  4 41  1  0
  5 42  1  0
  5 43  1  0
  8 44  1  0
  9 45  1  0
 11 46  1  0
 14 47  1  0
 17 48  1  0
 20 49  1  0
 21 50  1  0
 22 51  1  0
 24 52  1  0
 27 53  1  0
 28 54  1  0
 28 55  1  0
 29 56  1  0
 32 57  1  0
 33 58  1  0
M  END
$$$$
[H]OC([H])([H])C([H])([H])N1C([H])([H])C([H])([H])N(C2([H])C([H])([H])C([H])([H])C([H])(n3nc(-c4c([H])c([H])c(Oc5c([H])c([H])c([H])c([H])c5[H])c([H])c4[H])c4c(N([H])[H])nc([H])nc43)C([H])([H])C2([H])[H])C([H])([H])C1([H])[H]
     RDKit          3D

 73 78  0  0  0  0  0  0  0  0999 V2000
   -3.8863   -1.0962    2.2828 N   0  0  0  0  0  0  0  0  0  0  0  0
   -2.4900   -0.9597    2.0710 C   0  0  0  0  0  0  0  0  0  0  0  0
   -1.6221   -1.1234    3.0995 N   0  0  0  0  0  0  0  0  0  0  0  0
   -0.2982   -0.9640    2.9431 C   0  0  0  0  0  0  0  0  0  0  0  0
    0.2286   -0.6330    1.7544 N   0  0  0  0  0  0  0  0  0  0  0  0
   -0.6136   -0.4645    0.7141 C   0  0  0  0  0  0  0  0  0  0  0  0
   -0.3949   -0.1192   -0.5805 N   0  0  0  0  0  0  0  0  0  0  0  0
   -1.5297   -0.0616   -1.2343 N   0  0  0  0  0  0  0  0  0  0  0  0
   -2.5698   -0.3692   -0.4003 C   0  0  0  0  0  0  0  0  0  0  0  0
   -3.9744   -0.3837   -0.7535 C   0  0  0  0  0  0  0  0  0  0  0  0
   -4.8137   -1.4728   -0.6402 C   0  0  0  0  0  0  0  0  0  0  0  0
   -6.1567   -1.4377   -0.9614 C   0  0  0  0  0  0  0  0  0  0  0  0
   -6.7452   -0.2812   -1.4258 C   0  0  0  0  0  0  0  0  0  0  0  0
   -8.0925   -0.2911   -1.7349 O   0  0  0  0  0  0  0  0  0  0  0  0
   -9.1103   -0.0017   -0.8847 C   0  0  0  0  0  0  0  0  0  0  0  0
   -9.5786    1.2820   -0.7749 C   0  0  0  0  0  0  0  0  0  0  0  0
  -10.6097    1.6356    0.0717 C   0  0  0  0  0  0  0  0  0  0  0  0
  -11.1790    0.6393    0.8307 C   0  0  0  0  0  0  0  0  0  0  0  0
  -10.7315   -0.6646    0.7448 C   0  0  0  0  0  0  0  0  0  0  0  0
   -9.6846   -0.9870   -0.1238 C   0  0  0  0  0  0  0  0  0  0  0  0
   -5.9287    0.8192   -1.5488 C   0  0  0  0  0  0  0  0  0  0  0  0
   -4.5946    0.7869   -1.2301 C   0  0  0  0  0  0  0  0  0  0  0  0
   -2.0035   -0.6194    0.8188 C   0  0  0  0  0  0  0  0  0  0  0  0
    0.9333    0.1416   -1.1337 C   0  0  0  0  0  0  0  0  0  0  0  0
    1.7185   -1.1327   -1.0485 C   0  0  0  0  0  0  0  0  0  0  0  0
    3.1973   -0.9512   -1.1970 C   0  0  0  0  0  0  0  0  0  0  0  0
    3.6396    0.1185   -0.2040 C   0  0  0  0  0  0  0  0  0  0  0  0
    3.0527    1.4154   -0.6624 C   0  0  0  0  0  0  0  0  0  0  0  0
    1.5354    1.3140   -0.4427 C   0  0  0  0  0  0  0  0  0  0  0  0
    5.0133    0.0875    0.0766 N   0  0  0  0  0  0  0  0  0  0  0  0
    5.4579   -1.0787    0.6921 C   0  0  0  0  0  0  0  0  0  0  0  0
    6.7585   -1.0172    1.4248 C   0  0  0  0  0  0  0  0  0  0  0  0
    7.6151    0.0606    1.0040 N   0  0  0  0  0  0  0  0  0  0  0  0
    8.4068   -0.3669   -0.0962 C   0  0  0  0  0  0  0  0  0  0  0  0
    9.3529    0.6660   -0.6485 C   0  0  0  0  0  0  0  0  0  0  0  0
   10.0454    0.0498   -1.7203 O   0  0  0  0  0  0  0  0  0  0  0  0
    6.9683    1.3179    0.8957 C   0  0  0  0  0  0  0  0  0  0  0  0
    5.8346    1.1862   -0.1013 C   0  0  0  0  0  0  0  0  0  0  0  0
   -4.3775   -1.9984    2.4404 H   0  0  0  0  0  0  0  0  0  0  0  0
   -4.4614   -0.2282    2.2817 H   0  0  0  0  0  0  0  0  0  0  0  0
    0.3154   -1.1191    3.8331 H   0  0  0  0  0  0  0  0  0  0  0  0
   -4.3876   -2.4185   -0.2958 H   0  0  0  0  0  0  0  0  0  0  0  0
   -6.7859   -2.3360   -0.8536 H   0  0  0  0  0  0  0  0  0  0  0  0
   -9.1447    2.0739   -1.3619 H   0  0  0  0  0  0  0  0  0  0  0  0
  -10.9563    2.6561    0.1357 H   0  0  0  0  0  0  0  0  0  0  0  0
  -11.9888    0.9312    1.4917 H   0  0  0  0  0  0  0  0  0  0  0  0
  -11.2232   -1.3907    1.3669 H   0  0  0  0  0  0  0  0  0  0  0  0
   -9.3576   -2.0159   -0.1681 H   0  0  0  0  0  0  0  0  0  0  0  0
   -6.4017    1.7324   -1.9176 H   0  0  0  0  0  0  0  0  0  0  0  0
   -3.9530    1.6655   -1.3303 H   0  0  0  0  0  0  0  0  0  0  0  0
    0.7916    0.4316   -2.2068 H   0  0  0  0  0  0  0  0  0  0  0  0
    1.4755   -1.7579   -0.1906 H   0  0  0  0  0  0  0  0  0  0  0  0
    1.3974   -1.7399   -1.9506 H   0  0  0  0  0  0  0  0  0  0  0  0
    3.4775   -0.6190   -2.2207 H   0  0  0  0  0  0  0  0  0  0  0  0
    3.6811   -1.9256   -0.9837 H   0  0  0  0  0  0  0  0  0  0  0  0
    3.0546   -0.1475    0.7366 H   0  0  0  0  0  0  0  0  0  0  0  0
    3.3763    2.2872   -0.0550 H   0  0  0  0  0  0  0  0  0  0  0  0
    3.1739    1.5976   -1.7514 H   0  0  0  0  0  0  0  0  0  0  0  0
    1.3151    1.4161    0.6237 H   0  0  0  0  0  0  0  0  0  0  0  0
    1.1257    2.2486   -0.9250 H   0  0  0  0  0  0  0  0  0  0  0  0
    4.6731   -1.4296    1.4277 H   0  0  0  0  0  0  0  0  0  0  0  0
    5.5215   -1.9021   -0.0536 H   0  0  0  0  0  0  0  0  0  0  0  0
    6.5825   -0.8835    2.5150 H   0  0  0  0  0  0  0  0  0  0  0  0
    7.3399   -1.9570    1.3182 H   0  0  0  0  0  0  0  0  0  0  0  0
    7.8209   -0.8447   -0.9160 H   0  0  0  0  0  0  0  0  0  0  0  0
    9.0642   -1.2057    0.2840 H   0  0  0  0  0  0  0  0  0  0  0  0
   10.0467    0.9871    0.1470 H   0  0  0  0  0  0  0  0  0  0  0  0
    8.7631    1.5306   -1.0280 H   0  0  0  0  0  0  0  0  0  0  0  0
   11.0028   -0.0952   -1.4681 H   0  0  0  0  0  0  0  0  0  0  0  0
    7.6432    2.1014    0.5566 H   0  0  0  0  0  0  0  0  0  0  0  0
    6.5219    1.5470    1.8949 H   0  0  0  0  0  0  0  0  0  0  0  0
    5.3710    2.1911   -0.1485 H   0  0  0  0  0  0  0  0  0  0  0  0
    6.3523    1.0902   -1.1044 H   0  0  0  0  0  0  0  0  0  0  0  0
  1  2  1  0
  2  3  2  0
  3  4  1  0
  4  5  2  0
  5  6  1  0
  6  7  1  0
  7  8  1  0
  8  9  2  0
  9 10  1  0
 10 11  2  0
 11 12  1  0
 12 13  2  0
 13 14  1  0
 14 15  1  0
 15 16  2  0
 16 17  1  0
 17 18  2  0
 18 19  1  0
 19 20  2  0
 13 21  1  0
 21 22  2  0
  9 23  1  0
  7 24  1  0
 24 25  1  0
 25 26  1  0
 26 27  1  0
 27 28  1  0
 28 29  1  0
 27 30  1  0
 30 31  1  0
 31 32  1  0
 32 33  1  0
 33 34  1  0
 34 35  1  0
 35 36  1  0
 33 37  1  0
 37 38  1  0
 23  2  1  0
 29 24  1  0
 38 30  1  0
 23  6  2  0
 22 10  1  0
 20 15  1  0
  1 39  1  0
  1 40  1  0
  4 41  1  0
 11 42  1  0
 12 43  1  0
 16 44  1  0
 17 45  1  0
 18 46  1  0
 19 47  1  0
 20 48  1  0
 21 49  1  0
 22 50  1  0
 24 51  1  0
 25 52  1  0
 25 53  1  0
 26 54  1  0
 26 55  1  0
 27 56  1  0
 28 57  1  0
 28 58  1  0
 29 59  1  0
 29 60  1  0
 31 61  1  0
 31 62  1  0
 32 63  1  0
 32 64  1  0
 34 65  1  0
 34 66  1  0
 35 67  1  0
 35 68  1  0
 36 69  1  0
 37 70  1  0
 37 71  1  0
 38 72  1  0
 38 73  1  0
M  END
$$$$
[H]c1c([H])c(C(=O)N([H])[H])c([H])c(N([H])C(=O)c2c([H])c([H])c3nc(N([H])c4c(Cl)c([H])c([H])c([H])c4C([H])([H])[H])sc3c2[H])c1[H]
     RDKit          3D

 47 50  0  0  0  0  0  0  0  0999 V2000
   -6.3823    1.2347   -0.3685 C   0  0  0  0  0  0  0  0  0  0  0  0
   -6.5655   -0.2139   -0.2569 C   0  0  0  0  0  0  0  0  0  0  0  0
   -7.4189   -0.8648   -1.1550 C   0  0  0  0  0  0  0  0  0  0  0  0
   -7.5895   -2.2173   -1.0504 C   0  0  0  0  0  0  0  0  0  0  0  0
   -6.9361   -2.9305   -0.0810 C   0  0  0  0  0  0  0  0  0  0  0  0
   -6.0904   -2.2615    0.8035 C   0  0  0  0  0  0  0  0  0  0  0  0
   -5.2606   -3.1606    2.0331 Cl  0  0  0  0  0  0  0  0  0  0  0  0
   -5.8973   -0.9005    0.7245 C   0  0  0  0  0  0  0  0  0  0  0  0
   -5.0525   -0.2226    1.6057 N   0  0  0  0  0  0  0  0  0  0  0  0
   -3.6642   -0.0138    1.3593 C   0  0  0  0  0  0  0  0  0  0  0  0
   -2.9017   -0.3662    0.3498 N   0  0  0  0  0  0  0  0  0  0  0  0
   -1.6299   -0.0542    0.3500 C   0  0  0  0  0  0  0  0  0  0  0  0
   -0.7016   -0.3687   -0.6648 C   0  0  0  0  0  0  0  0  0  0  0  0
    0.5978    0.0251   -0.5241 C   0  0  0  0  0  0  0  0  0  0  0  0
    1.0978    0.7125    0.5332 C   0  0  0  0  0  0  0  0  0  0  0  0
    0.1944    1.0272    1.5367 C   0  0  0  0  0  0  0  0  0  0  0  0
   -1.1488    0.6387    1.4260 C   0  0  0  0  0  0  0  0  0  0  0  0
   -2.5679    0.8002    2.3796 S   0  0  0  0  0  0  0  0  0  0  0  0
    2.4926    1.1371    0.7030 C   0  0  0  0  0  0  0  0  0  0  0  0
    2.7265    1.9597    1.6233 O   0  0  0  0  0  0  0  0  0  0  0  0
    3.4954    0.6463   -0.1192 N   0  0  0  0  0  0  0  0  0  0  0  0
    4.8649    0.9767   -0.0691 C   0  0  0  0  0  0  0  0  0  0  0  0
    5.3933    2.0666    0.5656 C   0  0  0  0  0  0  0  0  0  0  0  0
    6.7707    2.3285    0.5976 C   0  0  0  0  0  0  0  0  0  0  0  0
    7.6000    1.4454   -0.0387 C   0  0  0  0  0  0  0  0  0  0  0  0
    7.1194    0.3282   -0.6960 C   0  0  0  0  0  0  0  0  0  0  0  0
    5.7833    0.1047   -0.7075 C   0  0  0  0  0  0  0  0  0  0  0  0
    8.0503   -0.5803   -1.3586 C   0  0  0  0  0  0  0  0  0  0  0  0
    7.5215   -1.7122   -2.0206 N   0  0  0  0  0  0  0  0  0  0  0  0
    9.2877   -0.3693   -1.3453 O   0  0  0  0  0  0  0  0  0  0  0  0
   -5.3422    1.5653   -0.1609 H   0  0  0  0  0  0  0  0  0  0  0  0
   -6.5931    1.5355   -1.4169 H   0  0  0  0  0  0  0  0  0  0  0  0
   -7.0795    1.7716    0.3138 H   0  0  0  0  0  0  0  0  0  0  0  0
   -7.9487   -0.3463   -1.9272 H   0  0  0  0  0  0  0  0  0  0  0  0
   -8.2449   -2.7715   -1.7276 H   0  0  0  0  0  0  0  0  0  0  0  0
   -7.0837   -4.0056   -0.0125 H   0  0  0  0  0  0  0  0  0  0  0  0
   -5.4893    0.1492    2.5020 H   0  0  0  0  0  0  0  0  0  0  0  0
   -0.9833   -0.9125   -1.5534 H   0  0  0  0  0  0  0  0  0  0  0  0
    1.2964   -0.2346   -1.3391 H   0  0  0  0  0  0  0  0  0  0  0  0
    0.4448    1.5657    2.4298 H   0  0  0  0  0  0  0  0  0  0  0  0
    3.2047   -0.0563   -0.8708 H   0  0  0  0  0  0  0  0  0  0  0  0
    4.7464    2.7706    1.0535 H   0  0  0  0  0  0  0  0  0  0  0  0
    7.1468    3.1896    1.1037 H   0  0  0  0  0  0  0  0  0  0  0  0
    8.6822    1.5937   -0.0497 H   0  0  0  0  0  0  0  0  0  0  0  0
    5.3917   -0.7748   -1.2231 H   0  0  0  0  0  0  0  0  0  0  0  0
    7.4471   -1.7117   -3.0540 H   0  0  0  0  0  0  0  0  0  0  0  0
    7.2162   -2.5230   -1.4772 H   0  0  0  0  0  0  0  0  0  0  0  0
  1  2  1  0
  2  3  2  0
  3  4  1  0
  4  5  2  0
  5  6  1  0
  6  7  1  0
  6  8  2  0
  8  9  1  0
  9 10  1  0
 10 11  2  0
 11 12  1  0
 12 13  2  0
 13 14  1  0
 14 15  2  0
 15 16  1  0
 16 17  2  0
 17 18  1  0
 15 19  1  0
 19 20  2  0
 19 21  1  0
 21 22  1  0
 22 23  2  0
 23 24  1  0
 24 25  2  0
 25 26  1  0
 26 27  2  0
 26 28  1  0
 28 29  1  0
 28 30  2  0
  8  2  1  0
 18 10  1  0
 27 22  1  0
 17 12  1  0
  1 31  1  0
  1 32  1  0
  1 33  1  0
  3 34  1  0
  4 35  1  0
  5 36  1  0
  9 37  1  0
 13 38  1  0
 14 39  1  0
 16 40  1  0
 21 41  1  0
 23 42  1  0
 24 43  1  0
 25 44  1  0
 27 45  1  0
 29 46  1  0
 29 47  1  0
M  END
$$$$
[H]c1c([H])c(C([H])([H])[H])c(C(F)(F)F)c([H])c1C(=O)N([H])c1nc2c([H])c([H])c(N3C([H])([H])C([H])([H])N(C([H])([H])[H])C([H])([H])C3([H])[H])c([H])c2s1
     RDKit          3D

 51 54  0  0  0  0  0  0  0  0999 V2000
   -8.4640    1.2485   -0.3641 C   0  0  0  0  0  0  0  0  0  0  0  0
   -7.5533    0.1548   -0.6318 N   0  0  0  0  0  0  0  0  0  0  0  0
   -7.2396   -0.6207    0.5146 C   0  0  0  0  0  0  0  0  0  0  0  0
   -5.8239   -1.0478    0.6746 C   0  0  0  0  0  0  0  0  0  0  0  0
   -4.8423   -0.1431    0.1162 N   0  0  0  0  0  0  0  0  0  0  0  0
   -5.3063    1.0216   -0.5808 C   0  0  0  0  0  0  0  0  0  0  0  0
   -6.4629    0.5361   -1.4678 C   0  0  0  0  0  0  0  0  0  0  0  0
   -3.4792   -0.4740    0.2983 C   0  0  0  0  0  0  0  0  0  0  0  0
   -3.0451   -1.6094    0.9521 C   0  0  0  0  0  0  0  0  0  0  0  0
   -1.7532   -1.9589    1.1474 C   0  0  0  0  0  0  0  0  0  0  0  0
   -0.7315   -1.1154    0.6544 C   0  0  0  0  0  0  0  0  0  0  0  0
    0.5519   -1.3311    0.7717 N   0  0  0  0  0  0  0  0  0  0  0  0
    1.4198   -0.4770    0.2728 C   0  0  0  0  0  0  0  0  0  0  0  0
    2.8460   -0.5091    0.2841 N   0  0  0  0  0  0  0  0  0  0  0  0
    3.5703    0.5313   -0.3250 C   0  0  0  0  0  0  0  0  0  0  0  0
    2.9206    1.4860   -0.8785 O   0  0  0  0  0  0  0  0  0  0  0  0
    5.0218    0.5804   -0.3596 C   0  0  0  0  0  0  0  0  0  0  0  0
    5.6446    1.6171   -1.0410 C   0  0  0  0  0  0  0  0  0  0  0  0
    7.0105    1.6966   -1.0934 C   0  0  0  0  0  0  0  0  0  0  0  0
    7.7874    0.7215   -0.4527 C   0  0  0  0  0  0  0  0  0  0  0  0
    9.2679    0.7643   -0.4810 C   0  0  0  0  0  0  0  0  0  0  0  0
    7.1997   -0.3187    0.2311 C   0  0  0  0  0  0  0  0  0  0  0  0
    5.8157   -0.3712    0.2657 C   0  0  0  0  0  0  0  0  0  0  0  0
    7.9914   -1.3385    0.9020 C   0  0  0  0  0  0  0  0  0  0  0  0
    8.8280   -0.8579    1.8839 F   0  0  0  0  0  0  0  0  0  0  0  0
    8.6465   -2.1166   -0.0327 F   0  0  0  0  0  0  0  0  0  0  0  0
    7.1249   -2.2189    1.5645 F   0  0  0  0  0  0  0  0  0  0  0  0
    0.3732    0.7189   -0.4126 S   0  0  0  0  0  0  0  0  0  0  0  0
   -1.1274    0.0171    0.0018 C   0  0  0  0  0  0  0  0  0  0  0  0
   -2.4810    0.3509   -0.1838 C   0  0  0  0  0  0  0  0  0  0  0  0
   -9.4264    0.8292   -0.0228 H   0  0  0  0  0  0  0  0  0  0  0  0
   -8.6280    1.7925   -1.3150 H   0  0  0  0  0  0  0  0  0  0  0  0
   -8.0374    1.9713    0.3629 H   0  0  0  0  0  0  0  0  0  0  0  0
   -7.5046   -0.0020    1.4224 H   0  0  0  0  0  0  0  0  0  0  0  0
   -7.9522   -1.4868    0.5658 H   0  0  0  0  0  0  0  0  0  0  0  0
   -5.5603   -1.2969    1.7252 H   0  0  0  0  0  0  0  0  0  0  0  0
   -5.7045   -2.0130    0.1099 H   0  0  0  0  0  0  0  0  0  0  0  0
   -4.5881    1.5171   -1.2284 H   0  0  0  0  0  0  0  0  0  0  0  0
   -5.6807    1.7389    0.1783 H   0  0  0  0  0  0  0  0  0  0  0  0
   -6.0783   -0.3796   -1.9788 H   0  0  0  0  0  0  0  0  0  0  0  0
   -6.7681    1.3318   -2.1478 H   0  0  0  0  0  0  0  0  0  0  0  0
   -3.8224   -2.2780    1.3415 H   0  0  0  0  0  0  0  0  0  0  0  0
   -1.5276   -2.8764    1.6766 H   0  0  0  0  0  0  0  0  0  0  0  0
    3.3183   -1.2949    0.7397 H   0  0  0  0  0  0  0  0  0  0  0  0
    5.0548    2.3620   -1.5307 H   0  0  0  0  0  0  0  0  0  0  0  0
    7.5371    2.4924   -1.6167 H   0  0  0  0  0  0  0  0  0  0  0  0
    9.7176    1.0115    0.5104 H   0  0  0  0  0  0  0  0  0  0  0  0
    9.7327   -0.0930   -0.9782 H   0  0  0  0  0  0  0  0  0  0  0  0
    9.5484    1.6507   -1.1256 H   0  0  0  0  0  0  0  0  0  0  0  0
    5.3192   -1.1753    0.7944 H   0  0  0  0  0  0  0  0  0  0  0  0
   -2.6603    1.2614   -0.7082 H   0  0  0  0  0  0  0  0  0  0  0  0
  1  2  1  0
  2  3  1  0
  3  4  1  0
  4  5  1  0
  5  6  1  0
  6  7  1  0
  5  8  1  0
  8  9  2  0
  9 10  1  0
 10 11  2  0
 11 12  1  0
 12 13  2  0
 13 14  1  0
 14 15  1  0
 15 16  2  0
 15 17  1  0
 17 18  2  0
 18 19  1  0
 19 20  2  0
 20 21  1  0
 20 22  1  0
 22 23  2  0
 22 24  1  0
 24 25  1  0
 24 26  1  0
 24 27  1  0
 13 28  1  0
 28 29  1  0
 29 30  2  0
  7  2  1  0
 30  8  1  0
 29 11  1  0
 23 17  1  0
  1 31  1  0
  1 32  1  0
  1 33  1  0
  3 34  1  0
  3 35  1  0
  4 36  1  0
  4 37  1  0
  6 38  1  0
  6 39  1  0
  7 40  1  0
  7 41  1  0
  9 42  1  0
 10 43  1  0
 14 44  1  0
 18 45  1  0
 19 46  1  0
 21 47  1  0
 21 48  1  0
 21 49  1  0
 23 50  1  0
 30 51  1  0
M  END
$$$$
[H]c1nc(N([H])C(=O)c2sc([H])c([H])c2[H])c2c(-c3c([H])c([H])c([H])c([H])c3[H])c(-c3c([H])c([H])c(OC([H])([H])C([H])([H])N(C([H])([H])[H])C([H])([H])[H])c([H])c3[H])oc2n1
     RDKit          3D

 59 63  0  0  0  0  0  0  0  0999 V2000
    8.0406   -0.8421   -0.3805 C   0  0  0  0  0  0  0  0  0  0  0  0
    7.3598   -0.7168    0.9319 N   0  0  0  0  0  0  0  0  0  0  0  0
    7.0143   -1.9977    1.4500 C   0  0  0  0  0  0  0  0  0  0  0  0
    6.2705    0.2228    0.8087 C   0  0  0  0  0  0  0  0  0  0  0  0
    5.4761    0.4519    2.0598 C   0  0  0  0  0  0  0  0  0  0  0  0
    4.4514    1.3691    1.8137 O   0  0  0  0  0  0  0  0  0  0  0  0
    3.3666    1.2027    1.0329 C   0  0  0  0  0  0  0  0  0  0  0  0
    3.0917    0.0144    0.4126 C   0  0  0  0  0  0  0  0  0  0  0  0
    1.9883   -0.1151   -0.3807 C   0  0  0  0  0  0  0  0  0  0  0  0
    1.0993    0.9590   -0.5885 C   0  0  0  0  0  0  0  0  0  0  0  0
    1.3763    2.1447    0.0335 C   0  0  0  0  0  0  0  0  0  0  0  0
    2.4827    2.2843    0.8330 C   0  0  0  0  0  0  0  0  0  0  0  0
   -0.0416    0.7841   -1.4684 C   0  0  0  0  0  0  0  0  0  0  0  0
   -0.0586    0.7567   -2.7537 O   0  0  0  0  0  0  0  0  0  0  0  0
   -1.2821    0.5733   -3.2127 C   0  0  0  0  0  0  0  0  0  0  0  0
   -1.7373    0.4727   -4.4740 N   0  0  0  0  0  0  0  0  0  0  0  0
   -3.0342    0.2730   -4.7334 C   0  0  0  0  0  0  0  0  0  0  0  0
   -3.9255    0.1669   -3.7555 N   0  0  0  0  0  0  0  0  0  0  0  0
   -3.5179    0.2654   -2.4278 C   0  0  0  0  0  0  0  0  0  0  0  0
   -4.4752    0.3454   -1.4248 N   0  0  0  0  0  0  0  0  0  0  0  0
   -5.3972    0.4214   -0.4619 C   0  0  0  0  0  0  0  0  0  0  0  0
   -5.2492    1.2487    0.5303 O   0  0  0  0  0  0  0  0  0  0  0  0
   -6.6743   -0.3320   -0.3001 C   0  0  0  0  0  0  0  0  0  0  0  0
   -7.2250   -1.2937   -1.1060 C   0  0  0  0  0  0  0  0  0  0  0  0
   -8.4037   -1.8195   -0.7316 C   0  0  0  0  0  0  0  0  0  0  0  0
   -8.9686   -1.3599    0.4238 C   0  0  0  0  0  0  0  0  0  0  0  0
   -7.8301   -0.2063    0.9449 S   0  0  0  0  0  0  0  0  0  0  0  0
   -2.1741    0.4709   -2.1670 C   0  0  0  0  0  0  0  0  0  0  0  0
   -1.3677    0.6060   -1.0446 C   0  0  0  0  0  0  0  0  0  0  0  0
   -1.8002    0.5332    0.3282 C   0  0  0  0  0  0  0  0  0  0  0  0
   -2.1363   -0.6674    0.9096 C   0  0  0  0  0  0  0  0  0  0  0  0
   -2.5016   -0.6887    2.2548 C   0  0  0  0  0  0  0  0  0  0  0  0
   -2.5426    0.4420    3.0359 C   0  0  0  0  0  0  0  0  0  0  0  0
   -2.2094    1.6269    2.4582 C   0  0  0  0  0  0  0  0  0  0  0  0
   -1.8477    1.6775    1.1363 C   0  0  0  0  0  0  0  0  0  0  0  0
    9.1199   -0.9858   -0.1732 H   0  0  0  0  0  0  0  0  0  0  0  0
    7.6418   -1.7030   -0.9277 H   0  0  0  0  0  0  0  0  0  0  0  0
    7.8805    0.1389   -0.8898 H   0  0  0  0  0  0  0  0  0  0  0  0
    5.9777   -2.1592    1.7275 H   0  0  0  0  0  0  0  0  0  0  0  0
    7.6516   -2.1528    2.3691 H   0  0  0  0  0  0  0  0  0  0  0  0
    7.3805   -2.7691    0.7356 H   0  0  0  0  0  0  0  0  0  0  0  0
    6.7896    1.2264    0.6118 H   0  0  0  0  0  0  0  0  0  0  0  0
    5.6720   -0.0468   -0.0649 H   0  0  0  0  0  0  0  0  0  0  0  0
    6.1271    0.8505    2.8696 H   0  0  0  0  0  0  0  0  0  0  0  0
    4.9999   -0.4815    2.4219 H   0  0  0  0  0  0  0  0  0  0  0  0
    3.6993   -0.8822    0.5286 H   0  0  0  0  0  0  0  0  0  0  0  0
    1.7291   -1.0283   -0.8940 H   0  0  0  0  0  0  0  0  0  0  0  0
    0.7232    2.9895   -0.1016 H   0  0  0  0  0  0  0  0  0  0  0  0
    2.7006    3.2167    1.3219 H   0  0  0  0  0  0  0  0  0  0  0  0
   -3.4036    0.1965   -5.7769 H   0  0  0  0  0  0  0  0  0  0  0  0
   -5.1943   -0.5852   -2.0552 H   0  0  0  0  0  0  0  0  0  0  0  0
   -6.7269   -1.6406   -2.0410 H   0  0  0  0  0  0  0  0  0  0  0  0
   -8.9410   -2.5997   -1.3253 H   0  0  0  0  0  0  0  0  0  0  0  0
   -9.9254   -1.6946    0.8622 H   0  0  0  0  0  0  0  0  0  0  0  0
   -2.1149   -1.5758    0.3330 H   0  0  0  0  0  0  0  0  0  0  0  0
   -2.7735   -1.6231    2.7294 H   0  0  0  0  0  0  0  0  0  0  0  0
   -2.8207    0.4438    4.0917 H   0  0  0  0  0  0  0  0  0  0  0  0
   -2.2072    2.5775    2.9979 H   0  0  0  0  0  0  0  0  0  0  0  0
   -1.6028    2.6262    0.6626 H   0  0  0  0  0  0  0  0  0  0  0  0
  1  2  1  0
  2  3  1  0
  2  4  1  0
  4  5  1  0
  5  6  1  0
  6  7  1  0
  7  8  2  0
  8  9  1  0
  9 10  2  0
 10 11  1  0
 11 12  2  0
 10 13  1  0
 13 14  1  0
 14 15  1  0
 15 16  2  0
 16 17  1  0
 17 18  2  0
 18 19  1  0
 19 20  1  0
 20 21  1  0
 21 22  2  0
 21 23  1  0
 23 24  2  0
 24 25  1  0
 25 26  2  0
 26 27  1  0
 19 28  2  0
 28 29  1  0
 29 30  1  0
 30 31  2  0
 31 32  1  0
 32 33  2  0
 33 34  1  0
 34 35  2  0
 12  7  1  0
 29 13  2  0
 35 30  1  0
 28 15  1  0
 27 23  1  0
  1 36  1  0
  1 37  1  0
  1 38  1  0
  3 39  1  0
  3 40  1  0
  3 41  1  0
  4 42  1  0
  4 43  1  0
  5 44  1  0
  5 45  1  0
  8 46  1  0
  9 47  1  0
 11 48  1  0
 12 49  1  0
 17 50  1  0
 20 51  1  0
 24 52  1  0
 25 53  1  0
 26 54  1  0
 31 55  1  0
 32 56  1  0
 33 57  1  0
 34 58  1  0
 35 59  1  0
M  END
$$$$
[H]c1nc(N([H])[H])c2c(-c3c([H])c([H])c(Oc4c([H])c([H])c([H])c([H])c4[H])c([H])c3[H])c(I)n(C3([H])C([H])([H])C([H])([H])C([H])([H])C3([H])[H])c2n1
     RDKit          3D

 50 54  0  0  0  0  0  0  0  0999 V2000
    0.2415    3.2163   -0.0359 N   0  0  0  0  0  0  0  0  0  0  0  0
   -1.1518    2.9345   -0.0959 C   0  0  0  0  0  0  0  0  0  0  0  0
   -2.0542    3.8849   -0.3773 N   0  0  0  0  0  0  0  0  0  0  0  0
   -3.3672    3.5908   -0.4273 C   0  0  0  0  0  0  0  0  0  0  0  0
   -3.7339    2.3353   -0.1898 N   0  0  0  0  0  0  0  0  0  0  0  0
   -2.8829    1.3289    0.0992 C   0  0  0  0  0  0  0  0  0  0  0  0
   -3.0746    0.0050    0.3668 N   0  0  0  0  0  0  0  0  0  0  0  0
   -4.3491   -0.6564    0.3987 C   0  0  0  0  0  0  0  0  0  0  0  0
   -5.1987   -0.0595   -0.7194 C   0  0  0  0  0  0  0  0  0  0  0  0
   -6.0517   -1.1570   -1.2648 C   0  0  0  0  0  0  0  0  0  0  0  0
   -5.7406   -2.3816   -0.4737 C   0  0  0  0  0  0  0  0  0  0  0  0
   -4.3228   -2.1049    0.0486 C   0  0  0  0  0  0  0  0  0  0  0  0
   -1.8822   -0.5254    0.5834 C   0  0  0  0  0  0  0  0  0  0  0  0
   -1.4101   -2.5083    1.0503 I   0  0  0  0  0  0  0  0  0  0  0  0
   -0.8888    0.4513    0.4594 C   0  0  0  0  0  0  0  0  0  0  0  0
    0.5392    0.3204    0.6105 C   0  0  0  0  0  0  0  0  0  0  0  0
    1.3723   -0.1557   -0.3815 C   0  0  0  0  0  0  0  0  0  0  0  0
    2.7360   -0.2707   -0.2077 C   0  0  0  0  0  0  0  0  0  0  0  0
    3.3307    0.0914    0.9835 C   0  0  0  0  0  0  0  0  0  0  0  0
    4.6891    0.0006    1.2214 O   0  0  0  0  0  0  0  0  0  0  0  0
    5.6257   -0.4483    0.3456 C   0  0  0  0  0  0  0  0  0  0  0  0
    5.9555   -1.7780    0.3102 C   0  0  0  0  0  0  0  0  0  0  0  0
    6.9104   -2.1941   -0.5925 C   0  0  0  0  0  0  0  0  0  0  0  0
    7.5331   -1.3031   -1.4519 C   0  0  0  0  0  0  0  0  0  0  0  0
    7.2029    0.0167   -1.4139 C   0  0  0  0  0  0  0  0  0  0  0  0
    6.2446    0.4267   -0.5062 C   0  0  0  0  0  0  0  0  0  0  0  0
    2.5051    0.5684    1.9806 C   0  0  0  0  0  0  0  0  0  0  0  0
    1.1410    0.6850    1.8109 C   0  0  0  0  0  0  0  0  0  0  0  0
   -1.5374    1.6263    0.1513 C   0  0  0  0  0  0  0  0  0  0  0  0
    0.7970    2.9539   -0.8959 H   0  0  0  0  0  0  0  0  0  0  0  0
    0.6928    3.6543    0.8021 H   0  0  0  0  0  0  0  0  0  0  0  0
   -4.1236    4.3414   -0.6533 H   0  0  0  0  0  0  0  0  0  0  0  0
   -4.8617   -0.5462    1.3758 H   0  0  0  0  0  0  0  0  0  0  0  0
   -4.5020    0.2547   -1.5290 H   0  0  0  0  0  0  0  0  0  0  0  0
   -5.8080    0.7947   -0.3579 H   0  0  0  0  0  0  0  0  0  0  0  0
   -5.8176   -1.3852   -2.3418 H   0  0  0  0  0  0  0  0  0  0  0  0
   -7.1327   -0.8946   -1.2285 H   0  0  0  0  0  0  0  0  0  0  0  0
   -5.7940   -3.2993   -1.0616 H   0  0  0  0  0  0  0  0  0  0  0  0
   -6.3904   -2.3830    0.4246 H   0  0  0  0  0  0  0  0  0  0  0  0
   -4.2286   -2.7758    0.9277 H   0  0  0  0  0  0  0  0  0  0  0  0
   -3.6013   -2.2869   -0.7499 H   0  0  0  0  0  0  0  0  0  0  0  0
    0.9037   -0.4386   -1.3128 H   0  0  0  0  0  0  0  0  0  0  0  0
    3.3858   -0.6453   -0.9907 H   0  0  0  0  0  0  0  0  0  0  0  0
    5.4828   -2.4937    0.9718 H   0  0  0  0  0  0  0  0  0  0  0  0
    7.1913   -3.2555   -0.6394 H   0  0  0  0  0  0  0  0  0  0  0  0
    8.2736   -1.6940   -2.1356 H   0  0  0  0  0  0  0  0  0  0  0  0
    7.6678    0.7462   -2.0705 H   0  0  0  0  0  0  0  0  0  0  0  0
    5.9976    1.4926   -0.4964 H   0  0  0  0  0  0  0  0  0  0  0  0
    2.9456    0.8620    2.9315 H   0  0  0  0  0  0  0  0  0  0  0  0
    0.5411    1.0595    2.6107 H   0  0  0  0  0  0  0  0  0  0  0  0
  1  2  1  0
  2  3  2  0
  3  4  1  0
  4  5  2  0
  5  6  1  0
  6  7  1  0
  7  8  1  0
  8  9  1  0
  9 10  1  0
 10 11  1  0
 11 12  1  0
  7 13  1  0
 13 14  1  0
 13 15  2  0
 15 16  1  0
 16 17  2  0
 17 18  1  0
 18 19  2  0
 19 20  1  0
 20 21  1  0
 21 22  2  0
 22 23  1  0
 23 24  2  0
 24 25  1  0
 25 26  2  0
 19 27  1  0
 27 28  2  0
 15 29  1  0
 29  2  1  0
 29  6  2  0
 12  8  1  0
 28 16  1  0
 26 21  1  0
  1 30  1  0
  1 31  1  0
  4 32  1  0
  8 33  1  0
  9 34  1  0
  9 35  1  0
 10 36  1  0
 10 37  1  0
 11 38  1  0
 11 39  1  0
 12 40  1  0
 12 41  1  0
 17 42  1  0
 18 43  1  0
 22 44  1  0
 23 45  1  0
 24 46  1  0
 25 47  1  0
 26 48  1  0
 27 49  1  0
 28 50  1  0
M  END
$$$$
[H]/C(C(=O)N1C([H])([H])C([H])([H])C([H])([H])[C@@]([H])(n2nc(-c3c([H])c([H])c(Oc4c([H])c([H])c([H])c([H])c4[H])c([H])c3[H])c3c(N([H])[H])nc([H])nc32)C1([H])[H])=C(/[H])C([H])([H])N(C([H])([H])[H])C([H])([H])[H]
     RDKit          3D

 68 72  0  0  0  0  0  0  0  0999 V2000
   -6.2361    3.7076   -0.3725 C   0  0  0  0  0  0  0  0  0  0  0  0
   -7.1462    3.2511    0.6535 N   0  0  0  0  0  0  0  0  0  0  0  0
   -8.3764    2.7490    0.0474 C   0  0  0  0  0  0  0  0  0  0  0  0
   -6.5490    2.1900    1.4787 C   0  0  0  0  0  0  0  0  0  0  0  0
   -6.3625    0.9536    0.7025 C   0  0  0  0  0  0  0  0  0  0  0  0
   -5.1945    0.3581    0.4935 C   0  0  0  0  0  0  0  0  0  0  0  0
   -5.1198   -0.8680   -0.2939 C   0  0  0  0  0  0  0  0  0  0  0  0
   -6.2034   -1.3272   -0.7618 O   0  0  0  0  0  0  0  0  0  0  0  0
   -3.9018   -1.5379   -0.5407 N   0  0  0  0  0  0  0  0  0  0  0  0
   -3.9287   -2.7570   -1.3481 C   0  0  0  0  0  0  0  0  0  0  0  0
   -2.9077   -2.6693   -2.4723 C   0  0  0  0  0  0  0  0  0  0  0  0
   -1.5723   -2.2270   -1.9672 C   0  0  0  0  0  0  0  0  0  0  0  0
   -1.6225   -2.1903   -0.4493 C   0  0  2  0  0  0  0  0  0  0  0  0
   -2.6049   -1.1151   -0.0527 C   0  0  0  0  0  0  0  0  0  0  0  0
   -0.2922   -1.9324    0.0755 N   0  0  0  0  0  0  0  0  0  0  0  0
    0.7816   -1.5326   -0.5599 N   0  0  0  0  0  0  0  0  0  0  0  0
    1.8504   -1.4170    0.2793 C   0  0  0  0  0  0  0  0  0  0  0  0
    3.1890   -1.0317   -0.1183 C   0  0  0  0  0  0  0  0  0  0  0  0
    3.8645   -1.7689   -1.0932 C   0  0  0  0  0  0  0  0  0  0  0  0
    5.1139   -1.3832   -1.5274 C   0  0  0  0  0  0  0  0  0  0  0  0
    5.7213   -0.2520   -0.9995 C   0  0  0  0  0  0  0  0  0  0  0  0
    6.9959    0.1100   -1.4653 O   0  0  0  0  0  0  0  0  0  0  0  0
    7.5965    1.2372   -0.9131 C   0  0  0  0  0  0  0  0  0  0  0  0
    8.3892    1.1539    0.2129 C   0  0  0  0  0  0  0  0  0  0  0  0
    8.9896    2.2625    0.7696 C   0  0  0  0  0  0  0  0  0  0  0  0
    8.8220    3.5157    0.2183 C   0  0  0  0  0  0  0  0  0  0  0  0
    8.0300    3.6148   -0.9112 C   0  0  0  0  0  0  0  0  0  0  0  0
    7.4295    2.5047   -1.4671 C   0  0  0  0  0  0  0  0  0  0  0  0
    5.0616    0.4701   -0.0468 C   0  0  0  0  0  0  0  0  0  0  0  0
    3.8142    0.0734    0.3767 C   0  0  0  0  0  0  0  0  0  0  0  0
    1.4287   -1.7669    1.5236 C   0  0  0  0  0  0  0  0  0  0  0  0
    2.0332   -1.8690    2.7670 C   0  0  0  0  0  0  0  0  0  0  0  0
    3.4164   -1.5956    2.9550 N   0  0  0  0  0  0  0  0  0  0  0  0
    1.2620   -2.2789    3.7987 N   0  0  0  0  0  0  0  0  0  0  0  0
   -0.0362   -2.5883    3.6838 C   0  0  0  0  0  0  0  0  0  0  0  0
   -0.5883   -2.4813    2.4681 N   0  0  0  0  0  0  0  0  0  0  0  0
    0.0712   -2.0877    1.3740 C   0  0  0  0  0  0  0  0  0  0  0  0
   -5.2109    3.6468    0.0390 H   0  0  0  0  0  0  0  0  0  0  0  0
   -6.3421    3.1163   -1.3225 H   0  0  0  0  0  0  0  0  0  0  0  0
   -6.4184    4.7538   -0.6572 H   0  0  0  0  0  0  0  0  0  0  0  0
   -8.9315    2.2146    0.8217 H   0  0  0  0  0  0  0  0  0  0  0  0
   -8.9061    3.6352   -0.3684 H   0  0  0  0  0  0  0  0  0  0  0  0
   -8.1510    2.1015   -0.8297 H   0  0  0  0  0  0  0  0  0  0  0  0
   -7.2672    2.0680    2.3335 H   0  0  0  0  0  0  0  0  0  0  0  0
   -5.5998    2.5533    1.9084 H   0  0  0  0  0  0  0  0  0  0  0  0
   -7.2486    0.4942    0.2679 H   0  0  0  0  0  0  0  0  0  0  0  0
   -4.2963    0.8077    0.9240 H   0  0  0  0  0  0  0  0  0  0  0  0
   -3.8547   -3.6733   -0.7631 H   0  0  0  0  0  0  0  0  0  0  0  0
   -4.9231   -2.8277   -1.8865 H   0  0  0  0  0  0  0  0  0  0  0  0
   -3.3392   -1.9281   -3.2089 H   0  0  0  0  0  0  0  0  0  0  0  0
   -2.8794   -3.6788   -2.9474 H   0  0  0  0  0  0  0  0  0  0  0  0
   -1.3941   -1.1836   -2.2974 H   0  0  0  0  0  0  0  0  0  0  0  0
   -0.7277   -2.8311   -2.3364 H   0  0  0  0  0  0  0  0  0  0  0  0
   -2.0044   -3.1820   -0.1074 H   0  0  0  0  0  0  0  0  0  0  0  0
   -2.6105   -0.9455    1.0443 H   0  0  0  0  0  0  0  0  0  0  0  0
   -2.3160   -0.1952   -0.6121 H   0  0  0  0  0  0  0  0  0  0  0  0
    3.3512   -2.6398   -1.4735 H   0  0  0  0  0  0  0  0  0  0  0  0
    5.6079   -1.9770   -2.2846 H   0  0  0  0  0  0  0  0  0  0  0  0
    8.5511    0.1949    0.6817 H   0  0  0  0  0  0  0  0  0  0  0  0
    9.6105    2.1966    1.6524 H   0  0  0  0  0  0  0  0  0  0  0  0
    9.2963    4.3871    0.6595 H   0  0  0  0  0  0  0  0  0  0  0  0
    7.9081    4.6111   -1.3341 H   0  0  0  0  0  0  0  0  0  0  0  0
    6.8034    2.6018   -2.3648 H   0  0  0  0  0  0  0  0  0  0  0  0
    5.5196    1.3448    0.3683 H   0  0  0  0  0  0  0  0  0  0  0  0
    3.3094    0.7054    1.1367 H   0  0  0  0  0  0  0  0  0  0  0  0
    3.6744   -0.7045    3.4232 H   0  0  0  0  0  0  0  0  0  0  0  0
    4.1944   -2.2227    2.6587 H   0  0  0  0  0  0  0  0  0  0  0  0
   -0.6238   -2.9181    4.5557 H   0  0  0  0  0  0  0  0  0  0  0  0
  1  2  1  0
  2  3  1  0
  2  4  1  0
  4  5  1  0
  5  6  2  0
  6  7  1  0
  7  8  2  0
  7  9  1  0
  9 10  1  0
 10 11  1  0
 11 12  1  0
 12 13  1  0
 13 14  1  0
 13 15  1  0
 15 16  1  0
 16 17  2  0
 17 18  1  0
 18 19  2  0
 19 20  1  0
 20 21  2  0
 21 22  1  0
 22 23  1  0
 23 24  2  0
 24 25  1  0
 25 26  2  0
 26 27  1  0
 27 28  2  0
 21 29  1  0
 29 30  2  0
 17 31  1  0
 31 32  2  0
 32 33  1  0
 32 34  1  0
 34 35  2  0
 35 36  1  0
 36 37  2  0
 14  9  1  0
 37 15  1  0
 30 18  1  0
 37 31  1  0
 28 23  1  0
  1 38  1  0
  1 39  1  0
  1 40  1  0
  3 41  1  0
  3 42  1  0
  3 43  1  0
  4 44  1  0
  4 45  1  0
  5 46  1  0
  6 47  1  0
 10 48  1  0
 10 49  1  0
 11 50  1  0
 11 51  1  0
 12 52  1  0
 12 53  1  0
 13 54  1  1
 14 55  1  0
 14 56  1  0
 19 57  1  0
 20 58  1  0
 24 59  1  0
 25 60  1  0
 26 61  1  0
 27 62  1  0
 28 63  1  0
 29 64  1  0
 30 65  1  0
 33 66  1  0
 33 67  1  0
 35 68  1  0
M  END
$$$$
[H]c1c([H])c(Cl)c(N([H])c2nc3c([H])c([H])c([N+](=O)[O-])c([H])c3n3c([H])nc([H])c23)c(Cl)c1[H]
     RDKit          3D

 34 37  0  0  0  0  0  0  0  0999 V2000
    6.2034    0.9700    1.6024 O   0  0  0  0  0  0  0  0  0  0  0  0
    5.5130    0.3854    0.5593 N   0  0  0  0  0  0  0  0  0  0  0  0
    6.1918   -0.1068   -0.3600 O   0  0  0  0  0  0  0  0  0  0  0  0
    4.0934    0.3478    0.5370 C   0  0  0  0  0  0  0  0  0  0  0  0
    3.3436    0.8928    1.5551 C   0  0  0  0  0  0  0  0  0  0  0  0
    1.9485    0.8366    1.4981 C   0  0  0  0  0  0  0  0  0  0  0  0
    1.2871    0.2438    0.4390 C   0  0  0  0  0  0  0  0  0  0  0  0
   -0.0613    0.1754    0.3583 N   0  0  0  0  0  0  0  0  0  0  0  0
   -0.6874   -0.4034   -0.6763 C   0  0  0  0  0  0  0  0  0  0  0  0
   -2.0745   -0.4993   -0.8058 N   0  0  0  0  0  0  0  0  0  0  0  0
   -2.9959    0.0113    0.1550 C   0  0  0  0  0  0  0  0  0  0  0  0
   -3.4593    1.2950    0.0500 C   0  0  0  0  0  0  0  0  0  0  0  0
   -2.9197    2.3331   -1.2789 Cl  0  0  0  0  0  0  0  0  0  0  0  0
   -4.3515    1.7934    0.9781 C   0  0  0  0  0  0  0  0  0  0  0  0
   -4.7925    1.0255    2.0182 C   0  0  0  0  0  0  0  0  0  0  0  0
   -4.3162   -0.2684    2.1115 C   0  0  0  0  0  0  0  0  0  0  0  0
   -3.4291   -0.7668    1.1902 C   0  0  0  0  0  0  0  0  0  0  0  0
   -2.8848   -2.4158    1.3946 Cl  0  0  0  0  0  0  0  0  0  0  0  0
    0.1233   -0.9402   -1.6813 C   0  0  0  0  0  0  0  0  0  0  0  0
   -0.2137   -1.5943   -2.8626 C   0  0  0  0  0  0  0  0  0  0  0  0
    0.9404   -1.9060   -3.4686 N   0  0  0  0  0  0  0  0  0  0  0  0
    1.9726   -1.4876   -2.7395 C   0  0  0  0  0  0  0  0  0  0  0  0
    1.4578   -0.8903   -1.6338 N   0  0  0  0  0  0  0  0  0  0  0  0
    2.0621   -0.2932   -0.5650 C   0  0  0  0  0  0  0  0  0  0  0  0
    3.4416   -0.2427   -0.5181 C   0  0  0  0  0  0  0  0  0  0  0  0
    3.8106    1.3759    2.4205 H   0  0  0  0  0  0  0  0  0  0  0  0
    1.3394    1.2678    2.3040 H   0  0  0  0  0  0  0  0  0  0  0  0
   -2.4810   -0.9683   -1.6474 H   0  0  0  0  0  0  0  0  0  0  0  0
   -4.6956    2.8119    0.8627 H   0  0  0  0  0  0  0  0  0  0  0  0
   -5.5011    1.3909    2.7728 H   0  0  0  0  0  0  0  0  0  0  0  0
   -4.6587   -0.8978    2.9382 H   0  0  0  0  0  0  0  0  0  0  0  0
   -1.2316   -1.7994   -3.2032 H   0  0  0  0  0  0  0  0  0  0  0  0
    3.0465   -1.5820   -2.9466 H   0  0  0  0  0  0  0  0  0  0  0  0
    3.9788   -0.6939   -1.3580 H   0  0  0  0  0  0  0  0  0  0  0  0
  1  2  1  0
  2  3  2  0
  2  4  1  0
  4  5  2  0
  5  6  1  0
  6  7  2  0
  7  8  1  0
  8  9  2  0
  9 10  1  0
 10 11  1  0
 11 12  2  0
 12 13  1  0
 12 14  1  0
 14 15  2  0
 15 16  1  0
 16 17  2  0
 17 18  1  0
  9 19  1  0
 19 20  2  0
 20 21  1  0
 21 22  2  0
 22 23  1  0
 23 24  1  0
 24 25  2  0
 25  4  1  0
 24  7  1  0
 17 11  1  0
 23 19  1  0
  5 26  1  0
  6 27  1  0
 10 28  1  0
 14 29  1  0
 15 30  1  0
 16 31  1  0
 20 32  1  0
 22 33  1  0
 25 34  1  0
M  CHG  2   1  -1   2   1
M  END
$$$$
[H]OC([H])([H])C([H])([H])N1C([H])([H])C([H])([H])N(C([H])([H])C([H])([H])C([H])([H])c2c3c(n([H])c2/C([H])=C2\C(=O)N([H])c4c([H])c([H])c(OC(=O)N(C([H])([H])[H])C([H])([H])[H])c([H])c42)C([H])([H])C([H])([H])C([H])([H])C3([H])[H])C([H])([H])C1([H])[H]
     RDKit          3D

 77 81  0  0  0  0  0  0  0  0999 V2000
   -7.3734    4.7018    0.9346 C   0  0  0  0  0  0  0  0  0  0  0  0
   -7.7454    3.3166    1.0507 N   0  0  0  0  0  0  0  0  0  0  0  0
   -8.8025    2.9521    1.9654 C   0  0  0  0  0  0  0  0  0  0  0  0
   -7.1149    2.3084    0.3037 C   0  0  0  0  0  0  0  0  0  0  0  0
   -7.4650    1.0887    0.4400 O   0  0  0  0  0  0  0  0  0  0  0  0
   -6.0910    2.4935   -0.6282 O   0  0  0  0  0  0  0  0  0  0  0  0
   -5.5403    1.4072   -1.3117 C   0  0  0  0  0  0  0  0  0  0  0  0
   -6.0539    0.9191   -2.4885 C   0  0  0  0  0  0  0  0  0  0  0  0
   -5.5135   -0.1545   -3.1630 C   0  0  0  0  0  0  0  0  0  0  0  0
   -4.3808   -0.7860   -2.6242 C   0  0  0  0  0  0  0  0  0  0  0  0
   -3.5970   -1.8905   -3.0383 N   0  0  0  0  0  0  0  0  0  0  0  0
   -2.5566   -2.1102   -2.0990 C   0  0  0  0  0  0  0  0  0  0  0  0
   -1.7019   -3.0160   -2.1846 O   0  0  0  0  0  0  0  0  0  0  0  0
   -2.6915   -1.1047   -1.0578 C   0  0  0  0  0  0  0  0  0  0  0  0
   -1.9469   -0.8972    0.0094 C   0  0  0  0  0  0  0  0  0  0  0  0
   -0.7979   -1.7238    0.2871 C   0  0  0  0  0  0  0  0  0  0  0  0
   -0.7664   -2.6390    1.3047 N   0  0  0  0  0  0  0  0  0  0  0  0
    0.4246   -3.2374    1.3883 C   0  0  0  0  0  0  0  0  0  0  0  0
    1.0439   -4.2690    2.2628 C   0  0  0  0  0  0  0  0  0  0  0  0
    1.7986   -5.2884    1.4421 C   0  0  0  0  0  0  0  0  0  0  0  0
    2.7233   -4.6966    0.4330 C   0  0  0  0  0  0  0  0  0  0  0  0
    2.6004   -3.2070    0.2576 C   0  0  0  0  0  0  0  0  0  0  0  0
    1.2135   -2.7073    0.3971 C   0  0  0  0  0  0  0  0  0  0  0  0
    0.4423   -1.7630   -0.2834 C   0  0  0  0  0  0  0  0  0  0  0  0
    0.9787   -0.9397   -1.3923 C   0  0  0  0  0  0  0  0  0  0  0  0
    1.3407    0.4700   -0.9544 C   0  0  0  0  0  0  0  0  0  0  0  0
    2.3651    0.4307    0.1636 C   0  0  0  0  0  0  0  0  0  0  0  0
    2.7645    1.7405    0.6161 N   0  0  0  0  0  0  0  0  0  0  0  0
    3.6056    1.5403    1.7921 C   0  0  0  0  0  0  0  0  0  0  0  0
    4.7676    0.6662    1.5124 C   0  0  0  0  0  0  0  0  0  0  0  0
    5.5443    1.1035    0.3782 N   0  0  0  0  0  0  0  0  0  0  0  0
    6.7685    1.7263    0.7563 C   0  0  0  0  0  0  0  0  0  0  0  0
    7.6466    2.1182   -0.3788 C   0  0  0  0  0  0  0  0  0  0  0  0
    7.9611    0.9724   -1.1090 O   0  0  0  0  0  0  0  0  0  0  0  0
    4.8300    1.6407   -0.7091 C   0  0  0  0  0  0  0  0  0  0  0  0
    3.5839    2.4105   -0.4061 C   0  0  0  0  0  0  0  0  0  0  0  0
   -3.8676   -0.2989   -1.4506 C   0  0  0  0  0  0  0  0  0  0  0  0
   -4.4375    0.7881   -0.7947 C   0  0  0  0  0  0  0  0  0  0  0  0
   -6.2717    4.8406    0.8592 H   0  0  0  0  0  0  0  0  0  0  0  0
   -7.8930    5.0817    0.0057 H   0  0  0  0  0  0  0  0  0  0  0  0
   -7.8076    5.2600    1.7742 H   0  0  0  0  0  0  0  0  0  0  0  0
   -9.3665    3.8113    2.3459 H   0  0  0  0  0  0  0  0  0  0  0  0
   -9.5451    2.3675    1.3475 H   0  0  0  0  0  0  0  0  0  0  0  0
   -8.4441    2.2973    2.7874 H   0  0  0  0  0  0  0  0  0  0  0  0
   -6.9429    1.4042   -2.9250 H   0  0  0  0  0  0  0  0  0  0  0  0
   -5.8838   -0.5634   -4.0828 H   0  0  0  0  0  0  0  0  0  0  0  0
   -3.8022   -2.4350   -3.9248 H   0  0  0  0  0  0  0  0  0  0  0  0
   -2.2017   -0.0959    0.6839 H   0  0  0  0  0  0  0  0  0  0  0  0
   -1.5623   -2.8762    1.9653 H   0  0  0  0  0  0  0  0  0  0  0  0
    0.2681   -4.7897    2.8579 H   0  0  0  0  0  0  0  0  0  0  0  0
    1.7941   -3.7592    2.9148 H   0  0  0  0  0  0  0  0  0  0  0  0
    1.0180   -5.9607    0.9953 H   0  0  0  0  0  0  0  0  0  0  0  0
    2.3793   -5.9118    2.1574 H   0  0  0  0  0  0  0  0  0  0  0  0
    3.7963   -4.8801    0.7057 H   0  0  0  0  0  0  0  0  0  0  0  0
    2.5514   -5.2099   -0.5268 H   0  0  0  0  0  0  0  0  0  0  0  0
    3.2873   -2.6667    0.9580 H   0  0  0  0  0  0  0  0  0  0  0  0
    2.9368   -3.0084   -0.8053 H   0  0  0  0  0  0  0  0  0  0  0  0
    0.2852   -0.8199   -2.2408 H   0  0  0  0  0  0  0  0  0  0  0  0
    1.9077   -1.3758   -1.8068 H   0  0  0  0  0  0  0  0  0  0  0  0
    0.4120    0.9698   -0.6527 H   0  0  0  0  0  0  0  0  0  0  0  0
    1.7988    0.9591   -1.8252 H   0  0  0  0  0  0  0  0  0  0  0  0
    3.2526   -0.1653   -0.1651 H   0  0  0  0  0  0  0  0  0  0  0  0
    1.9143   -0.1128    1.0092 H   0  0  0  0  0  0  0  0  0  0  0  0
    3.9619    2.5080    2.2001 H   0  0  0  0  0  0  0  0  0  0  0  0
    2.9463    1.0377    2.5445 H   0  0  0  0  0  0  0  0  0  0  0  0
    4.4896   -0.3921    1.3845 H   0  0  0  0  0  0  0  0  0  0  0  0
    5.4469    0.7079    2.4014 H   0  0  0  0  0  0  0  0  0  0  0  0
    7.3552    1.0208    1.4150 H   0  0  0  0  0  0  0  0  0  0  0  0
    6.5893    2.6186    1.4062 H   0  0  0  0  0  0  0  0  0  0  0  0
    8.6422    2.4130    0.1014 H   0  0  0  0  0  0  0  0  0  0  0  0
    7.3195    2.9689   -0.9723 H   0  0  0  0  0  0  0  0  0  0  0  0
    8.6193    0.4305   -0.5834 H   0  0  0  0  0  0  0  0  0  0  0  0
    5.4863    2.3321   -1.2942 H   0  0  0  0  0  0  0  0  0  0  0  0
    4.5324    0.8315   -1.4204 H   0  0  0  0  0  0  0  0  0  0  0  0
    3.7870    3.4329   -0.0230 H   0  0  0  0  0  0  0  0  0  0  0  0
    2.9960    2.5239   -1.3178 H   0  0  0  0  0  0  0  0  0  0  0  0
   -4.0119    1.1403    0.1164 H   0  0  0  0  0  0  0  0  0  0  0  0
  1  2  1  0
  2  3  1  0
  2  4  1  0
  4  5  2  0
  4  6  1  0
  6  7  1  0
  7  8  2  0
  8  9  1  0
  9 10  2  0
 10 11  1  0
 11 12  1  0
 12 13  2  0
 12 14  1  0
 14 15  2  0
 15 16  1  0
 16 17  1  0
 17 18  1  0
 18 19  1  0
 19 20  1  0
 20 21  1  0
 21 22  1  0
 22 23  1  0
 23 24  1  0
 24 25  1  0
 25 26  1  0
 26 27  1  0
 27 28  1  0
 28 29  1  0
 29 30  1  0
 30 31  1  0
 31 32  1  0
 32 33  1  0
 33 34  1  0
 31 35  1  0
 35 36  1  0
 14 37  1  0
 37 38  2  0
 38  7  1  0
 37 10  1  0
 24 16  2  0
 36 28  1  0
 23 18  2  0
  1 39  1  0
  1 40  1  0
  1 41  1  0
  3 42  1  0
  3 43  1  0
  3 44  1  0
  8 45  1  0
  9 46  1  0
 11 47  1  0
 15 48  1  0
 17 49  1  0
 19 50  1  0
 19 51  1  0
 20 52  1  0
 20 53  1  0
 21 54  1  0
 21 55  1  0
 22 56  1  0
 22 57  1  0
 25 58  1  0
 25 59  1  0
 26 60  1  0
 26 61  1  0
 27 62  1  0
 27 63  1  0
 29 64  1  0
 29 65  1  0
 30 66  1  0
 30 67  1  0
 32 68  1  0
 32 69  1  0
 33 70  1  0
 33 71  1  0
 34 72  1  0
 35 73  1  0
 35 74  1  0
 36 75  1  0
 36 76  1  0
 38 77  1  0
M  END
$$$$
[H]c1nc(N([H])c2c([H])c([H])c(N3C([H])([H])C([H])([H])OC([H])([H])C3([H])[H])c([H])c2[H])sc1C(=O)N([H])c1c(Cl)c([H])c([H])c([H])c1C([H])([H])[H]
     RDKit          3D

 50 53  0  0  0  0  0  0  0  0999 V2000
    6.0492    0.4690   -2.9469 C   0  0  0  0  0  0  0  0  0  0  0  0
    6.9269   -0.0425   -1.8877 C   0  0  0  0  0  0  0  0  0  0  0  0
    8.2771   -0.0566   -2.1055 C   0  0  0  0  0  0  0  0  0  0  0  0
    9.1149   -0.5287   -1.1205 C   0  0  0  0  0  0  0  0  0  0  0  0
    8.5424   -0.9788    0.0742 C   0  0  0  0  0  0  0  0  0  0  0  0
    7.1825   -0.9594    0.2808 C   0  0  0  0  0  0  0  0  0  0  0  0
    6.5258   -1.5317    1.7859 Cl  0  0  0  0  0  0  0  0  0  0  0  0
    6.3472   -0.4898   -0.6987 C   0  0  0  0  0  0  0  0  0  0  0  0
    4.9357   -0.4406   -0.5631 N   0  0  0  0  0  0  0  0  0  0  0  0
    4.1009   -1.5332   -0.9298 C   0  0  0  0  0  0  0  0  0  0  0  0
    4.6576   -2.5646   -1.3821 O   0  0  0  0  0  0  0  0  0  0  0  0
    2.6451   -1.4496   -0.7820 C   0  0  0  0  0  0  0  0  0  0  0  0
    1.9268   -0.3783   -0.3111 C   0  0  0  0  0  0  0  0  0  0  0  0
    0.6434   -0.5037   -0.2629 N   0  0  0  0  0  0  0  0  0  0  0  0
    0.0336   -1.5898   -0.6389 C   0  0  0  0  0  0  0  0  0  0  0  0
   -1.3382   -1.9903   -0.6951 N   0  0  0  0  0  0  0  0  0  0  0  0
   -2.3835   -1.1562   -0.3235 C   0  0  0  0  0  0  0  0  0  0  0  0
   -3.6509   -1.7705   -0.2258 C   0  0  0  0  0  0  0  0  0  0  0  0
   -4.7793   -1.0662    0.1175 C   0  0  0  0  0  0  0  0  0  0  0  0
   -4.7039    0.2758    0.3789 C   0  0  0  0  0  0  0  0  0  0  0  0
   -3.4959    0.9309    0.3000 C   0  0  0  0  0  0  0  0  0  0  0  0
   -2.3633    0.1808   -0.0535 C   0  0  0  0  0  0  0  0  0  0  0  0
   -5.8560    0.9888    0.7393 N   0  0  0  0  0  0  0  0  0  0  0  0
   -5.9092    2.4521    0.7510 C   0  0  0  0  0  0  0  0  0  0  0  0
   -6.1830    2.8439    2.1810 C   0  0  0  0  0  0  0  0  0  0  0  0
   -7.3921    2.2578    2.5536 O   0  0  0  0  0  0  0  0  0  0  0  0
   -7.3363    0.8655    2.5804 C   0  0  0  0  0  0  0  0  0  0  0  0
   -7.1197    0.4015    1.1557 C   0  0  0  0  0  0  0  0  0  0  0  0
    1.4012   -2.5629   -1.1207 S   0  0  0  0  0  0  0  0  0  0  0  0
    5.2408    1.1135   -2.5185 H   0  0  0  0  0  0  0  0  0  0  0  0
    5.5720   -0.3720   -3.4622 H   0  0  0  0  0  0  0  0  0  0  0  0
    6.5962    1.0819   -3.6868 H   0  0  0  0  0  0  0  0  0  0  0  0
    8.6753    0.3061   -3.0574 H   0  0  0  0  0  0  0  0  0  0  0  0
   10.1664   -0.5311   -1.3100 H   0  0  0  0  0  0  0  0  0  0  0  0
    9.2351   -1.3376    0.8129 H   0  0  0  0  0  0  0  0  0  0  0  0
    4.5052    0.4274   -0.1822 H   0  0  0  0  0  0  0  0  0  0  0  0
    2.4507    0.5476    0.0099 H   0  0  0  0  0  0  0  0  0  0  0  0
   -1.4892   -2.9791   -1.0475 H   0  0  0  0  0  0  0  0  0  0  0  0
   -3.7360   -2.8169   -0.4258 H   0  0  0  0  0  0  0  0  0  0  0  0
   -5.7040   -1.6232    0.1650 H   0  0  0  0  0  0  0  0  0  0  0  0
   -3.3699    1.9902    0.4992 H   0  0  0  0  0  0  0  0  0  0  0  0
   -1.4332    0.7071   -0.1182 H   0  0  0  0  0  0  0  0  0  0  0  0
   -5.0831    2.9476    0.2691 H   0  0  0  0  0  0  0  0  0  0  0  0
   -6.8367    2.7220    0.1792 H   0  0  0  0  0  0  0  0  0  0  0  0
   -6.2929    3.9223    2.2585 H   0  0  0  0  0  0  0  0  0  0  0  0
   -5.4081    2.4858    2.8755 H   0  0  0  0  0  0  0  0  0  0  0  0
   -6.4595    0.5886    3.2033 H   0  0  0  0  0  0  0  0  0  0  0  0
   -8.2845    0.4867    2.9868 H   0  0  0  0  0  0  0  0  0  0  0  0
   -7.9186    0.9196    0.5469 H   0  0  0  0  0  0  0  0  0  0  0  0
   -7.2247   -0.6591    1.0157 H   0  0  0  0  0  0  0  0  0  0  0  0
  1  2  1  0
  2  3  2  0
  3  4  1  0
  4  5  2  0
  5  6  1  0
  6  7  1  0
  6  8  2  0
  8  9  1  0
  9 10  1  0
 10 11  2  0
 10 12  1  0
 12 13  2  0
 13 14  1  0
 14 15  2  0
 15 16  1  0
 16 17  1  0
 17 18  2  0
 18 19  1  0
 19 20  2  0
 20 21  1  0
 21 22  2  0
 20 23  1  0
 23 24  1  0
 24 25  1  0
 25 26  1  0
 26 27  1  0
 27 28  1  0
 15 29  1  0
  8  2  1  0
 29 12  1  0
 22 17  1  0
 28 23  1  0
  1 30  1  0
  1 31  1  0
  1 32  1  0
  3 33  1  0
  4 34  1  0
  5 35  1  0
  9 36  1  0
 13 37  1  0
 16 38  1  0
 18 39  1  0
 19 40  1  0
 21 41  1  0
 22 42  1  0
 24 43  1  0
 24 44  1  0
 25 45  1  0
 25 46  1  0
 27 47  1  0
 27 48  1  0
 28 49  1  0
 28 50  1  0
M  END
$$$$
[H]c1nc2c(nc([H])c(=O)n2[H])c(Oc2c([H])c([H])c(N([H])C(=O)N([H])c3c([H])c(C(C([H])([H])[H])(C([H])([H])[H])C([H])([H])[H])nn3-c3c([H])c([H])c([H])c([H])c3[H])c3c([H])c([H])c([H])c([H])c23)c1[H]
     RDKit          3D

 68 73  0  0  0  0  0  0  0  0999 V2000
   -7.4670   -2.4327    0.9206 C   0  0  0  0  0  0  0  0  0  0  0  0
   -5.9970   -2.6639    0.6530 C   0  0  0  0  0  0  0  0  0  0  0  0
   -5.4079   -3.4927    1.7583 C   0  0  0  0  0  0  0  0  0  0  0  0
   -5.9167   -3.4333   -0.6651 C   0  0  0  0  0  0  0  0  0  0  0  0
   -5.3053   -1.3503    0.4924 C   0  0  0  0  0  0  0  0  0  0  0  0
   -3.9432   -1.1832    0.2655 C   0  0  0  0  0  0  0  0  0  0  0  0
   -3.7157    0.1519    0.1780 C   0  0  0  0  0  0  0  0  0  0  0  0
   -2.5186    0.8415   -0.0301 N   0  0  0  0  0  0  0  0  0  0  0  0
   -1.2509    0.1793   -0.1761 C   0  0  0  0  0  0  0  0  0  0  0  0
   -1.2787   -1.0559   -0.1116 O   0  0  0  0  0  0  0  0  0  0  0  0
   -0.0791    0.9770   -0.3780 N   0  0  0  0  0  0  0  0  0  0  0  0
    1.2068    0.4377   -0.5262 C   0  0  0  0  0  0  0  0  0  0  0  0
    1.5177   -0.8973   -0.5813 C   0  0  0  0  0  0  0  0  0  0  0  0
    2.8345   -1.3515   -0.7245 C   0  0  0  0  0  0  0  0  0  0  0  0
    3.8962   -0.4895   -0.8185 C   0  0  0  0  0  0  0  0  0  0  0  0
    5.1728   -0.9997   -0.9542 O   0  0  0  0  0  0  0  0  0  0  0  0
    6.1486   -0.9409    0.0328 C   0  0  0  0  0  0  0  0  0  0  0  0
    5.9028   -0.4595    1.3065 C   0  0  0  0  0  0  0  0  0  0  0  0
    6.9431   -0.4447    2.2022 C   0  0  0  0  0  0  0  0  0  0  0  0
    8.1656   -0.8756    1.8825 N   0  0  0  0  0  0  0  0  0  0  0  0
    8.4522   -1.3512    0.6610 C   0  0  0  0  0  0  0  0  0  0  0  0
    9.7083   -1.7763    0.3772 N   0  0  0  0  0  0  0  0  0  0  0  0
    9.9890   -2.2456   -0.8406 C   0  0  0  0  0  0  0  0  0  0  0  0
   11.1667   -2.6429   -1.1034 O   0  0  0  0  0  0  0  0  0  0  0  0
    8.9949   -2.2904   -1.7914 C   0  0  0  0  0  0  0  0  0  0  0  0
    7.7491   -1.8611   -1.4856 N   0  0  0  0  0  0  0  0  0  0  0  0
    7.4245   -1.3796   -0.2661 C   0  0  0  0  0  0  0  0  0  0  0  0
    3.5978    0.8529   -0.7692 C   0  0  0  0  0  0  0  0  0  0  0  0
    4.6187    1.7524   -0.8949 C   0  0  0  0  0  0  0  0  0  0  0  0
    4.4046    3.1151   -0.8791 C   0  0  0  0  0  0  0  0  0  0  0  0
    3.1434    3.5690   -0.7368 C   0  0  0  0  0  0  0  0  0  0  0  0
    2.0539    2.6887   -0.6063 C   0  0  0  0  0  0  0  0  0  0  0  0
    2.2896    1.3374   -0.6256 C   0  0  0  0  0  0  0  0  0  0  0  0
   -4.9152    0.7982    0.3478 N   0  0  0  0  0  0  0  0  0  0  0  0
   -5.8146   -0.1184    0.5282 N   0  0  0  0  0  0  0  0  0  0  0  0
   -5.1136    2.2174    0.3262 C   0  0  0  0  0  0  0  0  0  0  0  0
   -4.5309    2.9925    1.2740 C   0  0  0  0  0  0  0  0  0  0  0  0
   -4.7123    4.3601    1.2600 C   0  0  0  0  0  0  0  0  0  0  0  0
   -5.4966    4.9653    0.2719 C   0  0  0  0  0  0  0  0  0  0  0  0
   -6.0911    4.1823   -0.6938 C   0  0  0  0  0  0  0  0  0  0  0  0
   -5.8925    2.8142   -0.6555 C   0  0  0  0  0  0  0  0  0  0  0  0
   -7.8073   -1.5422    0.3512 H   0  0  0  0  0  0  0  0  0  0  0  0
   -8.0722   -3.2911    0.5522 H   0  0  0  0  0  0  0  0  0  0  0  0
   -7.6828   -2.2468    1.9901 H   0  0  0  0  0  0  0  0  0  0  0  0
   -5.9617   -4.4646    1.7431 H   0  0  0  0  0  0  0  0  0  0  0  0
   -5.5704   -3.0132    2.7326 H   0  0  0  0  0  0  0  0  0  0  0  0
   -4.3581   -3.7360    1.5257 H   0  0  0  0  0  0  0  0  0  0  0  0
   -6.8365   -4.0327   -0.7982 H   0  0  0  0  0  0  0  0  0  0  0  0
   -5.0024   -4.0906   -0.6182 H   0  0  0  0  0  0  0  0  0  0  0  0
   -5.8157   -2.6536   -1.4583 H   0  0  0  0  0  0  0  0  0  0  0  0
   -3.2810   -2.0215    0.1887 H   0  0  0  0  0  0  0  0  0  0  0  0
   -2.4951    1.9062   -0.0872 H   0  0  0  0  0  0  0  0  0  0  0  0
   -0.2608    2.0201   -0.4128 H   0  0  0  0  0  0  0  0  0  0  0  0
    0.7340   -1.6364   -0.5185 H   0  0  0  0  0  0  0  0  0  0  0  0
    2.9774   -2.4323   -0.7581 H   0  0  0  0  0  0  0  0  0  0  0  0
    4.9226   -0.1185    1.5705 H   0  0  0  0  0  0  0  0  0  0  0  0
    6.7982   -0.0722    3.2281 H   0  0  0  0  0  0  0  0  0  0  0  0
   10.4155   -1.7174    1.1391 H   0  0  0  0  0  0  0  0  0  0  0  0
    9.2569   -2.6754   -2.7657 H   0  0  0  0  0  0  0  0  0  0  0  0
    5.6294    1.3828   -1.0407 H   0  0  0  0  0  0  0  0  0  0  0  0
    5.2844    3.7689   -0.9843 H   0  0  0  0  0  0  0  0  0  0  0  0
    2.9855    4.6587   -0.7231 H   0  0  0  0  0  0  0  0  0  0  0  0
    1.0916    3.1531   -0.4961 H   0  0  0  0  0  0  0  0  0  0  0  0
   -3.9147    2.5123    2.0505 H   0  0  0  0  0  0  0  0  0  0  0  0
   -4.2587    5.0023    2.0035 H   0  0  0  0  0  0  0  0  0  0  0  0
   -5.6392    6.0361    0.2611 H   0  0  0  0  0  0  0  0  0  0  0  0
   -6.7146    4.6092   -1.4893 H   0  0  0  0  0  0  0  0  0  0  0  0
   -6.3582    2.1978   -1.4109 H   0  0  0  0  0  0  0  0  0  0  0  0
  1  2  1  0
  2  3  1  0
  2  4  1  0
  2  5  1  0
  5  6  1  0
  6  7  2  0
  7  8  1  0
  8  9  1  0
  9 10  2  0
  9 11  1  0
 11 12  1  0
 12 13  2  0
 13 14  1  0
 14 15  2  0
 15 16  1  0
 16 17  1  0
 17 18  2  0
 18 19  1  0
 19 20  2  0
 20 21  1  0
 21 22  1  0
 22 23  1  0
 23 24  2  0
 23 25  1  0
 25 26  2  0
 26 27  1  0
 15 28  1  0
 28 29  2  0
 29 30  1  0
 30 31  2  0
 31 32  1  0
 32 33  2  0
  7 34  1  0
 34 35  1  0
 34 36  1  0
 36 37  2  0
 37 38  1  0
 38 39  2  0
 39 40  1  0
 40 41  2  0
 35  5  2  0
 41 36  1  0
 33 12  1  0
 27 17  1  0
 33 28  1  0
 27 21  2  0
  1 42  1  0
  1 43  1  0
  1 44  1  0
  3 45  1  0
  3 46  1  0
  3 47  1  0
  4 48  1  0
  4 49  1  0
  4 50  1  0
  6 51  1  0
  8 52  1  0
 11 53  1  0
 13 54  1  0
 14 55  1  0
 18 56  1  0
 19 57  1  0
 22 58  1  0
 25 59  1  0
 29 60  1  0
 30 61  1  0
 31 62  1  0
 32 63  1  0
 37 64  1  0
 38 65  1  0
 39 66  1  0
 40 67  1  0
 41 68  1  0
M  END
$$$$
[H]c1c(N2C([H])([H])C([H])([H])N(C([H])([H])[H])C([H])([H])C2([H])[H])c([H])c2c(nc(-c3c(N([H])[H])c4c([H])c([H])c([H])c([H])c4n([H])c3=O)n2[H])c1[H]
     RDKit          3D

 50 54  0  0  0  0  0  0  0  0999 V2000
   -7.0988    1.3909    0.6923 C   0  0  0  0  0  0  0  0  0  0  0  0
   -6.6159    0.4212   -0.2715 N   0  0  0  0  0  0  0  0  0  0  0  0
   -5.9268   -0.6625    0.3517 C   0  0  0  0  0  0  0  0  0  0  0  0
   -4.4308   -0.4781    0.3913 C   0  0  0  0  0  0  0  0  0  0  0  0
   -3.8873   -0.1263   -0.9029 N   0  0  0  0  0  0  0  0  0  0  0  0
   -4.8490    0.1487   -1.9411 C   0  0  0  0  0  0  0  0  0  0  0  0
   -5.9109    1.0481   -1.3421 C   0  0  0  0  0  0  0  0  0  0  0  0
   -2.4859   -0.0765   -1.0564 C   0  0  0  0  0  0  0  0  0  0  0  0
   -1.8415    0.2196   -2.2374 C   0  0  0  0  0  0  0  0  0  0  0  0
   -0.4782    0.2646   -2.3636 C   0  0  0  0  0  0  0  0  0  0  0  0
    0.3269    0.0039   -1.2665 C   0  0  0  0  0  0  0  0  0  0  0  0
    1.6297   -0.0413   -1.0254 N   0  0  0  0  0  0  0  0  0  0  0  0
    1.8959   -0.3573    0.2761 C   0  0  0  0  0  0  0  0  0  0  0  0
    0.6987   -0.5080    0.8395 N   0  0  0  0  0  0  0  0  0  0  0  0
   -0.2927   -0.2947   -0.0744 C   0  0  0  0  0  0  0  0  0  0  0  0
   -1.6772   -0.3337    0.0269 C   0  0  0  0  0  0  0  0  0  0  0  0
    3.2484   -0.4747    0.8166 C   0  0  0  0  0  0  0  0  0  0  0  0
    4.3586   -0.2677    0.0201 C   0  0  0  0  0  0  0  0  0  0  0  0
    4.1400    0.0637   -1.3448 N   0  0  0  0  0  0  0  0  0  0  0  0
    5.6612   -0.3571    0.4456 C   0  0  0  0  0  0  0  0  0  0  0  0
    6.7326   -0.1422   -0.3839 C   0  0  0  0  0  0  0  0  0  0  0  0
    7.9998   -0.2495    0.1144 C   0  0  0  0  0  0  0  0  0  0  0  0
    8.2001   -0.5692    1.4322 C   0  0  0  0  0  0  0  0  0  0  0  0
    7.1344   -0.7868    2.2727 C   0  0  0  0  0  0  0  0  0  0  0  0
    5.8402   -0.6851    1.7961 C   0  0  0  0  0  0  0  0  0  0  0  0
    4.7797   -0.8923    2.5957 N   0  0  0  0  0  0  0  0  0  0  0  0
    3.5017   -0.7916    2.1252 C   0  0  0  0  0  0  0  0  0  0  0  0
    2.5949   -1.0053    2.9587 O   0  0  0  0  0  0  0  0  0  0  0  0
   -6.8927    2.4127    0.3596 H   0  0  0  0  0  0  0  0  0  0  0  0
   -8.1934    1.2577    0.8425 H   0  0  0  0  0  0  0  0  0  0  0  0
   -6.6323    1.2281    1.6956 H   0  0  0  0  0  0  0  0  0  0  0  0
   -6.2669   -0.8106    1.3972 H   0  0  0  0  0  0  0  0  0  0  0  0
   -6.1465   -1.5977   -0.2147 H   0  0  0  0  0  0  0  0  0  0  0  0
   -4.0806    0.2290    1.1416 H   0  0  0  0  0  0  0  0  0  0  0  0
   -3.9966   -1.4817    0.6491 H   0  0  0  0  0  0  0  0  0  0  0  0
   -4.4519    0.5951   -2.8503 H   0  0  0  0  0  0  0  0  0  0  0  0
   -5.3709   -0.7863   -2.2397 H   0  0  0  0  0  0  0  0  0  0  0  0
   -6.6584    1.2144   -2.1713 H   0  0  0  0  0  0  0  0  0  0  0  0
   -5.5324    2.0222   -1.0346 H   0  0  0  0  0  0  0  0  0  0  0  0
   -2.4633    0.4272   -3.1131 H   0  0  0  0  0  0  0  0  0  0  0  0
    0.0241    0.4995   -3.3012 H   0  0  0  0  0  0  0  0  0  0  0  0
    0.5276   -0.7551    1.8410 H   0  0  0  0  0  0  0  0  0  0  0  0
   -2.1313   -0.5715    0.9782 H   0  0  0  0  0  0  0  0  0  0  0  0
    4.0039   -0.7376   -2.0051 H   0  0  0  0  0  0  0  0  0  0  0  0
    4.1139    1.0533   -1.6867 H   0  0  0  0  0  0  0  0  0  0  0  0
    6.5799    0.1075   -1.4133 H   0  0  0  0  0  0  0  0  0  0  0  0
    8.8517   -0.0769   -0.5509 H   0  0  0  0  0  0  0  0  0  0  0  0
    9.2186   -0.6492    1.8075 H   0  0  0  0  0  0  0  0  0  0  0  0
    7.2774   -1.0441    3.3336 H   0  0  0  0  0  0  0  0  0  0  0  0
    4.9724   -1.1331    3.5902 H   0  0  0  0  0  0  0  0  0  0  0  0
  1  2  1  0
  2  3  1  0
  3  4  1  0
  4  5  1  0
  5  6  1  0
  6  7  1  0
  5  8  1  0
  8  9  2  0
  9 10  1  0
 10 11  2  0
 11 12  1  0
 12 13  2  0
 13 14  1  0
 14 15  1  0
 15 16  2  0
 13 17  1  0
 17 18  2  0
 18 19  1  0
 18 20  1  0
 20 21  2  0
 21 22  1  0
 22 23  2  0
 23 24  1  0
 24 25  2  0
 25 26  1  0
 26 27  1  0
 27 28  2  0
  7  2  1  0
 16  8  1  0
 27 17  1  0
 15 11  1  0
 25 20  1  0
  1 29  1  0
  1 30  1  0
  1 31  1  0
  3 32  1  0
  3 33  1  0
  4 34  1  0
  4 35  1  0
  6 36  1  0
  6 37  1  0
  7 38  1  0
  7 39  1  0
  9 40  1  0
 10 41  1  0
 14 42  1  0
 16 43  1  0
 19 44  1  0
 19 45  1  0
 21 46  1  0
 22 47  1  0
 23 48  1  0
 24 49  1  0
 26 50  1  0
M  END
$$$$
[H]c1c([H])c([H])c2c(c1[H])c1c3c(c4c5c([H])c([H])c([H])c([H])c5n5c4c1n2[C@@]1([H])O[C@]5(C([H])([H])[H])[C@@]([H])(OC([H])([H])[H])[C@@]([H])(N([H])C([H])([H])[H])C1([H])[H])C([H])([H])N([H])C3=O
     RDKit          3D

 61 68  0  0  0  0  0  0  0  0999 V2000
   -2.5900    1.1246    2.6909 C   0  0  0  0  0  0  0  0  0  0  0  0
   -2.2701    0.1494    1.6691 N   0  0  0  0  0  0  0  0  0  0  0  0
   -2.7037    0.7256    0.3894 C   0  0  1  0  0  0  0  0  0  0  0  0
   -1.9693    1.9591    0.0600 C   0  0  0  0  0  0  0  0  0  0  0  0
   -1.0374    1.8542   -1.1025 C   0  0  2  0  0  0  0  0  0  0  0  0
   -1.1108    0.8211   -1.8978 O   0  0  0  0  0  0  0  0  0  0  0  0
   -1.4719   -0.4453   -1.4993 C   0  0  2  0  0  0  0  0  0  0  0  0
   -1.8587   -1.0747   -2.8537 C   0  0  0  0  0  0  0  0  0  0  0  0
   -2.6627   -0.3659   -0.6565 C   0  0  1  0  0  0  0  0  0  0  0  0
   -3.0555   -1.5061    0.0270 O   0  0  0  0  0  0  0  0  0  0  0  0
   -4.3079   -1.9695   -0.2639 C   0  0  0  0  0  0  0  0  0  0  0  0
   -0.3020   -1.1026   -0.9411 N   0  0  0  0  0  0  0  0  0  0  0  0
   -0.0368   -2.4107   -0.8661 C   0  0  0  0  0  0  0  0  0  0  0  0
   -0.7505   -3.5118   -1.2342 C   0  0  0  0  0  0  0  0  0  0  0  0
   -0.2313   -4.7829   -1.0386 C   0  0  0  0  0  0  0  0  0  0  0  0
    1.0025   -5.0019   -0.4761 C   0  0  0  0  0  0  0  0  0  0  0  0
    1.7444   -3.8826   -0.0939 C   0  0  0  0  0  0  0  0  0  0  0  0
    1.2038   -2.6348   -0.3003 C   0  0  0  0  0  0  0  0  0  0  0  0
    1.7282   -1.3877   -0.0109 C   0  0  0  0  0  0  0  0  0  0  0  0
    2.9250   -0.9637    0.5498 C   0  0  0  0  0  0  0  0  0  0  0  0
    4.0703   -1.7821    1.0519 C   0  0  0  0  0  0  0  0  0  0  0  0
    5.0490   -0.8360    1.5052 N   0  0  0  0  0  0  0  0  0  0  0  0
    4.5511    0.4878    1.3292 C   0  0  0  0  0  0  0  0  0  0  0  0
    5.2116    1.4752    1.6612 O   0  0  0  0  0  0  0  0  0  0  0  0
    3.2325    0.3685    0.7340 C   0  0  0  0  0  0  0  0  0  0  0  0
    2.2736    1.2731    0.3281 C   0  0  0  0  0  0  0  0  0  0  0  0
    2.1943    2.6494    0.3519 C   0  0  0  0  0  0  0  0  0  0  0  0
    3.0346    3.6410    0.7719 C   0  0  0  0  0  0  0  0  0  0  0  0
    2.6237    4.9672    0.6424 C   0  0  0  0  0  0  0  0  0  0  0  0
    1.4040    5.3207    0.1079 C   0  0  0  0  0  0  0  0  0  0  0  0
    0.5569    4.3176   -0.3154 C   0  0  0  0  0  0  0  0  0  0  0  0
    0.9564    3.0255   -0.1896 C   0  0  0  0  0  0  0  0  0  0  0  0
    0.3179    1.9031   -0.5262 N   0  0  0  0  0  0  0  0  0  0  0  0
    1.0813    0.8475   -0.2300 C   0  0  0  0  0  0  0  0  0  0  0  0
    0.8029   -0.4946   -0.4048 C   0  0  0  0  0  0  0  0  0  0  0  0
   -1.7275    1.7656    2.9459 H   0  0  0  0  0  0  0  0  0  0  0  0
   -3.4000    1.7830    2.2910 H   0  0  0  0  0  0  0  0  0  0  0  0
   -3.0290    0.6437    3.5924 H   0  0  0  0  0  0  0  0  0  0  0  0
   -2.7602   -0.7186    1.9035 H   0  0  0  0  0  0  0  0  0  0  0  0
   -3.7998    0.9480    0.5957 H   0  0  0  0  0  0  0  0  0  0  0  0
   -1.4594    2.3204    1.0029 H   0  0  0  0  0  0  0  0  0  0  0  0
   -2.7065    2.7776   -0.1658 H   0  0  0  0  0  0  0  0  0  0  0  0
   -1.0912    2.7965   -1.7221 H   0  0  0  0  0  0  0  0  0  0  0  0
   -2.0056   -0.3257   -3.6573 H   0  0  0  0  0  0  0  0  0  0  0  0
   -1.0068   -1.6950   -3.1940 H   0  0  0  0  0  0  0  0  0  0  0  0
   -2.8277   -1.6039   -2.8044 H   0  0  0  0  0  0  0  0  0  0  0  0
   -3.5358   -0.1252   -1.3381 H   0  0  0  0  0  0  0  0  0  0  0  0
   -4.4650   -2.8889    0.3782 H   0  0  0  0  0  0  0  0  0  0  0  0
   -4.4865   -2.3125   -1.2897 H   0  0  0  0  0  0  0  0  0  0  0  0
   -5.1216   -1.2643    0.0633 H   0  0  0  0  0  0  0  0  0  0  0  0
   -1.7208   -3.3825   -1.6725 H   0  0  0  0  0  0  0  0  0  0  0  0
   -0.8491   -5.6109   -1.3524 H   0  0  0  0  0  0  0  0  0  0  0  0
    1.4213   -5.9802   -0.3168 H   0  0  0  0  0  0  0  0  0  0  0  0
    2.7206   -4.0420    0.3513 H   0  0  0  0  0  0  0  0  0  0  0  0
    3.7648   -2.4865    1.8473 H   0  0  0  0  0  0  0  0  0  0  0  0
    4.5351   -2.3717    0.2322 H   0  0  0  0  0  0  0  0  0  0  0  0
    5.9960   -1.0989    1.9084 H   0  0  0  0  0  0  0  0  0  0  0  0
    3.9823    3.4684    1.1903 H   0  0  0  0  0  0  0  0  0  0  0  0
    3.2909    5.7541    0.9750 H   0  0  0  0  0  0  0  0  0  0  0  0
    1.0902    6.3566    0.0099 H   0  0  0  0  0  0  0  0  0  0  0  0
   -0.4140    4.5350   -0.7434 H   0  0  0  0  0  0  0  0  0  0  0  0
  1  2  1  0
  2  3  1  0
  3  4  1  0
  4  5  1  0
  5  6  1  0
  6  7  1  0
  7  8  1  6
  7  9  1  0
  9 10  1  0
 10 11  1  0
  7 12  1  0
 12 13  1  0
 13 14  2  0
 14 15  1  0
 15 16  2  0
 16 17  1  0
 17 18  2  0
 18 19  1  0
 19 20  2  0
 20 21  1  0
 21 22  1  0
 22 23  1  0
 23 24  2  0
 23 25  1  0
 25 26  2  0
 26 27  1  0
 27 28  2  0
 28 29  1  0
 29 30  2  0
 30 31  1  0
 31 32  2  0
 32 33  1  0
 33 34  1  0
 34 35  2  0
  9  3  1  0
 35 12  1  0
 33  5  1  0
 18 13  1  0
 35 19  1  0
 25 20  1  0
 34 26  1  0
 32 27  1  0
  1 36  1  0
  1 37  1  0
  1 38  1  0
  2 39  1  0
  3 40  1  1
  4 41  1  0
  4 42  1  0
  5 43  1  6
  8 44  1  0
  8 45  1  0
  8 46  1  0
  9 47  1  6
 11 48  1  0
 11 49  1  0
 11 50  1  0
 14 51  1  0
 15 52  1  0
 16 53  1  0
 17 54  1  0
 21 55  1  0
 21 56  1  0
 22 57  1  0
 28 58  1  0
 29 59  1  0
 30 60  1  0
 31 61  1  0
M  END
$$$$
[H]c1nc(C([H])([H])[H])oc1-c1c([H])c([H])c([H])c(C(=O)N([H])c2c([H])c([H])c(C([H])([H])[H])c(N([H])c3nc4c([H])c([H])c([H])c([H])c4n3-n3c([H])nc([H])c3[H])c2[H])c1[H]
     RDKit          3D

 60 65  0  0  0  0  0  0  0  0999 V2000
   10.3773    0.3248   -0.0942 C   0  0  0  0  0  0  0  0  0  0  0  0
    8.8872    0.1975   -0.0606 C   0  0  0  0  0  0  0  0  0  0  0  0
    8.1913   -0.8767   -0.4988 N   0  0  0  0  0  0  0  0  0  0  0  0
    6.8748   -0.6468   -0.3159 C   0  0  0  0  0  0  0  0  0  0  0  0
    6.7876    0.6056    0.2497 C   0  0  0  0  0  0  0  0  0  0  0  0
    8.0112    1.0474    0.3729 O   0  0  0  0  0  0  0  0  0  0  0  0
    5.5459    1.2859    0.6296 C   0  0  0  0  0  0  0  0  0  0  0  0
    5.5695    2.5430    1.1904 C   0  0  0  0  0  0  0  0  0  0  0  0
    4.3960    3.1860    1.5497 C   0  0  0  0  0  0  0  0  0  0  0  0
    3.1825    2.5481    1.3385 C   0  0  0  0  0  0  0  0  0  0  0  0
    3.1435    1.2980    0.7819 C   0  0  0  0  0  0  0  0  0  0  0  0
    4.3235    0.6618    0.4250 C   0  0  0  0  0  0  0  0  0  0  0  0
    1.8191    0.6750    0.5766 C   0  0  0  0  0  0  0  0  0  0  0  0
    0.8624    1.4758    0.5158 O   0  0  0  0  0  0  0  0  0  0  0  0
    1.7536   -0.7257    0.4713 N   0  0  0  0  0  0  0  0  0  0  0  0
    0.6063   -1.5246    0.2741 C   0  0  0  0  0  0  0  0  0  0  0  0
    0.7879   -2.9060    0.1909 C   0  0  0  0  0  0  0  0  0  0  0  0
   -0.2809   -3.7686   -0.0014 C   0  0  0  0  0  0  0  0  0  0  0  0
   -1.5563   -3.2658   -0.1148 C   0  0  0  0  0  0  0  0  0  0  0  0
   -2.6519   -4.2375   -0.3184 C   0  0  0  0  0  0  0  0  0  0  0  0
   -1.7964   -1.8913   -0.0391 C   0  0  0  0  0  0  0  0  0  0  0  0
   -3.1272   -1.4439   -0.1633 N   0  0  0  0  0  0  0  0  0  0  0  0
   -3.5807   -0.1132   -0.1167 C   0  0  0  0  0  0  0  0  0  0  0  0
   -2.9682    1.0599    0.0448 N   0  0  0  0  0  0  0  0  0  0  0  0
   -3.7962    2.0928    0.0241 C   0  0  0  0  0  0  0  0  0  0  0  0
   -3.7213    3.4608    0.1363 C   0  0  0  0  0  0  0  0  0  0  0  0
   -4.8375    4.2603    0.0636 C   0  0  0  0  0  0  0  0  0  0  0  0
   -6.0765    3.6790   -0.1279 C   0  0  0  0  0  0  0  0  0  0  0  0
   -6.1894    2.3198   -0.2439 C   0  0  0  0  0  0  0  0  0  0  0  0
   -5.0582    1.5405   -0.1679 C   0  0  0  0  0  0  0  0  0  0  0  0
   -4.9061    0.2094   -0.2503 N   0  0  0  0  0  0  0  0  0  0  0  0
   -5.9568   -0.6899   -0.4436 N   0  0  0  0  0  0  0  0  0  0  0  0
   -6.1975   -1.5027   -1.4843 C   0  0  0  0  0  0  0  0  0  0  0  0
   -7.3488   -2.2098   -1.2386 C   0  0  0  0  0  0  0  0  0  0  0  0
   -7.7937   -1.8086   -0.0359 N   0  0  0  0  0  0  0  0  0  0  0  0
   -6.9409   -0.8853    0.4382 C   0  0  0  0  0  0  0  0  0  0  0  0
   -0.6862   -1.0845    0.1539 C   0  0  0  0  0  0  0  0  0  0  0  0
   10.8197   -0.5331   -0.6209 H   0  0  0  0  0  0  0  0  0  0  0  0
   10.6253    1.2932   -0.5817 H   0  0  0  0  0  0  0  0  0  0  0  0
   10.7254    0.3700    0.9566 H   0  0  0  0  0  0  0  0  0  0  0  0
    6.0588   -1.3212   -0.5680 H   0  0  0  0  0  0  0  0  0  0  0  0
    6.5068    3.0558    1.3625 H   0  0  0  0  0  0  0  0  0  0  0  0
    4.3593    4.1649    1.9897 H   0  0  0  0  0  0  0  0  0  0  0  0
    2.2547    3.0559    1.6227 H   0  0  0  0  0  0  0  0  0  0  0  0
    4.3162   -0.3166   -0.0170 H   0  0  0  0  0  0  0  0  0  0  0  0
    2.6684   -1.2700    0.5521 H   0  0  0  0  0  0  0  0  0  0  0  0
    1.7746   -3.3605    0.2735 H   0  0  0  0  0  0  0  0  0  0  0  0
   -0.0983   -4.8496   -0.0616 H   0  0  0  0  0  0  0  0  0  0  0  0
   -3.1116   -4.0087   -1.3205 H   0  0  0  0  0  0  0  0  0  0  0  0
   -2.3033   -5.2641   -0.3190 H   0  0  0  0  0  0  0  0  0  0  0  0
   -3.4663   -4.1148    0.4347 H   0  0  0  0  0  0  0  0  0  0  0  0
   -3.8434   -2.2409   -0.3085 H   0  0  0  0  0  0  0  0  0  0  0  0
   -2.7498    3.9042    0.2855 H   0  0  0  0  0  0  0  0  0  0  0  0
   -4.7920    5.3450    0.1508 H   0  0  0  0  0  0  0  0  0  0  0  0
   -6.9625    4.2846   -0.1878 H   0  0  0  0  0  0  0  0  0  0  0  0
   -7.1574    1.8671   -0.3934 H   0  0  0  0  0  0  0  0  0  0  0  0
   -5.5706   -1.5663   -2.3549 H   0  0  0  0  0  0  0  0  0  0  0  0
   -7.8010   -2.9510   -1.9031 H   0  0  0  0  0  0  0  0  0  0  0  0
   -7.0592   -0.3987    1.3819 H   0  0  0  0  0  0  0  0  0  0  0  0
   -0.8430   -0.0358    0.2151 H   0  0  0  0  0  0  0  0  0  0  0  0
  1  2  1  0
  2  3  2  0
  3  4  1  0
  4  5  2  0
  5  6  1  0
  5  7  1  0
  7  8  2  0
  8  9  1  0
  9 10  2  0
 10 11  1  0
 11 12  2  0
 11 13  1  0
 13 14  2  0
 13 15  1  0
 15 16  1  0
 16 17  2  0
 17 18  1  0
 18 19  2  0
 19 20  1  0
 19 21  1  0
 21 22  1  0
 22 23  1  0
 23 24  2  0
 24 25  1  0
 25 26  2  0
 26 27  1  0
 27 28  2  0
 28 29  1  0
 29 30  2  0
 30 31  1  0
 31 32  1  0
 32 33  1  0
 33 34  2  0
 34 35  1  0
 35 36  2  0
 21 37  2  0
  6  2  1  0
 12  7  1  0
 37 16  1  0
 31 23  1  0
 36 32  1  0
 30 25  1  0
  1 38  1  0
  1 39  1  0
  1 40  1  0
  4 41  1  0
  8 42  1  0
  9 43  1  0
 10 44  1  0
 12 45  1  0
 15 46  1  0
 17 47  1  0
 18 48  1  0
 20 49  1  0
 20 50  1  0
 20 51  1  0
 22 52  1  0
 26 53  1  0
 27 54  1  0
 28 55  1  0
 29 56  1  0
 33 57  1  0
 34 58  1  0
 36 59  1  0
 37 60  1  0
M  END
$$$$
