[H]OC([H])([H])[C@]([H])(N([H])C(=O)[C@@]([H])(N([H])C(=O)c1c([H])c([H])c(C(C([H])([H])[H])(C([H])([H])[H])C([H])([H])[H])c([H])c1[H])C([H])([H])c1c([H])c([H])c(-c2c([H])c([H])c([H])c([H])c2[H])c([H])c1[H])[C@]([H])(O[H])C([H])([H])[H]
     RDKit          3D

 72 74  0  0  0  0  0  0  0  0999 V2000
   -0.6942   -6.3370   -0.6212 C   0  0  0  0  0  0  0  0  0  0  0  0
    0.4472   -6.3656    0.3596 C   0  0  1  0  0  0  0  0  0  0  0  0
    0.6990   -7.7324    0.7141 O   0  0  0  0  0  0  0  0  0  0  0  0
    1.7266   -5.8184   -0.2148 C   0  0  2  0  0  0  0  0  0  0  0  0
    2.8062   -5.8949    0.8426 C   0  0  0  0  0  0  0  0  0  0  0  0
    4.0186   -5.4553    0.2907 O   0  0  0  0  0  0  0  0  0  0  0  0
    1.6162   -4.4687   -0.6340 N   0  0  0  0  0  0  0  0  0  0  0  0
    0.9024   -3.4515   -0.0019 C   0  0  0  0  0  0  0  0  0  0  0  0
    0.2613   -3.6262    1.0447 O   0  0  0  0  0  0  0  0  0  0  0  0
    0.9044   -2.0814   -0.6054 C   0  0  2  0  0  0  0  0  0  0  0  0
    2.3297   -1.5510   -0.3843 C   0  0  0  0  0  0  0  0  0  0  0  0
    2.4773   -0.1824   -0.9384 C   0  0  0  0  0  0  0  0  0  0  0  0
    2.1695    0.9207   -0.1523 C   0  0  0  0  0  0  0  0  0  0  0  0
    2.3049    2.2239   -0.6277 C   0  0  0  0  0  0  0  0  0  0  0  0
    2.7554    2.4579   -1.9097 C   0  0  0  0  0  0  0  0  0  0  0  0
    3.0624    1.3697   -2.6950 C   0  0  0  0  0  0  0  0  0  0  0  0
    2.9255    0.0581   -2.2179 C   0  0  0  0  0  0  0  0  0  0  0  0
    2.8925    3.8186   -2.4197 C   0  0  0  0  0  0  0  0  0  0  0  0
    2.0307    4.7892   -1.9860 C   0  0  0  0  0  0  0  0  0  0  0  0
    2.1669    6.0671   -2.4713 C   0  0  0  0  0  0  0  0  0  0  0  0
    3.1321    6.4390   -3.3810 C   0  0  0  0  0  0  0  0  0  0  0  0
    3.9915    5.4349   -3.8023 C   0  0  0  0  0  0  0  0  0  0  0  0
    3.8745    4.1345   -3.3268 C   0  0  0  0  0  0  0  0  0  0  0  0
    0.0722   -1.2342    0.2480 N   0  0  0  0  0  0  0  0  0  0  0  0
   -0.9791   -0.5063   -0.3514 C   0  0  0  0  0  0  0  0  0  0  0  0
   -1.1897   -0.5919   -1.5964 O   0  0  0  0  0  0  0  0  0  0  0  0
   -1.8168    0.3446    0.4733 C   0  0  0  0  0  0  0  0  0  0  0  0
   -1.6436    0.5252    1.8222 C   0  0  0  0  0  0  0  0  0  0  0  0
   -2.4659    1.3470    2.5808 C   0  0  0  0  0  0  0  0  0  0  0  0
   -3.4975    2.0103    1.9628 C   0  0  0  0  0  0  0  0  0  0  0  0
   -3.6540    1.8166    0.6119 C   0  0  0  0  0  0  0  0  0  0  0  0
   -2.8629    1.0174   -0.1536 C   0  0  0  0  0  0  0  0  0  0  0  0
   -4.4518    2.9153    2.6396 C   0  0  0  0  0  0  0  0  0  0  0  0
   -3.9863    3.4686    3.9407 C   0  0  0  0  0  0  0  0  0  0  0  0
   -5.7465    2.1528    2.8550 C   0  0  0  0  0  0  0  0  0  0  0  0
   -4.7123    4.0776    1.6971 C   0  0  0  0  0  0  0  0  0  0  0  0
   -1.2115   -5.3699   -0.6626 H   0  0  0  0  0  0  0  0  0  0  0  0
   -0.3396   -6.6899   -1.6150 H   0  0  0  0  0  0  0  0  0  0  0  0
   -1.4744   -7.0816   -0.3020 H   0  0  0  0  0  0  0  0  0  0  0  0
    0.2129   -5.8894    1.3189 H   0  0  0  0  0  0  0  0  0  0  0  0
   -0.1605   -8.2149    0.6879 H   0  0  0  0  0  0  0  0  0  0  0  0
    1.9551   -6.4961   -1.0980 H   0  0  0  0  0  0  0  0  0  0  0  0
    2.5495   -5.1378    1.6121 H   0  0  0  0  0  0  0  0  0  0  0  0
    2.9025   -6.9141    1.2862 H   0  0  0  0  0  0  0  0  0  0  0  0
    4.4204   -6.1161   -0.3227 H   0  0  0  0  0  0  0  0  0  0  0  0
    2.1510   -4.2388   -1.5395 H   0  0  0  0  0  0  0  0  0  0  0  0
    0.5996   -2.0534   -1.6500 H   0  0  0  0  0  0  0  0  0  0  0  0
    2.4480   -1.4776    0.7165 H   0  0  0  0  0  0  0  0  0  0  0  0
    3.0700   -2.2230   -0.8598 H   0  0  0  0  0  0  0  0  0  0  0  0
    1.8163    0.7206    0.8587 H   0  0  0  0  0  0  0  0  0  0  0  0
    2.0586    3.0716    0.0005 H   0  0  0  0  0  0  0  0  0  0  0  0
    3.4192    1.5466   -3.7034 H   0  0  0  0  0  0  0  0  0  0  0  0
    3.1727   -0.7769   -2.8528 H   0  0  0  0  0  0  0  0  0  0  0  0
    1.2491    4.5308   -1.2626 H   0  0  0  0  0  0  0  0  0  0  0  0
    1.4965    6.8591   -2.1396 H   0  0  0  0  0  0  0  0  0  0  0  0
    3.2341    7.4386   -3.7584 H   0  0  0  0  0  0  0  0  0  0  0  0
    4.7663    5.6866   -4.5161 H   0  0  0  0  0  0  0  0  0  0  0  0
    4.5722    3.3711   -3.6810 H   0  0  0  0  0  0  0  0  0  0  0  0
    0.3063   -1.2175    1.2563 H   0  0  0  0  0  0  0  0  0  0  0  0
   -0.8364    0.0195    2.3442 H   0  0  0  0  0  0  0  0  0  0  0  0
   -2.3213    1.4834    3.6346 H   0  0  0  0  0  0  0  0  0  0  0  0
   -4.4703    2.3369    0.0912 H   0  0  0  0  0  0  0  0  0  0  0  0
   -3.0376    0.9133   -1.2075 H   0  0  0  0  0  0  0  0  0  0  0  0
   -3.5673    2.7374    4.6438 H   0  0  0  0  0  0  0  0  0  0  0  0
   -3.3278    4.3495    3.7680 H   0  0  0  0  0  0  0  0  0  0  0  0
   -4.9039    3.8978    4.4435 H   0  0  0  0  0  0  0  0  0  0  0  0
   -6.2535    2.4528    3.7840 H   0  0  0  0  0  0  0  0  0  0  0  0
   -5.5413    1.0658    2.7967 H   0  0  0  0  0  0  0  0  0  0  0  0
   -6.4374    2.3666    1.9958 H   0  0  0  0  0  0  0  0  0  0  0  0
   -4.9714    4.9988    2.2547 H   0  0  0  0  0  0  0  0  0  0  0  0
   -3.8387    4.2067    1.0382 H   0  0  0  0  0  0  0  0  0  0  0  0
   -5.5741    3.7518    1.0468 H   0  0  0  0  0  0  0  0  0  0  0  0
  1  2  1  0
  2  3  1  0
  2  4  1  0
  4  5  1  0
  5  6  1  0
  4  7  1  0
  7  8  1  0
  8  9  2  0
  8 10  1  0
 10 11  1  0
 11 12  1  0
 12 13  2  0
 13 14  1  0
 14 15  2  0
 15 16  1  0
 16 17  2  0
 15 18  1  0
 18 19  2  0
 19 20  1  0
 20 21  2  0
 21 22  1  0
 22 23  2  0
 10 24  1  0
 24 25  1  0
 25 26  2  0
 25 27  1  0
 27 28  2  0
 28 29  1  0
 29 30  2  0
 30 31  1  0
 31 32  2  0
 30 33  1  0
 33 34  1  0
 33 35  1  0
 33 36  1  0
 17 12  1  0
 23 18  1  0
 32 27  1  0
  1 37  1  0
  1 38  1  0
  1 39  1  0
  2 40  1  1
  3 41  1  0
  4 42  1  6
  5 43  1  0
  5 44  1  0
  6 45  1  0
  7 46  1  0
 10 47  1  6
 11 48  1  0
 11 49  1  0
 13 50  1  0
 14 51  1  0
 16 52  1  0
 17 53  1  0
 19 54  1  0
 20 55  1  0
 21 56  1  0
 22 57  1  0
 23 58  1  0
 24 59  1  0
 28 60  1  0
 29 61  1  0
 31 62  1  0
 32 63  1  0
 34 64  1  0
 34 65  1  0
 34 66  1  0
 35 67  1  0
 35 68  1  0
 35 69  1  0
 36 70  1  0
 36 71  1  0
 36 72  1  0
M  END
$$$$
[H]c1nc2c(c([H])c1C(=O)N([H])[C@@]([H])(C(=O)N1C([H])([H])C([H])([H])N(c3c([H])c([H])c(Cl)c([H])c3[H])C([H])([H])C1([H])[H])C([H])([H])[H])c([H])c([H])n2[H]
     RDKit          3D

 51 54  0  0  0  0  0  0  0  0999 V2000
   -0.4396   -1.9753    0.3431 C   0  0  0  0  0  0  0  0  0  0  0  0
   -0.9506   -0.6335   -0.2071 C   0  0  1  0  0  0  0  0  0  0  0  0
   -2.2946   -0.4196    0.3168 N   0  0  0  0  0  0  0  0  0  0  0  0
   -3.3758   -0.3704   -0.5713 C   0  0  0  0  0  0  0  0  0  0  0  0
   -3.1589   -0.5141   -1.8077 O   0  0  0  0  0  0  0  0  0  0  0  0
   -4.7269   -0.1556   -0.0579 C   0  0  0  0  0  0  0  0  0  0  0  0
   -5.0321    0.1499    1.2396 C   0  0  0  0  0  0  0  0  0  0  0  0
   -6.3141    0.3311    1.6365 N   0  0  0  0  0  0  0  0  0  0  0  0
   -7.3454    0.2218    0.7861 C   0  0  0  0  0  0  0  0  0  0  0  0
   -8.6941    0.3527    0.9293 N   0  0  0  0  0  0  0  0  0  0  0  0
   -9.2971    0.1381   -0.2590 C   0  0  0  0  0  0  0  0  0  0  0  0
   -8.2925   -0.1344   -1.1685 C   0  0  0  0  0  0  0  0  0  0  0  0
   -7.0570   -0.0850   -0.5237 C   0  0  0  0  0  0  0  0  0  0  0  0
   -5.7697   -0.2756   -0.9620 C   0  0  0  0  0  0  0  0  0  0  0  0
   -0.0631    0.4427    0.2860 C   0  0  0  0  0  0  0  0  0  0  0  0
   -0.5992    1.2883    1.0877 O   0  0  0  0  0  0  0  0  0  0  0  0
    1.2929    0.6088   -0.0482 N   0  0  0  0  0  0  0  0  0  0  0  0
    2.0531    1.6914    0.5180 C   0  0  0  0  0  0  0  0  0  0  0  0
    3.4736    1.7451    0.0143 C   0  0  0  0  0  0  0  0  0  0  0  0
    4.0282    0.4100   -0.0582 N   0  0  0  0  0  0  0  0  0  0  0  0
    3.2030   -0.7661   -0.2493 C   0  0  0  0  0  0  0  0  0  0  0  0
    1.9419   -0.2848   -0.9648 C   0  0  0  0  0  0  0  0  0  0  0  0
    5.4298    0.2332    0.0512 C   0  0  0  0  0  0  0  0  0  0  0  0
    5.9828   -1.0146    0.2006 C   0  0  0  0  0  0  0  0  0  0  0  0
    7.3388   -1.1527    0.2949 C   0  0  0  0  0  0  0  0  0  0  0  0
    8.1774   -0.0817    0.2455 C   0  0  0  0  0  0  0  0  0  0  0  0
    9.9263   -0.2593    0.3671 Cl  0  0  0  0  0  0  0  0  0  0  0  0
    7.6299    1.1674    0.0963 C   0  0  0  0  0  0  0  0  0  0  0  0
    6.2719    1.3396   -0.0014 C   0  0  0  0  0  0  0  0  0  0  0  0
    0.4774   -1.8050    0.9115 H   0  0  0  0  0  0  0  0  0  0  0  0
   -0.2389   -2.6380   -0.5158 H   0  0  0  0  0  0  0  0  0  0  0  0
   -1.2368   -2.4721    0.9373 H   0  0  0  0  0  0  0  0  0  0  0  0
   -0.9608   -0.7283   -1.2923 H   0  0  0  0  0  0  0  0  0  0  0  0
   -2.4284   -0.3100    1.3296 H   0  0  0  0  0  0  0  0  0  0  0  0
   -4.2143    0.2502    1.9674 H   0  0  0  0  0  0  0  0  0  0  0  0
   -9.1803    0.5836    1.8234 H   0  0  0  0  0  0  0  0  0  0  0  0
  -10.3505    0.1602   -0.5150 H   0  0  0  0  0  0  0  0  0  0  0  0
   -8.3688   -0.3593   -2.2267 H   0  0  0  0  0  0  0  0  0  0  0  0
   -5.5373   -0.5164   -1.9874 H   0  0  0  0  0  0  0  0  0  0  0  0
    1.5608    2.6642    0.2691 H   0  0  0  0  0  0  0  0  0  0  0  0
    2.1172    1.6047    1.6401 H   0  0  0  0  0  0  0  0  0  0  0  0
    4.0252    2.3874    0.7332 H   0  0  0  0  0  0  0  0  0  0  0  0
    3.5140    2.2624   -0.9841 H   0  0  0  0  0  0  0  0  0  0  0  0
    2.8784   -1.0906    0.7608 H   0  0  0  0  0  0  0  0  0  0  0  0
    3.7028   -1.5672   -0.8297 H   0  0  0  0  0  0  0  0  0  0  0  0
    2.3275    0.3333   -1.8299 H   0  0  0  0  0  0  0  0  0  0  0  0
    1.3471   -1.0778   -1.3893 H   0  0  0  0  0  0  0  0  0  0  0  0
    5.3654   -1.9025    0.2493 H   0  0  0  0  0  0  0  0  0  0  0  0
    7.7545   -2.1435    0.4119 H   0  0  0  0  0  0  0  0  0  0  0  0
    8.2648    2.0449    0.0528 H   0  0  0  0  0  0  0  0  0  0  0  0
    5.8419    2.3225   -0.1219 H   0  0  0  0  0  0  0  0  0  0  0  0
  1  2  1  0
  2  3  1  0
  3  4  1  0
  4  5  2  0
  4  6  1  0
  6  7  2  0
  7  8  1  0
  8  9  2  0
  9 10  1  0
 10 11  1  0
 11 12  2  0
 12 13  1  0
 13 14  2  0
  2 15  1  0
 15 16  2  0
 15 17  1  0
 17 18  1  0
 18 19  1  0
 19 20  1  0
 20 21  1  0
 21 22  1  0
 20 23  1  0
 23 24  2  0
 24 25  1  0
 25 26  2  0
 26 27  1  0
 26 28  1  0
 28 29  2  0
 14  6  1  0
 22 17  1  0
 29 23  1  0
 13  9  1  0
  1 30  1  0
  1 31  1  0
  1 32  1  0
  2 33  1  6
  3 34  1  0
  7 35  1  0
 10 36  1  0
 11 37  1  0
 12 38  1  0
 14 39  1  0
 18 40  1  0
 18 41  1  0
 19 42  1  0
 19 43  1  0
 21 44  1  0
 21 45  1  0
 22 46  1  0
 22 47  1  0
 24 48  1  0
 25 49  1  0
 28 50  1  0
 29 51  1  0
M  END
$$$$
[H]OC(=O)[C@]([H])(N([H])C(=O)c1c([H])c([H])c(-c2c([H])c([H])c(C(F)(F)F)c([H])c2[H])c([H])c1[H])C([H])([H])[H]
     RDKit          3D

 38 39  0  0  0  0  0  0  0  0999 V2000
   -5.6052   -1.4228    0.1491 C   0  0  0  0  0  0  0  0  0  0  0  0
   -5.1231    0.0230    0.2247 C   0  0  1  0  0  0  0  0  0  0  0  0
   -3.6601   -0.0516    0.0021 N   0  0  0  0  0  0  0  0  0  0  0  0
   -2.8296    0.3883    1.0596 C   0  0  0  0  0  0  0  0  0  0  0  0
   -3.3086    0.8154    2.1180 O   0  0  0  0  0  0  0  0  0  0  0  0
   -1.3971    0.3109    0.8421 C   0  0  0  0  0  0  0  0  0  0  0  0
   -0.8976    0.4113   -0.4187 C   0  0  0  0  0  0  0  0  0  0  0  0
    0.4730    0.3222   -0.6848 C   0  0  0  0  0  0  0  0  0  0  0  0
    1.3745    0.1284    0.3617 C   0  0  0  0  0  0  0  0  0  0  0  0
    0.8484    0.0285    1.6275 C   0  0  0  0  0  0  0  0  0  0  0  0
   -0.5027    0.1167    1.8927 C   0  0  0  0  0  0  0  0  0  0  0  0
    2.8077    0.0435    0.1079 C   0  0  0  0  0  0  0  0  0  0  0  0
    3.6061   -0.7389    0.9244 C   0  0  0  0  0  0  0  0  0  0  0  0
    4.9611   -0.8615    0.6948 C   0  0  0  0  0  0  0  0  0  0  0  0
    5.5595   -0.2281   -0.3313 C   0  0  0  0  0  0  0  0  0  0  0  0
    4.7831    0.5661   -1.1648 C   0  0  0  0  0  0  0  0  0  0  0  0
    3.4166    0.7003   -0.9484 C   0  0  0  0  0  0  0  0  0  0  0  0
    7.0429   -0.3651   -0.6012 C   0  0  0  0  0  0  0  0  0  0  0  0
    7.7188   -0.7810    0.5409 F   0  0  0  0  0  0  0  0  0  0  0  0
    7.4950    0.8205   -1.0833 F   0  0  0  0  0  0  0  0  0  0  0  0
    7.1405   -1.3538   -1.5605 F   0  0  0  0  0  0  0  0  0  0  0  0
   -5.7163    0.8777   -0.8006 C   0  0  0  0  0  0  0  0  0  0  0  0
   -6.9923    1.3915   -0.6275 O   0  0  0  0  0  0  0  0  0  0  0  0
   -5.0850    1.1887   -1.8690 O   0  0  0  0  0  0  0  0  0  0  0  0
   -5.9088   -1.7378   -0.8659 H   0  0  0  0  0  0  0  0  0  0  0  0
   -4.7585   -2.0611    0.4915 H   0  0  0  0  0  0  0  0  0  0  0  0
   -6.4149   -1.5480    0.8991 H   0  0  0  0  0  0  0  0  0  0  0  0
   -5.3569    0.3925    1.2310 H   0  0  0  0  0  0  0  0  0  0  0  0
   -3.2620   -0.3937   -0.8750 H   0  0  0  0  0  0  0  0  0  0  0  0
   -1.5817    0.5668   -1.2432 H   0  0  0  0  0  0  0  0  0  0  0  0
    0.8898    0.4163   -1.6875 H   0  0  0  0  0  0  0  0  0  0  0  0
    1.5286   -0.1075    2.4417 H   0  0  0  0  0  0  0  0  0  0  0  0
   -0.9529    0.0619    2.8664 H   0  0  0  0  0  0  0  0  0  0  0  0
    3.1214   -1.2531    1.7296 H   0  0  0  0  0  0  0  0  0  0  0  0
    5.5433   -1.5141    1.3494 H   0  0  0  0  0  0  0  0  0  0  0  0
    5.3099    1.0775   -1.9818 H   0  0  0  0  0  0  0  0  0  0  0  0
    2.8084    1.3359   -1.5983 H   0  0  0  0  0  0  0  0  0  0  0  0
   -7.0750    2.4343   -0.5129 H   0  0  0  0  0  0  0  0  0  0  0  0
  1  2  1  0
  2  3  1  0
  3  4  1  0
  4  5  2  0
  4  6  1  0
  6  7  2  0
  7  8  1  0
  8  9  2  0
  9 10  1  0
 10 11  2  0
  9 12  1  0
 12 13  2  0
 13 14  1  0
 14 15  2  0
 15 16  1  0
 16 17  2  0
 15 18  1  0
 18 19  1  0
 18 20  1  0
 18 21  1  0
  2 22  1  0
 22 23  1  0
 22 24  2  0
 11  6  1  0
 17 12  1  0
  1 25  1  0
  1 26  1  0
  1 27  1  0
  2 28  1  1
  3 29  1  0
  7 30  1  0
  8 31  1  0
 10 32  1  0
 11 33  1  0
 13 34  1  0
 14 35  1  0
 16 36  1  0
 17 37  1  0
 23 38  1  0
M  END
$$$$
[H]c1nc(N2C([H])([H])C([H])([H])N(C(=O)[C@@]3([H])N(S(=O)(=O)c4c([H])c([H])c(OC([H])([H])[H])c([H])c4[H])C([H])([H])[C@@]([H])(c4c([H])nn(C([H])([H])[H])c4[H])C3([H])[H])C([H])([H])C2([H])[H])nc([H])c1C#N
     RDKit          3D

 66 70  0  0  0  0  0  0  0  0999 V2000
   -7.5225    3.6486   -0.4555 C   0  0  0  0  0  0  0  0  0  0  0  0
   -6.1533    3.8508   -0.5984 O   0  0  0  0  0  0  0  0  0  0  0  0
   -5.2422    2.9930   -1.1877 C   0  0  0  0  0  0  0  0  0  0  0  0
   -5.5900    1.7813   -1.7293 C   0  0  0  0  0  0  0  0  0  0  0  0
   -4.6162    0.9622   -2.3102 C   0  0  0  0  0  0  0  0  0  0  0  0
   -3.2969    1.3397   -2.3574 C   0  0  0  0  0  0  0  0  0  0  0  0
   -2.9658    2.5639   -1.8068 C   0  0  0  0  0  0  0  0  0  0  0  0
   -3.9227    3.3785   -1.2306 C   0  0  0  0  0  0  0  0  0  0  0  0
   -2.0997    0.3082   -3.0837 S   0  0  0  0  0  0  0  0  0  0  0  0
   -1.0277    1.1613   -3.7564 O   0  0  0  0  0  0  0  0  0  0  0  0
   -2.7013   -0.4924   -4.2344 O   0  0  0  0  0  0  0  0  0  0  0  0
   -1.3076   -0.7319   -2.0115 N   0  0  0  0  0  0  0  0  0  0  0  0
   -2.0931   -1.6791   -1.3206 C   0  0  0  0  0  0  0  0  0  0  0  0
   -2.2672   -1.1182    0.0705 C   0  0  2  0  0  0  0  0  0  0  0  0
   -0.9697   -0.3547    0.2640 C   0  0  0  0  0  0  0  0  0  0  0  0
   -0.3795   -0.1584   -1.1120 C   0  0  1  0  0  0  0  0  0  0  0  0
    0.8917   -0.9408   -1.1631 C   0  0  0  0  0  0  0  0  0  0  0  0
    0.9438   -1.9818   -1.8679 O   0  0  0  0  0  0  0  0  0  0  0  0
    2.0733   -0.5719   -0.4486 N   0  0  0  0  0  0  0  0  0  0  0  0
    2.0642    0.6106    0.3717 C   0  0  0  0  0  0  0  0  0  0  0  0
    3.4327    1.2485    0.5154 C   0  0  0  0  0  0  0  0  0  0  0  0
    4.4606    0.2426    0.6321 N   0  0  0  0  0  0  0  0  0  0  0  0
    4.1634   -1.1738    0.6035 C   0  0  0  0  0  0  0  0  0  0  0  0
    3.2391   -1.3867   -0.5706 C   0  0  0  0  0  0  0  0  0  0  0  0
    5.8071    0.6557    0.7744 C   0  0  0  0  0  0  0  0  0  0  0  0
    6.1588    1.9658    0.7429 N   0  0  0  0  0  0  0  0  0  0  0  0
    7.4198    2.4060    0.8729 C   0  0  0  0  0  0  0  0  0  0  0  0
    8.4402    1.4968    1.0506 C   0  0  0  0  0  0  0  0  0  0  0  0
    8.0832    0.1674    1.0827 C   0  0  0  0  0  0  0  0  0  0  0  0
    6.8124   -0.2320    0.9489 N   0  0  0  0  0  0  0  0  0  0  0  0
    9.8149    1.9226    1.1961 C   0  0  0  0  0  0  0  0  0  0  0  0
   10.9137    2.2718    1.3055 N   0  0  0  0  0  0  0  0  0  0  0  0
   -2.4469   -2.1614    1.0963 C   0  0  0  0  0  0  0  0  0  0  0  0
   -3.5658   -2.3085    1.8850 C   0  0  0  0  0  0  0  0  0  0  0  0
   -3.3603   -3.3555    2.6975 N   0  0  0  0  0  0  0  0  0  0  0  0
   -2.1853   -3.8789    2.4738 N   0  0  0  0  0  0  0  0  0  0  0  0
   -1.6476   -5.0214    3.1802 C   0  0  0  0  0  0  0  0  0  0  0  0
   -1.5980   -3.1710    1.4970 C   0  0  0  0  0  0  0  0  0  0  0  0
   -7.8448    3.8619    0.6049 H   0  0  0  0  0  0  0  0  0  0  0  0
   -8.1298    4.3828   -1.0591 H   0  0  0  0  0  0  0  0  0  0  0  0
   -7.9039    2.6570   -0.6939 H   0  0  0  0  0  0  0  0  0  0  0  0
   -6.6211    1.4655   -1.7033 H   0  0  0  0  0  0  0  0  0  0  0  0
   -4.9739    0.0199   -2.7151 H   0  0  0  0  0  0  0  0  0  0  0  0
   -1.9307    2.8569   -1.8454 H   0  0  0  0  0  0  0  0  0  0  0  0
   -3.6474    4.3239   -0.8077 H   0  0  0  0  0  0  0  0  0  0  0  0
   -1.5092   -2.6420   -1.2795 H   0  0  0  0  0  0  0  0  0  0  0  0
   -3.0488   -1.9381   -1.8050 H   0  0  0  0  0  0  0  0  0  0  0  0
   -3.1232   -0.4420    0.0671 H   0  0  0  0  0  0  0  0  0  0  0  0
   -1.1607    0.5914    0.7908 H   0  0  0  0  0  0  0  0  0  0  0  0
   -0.2876   -0.9492    0.9317 H   0  0  0  0  0  0  0  0  0  0  0  0
   -0.1809    0.9247   -1.2945 H   0  0  0  0  0  0  0  0  0  0  0  0
    1.4060    1.3600   -0.1036 H   0  0  0  0  0  0  0  0  0  0  0  0
    1.6425    0.3774    1.3738 H   0  0  0  0  0  0  0  0  0  0  0  0
    3.4376    1.8316    1.4583 H   0  0  0  0  0  0  0  0  0  0  0  0
    3.6944    1.9258   -0.3017 H   0  0  0  0  0  0  0  0  0  0  0  0
    5.0649   -1.7889    0.4351 H   0  0  0  0  0  0  0  0  0  0  0  0
    3.6904   -1.5268    1.5434 H   0  0  0  0  0  0  0  0  0  0  0  0
    3.0066   -2.4640   -0.6934 H   0  0  0  0  0  0  0  0  0  0  0  0
    3.8185   -1.0318   -1.4704 H   0  0  0  0  0  0  0  0  0  0  0  0
    7.6795    3.4565    0.8431 H   0  0  0  0  0  0  0  0  0  0  0  0
    8.9073   -0.5435    1.2261 H   0  0  0  0  0  0  0  0  0  0  0  0
   -4.4776   -1.7041    1.8809 H   0  0  0  0  0  0  0  0  0  0  0  0
   -0.5761   -5.2012    2.9603 H   0  0  0  0  0  0  0  0  0  0  0  0
   -1.8013   -4.8191    4.2728 H   0  0  0  0  0  0  0  0  0  0  0  0
   -2.2704   -5.9069    2.9518 H   0  0  0  0  0  0  0  0  0  0  0  0
   -0.6198   -3.3342    1.0677 H   0  0  0  0  0  0  0  0  0  0  0  0
  1  2  1  0
  2  3  1  0
  3  4  2  0
  4  5  1  0
  5  6  2  0
  6  7  1  0
  7  8  2  0
  6  9  1  0
  9 10  2  0
  9 11  2  0
  9 12  1  0
 12 13  1  0
 13 14  1  0
 14 15  1  0
 15 16  1  0
 16 17  1  0
 17 18  2  0
 17 19  1  0
 19 20  1  0
 20 21  1  0
 21 22  1  0
 22 23  1  0
 23 24  1  0
 22 25  1  0
 25 26  2  0
 26 27  1  0
 27 28  2  0
 28 29  1  0
 29 30  2  0
 28 31  1  0
 31 32  3  0
 14 33  1  0
 33 34  1  0
 34 35  2  0
 35 36  1  0
 36 37  1  0
 36 38  1  0
  8  3  1  0
 16 12  1  0
 24 19  1  0
 30 25  1  0
 38 33  2  0
  1 39  1  0
  1 40  1  0
  1 41  1  0
  4 42  1  0
  5 43  1  0
  7 44  1  0
  8 45  1  0
 13 46  1  0
 13 47  1  0
 14 48  1  6
 15 49  1  0
 15 50  1  0
 16 51  1  6
 20 52  1  0
 20 53  1  0
 21 54  1  0
 21 55  1  0
 23 56  1  0
 23 57  1  0
 24 58  1  0
 24 59  1  0
 27 60  1  0
 29 61  1  0
 34 62  1  0
 37 63  1  0
 37 64  1  0
 37 65  1  0
 38 66  1  0
M  END
$$$$
[H]c1c([H])c([H])c(-c2c([H])c([H])c(N([H])C(=O)N([H])[C@@]([H])(C([H])([H])C([H])(C([H])([H])[H])C([H])([H])[H])C(C([H])([H])[H])(C([H])([H])[H])C([H])([H])[H])c([H])c2[H])c([H])c1[H]
     RDKit          3D

 55 56  0  0  0  0  0  0  0  0999 V2000
   -4.6260    3.3019   -0.7248 C   0  0  0  0  0  0  0  0  0  0  0  0
   -3.9704    1.9223   -1.0795 C   0  0  0  0  0  0  0  0  0  0  0  0
   -4.9410    1.3469   -2.0682 C   0  0  0  0  0  0  0  0  0  0  0  0
   -3.6850    1.1897    0.1549 C   0  0  0  0  0  0  0  0  0  0  0  0
   -3.0384   -0.1320    0.1733 C   0  0  2  0  0  0  0  0  0  0  0  0
   -1.7484   -0.0829   -0.4917 N   0  0  0  0  0  0  0  0  0  0  0  0
   -0.4830   -0.0838    0.0906 C   0  0  0  0  0  0  0  0  0  0  0  0
   -0.4039   -0.1325    1.3224 O   0  0  0  0  0  0  0  0  0  0  0  0
    0.6693   -0.0302   -0.7098 N   0  0  0  0  0  0  0  0  0  0  0  0
    2.0183   -0.0115   -0.3263 C   0  0  0  0  0  0  0  0  0  0  0  0
    2.4395    0.2533    0.9404 C   0  0  0  0  0  0  0  0  0  0  0  0
    3.8028    0.2424    1.2978 C   0  0  0  0  0  0  0  0  0  0  0  0
    4.7730   -0.0385    0.3715 C   0  0  0  0  0  0  0  0  0  0  0  0
    4.3668   -0.3083   -0.9143 C   0  0  0  0  0  0  0  0  0  0  0  0
    3.0334   -0.2952   -1.2520 C   0  0  0  0  0  0  0  0  0  0  0  0
    6.2048   -0.0532    0.7403 C   0  0  0  0  0  0  0  0  0  0  0  0
    6.6621    0.7920    1.7282 C   0  0  0  0  0  0  0  0  0  0  0  0
    7.9891    0.7880    2.0782 C   0  0  0  0  0  0  0  0  0  0  0  0
    8.8900   -0.0475    1.4626 C   0  0  0  0  0  0  0  0  0  0  0  0
    8.4196   -0.8910    0.4729 C   0  0  0  0  0  0  0  0  0  0  0  0
    7.0867   -0.9100    0.0978 C   0  0  0  0  0  0  0  0  0  0  0  0
   -3.7627   -1.3892    0.1590 C   0  0  0  0  0  0  0  0  0  0  0  0
   -4.6488   -1.8194   -0.9182 C   0  0  0  0  0  0  0  0  0  0  0  0
   -4.6316   -1.4192    1.4557 C   0  0  0  0  0  0  0  0  0  0  0  0
   -2.7526   -2.5367    0.4324 C   0  0  0  0  0  0  0  0  0  0  0  0
   -5.6036    3.0960   -0.2905 H   0  0  0  0  0  0  0  0  0  0  0  0
   -4.7530    3.7839   -1.7198 H   0  0  0  0  0  0  0  0  0  0  0  0
   -3.9392    3.8834   -0.0967 H   0  0  0  0  0  0  0  0  0  0  0  0
   -3.0811    2.2338   -1.6679 H   0  0  0  0  0  0  0  0  0  0  0  0
   -4.4646    0.6334   -2.7428 H   0  0  0  0  0  0  0  0  0  0  0  0
   -5.2903    2.1882   -2.7577 H   0  0  0  0  0  0  0  0  0  0  0  0
   -5.8519    0.9096   -1.6243 H   0  0  0  0  0  0  0  0  0  0  0  0
   -3.0559    1.9175    0.7925 H   0  0  0  0  0  0  0  0  0  0  0  0
   -4.6488    1.1914    0.7591 H   0  0  0  0  0  0  0  0  0  0  0  0
   -2.6246   -0.1517    1.3043 H   0  0  0  0  0  0  0  0  0  0  0  0
   -1.8202   -0.0427   -1.5357 H   0  0  0  0  0  0  0  0  0  0  0  0
    0.5364    0.0099   -1.7978 H   0  0  0  0  0  0  0  0  0  0  0  0
    1.7412    0.4957    1.7268 H   0  0  0  0  0  0  0  0  0  0  0  0
    4.0989    0.4570    2.3128 H   0  0  0  0  0  0  0  0  0  0  0  0
    5.1342   -0.5293   -1.6438 H   0  0  0  0  0  0  0  0  0  0  0  0
    2.6965   -0.5095   -2.2697 H   0  0  0  0  0  0  0  0  0  0  0  0
    5.9983    1.4672    2.2432 H   0  0  0  0  0  0  0  0  0  0  0  0
    8.3735    1.4384    2.8468 H   0  0  0  0  0  0  0  0  0  0  0  0
    9.9283   -0.0343    1.7533 H   0  0  0  0  0  0  0  0  0  0  0  0
    9.1337   -1.5492   -0.0111 H   0  0  0  0  0  0  0  0  0  0  0  0
    6.7110   -1.5554   -0.6634 H   0  0  0  0  0  0  0  0  0  0  0  0
   -4.3038   -1.6733   -1.9589 H   0  0  0  0  0  0  0  0  0  0  0  0
   -4.8282   -2.9384   -0.8261 H   0  0  0  0  0  0  0  0  0  0  0  0
   -5.6761   -1.4040   -0.8571 H   0  0  0  0  0  0  0  0  0  0  0  0
   -4.8977   -2.4896    1.5741 H   0  0  0  0  0  0  0  0  0  0  0  0
   -5.5509   -0.8536    1.3174 H   0  0  0  0  0  0  0  0  0  0  0  0
   -4.0145   -1.1411    2.3104 H   0  0  0  0  0  0  0  0  0  0  0  0
   -2.0643   -2.6140   -0.4215 H   0  0  0  0  0  0  0  0  0  0  0  0
   -2.2539   -2.3761    1.4065 H   0  0  0  0  0  0  0  0  0  0  0  0
   -3.2931   -3.4987    0.5078 H   0  0  0  0  0  0  0  0  0  0  0  0
  1  2  1  0
  2  3  1  0
  2  4  1  0
  4  5  1  0
  5  6  1  0
  6  7  1  0
  7  8  2  0
  7  9  1  0
  9 10  1  0
 10 11  2  0
 11 12  1  0
 12 13  2  0
 13 14  1  0
 14 15  2  0
 13 16  1  0
 16 17  2  0
 17 18  1  0
 18 19  2  0
 19 20  1  0
 20 21  2  0
  5 22  1  0
 22 23  1  0
 22 24  1  0
 22 25  1  0
 15 10  1  0
 21 16  1  0
  1 26  1  0
  1 27  1  0
  1 28  1  0
  2 29  1  0
  3 30  1  0
  3 31  1  0
  3 32  1  0
  4 33  1  0
  4 34  1  0
  5 35  1  1
  6 36  1  0
  9 37  1  0
 11 38  1  0
 12 39  1  0
 14 40  1  0
 15 41  1  0
 17 42  1  0
 18 43  1  0
 19 44  1  0
 20 45  1  0
 21 46  1  0
 23 47  1  0
 23 48  1  0
 23 49  1  0
 24 50  1  0
 24 51  1  0
 24 52  1  0
 25 53  1  0
 25 54  1  0
 25 55  1  0
M  END
$$$$
[H]c1nc2c([H])c(OC([H])([H])[H])c(OC([H])([H])[H])c([H])c2c(Oc2c([H])c([H])c(N([H])C(=O)N([H])c3c([H])c([H])c(F)c([H])c3[H])c([H])c2[H])c1[H]
     RDKit          3D

 52 55  0  0  0  0  0  0  0  0999 V2000
   -7.4612    1.9265   -1.6826 C   0  0  0  0  0  0  0  0  0  0  0  0
   -6.2880    1.9036   -0.8628 O   0  0  0  0  0  0  0  0  0  0  0  0
   -5.4848    0.7745   -0.8578 C   0  0  0  0  0  0  0  0  0  0  0  0
   -5.8089   -0.3113   -1.6298 C   0  0  0  0  0  0  0  0  0  0  0  0
   -4.9950   -1.4191   -1.6074 C   0  0  0  0  0  0  0  0  0  0  0  0
   -5.2840   -2.5189   -2.3310 N   0  0  0  0  0  0  0  0  0  0  0  0
   -4.5389   -3.6341   -2.3319 C   0  0  0  0  0  0  0  0  0  0  0  0
   -3.4128   -3.6567   -1.5497 C   0  0  0  0  0  0  0  0  0  0  0  0
   -3.0464   -2.5581   -0.7738 C   0  0  0  0  0  0  0  0  0  0  0  0
   -1.9298   -2.5775    0.0013 O   0  0  0  0  0  0  0  0  0  0  0  0
   -0.7712   -1.8910   -0.0777 C   0  0  0  0  0  0  0  0  0  0  0  0
    0.1392   -1.9247    0.9483 C   0  0  0  0  0  0  0  0  0  0  0  0
    1.3545   -1.2127    0.8706 C   0  0  0  0  0  0  0  0  0  0  0  0
    1.6731   -0.4673   -0.2192 C   0  0  0  0  0  0  0  0  0  0  0  0
    2.8606    0.2716   -0.4079 N   0  0  0  0  0  0  0  0  0  0  0  0
    4.0216    0.2385    0.4067 C   0  0  0  0  0  0  0  0  0  0  0  0
    4.1357   -0.4724    1.4165 O   0  0  0  0  0  0  0  0  0  0  0  0
    5.1157    1.0563    0.0589 N   0  0  0  0  0  0  0  0  0  0  0  0
    6.3485    1.1912    0.7113 C   0  0  0  0  0  0  0  0  0  0  0  0
    7.4153    1.8069    0.0403 C   0  0  0  0  0  0  0  0  0  0  0  0
    8.6385    1.9961    0.5987 C   0  0  0  0  0  0  0  0  0  0  0  0
    8.8596    1.5695    1.8836 C   0  0  0  0  0  0  0  0  0  0  0  0
   10.0726    1.7513    2.4516 F   0  0  0  0  0  0  0  0  0  0  0  0
    7.8719    0.9653    2.5933 C   0  0  0  0  0  0  0  0  0  0  0  0
    6.6217    0.7819    1.9978 C   0  0  0  0  0  0  0  0  0  0  0  0
    0.7431   -0.4338   -1.2648 C   0  0  0  0  0  0  0  0  0  0  0  0
   -0.4377   -1.1310   -1.1786 C   0  0  0  0  0  0  0  0  0  0  0  0
   -3.8536   -1.4405   -0.8114 C   0  0  0  0  0  0  0  0  0  0  0  0
   -3.5469   -0.3192   -0.0318 C   0  0  0  0  0  0  0  0  0  0  0  0
   -4.3653    0.7962   -0.0538 C   0  0  0  0  0  0  0  0  0  0  0  0
   -4.0876    1.9242    0.7070 O   0  0  0  0  0  0  0  0  0  0  0  0
   -2.9287    1.9055    1.5186 C   0  0  0  0  0  0  0  0  0  0  0  0
   -7.0955    1.7601   -2.7331 H   0  0  0  0  0  0  0  0  0  0  0  0
   -8.1114    1.0932   -1.3676 H   0  0  0  0  0  0  0  0  0  0  0  0
   -7.9620    2.8970   -1.6471 H   0  0  0  0  0  0  0  0  0  0  0  0
   -6.6876   -0.3338   -2.2629 H   0  0  0  0  0  0  0  0  0  0  0  0
   -4.8114   -4.5108   -2.9370 H   0  0  0  0  0  0  0  0  0  0  0  0
   -2.7536   -4.5279   -1.4962 H   0  0  0  0  0  0  0  0  0  0  0  0
   -0.0056   -2.4804    1.8578 H   0  0  0  0  0  0  0  0  0  0  0  0
    2.0366   -1.2605    1.7017 H   0  0  0  0  0  0  0  0  0  0  0  0
    2.9328    0.9466   -1.2472 H   0  0  0  0  0  0  0  0  0  0  0  0
    4.9828    1.6494   -0.8082 H   0  0  0  0  0  0  0  0  0  0  0  0
    7.2292    2.1376   -0.9716 H   0  0  0  0  0  0  0  0  0  0  0  0
    9.4651    2.4735    0.0777 H   0  0  0  0  0  0  0  0  0  0  0  0
    8.0220    0.6237    3.5991 H   0  0  0  0  0  0  0  0  0  0  0  0
    5.8929    0.3079    2.6267 H   0  0  0  0  0  0  0  0  0  0  0  0
    0.9501    0.1375   -2.1392 H   0  0  0  0  0  0  0  0  0  0  0  0
   -1.1299   -1.0672   -2.0312 H   0  0  0  0  0  0  0  0  0  0  0  0
   -2.6854   -0.2831    0.6336 H   0  0  0  0  0  0  0  0  0  0  0  0
   -2.0161    1.6216    0.9492 H   0  0  0  0  0  0  0  0  0  0  0  0
   -2.7955    2.8315    2.0903 H   0  0  0  0  0  0  0  0  0  0  0  0
   -3.0883    1.0934    2.2776 H   0  0  0  0  0  0  0  0  0  0  0  0
  1  2  1  0
  2  3  1  0
  3  4  2  0
  4  5  1  0
  5  6  2  0
  6  7  1  0
  7  8  2  0
  8  9  1  0
  9 10  1  0
 10 11  1  0
 11 12  2  0
 12 13  1  0
 13 14  2  0
 14 15  1  0
 15 16  1  0
 16 17  2  0
 16 18  1  0
 18 19  1  0
 19 20  2  0
 20 21  1  0
 21 22  2  0
 22 23  1  0
 22 24  1  0
 24 25  2  0
 14 26  1  0
 26 27  2  0
  9 28  2  0
 28 29  1  0
 29 30  2  0
 30 31  1  0
 31 32  1  0
 30  3  1  0
 28  5  1  0
 27 11  1  0
 25 19  1  0
  1 33  1  0
  1 34  1  0
  1 35  1  0
  4 36  1  0
  7 37  1  0
  8 38  1  0
 12 39  1  0
 13 40  1  0
 15 41  1  0
 18 42  1  0
 20 43  1  0
 21 44  1  0
 24 45  1  0
 25 46  1  0
 26 47  1  0
 27 48  1  0
 29 49  1  0
 32 50  1  0
 32 51  1  0
 32 52  1  0
M  END
$$$$
[H]c1c([H])c(N([H])C(=O)c2c([H])c([H])c(-c3c([H])c([H])c(OC([H])([H])[H])c(OC([H])([H])[H])c3[H])c([H])c2[H])c([H])c(C(F)(F)F)c1[H]
     RDKit          3D

 47 49  0  0  0  0  0  0  0  0999 V2000
   -7.8512    1.4717   -0.1409 C   0  0  0  0  0  0  0  0  0  0  0  0
   -7.2287    0.2009   -0.0231 O   0  0  0  0  0  0  0  0  0  0  0  0
   -5.8561    0.0759   -0.0069 C   0  0  0  0  0  0  0  0  0  0  0  0
   -5.0876    1.2197   -0.1007 C   0  0  0  0  0  0  0  0  0  0  0  0
   -3.7184    1.1611   -0.0923 C   0  0  0  0  0  0  0  0  0  0  0  0
   -3.0549   -0.0706    0.0136 C   0  0  0  0  0  0  0  0  0  0  0  0
   -3.8335   -1.2046    0.1077 C   0  0  0  0  0  0  0  0  0  0  0  0
   -5.2197   -1.1391    0.0972 C   0  0  0  0  0  0  0  0  0  0  0  0
   -5.9505   -2.2853    0.1914 O   0  0  0  0  0  0  0  0  0  0  0  0
   -5.4783   -3.5850    0.3024 C   0  0  0  0  0  0  0  0  0  0  0  0
   -1.6042   -0.0790   -0.0047 C   0  0  0  0  0  0  0  0  0  0  0  0
   -0.9128   -1.1269   -0.5332 C   0  0  0  0  0  0  0  0  0  0  0  0
    0.4829   -1.1641   -0.6187 C   0  0  0  0  0  0  0  0  0  0  0  0
    1.1569   -0.0534   -0.1261 C   0  0  0  0  0  0  0  0  0  0  0  0
    0.5139    1.0044    0.4075 C   0  0  0  0  0  0  0  0  0  0  0  0
   -0.8845    1.0068    0.4766 C   0  0  0  0  0  0  0  0  0  0  0  0
    2.6349   -0.0842   -0.2769 C   0  0  0  0  0  0  0  0  0  0  0  0
    3.1562   -1.0245   -0.9062 O   0  0  0  0  0  0  0  0  0  0  0  0
    3.4305    0.9301    0.2771 N   0  0  0  0  0  0  0  0  0  0  0  0
    4.8316    0.9641    0.1651 C   0  0  0  0  0  0  0  0  0  0  0  0
    5.4052    2.2360    0.3555 C   0  0  0  0  0  0  0  0  0  0  0  0
    6.7600    2.3438    0.2641 C   0  0  0  0  0  0  0  0  0  0  0  0
    7.6003    1.2909   -0.0028 C   0  0  0  0  0  0  0  0  0  0  0  0
    7.0276    0.0665   -0.1838 C   0  0  0  0  0  0  0  0  0  0  0  0
    5.6325   -0.1113   -0.1014 C   0  0  0  0  0  0  0  0  0  0  0  0
    7.8677   -1.1166   -0.4839 C   0  0  0  0  0  0  0  0  0  0  0  0
    7.0848   -2.2581   -0.5539 F   0  0  0  0  0  0  0  0  0  0  0  0
    8.4657   -1.0058   -1.7455 F   0  0  0  0  0  0  0  0  0  0  0  0
    8.8894   -1.2588    0.4480 F   0  0  0  0  0  0  0  0  0  0  0  0
   -8.9460    1.3275   -0.0653 H   0  0  0  0  0  0  0  0  0  0  0  0
   -7.5328    2.1579    0.6502 H   0  0  0  0  0  0  0  0  0  0  0  0
   -7.6485    1.9187   -1.1534 H   0  0  0  0  0  0  0  0  0  0  0  0
   -5.5841    2.1820   -0.1829 H   0  0  0  0  0  0  0  0  0  0  0  0
   -3.1249    2.0390   -0.1659 H   0  0  0  0  0  0  0  0  0  0  0  0
   -3.3596   -2.1699    0.1922 H   0  0  0  0  0  0  0  0  0  0  0  0
   -4.6374   -3.8410   -0.3815 H   0  0  0  0  0  0  0  0  0  0  0  0
   -5.1524   -3.8718    1.3280 H   0  0  0  0  0  0  0  0  0  0  0  0
   -6.2824   -4.3302    0.0582 H   0  0  0  0  0  0  0  0  0  0  0  0
   -1.4489   -1.9879   -0.9110 H   0  0  0  0  0  0  0  0  0  0  0  0
    1.0246   -1.9825   -1.0290 H   0  0  0  0  0  0  0  0  0  0  0  0
    0.9976    1.8769    0.7944 H   0  0  0  0  0  0  0  0  0  0  0  0
   -1.4264    1.8235    0.8891 H   0  0  0  0  0  0  0  0  0  0  0  0
    2.9243    1.7116    0.8206 H   0  0  0  0  0  0  0  0  0  0  0  0
    4.7612    3.1072    0.5701 H   0  0  0  0  0  0  0  0  0  0  0  0
    7.2525    3.3097    0.4092 H   0  0  0  0  0  0  0  0  0  0  0  0
    8.6929    1.4256   -0.0679 H   0  0  0  0  0  0  0  0  0  0  0  0
    5.2305   -1.1006   -0.2345 H   0  0  0  0  0  0  0  0  0  0  0  0
  1  2  1  0
  2  3  1  0
  3  4  2  0
  4  5  1  0
  5  6  2  0
  6  7  1  0
  7  8  2  0
  8  9  1  0
  9 10  1  0
  6 11  1  0
 11 12  2  0
 12 13  1  0
 13 14  2  0
 14 15  1  0
 15 16  2  0
 14 17  1  0
 17 18  2  0
 17 19  1  0
 19 20  1  0
 20 21  2  0
 21 22  1  0
 22 23  2  0
 23 24  1  0
 24 25  2  0
 24 26  1  0
 26 27  1  0
 26 28  1  0
 26 29  1  0
  8  3  1  0
 16 11  1  0
 25 20  1  0
  1 30  1  0
  1 31  1  0
  1 32  1  0
  4 33  1  0
  5 34  1  0
  7 35  1  0
 10 36  1  0
 10 37  1  0
 10 38  1  0
 12 39  1  0
 13 40  1  0
 15 41  1  0
 16 42  1  0
 19 43  1  0
 21 44  1  0
 22 45  1  0
 23 46  1  0
 25 47  1  0
M  END
$$$$
[H]c1c([H])c([H])c(C([H])([H])OC(=O)N([H])[C@]([H])(C(=O)N([H])[C@]([H])(C(=O)N([H])[C@]([H])(C(=O)N([H])[C@]([H])(C(=O)N([H])[H])C([H])([H])c2c([H])c([H])c([H])c([H])c2[H])C([H])([H])c2c([H])c([H])c([H])c([H])c2[H])C([H])([H])C([H])(C([H])([H])[H])C([H])([H])[H])C([H])([H])c2c([H])c([H])c([H])c([H])c2[H])c([H])c1[H]
     RDKit          3D

 99102  0  0  0  0  0  0  0  0999 V2000
    0.1768   -4.1818    0.8208 C   0  0  0  0  0  0  0  0  0  0  0  0
   -1.0319   -3.8277    1.6500 C   0  0  0  0  0  0  0  0  0  0  0  0
   -2.2881   -4.4074    1.0845 C   0  0  0  0  0  0  0  0  0  0  0  0
   -1.0969   -2.4657    2.1916 C   0  0  0  0  0  0  0  0  0  0  0  0
   -1.0777   -1.2683    1.3763 C   0  0  2  0  0  0  0  0  0  0  0  0
   -2.1764   -1.2664    0.4229 N   0  0  0  0  0  0  0  0  0  0  0  0
   -3.0832   -0.2158    0.2744 C   0  0  0  0  0  0  0  0  0  0  0  0
   -2.9461    0.7959    0.9977 O   0  0  0  0  0  0  0  0  0  0  0  0
   -4.1952   -0.2488   -0.6925 C   0  0  2  0  0  0  0  0  0  0  0  0
   -3.8431   -0.2852   -2.1380 C   0  0  0  0  0  0  0  0  0  0  0  0
   -3.0116   -1.3927   -2.6172 C   0  0  0  0  0  0  0  0  0  0  0  0
   -3.5113   -2.6564   -2.8853 C   0  0  0  0  0  0  0  0  0  0  0  0
   -2.7785   -3.7147   -3.3516 C   0  0  0  0  0  0  0  0  0  0  0  0
   -1.4427   -3.5229   -3.5784 C   0  0  0  0  0  0  0  0  0  0  0  0
   -0.8937   -2.2611   -3.3226 C   0  0  0  0  0  0  0  0  0  0  0  0
   -1.6288   -1.2062   -2.8549 C   0  0  0  0  0  0  0  0  0  0  0  0
   -4.9865    1.0065   -0.4622 N   0  0  0  0  0  0  0  0  0  0  0  0
   -6.2407    1.0494    0.1330 C   0  0  0  0  0  0  0  0  0  0  0  0
   -6.7937   -0.0064    0.5265 O   0  0  0  0  0  0  0  0  0  0  0  0
   -6.9109    2.2386    0.3119 O   0  0  0  0  0  0  0  0  0  0  0  0
   -8.1598    2.4353    0.8917 C   0  0  0  0  0  0  0  0  0  0  0  0
   -8.4441    3.9150    0.8401 C   0  0  0  0  0  0  0  0  0  0  0  0
   -8.1230    4.7388    1.9062 C   0  0  0  0  0  0  0  0  0  0  0  0
   -8.3823    6.0936    1.8374 C   0  0  0  0  0  0  0  0  0  0  0  0
   -8.9726    6.6490    0.6933 C   0  0  0  0  0  0  0  0  0  0  0  0
   -9.2942    5.8438   -0.3683 C   0  0  0  0  0  0  0  0  0  0  0  0
   -9.0211    4.4979   -0.2676 C   0  0  0  0  0  0  0  0  0  0  0  0
    0.1504   -0.6393    0.9615 C   0  0  0  0  0  0  0  0  0  0  0  0
    0.3963   -0.0682   -0.1554 O   0  0  0  0  0  0  0  0  0  0  0  0
    1.2696   -0.5898    1.8435 N   0  0  0  0  0  0  0  0  0  0  0  0
    2.5403    0.0859    1.5262 C   0  0  1  0  0  0  0  0  0  0  0  0
    2.9321    0.9016    2.6710 C   0  0  0  0  0  0  0  0  0  0  0  0
    4.1243    1.7173    2.6846 C   0  0  0  0  0  0  0  0  0  0  0  0
    4.1868    2.9213    1.9622 C   0  0  0  0  0  0  0  0  0  0  0  0
    5.2923    3.6997    2.0950 C   0  0  0  0  0  0  0  0  0  0  0  0
    6.3571    3.3384    2.9228 C   0  0  0  0  0  0  0  0  0  0  0  0
    6.2953    2.1563    3.6311 C   0  0  0  0  0  0  0  0  0  0  0  0
    5.1944    1.3733    3.5031 C   0  0  0  0  0  0  0  0  0  0  0  0
    3.5153   -0.7965    0.9309 C   0  0  0  0  0  0  0  0  0  0  0  0
    3.0109   -1.9990    0.6425 O   0  0  0  0  0  0  0  0  0  0  0  0
    4.8732   -0.5992    0.6109 N   0  0  0  0  0  0  0  0  0  0  0  0
    5.6075   -1.6907   -0.0489 C   0  0  1  0  0  0  0  0  0  0  0  0
    6.6822   -1.1377   -0.9345 C   0  0  0  0  0  0  0  0  0  0  0  0
    6.2392   -0.2326   -1.9936 C   0  0  0  0  0  0  0  0  0  0  0  0
    5.8800   -0.6793   -3.2331 C   0  0  0  0  0  0  0  0  0  0  0  0
    5.4673    0.2036   -4.2402 C   0  0  0  0  0  0  0  0  0  0  0  0
    5.4198    1.5498   -3.9839 C   0  0  0  0  0  0  0  0  0  0  0  0
    5.7716    2.0437   -2.7516 C   0  0  0  0  0  0  0  0  0  0  0  0
    6.1829    1.1454   -1.7575 C   0  0  0  0  0  0  0  0  0  0  0  0
    6.2715   -2.4628    1.0569 C   0  0  0  0  0  0  0  0  0  0  0  0
    7.0606   -3.5631    0.6754 N   0  0  0  0  0  0  0  0  0  0  0  0
    6.1285   -2.1437    2.2335 O   0  0  0  0  0  0  0  0  0  0  0  0
    0.3518   -3.4612   -0.0049 H   0  0  0  0  0  0  0  0  0  0  0  0
    1.0824   -4.3409    1.4622 H   0  0  0  0  0  0  0  0  0  0  0  0
    0.0315   -5.1678    0.3166 H   0  0  0  0  0  0  0  0  0  0  0  0
   -0.8557   -4.4807    2.6018 H   0  0  0  0  0  0  0  0  0  0  0  0
   -3.1690   -3.8223    1.3766 H   0  0  0  0  0  0  0  0  0  0  0  0
   -2.4595   -5.4291    1.4860 H   0  0  0  0  0  0  0  0  0  0  0  0
   -2.2374   -4.5673   -0.0228 H   0  0  0  0  0  0  0  0  0  0  0  0
   -0.2970   -2.3752    2.9784 H   0  0  0  0  0  0  0  0  0  0  0  0
   -2.0491   -2.4310    2.8279 H   0  0  0  0  0  0  0  0  0  0  0  0
   -1.4891   -0.4299    2.1295 H   0  0  0  0  0  0  0  0  0  0  0  0
   -2.2559   -2.1272   -0.1326 H   0  0  0  0  0  0  0  0  0  0  0  0
   -4.9304   -1.0432   -0.4673 H   0  0  0  0  0  0  0  0  0  0  0  0
   -3.3936    0.6783   -2.4815 H   0  0  0  0  0  0  0  0  0  0  0  0
   -4.8303   -0.3870   -2.6868 H   0  0  0  0  0  0  0  0  0  0  0  0
   -4.5653   -2.8309   -2.7157 H   0  0  0  0  0  0  0  0  0  0  0  0
   -3.2377   -4.6846   -3.5368 H   0  0  0  0  0  0  0  0  0  0  0  0
   -0.8277   -4.3369   -3.9424 H   0  0  0  0  0  0  0  0  0  0  0  0
    0.1785   -2.1860   -3.5235 H   0  0  0  0  0  0  0  0  0  0  0  0
   -1.1757   -0.2684   -2.6744 H   0  0  0  0  0  0  0  0  0  0  0  0
   -4.5156    1.8686   -0.7847 H   0  0  0  0  0  0  0  0  0  0  0  0
   -8.1684    2.1824    1.9868 H   0  0  0  0  0  0  0  0  0  0  0  0
   -8.9474    1.8792    0.3925 H   0  0  0  0  0  0  0  0  0  0  0  0
   -7.6558    4.3151    2.8113 H   0  0  0  0  0  0  0  0  0  0  0  0
   -8.1330    6.7439    2.6638 H   0  0  0  0  0  0  0  0  0  0  0  0
   -9.1440    7.7120    0.7194 H   0  0  0  0  0  0  0  0  0  0  0  0
   -9.7432    6.2675   -1.2521 H   0  0  0  0  0  0  0  0  0  0  0  0
   -9.2675    3.8413   -1.1042 H   0  0  0  0  0  0  0  0  0  0  0  0
    1.2550   -1.0396    2.8021 H   0  0  0  0  0  0  0  0  0  0  0  0
    2.2045    0.7493    0.6325 H   0  0  0  0  0  0  0  0  0  0  0  0
    2.0972    1.5870    3.0303 H   0  0  0  0  0  0  0  0  0  0  0  0
    2.9863    0.1787    3.5657 H   0  0  0  0  0  0  0  0  0  0  0  0
    3.3224    3.1580    1.3254 H   0  0  0  0  0  0  0  0  0  0  0  0
    5.3385    4.6362    1.5323 H   0  0  0  0  0  0  0  0  0  0  0  0
    7.2266    3.9671    3.0160 H   0  0  0  0  0  0  0  0  0  0  0  0
    7.1140    1.8371    4.2945 H   0  0  0  0  0  0  0  0  0  0  0  0
    5.1768    0.4433    4.0792 H   0  0  0  0  0  0  0  0  0  0  0  0
    5.4355    0.2402    0.7824 H   0  0  0  0  0  0  0  0  0  0  0  0
    4.9130   -2.3534   -0.5991 H   0  0  0  0  0  0  0  0  0  0  0  0
    7.4633   -0.5755   -0.3405 H   0  0  0  0  0  0  0  0  0  0  0  0
    7.2807   -1.9906   -1.3753 H   0  0  0  0  0  0  0  0  0  0  0  0
    5.9000   -1.7163   -3.4827 H   0  0  0  0  0  0  0  0  0  0  0  0
    5.1810   -0.1100   -5.2274 H   0  0  0  0  0  0  0  0  0  0  0  0
    5.0948    2.2399   -4.7800 H   0  0  0  0  0  0  0  0  0  0  0  0
    5.7208    3.1072   -2.5873 H   0  0  0  0  0  0  0  0  0  0  0  0
    6.4533    1.5877   -0.8135 H   0  0  0  0  0  0  0  0  0  0  0  0
    6.7390   -4.4583    0.2791 H   0  0  0  0  0  0  0  0  0  0  0  0
    8.1097   -3.4777    0.8045 H   0  0  0  0  0  0  0  0  0  0  0  0
  1  2  1  0
  2  3  1  0
  2  4  1  0
  4  5  1  0
  5  6  1  0
  6  7  1  0
  7  8  2  0
  7  9  1  0
  9 10  1  0
 10 11  1  0
 11 12  2  0
 12 13  1  0
 13 14  2  0
 14 15  1  0
 15 16  2  0
  9 17  1  0
 17 18  1  0
 18 19  2  0
 18 20  1  0
 20 21  1  0
 21 22  1  0
 22 23  2  0
 23 24  1  0
 24 25  2  0
 25 26  1  0
 26 27  2  0
  5 28  1  0
 28 29  2  0
 28 30  1  0
 30 31  1  0
 31 32  1  0
 32 33  1  0
 33 34  2  0
 34 35  1  0
 35 36  2  0
 36 37  1  0
 37 38  2  0
 31 39  1  0
 39 40  2  0
 39 41  1  0
 41 42  1  0
 42 43  1  0
 43 44  1  0
 44 45  2  0
 45 46  1  0
 46 47  2  0
 47 48  1  0
 48 49  2  0
 42 50  1  0
 50 51  1  0
 50 52  2  0
 16 11  1  0
 27 22  1  0
 38 33  1  0
 49 44  1  0
  1 53  1  0
  1 54  1  0
  1 55  1  0
  2 56  1  0
  3 57  1  0
  3 58  1  0
  3 59  1  0
  4 60  1  0
  4 61  1  0
  5 62  1  1
  6 63  1  0
  9 64  1  1
 10 65  1  0
 10 66  1  0
 12 67  1  0
 13 68  1  0
 14 69  1  0
 15 70  1  0
 16 71  1  0
 17 72  1  0
 21 73  1  0
 21 74  1  0
 23 75  1  0
 24 76  1  0
 25 77  1  0
 26 78  1  0
 27 79  1  0
 30 80  1  0
 31 81  1  6
 32 82  1  0
 32 83  1  0
 34 84  1  0
 35 85  1  0
 36 86  1  0
 37 87  1  0
 38 88  1  0
 41 89  1  0
 42 90  1  6
 43 91  1  0
 43 92  1  0
 45 93  1  0
 46 94  1  0
 47 95  1  0
 48 96  1  0
 49 97  1  0
 51 98  1  0
 51 99  1  0
M  END
$$$$
[H]c1nc(N([H])c2c([H])c([H])c(N3C([H])([H])C([H])([H])C([H])([H])C3([H])[H])c([H])c2OC([H])([H])[H])nc(N([H])c2c([H])c([H])c([H])c([H])c2S(=O)(=O)C(F)(F)F)c1Cl
     RDKit          3D

 56 59  0  0  0  0  0  0  0  0999 V2000
    2.1129    2.1372    3.0001 C   0  0  0  0  0  0  0  0  0  0  0  0
    1.5499    1.3555    1.9841 O   0  0  0  0  0  0  0  0  0  0  0  0
    2.2726    0.6882    1.0069 C   0  0  0  0  0  0  0  0  0  0  0  0
    3.6522    0.7467    0.9592 C   0  0  0  0  0  0  0  0  0  0  0  0
    4.3877    0.0903   -0.0061 C   0  0  0  0  0  0  0  0  0  0  0  0
    3.6728   -0.6315   -0.9262 C   0  0  0  0  0  0  0  0  0  0  0  0
    2.2691   -0.7017   -0.8915 C   0  0  0  0  0  0  0  0  0  0  0  0
    1.5435   -0.0584    0.0551 C   0  0  0  0  0  0  0  0  0  0  0  0
    0.1362   -0.0709    0.1935 N   0  0  0  0  0  0  0  0  0  0  0  0
   -0.8146   -0.7057   -0.6229 C   0  0  0  0  0  0  0  0  0  0  0  0
   -0.5643   -1.4280   -1.7183 N   0  0  0  0  0  0  0  0  0  0  0  0
   -1.4909   -2.0250   -2.4629 C   0  0  0  0  0  0  0  0  0  0  0  0
   -2.8171   -1.9239   -2.1266 C   0  0  0  0  0  0  0  0  0  0  0  0
   -4.0869   -2.6829   -3.0598 Cl  0  0  0  0  0  0  0  0  0  0  0  0
   -3.1085   -1.1629   -0.9684 C   0  0  0  0  0  0  0  0  0  0  0  0
   -4.4729   -1.0511   -0.6457 N   0  0  0  0  0  0  0  0  0  0  0  0
   -4.9932   -0.3849    0.4589 C   0  0  0  0  0  0  0  0  0  0  0  0
   -4.2824   -0.0569    1.5925 C   0  0  0  0  0  0  0  0  0  0  0  0
   -4.8607    0.5234    2.7345 C   0  0  0  0  0  0  0  0  0  0  0  0
   -6.2007    0.7807    2.7329 C   0  0  0  0  0  0  0  0  0  0  0  0
   -6.9382    0.4740    1.6363 C   0  0  0  0  0  0  0  0  0  0  0  0
   -6.3638   -0.1038    0.4934 C   0  0  0  0  0  0  0  0  0  0  0  0
   -7.3527   -0.3668   -0.8920 S   0  0  0  0  0  0  0  0  0  0  0  0
   -7.4464   -1.8009   -1.3354 O   0  0  0  0  0  0  0  0  0  0  0  0
   -8.8170   -0.0415   -0.5002 O   0  0  0  0  0  0  0  0  0  0  0  0
   -7.0006    0.7498   -2.2183 C   0  0  0  0  0  0  0  0  0  0  0  0
   -5.7458    0.7377   -2.7125 F   0  0  0  0  0  0  0  0  0  0  0  0
   -7.2399    2.0744   -1.8047 F   0  0  0  0  0  0  0  0  0  0  0  0
   -7.9127    0.4680   -3.2331 F   0  0  0  0  0  0  0  0  0  0  0  0
   -2.1076   -0.6024   -0.2887 N   0  0  0  0  0  0  0  0  0  0  0  0
    5.8149    0.1635   -0.0426 N   0  0  0  0  0  0  0  0  0  0  0  0
    6.6511   -0.5648   -0.9732 C   0  0  0  0  0  0  0  0  0  0  0  0
    8.0517   -0.4580   -0.4944 C   0  0  0  0  0  0  0  0  0  0  0  0
    7.9366    0.1186    0.8862 C   0  0  0  0  0  0  0  0  0  0  0  0
    6.6837    0.9507    0.8062 C   0  0  0  0  0  0  0  0  0  0  0  0
    3.1172    2.5187    2.8201 H   0  0  0  0  0  0  0  0  0  0  0  0
    1.4827    3.0505    3.2121 H   0  0  0  0  0  0  0  0  0  0  0  0
    2.1411    1.6088    3.9800 H   0  0  0  0  0  0  0  0  0  0  0  0
    4.2228    1.3184    1.6913 H   0  0  0  0  0  0  0  0  0  0  0  0
    4.2297   -1.1583   -1.6969 H   0  0  0  0  0  0  0  0  0  0  0  0
    1.7843   -1.2849   -1.6421 H   0  0  0  0  0  0  0  0  0  0  0  0
   -0.2946    0.4651    1.0209 H   0  0  0  0  0  0  0  0  0  0  0  0
   -1.2087   -2.6011   -3.3480 H   0  0  0  0  0  0  0  0  0  0  0  0
   -5.1518   -1.5379   -1.2721 H   0  0  0  0  0  0  0  0  0  0  0  0
   -3.2221   -0.2453    1.6785 H   0  0  0  0  0  0  0  0  0  0  0  0
   -4.2588    0.7588    3.5923 H   0  0  0  0  0  0  0  0  0  0  0  0
   -6.6837    1.2275    3.5963 H   0  0  0  0  0  0  0  0  0  0  0  0
   -8.0108    0.6714    1.6162 H   0  0  0  0  0  0  0  0  0  0  0  0
    6.5001   -0.2628   -2.0250 H   0  0  0  0  0  0  0  0  0  0  0  0
    6.3458   -1.6466   -0.9293 H   0  0  0  0  0  0  0  0  0  0  0  0
    8.6117    0.1947   -1.1935 H   0  0  0  0  0  0  0  0  0  0  0  0
    8.5302   -1.4612   -0.4248 H   0  0  0  0  0  0  0  0  0  0  0  0
    8.7775    0.8374    1.0741 H   0  0  0  0  0  0  0  0  0  0  0  0
    7.8878   -0.6483    1.6844 H   0  0  0  0  0  0  0  0  0  0  0  0
    6.8530    1.9734    0.4362 H   0  0  0  0  0  0  0  0  0  0  0  0
    6.2284    0.9849    1.8400 H   0  0  0  0  0  0  0  0  0  0  0  0
  1  2  1  0
  2  3  1  0
  3  4  2  0
  4  5  1  0
  5  6  2  0
  6  7  1  0
  7  8  2  0
  8  9  1  0
  9 10  1  0
 10 11  2  0
 11 12  1  0
 12 13  2  0
 13 14  1  0
 13 15  1  0
 15 16  1  0
 16 17  1  0
 17 18  2  0
 18 19  1  0
 19 20  2  0
 20 21  1  0
 21 22  2  0
 22 23  1  0
 23 24  2  0
 23 25  2  0
 23 26  1  0
 26 27  1  0
 26 28  1  0
 26 29  1  0
 15 30  2  0
  5 31  1  0
 31 32  1  0
 32 33  1  0
 33 34  1  0
 34 35  1  0
  8  3  1  0
 30 10  1  0
 35 31  1  0
 22 17  1  0
  1 36  1  0
  1 37  1  0
  1 38  1  0
  4 39  1  0
  6 40  1  0
  7 41  1  0
  9 42  1  0
 12 43  1  0
 16 44  1  0
 18 45  1  0
 19 46  1  0
 20 47  1  0
 21 48  1  0
 32 49  1  0
 32 50  1  0
 33 51  1  0
 33 52  1  0
 34 53  1  0
 34 54  1  0
 35 55  1  0
 35 56  1  0
M  END
$$$$
[H]O[C@]1([H])[C@]([H])([C@]([H])(O[H])C([H])([H])[H])O[C@@]([H])(n2c([H])nc3c(N([H])[H])nc(N([H])[H])nc32)[C@]1([H])O[H]
     RDKit          3D

 37 39  0  0  0  0  0  0  0  0999 V2000
   -4.9503   -0.1732   -0.4398 C   0  0  0  0  0  0  0  0  0  0  0  0
   -3.6124   -0.2842   -1.0764 C   0  0  1  0  0  0  0  0  0  0  0  0
   -3.6854    0.2469   -2.3632 O   0  0  0  0  0  0  0  0  0  0  0  0
   -2.5120    0.4019   -0.3230 C   0  0  2  0  0  0  0  0  0  0  0  0
   -1.2764    0.2589   -0.8964 O   0  0  0  0  0  0  0  0  0  0  0  0
   -0.3423    0.0171    0.0701 C   0  0  2  0  0  0  0  0  0  0  0  0
   -0.9784    0.4234    1.4058 C   0  0  2  0  0  0  0  0  0  0  0  0
   -0.4086   -0.3204    2.4292 O   0  0  0  0  0  0  0  0  0  0  0  0
   -2.4060   -0.0228    1.1101 C   0  0  2  0  0  0  0  0  0  0  0  0
   -2.4050   -1.4173    1.2454 O   0  0  0  0  0  0  0  0  0  0  0  0
    0.9174    0.6699   -0.1382 N   0  0  0  0  0  0  0  0  0  0  0  0
    1.1642    1.9541   -0.4050 C   0  0  0  0  0  0  0  0  0  0  0  0
    2.5022    2.1633   -0.5315 N   0  0  0  0  0  0  0  0  0  0  0  0
    3.1265    0.9888   -0.3419 C   0  0  0  0  0  0  0  0  0  0  0  0
    4.4249    0.5321   -0.3358 C   0  0  0  0  0  0  0  0  0  0  0  0
    5.4668    1.4675   -0.5853 N   0  0  0  0  0  0  0  0  0  0  0  0
    4.7407   -0.7515   -0.1051 N   0  0  0  0  0  0  0  0  0  0  0  0
    3.7453   -1.6135    0.1271 C   0  0  0  0  0  0  0  0  0  0  0  0
    4.0522   -2.9802    0.3746 N   0  0  0  0  0  0  0  0  0  0  0  0
    2.4643   -1.1958    0.1275 N   0  0  0  0  0  0  0  0  0  0  0  0
    2.1323    0.0741   -0.0995 C   0  0  0  0  0  0  0  0  0  0  0  0
   -5.7202    0.2729   -1.1163 H   0  0  0  0  0  0  0  0  0  0  0  0
   -4.9663    0.4464    0.4784 H   0  0  0  0  0  0  0  0  0  0  0  0
   -5.3242   -1.2206   -0.2439 H   0  0  0  0  0  0  0  0  0  0  0  0
   -3.2902   -1.3578   -1.2076 H   0  0  0  0  0  0  0  0  0  0  0  0
   -4.1471    1.1208   -2.2844 H   0  0  0  0  0  0  0  0  0  0  0  0
   -2.7484    1.5059   -0.3123 H   0  0  0  0  0  0  0  0  0  0  0  0
   -0.1966   -1.0819    0.1424 H   0  0  0  0  0  0  0  0  0  0  0  0
   -0.9014    1.5080    1.5626 H   0  0  0  0  0  0  0  0  0  0  0  0
   -0.0812    0.3154    3.1376 H   0  0  0  0  0  0  0  0  0  0  0  0
   -3.1369    0.4683    1.7752 H   0  0  0  0  0  0  0  0  0  0  0  0
   -2.1363   -1.8632    0.4135 H   0  0  0  0  0  0  0  0  0  0  0  0
    0.4544    2.7465   -0.5145 H   0  0  0  0  0  0  0  0  0  0  0  0
    5.5110    2.3687   -0.0380 H   0  0  0  0  0  0  0  0  0  0  0  0
    6.2191    1.3260   -1.2942 H   0  0  0  0  0  0  0  0  0  0  0  0
    3.6265   -3.4431    1.2083 H   0  0  0  0  0  0  0  0  0  0  0  0
    4.6777   -3.5511   -0.2257 H   0  0  0  0  0  0  0  0  0  0  0  0
  1  2  1  0
  2  3  1  0
  2  4  1  0
  4  5  1  0
  5  6  1  0
  6  7  1  0
  7  8  1  0
  7  9  1  0
  9 10  1  0
  6 11  1  0
 11 12  1  0
 12 13  2  0
 13 14  1  0
 14 15  2  0
 15 16  1  0
 15 17  1  0
 17 18  2  0
 18 19  1  0
 18 20  1  0
 20 21  2  0
  9  4  1  0
 21 11  1  0
 21 14  1  0
  1 22  1  0
  1 23  1  0
  1 24  1  0
  2 25  1  6
  3 26  1  0
  4 27  1  1
  6 28  1  1
  7 29  1  1
  8 30  1  0
  9 31  1  1
 10 32  1  0
 12 33  1  0
 16 34  1  0
 16 35  1  0
 19 36  1  0
 19 37  1  0
M  END
$$$$
[H]c1nc2c([H])c(OC([H])([H])[H])c(OC([H])([H])[H])c([H])c2c(Oc2c([H])c([H])c(N([H])C(=O)c3nn(C([H])([H])[H])c(=O)n(C([H])([H])[H])c3=O)c([H])c2F)c1[H]
     RDKit          3D

 55 58  0  0  0  0  0  0  0  0999 V2000
    6.0393    2.6667   -2.2995 C   0  0  0  0  0  0  0  0  0  0  0  0
    6.8503    1.8583   -1.4782 O   0  0  0  0  0  0  0  0  0  0  0  0
    6.3238    0.8779   -0.6399 C   0  0  0  0  0  0  0  0  0  0  0  0
    4.9708    0.6183   -0.5442 C   0  0  0  0  0  0  0  0  0  0  0  0
    4.4685   -0.3614    0.2960 C   0  0  0  0  0  0  0  0  0  0  0  0
    3.0933   -0.6121    0.3813 C   0  0  0  0  0  0  0  0  0  0  0  0
    2.2847    0.1652   -0.4075 O   0  0  0  0  0  0  0  0  0  0  0  0
    0.9122    0.1174   -0.4219 C   0  0  0  0  0  0  0  0  0  0  0  0
    0.2684   -0.2796   -1.5798 C   0  0  0  0  0  0  0  0  0  0  0  0
   -1.0905   -0.3199   -1.5794 C   0  0  0  0  0  0  0  0  0  0  0  0
   -1.8584    0.0209   -0.4643 C   0  0  0  0  0  0  0  0  0  0  0  0
   -3.2481   -0.0586   -0.5485 N   0  0  0  0  0  0  0  0  0  0  0  0
   -4.2061    0.3656    0.3846 C   0  0  0  0  0  0  0  0  0  0  0  0
   -3.9408    0.9037    1.4767 O   0  0  0  0  0  0  0  0  0  0  0  0
   -5.6424    0.1880    0.1073 C   0  0  0  0  0  0  0  0  0  0  0  0
   -6.0700   -0.3855   -1.0480 N   0  0  0  0  0  0  0  0  0  0  0  0
   -7.3498   -0.5497   -1.3073 N   0  0  0  0  0  0  0  0  0  0  0  0
   -7.7783   -1.1634   -2.5456 C   0  0  0  0  0  0  0  0  0  0  0  0
   -8.2927   -0.1563   -0.4385 C   0  0  0  0  0  0  0  0  0  0  0  0
   -9.5034   -0.3231   -0.7074 O   0  0  0  0  0  0  0  0  0  0  0  0
   -7.9135    0.4166    0.7188 N   0  0  0  0  0  0  0  0  0  0  0  0
   -8.9448    0.8361    1.6470 C   0  0  0  0  0  0  0  0  0  0  0  0
   -6.6164    0.5874    0.9907 C   0  0  0  0  0  0  0  0  0  0  0  0
   -6.2904    1.1234    2.0750 O   0  0  0  0  0  0  0  0  0  0  0  0
   -1.1822    0.4078    0.6593 C   0  0  0  0  0  0  0  0  0  0  0  0
    0.2117    0.4643    0.7031 C   0  0  0  0  0  0  0  0  0  0  0  0
    0.8346    0.8750    1.8281 F   0  0  0  0  0  0  0  0  0  0  0  0
    2.6382   -1.5929    1.2266 C   0  0  0  0  0  0  0  0  0  0  0  0
    3.5148   -2.3501    2.0079 C   0  0  0  0  0  0  0  0  0  0  0  0
    4.8172   -2.0754    1.8936 N   0  0  0  0  0  0  0  0  0  0  0  0
    5.3139   -1.1212    1.0761 C   0  0  0  0  0  0  0  0  0  0  0  0
    6.6669   -0.8666    0.9850 C   0  0  0  0  0  0  0  0  0  0  0  0
    7.1570    0.1112    0.1453 C   0  0  0  0  0  0  0  0  0  0  0  0
    8.5235    0.3735    0.0486 O   0  0  0  0  0  0  0  0  0  0  0  0
    9.4812   -0.3390    0.7973 C   0  0  0  0  0  0  0  0  0  0  0  0
    6.5827    3.1421   -3.1162 H   0  0  0  0  0  0  0  0  0  0  0  0
    5.4939    3.3730   -1.6405 H   0  0  0  0  0  0  0  0  0  0  0  0
    5.2439    2.0006   -2.7407 H   0  0  0  0  0  0  0  0  0  0  0  0
    4.2794    1.1918   -1.1384 H   0  0  0  0  0  0  0  0  0  0  0  0
    0.8286   -0.5472   -2.4516 H   0  0  0  0  0  0  0  0  0  0  0  0
   -1.6138   -0.6227   -2.4622 H   0  0  0  0  0  0  0  0  0  0  0  0
   -3.6601   -0.5070   -1.4444 H   0  0  0  0  0  0  0  0  0  0  0  0
   -7.0919   -0.9137   -3.3899 H   0  0  0  0  0  0  0  0  0  0  0  0
   -7.7909   -2.2684   -2.3596 H   0  0  0  0  0  0  0  0  0  0  0  0
   -8.8104   -0.8338   -2.7901 H   0  0  0  0  0  0  0  0  0  0  0  0
   -8.8479    1.9313    1.7771 H   0  0  0  0  0  0  0  0  0  0  0  0
   -9.9307    0.5027    1.3264 H   0  0  0  0  0  0  0  0  0  0  0  0
   -8.7425    0.3498    2.6423 H   0  0  0  0  0  0  0  0  0  0  0  0
   -1.6773    0.6847    1.5717 H   0  0  0  0  0  0  0  0  0  0  0  0
    1.5793   -1.8271    1.3113 H   0  0  0  0  0  0  0  0  0  0  0  0
    3.1474   -3.1296    2.6798 H   0  0  0  0  0  0  0  0  0  0  0  0
    7.3372   -1.4580    1.5935 H   0  0  0  0  0  0  0  0  0  0  0  0
    9.5037   -1.3963    0.4690 H   0  0  0  0  0  0  0  0  0  0  0  0
   10.4690    0.1314    0.5816 H   0  0  0  0  0  0  0  0  0  0  0  0
    9.2577   -0.2259    1.8751 H   0  0  0  0  0  0  0  0  0  0  0  0
  1  2  1  0
  2  3  1  0
  3  4  2  0
  4  5  1  0
  5  6  2  0
  6  7  1  0
  7  8  1  0
  8  9  2  0
  9 10  1  0
 10 11  2  0
 11 12  1  0
 12 13  1  0
 13 14  2  0
 13 15  1  0
 15 16  2  0
 16 17  1  0
 17 18  1  0
 17 19  1  0
 19 20  2  0
 19 21  1  0
 21 22  1  0
 21 23  1  0
 23 24  2  0
 11 25  1  0
 25 26  2  0
 26 27  1  0
  6 28  1  0
 28 29  2  0
 29 30  1  0
 30 31  2  0
 31 32  1  0
 32 33  2  0
 33 34  1  0
 34 35  1  0
 33  3  1  0
 31  5  1  0
 26  8  1  0
 23 15  1  0
  1 36  1  0
  1 37  1  0
  1 38  1  0
  4 39  1  0
  9 40  1  0
 10 41  1  0
 12 42  1  0
 18 43  1  0
 18 44  1  0
 18 45  1  0
 22 46  1  0
 22 47  1  0
 22 48  1  0
 25 49  1  0
 28 50  1  0
 29 51  1  0
 32 52  1  0
 35 53  1  0
 35 54  1  0
 35 55  1  0
M  END
$$$$
[H]c1nc(N([H])c2c([H])c([H])c(N3C([H])([H])C([H])([H])OC([H])([H])C3([H])[H])c([H])c2OC([H])([H])[H])nc(N([H])c2c([H])c([H])c([H])c([H])c2S(=O)(=O)c2c([H])c([H])c([H])c([H])c2[H])c1Cl
     RDKit          3D

 64 68  0  0  0  0  0  0  0  0999 V2000
   -3.4464   -1.5291   -3.1446 C   0  0  0  0  0  0  0  0  0  0  0  0
   -2.5899   -1.2081   -2.0664 O   0  0  0  0  0  0  0  0  0  0  0  0
   -3.1109   -0.5087   -0.9988 C   0  0  0  0  0  0  0  0  0  0  0  0
   -4.4276   -0.1275   -0.9704 C   0  0  0  0  0  0  0  0  0  0  0  0
   -4.9958    0.5669    0.0618 C   0  0  0  0  0  0  0  0  0  0  0  0
   -4.1468    0.8801    1.1203 C   0  0  0  0  0  0  0  0  0  0  0  0
   -2.8095    0.4906    1.0874 C   0  0  0  0  0  0  0  0  0  0  0  0
   -2.2353   -0.2037    0.0583 C   0  0  0  0  0  0  0  0  0  0  0  0
   -0.8912   -0.6076   -0.0280 N   0  0  0  0  0  0  0  0  0  0  0  0
    0.1181   -0.4570    0.9404 C   0  0  0  0  0  0  0  0  0  0  0  0
   -0.0256    0.0954    2.1327 N   0  0  0  0  0  0  0  0  0  0  0  0
    0.9595    0.2203    3.0217 C   0  0  0  0  0  0  0  0  0  0  0  0
    2.1998   -0.2589    2.6653 C   0  0  0  0  0  0  0  0  0  0  0  0
    3.5164   -0.1435    3.7877 Cl  0  0  0  0  0  0  0  0  0  0  0  0
    2.4406   -0.8634    1.4094 C   0  0  0  0  0  0  0  0  0  0  0  0
    3.7380   -1.2885    1.0853 N   0  0  0  0  0  0  0  0  0  0  0  0
    4.0992   -1.9493   -0.0890 C   0  0  0  0  0  0  0  0  0  0  0  0
    3.1973   -2.5888   -0.9032 C   0  0  0  0  0  0  0  0  0  0  0  0
    3.5725   -3.3251   -2.0378 C   0  0  0  0  0  0  0  0  0  0  0  0
    4.8901   -3.4047   -2.3369 C   0  0  0  0  0  0  0  0  0  0  0  0
    5.7956   -2.7647   -1.5223 C   0  0  0  0  0  0  0  0  0  0  0  0
    5.4537   -2.0313   -0.3998 C   0  0  0  0  0  0  0  0  0  0  0  0
    6.7371   -1.2517    0.4348 S   0  0  0  0  0  0  0  0  0  0  0  0
    8.0640   -1.6987   -0.1651 O   0  0  0  0  0  0  0  0  0  0  0  0
    6.8309   -1.6344    1.8858 O   0  0  0  0  0  0  0  0  0  0  0  0
    6.7260    0.4759    0.3473 C   0  0  0  0  0  0  0  0  0  0  0  0
    6.3863    1.2367    1.4205 C   0  0  0  0  0  0  0  0  0  0  0  0
    6.3789    2.6074    1.2960 C   0  0  0  0  0  0  0  0  0  0  0  0
    6.7175    3.1939    0.0798 C   0  0  0  0  0  0  0  0  0  0  0  0
    7.0585    2.4055   -0.9948 C   0  0  0  0  0  0  0  0  0  0  0  0
    7.0660    1.0518   -0.8727 C   0  0  0  0  0  0  0  0  0  0  0  0
    1.3598   -0.9135    0.6371 N   0  0  0  0  0  0  0  0  0  0  0  0
   -6.3447    0.9859    0.1440 N   0  0  0  0  0  0  0  0  0  0  0  0
   -6.8263    1.7428    1.3041 C   0  0  0  0  0  0  0  0  0  0  0  0
   -8.3219    1.8705    1.1542 C   0  0  0  0  0  0  0  0  0  0  0  0
   -8.6473    2.5269   -0.0303 O   0  0  0  0  0  0  0  0  0  0  0  0
   -8.0834    1.9812   -1.1546 C   0  0  0  0  0  0  0  0  0  0  0  0
   -7.2971    0.6966   -0.8768 C   0  0  0  0  0  0  0  0  0  0  0  0
   -4.2363   -2.2450   -2.8623 H   0  0  0  0  0  0  0  0  0  0  0  0
   -3.9381   -0.6069   -3.5535 H   0  0  0  0  0  0  0  0  0  0  0  0
   -2.8645   -2.0100   -3.9693 H   0  0  0  0  0  0  0  0  0  0  0  0
   -5.0750   -0.3899   -1.8175 H   0  0  0  0  0  0  0  0  0  0  0  0
   -4.5372    1.4334    1.9782 H   0  0  0  0  0  0  0  0  0  0  0  0
   -2.2143    0.7777    1.9487 H   0  0  0  0  0  0  0  0  0  0  0  0
   -0.5911   -1.0934   -0.9553 H   0  0  0  0  0  0  0  0  0  0  0  0
    0.7674    0.6843    3.9796 H   0  0  0  0  0  0  0  0  0  0  0  0
    4.4815   -1.1047    1.7997 H   0  0  0  0  0  0  0  0  0  0  0  0
    2.1228   -2.5892   -0.7190 H   0  0  0  0  0  0  0  0  0  0  0  0
    2.8301   -3.8190   -2.6627 H   0  0  0  0  0  0  0  0  0  0  0  0
    5.2308   -3.9714   -3.2164 H   0  0  0  0  0  0  0  0  0  0  0  0
    6.8393   -2.8757   -1.8281 H   0  0  0  0  0  0  0  0  0  0  0  0
    6.1293    0.7858    2.3743 H   0  0  0  0  0  0  0  0  0  0  0  0
    6.1088    3.2118    2.1492 H   0  0  0  0  0  0  0  0  0  0  0  0
    6.7154    4.2745   -0.0330 H   0  0  0  0  0  0  0  0  0  0  0  0
    7.3306    2.8208   -1.9637 H   0  0  0  0  0  0  0  0  0  0  0  0
    7.3333    0.4310   -1.7128 H   0  0  0  0  0  0  0  0  0  0  0  0
   -6.3939    2.7772    1.3012 H   0  0  0  0  0  0  0  0  0  0  0  0
   -6.6168    1.2049    2.2433 H   0  0  0  0  0  0  0  0  0  0  0  0
   -8.7989    0.8647    1.2233 H   0  0  0  0  0  0  0  0  0  0  0  0
   -8.6877    2.5078    1.9774 H   0  0  0  0  0  0  0  0  0  0  0  0
   -7.3751    2.6683   -1.6668 H   0  0  0  0  0  0  0  0  0  0  0  0
   -8.8439    1.7067   -1.9169 H   0  0  0  0  0  0  0  0  0  0  0  0
   -7.9930   -0.1290   -0.6020 H   0  0  0  0  0  0  0  0  0  0  0  0
   -6.8296    0.4150   -1.8141 H   0  0  0  0  0  0  0  0  0  0  0  0
  1  2  1  0
  2  3  1  0
  3  4  2  0
  4  5  1  0
  5  6  2  0
  6  7  1  0
  7  8  2  0
  8  9  1  0
  9 10  1  0
 10 11  2  0
 11 12  1  0
 12 13  2  0
 13 14  1  0
 13 15  1  0
 15 16  1  0
 16 17  1  0
 17 18  2  0
 18 19  1  0
 19 20  2  0
 20 21  1  0
 21 22  2  0
 22 23  1  0
 23 24  2  0
 23 25  2  0
 23 26  1  0
 26 27  2  0
 27 28  1  0
 28 29  2  0
 29 30  1  0
 30 31  2  0
 15 32  2  0
  5 33  1  0
 33 34  1  0
 34 35  1  0
 35 36  1  0
 36 37  1  0
 37 38  1  0
  8  3  1  0
 32 10  1  0
 38 33  1  0
 22 17  1  0
 31 26  1  0
  1 39  1  0
  1 40  1  0
  1 41  1  0
  4 42  1  0
  6 43  1  0
  7 44  1  0
  9 45  1  0
 12 46  1  0
 16 47  1  0
 18 48  1  0
 19 49  1  0
 20 50  1  0
 21 51  1  0
 27 52  1  0
 28 53  1  0
 29 54  1  0
 30 55  1  0
 31 56  1  0
 34 57  1  0
 34 58  1  0
 35 59  1  0
 35 60  1  0
 37 61  1  0
 37 62  1  0
 38 63  1  0
 38 64  1  0
M  END
$$$$
[H]c1nc(N2C([H])([H])C([H])([H])OC([H])([H])C2([H])[H])c([H])c(-c2nc(-c3c([H])c([H])c(N([H])C(=O)N([H])C4([H])C([H])([H])C([H])([H])N(C(=O)OC(C([H])([H])[H])(C([H])([H])[H])C([H])([H])[H])C([H])([H])C4([H])[H])c([H])c3[H])sc2[H])c1[H]
     RDKit          3D

 76 80  0  0  0  0  0  0  0  0999 V2000
   10.5936    1.4645   -1.1798 C   0  0  0  0  0  0  0  0  0  0  0  0
   10.7318    0.8286    0.1894 C   0  0  0  0  0  0  0  0  0  0  0  0
   11.7829   -0.2514    0.1339 C   0  0  0  0  0  0  0  0  0  0  0  0
   11.2851    1.9180    1.1020 C   0  0  0  0  0  0  0  0  0  0  0  0
    9.5127    0.3908    0.7063 O   0  0  0  0  0  0  0  0  0  0  0  0
    8.6858   -0.5454    0.1231 C   0  0  0  0  0  0  0  0  0  0  0  0
    9.0553   -1.0517   -0.9663 O   0  0  0  0  0  0  0  0  0  0  0  0
    7.4579   -0.9345    0.7174 N   0  0  0  0  0  0  0  0  0  0  0  0
    7.0072   -0.3694    1.9712 C   0  0  0  0  0  0  0  0  0  0  0  0
    5.5386   -0.0018    1.9039 C   0  0  0  0  0  0  0  0  0  0  0  0
    4.6954   -1.1385    1.4059 C   0  0  0  0  0  0  0  0  0  0  0  0
    5.5383   -2.3330    1.0003 C   0  0  0  0  0  0  0  0  0  0  0  0
    6.6240   -1.9172    0.0664 C   0  0  0  0  0  0  0  0  0  0  0  0
    3.9729   -0.7103    0.2264 N   0  0  0  0  0  0  0  0  0  0  0  0
    2.5348   -0.7326    0.2177 C   0  0  0  0  0  0  0  0  0  0  0  0
    1.9716   -1.1253    1.2434 O   0  0  0  0  0  0  0  0  0  0  0  0
    1.8459   -0.3191   -0.9231 N   0  0  0  0  0  0  0  0  0  0  0  0
    0.4399   -0.2844   -1.0279 C   0  0  0  0  0  0  0  0  0  0  0  0
   -0.1673   -0.3067   -2.2990 C   0  0  0  0  0  0  0  0  0  0  0  0
   -1.5198   -0.2515   -2.4974 C   0  0  0  0  0  0  0  0  0  0  0  0
   -2.3508   -0.1706   -1.4353 C   0  0  0  0  0  0  0  0  0  0  0  0
   -1.8178   -0.1453   -0.1761 C   0  0  0  0  0  0  0  0  0  0  0  0
   -0.4344   -0.2014    0.0268 C   0  0  0  0  0  0  0  0  0  0  0  0
   -3.8192   -0.1104   -1.6086 C   0  0  0  0  0  0  0  0  0  0  0  0
   -4.7217   -0.0212   -0.6573 N   0  0  0  0  0  0  0  0  0  0  0  0
   -5.9803    0.0239   -0.9666 C   0  0  0  0  0  0  0  0  0  0  0  0
   -6.3056   -0.0253   -2.3009 C   0  0  0  0  0  0  0  0  0  0  0  0
   -4.7606   -0.1343   -3.0276 S   0  0  0  0  0  0  0  0  0  0  0  0
   -7.0391    0.1278    0.0742 C   0  0  0  0  0  0  0  0  0  0  0  0
   -6.7453    0.1829    1.4196 C   0  0  0  0  0  0  0  0  0  0  0  0
   -7.7302    0.2808    2.3748 C   0  0  0  0  0  0  0  0  0  0  0  0
   -8.9985    0.3231    1.9894 N   0  0  0  0  0  0  0  0  0  0  0  0
   -9.3699    0.2742    0.6906 C   0  0  0  0  0  0  0  0  0  0  0  0
   -8.3642    0.1750   -0.2734 C   0  0  0  0  0  0  0  0  0  0  0  0
  -10.7378    0.3234    0.3145 N   0  0  0  0  0  0  0  0  0  0  0  0
  -11.1235    0.2321   -1.0520 C   0  0  0  0  0  0  0  0  0  0  0  0
  -12.5643    0.4451   -1.3514 C   0  0  0  0  0  0  0  0  0  0  0  0
  -13.3882    0.6391   -0.2733 O   0  0  0  0  0  0  0  0  0  0  0  0
  -12.8188    1.3817    0.7547 C   0  0  0  0  0  0  0  0  0  0  0  0
  -11.7347    0.4705    1.3469 C   0  0  0  0  0  0  0  0  0  0  0  0
    9.7472    2.1584   -1.2224 H   0  0  0  0  0  0  0  0  0  0  0  0
   10.4631    0.7056   -1.9709 H   0  0  0  0  0  0  0  0  0  0  0  0
   11.5548    2.0092   -1.3989 H   0  0  0  0  0  0  0  0  0  0  0  0
   12.1545   -0.4365    1.1828 H   0  0  0  0  0  0  0  0  0  0  0  0
   12.6257    0.1329   -0.4763 H   0  0  0  0  0  0  0  0  0  0  0  0
   11.4278   -1.1928   -0.3223 H   0  0  0  0  0  0  0  0  0  0  0  0
   10.5525    2.7329    1.2459 H   0  0  0  0  0  0  0  0  0  0  0  0
   12.1430    2.3598    0.5545 H   0  0  0  0  0  0  0  0  0  0  0  0
   11.6227    1.5237    2.0644 H   0  0  0  0  0  0  0  0  0  0  0  0
    7.5696    0.5120    2.2787 H   0  0  0  0  0  0  0  0  0  0  0  0
    7.1310   -1.1377    2.7632 H   0  0  0  0  0  0  0  0  0  0  0  0
    5.4322    0.8607    1.2442 H   0  0  0  0  0  0  0  0  0  0  0  0
    5.2287    0.2343    2.9417 H   0  0  0  0  0  0  0  0  0  0  0  0
    3.9673   -1.4503    2.1649 H   0  0  0  0  0  0  0  0  0  0  0  0
    4.9022   -3.1380    0.6012 H   0  0  0  0  0  0  0  0  0  0  0  0
    6.0269   -2.6966    1.9364 H   0  0  0  0  0  0  0  0  0  0  0  0
    6.2546   -1.4445   -0.8681 H   0  0  0  0  0  0  0  0  0  0  0  0
    7.2095   -2.8324   -0.1925 H   0  0  0  0  0  0  0  0  0  0  0  0
    4.4490   -0.3782   -0.6381 H   0  0  0  0  0  0  0  0  0  0  0  0
    2.3826    0.0052   -1.7977 H   0  0  0  0  0  0  0  0  0  0  0  0
    0.5351   -0.3739   -3.1423 H   0  0  0  0  0  0  0  0  0  0  0  0
   -1.9210   -0.2726   -3.5026 H   0  0  0  0  0  0  0  0  0  0  0  0
   -2.4767   -0.0796    0.6969 H   0  0  0  0  0  0  0  0  0  0  0  0
   -0.0741   -0.1610    1.0585 H   0  0  0  0  0  0  0  0  0  0  0  0
   -7.3099    0.0002   -2.7620 H   0  0  0  0  0  0  0  0  0  0  0  0
   -5.7061    0.1477    1.7339 H   0  0  0  0  0  0  0  0  0  0  0  0
   -7.5210    0.3257    3.4368 H   0  0  0  0  0  0  0  0  0  0  0  0
   -8.6943    0.1383   -1.2966 H   0  0  0  0  0  0  0  0  0  0  0  0
  -10.7593   -0.7636   -1.4235 H   0  0  0  0  0  0  0  0  0  0  0  0
  -10.5489    0.9642   -1.6961 H   0  0  0  0  0  0  0  0  0  0  0  0
  -12.9465   -0.4847   -1.8693 H   0  0  0  0  0  0  0  0  0  0  0  0
  -12.7367    1.2481   -2.1220 H   0  0  0  0  0  0  0  0  0  0  0  0
  -12.3374    2.2730    0.2839 H   0  0  0  0  0  0  0  0  0  0  0  0
  -13.5735    1.6626    1.4877 H   0  0  0  0  0  0  0  0  0  0  0  0
  -12.2469   -0.4946    1.5934 H   0  0  0  0  0  0  0  0  0  0  0  0
  -11.3096    0.9422    2.2580 H   0  0  0  0  0  0  0  0  0  0  0  0
  1  2  1  0
  2  3  1  0
  2  4  1  0
  2  5  1  0
  5  6  1  0
  6  7  2  0
  6  8  1  0
  8  9  1  0
  9 10  1  0
 10 11  1  0
 11 12  1  0
 12 13  1  0
 11 14  1  0
 14 15  1  0
 15 16  2  0
 15 17  1  0
 17 18  1  0
 18 19  2  0
 19 20  1  0
 20 21  2  0
 21 22  1  0
 22 23  2  0
 21 24  1  0
 24 25  2  0
 25 26  1  0
 26 27  2  0
 27 28  1  0
 26 29  1  0
 29 30  2  0
 30 31  1  0
 31 32  2  0
 32 33  1  0
 33 34  2  0
 33 35  1  0
 35 36  1  0
 36 37  1  0
 37 38  1  0
 38 39  1  0
 39 40  1  0
 13  8  1  0
 23 18  1  0
 28 24  1  0
 34 29  1  0
 40 35  1  0
  1 41  1  0
  1 42  1  0
  1 43  1  0
  3 44  1  0
  3 45  1  0
  3 46  1  0
  4 47  1  0
  4 48  1  0
  4 49  1  0
  9 50  1  0
  9 51  1  0
 10 52  1  0
 10 53  1  0
 11 54  1  0
 12 55  1  0
 12 56  1  0
 13 57  1  0
 13 58  1  0
 14 59  1  0
 17 60  1  0
 19 61  1  0
 20 62  1  0
 22 63  1  0
 23 64  1  0
 27 65  1  0
 30 66  1  0
 31 67  1  0
 34 68  1  0
 36 69  1  0
 36 70  1  0
 37 71  1  0
 37 72  1  0
 39 73  1  0
 39 74  1  0
 40 75  1  0
 40 76  1  0
M  END
$$$$
[H]OC(=O)c1c([H])c([H])c([H])c(-c2c([H])c([H])c(C(=O)N([H])c3c([H])c([H])c([H])c(C(=O)O[H])c3[H])c([H])c2[H])c1[H]
     RDKit          3D

 42 44  0  0  0  0  0  0  0  0999 V2000
   -6.9875    2.3541   -0.5135 O   0  0  0  0  0  0  0  0  0  0  0  0
   -7.2887    1.0725   -0.0855 C   0  0  0  0  0  0  0  0  0  0  0  0
   -8.4824    0.7341    0.0841 O   0  0  0  0  0  0  0  0  0  0  0  0
   -6.2505    0.0915    0.1777 C   0  0  0  0  0  0  0  0  0  0  0  0
   -6.5519   -1.1837    0.6052 C   0  0  0  0  0  0  0  0  0  0  0  0
   -5.5405   -2.1175    0.8549 C   0  0  0  0  0  0  0  0  0  0  0  0
   -4.2148   -1.7902    0.6811 C   0  0  0  0  0  0  0  0  0  0  0  0
   -3.9206   -0.5158    0.2542 C   0  0  0  0  0  0  0  0  0  0  0  0
   -4.9055    0.4172    0.0034 C   0  0  0  0  0  0  0  0  0  0  0  0
   -2.5274   -0.1405    0.0621 C   0  0  0  0  0  0  0  0  0  0  0  0
   -1.5136   -0.6662    0.8272 C   0  0  0  0  0  0  0  0  0  0  0  0
   -0.1712   -0.3272    0.6663 C   0  0  0  0  0  0  0  0  0  0  0  0
    0.1319    0.5783   -0.3110 C   0  0  0  0  0  0  0  0  0  0  0  0
   -0.8686    1.1175   -1.0892 C   0  0  0  0  0  0  0  0  0  0  0  0
   -2.1902    0.7751   -0.9205 C   0  0  0  0  0  0  0  0  0  0  0  0
    1.5184    0.9629   -0.5322 C   0  0  0  0  0  0  0  0  0  0  0  0
    1.6753    2.0865   -1.0976 O   0  0  0  0  0  0  0  0  0  0  0  0
    2.5535    0.1224   -0.1341 N   0  0  0  0  0  0  0  0  0  0  0  0
    3.9514    0.3137   -0.2585 C   0  0  0  0  0  0  0  0  0  0  0  0
    4.5454    1.3417   -0.9222 C   0  0  0  0  0  0  0  0  0  0  0  0
    5.9370    1.4867   -1.0047 C   0  0  0  0  0  0  0  0  0  0  0  0
    6.7557    0.5684   -0.4007 C   0  0  0  0  0  0  0  0  0  0  0  0
    6.1919   -0.4934    0.2849 C   0  0  0  0  0  0  0  0  0  0  0  0
    4.8233   -0.6020    0.3441 C   0  0  0  0  0  0  0  0  0  0  0  0
    7.0701   -1.4643    0.9245 C   0  0  0  0  0  0  0  0  0  0  0  0
    8.4466   -1.3307    0.8509 O   0  0  0  0  0  0  0  0  0  0  0  0
    6.5314   -2.4187    1.5397 O   0  0  0  0  0  0  0  0  0  0  0  0
   -6.1422    2.8597   -0.2087 H   0  0  0  0  0  0  0  0  0  0  0  0
   -7.5861   -1.4592    0.7474 H   0  0  0  0  0  0  0  0  0  0  0  0
   -5.8169   -3.1162    1.1917 H   0  0  0  0  0  0  0  0  0  0  0  0
   -3.4755   -2.5515    0.8891 H   0  0  0  0  0  0  0  0  0  0  0  0
   -4.6619    1.4148   -0.3315 H   0  0  0  0  0  0  0  0  0  0  0  0
   -1.7466   -1.3779    1.5958 H   0  0  0  0  0  0  0  0  0  0  0  0
    0.5452   -0.7971    1.3277 H   0  0  0  0  0  0  0  0  0  0  0  0
   -0.6528    1.8449   -1.8782 H   0  0  0  0  0  0  0  0  0  0  0  0
   -2.9795    1.2022   -1.5364 H   0  0  0  0  0  0  0  0  0  0  0  0
    2.2364   -0.8058    0.3248 H   0  0  0  0  0  0  0  0  0  0  0  0
    3.9409    2.0882   -1.4187 H   0  0  0  0  0  0  0  0  0  0  0  0
    6.3730    2.3129   -1.5383 H   0  0  0  0  0  0  0  0  0  0  0  0
    7.8382    0.6302   -0.4318 H   0  0  0  0  0  0  0  0  0  0  0  0
    4.3973   -1.4322    0.8805 H   0  0  0  0  0  0  0  0  0  0  0  0
    9.0122   -1.7854    1.5541 H   0  0  0  0  0  0  0  0  0  0  0  0
  1  2  1  0
  2  3  2  0
  2  4  1  0
  4  5  2  0
  5  6  1  0
  6  7  2  0
  7  8  1  0
  8  9  2  0
  8 10  1  0
 10 11  2  0
 11 12  1  0
 12 13  2  0
 13 14  1  0
 14 15  2  0
 13 16  1  0
 16 17  2  0
 16 18  1  0
 18 19  1  0
 19 20  2  0
 20 21  1  0
 21 22  2  0
 22 23  1  0
 23 24  2  0
 23 25  1  0
 25 26  1  0
 25 27  2  0
  9  4  1  0
 15 10  1  0
 24 19  1  0
  1 28  1  0
  5 29  1  0
  6 30  1  0
  7 31  1  0
  9 32  1  0
 11 33  1  0
 12 34  1  0
 14 35  1  0
 15 36  1  0
 18 37  1  0
 20 38  1  0
 21 39  1  0
 22 40  1  0
 24 41  1  0
 26 42  1  0
M  END
$$$$
[H]c1c([H])c([H])c([C@@]([H])(N([H])S(=O)(=O)c2c([H])c([H])c(OC([H])([H])[H])c([H])c2[H])C([H])([H])c2c([H])n([H])c3c([H])c([H])c([H])c([H])c23)c([H])c1[H]
     RDKit          3D

 51 54  0  0  0  0  0  0  0  0999 V2000
    6.2638   -1.0798    1.7857 C   0  0  0  0  0  0  0  0  0  0  0  0
    5.2036   -0.3301    2.3831 O   0  0  0  0  0  0  0  0  0  0  0  0
    4.3492    0.3485    1.5210 C   0  0  0  0  0  0  0  0  0  0  0  0
    4.5244    0.2923    0.1398 C   0  0  0  0  0  0  0  0  0  0  0  0
    3.6898    0.9567   -0.7281 C   0  0  0  0  0  0  0  0  0  0  0  0
    2.6163    1.7269   -0.2567 C   0  0  0  0  0  0  0  0  0  0  0  0
    2.4593    1.7705    1.1116 C   0  0  0  0  0  0  0  0  0  0  0  0
    3.2959    1.1042    1.9827 C   0  0  0  0  0  0  0  0  0  0  0  0
    1.5736    2.5717   -1.3779 S   0  0  0  0  0  0  0  0  0  0  0  0
    2.4339    3.0791   -2.4983 O   0  0  0  0  0  0  0  0  0  0  0  0
    0.9044    3.7278   -0.6547 O   0  0  0  0  0  0  0  0  0  0  0  0
    0.3446    1.5301   -1.9119 N   0  0  0  0  0  0  0  0  0  0  0  0
   -0.5194    1.0548   -0.8332 C   0  0  1  0  0  0  0  0  0  0  0  0
   -1.8867    1.5812   -1.0206 C   0  0  0  0  0  0  0  0  0  0  0  0
   -2.8605    1.1840    0.0055 C   0  0  0  0  0  0  0  0  0  0  0  0
   -3.1307    1.9311    1.1737 C   0  0  0  0  0  0  0  0  0  0  0  0
   -4.0253    1.2642    1.8963 N   0  0  0  0  0  0  0  0  0  0  0  0
   -4.3427    0.1422    1.2642 C   0  0  0  0  0  0  0  0  0  0  0  0
   -5.2218   -0.8914    1.5612 C   0  0  0  0  0  0  0  0  0  0  0  0
   -5.3801   -1.9486    0.7124 C   0  0  0  0  0  0  0  0  0  0  0  0
   -4.6869   -2.0594   -0.4810 C   0  0  0  0  0  0  0  0  0  0  0  0
   -3.8172   -1.0384   -0.7749 C   0  0  0  0  0  0  0  0  0  0  0  0
   -3.6399    0.0500    0.0784 C   0  0  0  0  0  0  0  0  0  0  0  0
   -0.3046   -0.3734   -0.7194 C   0  0  0  0  0  0  0  0  0  0  0  0
   -0.2217   -0.9723    0.5178 C   0  0  0  0  0  0  0  0  0  0  0  0
    0.0173   -2.3391    0.6624 C   0  0  0  0  0  0  0  0  0  0  0  0
    0.1729   -3.1029   -0.4570 C   0  0  0  0  0  0  0  0  0  0  0  0
    0.0960   -2.5380   -1.6956 C   0  0  0  0  0  0  0  0  0  0  0  0
   -0.1413   -1.1810   -1.8318 C   0  0  0  0  0  0  0  0  0  0  0  0
    5.8476   -1.7682    1.0447 H   0  0  0  0  0  0  0  0  0  0  0  0
    6.8982   -0.3405    1.2131 H   0  0  0  0  0  0  0  0  0  0  0  0
    6.8675   -1.5575    2.5829 H   0  0  0  0  0  0  0  0  0  0  0  0
    5.3386   -0.2904   -0.2604 H   0  0  0  0  0  0  0  0  0  0  0  0
    3.8020    0.9302   -1.8039 H   0  0  0  0  0  0  0  0  0  0  0  0
    1.6258    2.3716    1.5111 H   0  0  0  0  0  0  0  0  0  0  0  0
    3.1491    1.1561    3.0521 H   0  0  0  0  0  0  0  0  0  0  0  0
   -0.1668    1.8230   -2.7516 H   0  0  0  0  0  0  0  0  0  0  0  0
   -0.0942    1.5307    0.0982 H   0  0  0  0  0  0  0  0  0  0  0  0
   -2.3243    1.3301   -2.0191 H   0  0  0  0  0  0  0  0  0  0  0  0
   -1.8702    2.7116   -1.0291 H   0  0  0  0  0  0  0  0  0  0  0  0
   -2.6480    2.8924    1.3865 H   0  0  0  0  0  0  0  0  0  0  0  0
   -4.3993    1.5997    2.8136 H   0  0  0  0  0  0  0  0  0  0  0  0
   -5.7626   -0.7995    2.4994 H   0  0  0  0  0  0  0  0  0  0  0  0
   -6.0719   -2.7376    0.9715 H   0  0  0  0  0  0  0  0  0  0  0  0
   -4.8396   -2.9047   -1.1215 H   0  0  0  0  0  0  0  0  0  0  0  0
   -3.2542   -1.0711   -1.6953 H   0  0  0  0  0  0  0  0  0  0  0  0
   -0.3384   -0.4100    1.4460 H   0  0  0  0  0  0  0  0  0  0  0  0
    0.0762   -2.7716    1.6470 H   0  0  0  0  0  0  0  0  0  0  0  0
    0.3620   -4.1735   -0.3759 H   0  0  0  0  0  0  0  0  0  0  0  0
    0.2273   -3.1916   -2.5625 H   0  0  0  0  0  0  0  0  0  0  0  0
   -0.1912   -0.7900   -2.8416 H   0  0  0  0  0  0  0  0  0  0  0  0
  1  2  1  0
  2  3  1  0
  3  4  2  0
  4  5  1  0
  5  6  2  0
  6  7  1  0
  7  8  2  0
  6  9  1  0
  9 10  2  0
  9 11  2  0
  9 12  1  0
 12 13  1  0
 13 14  1  0
 14 15  1  0
 15 16  2  0
 16 17  1  0
 17 18  1  0
 18 19  2  0
 19 20  1  0
 20 21  2  0
 21 22  1  0
 22 23  2  0
 13 24  1  0
 24 25  2  0
 25 26  1  0
 26 27  2  0
 27 28  1  0
 28 29  2  0
  8  3  1  0
 23 15  1  0
 29 24  1  0
 23 18  1  0
  1 30  1  0
  1 31  1  0
  1 32  1  0
  4 33  1  0
  5 34  1  0
  7 35  1  0
  8 36  1  0
 12 37  1  0
 13 38  1  1
 14 39  1  0
 14 40  1  0
 16 41  1  0
 17 42  1  0
 19 43  1  0
 20 44  1  0
 21 45  1  0
 22 46  1  0
 25 47  1  0
 26 48  1  0
 27 49  1  0
 28 50  1  0
 29 51  1  0
M  END
$$$$
[H]Oc1c([H])c([H])c2c(c1[H])C([H])([H])C([H])([H])[C@]1([H])[C@]2([H])C([H])([H])C([H])([H])[C@]2(C([H])([H])[H])C(=O)C([H])([H])C([H])([H])[C@]21[H]
     RDKit          3D

 42 45  0  0  0  0  0  0  0  0999 V2000
   -2.3836   -1.3778    0.8257 C   0  0  0  0  0  0  0  0  0  0  0  0
   -2.3951   -0.3698   -0.2852 C   0  0  2  0  0  0  0  0  0  0  0  0
   -1.7598   -0.9004   -1.5153 C   0  0  0  0  0  0  0  0  0  0  0  0
   -0.3170   -1.2045   -1.2834 C   0  0  0  0  0  0  0  0  0  0  0  0
    0.4177   -0.0069   -0.7638 C   0  0  1  0  0  0  0  0  0  0  0  0
   -0.2761    0.5001    0.5086 C   0  0  1  0  0  0  0  0  0  0  0  0
    0.5549    1.5641    1.1385 C   0  0  0  0  0  0  0  0  0  0  0  0
    1.7980    0.8874    1.7105 C   0  0  0  0  0  0  0  0  0  0  0  0
    2.4881    0.1807    0.6011 C   0  0  0  0  0  0  0  0  0  0  0  0
    3.8402   -0.0585    0.7570 C   0  0  0  0  0  0  0  0  0  0  0  0
    4.5868   -0.7091   -0.2117 C   0  0  0  0  0  0  0  0  0  0  0  0
    5.9465   -0.9509   -0.0576 O   0  0  0  0  0  0  0  0  0  0  0  0
    3.9471   -1.1249   -1.3612 C   0  0  0  0  0  0  0  0  0  0  0  0
    2.5817   -0.8803   -1.5123 C   0  0  0  0  0  0  0  0  0  0  0  0
    1.8436   -0.2328   -0.5460 C   0  0  0  0  0  0  0  0  0  0  0  0
   -1.6400    0.9102    0.1012 C   0  0  2  0  0  0  0  0  0  0  0  0
   -2.5077    1.4699    1.1580 C   0  0  0  0  0  0  0  0  0  0  0  0
   -3.9136    1.1834    0.6475 C   0  0  0  0  0  0  0  0  0  0  0  0
   -3.7498    0.1559   -0.4387 C   0  0  0  0  0  0  0  0  0  0  0  0
   -4.6384   -0.0938   -1.2208 O   0  0  0  0  0  0  0  0  0  0  0  0
   -3.3914   -1.8879    0.8200 H   0  0  0  0  0  0  0  0  0  0  0  0
   -1.6472   -2.1791    0.7081 H   0  0  0  0  0  0  0  0  0  0  0  0
   -2.2742   -0.9449    1.8221 H   0  0  0  0  0  0  0  0  0  0  0  0
   -2.2635   -1.8816   -1.7581 H   0  0  0  0  0  0  0  0  0  0  0  0
   -1.8882   -0.2573   -2.3877 H   0  0  0  0  0  0  0  0  0  0  0  0
    0.1290   -1.4583   -2.2896 H   0  0  0  0  0  0  0  0  0  0  0  0
   -0.1406   -2.1118   -0.6652 H   0  0  0  0  0  0  0  0  0  0  0  0
    0.2900    0.8123   -1.5159 H   0  0  0  0  0  0  0  0  0  0  0  0
   -0.3503   -0.3647    1.1951 H   0  0  0  0  0  0  0  0  0  0  0  0
    0.8623    2.3405    0.4054 H   0  0  0  0  0  0  0  0  0  0  0  0
    0.0062    2.0374    1.9702 H   0  0  0  0  0  0  0  0  0  0  0  0
    2.4773    1.6117    2.1919 H   0  0  0  0  0  0  0  0  0  0  0  0
    1.4380    0.0989    2.4174 H   0  0  0  0  0  0  0  0  0  0  0  0
    4.3787    0.2541    1.6485 H   0  0  0  0  0  0  0  0  0  0  0  0
    6.5810   -0.2178   -0.4065 H   0  0  0  0  0  0  0  0  0  0  0  0
    4.5311   -1.6331   -2.1172 H   0  0  0  0  0  0  0  0  0  0  0  0
    2.1491   -1.2339   -2.4373 H   0  0  0  0  0  0  0  0  0  0  0  0
   -1.6750    1.5692   -0.7863 H   0  0  0  0  0  0  0  0  0  0  0  0
   -2.3459    1.0738    2.1671 H   0  0  0  0  0  0  0  0  0  0  0  0
   -2.3932    2.5875    1.2018 H   0  0  0  0  0  0  0  0  0  0  0  0
   -4.5388    0.7605    1.4490 H   0  0  0  0  0  0  0  0  0  0  0  0
   -4.3579    2.0825    0.1732 H   0  0  0  0  0  0  0  0  0  0  0  0
  2  1  1  1
  2  3  1  0
  3  4  1  0
  4  5  1  0
  5  6  1  0
  6  7  1  0
  7  8  1  0
  8  9  1  0
  9 10  2  0
 10 11  1  0
 11 12  1  0
 11 13  2  0
 13 14  1  0
 14 15  2  0
  6 16  1  0
 16 17  1  0
 17 18  1  0
 18 19  1  0
 19 20  2  0
 16  2  1  0
 19  2  1  0
 15  5  1  0
 15  9  1  0
  1 21  1  0
  1 22  1  0
  1 23  1  0
  3 24  1  0
  3 25  1  0
  4 26  1  0
  4 27  1  0
  5 28  1  6
  6 29  1  1
  7 30  1  0
  7 31  1  0
  8 32  1  0
  8 33  1  0
 10 34  1  0
 12 35  1  0
 13 36  1  0
 14 37  1  0
 16 38  1  6
 17 39  1  0
 17 40  1  0
 18 41  1  0
 18 42  1  0
M  END
$$$$
[H]OC(=O)[C@@]([H])(N([H])C(=O)[C@@]([H])(N([H])C(=O)[C@@]([H])(N([H])C(=O)[C@@]([H])(N([H])C(=O)[C@@]([H])(N([H])C(=O)[C@@]([H])(N([H])C(=O)C([H])([H])[H])C([H])([H])C([H])(C([H])([H])[H])C([H])([H])[H])C([H])([H])c1c([H])c([H])c([H])c([H])c1[H])C([H])([H])C([H])(C([H])([H])[H])C([H])([H])[H])C([H])([H])C([H])(C([H])([H])[H])C([H])([H])[H])C([H])([H])C([H])(C([H])([H])[H])C([H])([H])[H])C([H])([H])C([H])(C([H])([H])[H])C([H])([H])[H]
     RDKit          3D

123123  0  0  0  0  0  0  0  0999 V2000
   11.0811   -2.0382   -0.9729 C   0  0  0  0  0  0  0  0  0  0  0  0
    9.6763   -1.7489   -1.2896 C   0  0  0  0  0  0  0  0  0  0  0  0
    9.3468   -1.4743   -2.4689 O   0  0  0  0  0  0  0  0  0  0  0  0
    8.6946   -1.7718   -0.2956 N   0  0  0  0  0  0  0  0  0  0  0  0
    7.2827   -1.4891   -0.5584 C   0  0  1  0  0  0  0  0  0  0  0  0
    6.6052   -2.8246   -0.2248 C   0  0  0  0  0  0  0  0  0  0  0  0
    5.1264   -2.8251   -0.3998 C   0  0  0  0  0  0  0  0  0  0  0  0
    4.6573   -4.2335    0.0038 C   0  0  0  0  0  0  0  0  0  0  0  0
    4.7962   -2.6630   -1.8636 C   0  0  0  0  0  0  0  0  0  0  0  0
    6.7381   -0.4643    0.3694 C   0  0  0  0  0  0  0  0  0  0  0  0
    7.2967   -0.2966    1.4888 O   0  0  0  0  0  0  0  0  0  0  0  0
    5.6273    0.3430    0.0601 N   0  0  0  0  0  0  0  0  0  0  0  0
    5.1158    1.3496    0.9771 C   0  0  1  0  0  0  0  0  0  0  0  0
    5.6617    2.6819    0.7670 C   0  0  0  0  0  0  0  0  0  0  0  0
    5.5855    3.4053   -0.4634 C   0  0  0  0  0  0  0  0  0  0  0  0
    6.5526    3.3363   -1.4743 C   0  0  0  0  0  0  0  0  0  0  0  0
    6.4794    4.0349   -2.6297 C   0  0  0  0  0  0  0  0  0  0  0  0
    5.4279    4.8606   -2.8641 C   0  0  0  0  0  0  0  0  0  0  0  0
    4.4421    4.9695   -1.9038 C   0  0  0  0  0  0  0  0  0  0  0  0
    4.5306    4.2444   -0.7201 C   0  0  0  0  0  0  0  0  0  0  0  0
    3.7975    1.1180    1.5078 C   0  0  0  0  0  0  0  0  0  0  0  0
    3.5728   -0.1130    1.8776 O   0  0  0  0  0  0  0  0  0  0  0  0
    2.6815    1.9373    1.7193 N   0  0  0  0  0  0  0  0  0  0  0  0
    1.4425    1.4435    2.3046 C   0  0  1  0  0  0  0  0  0  0  0  0
    0.7304    2.5206    3.0143 C   0  0  0  0  0  0  0  0  0  0  0  0
    1.3869    3.1763    4.1673 C   0  0  0  0  0  0  0  0  0  0  0  0
    2.6716    3.8737    3.9587 C   0  0  0  0  0  0  0  0  0  0  0  0
    0.4086    4.2273    4.7400 C   0  0  0  0  0  0  0  0  0  0  0  0
    0.5405    0.8601    1.2505 C   0  0  0  0  0  0  0  0  0  0  0  0
    0.9469    0.9446    0.0683 O   0  0  0  0  0  0  0  0  0  0  0  0
   -0.6877    0.2321    1.5087 N   0  0  0  0  0  0  0  0  0  0  0  0
   -1.5672   -0.3787    0.5894 C   0  0  1  0  0  0  0  0  0  0  0  0
   -1.8200   -1.8425    0.8910 C   0  0  0  0  0  0  0  0  0  0  0  0
   -0.6524   -2.7433    0.8839 C   0  0  0  0  0  0  0  0  0  0  0  0
    0.0921   -2.8130   -0.4282 C   0  0  0  0  0  0  0  0  0  0  0  0
    0.3480   -2.5394    1.9877 C   0  0  0  0  0  0  0  0  0  0  0  0
   -2.9238    0.2798    0.4622 C   0  0  0  0  0  0  0  0  0  0  0  0
   -3.1523    1.2643    1.1839 O   0  0  0  0  0  0  0  0  0  0  0  0
   -3.8689   -0.2100   -0.4303 N   0  0  0  0  0  0  0  0  0  0  0  0
   -5.1991    0.1827   -0.7509 C   0  0  1  0  0  0  0  0  0  0  0  0
   -5.3879    0.9770   -1.9759 C   0  0  0  0  0  0  0  0  0  0  0  0
   -4.9145    0.4229   -3.2658 C   0  0  0  0  0  0  0  0  0  0  0  0
   -5.2518    1.4475   -4.3580 C   0  0  0  0  0  0  0  0  0  0  0  0
   -5.5285   -0.8710   -3.7044 C   0  0  0  0  0  0  0  0  0  0  0  0
   -6.2066   -0.8495   -0.4836 C   0  0  0  0  0  0  0  0  0  0  0  0
   -5.9049   -1.8305    0.3170 O   0  0  0  0  0  0  0  0  0  0  0  0
   -7.5228   -0.9414   -0.9890 N   0  0  0  0  0  0  0  0  0  0  0  0
   -8.4591   -1.9785   -0.6240 C   0  0  1  0  0  0  0  0  0  0  0  0
   -9.8972   -1.5709   -0.6612 C   0  0  0  0  0  0  0  0  0  0  0  0
  -10.2791   -0.4487    0.2419 C   0  0  0  0  0  0  0  0  0  0  0  0
  -10.0288   -0.6941    1.6976 C   0  0  0  0  0  0  0  0  0  0  0  0
   -9.7367    0.8907   -0.1467 C   0  0  0  0  0  0  0  0  0  0  0  0
   -8.2507   -3.2770   -1.3270 C   0  0  0  0  0  0  0  0  0  0  0  0
   -9.1283   -4.3199   -1.0528 O   0  0  0  0  0  0  0  0  0  0  0  0
   -7.3416   -3.4505   -2.1291 O   0  0  0  0  0  0  0  0  0  0  0  0
   11.6997   -1.0972   -0.9034 H   0  0  0  0  0  0  0  0  0  0  0  0
   11.5666   -2.6035   -1.8200 H   0  0  0  0  0  0  0  0  0  0  0  0
   11.2146   -2.5600    0.0021 H   0  0  0  0  0  0  0  0  0  0  0  0
    8.9477   -2.0009    0.6869 H   0  0  0  0  0  0  0  0  0  0  0  0
    7.1646   -1.2798   -1.6163 H   0  0  0  0  0  0  0  0  0  0  0  0
    6.9675   -3.1423    0.7685 H   0  0  0  0  0  0  0  0  0  0  0  0
    7.0791   -3.5784   -0.9355 H   0  0  0  0  0  0  0  0  0  0  0  0
    4.6547   -2.0617    0.2089 H   0  0  0  0  0  0  0  0  0  0  0  0
    5.0505   -4.4550    1.0458 H   0  0  0  0  0  0  0  0  0  0  0  0
    3.5619   -4.2180    0.1031 H   0  0  0  0  0  0  0  0  0  0  0  0
    5.0644   -4.9916   -0.6621 H   0  0  0  0  0  0  0  0  0  0  0  0
    5.6666   -2.9327   -2.5079 H   0  0  0  0  0  0  0  0  0  0  0  0
    4.3897   -1.6632   -2.1074 H   0  0  0  0  0  0  0  0  0  0  0  0
    3.9837   -3.3905   -2.1393 H   0  0  0  0  0  0  0  0  0  0  0  0
    5.1064    0.2648   -0.8583 H   0  0  0  0  0  0  0  0  0  0  0  0
    5.7609    1.0192    1.9437 H   0  0  0  0  0  0  0  0  0  0  0  0
    5.2095    3.3496    1.5705 H   0  0  0  0  0  0  0  0  0  0  0  0
    6.7629    2.6777    1.0690 H   0  0  0  0  0  0  0  0  0  0  0  0
    7.3716    2.6907   -1.2904 H   0  0  0  0  0  0  0  0  0  0  0  0
    7.2598    3.9426   -3.3795 H   0  0  0  0  0  0  0  0  0  0  0  0
    5.3464    5.4202   -3.7714 H   0  0  0  0  0  0  0  0  0  0  0  0
    3.6142    5.6248   -2.0979 H   0  0  0  0  0  0  0  0  0  0  0  0
    3.6944    4.4122   -0.0280 H   0  0  0  0  0  0  0  0  0  0  0  0
    2.7110    2.9291    1.4585 H   0  0  0  0  0  0  0  0  0  0  0  0
    1.7873    0.5840    2.9489 H   0  0  0  0  0  0  0  0  0  0  0  0
    0.4577    3.3759    2.2961 H   0  0  0  0  0  0  0  0  0  0  0  0
   -0.2939    2.2098    3.3686 H   0  0  0  0  0  0  0  0  0  0  0  0
    1.5262    2.4218    4.9784 H   0  0  0  0  0  0  0  0  0  0  0  0
    2.5965    4.5897    3.0905 H   0  0  0  0  0  0  0  0  0  0  0  0
    3.5499    3.2333    3.7577 H   0  0  0  0  0  0  0  0  0  0  0  0
    2.8740    4.5428    4.8436 H   0  0  0  0  0  0  0  0  0  0  0  0
    0.6766    4.5429    5.7489 H   0  0  0  0  0  0  0  0  0  0  0  0
   -0.6436    3.9179    4.6005 H   0  0  0  0  0  0  0  0  0  0  0  0
    0.5372    5.1132    4.0576 H   0  0  0  0  0  0  0  0  0  0  0  0
   -0.9731    0.2408    2.5404 H   0  0  0  0  0  0  0  0  0  0  0  0
   -1.1394   -0.3229   -0.4373 H   0  0  0  0  0  0  0  0  0  0  0  0
   -2.5909   -2.2851    0.2100 H   0  0  0  0  0  0  0  0  0  0  0  0
   -2.3535   -1.8318    1.8925 H   0  0  0  0  0  0  0  0  0  0  0  0
   -1.0251   -3.8223    1.0291 H   0  0  0  0  0  0  0  0  0  0  0  0
    1.0484   -3.3567   -0.2030 H   0  0  0  0  0  0  0  0  0  0  0  0
    0.3672   -1.8469   -0.8493 H   0  0  0  0  0  0  0  0  0  0  0  0
   -0.4463   -3.4874   -1.1594 H   0  0  0  0  0  0  0  0  0  0  0  0
    0.6025   -3.5333    2.4650 H   0  0  0  0  0  0  0  0  0  0  0  0
   -0.0824   -1.9189    2.7774 H   0  0  0  0  0  0  0  0  0  0  0  0
    1.3050   -2.1242    1.5629 H   0  0  0  0  0  0  0  0  0  0  0  0
   -3.5389   -1.0651   -1.0153 H   0  0  0  0  0  0  0  0  0  0  0  0
   -5.4510    0.9828    0.0937 H   0  0  0  0  0  0  0  0  0  0  0  0
   -6.4877    1.2232   -2.1295 H   0  0  0  0  0  0  0  0  0  0  0  0
   -4.9344    2.0159   -1.8844 H   0  0  0  0  0  0  0  0  0  0  0  0
   -3.7909    0.3564   -3.3221 H   0  0  0  0  0  0  0  0  0  0  0  0
   -6.2832    1.8109   -4.1990 H   0  0  0  0  0  0  0  0  0  0  0  0
   -4.5173    2.2907   -4.3198 H   0  0  0  0  0  0  0  0  0  0  0  0
   -5.2409    0.9876   -5.3658 H   0  0  0  0  0  0  0  0  0  0  0  0
   -5.0269   -1.1596   -4.6754 H   0  0  0  0  0  0  0  0  0  0  0  0
   -5.2841   -1.7083   -3.0041 H   0  0  0  0  0  0  0  0  0  0  0  0
   -6.5925   -0.7675   -3.9352 H   0  0  0  0  0  0  0  0  0  0  0  0
   -7.8343   -0.2177   -1.6694 H   0  0  0  0  0  0  0  0  0  0  0  0
   -8.2441   -2.2777    0.4752 H   0  0  0  0  0  0  0  0  0  0  0  0
  -10.5240   -2.4576   -0.3447 H   0  0  0  0  0  0  0  0  0  0  0  0
  -10.2567   -1.3639   -1.6966 H   0  0  0  0  0  0  0  0  0  0  0  0
  -11.4089   -0.3441    0.1461 H   0  0  0  0  0  0  0  0  0  0  0  0
   -8.9750   -0.9606    1.8581 H   0  0  0  0  0  0  0  0  0  0  0  0
  -10.2007    0.2471    2.2545 H   0  0  0  0  0  0  0  0  0  0  0  0
  -10.6979   -1.4596    2.1370 H   0  0  0  0  0  0  0  0  0  0  0  0
   -9.7640    1.0809   -1.2432 H   0  0  0  0  0  0  0  0  0  0  0  0
  -10.4277    1.6799    0.2791 H   0  0  0  0  0  0  0  0  0  0  0  0
   -8.7398    1.1136    0.2726 H   0  0  0  0  0  0  0  0  0  0  0  0
   -9.0414   -4.9288   -0.2506 H   0  0  0  0  0  0  0  0  0  0  0  0
  1  2  1  0
  2  3  2  0
  2  4  1  0
  4  5  1  0
  5  6  1  0
  6  7  1  0
  7  8  1  0
  7  9  1  0
  5 10  1  0
 10 11  2  0
 10 12  1  0
 12 13  1  0
 13 14  1  0
 14 15  1  0
 15 16  2  0
 16 17  1  0
 17 18  2  0
 18 19  1  0
 19 20  2  0
 13 21  1  0
 21 22  2  0
 21 23  1  0
 23 24  1  0
 24 25  1  0
 25 26  1  0
 26 27  1  0
 26 28  1  0
 24 29  1  0
 29 30  2  0
 29 31  1  0
 31 32  1  0
 32 33  1  0
 33 34  1  0
 34 35  1  0
 34 36  1  0
 32 37  1  0
 37 38  2  0
 37 39  1  0
 39 40  1  0
 40 41  1  0
 41 42  1  0
 42 43  1  0
 42 44  1  0
 40 45  1  0
 45 46  2  0
 45 47  1  0
 47 48  1  0
 48 49  1  0
 49 50  1  0
 50 51  1  0
 50 52  1  0
 48 53  1  0
 53 54  1  0
 53 55  2  0
 20 15  1  0
  1 56  1  0
  1 57  1  0
  1 58  1  0
  4 59  1  0
  5 60  1  6
  6 61  1  0
  6 62  1  0
  7 63  1  0
  8 64  1  0
  8 65  1  0
  8 66  1  0
  9 67  1  0
  9 68  1  0
  9 69  1  0
 12 70  1  0
 13 71  1  1
 14 72  1  0
 14 73  1  0
 16 74  1  0
 17 75  1  0
 18 76  1  0
 19 77  1  0
 20 78  1  0
 23 79  1  0
 24 80  1  1
 25 81  1  0
 25 82  1  0
 26 83  1  0
 27 84  1  0
 27 85  1  0
 27 86  1  0
 28 87  1  0
 28 88  1  0
 28 89  1  0
 31 90  1  0
 32 91  1  6
 33 92  1  0
 33 93  1  0
 34 94  1  0
 35 95  1  0
 35 96  1  0
 35 97  1  0
 36 98  1  0
 36 99  1  0
 36100  1  0
 39101  1  0
 40102  1  1
 41103  1  0
 41104  1  0
 42105  1  0
 43106  1  0
 43107  1  0
 43108  1  0
 44109  1  0
 44110  1  0
 44111  1  0
 47112  1  0
 48113  1  1
 49114  1  0
 49115  1  0
 50116  1  0
 51117  1  0
 51118  1  0
 51119  1  0
 52120  1  0
 52121  1  0
 52122  1  0
 54123  1  0
M  END
$$$$
[H]c1c(F)c([H])c(-c2c([H])c([H])c3c(c2[H])c(C2([H])C([H])([H])C([H])([H])N(C([H])([H])[H])C([H])([H])C2([H])[H])c([H])n3[H])c([H])c1F
     RDKit          3D

 44 47  0  0  0  0  0  0  0  0999 V2000
    5.7311    0.4692   -0.8601 C   0  0  0  0  0  0  0  0  0  0  0  0
    4.3278    0.8683   -0.7352 N   0  0  0  0  0  0  0  0  0  0  0  0
    4.0643    0.9113    0.6952 C   0  0  0  0  0  0  0  0  0  0  0  0
    2.6782    1.2384    1.0556 C   0  0  0  0  0  0  0  0  0  0  0  0
    1.5510    0.8202    0.1907 C   0  0  0  0  0  0  0  0  0  0  0  0
    2.0085    0.5765   -1.2573 C   0  0  0  0  0  0  0  0  0  0  0  0
    3.3895   -0.0387   -1.3192 C   0  0  0  0  0  0  0  0  0  0  0  0
    0.9371   -0.4739    0.6859 C   0  0  0  0  0  0  0  0  0  0  0  0
    1.6396   -1.5192    1.2431 C   0  0  0  0  0  0  0  0  0  0  0  0
    0.7771   -2.5199    1.4452 N   0  0  0  0  0  0  0  0  0  0  0  0
   -0.4657   -2.1295    1.0289 C   0  0  0  0  0  0  0  0  0  0  0  0
   -1.7011   -2.7340    1.0690 C   0  0  0  0  0  0  0  0  0  0  0  0
   -2.8097   -2.0155    0.6332 C   0  0  0  0  0  0  0  0  0  0  0  0
   -2.7168   -0.7308    0.1665 C   0  0  0  0  0  0  0  0  0  0  0  0
   -1.4763   -0.1280    0.1186 C   0  0  0  0  0  0  0  0  0  0  0  0
   -0.3869   -0.8516    0.5510 C   0  0  0  0  0  0  0  0  0  0  0  0
   -3.9289    0.0098   -0.1221 C   0  0  0  0  0  0  0  0  0  0  0  0
   -3.8576    1.3994    0.0718 C   0  0  0  0  0  0  0  0  0  0  0  0
   -4.9680    2.1952   -0.1157 C   0  0  0  0  0  0  0  0  0  0  0  0
   -4.8566    3.5458    0.0825 F   0  0  0  0  0  0  0  0  0  0  0  0
   -6.1694    1.6206   -0.5044 C   0  0  0  0  0  0  0  0  0  0  0  0
   -6.2590    0.2662   -0.7030 C   0  0  0  0  0  0  0  0  0  0  0  0
   -7.4586   -0.2455   -1.0624 F   0  0  0  0  0  0  0  0  0  0  0  0
   -5.1224   -0.5110   -0.5027 C   0  0  0  0  0  0  0  0  0  0  0  0
    5.8607   -0.1527   -1.7621 H   0  0  0  0  0  0  0  0  0  0  0  0
    6.0083   -0.1024    0.0629 H   0  0  0  0  0  0  0  0  0  0  0  0
    6.3282    1.4178   -0.8834 H   0  0  0  0  0  0  0  0  0  0  0  0
    4.7496    1.7226    1.1066 H   0  0  0  0  0  0  0  0  0  0  0  0
    4.4634   -0.0068    1.2220 H   0  0  0  0  0  0  0  0  0  0  0  0
    2.4739    0.7514    2.0691 H   0  0  0  0  0  0  0  0  0  0  0  0
    2.6002    2.3495    1.3276 H   0  0  0  0  0  0  0  0  0  0  0  0
    0.7640    1.5668    0.1623 H   0  0  0  0  0  0  0  0  0  0  0  0
    1.2450   -0.0813   -1.7277 H   0  0  0  0  0  0  0  0  0  0  0  0
    2.0222    1.5357   -1.8052 H   0  0  0  0  0  0  0  0  0  0  0  0
    3.6487   -0.1549   -2.3860 H   0  0  0  0  0  0  0  0  0  0  0  0
    3.4578   -1.0315   -0.8365 H   0  0  0  0  0  0  0  0  0  0  0  0
    2.6692   -1.5384    1.4792 H   0  0  0  0  0  0  0  0  0  0  0  0
    0.8994   -3.4718    1.8413 H   0  0  0  0  0  0  0  0  0  0  0  0
   -1.7939   -3.7361    1.4286 H   0  0  0  0  0  0  0  0  0  0  0  0
   -3.7782   -2.4901    0.6655 H   0  0  0  0  0  0  0  0  0  0  0  0
   -1.3714    0.8591   -0.2631 H   0  0  0  0  0  0  0  0  0  0  0  0
   -2.9242    1.8426    0.3800 H   0  0  0  0  0  0  0  0  0  0  0  0
   -7.0372    2.2726   -0.6398 H   0  0  0  0  0  0  0  0  0  0  0  0
   -5.2128   -1.5751   -0.6590 H   0  0  0  0  0  0  0  0  0  0  0  0
  1  2  1  0
  2  3  1  0
  3  4  1  0
  4  5  1  0
  5  6  1  0
  6  7  1  0
  5  8  1  0
  8  9  2  0
  9 10  1  0
 10 11  1  0
 11 12  2  0
 12 13  1  0
 13 14  2  0
 14 15  1  0
 15 16  2  0
 14 17  1  0
 17 18  2  0
 18 19  1  0
 19 20  1  0
 19 21  2  0
 21 22  1  0
 22 23  1  0
 22 24  2  0
  7  2  1  0
 16  8  1  0
 24 17  1  0
 16 11  1  0
  1 25  1  0
  1 26  1  0
  1 27  1  0
  3 28  1  0
  3 29  1  0
  4 30  1  0
  4 31  1  0
  5 32  1  0
  6 33  1  0
  6 34  1  0
  7 35  1  0
  7 36  1  0
  9 37  1  0
 10 38  1  0
 12 39  1  0
 13 40  1  0
 15 41  1  0
 18 42  1  0
 21 43  1  0
 24 44  1  0
M  END
$$$$
[H]ON([H])C(=O)C1([H])C([H])([H])C([H])([H])N(S(=O)(=O)c2c([H])c([H])c(OC([H])([H])[H])c([H])c2[H])C([H])([H])C1([H])[H]
     RDKit          3D

 39 40  0  0  0  0  0  0  0  0999 V2000
    5.7327    2.0900   -0.6790 C   0  0  0  0  0  0  0  0  0  0  0  0
    4.9142    2.1412    0.4582 O   0  0  0  0  0  0  0  0  0  0  0  0
    3.9276    1.1743    0.5979 C   0  0  0  0  0  0  0  0  0  0  0  0
    3.7088    0.1703   -0.3162 C   0  0  0  0  0  0  0  0  0  0  0  0
    2.7312   -0.7908   -0.1816 C   0  0  0  0  0  0  0  0  0  0  0  0
    1.9179   -0.7559    0.9293 C   0  0  0  0  0  0  0  0  0  0  0  0
    2.1114    0.2382    1.8648 C   0  0  0  0  0  0  0  0  0  0  0  0
    3.0995    1.1907    1.7060 C   0  0  0  0  0  0  0  0  0  0  0  0
    0.6481   -1.9163    1.2070 S   0  0  0  0  0  0  0  0  0  0  0  0
    1.0810   -3.2439    0.6927 O   0  0  0  0  0  0  0  0  0  0  0  0
    0.4804   -2.0565    2.6992 O   0  0  0  0  0  0  0  0  0  0  0  0
   -0.7759   -1.3357    0.5202 N   0  0  0  0  0  0  0  0  0  0  0  0
   -1.2946   -0.1336    1.0045 C   0  0  0  0  0  0  0  0  0  0  0  0
   -2.1787    0.4973   -0.0522 C   0  0  0  0  0  0  0  0  0  0  0  0
   -3.2561   -0.5448   -0.3717 C   0  0  0  0  0  0  0  0  0  0  0  0
   -2.5614   -1.6460   -1.1387 C   0  0  0  0  0  0  0  0  0  0  0  0
   -1.1069   -1.7662   -0.7665 C   0  0  0  0  0  0  0  0  0  0  0  0
   -4.3783    0.0246   -1.1176 C   0  0  0  0  0  0  0  0  0  0  0  0
   -4.6400   -0.4431   -2.2545 O   0  0  0  0  0  0  0  0  0  0  0  0
   -5.1543    1.0689   -0.5901 N   0  0  0  0  0  0  0  0  0  0  0  0
   -6.1765    1.5765   -1.2871 O   0  0  0  0  0  0  0  0  0  0  0  0
    5.0797    2.0307   -1.5715 H   0  0  0  0  0  0  0  0  0  0  0  0
    6.3923    1.2011   -0.5760 H   0  0  0  0  0  0  0  0  0  0  0  0
    6.3464    3.0298   -0.6876 H   0  0  0  0  0  0  0  0  0  0  0  0
    4.3530    0.1362   -1.2038 H   0  0  0  0  0  0  0  0  0  0  0  0
    2.5745   -1.5769   -0.9165 H   0  0  0  0  0  0  0  0  0  0  0  0
    1.4850    0.3060    2.7693 H   0  0  0  0  0  0  0  0  0  0  0  0
    3.2544    1.9783    2.4451 H   0  0  0  0  0  0  0  0  0  0  0  0
   -0.5178    0.6049    1.3496 H   0  0  0  0  0  0  0  0  0  0  0  0
   -1.9507   -0.2825    1.9017 H   0  0  0  0  0  0  0  0  0  0  0  0
   -2.6244    1.4490    0.2668 H   0  0  0  0  0  0  0  0  0  0  0  0
   -1.5245    0.6189   -0.9601 H   0  0  0  0  0  0  0  0  0  0  0  0
   -3.5553   -0.9745    0.6061 H   0  0  0  0  0  0  0  0  0  0  0  0
   -3.0653   -2.6188   -0.9500 H   0  0  0  0  0  0  0  0  0  0  0  0
   -2.6423   -1.4195   -2.2164 H   0  0  0  0  0  0  0  0  0  0  0  0
   -0.8229   -2.8488   -0.8785 H   0  0  0  0  0  0  0  0  0  0  0  0
   -0.5135   -1.1892   -1.5137 H   0  0  0  0  0  0  0  0  0  0  0  0
   -4.9282    1.4463    0.3493 H   0  0  0  0  0  0  0  0  0  0  0  0
   -6.1705    2.5701   -1.1642 H   0  0  0  0  0  0  0  0  0  0  0  0
  1  2  1  0
  2  3  1  0
  3  4  2  0
  4  5  1  0
  5  6  2  0
  6  7  1  0
  7  8  2  0
  6  9  1  0
  9 10  2  0
  9 11  2  0
  9 12  1  0
 12 13  1  0
 13 14  1  0
 14 15  1  0
 15 16  1  0
 16 17  1  0
 15 18  1  0
 18 19  2  0
 18 20  1  0
 20 21  1  0
  8  3  1  0
 17 12  1  0
  1 22  1  0
  1 23  1  0
  1 24  1  0
  4 25  1  0
  5 26  1  0
  7 27  1  0
  8 28  1  0
 13 29  1  0
 13 30  1  0
 14 31  1  0
 14 32  1  0
 15 33  1  0
 16 34  1  0
 16 35  1  0
 17 36  1  0
 17 37  1  0
 20 38  1  0
 21 39  1  0
M  END
$$$$
[H]c1c([H])c([H])c(C([H])([H])[C@@]([H])(C(=O)N([H])[C@]([H])(C(=O)N([H])[C@]([H])(C(=O)N([H])[C@]([H])(C(=O)N([H])[C@]([H])(C(=O)N([H])[C@]([H])(C(=O)N([H])[C@]([H])(C(=O)OC([H])(C([H])([H])[H])C([H])([H])[H])C([H])([H])C([H])(C([H])([H])[H])C([H])([H])[H])C([H])([H])C([H])(C([H])([H])[H])C([H])([H])[H])C([H])([H])C([H])(C([H])([H])[H])C([H])([H])[H])C([H])([H])C([H])(C([H])([H])[H])C([H])([H])[H])C([H])([H])C([H])(C([H])([H])[H])C([H])([H])[H])C([H])([H])C([H])(C([H])([H])[H])C([H])([H])[H])N([H])C(=O)OC(C([H])([H])[H])(C([H])([H])[H])C([H])([H])[H])c([H])c1[H]
     RDKit          3D

161161  0  0  0  0  0  0  0  0999 V2000
   -3.6697   -5.6218    1.9841 C   0  0  0  0  0  0  0  0  0  0  0  0
   -4.0783   -4.1674    1.6281 C   0  0  0  0  0  0  0  0  0  0  0  0
   -5.3213   -4.3030    0.7845 C   0  0  0  0  0  0  0  0  0  0  0  0
   -2.9009   -3.5823    0.9618 C   0  0  0  0  0  0  0  0  0  0  0  0
   -2.9589   -2.1629    0.5164 C   0  0  2  0  0  0  0  0  0  0  0  0
   -4.0142   -1.9010   -0.4463 N   0  0  0  0  0  0  0  0  0  0  0  0
   -5.0483   -0.9760   -0.1884 C   0  0  0  0  0  0  0  0  0  0  0  0
   -4.9426   -0.4272    0.9957 O   0  0  0  0  0  0  0  0  0  0  0  0
   -6.1691   -0.5643   -1.0118 C   0  0  2  0  0  0  0  0  0  0  0  0
   -5.8265    0.3596   -2.1702 C   0  0  0  0  0  0  0  0  0  0  0  0
   -4.9180   -0.2296   -3.1688 C   0  0  0  0  0  0  0  0  0  0  0  0
   -4.6149    0.7782   -4.2785 C   0  0  0  0  0  0  0  0  0  0  0  0
   -5.5061   -1.4572   -3.8545 C   0  0  0  0  0  0  0  0  0  0  0  0
   -7.1199    0.2029   -0.1933 N   0  0  0  0  0  0  0  0  0  0  0  0
   -8.5046    0.0839   -0.3906 C   0  0  0  0  0  0  0  0  0  0  0  0
   -8.8786   -0.7138   -1.3265 O   0  0  0  0  0  0  0  0  0  0  0  0
   -9.5631    0.7574    0.3364 C   0  0  2  0  0  0  0  0  0  0  0  0
  -10.3030   -0.1582    1.3103 C   0  0  0  0  0  0  0  0  0  0  0  0
   -9.4797   -0.7523    2.3467 C   0  0  0  0  0  0  0  0  0  0  0  0
   -9.2440   -0.0954    3.5404 C   0  0  0  0  0  0  0  0  0  0  0  0
   -8.4727   -0.6919    4.5294 C   0  0  0  0  0  0  0  0  0  0  0  0
   -7.9308   -1.9433    4.3411 C   0  0  0  0  0  0  0  0  0  0  0  0
   -8.1616   -2.6007    3.1571 C   0  0  0  0  0  0  0  0  0  0  0  0
   -8.9256   -1.9933    2.1939 C   0  0  0  0  0  0  0  0  0  0  0  0
  -10.5954    1.1723   -0.6211 N   0  0  0  0  0  0  0  0  0  0  0  0
  -11.2540    2.3938   -0.4101 C   0  0  0  0  0  0  0  0  0  0  0  0
  -10.9507    3.0919    0.5995 O   0  0  0  0  0  0  0  0  0  0  0  0
  -12.2340    2.8863   -1.2608 O   0  0  0  0  0  0  0  0  0  0  0  0
  -12.8574    4.1076   -0.9560 C   0  0  0  0  0  0  0  0  0  0  0  0
  -13.8323    4.4259   -2.0853 C   0  0  0  0  0  0  0  0  0  0  0  0
  -11.9012    5.2016   -0.6568 C   0  0  0  0  0  0  0  0  0  0  0  0
  -13.7682    3.9187    0.2810 C   0  0  0  0  0  0  0  0  0  0  0  0
   -1.6082   -1.8560   -0.1347 C   0  0  0  0  0  0  0  0  0  0  0  0
   -1.6690   -1.5410   -1.3450 O   0  0  0  0  0  0  0  0  0  0  0  0
   -0.4435   -1.9422    0.6142 N   0  0  0  0  0  0  0  0  0  0  0  0
    0.8856   -1.7351    0.1895 C   0  0  1  0  0  0  0  0  0  0  0  0
    1.1603   -2.1073   -1.2702 C   0  0  0  0  0  0  0  0  0  0  0  0
    0.9182   -3.5550   -1.5141 C   0  0  0  0  0  0  0  0  0  0  0  0
    1.8221   -4.4357   -0.6583 C   0  0  0  0  0  0  0  0  0  0  0  0
    1.1172   -3.9296   -2.9610 C   0  0  0  0  0  0  0  0  0  0  0  0
    1.3692   -0.3780    0.4903 C   0  0  0  0  0  0  0  0  0  0  0  0
    0.5570    0.5692    0.4675 O   0  0  0  0  0  0  0  0  0  0  0  0
    2.7133   -0.1954    0.7915 N   0  0  0  0  0  0  0  0  0  0  0  0
    3.3256    1.0575    1.0936 C   0  0  1  0  0  0  0  0  0  0  0  0
    3.8439    1.0571    2.5214 C   0  0  0  0  0  0  0  0  0  0  0  0
    2.7579    0.8454    3.5504 C   0  0  0  0  0  0  0  0  0  0  0  0
    3.4667    0.8689    4.9122 C   0  0  0  0  0  0  0  0  0  0  0  0
    1.7602    1.9908    3.5282 C   0  0  0  0  0  0  0  0  0  0  0  0
    4.4763    1.2816    0.1699 C   0  0  0  0  0  0  0  0  0  0  0  0
    4.6450    0.3932   -0.7360 O   0  0  0  0  0  0  0  0  0  0  0  0
    5.3627    2.3586    0.2265 N   0  0  0  0  0  0  0  0  0  0  0  0
    6.4654    2.4140   -0.7686 C   0  0  1  0  0  0  0  0  0  0  0  0
    6.6927    3.8045   -1.2036 C   0  0  0  0  0  0  0  0  0  0  0  0
    7.7659    4.0621   -2.2092 C   0  0  0  0  0  0  0  0  0  0  0  0
    7.5742    3.3126   -3.5156 C   0  0  0  0  0  0  0  0  0  0  0  0
    9.1614    4.0167   -1.7051 C   0  0  0  0  0  0  0  0  0  0  0  0
    7.6383    1.7746   -0.0680 C   0  0  0  0  0  0  0  0  0  0  0  0
    7.7751    2.0483    1.1519 O   0  0  0  0  0  0  0  0  0  0  0  0
    8.5121    0.9179   -0.7437 N   0  0  0  0  0  0  0  0  0  0  0  0
    9.6244    0.3158    0.0606 C   0  0  1  0  0  0  0  0  0  0  0  0
    9.3365   -1.1336    0.1986 C   0  0  0  0  0  0  0  0  0  0  0  0
   10.2970   -1.9180    0.9812 C   0  0  0  0  0  0  0  0  0  0  0  0
   11.6994   -2.0088    0.5054 C   0  0  0  0  0  0  0  0  0  0  0  0
    9.8030   -3.3688    1.1702 C   0  0  0  0  0  0  0  0  0  0  0  0
   10.8639    0.6732   -0.6228 C   0  0  0  0  0  0  0  0  0  0  0  0
   10.9412    0.6290   -1.8694 O   0  0  0  0  0  0  0  0  0  0  0  0
   11.9719    1.0761    0.0941 O   0  0  0  0  0  0  0  0  0  0  0  0
   13.1595    1.4405   -0.5960 C   0  0  0  0  0  0  0  0  0  0  0  0
   14.3168    0.6816   -0.0498 C   0  0  0  0  0  0  0  0  0  0  0  0
   13.3885    2.9510   -0.3892 C   0  0  0  0  0  0  0  0  0  0  0  0
   -3.6049   -6.2160    1.0495 H   0  0  0  0  0  0  0  0  0  0  0  0
   -2.6357   -5.5348    2.3799 H   0  0  0  0  0  0  0  0  0  0  0  0
   -4.3770   -6.0442    2.7136 H   0  0  0  0  0  0  0  0  0  0  0  0
   -4.3555   -3.6574    2.5585 H   0  0  0  0  0  0  0  0  0  0  0  0
   -6.1189   -3.5918    1.0401 H   0  0  0  0  0  0  0  0  0  0  0  0
   -5.7733   -5.3099    1.0222 H   0  0  0  0  0  0  0  0  0  0  0  0
   -5.1281   -4.3455   -0.3038 H   0  0  0  0  0  0  0  0  0  0  0  0
   -2.7051   -4.2050    0.0327 H   0  0  0  0  0  0  0  0  0  0  0  0
   -2.0090   -3.7982    1.5985 H   0  0  0  0  0  0  0  0  0  0  0  0
   -3.0655   -1.4396    1.3289 H   0  0  0  0  0  0  0  0  0  0  0  0
   -4.0085   -2.4205   -1.3426 H   0  0  0  0  0  0  0  0  0  0  0  0
   -6.7290   -1.4452   -1.3825 H   0  0  0  0  0  0  0  0  0  0  0  0
   -5.3077    1.2349   -1.7100 H   0  0  0  0  0  0  0  0  0  0  0  0
   -6.7571    0.7696   -2.6046 H   0  0  0  0  0  0  0  0  0  0  0  0
   -3.9656   -0.5223   -2.7225 H   0  0  0  0  0  0  0  0  0  0  0  0
   -5.4394    1.4765   -4.4659 H   0  0  0  0  0  0  0  0  0  0  0  0
   -3.6612    1.3190   -4.0435 H   0  0  0  0  0  0  0  0  0  0  0  0
   -4.3793    0.1774   -5.1851 H   0  0  0  0  0  0  0  0  0  0  0  0
   -5.4959   -2.3437   -3.2037 H   0  0  0  0  0  0  0  0  0  0  0  0
   -4.8547   -1.6716   -4.7248 H   0  0  0  0  0  0  0  0  0  0  0  0
   -6.5080   -1.2297   -4.2892 H   0  0  0  0  0  0  0  0  0  0  0  0
   -6.7590    0.8408    0.5395 H   0  0  0  0  0  0  0  0  0  0  0  0
   -9.2380    1.6526    0.8771 H   0  0  0  0  0  0  0  0  0  0  0  0
  -11.1010    0.4993    1.7590 H   0  0  0  0  0  0  0  0  0  0  0  0
  -10.8718   -0.9059    0.6873 H   0  0  0  0  0  0  0  0  0  0  0  0
   -9.6399    0.8853    3.7472 H   0  0  0  0  0  0  0  0  0  0  0  0
   -8.2644   -0.2140    5.4773 H   0  0  0  0  0  0  0  0  0  0  0  0
   -7.3220   -2.4423    5.0908 H   0  0  0  0  0  0  0  0  0  0  0  0
   -7.7338   -3.6083    2.9884 H   0  0  0  0  0  0  0  0  0  0  0  0
   -9.0989   -2.5206    1.2693 H   0  0  0  0  0  0  0  0  0  0  0  0
  -10.8416    0.5700   -1.4516 H   0  0  0  0  0  0  0  0  0  0  0  0
  -14.1583    3.4986   -2.6015 H   0  0  0  0  0  0  0  0  0  0  0  0
  -13.3714    5.1013   -2.8392 H   0  0  0  0  0  0  0  0  0  0  0  0
  -14.7131    4.9514   -1.6789 H   0  0  0  0  0  0  0  0  0  0  0  0
  -10.8559    5.0142   -0.9384 H   0  0  0  0  0  0  0  0  0  0  0  0
  -11.8777    5.3607    0.4639 H   0  0  0  0  0  0  0  0  0  0  0  0
  -12.2747    6.1666   -1.0997 H   0  0  0  0  0  0  0  0  0  0  0  0
  -14.6204    4.6261    0.2050 H   0  0  0  0  0  0  0  0  0  0  0  0
  -13.2224    4.1584    1.2133 H   0  0  0  0  0  0  0  0  0  0  0  0
  -14.1054    2.8464    0.2570 H   0  0  0  0  0  0  0  0  0  0  0  0
   -0.5650   -2.1965    1.6515 H   0  0  0  0  0  0  0  0  0  0  0  0
    1.5950   -2.4608    0.7236 H   0  0  0  0  0  0  0  0  0  0  0  0
    0.6238   -1.4929   -1.9964 H   0  0  0  0  0  0  0  0  0  0  0  0
    2.2617   -1.9358   -1.4856 H   0  0  0  0  0  0  0  0  0  0  0  0
   -0.1020   -3.8366   -1.2401 H   0  0  0  0  0  0  0  0  0  0  0  0
    1.3615   -4.7518    0.2776 H   0  0  0  0  0  0  0  0  0  0  0  0
    2.0309   -5.3457   -1.2443 H   0  0  0  0  0  0  0  0  0  0  0  0
    2.7724   -3.9122   -0.4147 H   0  0  0  0  0  0  0  0  0  0  0  0
    0.1368   -3.9579   -3.5110 H   0  0  0  0  0  0  0  0  0  0  0  0
    1.8680   -3.3091   -3.4814 H   0  0  0  0  0  0  0  0  0  0  0  0
    1.4985   -4.9814   -2.9862 H   0  0  0  0  0  0  0  0  0  0  0  0
    3.3611   -1.0438    0.8000 H   0  0  0  0  0  0  0  0  0  0  0  0
    2.6048    1.8794    0.9289 H   0  0  0  0  0  0  0  0  0  0  0  0
    4.4000    2.0023    2.7288 H   0  0  0  0  0  0  0  0  0  0  0  0
    4.5749    0.2384    2.6645 H   0  0  0  0  0  0  0  0  0  0  0  0
    2.2015   -0.0862    3.4073 H   0  0  0  0  0  0  0  0  0  0  0  0
    2.6892    1.0117    5.6854 H   0  0  0  0  0  0  0  0  0  0  0  0
    4.0133   -0.0778    5.0383 H   0  0  0  0  0  0  0  0  0  0  0  0
    4.1586    1.7414    4.8575 H   0  0  0  0  0  0  0  0  0  0  0  0
    0.7396    1.6366    3.1974 H   0  0  0  0  0  0  0  0  0  0  0  0
    1.6471    2.3678    4.5563 H   0  0  0  0  0  0  0  0  0  0  0  0
    2.1080    2.8075    2.8585 H   0  0  0  0  0  0  0  0  0  0  0  0
    5.2571    3.0977    0.9380 H   0  0  0  0  0  0  0  0  0  0  0  0
    6.1709    1.7679   -1.6057 H   0  0  0  0  0  0  0  0  0  0  0  0
    5.7569    4.2912   -1.5965 H   0  0  0  0  0  0  0  0  0  0  0  0
    6.9489    4.4677   -0.3127 H   0  0  0  0  0  0  0  0  0  0  0  0
    7.6052    5.1649   -2.5051 H   0  0  0  0  0  0  0  0  0  0  0  0
    8.0280    3.9207   -4.3312 H   0  0  0  0  0  0  0  0  0  0  0  0
    6.5061    3.2128   -3.7421 H   0  0  0  0  0  0  0  0  0  0  0  0
    8.0903    2.3303   -3.5089 H   0  0  0  0  0  0  0  0  0  0  0  0
    9.7215    4.9759   -1.8727 H   0  0  0  0  0  0  0  0  0  0  0  0
    9.7811    3.2328   -2.1770 H   0  0  0  0  0  0  0  0  0  0  0  0
    9.1636    3.8675   -0.6102 H   0  0  0  0  0  0  0  0  0  0  0  0
    8.4648    0.6564   -1.7407 H   0  0  0  0  0  0  0  0  0  0  0  0
    9.5729    0.7840    1.0725 H   0  0  0  0  0  0  0  0  0  0  0  0
    9.1585   -1.5742   -0.8289 H   0  0  0  0  0  0  0  0  0  0  0  0
    8.3136   -1.2013    0.6806 H   0  0  0  0  0  0  0  0  0  0  0  0
   10.3218   -1.5223    2.0476 H   0  0  0  0  0  0  0  0  0  0  0  0
   11.8875   -1.7424   -0.5421 H   0  0  0  0  0  0  0  0  0  0  0  0
   12.0766   -3.0921    0.5642 H   0  0  0  0  0  0  0  0  0  0  0  0
   12.4075   -1.4933    1.2225 H   0  0  0  0  0  0  0  0  0  0  0  0
    8.8074   -3.3799    1.6449 H   0  0  0  0  0  0  0  0  0  0  0  0
   10.5210   -3.8391    1.8673 H   0  0  0  0  0  0  0  0  0  0  0  0
    9.8422   -3.9326    0.2221 H   0  0  0  0  0  0  0  0  0  0  0  0
   13.0840    1.3219   -1.6892 H   0  0  0  0  0  0  0  0  0  0  0  0
   14.2331   -0.3836   -0.4171 H   0  0  0  0  0  0  0  0  0  0  0  0
   15.2729    1.0974   -0.4358 H   0  0  0  0  0  0  0  0  0  0  0  0
   14.3122    0.6971    1.0712 H   0  0  0  0  0  0  0  0  0  0  0  0
   13.0177    3.1582    0.6457 H   0  0  0  0  0  0  0  0  0  0  0  0
   14.4482    3.1946   -0.5202 H   0  0  0  0  0  0  0  0  0  0  0  0
   12.6957    3.4687   -1.0673 H   0  0  0  0  0  0  0  0  0  0  0  0
  1  2  1  0
  2  3  1  0
  2  4  1  0
  4  5  1  0
  5  6  1  0
  6  7  1  0
  7  8  2  0
  7  9  1  0
  9 10  1  0
 10 11  1  0
 11 12  1  0
 11 13  1  0
  9 14  1  0
 14 15  1  0
 15 16  2  0
 15 17  1  0
 17 18  1  0
 18 19  1  0
 19 20  2  0
 20 21  1  0
 21 22  2  0
 22 23  1  0
 23 24  2  0
 17 25  1  0
 25 26  1  0
 26 27  2  0
 26 28  1  0
 28 29  1  0
 29 30  1  0
 29 31  1  0
 29 32  1  0
  5 33  1  0
 33 34  2  0
 33 35  1  0
 35 36  1  0
 36 37  1  0
 37 38  1  0
 38 39  1  0
 38 40  1  0
 36 41  1  0
 41 42  2  0
 41 43  1  0
 43 44  1  0
 44 45  1  0
 45 46  1  0
 46 47  1  0
 46 48  1  0
 44 49  1  0
 49 50  2  0
 49 51  1  0
 51 52  1  0
 52 53  1  0
 53 54  1  0
 54 55  1  0
 54 56  1  0
 52 57  1  0
 57 58  2  0
 57 59  1  0
 59 60  1  0
 60 61  1  0
 61 62  1  0
 62 63  1  0
 62 64  1  0
 60 65  1  0
 65 66  2  0
 65 67  1  0
 67 68  1  0
 68 69  1  0
 68 70  1  0
 24 19  1  0
  1 71  1  0
  1 72  1  0
  1 73  1  0
  2 74  1  0
  3 75  1  0
  3 76  1  0
  3 77  1  0
  4 78  1  0
  4 79  1  0
  5 80  1  1
  6 81  1  0
  9 82  1  6
 10 83  1  0
 10 84  1  0
 11 85  1  0
 12 86  1  0
 12 87  1  0
 12 88  1  0
 13 89  1  0
 13 90  1  0
 13 91  1  0
 14 92  1  0
 17 93  1  1
 18 94  1  0
 18 95  1  0
 20 96  1  0
 21 97  1  0
 22 98  1  0
 23 99  1  0
 24100  1  0
 25101  1  0
 30102  1  0
 30103  1  0
 30104  1  0
 31105  1  0
 31106  1  0
 31107  1  0
 32108  1  0
 32109  1  0
 32110  1  0
 35111  1  0
 36112  1  1
 37113  1  0
 37114  1  0
 38115  1  0
 39116  1  0
 39117  1  0
 39118  1  0
 40119  1  0
 40120  1  0
 40121  1  0
 43122  1  0
 44123  1  1
 45124  1  0
 45125  1  0
 46126  1  0
 47127  1  0
 47128  1  0
 47129  1  0
 48130  1  0
 48131  1  0
 48132  1  0
 51133  1  0
 52134  1  6
 53135  1  0
 53136  1  0
 54137  1  0
 55138  1  0
 55139  1  0
 55140  1  0
 56141  1  0
 56142  1  0
 56143  1  0
 59144  1  0
 60145  1  1
 61146  1  0
 61147  1  0
 62148  1  0
 63149  1  0
 63150  1  0
 63151  1  0
 64152  1  0
 64153  1  0
 64154  1  0
 68155  1  0
 69156  1  0
 69157  1  0
 69158  1  0
 70159  1  0
 70160  1  0
 70161  1  0
M  END
$$$$
[H]c1c([H])c([H])c(-c2c([H])c([H])c(C([H])([H])N3C(=O)n4c3nc(-c3c([H])c([H])c([H])c(C(F)(F)F)c3[H])c4C([H])([H])[H])c([H])c2[H])c([H])c1[H]
     RDKit          3D

 50 54  0  0  0  0  0  0  0  0999 V2000
    7.9889    1.6825   -0.5821 F   0  0  0  0  0  0  0  0  0  0  0  0
    7.4943    1.9904    0.6809 C   0  0  0  0  0  0  0  0  0  0  0  0
    8.4951    2.0341    1.6050 F   0  0  0  0  0  0  0  0  0  0  0  0
    6.9383    3.2416    0.5703 F   0  0  0  0  0  0  0  0  0  0  0  0
    6.4452    0.9938    1.0808 C   0  0  0  0  0  0  0  0  0  0  0  0
    6.6114    0.1932    2.1717 C   0  0  0  0  0  0  0  0  0  0  0  0
    5.6502   -0.7403    2.5175 C   0  0  0  0  0  0  0  0  0  0  0  0
    4.4874   -0.8885    1.7611 C   0  0  0  0  0  0  0  0  0  0  0  0
    4.3205   -0.0754    0.6554 C   0  0  0  0  0  0  0  0  0  0  0  0
    5.2961    0.8393    0.3449 C   0  0  0  0  0  0  0  0  0  0  0  0
    3.1133   -0.2408   -0.1775 C   0  0  0  0  0  0  0  0  0  0  0  0
    2.2458    0.6889   -0.6015 N   0  0  0  0  0  0  0  0  0  0  0  0
    1.2708    0.1422   -1.3767 C   0  0  0  0  0  0  0  0  0  0  0  0
    0.1214    0.0064   -2.1999 N   0  0  0  0  0  0  0  0  0  0  0  0
   -0.8697    0.9181   -2.7435 C   0  0  0  0  0  0  0  0  0  0  0  0
   -2.0699    0.8112   -1.8806 C   0  0  0  0  0  0  0  0  0  0  0  0
   -2.4019    1.6957   -0.8900 C   0  0  0  0  0  0  0  0  0  0  0  0
   -3.5529    1.5376   -0.1123 C   0  0  0  0  0  0  0  0  0  0  0  0
   -4.4055    0.4819   -0.3093 C   0  0  0  0  0  0  0  0  0  0  0  0
   -4.0685   -0.4151   -1.3145 C   0  0  0  0  0  0  0  0  0  0  0  0
   -2.9415   -0.2687   -2.0830 C   0  0  0  0  0  0  0  0  0  0  0  0
   -5.6127    0.2891    0.4887 C   0  0  0  0  0  0  0  0  0  0  0  0
   -6.3661    1.3117    1.0076 C   0  0  0  0  0  0  0  0  0  0  0  0
   -7.4905    1.0332    1.7535 C   0  0  0  0  0  0  0  0  0  0  0  0
   -7.8841   -0.2623    1.9963 C   0  0  0  0  0  0  0  0  0  0  0  0
   -7.1325   -1.2688    1.4786 C   0  0  0  0  0  0  0  0  0  0  0  0
   -5.9990   -1.0105    0.7258 C   0  0  0  0  0  0  0  0  0  0  0  0
    0.4141   -1.3828   -2.2603 C   0  0  0  0  0  0  0  0  0  0  0  0
   -0.1340   -2.3469   -2.8234 O   0  0  0  0  0  0  0  0  0  0  0  0
    1.5528   -1.1580   -1.4269 N   0  0  0  0  0  0  0  0  0  0  0  0
    2.6588   -1.4433   -0.7177 C   0  0  0  0  0  0  0  0  0  0  0  0
    3.3248   -2.7494   -0.5119 C   0  0  0  0  0  0  0  0  0  0  0  0
    7.5284    0.3182    2.7623 H   0  0  0  0  0  0  0  0  0  0  0  0
    5.8395   -1.3457    3.3967 H   0  0  0  0  0  0  0  0  0  0  0  0
    3.7388   -1.6190    2.0308 H   0  0  0  0  0  0  0  0  0  0  0  0
    5.1562    1.4656   -0.5164 H   0  0  0  0  0  0  0  0  0  0  0  0
   -0.5288    1.9742   -2.6799 H   0  0  0  0  0  0  0  0  0  0  0  0
   -1.0771    0.7477   -3.8162 H   0  0  0  0  0  0  0  0  0  0  0  0
   -1.7449    2.5416   -0.7134 H   0  0  0  0  0  0  0  0  0  0  0  0
   -3.7849    2.2683    0.6778 H   0  0  0  0  0  0  0  0  0  0  0  0
   -4.7235   -1.2499   -1.4874 H   0  0  0  0  0  0  0  0  0  0  0  0
   -2.6686   -0.9619   -2.8720 H   0  0  0  0  0  0  0  0  0  0  0  0
   -6.0798    2.3242    0.8279 H   0  0  0  0  0  0  0  0  0  0  0  0
   -8.0841    1.8330    2.1623 H   0  0  0  0  0  0  0  0  0  0  0  0
   -8.7646   -0.4788    2.5829 H   0  0  0  0  0  0  0  0  0  0  0  0
   -7.4001   -2.3052    1.6386 H   0  0  0  0  0  0  0  0  0  0  0  0
   -5.4094   -1.8336    0.3208 H   0  0  0  0  0  0  0  0  0  0  0  0
    2.9969   -3.2875    0.3978 H   0  0  0  0  0  0  0  0  0  0  0  0
    4.4389   -2.6526   -0.5334 H   0  0  0  0  0  0  0  0  0  0  0  0
    3.0670   -3.3785   -1.3913 H   0  0  0  0  0  0  0  0  0  0  0  0
  1  2  1  0
  2  3  1  0
  2  4  1  0
  2  5  1  0
  5  6  2  0
  6  7  1  0
  7  8  2  0
  8  9  1  0
  9 10  2  0
  9 11  1  0
 11 12  1  0
 12 13  2  0
 13 14  1  0
 14 15  1  0
 15 16  1  0
 16 17  2  0
 17 18  1  0
 18 19  2  0
 19 20  1  0
 20 21  2  0
 19 22  1  0
 22 23  2  0
 23 24  1  0
 24 25  2  0
 25 26  1  0
 26 27  2  0
 14 28  1  0
 28 29  2  0
 28 30  1  0
 30 31  1  0
 31 32  1  0
 10  5  1  0
 31 11  2  0
 30 13  1  0
 21 16  1  0
 27 22  1  0
  6 33  1  0
  7 34  1  0
  8 35  1  0
 10 36  1  0
 15 37  1  0
 15 38  1  0
 17 39  1  0
 18 40  1  0
 20 41  1  0
 21 42  1  0
 23 43  1  0
 24 44  1  0
 25 45  1  0
 26 46  1  0
 27 47  1  0
 32 48  1  0
 32 49  1  0
 32 50  1  0
M  END
$$$$
[H]c1nc(N([H])c2c([H])c([H])c(N3C([H])([H])C([H])([H])N(C([H])([H])[H])C([H])([H])C3([H])[H])c([H])c2[H])nc(C2([H])C([H])([H])C2([H])[H])c1C(=O)N([H])[H]
     RDKit          3D

 50 53  0  0  0  0  0  0  0  0999 V2000
    6.7403    0.0431   -0.0230 C   0  0  0  0  0  0  0  0  0  0  0  0
    6.0125   -1.1422    0.3971 N   0  0  0  0  0  0  0  0  0  0  0  0
    5.6145   -1.0986    1.7593 C   0  0  0  0  0  0  0  0  0  0  0  0
    4.1941   -0.7179    2.0138 C   0  0  0  0  0  0  0  0  0  0  0  0
    3.3275   -0.8478    0.8948 N   0  0  0  0  0  0  0  0  0  0  0  0
    3.6806   -1.8313   -0.0995 C   0  0  0  0  0  0  0  0  0  0  0  0
    5.0649   -1.4984   -0.5688 C   0  0  0  0  0  0  0  0  0  0  0  0
    2.1539   -0.0621    0.6824 C   0  0  0  0  0  0  0  0  0  0  0  0
    2.0398    1.2132    1.1844 C   0  0  0  0  0  0  0  0  0  0  0  0
    0.9025    1.9575    0.9915 C   0  0  0  0  0  0  0  0  0  0  0  0
   -0.1803    1.4441    0.2770 C   0  0  0  0  0  0  0  0  0  0  0  0
   -1.3005    2.2671    0.1032 N   0  0  0  0  0  0  0  0  0  0  0  0
   -2.6058    1.8869   -0.3193 C   0  0  0  0  0  0  0  0  0  0  0  0
   -3.5704    2.8572   -0.4372 N   0  0  0  0  0  0  0  0  0  0  0  0
   -4.8227    2.5855   -0.8162 C   0  0  0  0  0  0  0  0  0  0  0  0
   -5.2148    1.2875   -1.1138 C   0  0  0  0  0  0  0  0  0  0  0  0
   -6.5899    1.0572   -1.5121 C   0  0  0  0  0  0  0  0  0  0  0  0
   -7.5299    2.1016   -1.6138 N   0  0  0  0  0  0  0  0  0  0  0  0
   -6.9593   -0.1071   -1.7754 O   0  0  0  0  0  0  0  0  0  0  0  0
   -4.2592    0.3176   -0.9987 C   0  0  0  0  0  0  0  0  0  0  0  0
   -3.0198    0.6601   -0.6125 N   0  0  0  0  0  0  0  0  0  0  0  0
   -4.5773   -1.0769   -1.3048 C   0  0  0  0  0  0  0  0  0  0  0  0
   -3.4648   -2.0764   -0.9336 C   0  0  0  0  0  0  0  0  0  0  0  0
   -4.9008   -2.1002   -0.3174 C   0  0  0  0  0  0  0  0  0  0  0  0
   -0.0294    0.1703   -0.2079 C   0  0  0  0  0  0  0  0  0  0  0  0
    1.1205   -0.5957   -0.0180 C   0  0  0  0  0  0  0  0  0  0  0  0
    5.9875    0.8561   -0.1263 H   0  0  0  0  0  0  0  0  0  0  0  0
    7.4824    0.2915    0.7532 H   0  0  0  0  0  0  0  0  0  0  0  0
    7.2907   -0.1355   -0.9649 H   0  0  0  0  0  0  0  0  0  0  0  0
    6.2645   -0.3624    2.2843 H   0  0  0  0  0  0  0  0  0  0  0  0
    5.8442   -2.0816    2.2184 H   0  0  0  0  0  0  0  0  0  0  0  0
    3.7864   -1.4075    2.8143 H   0  0  0  0  0  0  0  0  0  0  0  0
    4.1157    0.2881    2.4585 H   0  0  0  0  0  0  0  0  0  0  0  0
    3.6284   -2.8365    0.3647 H   0  0  0  0  0  0  0  0  0  0  0  0
    3.0293   -1.8365   -0.9934 H   0  0  0  0  0  0  0  0  0  0  0  0
    4.9520   -0.7116   -1.3679 H   0  0  0  0  0  0  0  0  0  0  0  0
    5.4310   -2.3988   -1.1282 H   0  0  0  0  0  0  0  0  0  0  0  0
    2.8709    1.6609    1.7518 H   0  0  0  0  0  0  0  0  0  0  0  0
    0.8411    2.9793    1.4092 H   0  0  0  0  0  0  0  0  0  0  0  0
   -1.1418    3.3140    0.3108 H   0  0  0  0  0  0  0  0  0  0  0  0
   -5.5758    3.3825   -0.9027 H   0  0  0  0  0  0  0  0  0  0  0  0
   -8.2314    2.2515   -0.8707 H   0  0  0  0  0  0  0  0  0  0  0  0
   -7.5160    2.7230   -2.4400 H   0  0  0  0  0  0  0  0  0  0  0  0
   -4.9024   -1.2382   -2.3604 H   0  0  0  0  0  0  0  0  0  0  0  0
   -2.6655   -1.7295   -0.2560 H   0  0  0  0  0  0  0  0  0  0  0  0
   -3.2292   -2.8984   -1.6065 H   0  0  0  0  0  0  0  0  0  0  0  0
   -5.5319   -2.9536   -0.6746 H   0  0  0  0  0  0  0  0  0  0  0  0
   -4.9200   -1.9416    0.7593 H   0  0  0  0  0  0  0  0  0  0  0  0
   -0.8123   -0.3019   -0.7810 H   0  0  0  0  0  0  0  0  0  0  0  0
    1.1759   -1.6077   -0.4199 H   0  0  0  0  0  0  0  0  0  0  0  0
  1  2  1  0
  2  3  1  0
  3  4  1  0
  4  5  1  0
  5  6  1  0
  6  7  1  0
  5  8  1  0
  8  9  2  0
  9 10  1  0
 10 11  2  0
 11 12  1  0
 12 13  1  0
 13 14  2  0
 14 15  1  0
 15 16  2  0
 16 17  1  0
 17 18  1  0
 17 19  2  0
 16 20  1  0
 20 21  2  0
 20 22  1  0
 22 23  1  0
 23 24  1  0
 11 25  1  0
 25 26  2  0
  7  2  1  0
 26  8  1  0
 21 13  1  0
 24 22  1  0
  1 27  1  0
  1 28  1  0
  1 29  1  0
  3 30  1  0
  3 31  1  0
  4 32  1  0
  4 33  1  0
  6 34  1  0
  6 35  1  0
  7 36  1  0
  7 37  1  0
  9 38  1  0
 10 39  1  0
 12 40  1  0
 15 41  1  0
 18 42  1  0
 18 43  1  0
 22 44  1  0
 23 45  1  0
 23 46  1  0
 24 47  1  0
 24 48  1  0
 25 49  1  0
 26 50  1  0
M  END
$$$$
[H]/C(=C1/C(=O)N([H])c2c([H])c(S(=O)(=O)N3C([H])([H])C([H])([H])OC([H])([H])C3([H])[H])c([H])c([H])c21)c1c([H])c([H])c(N2C([H])([H])C([H])([H])N(C([H])([H])[H])C([H])([H])C2([H])[H])c([H])c1[H]
     RDKit          3D

 61 65  0  0  0  0  0  0  0  0999 V2000
   -9.5854    0.3700    0.3683 C   0  0  0  0  0  0  0  0  0  0  0  0
   -8.3528    0.5919   -0.3669 N   0  0  0  0  0  0  0  0  0  0  0  0
   -7.4341    1.4319    0.3349 C   0  0  0  0  0  0  0  0  0  0  0  0
   -6.0746    1.3611   -0.3329 C   0  0  0  0  0  0  0  0  0  0  0  0
   -5.5721    0.0245   -0.1949 N   0  0  0  0  0  0  0  0  0  0  0  0
   -6.5447   -1.0404   -0.0746 C   0  0  0  0  0  0  0  0  0  0  0  0
   -7.7839   -0.6330   -0.8461 C   0  0  0  0  0  0  0  0  0  0  0  0
   -4.1724   -0.2066   -0.1886 C   0  0  0  0  0  0  0  0  0  0  0  0
   -3.2713    0.7723   -0.4760 C   0  0  0  0  0  0  0  0  0  0  0  0
   -1.9074    0.5407   -0.4595 C   0  0  0  0  0  0  0  0  0  0  0  0
   -1.4382   -0.6894   -0.1501 C   0  0  0  0  0  0  0  0  0  0  0  0
   -0.0418   -1.0285   -0.0860 C   0  0  0  0  0  0  0  0  0  0  0  0
    0.8129   -0.4704    0.7270 C   0  0  0  0  0  0  0  0  0  0  0  0
    0.5937    0.5617    1.7173 C   0  0  0  0  0  0  0  0  0  0  0  0
   -0.4851    1.1062    2.0077 O   0  0  0  0  0  0  0  0  0  0  0  0
    1.8826    0.8391    2.3138 N   0  0  0  0  0  0  0  0  0  0  0  0
    2.8441   -0.0002    1.7028 C   0  0  0  0  0  0  0  0  0  0  0  0
    4.2215   -0.1383    1.9027 C   0  0  0  0  0  0  0  0  0  0  0  0
    4.9651   -1.0335    1.1817 C   0  0  0  0  0  0  0  0  0  0  0  0
    4.3386   -1.8165    0.2365 C   0  0  0  0  0  0  0  0  0  0  0  0
    3.0073   -1.6982    0.0280 C   0  0  0  0  0  0  0  0  0  0  0  0
    2.2600   -0.7952    0.7559 C   0  0  0  0  0  0  0  0  0  0  0  0
    6.6906   -1.2138    1.4270 S   0  0  0  0  0  0  0  0  0  0  0  0
    7.0121   -0.9965    2.8639 O   0  0  0  0  0  0  0  0  0  0  0  0
    7.1128   -2.6196    1.0378 O   0  0  0  0  0  0  0  0  0  0  0  0
    7.5026   -0.1295    0.3872 N   0  0  0  0  0  0  0  0  0  0  0  0
    7.2316   -0.4101   -0.9881 C   0  0  0  0  0  0  0  0  0  0  0  0
    7.7865    0.6733   -1.8902 C   0  0  0  0  0  0  0  0  0  0  0  0
    7.4359    1.9353   -1.4815 O   0  0  0  0  0  0  0  0  0  0  0  0
    7.8832    2.2165   -0.1967 C   0  0  0  0  0  0  0  0  0  0  0  0
    7.2319    1.2511    0.7383 C   0  0  0  0  0  0  0  0  0  0  0  0
   -2.3552   -1.6977    0.1450 C   0  0  0  0  0  0  0  0  0  0  0  0
   -3.7081   -1.4703    0.1290 C   0  0  0  0  0  0  0  0  0  0  0  0
   -9.3947    0.4778    1.4678 H   0  0  0  0  0  0  0  0  0  0  0  0
   -9.9461   -0.6788    0.1526 H   0  0  0  0  0  0  0  0  0  0  0  0
  -10.3368    1.1311    0.0994 H   0  0  0  0  0  0  0  0  0  0  0  0
   -7.7842    2.4879    0.2054 H   0  0  0  0  0  0  0  0  0  0  0  0
   -7.3912    1.2081    1.4066 H   0  0  0  0  0  0  0  0  0  0  0  0
   -6.2285    1.5831   -1.3953 H   0  0  0  0  0  0  0  0  0  0  0  0
   -5.3984    2.1221    0.1325 H   0  0  0  0  0  0  0  0  0  0  0  0
   -6.7622   -1.3348    0.9558 H   0  0  0  0  0  0  0  0  0  0  0  0
   -6.1392   -1.9298   -0.6133 H   0  0  0  0  0  0  0  0  0  0  0  0
   -8.5021   -1.4717   -0.8968 H   0  0  0  0  0  0  0  0  0  0  0  0
   -7.4420   -0.4404   -1.9033 H   0  0  0  0  0  0  0  0  0  0  0  0
   -3.6210    1.7632   -0.7287 H   0  0  0  0  0  0  0  0  0  0  0  0
   -1.2364    1.3482   -0.7081 H   0  0  0  0  0  0  0  0  0  0  0  0
    0.3415   -1.8131   -0.7669 H   0  0  0  0  0  0  0  0  0  0  0  0
    2.0104    1.5464    3.0595 H   0  0  0  0  0  0  0  0  0  0  0  0
    4.6839    0.4888    2.6499 H   0  0  0  0  0  0  0  0  0  0  0  0
    4.9008   -2.5443   -0.3601 H   0  0  0  0  0  0  0  0  0  0  0  0
    2.5053   -2.3013   -0.7048 H   0  0  0  0  0  0  0  0  0  0  0  0
    7.5745   -1.4030   -1.3152 H   0  0  0  0  0  0  0  0  0  0  0  0
    6.1268   -0.3871   -1.1390 H   0  0  0  0  0  0  0  0  0  0  0  0
    7.4428    0.5514   -2.9358 H   0  0  0  0  0  0  0  0  0  0  0  0
    8.8904    0.5918   -1.8836 H   0  0  0  0  0  0  0  0  0  0  0  0
    8.9676    2.2794   -0.0979 H   0  0  0  0  0  0  0  0  0  0  0  0
    7.4781    3.2366    0.0492 H   0  0  0  0  0  0  0  0  0  0  0  0
    7.4368    1.4540    1.8064 H   0  0  0  0  0  0  0  0  0  0  0  0
    6.1166    1.3767    0.6116 H   0  0  0  0  0  0  0  0  0  0  0  0
   -1.9801   -2.6763    0.3907 H   0  0  0  0  0  0  0  0  0  0  0  0
   -4.3987   -2.2535    0.3595 H   0  0  0  0  0  0  0  0  0  0  0  0
  1  2  1  0
  2  3  1  0
  3  4  1  0
  4  5  1  0
  5  6  1  0
  6  7  1  0
  5  8  1  0
  8  9  2  0
  9 10  1  0
 10 11  2  0
 11 12  1  0
 12 13  2  0
 13 14  1  0
 14 15  2  0
 14 16  1  0
 16 17  1  0
 17 18  2  0
 18 19  1  0
 19 20  2  0
 20 21  1  0
 21 22  2  0
 19 23  1  0
 23 24  2  0
 23 25  2  0
 23 26  1  0
 26 27  1  0
 27 28  1  0
 28 29  1  0
 29 30  1  0
 30 31  1  0
 11 32  1  0
 32 33  2  0
  7  2  1  0
 33  8  1  0
 22 13  1  0
 31 26  1  0
 22 17  1  0
  1 34  1  0
  1 35  1  0
  1 36  1  0
  3 37  1  0
  3 38  1  0
  4 39  1  0
  4 40  1  0
  6 41  1  0
  6 42  1  0
  7 43  1  0
  7 44  1  0
  9 45  1  0
 10 46  1  0
 12 47  1  0
 16 48  1  0
 18 49  1  0
 20 50  1  0
 21 51  1  0
 27 52  1  0
 27 53  1  0
 28 54  1  0
 28 55  1  0
 30 56  1  0
 30 57  1  0
 31 58  1  0
 31 59  1  0
 32 60  1  0
 33 61  1  0
M  END
$$$$
[H]c1c([H])c(C(F)(F)F)c([H])c([C@]2([H])C([H])([H])[C@@]3([H])N(S(=O)(=O)c4c([H])c([H])c(OC([H])([H])[H])c([H])c4[H])C([H])([H])[C@@]23[H])c1[H]
     RDKit          3D

 45 48  0  0  0  0  0  0  0  0999 V2000
   -8.1418   -0.6771    0.1850 C   0  0  0  0  0  0  0  0  0  0  0  0
   -7.2907    0.4248   -0.1072 O   0  0  0  0  0  0  0  0  0  0  0  0
   -5.9207    0.2377    0.1720 C   0  0  0  0  0  0  0  0  0  0  0  0
   -5.4184   -0.9207    0.6898 C   0  0  0  0  0  0  0  0  0  0  0  0
   -4.0586   -1.0483    0.9250 C   0  0  0  0  0  0  0  0  0  0  0  0
   -3.1670   -0.0436    0.6613 C   0  0  0  0  0  0  0  0  0  0  0  0
   -3.6916    1.1125    0.1505 C   0  0  0  0  0  0  0  0  0  0  0  0
   -5.0384    1.2590   -0.0991 C   0  0  0  0  0  0  0  0  0  0  0  0
   -1.4864   -0.3640    0.9378 S   0  0  0  0  0  0  0  0  0  0  0  0
   -1.1459    0.2746    2.2797 O   0  0  0  0  0  0  0  0  0  0  0  0
   -1.3638   -1.8545    1.2650 O   0  0  0  0  0  0  0  0  0  0  0  0
   -0.4680   -0.0620   -0.3115 N   0  0  0  0  0  0  0  0  0  0  0  0
   -0.1854    1.1789   -0.8971 C   0  0  0  0  0  0  0  0  0  0  0  0
    1.1463    0.6228   -1.3434 C   0  0  1  0  0  0  0  0  0  0  0  0
    2.3416    1.0811   -0.6666 C   0  0  1  0  0  0  0  0  0  0  0  0
    1.7080    0.5351    0.6666 C   0  0  0  0  0  0  0  0  0  0  0  0
    0.8945   -0.3699   -0.2277 C   0  0  1  0  0  0  0  0  0  0  0  0
    3.6022    0.2903   -0.8591 C   0  0  0  0  0  0  0  0  0  0  0  0
    3.6757   -0.8530   -1.6142 C   0  0  0  0  0  0  0  0  0  0  0  0
    4.8598   -1.6145   -1.6467 C   0  0  0  0  0  0  0  0  0  0  0  0
    5.9671   -1.2343   -0.9240 C   0  0  0  0  0  0  0  0  0  0  0  0
    5.8610   -0.0831   -0.1808 C   0  0  0  0  0  0  0  0  0  0  0  0
    4.6951    0.6991   -0.1297 C   0  0  0  0  0  0  0  0  0  0  0  0
    7.0253    0.3544    0.6234 C   0  0  0  0  0  0  0  0  0  0  0  0
    8.1618    0.3460   -0.1390 F   0  0  0  0  0  0  0  0  0  0  0  0
    7.1544   -0.4851    1.6798 F   0  0  0  0  0  0  0  0  0  0  0  0
    6.8079    1.6561    1.1238 F   0  0  0  0  0  0  0  0  0  0  0  0
   -7.7676   -1.6265   -0.2577 H   0  0  0  0  0  0  0  0  0  0  0  0
   -8.2227   -0.8030    1.2862 H   0  0  0  0  0  0  0  0  0  0  0  0
   -9.1471   -0.4679   -0.2177 H   0  0  0  0  0  0  0  0  0  0  0  0
   -6.1299   -1.6990    0.9040 H   0  0  0  0  0  0  0  0  0  0  0  0
   -3.7460   -2.0086    1.3268 H   0  0  0  0  0  0  0  0  0  0  0  0
   -3.0051    1.9007   -0.0620 H   0  0  0  0  0  0  0  0  0  0  0  0
   -5.4336    2.1746   -0.5138 H   0  0  0  0  0  0  0  0  0  0  0  0
   -0.1201    2.0758   -0.2564 H   0  0  0  0  0  0  0  0  0  0  0  0
   -0.7437    1.4786   -1.8342 H   0  0  0  0  0  0  0  0  0  0  0  0
    1.1812    0.2408   -2.3725 H   0  0  0  0  0  0  0  0  0  0  0  0
    2.5714    2.1431   -0.5754 H   0  0  0  0  0  0  0  0  0  0  0  0
    1.2014    1.3673    1.1376 H   0  0  0  0  0  0  0  0  0  0  0  0
    2.4197   -0.0068    1.2852 H   0  0  0  0  0  0  0  0  0  0  0  0
    1.2588   -1.3738   -0.3565 H   0  0  0  0  0  0  0  0  0  0  0  0
    2.7904   -1.1272   -2.1579 H   0  0  0  0  0  0  0  0  0  0  0  0
    4.8776   -2.5045   -2.2623 H   0  0  0  0  0  0  0  0  0  0  0  0
    6.8533   -1.8269   -0.9415 H   0  0  0  0  0  0  0  0  0  0  0  0
    4.6378    1.6010    0.4571 H   0  0  0  0  0  0  0  0  0  0  0  0
  1  2  1  0
  2  3  1  0
  3  4  2  0
  4  5  1  0
  5  6  2  0
  6  7  1  0
  7  8  2  0
  6  9  1  0
  9 10  2  0
  9 11  2  0
  9 12  1  0
 12 13  1  0
 13 14  1  0
 14 15  1  0
 15 16  1  0
 16 17  1  0
 15 18  1  0
 18 19  2  0
 19 20  1  0
 20 21  2  0
 21 22  1  0
 22 23  2  0
 22 24  1  0
 24 25  1  0
 24 26  1  0
 24 27  1  0
  8  3  1  0
 17 12  1  0
 23 18  1  0
 17 14  1  0
  1 28  1  0
  1 29  1  0
  1 30  1  0
  4 31  1  0
  5 32  1  0
  7 33  1  0
  8 34  1  0
 13 35  1  0
 13 36  1  0
 14 37  1  6
 15 38  1  1
 16 39  1  0
 16 40  1  0
 17 41  1  6
 19 42  1  0
 20 43  1  0
 21 44  1  0
 23 45  1  0
M  END
$$$$
[H]c1c([H])c([H])c(C([H])([H])[C@@]([H])(C(=O)N([H])[C@]([H])(C(=O)N([H])[C@]([H])(C(=O)N([H])[C@]([H])(C(=O)N([H])[H])C([H])([H])c2c([H])c([H])c([H])c([H])c2[H])C([H])([H])c2c([H])c([H])c([H])c([H])c2[H])C([H])([H])C([H])(C([H])([H])[H])C([H])([H])[H])N([H])[H])c([H])c1[H]
     RDKit          3D

 83 85  0  0  0  0  0  0  0  0999 V2000
   -4.8387   -1.7766    0.7559 C   0  0  0  0  0  0  0  0  0  0  0  0
   -3.5605   -1.9493    1.4997 C   0  0  0  0  0  0  0  0  0  0  0  0
   -3.1603   -3.3944    1.4909 C   0  0  0  0  0  0  0  0  0  0  0  0
   -2.5081   -0.9418    1.3821 C   0  0  0  0  0  0  0  0  0  0  0  0
   -1.9332   -0.6142    0.0208 C   0  0  2  0  0  0  0  0  0  0  0  0
   -2.8920   -0.1249   -0.8817 N   0  0  0  0  0  0  0  0  0  0  0  0
   -3.1358    1.2970   -1.0801 C   0  0  0  0  0  0  0  0  0  0  0  0
   -2.4303    2.0734   -0.4004 O   0  0  0  0  0  0  0  0  0  0  0  0
   -4.1442    1.8477   -1.9859 C   0  0  1  0  0  0  0  0  0  0  0  0
   -4.3879    0.9750   -3.1239 N   0  0  0  0  0  0  0  0  0  0  0  0
   -5.4604    1.9426   -1.2202 C   0  0  0  0  0  0  0  0  0  0  0  0
   -5.3701    2.8365   -0.0375 C   0  0  0  0  0  0  0  0  0  0  0  0
   -4.9394    2.3887    1.1977 C   0  0  0  0  0  0  0  0  0  0  0  0
   -4.8699    3.2125    2.3156 C   0  0  0  0  0  0  0  0  0  0  0  0
   -5.2495    4.5232    2.1718 C   0  0  0  0  0  0  0  0  0  0  0  0
   -5.6787    4.9791    0.9622 C   0  0  0  0  0  0  0  0  0  0  0  0
   -5.7532    4.1896   -0.1455 C   0  0  0  0  0  0  0  0  0  0  0  0
   -1.1354   -1.8294   -0.4645 C   0  0  0  0  0  0  0  0  0  0  0  0
   -1.8155   -2.5842   -1.1772 O   0  0  0  0  0  0  0  0  0  0  0  0
    0.1724   -1.9833   -0.0875 N   0  0  0  0  0  0  0  0  0  0  0  0
    1.4854   -2.1385    0.2906 C   0  0  1  0  0  0  0  0  0  0  0  0
    2.4863   -2.4960   -0.7807 C   0  0  0  0  0  0  0  0  0  0  0  0
    2.1759   -3.8057   -1.4299 C   0  0  0  0  0  0  0  0  0  0  0  0
    2.5763   -4.9827   -0.8027 C   0  0  0  0  0  0  0  0  0  0  0  0
    2.3676   -6.2418   -1.3405 C   0  0  0  0  0  0  0  0  0  0  0  0
    1.7348   -6.3158   -2.5523 C   0  0  0  0  0  0  0  0  0  0  0  0
    1.3222   -5.1676   -3.2093 C   0  0  0  0  0  0  0  0  0  0  0  0
    1.5460   -3.9209   -2.6480 C   0  0  0  0  0  0  0  0  0  0  0  0
    2.0470   -0.9709    1.0933 C   0  0  0  0  0  0  0  0  0  0  0  0
    1.3488   -0.6815    2.0774 O   0  0  0  0  0  0  0  0  0  0  0  0
    3.2057   -0.3269    0.7198 N   0  0  0  0  0  0  0  0  0  0  0  0
    3.9860    0.7659    1.2679 C   0  0  1  0  0  0  0  0  0  0  0  0
    5.0315    1.0956    0.2770 C   0  0  0  0  0  0  0  0  0  0  0  0
    5.9946    2.1527    0.4887 C   0  0  0  0  0  0  0  0  0  0  0  0
    7.1276    2.0455    1.2764 C   0  0  0  0  0  0  0  0  0  0  0  0
    8.0887    3.0450    1.3720 C   0  0  0  0  0  0  0  0  0  0  0  0
    7.9140    4.2166    0.6379 C   0  0  0  0  0  0  0  0  0  0  0  0
    6.8268    4.3597   -0.1376 C   0  0  0  0  0  0  0  0  0  0  0  0
    5.8770    3.3652   -0.2256 C   0  0  0  0  0  0  0  0  0  0  0  0
    3.2746    1.8331    1.9364 C   0  0  0  0  0  0  0  0  0  0  0  0
    3.5501    3.2470    1.8821 N   0  0  0  0  0  0  0  0  0  0  0  0
    2.2631    1.6093    2.6935 O   0  0  0  0  0  0  0  0  0  0  0  0
   -5.2954   -0.7960    0.7471 H   0  0  0  0  0  0  0  0  0  0  0  0
   -4.8306   -2.2601   -0.2764 H   0  0  0  0  0  0  0  0  0  0  0  0
   -5.6156   -2.4158    1.2882 H   0  0  0  0  0  0  0  0  0  0  0  0
   -3.9138   -1.7902    2.6076 H   0  0  0  0  0  0  0  0  0  0  0  0
   -2.0712   -3.5915    1.4901 H   0  0  0  0  0  0  0  0  0  0  0  0
   -3.5640   -3.9472    2.3780 H   0  0  0  0  0  0  0  0  0  0  0  0
   -3.5702   -3.8445    0.5588 H   0  0  0  0  0  0  0  0  0  0  0  0
   -1.5997   -1.3384    1.9394 H   0  0  0  0  0  0  0  0  0  0  0  0
   -2.7596    0.0145    1.8923 H   0  0  0  0  0  0  0  0  0  0  0  0
   -1.1703    0.1618    0.2338 H   0  0  0  0  0  0  0  0  0  0  0  0
   -3.4719   -0.7519   -1.4568 H   0  0  0  0  0  0  0  0  0  0  0  0
   -3.8393    2.8167   -2.3474 H   0  0  0  0  0  0  0  0  0  0  0  0
   -3.5499    1.0385   -3.7633 H   0  0  0  0  0  0  0  0  0  0  0  0
   -4.6655    0.0122   -2.9130 H   0  0  0  0  0  0  0  0  0  0  0  0
   -5.7443    0.8990   -0.8740 H   0  0  0  0  0  0  0  0  0  0  0  0
   -6.2535    2.2763   -1.9119 H   0  0  0  0  0  0  0  0  0  0  0  0
   -4.6409    1.3615    1.2876 H   0  0  0  0  0  0  0  0  0  0  0  0
   -4.5111    2.7609    3.2341 H   0  0  0  0  0  0  0  0  0  0  0  0
   -5.1911    5.1723    3.0478 H   0  0  0  0  0  0  0  0  0  0  0  0
   -5.9940    6.0311    0.8761 H   0  0  0  0  0  0  0  0  0  0  0  0
   -6.1003    4.5152   -1.1170 H   0  0  0  0  0  0  0  0  0  0  0  0
    0.1677   -3.2740   -0.5536 H   0  0  0  0  0  0  0  0  0  0  0  0
    1.6127   -3.0236    1.0608 H   0  0  0  0  0  0  0  0  0  0  0  0
    2.4875   -1.7328   -1.5552 H   0  0  0  0  0  0  0  0  0  0  0  0
    3.4661   -2.6536   -0.2441 H   0  0  0  0  0  0  0  0  0  0  0  0
    3.0731   -4.8904    0.1483 H   0  0  0  0  0  0  0  0  0  0  0  0
    2.6925   -7.1588   -0.8532 H   0  0  0  0  0  0  0  0  0  0  0  0
    1.5531   -7.2756   -3.0001 H   0  0  0  0  0  0  0  0  0  0  0  0
    0.8002   -5.2964   -4.1757 H   0  0  0  0  0  0  0  0  0  0  0  0
    1.2003   -3.0621   -3.2026 H   0  0  0  0  0  0  0  0  0  0  0  0
    3.6338   -0.7529   -0.1996 H   0  0  0  0  0  0  0  0  0  0  0  0
    4.5295    0.2525    2.1786 H   0  0  0  0  0  0  0  0  0  0  0  0
    5.6021    0.1272   -0.0206 H   0  0  0  0  0  0  0  0  0  0  0  0
    4.5131    1.2983   -0.7380 H   0  0  0  0  0  0  0  0  0  0  0  0
    7.2742    1.1182    1.8556 H   0  0  0  0  0  0  0  0  0  0  0  0
    8.9821    2.9814    1.9698 H   0  0  0  0  0  0  0  0  0  0  0  0
    8.6627    5.0110    0.7058 H   0  0  0  0  0  0  0  0  0  0  0  0
    6.6958    5.2555   -0.7142 H   0  0  0  0  0  0  0  0  0  0  0  0
    4.9964    3.4593   -0.8435 H   0  0  0  0  0  0  0  0  0  0  0  0
    4.4162    3.6715    2.3084 H   0  0  0  0  0  0  0  0  0  0  0  0
    2.8539    3.8664    1.4129 H   0  0  0  0  0  0  0  0  0  0  0  0
  1  2  1  0
  2  3  1  0
  2  4  1  0
  4  5  1  0
  5  6  1  0
  6  7  1  0
  7  8  2  0
  7  9  1  0
  9 10  1  0
  9 11  1  0
 11 12  1  0
 12 13  2  0
 13 14  1  0
 14 15  2  0
 15 16  1  0
 16 17  2  0
  5 18  1  0
 18 19  2  0
 18 20  1  0
 20 21  1  0
 21 22  1  0
 22 23  1  0
 23 24  2  0
 24 25  1  0
 25 26  2  0
 26 27  1  0
 27 28  2  0
 21 29  1  0
 29 30  2  0
 29 31  1  0
 31 32  1  0
 32 33  1  0
 33 34  1  0
 34 35  2  0
 35 36  1  0
 36 37  2  0
 37 38  1  0
 38 39  2  0
 32 40  1  0
 40 41  1  0
 40 42  2  0
 17 12  1  0
 28 23  1  0
 39 34  1  0
  1 43  1  0
  1 44  1  0
  1 45  1  0
  2 46  1  0
  3 47  1  0
  3 48  1  0
  3 49  1  0
  4 50  1  0
  4 51  1  0
  5 52  1  1
  6 53  1  0
  9 54  1  6
 10 55  1  0
 10 56  1  0
 11 57  1  0
 11 58  1  0
 13 59  1  0
 14 60  1  0
 15 61  1  0
 16 62  1  0
 17 63  1  0
 20 64  1  0
 21 65  1  1
 22 66  1  0
 22 67  1  0
 24 68  1  0
 25 69  1  0
 26 70  1  0
 27 71  1  0
 28 72  1  0
 31 73  1  0
 32 74  1  1
 33 75  1  0
 33 76  1  0
 35 77  1  0
 36 78  1  0
 37 79  1  0
 38 80  1  0
 39 81  1  0
 41 82  1  0
 41 83  1  0
M  END
$$$$
[H]c1c([H])c(S(=O)(=O)N2C([H])([H])C([H])([H])N(C(=O)c3c([H])c(Cl)c(Cl)c(Cl)c3Cl)[C@]([H])(C([H])([H])[H])C2([H])[H])c(F)c([H])c1OC(F)(F)F
     RDKit          3D

 48 50  0  0  0  0  0  0  0  0999 V2000
   -0.9906    2.9143    0.1315 C   0  0  0  0  0  0  0  0  0  0  0  0
   -0.6793    1.4346    0.0685 C   0  0  2  0  0  0  0  0  0  0  0  0
    0.2622    1.1102   -1.0564 C   0  0  0  0  0  0  0  0  0  0  0  0
    0.3194   -0.2469   -1.4120 N   0  0  0  0  0  0  0  0  0  0  0  0
   -0.6439   -1.1211   -0.8344 C   0  0  0  0  0  0  0  0  0  0  0  0
   -1.9945   -0.4000   -0.9453 C   0  0  0  0  0  0  0  0  0  0  0  0
   -1.9211    0.6990   -0.0109 N   0  0  0  0  0  0  0  0  0  0  0  0
   -3.0495    1.0078    0.7780 C   0  0  0  0  0  0  0  0  0  0  0  0
   -2.9878    1.9579    1.5865 O   0  0  0  0  0  0  0  0  0  0  0  0
   -4.2648    0.2304    0.6496 C   0  0  0  0  0  0  0  0  0  0  0  0
   -4.5355   -0.9003    1.3958 C   0  0  0  0  0  0  0  0  0  0  0  0
   -5.7134   -1.6190    1.2428 C   0  0  0  0  0  0  0  0  0  0  0  0
   -6.0036   -3.0427    2.2138 Cl  0  0  0  0  0  0  0  0  0  0  0  0
   -6.6665   -1.2145    0.3213 C   0  0  0  0  0  0  0  0  0  0  0  0
   -8.1610   -2.1144    0.1174 Cl  0  0  0  0  0  0  0  0  0  0  0  0
   -6.3978   -0.0828   -0.4269 C   0  0  0  0  0  0  0  0  0  0  0  0
   -7.6021    0.4466   -1.6063 Cl  0  0  0  0  0  0  0  0  0  0  0  0
   -5.2281    0.6321   -0.2760 C   0  0  0  0  0  0  0  0  0  0  0  0
   -4.9059    2.0734   -1.2409 Cl  0  0  0  0  0  0  0  0  0  0  0  0
    1.7411   -0.8949   -1.9504 S   0  0  0  0  0  0  0  0  0  0  0  0
    1.5004   -2.3364   -2.3832 O   0  0  0  0  0  0  0  0  0  0  0  0
    2.1777   -0.1833   -3.2253 O   0  0  0  0  0  0  0  0  0  0  0  0
    3.0848   -0.8678   -0.8402 C   0  0  0  0  0  0  0  0  0  0  0  0
    2.9724   -0.3537    0.4332 C   0  0  0  0  0  0  0  0  0  0  0  0
    4.0445   -0.3350    1.3216 C   0  0  0  0  0  0  0  0  0  0  0  0
    5.2537   -0.8365    0.9400 C   0  0  0  0  0  0  0  0  0  0  0  0
    6.3832   -0.8592    1.7629 O   0  0  0  0  0  0  0  0  0  0  0  0
    7.2159    0.3070    1.6719 C   0  0  0  0  0  0  0  0  0  0  0  0
    6.4437    1.3802    2.0344 F   0  0  0  0  0  0  0  0  0  0  0  0
    8.3386    0.2069    2.4379 F   0  0  0  0  0  0  0  0  0  0  0  0
    7.5276    0.4287    0.3192 F   0  0  0  0  0  0  0  0  0  0  0  0
    5.3994   -1.3617   -0.3361 C   0  0  0  0  0  0  0  0  0  0  0  0
    4.3160   -1.3694   -1.2042 C   0  0  0  0  0  0  0  0  0  0  0  0
    4.4785   -1.8820   -2.4339 F   0  0  0  0  0  0  0  0  0  0  0  0
   -0.9698    3.3097    1.1624 H   0  0  0  0  0  0  0  0  0  0  0  0
   -1.9749    3.1648   -0.3127 H   0  0  0  0  0  0  0  0  0  0  0  0
   -0.2430    3.5118   -0.4504 H   0  0  0  0  0  0  0  0  0  0  0  0
   -0.1877    1.1592    1.0238 H   0  0  0  0  0  0  0  0  0  0  0  0
   -0.1278    1.6821   -1.9529 H   0  0  0  0  0  0  0  0  0  0  0  0
    1.2561    1.5603   -0.8680 H   0  0  0  0  0  0  0  0  0  0  0  0
   -0.4848   -1.2797    0.2568 H   0  0  0  0  0  0  0  0  0  0  0  0
   -0.6827   -2.0560   -1.3968 H   0  0  0  0  0  0  0  0  0  0  0  0
   -2.0766    0.0608   -1.9681 H   0  0  0  0  0  0  0  0  0  0  0  0
   -2.8170   -1.0945   -0.7324 H   0  0  0  0  0  0  0  0  0  0  0  0
   -3.7663   -1.1929    2.1122 H   0  0  0  0  0  0  0  0  0  0  0  0
    2.0490    0.0576    0.8070 H   0  0  0  0  0  0  0  0  0  0  0  0
    3.9553    0.0696    2.3226 H   0  0  0  0  0  0  0  0  0  0  0  0
    6.3567   -1.7607   -0.6430 H   0  0  0  0  0  0  0  0  0  0  0  0
  1  2  1  0
  2  3  1  0
  3  4  1  0
  4  5  1  0
  5  6  1  0
  6  7  1  0
  7  8  1  0
  8  9  2  0
  8 10  1  0
 10 11  2  0
 11 12  1  0
 12 13  1  0
 12 14  2  0
 14 15  1  0
 14 16  1  0
 16 17  1  0
 16 18  2  0
 18 19  1  0
  4 20  1  0
 20 21  2  0
 20 22  2  0
 20 23  1  0
 23 24  2  0
 24 25  1  0
 25 26  2  0
 26 27  1  0
 27 28  1  0
 28 29  1  0
 28 30  1  0
 28 31  1  0
 26 32  1  0
 32 33  2  0
 33 34  1  0
  7  2  1  0
 18 10  1  0
 33 23  1  0
  1 35  1  0
  1 36  1  0
  1 37  1  0
  2 38  1  1
  3 39  1  0
  3 40  1  0
  5 41  1  0
  5 42  1  0
  6 43  1  0
  6 44  1  0
 11 45  1  0
 24 46  1  0
 25 47  1  0
 32 48  1  0
M  END
$$$$
[H]N=C(N([H])[H])N([H])C([H])([H])C([H])([H])C([H])([H])[C@@]([H])(C(=O)N([H])[C@]([H])(C(=O)O[H])C([H])([H])c1c([H])c([H])c([H])c([H])c1[H])N([H])C(=O)[C@@]([H])(N([H])C(=O)[C@@]([H])(N([H])C(=O)OC([H])([H])c1c([H])c([H])c([H])c([H])c1[H])C([H])([H])c1c([H])c([H])c([H])c([H])c1[H])C([H])([H])[H]
     RDKit          3D

 92 94  0  0  0  0  0  0  0  0999 V2000
   -0.2759    2.1117   -1.3405 C   0  0  0  0  0  0  0  0  0  0  0  0
   -0.4859    0.6192   -1.0683 C   0  0  2  0  0  0  0  0  0  0  0  0
   -1.6219    0.4110   -0.2139 N   0  0  0  0  0  0  0  0  0  0  0  0
   -2.8945   -0.0270   -0.6097 C   0  0  0  0  0  0  0  0  0  0  0  0
   -3.0971   -0.2611   -1.8142 O   0  0  0  0  0  0  0  0  0  0  0  0
   -4.0228   -0.2229    0.3434 C   0  0  2  0  0  0  0  0  0  0  0  0
   -3.9714   -1.6200    0.9337 C   0  0  0  0  0  0  0  0  0  0  0  0
   -5.0966   -1.7977    1.8895 C   0  0  0  0  0  0  0  0  0  0  0  0
   -6.3426   -2.2569    1.5313 C   0  0  0  0  0  0  0  0  0  0  0  0
   -7.3670   -2.4254    2.4255 C   0  0  0  0  0  0  0  0  0  0  0  0
   -7.1828   -2.1306    3.7672 C   0  0  0  0  0  0  0  0  0  0  0  0
   -5.9302   -1.6623    4.1664 C   0  0  0  0  0  0  0  0  0  0  0  0
   -4.9219   -1.5036    3.2460 C   0  0  0  0  0  0  0  0  0  0  0  0
   -5.2414   -0.0966   -0.4085 N   0  0  0  0  0  0  0  0  0  0  0  0
   -6.1797    0.8890   -0.0215 C   0  0  0  0  0  0  0  0  0  0  0  0
   -5.9916    1.6541    0.9675 O   0  0  0  0  0  0  0  0  0  0  0  0
   -7.3609    1.0592   -0.7268 O   0  0  0  0  0  0  0  0  0  0  0  0
   -8.2905    2.0727   -0.3090 C   0  0  0  0  0  0  0  0  0  0  0  0
   -9.4218    2.0276   -1.2812 C   0  0  0  0  0  0  0  0  0  0  0  0
   -9.3980    2.7659   -2.4459 C   0  0  0  0  0  0  0  0  0  0  0  0
  -10.4673    2.6940   -3.2977 C   0  0  0  0  0  0  0  0  0  0  0  0
  -11.5861    1.9064   -3.0443 C   0  0  0  0  0  0  0  0  0  0  0  0
  -11.5748    1.1824   -1.8722 C   0  0  0  0  0  0  0  0  0  0  0  0
  -10.4967    1.2388   -0.9875 C   0  0  0  0  0  0  0  0  0  0  0  0
    0.7326    0.0311   -0.4643 C   0  0  0  0  0  0  0  0  0  0  0  0
    0.6104   -0.5288    0.6614 O   0  0  0  0  0  0  0  0  0  0  0  0
    1.9987    0.0875   -1.1144 N   0  0  0  0  0  0  0  0  0  0  0  0
    3.2298   -0.4320   -0.6195 C   0  0  1  0  0  0  0  0  0  0  0  0
    3.8113   -1.5446   -1.4705 C   0  0  0  0  0  0  0  0  0  0  0  0
    2.9020   -2.7319   -1.5852 C   0  0  0  0  0  0  0  0  0  0  0  0
    3.6362   -3.7590   -2.4534 C   0  0  0  0  0  0  0  0  0  0  0  0
    4.8594   -4.0644   -1.7516 N   0  0  0  0  0  0  0  0  0  0  0  0
    4.8746   -4.7594   -0.5252 C   0  0  0  0  0  0  0  0  0  0  0  0
    5.6160   -4.2643    0.6015 N   0  0  0  0  0  0  0  0  0  0  0  0
    4.2286   -5.8581   -0.3663 N   0  0  0  0  0  0  0  0  0  0  0  0
    4.2943    0.6045   -0.5319 C   0  0  0  0  0  0  0  0  0  0  0  0
    4.0912    1.7991   -0.8721 O   0  0  0  0  0  0  0  0  0  0  0  0
    5.5727    0.2234   -0.0501 N   0  0  0  0  0  0  0  0  0  0  0  0
    6.6569    1.2234    0.0433 C   0  0  1  0  0  0  0  0  0  0  0  0
    7.0106    1.3248    1.4825 C   0  0  0  0  0  0  0  0  0  0  0  0
    8.0746    2.2626    1.8263 C   0  0  0  0  0  0  0  0  0  0  0  0
    9.3943    1.8262    1.9171 C   0  0  0  0  0  0  0  0  0  0  0  0
   10.3949    2.7148    2.2412 C   0  0  0  0  0  0  0  0  0  0  0  0
   10.1320    4.0499    2.4847 C   0  0  0  0  0  0  0  0  0  0  0  0
    8.8375    4.5044    2.4016 C   0  0  0  0  0  0  0  0  0  0  0  0
    7.8383    3.6178    2.0779 C   0  0  0  0  0  0  0  0  0  0  0  0
    7.7166    0.7715   -0.8660 C   0  0  0  0  0  0  0  0  0  0  0  0
    8.8593    1.5398   -1.0161 O   0  0  0  0  0  0  0  0  0  0  0  0
    7.6166   -0.2857   -1.5116 O   0  0  0  0  0  0  0  0  0  0  0  0
    0.5816    2.1641   -2.0650 H   0  0  0  0  0  0  0  0  0  0  0  0
   -0.0292    2.6754   -0.4206 H   0  0  0  0  0  0  0  0  0  0  0  0
   -1.1663    2.4869   -1.8841 H   0  0  0  0  0  0  0  0  0  0  0  0
   -0.6328    0.1764   -2.0759 H   0  0  0  0  0  0  0  0  0  0  0  0
   -1.4933    0.6078    0.8055 H   0  0  0  0  0  0  0  0  0  0  0  0
   -3.9329    0.4878    1.1637 H   0  0  0  0  0  0  0  0  0  0  0  0
   -3.0428   -1.8376    1.4675 H   0  0  0  0  0  0  0  0  0  0  0  0
   -4.1821   -2.3431    0.0919 H   0  0  0  0  0  0  0  0  0  0  0  0
   -6.5270   -2.4964    0.4980 H   0  0  0  0  0  0  0  0  0  0  0  0
   -8.3390   -2.7887    2.1333 H   0  0  0  0  0  0  0  0  0  0  0  0
   -7.9851   -2.2593    4.4902 H   0  0  0  0  0  0  0  0  0  0  0  0
   -5.7643   -1.4244    5.2233 H   0  0  0  0  0  0  0  0  0  0  0  0
   -3.9705   -1.1412    3.6041 H   0  0  0  0  0  0  0  0  0  0  0  0
   -5.4368   -0.7048   -1.2129 H   0  0  0  0  0  0  0  0  0  0  0  0
   -8.6562    1.8786    0.7039 H   0  0  0  0  0  0  0  0  0  0  0  0
   -7.8420    3.0867   -0.3685 H   0  0  0  0  0  0  0  0  0  0  0  0
   -8.5222    3.3781   -2.6374 H   0  0  0  0  0  0  0  0  0  0  0  0
  -10.4493    3.2789   -4.2204 H   0  0  0  0  0  0  0  0  0  0  0  0
  -12.4329    1.8613   -3.7364 H   0  0  0  0  0  0  0  0  0  0  0  0
  -12.4362    0.5456   -1.6285 H   0  0  0  0  0  0  0  0  0  0  0  0
  -10.5591    0.6357   -0.0761 H   0  0  0  0  0  0  0  0  0  0  0  0
    2.0211    0.5672   -2.0562 H   0  0  0  0  0  0  0  0  0  0  0  0
    3.0870   -0.8375    0.4195 H   0  0  0  0  0  0  0  0  0  0  0  0
    4.0139   -1.1709   -2.5007 H   0  0  0  0  0  0  0  0  0  0  0  0
    4.7706   -1.8515   -1.0544 H   0  0  0  0  0  0  0  0  0  0  0  0
    1.9488   -2.5179   -2.0922 H   0  0  0  0  0  0  0  0  0  0  0  0
    2.7849   -3.2038   -0.5881 H   0  0  0  0  0  0  0  0  0  0  0  0
    3.8001   -3.3871   -3.4706 H   0  0  0  0  0  0  0  0  0  0  0  0
    2.9959   -4.6756   -2.3919 H   0  0  0  0  0  0  0  0  0  0  0  0
    5.7682   -3.7576   -2.1697 H   0  0  0  0  0  0  0  0  0  0  0  0
    6.6361   -4.0404    0.5420 H   0  0  0  0  0  0  0  0  0  0  0  0
    5.0840   -4.1416    1.4744 H   0  0  0  0  0  0  0  0  0  0  0  0
    3.6779   -6.2670   -1.1339 H   0  0  0  0  0  0  0  0  0  0  0  0
    5.8455   -0.7282    0.2609 H   0  0  0  0  0  0  0  0  0  0  0  0
    6.2476    2.2044   -0.3020 H   0  0  0  0  0  0  0  0  0  0  0  0
    6.0956    1.6598    2.0260 H   0  0  0  0  0  0  0  0  0  0  0  0
    7.2400    0.2955    1.8762 H   0  0  0  0  0  0  0  0  0  0  0  0
    9.6255    0.7675    1.7252 H   0  0  0  0  0  0  0  0  0  0  0  0
   11.4237    2.3630    2.3079 H   0  0  0  0  0  0  0  0  0  0  0  0
   10.9253    4.7316    2.7355 H   0  0  0  0  0  0  0  0  0  0  0  0
    8.5899    5.5504    2.5927 H   0  0  0  0  0  0  0  0  0  0  0  0
    6.7974    3.9400    2.0026 H   0  0  0  0  0  0  0  0  0  0  0  0
    9.6692    1.2509   -1.5494 H   0  0  0  0  0  0  0  0  0  0  0  0
  1  2  1  0
  2  3  1  0
  3  4  1  0
  4  5  2  0
  4  6  1  0
  6  7  1  0
  7  8  1  0
  8  9  2  0
  9 10  1  0
 10 11  2  0
 11 12  1  0
 12 13  2  0
  6 14  1  0
 14 15  1  0
 15 16  2  0
 15 17  1  0
 17 18  1  0
 18 19  1  0
 19 20  2  0
 20 21  1  0
 21 22  2  0
 22 23  1  0
 23 24  2  0
  2 25  1  0
 25 26  2  0
 25 27  1  0
 27 28  1  0
 28 29  1  0
 29 30  1  0
 30 31  1  0
 31 32  1  0
 32 33  1  0
 33 34  1  0
 33 35  2  3
 28 36  1  0
 36 37  2  0
 36 38  1  0
 38 39  1  0
 39 40  1  0
 40 41  1  0
 41 42  2  0
 42 43  1  0
 43 44  2  0
 44 45  1  0
 45 46  2  0
 39 47  1  0
 47 48  1  0
 47 49  2  0
 13  8  1  0
 24 19  1  0
 46 41  1  0
  1 50  1  0
  1 51  1  0
  1 52  1  0
  2 53  1  6
  3 54  1  0
  6 55  1  1
  7 56  1  0
  7 57  1  0
  9 58  1  0
 10 59  1  0
 11 60  1  0
 12 61  1  0
 13 62  1  0
 14 63  1  0
 18 64  1  0
 18 65  1  0
 20 66  1  0
 21 67  1  0
 22 68  1  0
 23 69  1  0
 24 70  1  0
 27 71  1  0
 28 72  1  1
 29 73  1  0
 29 74  1  0
 30 75  1  0
 30 76  1  0
 31 77  1  0
 31 78  1  0
 32 79  1  0
 34 80  1  0
 34 81  1  0
 35 82  1  0
 38 83  1  0
 39 84  1  6
 40 85  1  0
 40 86  1  0
 42 87  1  0
 43 88  1  0
 44 89  1  0
 45 90  1  0
 46 91  1  0
 48 92  1  0
M  END
$$$$
[H]c1nc2c(c([H])c1C(=O)N1C([H])([H])C([H])([H])N(S(=O)(=O)c3c([H])c([H])c(C(F)(F)F)c([H])c3[H])C([H])([H])C1([H])[H])c([H])c([H])n2[H]
     RDKit          3D

 47 50  0  0  0  0  0  0  0  0999 V2000
    8.3094    0.6453   -0.9856 F   0  0  0  0  0  0  0  0  0  0  0  0
    7.8018    0.6148    0.3075 C   0  0  0  0  0  0  0  0  0  0  0  0
    8.6144   -0.0635    1.1648 F   0  0  0  0  0  0  0  0  0  0  0  0
    7.6171    1.9369    0.6710 F   0  0  0  0  0  0  0  0  0  0  0  0
    6.4387    0.0083    0.2137 C   0  0  0  0  0  0  0  0  0  0  0  0
    5.7262    0.2581   -0.9457 C   0  0  0  0  0  0  0  0  0  0  0  0
    4.4552   -0.2511   -1.1406 C   0  0  0  0  0  0  0  0  0  0  0  0
    3.9040   -1.0231   -0.1389 C   0  0  0  0  0  0  0  0  0  0  0  0
    4.6189   -1.2690    1.0180 C   0  0  0  0  0  0  0  0  0  0  0  0
    5.8854   -0.7569    1.1973 C   0  0  0  0  0  0  0  0  0  0  0  0
    2.2835   -1.6675   -0.4176 S   0  0  0  0  0  0  0  0  0  0  0  0
    2.2545   -2.9894    0.3221 O   0  0  0  0  0  0  0  0  0  0  0  0
    2.2449   -1.9985   -1.9170 O   0  0  0  0  0  0  0  0  0  0  0  0
    1.1515   -0.5810    0.0511 N   0  0  0  0  0  0  0  0  0  0  0  0
    0.2902   -0.8545    1.0990 C   0  0  0  0  0  0  0  0  0  0  0  0
   -0.9815   -0.0251    1.0834 C   0  0  0  0  0  0  0  0  0  0  0  0
   -1.2450    0.6365   -0.1387 N   0  0  0  0  0  0  0  0  0  0  0  0
   -0.1382    1.2108   -0.9296 C   0  0  0  0  0  0  0  0  0  0  0  0
    1.1731    0.7294   -0.4319 C   0  0  0  0  0  0  0  0  0  0  0  0
   -2.5205    0.8870   -0.7163 C   0  0  0  0  0  0  0  0  0  0  0  0
   -2.4804    1.4279   -1.8940 O   0  0  0  0  0  0  0  0  0  0  0  0
   -3.8046    0.6340   -0.1970 C   0  0  0  0  0  0  0  0  0  0  0  0
   -4.0877    0.3880    1.1140 C   0  0  0  0  0  0  0  0  0  0  0  0
   -5.3677    0.0844    1.4871 N   0  0  0  0  0  0  0  0  0  0  0  0
   -6.3759    0.0167    0.6173 C   0  0  0  0  0  0  0  0  0  0  0  0
   -7.6983   -0.2565    0.7312 N   0  0  0  0  0  0  0  0  0  0  0  0
   -8.2868   -0.1950   -0.4779 C   0  0  0  0  0  0  0  0  0  0  0  0
   -7.3297    0.1266   -1.4084 C   0  0  0  0  0  0  0  0  0  0  0  0
   -6.1305    0.2599   -0.7219 C   0  0  0  0  0  0  0  0  0  0  0  0
   -4.8587    0.5660   -1.1311 C   0  0  0  0  0  0  0  0  0  0  0  0
    6.1543    0.8636   -1.7397 H   0  0  0  0  0  0  0  0  0  0  0  0
    3.9123   -0.0439   -2.0783 H   0  0  0  0  0  0  0  0  0  0  0  0
    4.1672   -1.8850    1.8082 H   0  0  0  0  0  0  0  0  0  0  0  0
    6.4343   -0.9461    2.1032 H   0  0  0  0  0  0  0  0  0  0  0  0
    0.0545   -1.9253    1.2714 H   0  0  0  0  0  0  0  0  0  0  0  0
    0.8086   -0.5397    2.0642 H   0  0  0  0  0  0  0  0  0  0  0  0
   -1.7962   -0.8320    1.1576 H   0  0  0  0  0  0  0  0  0  0  0  0
   -1.0808    0.6177    1.9596 H   0  0  0  0  0  0  0  0  0  0  0  0
   -0.1698    2.3284   -0.8284 H   0  0  0  0  0  0  0  0  0  0  0  0
   -0.2874    0.9095   -1.9903 H   0  0  0  0  0  0  0  0  0  0  0  0
    1.4209    1.3947    0.4649 H   0  0  0  0  0  0  0  0  0  0  0  0
    1.9358    0.9538   -1.2008 H   0  0  0  0  0  0  0  0  0  0  0  0
   -3.3909    0.4455    1.9310 H   0  0  0  0  0  0  0  0  0  0  0  0
   -8.1800   -0.4833    1.6510 H   0  0  0  0  0  0  0  0  0  0  0  0
   -9.3254   -0.3691   -0.6742 H   0  0  0  0  0  0  0  0  0  0  0  0
   -7.4206    0.2617   -2.4697 H   0  0  0  0  0  0  0  0  0  0  0  0
   -4.7000    0.7504   -2.1896 H   0  0  0  0  0  0  0  0  0  0  0  0
  1  2  1  0
  2  3  1  0
  2  4  1  0
  2  5  1  0
  5  6  2  0
  6  7  1  0
  7  8  2  0
  8  9  1  0
  9 10  2  0
  8 11  1  0
 11 12  2  0
 11 13  2  0
 11 14  1  0
 14 15  1  0
 15 16  1  0
 16 17  1  0
 17 18  1  0
 18 19  1  0
 17 20  1  0
 20 21  2  0
 20 22  1  0
 22 23  2  0
 23 24  1  0
 24 25  2  0
 25 26  1  0
 26 27  1  0
 27 28  2  0
 28 29  1  0
 29 30  2  0
 10  5  1  0
 19 14  1  0
 30 22  1  0
 29 25  1  0
  6 31  1  0
  7 32  1  0
  9 33  1  0
 10 34  1  0
 15 35  1  0
 15 36  1  0
 16 37  1  0
 16 38  1  0
 18 39  1  0
 18 40  1  0
 19 41  1  0
 19 42  1  0
 23 43  1  0
 26 44  1  0
 27 45  1  0
 28 46  1  0
 30 47  1  0
M  END
$$$$
[H]c1c([H])c(N([H])S(=O)(=O)c2c([H])c([H])c(N([H])S(=O)(=O)c3c([H])c([H])c(N4C([H])([H])C([H])([H])N(C([H])([H])[H])C([H])([H])C4([H])[H])c([H])c3[H])c([H])c2[H])c([H])c([H])c1C#N
     RDKit          3D

 60 63  0  0  0  0  0  0  0  0999 V2000
   -8.2696   -2.1818    0.6087 C   0  0  0  0  0  0  0  0  0  0  0  0
   -7.2621   -1.1796    0.7778 N   0  0  0  0  0  0  0  0  0  0  0  0
   -6.1557   -1.6951    1.5169 C   0  0  0  0  0  0  0  0  0  0  0  0
   -4.8146   -1.5243    0.8288 C   0  0  0  0  0  0  0  0  0  0  0  0
   -4.6576   -0.1583    0.4516 N   0  0  0  0  0  0  0  0  0  0  0  0
   -5.8108    0.4495   -0.2462 C   0  0  0  0  0  0  0  0  0  0  0  0
   -6.8742   -0.5712   -0.4765 C   0  0  0  0  0  0  0  0  0  0  0  0
   -3.5026    0.5832    0.7032 C   0  0  0  0  0  0  0  0  0  0  0  0
   -2.3669    0.0599    1.2315 C   0  0  0  0  0  0  0  0  0  0  0  0
   -1.2428    0.8646    1.4644 C   0  0  0  0  0  0  0  0  0  0  0  0
   -1.2345    2.2096    1.1725 C   0  0  0  0  0  0  0  0  0  0  0  0
   -2.3897    2.7359    0.6360 C   0  0  0  0  0  0  0  0  0  0  0  0
   -3.5009    1.9509    0.4035 C   0  0  0  0  0  0  0  0  0  0  0  0
    0.1672    3.2175    1.4659 S   0  0  0  0  0  0  0  0  0  0  0  0
   -0.2990    4.6250    1.7099 O   0  0  0  0  0  0  0  0  0  0  0  0
    0.8896    2.7873    2.7167 O   0  0  0  0  0  0  0  0  0  0  0  0
    1.1932    3.2229    0.0828 N   0  0  0  0  0  0  0  0  0  0  0  0
    1.7991    2.0278   -0.4074 C   0  0  0  0  0  0  0  0  0  0  0  0
    1.7954    1.7597   -1.7783 C   0  0  0  0  0  0  0  0  0  0  0  0
    2.3784    0.6078   -2.2827 C   0  0  0  0  0  0  0  0  0  0  0  0
    2.9690   -0.2878   -1.4400 C   0  0  0  0  0  0  0  0  0  0  0  0
    2.9714   -0.0207   -0.0871 C   0  0  0  0  0  0  0  0  0  0  0  0
    2.3932    1.1255    0.4330 C   0  0  0  0  0  0  0  0  0  0  0  0
    3.7100   -1.7495   -2.0787 S   0  0  0  0  0  0  0  0  0  0  0  0
    3.5673   -2.9053   -1.1359 O   0  0  0  0  0  0  0  0  0  0  0  0
    2.9845   -2.1184   -3.3626 O   0  0  0  0  0  0  0  0  0  0  0  0
    5.3673   -1.4812   -2.4364 N   0  0  0  0  0  0  0  0  0  0  0  0
    6.3232   -1.1148   -1.4518 C   0  0  0  0  0  0  0  0  0  0  0  0
    6.3633   -1.7648   -0.2407 C   0  0  0  0  0  0  0  0  0  0  0  0
    7.3000   -1.4122    0.7333 C   0  0  0  0  0  0  0  0  0  0  0  0
    8.1882   -0.3972    0.4597 C   0  0  0  0  0  0  0  0  0  0  0  0
    8.1596    0.2671   -0.7576 C   0  0  0  0  0  0  0  0  0  0  0  0
    7.2251   -0.1001   -1.7021 C   0  0  0  0  0  0  0  0  0  0  0  0
    9.1450   -0.0451    1.4691 C   0  0  0  0  0  0  0  0  0  0  0  0
    9.9217    0.2356    2.2933 N   0  0  0  0  0  0  0  0  0  0  0  0
   -8.2282   -2.9052    1.4722 H   0  0  0  0  0  0  0  0  0  0  0  0
   -8.1688   -2.7870   -0.3031 H   0  0  0  0  0  0  0  0  0  0  0  0
   -9.2915   -1.7128    0.7029 H   0  0  0  0  0  0  0  0  0  0  0  0
   -6.2513   -2.7742    1.7611 H   0  0  0  0  0  0  0  0  0  0  0  0
   -6.0854   -1.1349    2.4794 H   0  0  0  0  0  0  0  0  0  0  0  0
   -4.8001   -2.1223   -0.1193 H   0  0  0  0  0  0  0  0  0  0  0  0
   -4.0266   -1.8886    1.5079 H   0  0  0  0  0  0  0  0  0  0  0  0
   -5.3856    0.7310   -1.2539 H   0  0  0  0  0  0  0  0  0  0  0  0
   -6.1500    1.3535    0.2604 H   0  0  0  0  0  0  0  0  0  0  0  0
   -6.6280   -1.2848   -1.2652 H   0  0  0  0  0  0  0  0  0  0  0  0
   -7.7863   -0.0097   -0.8345 H   0  0  0  0  0  0  0  0  0  0  0  0
   -2.2906   -0.9828    1.4842 H   0  0  0  0  0  0  0  0  0  0  0  0
   -0.3390    0.4262    1.8897 H   0  0  0  0  0  0  0  0  0  0  0  0
   -2.3986    3.8024    0.3985 H   0  0  0  0  0  0  0  0  0  0  0  0
   -4.4044    2.3674   -0.0173 H   0  0  0  0  0  0  0  0  0  0  0  0
    1.3871    4.1154   -0.4216 H   0  0  0  0  0  0  0  0  0  0  0  0
    1.3341    2.4528   -2.4659 H   0  0  0  0  0  0  0  0  0  0  0  0
    2.3860    0.3823   -3.3402 H   0  0  0  0  0  0  0  0  0  0  0  0
    3.4460   -0.7396    0.5904 H   0  0  0  0  0  0  0  0  0  0  0  0
    2.4155    1.3001    1.4981 H   0  0  0  0  0  0  0  0  0  0  0  0
    5.7055   -1.5881   -3.4214 H   0  0  0  0  0  0  0  0  0  0  0  0
    5.6955   -2.5560    0.0120 H   0  0  0  0  0  0  0  0  0  0  0  0
    7.3490   -1.9088    1.6913 H   0  0  0  0  0  0  0  0  0  0  0  0
    8.8672    1.0552   -0.9396 H   0  0  0  0  0  0  0  0  0  0  0  0
    7.2176    0.4271   -2.6412 H   0  0  0  0  0  0  0  0  0  0  0  0
  1  2  1  0
  2  3  1  0
  3  4  1  0
  4  5  1  0
  5  6  1  0
  6  7  1  0
  5  8  1  0
  8  9  2  0
  9 10  1  0
 10 11  2  0
 11 12  1  0
 12 13  2  0
 11 14  1  0
 14 15  2  0
 14 16  2  0
 14 17  1  0
 17 18  1  0
 18 19  2  0
 19 20  1  0
 20 21  2  0
 21 22  1  0
 22 23  2  0
 21 24  1  0
 24 25  2  0
 24 26  2  0
 24 27  1  0
 27 28  1  0
 28 29  2  0
 29 30  1  0
 30 31  2  0
 31 32  1  0
 32 33  2  0
 31 34  1  0
 34 35  3  0
  7  2  1  0
 13  8  1  0
 23 18  1  0
 33 28  1  0
  1 36  1  0
  1 37  1  0
  1 38  1  0
  3 39  1  0
  3 40  1  0
  4 41  1  0
  4 42  1  0
  6 43  1  0
  6 44  1  0
  7 45  1  0
  7 46  1  0
  9 47  1  0
 10 48  1  0
 12 49  1  0
 13 50  1  0
 17 51  1  0
 19 52  1  0
 20 53  1  0
 22 54  1  0
 23 55  1  0
 27 56  1  0
 29 57  1  0
 30 58  1  0
 32 59  1  0
 33 60  1  0
M  END
$$$$
[H]c1nn([H])c([H])c1-c1c([H])c([H])c(C(=O)N2C([H])([H])C([H])([H])C([H])(c3c([H])c(F)c([H])c(C#N)c3[H])C([H])([H])C2([H])[H])c([H])c1OC([H])([H])[H]
     RDKit          3D

 51 54  0  0  0  0  0  0  0  0999 V2000
   -3.0958    2.6666    0.6954 C   0  0  0  0  0  0  0  0  0  0  0  0
   -4.1005    1.6884    0.5292 O   0  0  0  0  0  0  0  0  0  0  0  0
   -3.7303    0.4241    0.0836 C   0  0  0  0  0  0  0  0  0  0  0  0
   -2.3811    0.1169   -0.1988 C   0  0  0  0  0  0  0  0  0  0  0  0
   -1.9890   -1.1167   -0.6376 C   0  0  0  0  0  0  0  0  0  0  0  0
   -3.0300   -2.0453   -0.7834 C   0  0  0  0  0  0  0  0  0  0  0  0
   -4.3463   -1.7548   -0.5108 C   0  0  0  0  0  0  0  0  0  0  0  0
   -4.7125   -0.5112   -0.0723 C   0  0  0  0  0  0  0  0  0  0  0  0
   -6.1146   -0.1731    0.2270 C   0  0  0  0  0  0  0  0  0  0  0  0
   -6.6271    0.5059    1.3121 C   0  0  0  0  0  0  0  0  0  0  0  0
   -7.9771    0.5783    1.1557 N   0  0  0  0  0  0  0  0  0  0  0  0
   -8.2728   -0.0314    0.0224 N   0  0  0  0  0  0  0  0  0  0  0  0
   -7.1684   -0.5061   -0.5794 C   0  0  0  0  0  0  0  0  0  0  0  0
   -0.6157   -1.4546   -0.9257 C   0  0  0  0  0  0  0  0  0  0  0  0
   -0.5116   -2.7113   -1.3649 O   0  0  0  0  0  0  0  0  0  0  0  0
    0.5600   -0.7415   -0.8322 N   0  0  0  0  0  0  0  0  0  0  0  0
    1.8072   -1.4298   -1.2318 C   0  0  0  0  0  0  0  0  0  0  0  0
    2.6467   -1.4631    0.0216 C   0  0  0  0  0  0  0  0  0  0  0  0
    3.0653   -0.0794    0.3635 C   0  0  0  0  0  0  0  0  0  0  0  0
    2.2901    0.9240   -0.4273 C   0  0  0  0  0  0  0  0  0  0  0  0
    0.7733    0.5827   -0.3977 C   0  0  0  0  0  0  0  0  0  0  0  0
    4.5282    0.1143    0.2559 C   0  0  0  0  0  0  0  0  0  0  0  0
    5.1822   -0.0133   -0.9519 C   0  0  0  0  0  0  0  0  0  0  0  0
    6.5647    0.1659   -1.0706 C   0  0  0  0  0  0  0  0  0  0  0  0
    7.1300    0.0240   -2.2860 F   0  0  0  0  0  0  0  0  0  0  0  0
    7.2915    0.4793    0.0556 C   0  0  0  0  0  0  0  0  0  0  0  0
    6.6395    0.6093    1.2752 C   0  0  0  0  0  0  0  0  0  0  0  0
    5.2646    0.4257    1.3635 C   0  0  0  0  0  0  0  0  0  0  0  0
    7.4153    0.9327    2.4170 C   0  0  0  0  0  0  0  0  0  0  0  0
    8.0678    1.1899    3.3470 N   0  0  0  0  0  0  0  0  0  0  0  0
   -2.5813    2.9278   -0.2358 H   0  0  0  0  0  0  0  0  0  0  0  0
   -3.5186    3.5601    1.1969 H   0  0  0  0  0  0  0  0  0  0  0  0
   -2.3498    2.2365    1.4138 H   0  0  0  0  0  0  0  0  0  0  0  0
   -1.7064    0.9387   -0.0402 H   0  0  0  0  0  0  0  0  0  0  0  0
   -2.7341   -3.0398   -1.1342 H   0  0  0  0  0  0  0  0  0  0  0  0
   -5.0958   -2.5170   -0.6450 H   0  0  0  0  0  0  0  0  0  0  0  0
   -6.0168    0.8866    2.1092 H   0  0  0  0  0  0  0  0  0  0  0  0
   -9.2237   -0.1567   -0.3976 H   0  0  0  0  0  0  0  0  0  0  0  0
   -7.1241   -1.0529   -1.5307 H   0  0  0  0  0  0  0  0  0  0  0  0
    2.2852   -0.8332   -2.0265 H   0  0  0  0  0  0  0  0  0  0  0  0
    1.5929   -2.4469   -1.6207 H   0  0  0  0  0  0  0  0  0  0  0  0
    2.0372   -1.8611    0.8866 H   0  0  0  0  0  0  0  0  0  0  0  0
    3.4905   -2.1818   -0.0572 H   0  0  0  0  0  0  0  0  0  0  0  0
    2.8028    0.1022    1.4423 H   0  0  0  0  0  0  0  0  0  0  0  0
    2.6656    1.0512   -1.4337 H   0  0  0  0  0  0  0  0  0  0  0  0
    2.3447    1.9164    0.0867 H   0  0  0  0  0  0  0  0  0  0  0  0
    0.4788    0.7827    0.6576 H   0  0  0  0  0  0  0  0  0  0  0  0
    0.3382    1.3875   -1.0297 H   0  0  0  0  0  0  0  0  0  0  0  0
    4.5790   -0.2604   -1.8194 H   0  0  0  0  0  0  0  0  0  0  0  0
    8.3605    0.6196   -0.0265 H   0  0  0  0  0  0  0  0  0  0  0  0
    4.8214    0.5440    2.3550 H   0  0  0  0  0  0  0  0  0  0  0  0
  1  2  1  0
  2  3  1  0
  3  4  2  0
  4  5  1  0
  5  6  2  0
  6  7  1  0
  7  8  2  0
  8  9  1  0
  9 10  1  0
 10 11  2  0
 11 12  1  0
 12 13  1  0
  5 14  1  0
 14 15  2  0
 14 16  1  0
 16 17  1  0
 17 18  1  0
 18 19  1  0
 19 20  1  0
 20 21  1  0
 19 22  1  0
 22 23  2  0
 23 24  1  0
 24 25  1  0
 24 26  2  0
 26 27  1  0
 27 28  2  0
 27 29  1  0
 29 30  3  0
  8  3  1  0
 13  9  2  0
 21 16  1  0
 28 22  1  0
  1 31  1  0
  1 32  1  0
  1 33  1  0
  4 34  1  0
  6 35  1  0
  7 36  1  0
 10 37  1  0
 12 38  1  0
 13 39  1  0
 17 40  1  0
 17 41  1  0
 18 42  1  0
 18 43  1  0
 19 44  1  0
 20 45  1  0
 20 46  1  0
 21 47  1  0
 21 48  1  0
 23 49  1  0
 26 50  1  0
 28 51  1  0
M  END
$$$$
[H]c1c([H])c([H])c(C([H])([H])[C@@]([H])(C(=O)N([H])[C@]([H])(C(=O)N([H])[C@]([H])(C(=O)N([H])[C@]([H])(C(=O)N([H])[C@]([H])(C(=O)N([H])[H])C([H])([H])C([H])(C([H])([H])[H])C([H])([H])[H])C([H])([H])c2c([H])c([H])c([H])c([H])c2[H])C([H])([H])c2c([H])c([H])c([H])c([H])c2[H])C([H])([H])C([H])(C([H])([H])[H])C([H])([H])[H])N([H])[H])c([H])c1[H]
     RDKit          3D

102104  0  0  0  0  0  0  0  0999 V2000
    7.9737   -1.7454   -2.2688 C   0  0  0  0  0  0  0  0  0  0  0  0
    7.0323   -0.5176   -2.1662 C   0  0  0  0  0  0  0  0  0  0  0  0
    7.6273    0.5186   -3.0585 C   0  0  0  0  0  0  0  0  0  0  0  0
    6.9612   -0.0782   -0.7427 C   0  0  0  0  0  0  0  0  0  0  0  0
    6.0723    1.0961   -0.4508 C   0  0  2  0  0  0  0  0  0  0  0  0
    4.7045    0.8070   -0.8630 N   0  0  0  0  0  0  0  0  0  0  0  0
    3.7228    0.3413    0.0402 C   0  0  0  0  0  0  0  0  0  0  0  0
    4.0727    0.1729    1.2333 O   0  0  0  0  0  0  0  0  0  0  0  0
    2.3697    0.0696   -0.4020 C   0  0  2  0  0  0  0  0  0  0  0  0
    1.6255    1.3185   -0.8818 C   0  0  0  0  0  0  0  0  0  0  0  0
    1.4615    2.3453    0.1409 C   0  0  0  0  0  0  0  0  0  0  0  0
    0.4000    2.3659    1.0212 C   0  0  0  0  0  0  0  0  0  0  0  0
    0.2875    3.3538    1.9565 C   0  0  0  0  0  0  0  0  0  0  0  0
    1.2314    4.3487    2.0396 C   0  0  0  0  0  0  0  0  0  0  0  0
    2.2918    4.3552    1.1829 C   0  0  0  0  0  0  0  0  0  0  0  0
    2.3981    3.3478    0.2353 C   0  0  0  0  0  0  0  0  0  0  0  0
    1.5531   -0.5460    0.6620 N   0  0  0  0  0  0  0  0  0  0  0  0
    0.5662   -1.4738    0.3042 C   0  0  0  0  0  0  0  0  0  0  0  0
    0.3947   -1.7689   -0.9024 O   0  0  0  0  0  0  0  0  0  0  0  0
   -0.2793   -2.0909    1.3947 C   0  0  2  0  0  0  0  0  0  0  0  0
    0.3384   -3.2489    2.0450 C   0  0  0  0  0  0  0  0  0  0  0  0
    1.6148   -3.0873    2.7255 C   0  0  0  0  0  0  0  0  0  0  0  0
    2.7818   -3.2950    2.0148 C   0  0  0  0  0  0  0  0  0  0  0  0
    4.0293   -3.1725    2.6064 C   0  0  0  0  0  0  0  0  0  0  0  0
    4.1328   -2.8366    3.9313 C   0  0  0  0  0  0  0  0  0  0  0  0
    3.0007   -2.6240    4.6624 C   0  0  0  0  0  0  0  0  0  0  0  0
    1.7675   -2.7499    4.0590 C   0  0  0  0  0  0  0  0  0  0  0  0
   -1.5016   -2.5584    0.7008 N   0  0  0  0  0  0  0  0  0  0  0  0
   -2.5665   -1.6825    0.4740 C   0  0  0  0  0  0  0  0  0  0  0  0
   -2.4322   -0.4757    0.8605 O   0  0  0  0  0  0  0  0  0  0  0  0
   -3.8663   -2.0190   -0.1827 C   0  0  2  0  0  0  0  0  0  0  0  0
   -3.6189   -2.7979   -1.4126 C   0  0  0  0  0  0  0  0  0  0  0  0
   -4.8710   -3.2050   -2.1570 C   0  0  0  0  0  0  0  0  0  0  0  0
   -4.4425   -3.9862   -3.3846 C   0  0  0  0  0  0  0  0  0  0  0  0
   -5.7277   -4.1374   -1.3328 C   0  0  0  0  0  0  0  0  0  0  0  0
   -4.6375   -0.8180   -0.3917 N   0  0  0  0  0  0  0  0  0  0  0  0
   -5.7024   -0.4827    0.4661 C   0  0  0  0  0  0  0  0  0  0  0  0
   -6.0107   -1.2232    1.4248 O   0  0  0  0  0  0  0  0  0  0  0  0
   -6.4989    0.7712    0.2664 C   0  0  1  0  0  0  0  0  0  0  0  0
   -7.4551    0.9807    1.3270 N   0  0  0  0  0  0  0  0  0  0  0  0
   -5.5404    1.9174    0.2195 C   0  0  0  0  0  0  0  0  0  0  0  0
   -6.1922    3.2288    0.0287 C   0  0  0  0  0  0  0  0  0  0  0  0
   -6.5926    4.0340    1.0834 C   0  0  0  0  0  0  0  0  0  0  0  0
   -7.1889    5.2553    0.9008 C   0  0  0  0  0  0  0  0  0  0  0  0
   -7.4171    5.7374   -0.3683 C   0  0  0  0  0  0  0  0  0  0  0  0
   -7.0358    4.9706   -1.4427 C   0  0  0  0  0  0  0  0  0  0  0  0
   -6.4386    3.7475   -1.2435 C   0  0  0  0  0  0  0  0  0  0  0  0
    6.5498    2.4075   -0.8545 C   0  0  0  0  0  0  0  0  0  0  0  0
    7.8540    2.8303   -0.5018 N   0  0  0  0  0  0  0  0  0  0  0  0
    5.8799    3.2648   -1.5280 O   0  0  0  0  0  0  0  0  0  0  0  0
    8.7677   -1.5805   -1.5136 H   0  0  0  0  0  0  0  0  0  0  0  0
    7.3991   -2.6681   -2.0439 H   0  0  0  0  0  0  0  0  0  0  0  0
    8.3460   -1.7734   -3.3040 H   0  0  0  0  0  0  0  0  0  0  0  0
    6.0565   -0.8947   -2.5396 H   0  0  0  0  0  0  0  0  0  0  0  0
    7.0109    1.3790   -3.2947 H   0  0  0  0  0  0  0  0  0  0  0  0
    7.9070    0.0689   -4.0713 H   0  0  0  0  0  0  0  0  0  0  0  0
    8.5845    0.8610   -2.6264 H   0  0  0  0  0  0  0  0  0  0  0  0
    7.9798    0.1005   -0.3105 H   0  0  0  0  0  0  0  0  0  0  0  0
    6.5595   -0.9288   -0.1303 H   0  0  0  0  0  0  0  0  0  0  0  0
    6.0078    1.0807    0.7080 H   0  0  0  0  0  0  0  0  0  0  0  0
    4.4621    0.9571   -1.8663 H   0  0  0  0  0  0  0  0  0  0  0  0
    2.3432   -0.6086   -1.2501 H   0  0  0  0  0  0  0  0  0  0  0  0
    0.6742    0.9710   -1.2844 H   0  0  0  0  0  0  0  0  0  0  0  0
    2.2261    1.7294   -1.7157 H   0  0  0  0  0  0  0  0  0  0  0  0
   -0.3195    1.5675    0.9227 H   0  0  0  0  0  0  0  0  0  0  0  0
   -0.5585    3.3606    2.6512 H   0  0  0  0  0  0  0  0  0  0  0  0
    1.1050    5.1168    2.7994 H   0  0  0  0  0  0  0  0  0  0  0  0
    3.0433    5.1312    1.2342 H   0  0  0  0  0  0  0  0  0  0  0  0
    3.2460    3.4047   -0.4176 H   0  0  0  0  0  0  0  0  0  0  0  0
    1.7098   -0.2944    1.6523 H   0  0  0  0  0  0  0  0  0  0  0  0
   -0.5831   -1.2304    1.9982 H   0  0  0  0  0  0  0  0  0  0  0  0
   -0.3601   -3.7675    2.7513 H   0  0  0  0  0  0  0  0  0  0  0  0
    0.4857   -4.0349    1.2371 H   0  0  0  0  0  0  0  0  0  0  0  0
    2.7740   -3.5623    0.9669 H   0  0  0  0  0  0  0  0  0  0  0  0
    4.9296   -3.3389    2.0318 H   0  0  0  0  0  0  0  0  0  0  0  0
    5.1173   -2.7359    4.4154 H   0  0  0  0  0  0  0  0  0  0  0  0
    3.0660   -2.3620    5.6986 H   0  0  0  0  0  0  0  0  0  0  0  0
    0.8974   -2.5824    4.6387 H   0  0  0  0  0  0  0  0  0  0  0  0
   -1.5478   -3.5371    0.3938 H   0  0  0  0  0  0  0  0  0  0  0  0
   -4.4407   -2.6490    0.5738 H   0  0  0  0  0  0  0  0  0  0  0  0
   -3.1129   -3.7538   -1.1122 H   0  0  0  0  0  0  0  0  0  0  0  0
   -2.9302   -2.2966   -2.1156 H   0  0  0  0  0  0  0  0  0  0  0  0
   -5.4628   -2.3456   -2.5148 H   0  0  0  0  0  0  0  0  0  0  0  0
   -4.5232   -3.3507   -4.3145 H   0  0  0  0  0  0  0  0  0  0  0  0
   -3.3880   -4.2647   -3.2919 H   0  0  0  0  0  0  0  0  0  0  0  0
   -5.0861   -4.8811   -3.5396 H   0  0  0  0  0  0  0  0  0  0  0  0
   -5.4916   -5.2191   -1.5584 H   0  0  0  0  0  0  0  0  0  0  0  0
   -6.7777   -4.0117   -1.6729 H   0  0  0  0  0  0  0  0  0  0  0  0
   -5.6085   -4.0274   -0.2598 H   0  0  0  0  0  0  0  0  0  0  0  0
   -4.4269   -0.1611   -1.1917 H   0  0  0  0  0  0  0  0  0  0  0  0
   -7.0300    0.7005   -0.7103 H   0  0  0  0  0  0  0  0  0  0  0  0
   -8.3584    0.5861    1.0394 H   0  0  0  0  0  0  0  0  0  0  0  0
   -7.1540    0.5929    2.2362 H   0  0  0  0  0  0  0  0  0  0  0  0
   -4.8232    1.7336   -0.6205 H   0  0  0  0  0  0  0  0  0  0  0  0
   -4.9354    1.9454    1.1532 H   0  0  0  0  0  0  0  0  0  0  0  0
   -6.4217    3.6726    2.0950 H   0  0  0  0  0  0  0  0  0  0  0  0
   -7.4955    5.8728    1.7342 H   0  0  0  0  0  0  0  0  0  0  0  0
   -7.8809    6.6905   -0.5781 H   0  0  0  0  0  0  0  0  0  0  0  0
   -7.1822    5.2807   -2.4556 H   0  0  0  0  0  0  0  0  0  0  0  0
   -6.1290    3.1246   -2.0855 H   0  0  0  0  0  0  0  0  0  0  0  0
    8.0203    3.8074   -0.2130 H   0  0  0  0  0  0  0  0  0  0  0  0
    8.6300    2.1596   -0.5356 H   0  0  0  0  0  0  0  0  0  0  0  0
  1  2  1  0
  2  3  1  0
  2  4  1  0
  4  5  1  0
  5  6  1  0
  6  7  1  0
  7  8  2  0
  7  9  1  0
  9 10  1  0
 10 11  1  0
 11 12  2  0
 12 13  1  0
 13 14  2  0
 14 15  1  0
 15 16  2  0
  9 17  1  0
 17 18  1  0
 18 19  2  0
 18 20  1  0
 20 21  1  0
 21 22  1  0
 22 23  2  0
 23 24  1  0
 24 25  2  0
 25 26  1  0
 26 27  2  0
 20 28  1  0
 28 29  1  0
 29 30  2  0
 29 31  1  0
 31 32  1  0
 32 33  1  0
 33 34  1  0
 33 35  1  0
 31 36  1  0
 36 37  1  0
 37 38  2  0
 37 39  1  0
 39 40  1  0
 39 41  1  0
 41 42  1  0
 42 43  2  0
 43 44  1  0
 44 45  2  0
 45 46  1  0
 46 47  2  0
  5 48  1  0
 48 49  1  0
 48 50  2  0
 16 11  1  0
 27 22  1  0
 47 42  1  0
  1 51  1  0
  1 52  1  0
  1 53  1  0
  2 54  1  0
  3 55  1  0
  3 56  1  0
  3 57  1  0
  4 58  1  0
  4 59  1  0
  5 60  1  1
  6 61  1  0
  9 62  1  6
 10 63  1  0
 10 64  1  0
 12 65  1  0
 13 66  1  0
 14 67  1  0
 15 68  1  0
 16 69  1  0
 17 70  1  0
 20 71  1  1
 21 72  1  0
 21 73  1  0
 23 74  1  0
 24 75  1  0
 25 76  1  0
 26 77  1  0
 27 78  1  0
 28 79  1  0
 31 80  1  1
 32 81  1  0
 32 82  1  0
 33 83  1  0
 34 84  1  0
 34 85  1  0
 34 86  1  0
 35 87  1  0
 35 88  1  0
 35 89  1  0
 36 90  1  0
 39 91  1  6
 40 92  1  0
 40 93  1  0
 41 94  1  0
 41 95  1  0
 43 96  1  0
 44 97  1  0
 45 98  1  0
 46 99  1  0
 47100  1  0
 49101  1  0
 49102  1  0
M  END
$$$$
[H]N(C(=O)[C@]([H])(C(=O)C([H])([H])[H])C([H])([H])[H])[C@]([H])(C(=O)N([H])[C@]([H])(C(=O)N([H])[C@]([H])(C(=O)N([H])[C@]([H])(C(=O)N([H])[C@]([H])(C(=O)N([H])[C@]([H])(C(=O)N([H])[C@]([H])(C(=O)N([H])[C@]([H])(C(=O)N1C([H])([H])C([H])([H])C([H])([H])[C@]1([H])C(=O)N(C([H])([H])[H])C([H])([H])[H])C([H])([H])C([H])(C([H])([H])[H])C([H])([H])[H])C([H])([H])[H])C([H])([H])[H])C([H])([H])[H])C([H])([H])[H])C([H])([H])[H])C([H])([H])[H])C([H])([H])[H]
     RDKit          3D

126126  0  0  0  0  0  0  0  0999 V2000
  -11.5872   -3.4994    0.1324 C   0  0  0  0  0  0  0  0  0  0  0  0
  -10.2528   -3.4224   -0.4388 C   0  0  0  0  0  0  0  0  0  0  0  0
  -10.2794   -3.7255   -1.9609 C   0  0  0  0  0  0  0  0  0  0  0  0
   -9.2733   -2.3771   -0.2044 C   0  0  0  0  0  0  0  0  0  0  0  0
   -9.3945   -0.9675   -0.5126 C   0  0  2  0  0  0  0  0  0  0  0  0
   -8.0598   -0.3755   -0.2594 N   0  0  0  0  0  0  0  0  0  0  0  0
   -6.8954    0.1425   -0.0310 C   0  0  0  0  0  0  0  0  0  0  0  0
   -6.4673    0.5604    1.1107 O   0  0  0  0  0  0  0  0  0  0  0  0
   -5.8101    0.3395   -1.0838 C   0  0  2  0  0  0  0  0  0  0  0  0
   -5.6757   -0.9425   -1.8930 C   0  0  0  0  0  0  0  0  0  0  0  0
   -4.6094    0.7788   -0.5043 N   0  0  0  0  0  0  0  0  0  0  0  0
   -3.2589    0.5679   -0.9289 C   0  0  0  0  0  0  0  0  0  0  0  0
   -3.0240   -0.1028   -1.9289 O   0  0  0  0  0  0  0  0  0  0  0  0
   -2.1720    1.1631   -0.1382 C   0  0  2  0  0  0  0  0  0  0  0  0
   -2.1125    2.6690   -0.5516 C   0  0  0  0  0  0  0  0  0  0  0  0
   -0.8703    0.6426   -0.3480 N   0  0  0  0  0  0  0  0  0  0  0  0
    0.0680    0.7585    0.7470 C   0  0  0  0  0  0  0  0  0  0  0  0
   -0.3060    1.3186    1.8190 O   0  0  0  0  0  0  0  0  0  0  0  0
    1.4476    0.2640    0.6944 C   0  0  2  0  0  0  0  0  0  0  0  0
    1.5818   -1.0478    1.4628 C   0  0  0  0  0  0  0  0  0  0  0  0
    2.3668    1.2566    1.3171 N   0  0  0  0  0  0  0  0  0  0  0  0
    3.4637    1.7330    0.5917 C   0  0  0  0  0  0  0  0  0  0  0  0
    3.7203    1.3370   -0.6008 O   0  0  0  0  0  0  0  0  0  0  0  0
    4.4373    2.7570    1.1535 C   0  0  2  0  0  0  0  0  0  0  0  0
    3.9703    4.1071    0.7614 C   0  0  0  0  0  0  0  0  0  0  0  0
    5.7223    2.3624    0.5429 N   0  0  0  0  0  0  0  0  0  0  0  0
    6.5304    1.3652    1.1900 C   0  0  0  0  0  0  0  0  0  0  0  0
    6.0484    0.9159    2.2798 O   0  0  0  0  0  0  0  0  0  0  0  0
    7.7888    0.9169    0.6135 C   0  0  2  0  0  0  0  0  0  0  0  0
    7.6782    0.7231   -0.9087 C   0  0  0  0  0  0  0  0  0  0  0  0
    8.2157   -0.3637    1.1796 N   0  0  0  0  0  0  0  0  0  0  0  0
    9.5338   -0.7528    1.1561 C   0  0  0  0  0  0  0  0  0  0  0  0
   10.3812    0.0605    0.6388 O   0  0  0  0  0  0  0  0  0  0  0  0
   10.0814   -2.0239    1.6512 C   0  0  2  0  0  0  0  0  0  0  0  0
   10.8366   -1.8478    2.9632 C   0  0  0  0  0  0  0  0  0  0  0  0
   10.9664   -2.5618    0.6276 N   0  0  0  0  0  0  0  0  0  0  0  0
   12.2929   -2.2325    0.3987 C   0  0  0  0  0  0  0  0  0  0  0  0
   12.8662   -1.3874    1.1528 O   0  0  0  0  0  0  0  0  0  0  0  0
   13.1120   -2.8151   -0.7206 C   0  0  2  0  0  0  0  0  0  0  0  0
   13.4880   -4.2243   -0.4638 C   0  0  0  0  0  0  0  0  0  0  0  0
   14.3260   -1.9937   -0.8462 N   0  0  0  0  0  0  0  0  0  0  0  0
   14.2824   -0.8400   -1.6831 C   0  0  0  0  0  0  0  0  0  0  0  0
   13.1738   -0.6200   -2.2872 O   0  0  0  0  0  0  0  0  0  0  0  0
   15.3605    0.1157   -1.9240 C   0  0  1  0  0  0  0  0  0  0  0  0
   16.3868   -0.2914   -2.9297 C   0  0  0  0  0  0  0  0  0  0  0  0
   14.7856    1.4803   -2.1894 C   0  0  0  0  0  0  0  0  0  0  0  0
   13.8871    2.0287   -1.1446 C   0  0  0  0  0  0  0  0  0  0  0  0
   15.0248    2.1005   -3.1783 O   0  0  0  0  0  0  0  0  0  0  0  0
  -10.3853    0.0140   -0.2177 C   0  0  0  0  0  0  0  0  0  0  0  0
  -10.1599    1.1396   -0.9825 O   0  0  0  0  0  0  0  0  0  0  0  0
  -11.5020    0.2600    0.5751 N   0  0  0  0  0  0  0  0  0  0  0  0
  -12.1190   -0.4141    1.6979 C   0  0  0  0  0  0  0  0  0  0  0  0
  -12.2586    0.7562    2.7017 C   0  0  0  0  0  0  0  0  0  0  0  0
  -12.5339    1.9332    1.8013 C   0  0  0  0  0  0  0  0  0  0  0  0
  -12.3860    1.4323    0.3998 C   0  0  2  0  0  0  0  0  0  0  0  0
  -13.7095    1.0783   -0.1640 C   0  0  0  0  0  0  0  0  0  0  0  0
  -14.0196   -0.1273   -0.4932 O   0  0  0  0  0  0  0  0  0  0  0  0
  -14.7324    2.0159   -0.3921 N   0  0  0  0  0  0  0  0  0  0  0  0
  -14.5107    3.4166   -0.1323 C   0  0  0  0  0  0  0  0  0  0  0  0
  -16.0284    1.5933   -0.8613 C   0  0  0  0  0  0  0  0  0  0  0  0
  -12.1068   -4.4917   -0.0798 H   0  0  0  0  0  0  0  0  0  0  0  0
  -12.2873   -2.7535   -0.3318 H   0  0  0  0  0  0  0  0  0  0  0  0
  -11.5900   -3.4543    1.2409 H   0  0  0  0  0  0  0  0  0  0  0  0
   -9.7256   -4.3943   -0.0584 H   0  0  0  0  0  0  0  0  0  0  0  0
  -10.9309   -4.6104   -2.0706 H   0  0  0  0  0  0  0  0  0  0  0  0
   -9.2599   -4.0541   -2.2173 H   0  0  0  0  0  0  0  0  0  0  0  0
  -10.6459   -2.8494   -2.5248 H   0  0  0  0  0  0  0  0  0  0  0  0
   -8.3309   -2.7230   -0.8084 H   0  0  0  0  0  0  0  0  0  0  0  0
   -8.7995   -2.5257    0.8560 H   0  0  0  0  0  0  0  0  0  0  0  0
   -9.3260   -0.9719   -1.7176 H   0  0  0  0  0  0  0  0  0  0  0  0
   -8.4106   -0.3437    1.0450 H   0  0  0  0  0  0  0  0  0  0  0  0
   -6.1219    1.0781   -1.8326 H   0  0  0  0  0  0  0  0  0  0  0  0
   -5.1124   -1.7296   -1.4172 H   0  0  0  0  0  0  0  0  0  0  0  0
   -6.6975   -1.2270   -2.2758 H   0  0  0  0  0  0  0  0  0  0  0  0
   -5.1427   -0.6418   -2.8401 H   0  0  0  0  0  0  0  0  0  0  0  0
   -4.6882    1.3717    0.4046 H   0  0  0  0  0  0  0  0  0  0  0  0
   -2.4216    1.2079    0.9307 H   0  0  0  0  0  0  0  0  0  0  0  0
   -3.1479    2.9957   -0.6426 H   0  0  0  0  0  0  0  0  0  0  0  0
   -1.5543    2.7206   -1.4905 H   0  0  0  0  0  0  0  0  0  0  0  0
   -1.5994    3.2019    0.2953 H   0  0  0  0  0  0  0  0  0  0  0  0
   -0.5451    0.1862   -1.2199 H   0  0  0  0  0  0  0  0  0  0  0  0
    1.7535    0.0780   -0.3442 H   0  0  0  0  0  0  0  0  0  0  0  0
    0.5817   -1.5132    1.4713 H   0  0  0  0  0  0  0  0  0  0  0  0
    2.2850   -1.6750    0.9210 H   0  0  0  0  0  0  0  0  0  0  0  0
    1.8633   -0.8716    2.5294 H   0  0  0  0  0  0  0  0  0  0  0  0
    2.1311    1.5454    2.2837 H   0  0  0  0  0  0  0  0  0  0  0  0
    4.4298    2.5733    2.2170 H   0  0  0  0  0  0  0  0  0  0  0  0
    4.7821    4.7601    0.3843 H   0  0  0  0  0  0  0  0  0  0  0  0
    3.1581    4.0060   -0.0225 H   0  0  0  0  0  0  0  0  0  0  0  0
    3.5031    4.6319    1.6317 H   0  0  0  0  0  0  0  0  0  0  0  0
    6.0154    2.7930   -0.3165 H   0  0  0  0  0  0  0  0  0  0  0  0
    8.6033    1.6435    0.7487 H   0  0  0  0  0  0  0  0  0  0  0  0
    7.6621   -0.3671   -1.1641 H   0  0  0  0  0  0  0  0  0  0  0  0
    8.5817    1.1509   -1.3710 H   0  0  0  0  0  0  0  0  0  0  0  0
    6.7849    1.2393   -1.2517 H   0  0  0  0  0  0  0  0  0  0  0  0
    7.4250   -0.9379    1.5815 H   0  0  0  0  0  0  0  0  0  0  0  0
    9.3088   -2.7694    1.8778 H   0  0  0  0  0  0  0  0  0  0  0  0
   11.3894   -0.9053    2.9433 H   0  0  0  0  0  0  0  0  0  0  0  0
   11.4359   -2.7489    3.1968 H   0  0  0  0  0  0  0  0  0  0  0  0
   10.0598   -1.7547    3.7490 H   0  0  0  0  0  0  0  0  0  0  0  0
   10.5072   -3.2821   -0.0069 H   0  0  0  0  0  0  0  0  0  0  0  0
   12.4938   -2.6389   -1.6225 H   0  0  0  0  0  0  0  0  0  0  0  0
   14.5911   -4.3191   -0.3880 H   0  0  0  0  0  0  0  0  0  0  0  0
   12.9684   -4.6537    0.4276 H   0  0  0  0  0  0  0  0  0  0  0  0
   13.2275   -4.8181   -1.3908 H   0  0  0  0  0  0  0  0  0  0  0  0
   15.1724   -2.2547   -0.3532 H   0  0  0  0  0  0  0  0  0  0  0  0
   15.9298    0.2198   -0.9319 H   0  0  0  0  0  0  0  0  0  0  0  0
   16.3458   -1.3936   -3.1513 H   0  0  0  0  0  0  0  0  0  0  0  0
   16.2762    0.3013   -3.8961 H   0  0  0  0  0  0  0  0  0  0  0  0
   17.4361   -0.0888   -2.5906 H   0  0  0  0  0  0  0  0  0  0  0  0
   14.4920    2.6270   -0.4462 H   0  0  0  0  0  0  0  0  0  0  0  0
   13.0883    2.6816   -1.5806 H   0  0  0  0  0  0  0  0  0  0  0  0
   13.4102    1.1823   -0.5683 H   0  0  0  0  0  0  0  0  0  0  0  0
  -11.4575   -1.1827    2.1612 H   0  0  0  0  0  0  0  0  0  0  0  0
  -13.1216   -0.8023    1.5148 H   0  0  0  0  0  0  0  0  0  0  0  0
  -13.0178    0.5600    3.4599 H   0  0  0  0  0  0  0  0  0  0  0  0
  -11.2440    0.8640    3.1772 H   0  0  0  0  0  0  0  0  0  0  0  0
  -13.5786    2.2642    2.0429 H   0  0  0  0  0  0  0  0  0  0  0  0
  -11.8231    2.7788    2.0185 H   0  0  0  0  0  0  0  0  0  0  0  0
  -11.8575    2.1805   -0.2623 H   0  0  0  0  0  0  0  0  0  0  0  0
  -14.9461    4.0693   -0.9653 H   0  0  0  0  0  0  0  0  0  0  0  0
  -15.0868    3.6633    0.7670 H   0  0  0  0  0  0  0  0  0  0  0  0
  -13.4388    3.6909    0.0085 H   0  0  0  0  0  0  0  0  0  0  0  0
  -16.2157    0.5629   -0.4372 H   0  0  0  0  0  0  0  0  0  0  0  0
  -16.0943    1.5048   -1.9388 H   0  0  0  0  0  0  0  0  0  0  0  0
  -16.7978    2.2654   -0.4232 H   0  0  0  0  0  0  0  0  0  0  0  0
  1  2  1  0
  2  3  1  0
  2  4  1  0
  4  5  1  0
  5  6  1  0
  6  7  1  0
  7  8  2  0
  7  9  1  0
  9 10  1  0
  9 11  1  0
 11 12  1  0
 12 13  2  0
 12 14  1  0
 14 15  1  0
 14 16  1  0
 16 17  1  0
 17 18  2  0
 17 19  1  0
 19 20  1  0
 19 21  1  0
 21 22  1  0
 22 23  2  0
 22 24  1  0
 24 25  1  0
 24 26  1  0
 26 27  1  0
 27 28  2  0
 27 29  1  0
 29 30  1  0
 29 31  1  0
 31 32  1  0
 32 33  2  0
 32 34  1  0
 34 35  1  0
 34 36  1  0
 36 37  1  0
 37 38  2  0
 37 39  1  0
 39 40  1  0
 39 41  1  0
 41 42  1  0
 42 43  2  0
 42 44  1  0
 44 45  1  0
 44 46  1  0
 46 47  1  0
 46 48  2  0
  5 49  1  0
 49 50  2  0
 49 51  1  0
 51 52  1  0
 52 53  1  0
 53 54  1  0
 54 55  1  0
 55 56  1  0
 56 57  2  0
 56 58  1  0
 58 59  1  0
 58 60  1  0
 55 51  1  0
  1 61  1  0
  1 62  1  0
  1 63  1  0
  2 64  1  0
  3 65  1  0
  3 66  1  0
  3 67  1  0
  4 68  1  0
  4 69  1  0
  5 70  1  6
  6 71  1  0
  9 72  1  6
 10 73  1  0
 10 74  1  0
 10 75  1  0
 11 76  1  0
 14 77  1  1
 15 78  1  0
 15 79  1  0
 15 80  1  0
 16 81  1  0
 19 82  1  6
 20 83  1  0
 20 84  1  0
 20 85  1  0
 21 86  1  0
 24 87  1  1
 25 88  1  0
 25 89  1  0
 25 90  1  0
 26 91  1  0
 29 92  1  6
 30 93  1  0
 30 94  1  0
 30 95  1  0
 31 96  1  0
 34 97  1  1
 35 98  1  0
 35 99  1  0
 35100  1  0
 36101  1  0
 39102  1  6
 40103  1  0
 40104  1  0
 40105  1  0
 41106  1  0
 44107  1  1
 45108  1  0
 45109  1  0
 45110  1  0
 47111  1  0
 47112  1  0
 47113  1  0
 52114  1  0
 52115  1  0
 53116  1  0
 53117  1  0
 54118  1  0
 54119  1  0
 55120  1  6
 59121  1  0
 59122  1  0
 59123  1  0
 60124  1  0
 60125  1  0
 60126  1  0
M  END
$$$$
[H]OC(=O)[C@@]([H])(N([H])C(=O)[C@@]([H])(N([H])C(=O)[C@@]([H])(N([H])C(=O)[C@@]([H])(N([H])C(=O)[C@@]([H])(N([H])C(=O)C([H])([H])[H])C([H])([H])c1c([H])c([H])c([H])c([H])c1[H])C([H])([H])C([H])(C([H])([H])[H])C([H])([H])[H])C([H])([H])C([H])(C([H])([H])[H])C([H])([H])[H])C([H])([H])C([H])(C([H])([H])[H])C([H])([H])[H])C([H])([H])[H]
     RDKit          3D

 95 95  0  0  0  0  0  0  0  0999 V2000
    1.8955    3.9286   -0.4758 C   0  0  0  0  0  0  0  0  0  0  0  0
    3.2275    3.6601    0.2595 C   0  0  0  0  0  0  0  0  0  0  0  0
    3.5847    4.5655    0.9764 O   0  0  0  0  0  0  0  0  0  0  0  0
    3.8201    2.4250   -0.0181 N   0  0  0  0  0  0  0  0  0  0  0  0
    4.3960    1.2528   -0.2735 C   0  0  1  0  0  0  0  0  0  0  0  0
    5.0593    0.4888    0.8820 C   0  0  0  0  0  0  0  0  0  0  0  0
    6.1492    1.2473    1.5238 C   0  0  0  0  0  0  0  0  0  0  0  0
    7.3505    1.3044    0.8112 C   0  0  0  0  0  0  0  0  0  0  0  0
    8.4629    1.9104    1.3277 C   0  0  0  0  0  0  0  0  0  0  0  0
    8.3596    2.4719    2.5984 C   0  0  0  0  0  0  0  0  0  0  0  0
    7.1786    2.4197    3.3133 C   0  0  0  0  0  0  0  0  0  0  0  0
    6.0618    1.8053    2.7765 C   0  0  0  0  0  0  0  0  0  0  0  0
    3.3414    0.3005   -0.8167 C   0  0  0  0  0  0  0  0  0  0  0  0
    2.6027    0.7477   -1.7131 O   0  0  0  0  0  0  0  0  0  0  0  0
    3.2324   -0.9855   -0.3091 N   0  0  0  0  0  0  0  0  0  0  0  0
    2.1972   -1.9192   -0.8183 C   0  0  1  0  0  0  0  0  0  0  0  0
    2.5749   -3.2838   -0.4399 C   0  0  0  0  0  0  0  0  0  0  0  0
    1.7692   -4.4588   -0.8084 C   0  0  0  0  0  0  0  0  0  0  0  0
    2.5635   -5.6827   -0.2295 C   0  0  0  0  0  0  0  0  0  0  0  0
    1.7001   -4.7288   -2.2941 C   0  0  0  0  0  0  0  0  0  0  0  0
    0.9308   -1.4853   -0.1090 C   0  0  0  0  0  0  0  0  0  0  0  0
    1.1252   -0.4644    0.6599 O   0  0  0  0  0  0  0  0  0  0  0  0
   -0.3124   -2.0518   -0.2230 N   0  0  0  0  0  0  0  0  0  0  0  0
   -1.5056   -1.6350    0.4523 C   0  0  1  0  0  0  0  0  0  0  0  0
   -1.4288   -1.3581    1.9041 C   0  0  0  0  0  0  0  0  0  0  0  0
   -1.1160   -2.4585    2.8270 C   0  0  0  0  0  0  0  0  0  0  0  0
   -2.1544   -3.5810    2.7896 C   0  0  0  0  0  0  0  0  0  0  0  0
    0.2262   -3.0648    2.8560 C   0  0  0  0  0  0  0  0  0  0  0  0
   -2.0929   -0.5261   -0.2922 C   0  0  0  0  0  0  0  0  0  0  0  0
   -1.4556    0.0392   -1.2214 O   0  0  0  0  0  0  0  0  0  0  0  0
   -3.3986   -0.0453   -0.0127 N   0  0  0  0  0  0  0  0  0  0  0  0
   -3.9882    1.0396   -0.7662 C   0  0  1  0  0  0  0  0  0  0  0  0
   -5.2866    0.6894   -1.4061 C   0  0  0  0  0  0  0  0  0  0  0  0
   -5.3237   -0.4193   -2.3742 C   0  0  0  0  0  0  0  0  0  0  0  0
   -4.9261   -1.7721   -1.8649 C   0  0  0  0  0  0  0  0  0  0  0  0
   -4.5809   -0.1585   -3.6767 C   0  0  0  0  0  0  0  0  0  0  0  0
   -4.2786    2.1662    0.1742 C   0  0  0  0  0  0  0  0  0  0  0  0
   -4.0863    2.1069    1.4127 O   0  0  0  0  0  0  0  0  0  0  0  0
   -4.8071    3.4039   -0.3340 N   0  0  0  0  0  0  0  0  0  0  0  0
   -5.1216    4.5381    0.4779 C   0  0  1  0  0  0  0  0  0  0  0  0
   -4.3167    5.7691    0.0730 C   0  0  0  0  0  0  0  0  0  0  0  0
   -6.5528    4.9253    0.3387 C   0  0  0  0  0  0  0  0  0  0  0  0
   -7.0793    6.0017    1.0170 O   0  0  0  0  0  0  0  0  0  0  0  0
   -7.3169    4.2482   -0.4207 O   0  0  0  0  0  0  0  0  0  0  0  0
    2.2249    3.8448   -1.5474 H   0  0  0  0  0  0  0  0  0  0  0  0
    1.1705    3.1725   -0.1810 H   0  0  0  0  0  0  0  0  0  0  0  0
    1.5573    4.9204   -0.2928 H   0  0  0  0  0  0  0  0  0  0  0  0
    4.9213    2.8381    0.6674 H   0  0  0  0  0  0  0  0  0  0  0  0
    5.2729    1.3169   -1.0382 H   0  0  0  0  0  0  0  0  0  0  0  0
    4.3451    0.1569    1.6131 H   0  0  0  0  0  0  0  0  0  0  0  0
    5.4809   -0.4238    0.3669 H   0  0  0  0  0  0  0  0  0  0  0  0
    7.3432    0.8407   -0.1723 H   0  0  0  0  0  0  0  0  0  0  0  0
    9.3684    1.9365    0.7418 H   0  0  0  0  0  0  0  0  0  0  0  0
    9.2237    2.9376    3.0077 H   0  0  0  0  0  0  0  0  0  0  0  0
    7.0895    2.8461    4.2978 H   0  0  0  0  0  0  0  0  0  0  0  0
    5.1121    1.7535    3.3238 H   0  0  0  0  0  0  0  0  0  0  0  0
    3.8178   -1.4113    0.4391 H   0  0  0  0  0  0  0  0  0  0  0  0
    1.9963   -1.7331   -1.8922 H   0  0  0  0  0  0  0  0  0  0  0  0
    2.8001   -3.3686    0.6685 H   0  0  0  0  0  0  0  0  0  0  0  0
    3.6207   -3.4858   -0.8761 H   0  0  0  0  0  0  0  0  0  0  0  0
    0.7863   -4.5682   -0.3243 H   0  0  0  0  0  0  0  0  0  0  0  0
    2.6245   -5.5503    0.8647 H   0  0  0  0  0  0  0  0  0  0  0  0
    3.5726   -5.6181   -0.6422 H   0  0  0  0  0  0  0  0  0  0  0  0
    2.0150   -6.6151   -0.4254 H   0  0  0  0  0  0  0  0  0  0  0  0
    2.6210   -4.3907   -2.7587 H   0  0  0  0  0  0  0  0  0  0  0  0
    1.6031   -5.8256   -2.4268 H   0  0  0  0  0  0  0  0  0  0  0  0
    0.8031   -4.2745   -2.7723 H   0  0  0  0  0  0  0  0  0  0  0  0
   -0.3892   -2.8738   -0.9319 H   0  0  0  0  0  0  0  0  0  0  0  0
   -2.2046   -2.5647    0.3323 H   0  0  0  0  0  0  0  0  0  0  0  0
   -2.4301   -0.9025    2.2005 H   0  0  0  0  0  0  0  0  0  0  0  0
   -0.7197   -0.5095    2.1174 H   0  0  0  0  0  0  0  0  0  0  0  0
   -1.2687   -2.0290    3.8846 H   0  0  0  0  0  0  0  0  0  0  0  0
   -2.1348   -4.1579    1.8495 H   0  0  0  0  0  0  0  0  0  0  0  0
   -1.8750   -4.2537    3.6194 H   0  0  0  0  0  0  0  0  0  0  0  0
   -3.1365   -3.1348    3.0277 H   0  0  0  0  0  0  0  0  0  0  0  0
    0.3925   -3.7174    3.7630 H   0  0  0  0  0  0  0  0  0  0  0  0
    0.9923   -2.2621    2.9053 H   0  0  0  0  0  0  0  0  0  0  0  0
    0.4137   -3.6845    1.9672 H   0  0  0  0  0  0  0  0  0  0  0  0
   -3.9318   -0.5214    0.7621 H   0  0  0  0  0  0  0  0  0  0  0  0
   -3.2391    1.4418   -1.4906 H   0  0  0  0  0  0  0  0  0  0  0  0
   -5.9750    0.3980   -0.5441 H   0  0  0  0  0  0  0  0  0  0  0  0
   -5.7871    1.5917   -1.8508 H   0  0  0  0  0  0  0  0  0  0  0  0
   -6.4060   -0.5422   -2.7169 H   0  0  0  0  0  0  0  0  0  0  0  0
   -3.8929   -2.0835   -2.1384 H   0  0  0  0  0  0  0  0  0  0  0  0
   -5.1651   -1.8533   -0.8021 H   0  0  0  0  0  0  0  0  0  0  0  0
   -5.6122   -2.5498   -2.3549 H   0  0  0  0  0  0  0  0  0  0  0  0
   -5.0203   -0.8925   -4.4257 H   0  0  0  0  0  0  0  0  0  0  0  0
   -3.5141   -0.3836   -3.6264 H   0  0  0  0  0  0  0  0  0  0  0  0
   -4.8217    0.8441   -4.0622 H   0  0  0  0  0  0  0  0  0  0  0  0
   -4.9515    3.4347   -1.3798 H   0  0  0  0  0  0  0  0  0  0  0  0
   -4.9038    4.3269    1.5212 H   0  0  0  0  0  0  0  0  0  0  0  0
   -4.1262    5.8303   -0.9971 H   0  0  0  0  0  0  0  0  0  0  0  0
   -4.9012    6.6414    0.4912 H   0  0  0  0  0  0  0  0  0  0  0  0
   -3.3832    5.7545    0.7022 H   0  0  0  0  0  0  0  0  0  0  0  0
   -8.0590    5.9776    1.2621 H   0  0  0  0  0  0  0  0  0  0  0  0
  1  2  1  0
  2  3  2  0
  2  4  1  0
  4  5  1  0
  5  6  1  0
  6  7  1  0
  7  8  2  0
  8  9  1  0
  9 10  2  0
 10 11  1  0
 11 12  2  0
  5 13  1  0
 13 14  2  0
 13 15  1  0
 15 16  1  0
 16 17  1  0
 17 18  1  0
 18 19  1  0
 18 20  1  0
 16 21  1  0
 21 22  2  0
 21 23  1  0
 23 24  1  0
 24 25  1  0
 25 26  1  0
 26 27  1  0
 26 28  1  0
 24 29  1  0
 29 30  2  0
 29 31  1  0
 31 32  1  0
 32 33  1  0
 33 34  1  0
 34 35  1  0
 34 36  1  0
 32 37  1  0
 37 38  2  0
 37 39  1  0
 39 40  1  0
 40 41  1  0
 40 42  1  0
 42 43  1  0
 42 44  2  0
 12  7  1  0
  1 45  1  0
  1 46  1  0
  1 47  1  0
  4 48  1  0
  5 49  1  6
  6 50  1  0
  6 51  1  0
  8 52  1  0
  9 53  1  0
 10 54  1  0
 11 55  1  0
 12 56  1  0
 15 57  1  0
 16 58  1  6
 17 59  1  0
 17 60  1  0
 18 61  1  0
 19 62  1  0
 19 63  1  0
 19 64  1  0
 20 65  1  0
 20 66  1  0
 20 67  1  0
 23 68  1  0
 24 69  1  1
 25 70  1  0
 25 71  1  0
 26 72  1  0
 27 73  1  0
 27 74  1  0
 27 75  1  0
 28 76  1  0
 28 77  1  0
 28 78  1  0
 31 79  1  0
 32 80  1  6
 33 81  1  0
 33 82  1  0
 34 83  1  0
 35 84  1  0
 35 85  1  0
 35 86  1  0
 36 87  1  0
 36 88  1  0
 36 89  1  0
 39 90  1  0
 40 91  1  1
 41 92  1  0
 41 93  1  0
 41 94  1  0
 43 95  1  0
M  END
$$$$
[H]OC([H])([H])[C@@]1([H])O[C@]([H])(n2c([H])nc3c(N([H])C([H])([H])c4c([H])c([H])c([H])c(Cl)c4[H])nc([H])nc32)[C@]([H])(O[H])[C@]1([H])O[H]
     RDKit          3D

 45 48  0  0  0  0  0  0  0  0999 V2000
   -6.2942    0.7084    2.2969 O   0  0  0  0  0  0  0  0  0  0  0  0
   -4.9062    0.6497    2.3716 C   0  0  0  0  0  0  0  0  0  0  0  0
   -4.3630    0.3092    1.0062 C   0  0  1  0  0  0  0  0  0  0  0  0
   -2.9956    0.2254    0.9651 O   0  0  0  0  0  0  0  0  0  0  0  0
   -2.6332   -0.8415    0.1757 C   0  0  1  0  0  0  0  0  0  0  0  0
   -3.8462   -1.3065   -0.5669 C   0  0  2  0  0  0  0  0  0  0  0  0
   -4.1685   -0.4737   -1.6424 O   0  0  0  0  0  0  0  0  0  0  0  0
   -4.9151   -1.0064    0.4979 C   0  0  2  0  0  0  0  0  0  0  0  0
   -6.1694   -0.8962   -0.0485 O   0  0  0  0  0  0  0  0  0  0  0  0
   -1.5024   -0.5712   -0.6754 N   0  0  0  0  0  0  0  0  0  0  0  0
   -1.2986   -0.7995   -1.9720 C   0  0  0  0  0  0  0  0  0  0  0  0
   -0.0713   -0.3637   -2.3083 N   0  0  0  0  0  0  0  0  0  0  0  0
    0.5158    0.1481   -1.2170 C   0  0  0  0  0  0  0  0  0  0  0  0
    1.7474    0.7303   -0.9559 C   0  0  0  0  0  0  0  0  0  0  0  0
    2.6569    0.8638   -2.0290 N   0  0  0  0  0  0  0  0  0  0  0  0
    3.9467    1.4498   -1.8053 C   0  0  0  0  0  0  0  0  0  0  0  0
    4.7831    0.6347   -0.8941 C   0  0  0  0  0  0  0  0  0  0  0  0
    5.8905    1.2460   -0.3255 C   0  0  0  0  0  0  0  0  0  0  0  0
    6.6957    0.5154    0.5190 C   0  0  0  0  0  0  0  0  0  0  0  0
    6.3880   -0.8063    0.7835 C   0  0  0  0  0  0  0  0  0  0  0  0
    5.2894   -1.4082    0.2177 C   0  0  0  0  0  0  0  0  0  0  0  0
    4.9489   -3.0852    0.5891 Cl  0  0  0  0  0  0  0  0  0  0  0  0
    4.4908   -0.6753   -0.6229 C   0  0  0  0  0  0  0  0  0  0  0  0
    2.0517    1.1632    0.3016 N   0  0  0  0  0  0  0  0  0  0  0  0
    1.1648    1.0313    1.2996 C   0  0  0  0  0  0  0  0  0  0  0  0
   -0.0251    0.4663    1.0371 N   0  0  0  0  0  0  0  0  0  0  0  0
   -0.3744    0.0185   -0.2037 C   0  0  0  0  0  0  0  0  0  0  0  0
   -6.6271    1.0285    1.4222 H   0  0  0  0  0  0  0  0  0  0  0  0
   -4.5067    1.5741    2.7788 H   0  0  0  0  0  0  0  0  0  0  0  0
   -4.6625   -0.1869    3.0834 H   0  0  0  0  0  0  0  0  0  0  0  0
   -4.6738    1.1199    0.3031 H   0  0  0  0  0  0  0  0  0  0  0  0
   -2.3269   -1.6692    0.8612 H   0  0  0  0  0  0  0  0  0  0  0  0
   -3.8326   -2.3703   -0.8281 H   0  0  0  0  0  0  0  0  0  0  0  0
   -3.6872    0.3889   -1.5700 H   0  0  0  0  0  0  0  0  0  0  0  0
   -4.8339   -1.7783    1.2935 H   0  0  0  0  0  0  0  0  0  0  0  0
   -6.3807   -1.5398   -0.7421 H   0  0  0  0  0  0  0  0  0  0  0  0
   -2.0334   -1.2664   -2.6207 H   0  0  0  0  0  0  0  0  0  0  0  0
    2.3946    0.5396   -2.9772 H   0  0  0  0  0  0  0  0  0  0  0  0
    3.8763    2.4684   -1.3393 H   0  0  0  0  0  0  0  0  0  0  0  0
    4.4990    1.6335   -2.7686 H   0  0  0  0  0  0  0  0  0  0  0  0
    6.1125    2.2721   -0.5430 H   0  0  0  0  0  0  0  0  0  0  0  0
    7.5557    0.9918    0.9599 H   0  0  0  0  0  0  0  0  0  0  0  0
    7.0588   -1.3370    1.4583 H   0  0  0  0  0  0  0  0  0  0  0  0
    3.6281   -1.1804   -1.0552 H   0  0  0  0  0  0  0  0  0  0  0  0
    1.4334    1.3850    2.2921 H   0  0  0  0  0  0  0  0  0  0  0  0
  1  2  1  0
  2  3  1  0
  3  4  1  0
  4  5  1  0
  5  6  1  0
  6  7  1  0
  6  8  1  0
  8  9  1  0
  5 10  1  0
 10 11  1  0
 11 12  2  0
 12 13  1  0
 13 14  2  0
 14 15  1  0
 15 16  1  0
 16 17  1  0
 17 18  2  0
 18 19  1  0
 19 20  2  0
 20 21  1  0
 21 22  1  0
 21 23  2  0
 14 24  1  0
 24 25  2  0
 25 26  1  0
 26 27  2  0
  8  3  1  0
 27 10  1  0
 27 13  1  0
 23 17  1  0
  1 28  1  0
  2 29  1  0
  2 30  1  0
  3 31  1  6
  5 32  1  1
  6 33  1  6
  7 34  1  0
  8 35  1  1
  9 36  1  0
 11 37  1  0
 15 38  1  0
 16 39  1  0
 16 40  1  0
 18 41  1  0
 19 42  1  0
 20 43  1  0
 23 44  1  0
 25 45  1  0
M  END
$$$$
[H]c1nc2c([H])c(OC([H])([H])[H])c(OC([H])([H])[H])c([H])c2c(Oc2c([H])c([H])c(N([H])C(=O)c3nn(C([H])([H])[H])c4c([H])c([H])c([H])c([H])c4c3=O)c([H])c2F)c1[H]
     RDKit          3D

 58 62  0  0  0  0  0  0  0  0999 V2000
    6.9866    2.5157   -2.0541 C   0  0  0  0  0  0  0  0  0  0  0  0
    7.7408    1.5970   -1.2868 O   0  0  0  0  0  0  0  0  0  0  0  0
    7.0940    0.6208   -0.5685 C   0  0  0  0  0  0  0  0  0  0  0  0
    5.7008    0.5312   -0.5920 C   0  0  0  0  0  0  0  0  0  0  0  0
    5.0548   -0.4485    0.1291 C   0  0  0  0  0  0  0  0  0  0  0  0
    3.6528   -0.5071    0.0810 C   0  0  0  0  0  0  0  0  0  0  0  0
    2.9522    0.4127   -0.6799 O   0  0  0  0  0  0  0  0  0  0  0  0
    1.5753    0.4192   -0.6788 C   0  0  0  0  0  0  0  0  0  0  0  0
    0.8636    0.1312   -1.8404 C   0  0  0  0  0  0  0  0  0  0  0  0
   -0.5016    0.1312   -1.8731 C   0  0  0  0  0  0  0  0  0  0  0  0
   -1.2689    0.4236   -0.7295 C   0  0  0  0  0  0  0  0  0  0  0  0
   -2.7046    0.4310   -0.8777 N   0  0  0  0  0  0  0  0  0  0  0  0
   -3.5428    0.0841    0.1557 C   0  0  0  0  0  0  0  0  0  0  0  0
   -3.0049   -0.2662    1.2682 O   0  0  0  0  0  0  0  0  0  0  0  0
   -4.9962    0.0873    0.0727 C   0  0  0  0  0  0  0  0  0  0  0  0
   -5.7071   -0.3050    1.1883 N   0  0  0  0  0  0  0  0  0  0  0  0
   -7.0121   -0.3401    1.2309 N   0  0  0  0  0  0  0  0  0  0  0  0
   -7.7042   -0.7669    2.4485 C   0  0  0  0  0  0  0  0  0  0  0  0
   -7.7960    0.0008    0.1966 C   0  0  0  0  0  0  0  0  0  0  0  0
   -9.1936   -0.0472    0.2724 C   0  0  0  0  0  0  0  0  0  0  0  0
   -9.9684    0.3146   -0.8227 C   0  0  0  0  0  0  0  0  0  0  0  0
   -9.3340    0.7187   -1.9765 C   0  0  0  0  0  0  0  0  0  0  0  0
   -7.9358    0.7615   -2.0369 C   0  0  0  0  0  0  0  0  0  0  0  0
   -7.1695    0.4030   -0.9519 C   0  0  0  0  0  0  0  0  0  0  0  0
   -5.7669    0.4388   -0.9918 C   0  0  0  0  0  0  0  0  0  0  0  0
   -5.2492    0.8115   -2.0584 O   0  0  0  0  0  0  0  0  0  0  0  0
   -0.5886    0.7086    0.4133 C   0  0  0  0  0  0  0  0  0  0  0  0
    0.8129    0.7033    0.4259 C   0  0  0  0  0  0  0  0  0  0  0  0
    1.4255    1.0250    1.6013 F   0  0  0  0  0  0  0  0  0  0  0  0
    3.0757   -1.5058    0.8206 C   0  0  0  0  0  0  0  0  0  0  0  0
    3.8339   -2.3989    1.5686 C   0  0  0  0  0  0  0  0  0  0  0  0
    5.1642   -2.2790    1.5646 N   0  0  0  0  0  0  0  0  0  0  0  0
    5.8061   -1.3268    0.8647 C   0  0  0  0  0  0  0  0  0  0  0  0
    7.1997   -1.2436    0.8932 C   0  0  0  0  0  0  0  0  0  0  0  0
    7.8555   -0.2669    0.1750 C   0  0  0  0  0  0  0  0  0  0  0  0
    9.2392   -0.1570    0.1821 O   0  0  0  0  0  0  0  0  0  0  0  0
    9.9794   -1.0753    0.9481 C   0  0  0  0  0  0  0  0  0  0  0  0
    7.6988    3.0815   -2.7059 H   0  0  0  0  0  0  0  0  0  0  0  0
    6.2648    2.0128   -2.7194 H   0  0  0  0  0  0  0  0  0  0  0  0
    6.4172    3.2323   -1.4298 H   0  0  0  0  0  0  0  0  0  0  0  0
    5.0995    1.2214   -1.1707 H   0  0  0  0  0  0  0  0  0  0  0  0
    1.4647   -0.0946   -2.7234 H   0  0  0  0  0  0  0  0  0  0  0  0
   -1.0468   -0.0948   -2.7842 H   0  0  0  0  0  0  0  0  0  0  0  0
   -3.0733    0.7139   -1.8159 H   0  0  0  0  0  0  0  0  0  0  0  0
   -8.3896   -1.5972    2.1841 H   0  0  0  0  0  0  0  0  0  0  0  0
   -8.3298    0.0760    2.7801 H   0  0  0  0  0  0  0  0  0  0  0  0
   -6.9541   -1.0632    3.2086 H   0  0  0  0  0  0  0  0  0  0  0  0
   -9.6727   -0.3660    1.1838 H   0  0  0  0  0  0  0  0  0  0  0  0
  -11.0500    0.2634   -0.7228 H   0  0  0  0  0  0  0  0  0  0  0  0
   -9.9501    0.9955   -2.8155 H   0  0  0  0  0  0  0  0  0  0  0  0
   -7.4278    1.0768   -2.9367 H   0  0  0  0  0  0  0  0  0  0  0  0
   -1.1194    0.9665    1.3277 H   0  0  0  0  0  0  0  0  0  0  0  0
    2.0029   -1.6480    0.8386 H   0  0  0  0  0  0  0  0  0  0  0  0
    3.3578   -3.1849    2.1499 H   0  0  0  0  0  0  0  0  0  0  0  0
    7.7710   -1.9422    1.4765 H   0  0  0  0  0  0  0  0  0  0  0  0
    9.6564   -0.9323    2.0112 H   0  0  0  0  0  0  0  0  0  0  0  0
   11.0611   -0.9463    0.8628 H   0  0  0  0  0  0  0  0  0  0  0  0
    9.6508   -2.1073    0.6783 H   0  0  0  0  0  0  0  0  0  0  0  0
  1  2  1  0
  2  3  1  0
  3  4  2  0
  4  5  1  0
  5  6  2  0
  6  7  1  0
  7  8  1  0
  8  9  2  0
  9 10  1  0
 10 11  2  0
 11 12  1  0
 12 13  1  0
 13 14  2  0
 13 15  1  0
 15 16  2  0
 16 17  1  0
 17 18  1  0
 17 19  1  0
 19 20  2  0
 20 21  1  0
 21 22  2  0
 22 23  1  0
 23 24  2  0
 24 25  1  0
 25 26  2  0
 11 27  1  0
 27 28  2  0
 28 29  1  0
  6 30  1  0
 30 31  2  0
 31 32  1  0
 32 33  2  0
 33 34  1  0
 34 35  2  0
 35 36  1  0
 36 37  1  0
 35  3  1  0
 33  5  1  0
 28  8  1  0
 25 15  1  0
 24 19  1  0
  1 38  1  0
  1 39  1  0
  1 40  1  0
  4 41  1  0
  9 42  1  0
 10 43  1  0
 12 44  1  0
 18 45  1  0
 18 46  1  0
 18 47  1  0
 20 48  1  0
 21 49  1  0
 22 50  1  0
 23 51  1  0
 27 52  1  0
 30 53  1  0
 31 54  1  0
 34 55  1  0
 37 56  1  0
 37 57  1  0
 37 58  1  0
M  END
$$$$
[H]C1=C2C([H])([H])C([H])([H])[C@]3([H])[C@]([H])(C([H])([H])C([H])([H])[C@]4(C([H])([H])[H])C(C([H])([H])[H])(C([H])([H])[H])C([H])([H])C([H])([H])[C@@]43[H])[C@@]2(C([H])([H])[H])C([H])([H])C([H])([H])C1=O
     RDKit          3D

 54 57  0  0  0  0  0  0  0  0999 V2000
   -2.5383    2.0941   -0.2510 C   0  0  0  0  0  0  0  0  0  0  0  0
   -1.8627    0.7578    0.1067 C   0  0  2  0  0  0  0  0  0  0  0  0
   -0.9302    1.0548    1.2246 C   0  0  0  0  0  0  0  0  0  0  0  0
    0.3936    1.5130    0.5880 C   0  0  0  0  0  0  0  0  0  0  0  0
    0.9631    0.2530    0.0531 C   0  0  1  0  0  0  0  0  0  0  0  0
    0.1518   -0.2425   -1.0973 C   0  0  1  0  0  0  0  0  0  0  0  0
    0.4942   -1.7245   -1.2410 C   0  0  0  0  0  0  0  0  0  0  0  0
    1.9973   -1.8404   -1.5646 C   0  0  0  0  0  0  0  0  0  0  0  0
    2.8014   -1.1142   -0.5458 C   0  0  0  0  0  0  0  0  0  0  0  0
    3.7804   -1.7465    0.0747 C   0  0  0  0  0  0  0  0  0  0  0  0
    4.5680   -1.0394    1.0751 C   0  0  0  0  0  0  0  0  0  0  0  0
    5.7510   -1.3437    1.2856 O   0  0  0  0  0  0  0  0  0  0  0  0
    3.8146    0.0427    1.7809 C   0  0  0  0  0  0  0  0  0  0  0  0
    3.3146    0.9440    0.6784 C   0  0  0  0  0  0  0  0  0  0  0  0
    2.4265    0.2997   -0.3051 C   0  0  2  0  0  0  0  0  0  0  0  0
    2.5585    1.1235   -1.6031 C   0  0  0  0  0  0  0  0  0  0  0  0
   -1.2802    0.0716   -1.0854 C   0  0  1  0  0  0  0  0  0  0  0  0
   -2.2445   -1.0623   -1.3019 C   0  0  0  0  0  0  0  0  0  0  0  0
   -2.6036   -1.4855    0.1043 C   0  0  0  0  0  0  0  0  0  0  0  0
   -2.9727   -0.1051    0.6682 C   0  0  0  0  0  0  0  0  0  0  0  0
   -4.3203    0.2400    0.1450 C   0  0  0  0  0  0  0  0  0  0  0  0
   -2.9659   -0.2073    2.1486 C   0  0  0  0  0  0  0  0  0  0  0  0
   -1.8438    2.9439    0.0175 H   0  0  0  0  0  0  0  0  0  0  0  0
   -3.4503    2.2589    0.3170 H   0  0  0  0  0  0  0  0  0  0  0  0
   -2.6545    2.1640   -1.3523 H   0  0  0  0  0  0  0  0  0  0  0  0
   -1.2816    1.9227    1.8124 H   0  0  0  0  0  0  0  0  0  0  0  0
   -0.7266    0.1661    1.8721 H   0  0  0  0  0  0  0  0  0  0  0  0
    0.9450    1.9893    1.3944 H   0  0  0  0  0  0  0  0  0  0  0  0
    0.0957    2.2388   -0.2174 H   0  0  0  0  0  0  0  0  0  0  0  0
    0.8802   -0.5202    0.8739 H   0  0  0  0  0  0  0  0  0  0  0  0
    0.6448    0.1952   -2.0212 H   0  0  0  0  0  0  0  0  0  0  0  0
    0.0244   -2.1770   -2.1440 H   0  0  0  0  0  0  0  0  0  0  0  0
    0.3522   -2.2910   -0.3223 H   0  0  0  0  0  0  0  0  0  0  0  0
    2.2017   -2.9387   -1.5503 H   0  0  0  0  0  0  0  0  0  0  0  0
    2.2081   -1.4908   -2.5804 H   0  0  0  0  0  0  0  0  0  0  0  0
    3.9890   -2.7900   -0.1739 H   0  0  0  0  0  0  0  0  0  0  0  0
    2.9562   -0.4185    2.2720 H   0  0  0  0  0  0  0  0  0  0  0  0
    4.4728    0.6048    2.4739 H   0  0  0  0  0  0  0  0  0  0  0  0
    4.2529    1.2537    0.1193 H   0  0  0  0  0  0  0  0  0  0  0  0
    2.9401    1.8973    1.0970 H   0  0  0  0  0  0  0  0  0  0  0  0
    2.6369    0.4744   -2.4925 H   0  0  0  0  0  0  0  0  0  0  0  0
    1.7424    1.8741   -1.6677 H   0  0  0  0  0  0  0  0  0  0  0  0
    3.5036    1.7347   -1.5874 H   0  0  0  0  0  0  0  0  0  0  0  0
   -1.4893    0.7698   -1.9594 H   0  0  0  0  0  0  0  0  0  0  0  0
   -3.2117   -0.6452   -1.7225 H   0  0  0  0  0  0  0  0  0  0  0  0
   -1.9549   -1.8493   -1.9678 H   0  0  0  0  0  0  0  0  0  0  0  0
   -3.5146   -2.0909    0.1190 H   0  0  0  0  0  0  0  0  0  0  0  0
   -1.7862   -1.9035    0.6816 H   0  0  0  0  0  0  0  0  0  0  0  0
   -4.9066    0.8569    0.8686 H   0  0  0  0  0  0  0  0  0  0  0  0
   -4.9099   -0.6965    0.0157 H   0  0  0  0  0  0  0  0  0  0  0  0
   -4.3250    0.7978   -0.8060 H   0  0  0  0  0  0  0  0  0  0  0  0
   -2.4031   -1.1043    2.5293 H   0  0  0  0  0  0  0  0  0  0  0  0
   -2.6548    0.6942    2.6879 H   0  0  0  0  0  0  0  0  0  0  0  0
   -4.0295   -0.4032    2.4756 H   0  0  0  0  0  0  0  0  0  0  0  0
  2  1  1  6
  2  3  1  0
  3  4  1  0
  4  5  1  0
  5  6  1  0
  6  7  1  0
  7  8  1  0
  8  9  1  0
  9 10  2  0
 10 11  1  0
 11 12  2  0
 11 13  1  0
 13 14  1  0
 14 15  1  0
 15 16  1  6
  6 17  1  0
 17 18  1  0
 18 19  1  0
 19 20  1  0
 20 21  1  0
 20 22  1  0
 17  2  1  0
 20  2  1  0
 15  5  1  0
 15  9  1  0
  1 23  1  0
  1 24  1  0
  1 25  1  0
  3 26  1  0
  3 27  1  0
  4 28  1  0
  4 29  1  0
  5 30  1  1
  6 31  1  6
  7 32  1  0
  7 33  1  0
  8 34  1  0
  8 35  1  0
 10 36  1  0
 13 37  1  0
 13 38  1  0
 14 39  1  0
 14 40  1  0
 16 41  1  0
 16 42  1  0
 16 43  1  0
 17 44  1  6
 18 45  1  0
 18 46  1  0
 19 47  1  0
 19 48  1  0
 21 49  1  0
 21 50  1  0
 21 51  1  0
 22 52  1  0
 22 53  1  0
 22 54  1  0
M  END
$$$$
[H]OC(=O)[C@@]([H])(N([H])C(=O)[C@@]([H])(N([H])C(=O)[C@@]([H])(N([H])C(=O)[C@@]([H])(N([H])[H])C([H])([H])c1c([H])c([H])c(O[H])c([H])c1[H])[C@@]([H])(C([H])([H])[H])C([H])([H])C([H])([H])[H])C([H])([H])c1c([H])n([H])c2c([H])c([H])c([H])c([H])c12)C([H])([H])c1c([H])c([H])c(O[H])c([H])c1[H]
     RDKit          3D

 88 91  0  0  0  0  0  0  0  0999 V2000
   -4.9777   -1.5883    1.6492 C   0  0  0  0  0  0  0  0  0  0  0  0
   -4.1484   -0.3673    1.2951 C   0  0  0  0  0  0  0  0  0  0  0  0
   -2.8602   -0.8802    0.6752 C   0  0  2  0  0  0  0  0  0  0  0  0
   -2.1429   -1.7362    1.6456 C   0  0  0  0  0  0  0  0  0  0  0  0
   -2.0735    0.2471    0.0525 C   0  0  2  0  0  0  0  0  0  0  0  0
   -2.8778    0.8797   -0.9889 N   0  0  0  0  0  0  0  0  0  0  0  0
   -3.0942    2.2619   -0.9468 C   0  0  0  0  0  0  0  0  0  0  0  0
   -2.6101    2.9522   -0.0283 O   0  0  0  0  0  0  0  0  0  0  0  0
   -3.8951    2.9298   -1.9881 C   0  0  1  0  0  0  0  0  0  0  0  0
   -4.3897    1.9859   -2.9783 N   0  0  0  0  0  0  0  0  0  0  0  0
   -4.9620    3.7855   -1.4220 C   0  0  0  0  0  0  0  0  0  0  0  0
   -5.9701    3.0952   -0.5822 C   0  0  0  0  0  0  0  0  0  0  0  0
   -7.0623    2.4813   -1.1750 C   0  0  0  0  0  0  0  0  0  0  0  0
   -8.0147    1.8603   -0.4159 C   0  0  0  0  0  0  0  0  0  0  0  0
   -7.9365    1.8148    0.9612 C   0  0  0  0  0  0  0  0  0  0  0  0
   -8.9014    1.1850    1.7389 O   0  0  0  0  0  0  0  0  0  0  0  0
   -6.8556    2.4223    1.5534 C   0  0  0  0  0  0  0  0  0  0  0  0
   -5.8829    3.0558    0.7902 C   0  0  0  0  0  0  0  0  0  0  0  0
   -0.7646   -0.2022   -0.5151 C   0  0  0  0  0  0  0  0  0  0  0  0
   -0.7145   -0.1493   -1.7792 O   0  0  0  0  0  0  0  0  0  0  0  0
    0.2885   -0.6316    0.2894 N   0  0  0  0  0  0  0  0  0  0  0  0
    1.5662   -1.1054   -0.0924 C   0  0  1  0  0  0  0  0  0  0  0  0
    1.6732   -1.9560   -1.3227 C   0  0  0  0  0  0  0  0  0  0  0  0
    0.9057   -3.2361   -1.1829 C   0  0  0  0  0  0  0  0  0  0  0  0
   -0.2951   -3.6325   -1.6871 C   0  0  0  0  0  0  0  0  0  0  0  0
   -0.5435   -4.8659   -1.2691 N   0  0  0  0  0  0  0  0  0  0  0  0
    0.4773   -5.2895   -0.4959 C   0  0  0  0  0  0  0  0  0  0  0  0
    0.6827   -6.5072    0.1692 C   0  0  0  0  0  0  0  0  0  0  0  0
    1.8453   -6.6608    0.8955 C   0  0  0  0  0  0  0  0  0  0  0  0
    2.7743   -5.6439    0.9620 C   0  0  0  0  0  0  0  0  0  0  0  0
    2.5833   -4.4452    0.3138 C   0  0  0  0  0  0  0  0  0  0  0  0
    1.4088   -4.2851   -0.4214 C   0  0  0  0  0  0  0  0  0  0  0  0
    2.5272   -0.0018   -0.1324 C   0  0  0  0  0  0  0  0  0  0  0  0
    2.1500    1.1885    0.1473 O   0  0  0  0  0  0  0  0  0  0  0  0
    3.8973   -0.1560   -0.4699 N   0  0  0  0  0  0  0  0  0  0  0  0
    4.8334    0.9692   -0.4999 C   0  0  1  0  0  0  0  0  0  0  0  0
    5.8483    0.7414    0.5623 C   0  0  0  0  0  0  0  0  0  0  0  0
    6.8842    1.7655    0.6938 C   0  0  0  0  0  0  0  0  0  0  0  0
    6.6354    2.8815    1.4945 C   0  0  0  0  0  0  0  0  0  0  0  0
    7.6207    3.8316    1.6390 C   0  0  0  0  0  0  0  0  0  0  0  0
    8.8393    3.6913    1.0057 C   0  0  0  0  0  0  0  0  0  0  0  0
    9.8431    4.6376    1.1395 O   0  0  0  0  0  0  0  0  0  0  0  0
    9.1026    2.5851    0.2045 C   0  0  0  0  0  0  0  0  0  0  0  0
    8.1267    1.6489    0.0644 C   0  0  0  0  0  0  0  0  0  0  0  0
    5.3206    1.2340   -1.8468 C   0  0  0  0  0  0  0  0  0  0  0  0
    6.1627    2.2838   -2.1296 O   0  0  0  0  0  0  0  0  0  0  0  0
    4.9766    0.4902   -2.8340 O   0  0  0  0  0  0  0  0  0  0  0  0
   -4.8054   -1.9224    2.6951 H   0  0  0  0  0  0  0  0  0  0  0  0
   -6.0577   -1.4128    1.4753 H   0  0  0  0  0  0  0  0  0  0  0  0
   -4.7048   -2.4592    1.0057 H   0  0  0  0  0  0  0  0  0  0  0  0
   -3.9539    0.2770    2.1686 H   0  0  0  0  0  0  0  0  0  0  0  0
   -4.6902    0.1603    0.4724 H   0  0  0  0  0  0  0  0  0  0  0  0
   -3.1841   -1.5356   -0.1900 H   0  0  0  0  0  0  0  0  0  0  0  0
   -2.9052   -2.4713    2.0590 H   0  0  0  0  0  0  0  0  0  0  0  0
   -1.7982   -1.1983    2.5552 H   0  0  0  0  0  0  0  0  0  0  0  0
   -1.3694   -2.3994    1.2035 H   0  0  0  0  0  0  0  0  0  0  0  0
   -1.8538    0.9986    0.8184 H   0  0  0  0  0  0  0  0  0  0  0  0
   -3.2739    0.2907   -1.7409 H   0  0  0  0  0  0  0  0  0  0  0  0
   -3.1906    3.5962   -2.5773 H   0  0  0  0  0  0  0  0  0  0  0  0
   -3.5997    1.6599   -3.5519 H   0  0  0  0  0  0  0  0  0  0  0  0
   -4.9679    1.2296   -2.5614 H   0  0  0  0  0  0  0  0  0  0  0  0
   -5.5379    4.3399   -2.2203 H   0  0  0  0  0  0  0  0  0  0  0  0
   -4.5499    4.6096   -0.7854 H   0  0  0  0  0  0  0  0  0  0  0  0
   -7.1511    2.5008   -2.2586 H   0  0  0  0  0  0  0  0  0  0  0  0
   -8.8857    1.3699   -0.8772 H   0  0  0  0  0  0  0  0  0  0  0  0
   -8.7781    0.2040    1.9566 H   0  0  0  0  0  0  0  0  0  0  0  0
   -6.7409    2.4182    2.6396 H   0  0  0  0  0  0  0  0  0  0  0  0
   -5.0401    3.5352    1.3161 H   0  0  0  0  0  0  0  0  0  0  0  0
    0.1405   -0.5753    1.3438 H   0  0  0  0  0  0  0  0  0  0  0  0
    1.8588   -1.8457    0.7418 H   0  0  0  0  0  0  0  0  0  0  0  0
    1.4038   -1.4240   -2.2578 H   0  0  0  0  0  0  0  0  0  0  0  0
    2.7293   -2.2555   -1.4345 H   0  0  0  0  0  0  0  0  0  0  0  0
   -0.9315   -3.0398   -2.3186 H   0  0  0  0  0  0  0  0  0  0  0  0
   -1.3880   -5.4849   -1.4687 H   0  0  0  0  0  0  0  0  0  0  0  0
   -0.0573   -7.2934    0.1055 H   0  0  0  0  0  0  0  0  0  0  0  0
    2.0520   -7.5976    1.4352 H   0  0  0  0  0  0  0  0  0  0  0  0
    3.6719   -5.8252    1.5505 H   0  0  0  0  0  0  0  0  0  0  0  0
    3.3129   -3.6504    0.3595 H   0  0  0  0  0  0  0  0  0  0  0  0
    4.2210   -1.1201   -0.6986 H   0  0  0  0  0  0  0  0  0  0  0  0
    4.2239    1.8708   -0.1994 H   0  0  0  0  0  0  0  0  0  0  0  0
    5.2660    0.6342    1.5291 H   0  0  0  0  0  0  0  0  0  0  0  0
    6.3661   -0.2176    0.3328 H   0  0  0  0  0  0  0  0  0  0  0  0
    5.6893    3.0153    2.0017 H   0  0  0  0  0  0  0  0  0  0  0  0
    7.4201    4.7084    2.2705 H   0  0  0  0  0  0  0  0  0  0  0  0
    9.8603    5.3930    0.4739 H   0  0  0  0  0  0  0  0  0  0  0  0
   10.0479    2.4465   -0.3054 H   0  0  0  0  0  0  0  0  0  0  0  0
    8.2562    0.7583   -0.5438 H   0  0  0  0  0  0  0  0  0  0  0  0
    6.8950    2.1471   -2.8027 H   0  0  0  0  0  0  0  0  0  0  0  0
  1  2  1  0
  2  3  1  0
  3  4  1  0
  3  5  1  0
  5  6  1  0
  6  7  1  0
  7  8  2  0
  7  9  1  0
  9 10  1  0
  9 11  1  0
 11 12  1  0
 12 13  2  0
 13 14  1  0
 14 15  2  0
 15 16  1  0
 15 17  1  0
 17 18  2  0
  5 19  1  0
 19 20  2  0
 19 21  1  0
 21 22  1  0
 22 23  1  0
 23 24  1  0
 24 25  2  0
 25 26  1  0
 26 27  1  0
 27 28  2  0
 28 29  1  0
 29 30  2  0
 30 31  1  0
 31 32  2  0
 22 33  1  0
 33 34  2  0
 33 35  1  0
 35 36  1  0
 36 37  1  0
 37 38  1  0
 38 39  2  0
 39 40  1  0
 40 41  2  0
 41 42  1  0
 41 43  1  0
 43 44  2  0
 36 45  1  0
 45 46  1  0
 45 47  2  0
 18 12  1  0
 32 24  1  0
 44 38  1  0
 32 27  1  0
  1 48  1  0
  1 49  1  0
  1 50  1  0
  2 51  1  0
  2 52  1  0
  3 53  1  6
  4 54  1  0
  4 55  1  0
  4 56  1  0
  5 57  1  1
  6 58  1  0
  9 59  1  6
 10 60  1  0
 10 61  1  0
 11 62  1  0
 11 63  1  0
 13 64  1  0
 14 65  1  0
 16 66  1  0
 17 67  1  0
 18 68  1  0
 21 69  1  0
 22 70  1  1
 23 71  1  0
 23 72  1  0
 25 73  1  0
 26 74  1  0
 28 75  1  0
 29 76  1  0
 30 77  1  0
 31 78  1  0
 35 79  1  0
 36 80  1  1
 37 81  1  0
 37 82  1  0
 39 83  1  0
 40 84  1  0
 42 85  1  0
 43 86  1  0
 44 87  1  0
 46 88  1  0
M  END
$$$$
[H]c1nc(N([H])c2c([H])c([H])c(N3C([H])([H])C([H])([H])C(C([H])([H])[H])(C([H])([H])[H])C([H])([H])C3([H])[H])c([H])c2OC([H])([H])[H])nc(N([H])c2c([H])c([H])c([H])c([H])c2C(=O)N([H])[H])c1Cl
     RDKit          3D

 63 66  0  0  0  0  0  0  0  0999 V2000
    0.9060   -3.7457   -1.1539 C   0  0  0  0  0  0  0  0  0  0  0  0
    0.3625   -2.5370   -0.7617 O   0  0  0  0  0  0  0  0  0  0  0  0
    0.9753   -1.3693   -0.4245 C   0  0  0  0  0  0  0  0  0  0  0  0
    2.3430   -1.2730   -0.4414 C   0  0  0  0  0  0  0  0  0  0  0  0
    3.0621   -0.1638   -0.1250 C   0  0  0  0  0  0  0  0  0  0  0  0
    2.3366    0.9574    0.2462 C   0  0  0  0  0  0  0  0  0  0  0  0
    0.9393    0.8856    0.2715 C   0  0  0  0  0  0  0  0  0  0  0  0
    0.2364   -0.2290   -0.0485 C   0  0  0  0  0  0  0  0  0  0  0  0
   -1.1369   -0.3417   -0.0700 N   0  0  0  0  0  0  0  0  0  0  0  0
   -2.1264    0.6333    0.2850 C   0  0  0  0  0  0  0  0  0  0  0  0
   -1.9019    1.8473    0.7302 N   0  0  0  0  0  0  0  0  0  0  0  0
   -2.9003    2.6826    1.0075 C   0  0  0  0  0  0  0  0  0  0  0  0
   -4.2108    2.3348    0.8485 C   0  0  0  0  0  0  0  0  0  0  0  0
   -5.5046    3.4536    1.1294 Cl  0  0  0  0  0  0  0  0  0  0  0  0
   -4.5231    1.0217    0.3675 C   0  0  0  0  0  0  0  0  0  0  0  0
   -5.7941    0.6242    0.2361 N   0  0  0  0  0  0  0  0  0  0  0  0
   -7.0966    0.2119    0.0989 C   0  0  0  0  0  0  0  0  0  0  0  0
   -7.4925   -0.1931   -1.2019 C   0  0  0  0  0  0  0  0  0  0  0  0
   -8.8380   -0.3818   -1.5234 C   0  0  0  0  0  0  0  0  0  0  0  0
   -9.7637   -0.1665   -0.5504 C   0  0  0  0  0  0  0  0  0  0  0  0
   -9.4194    0.2200    0.7153 C   0  0  0  0  0  0  0  0  0  0  0  0
   -8.0675    0.4043    1.0280 C   0  0  0  0  0  0  0  0  0  0  0  0
   -7.7774    0.6601    2.4463 C   0  0  0  0  0  0  0  0  0  0  0  0
   -8.8109    0.9161    3.3721 N   0  0  0  0  0  0  0  0  0  0  0  0
   -6.6140    0.6616    2.9009 O   0  0  0  0  0  0  0  0  0  0  0  0
   -3.4203    0.2973    0.1321 N   0  0  0  0  0  0  0  0  0  0  0  0
    4.4820   -0.0666   -0.1433 N   0  0  0  0  0  0  0  0  0  0  0  0
    5.2500   -1.2682   -0.3644 C   0  0  0  0  0  0  0  0  0  0  0  0
    6.5671   -1.1204    0.3902 C   0  0  0  0  0  0  0  0  0  0  0  0
    7.3640    0.0616   -0.0870 C   0  0  0  0  0  0  0  0  0  0  0  0
    8.3521   -0.3509   -1.1360 C   0  0  0  0  0  0  0  0  0  0  0  0
    8.1446    0.5623    1.1370 C   0  0  0  0  0  0  0  0  0  0  0  0
    6.5089    1.1484   -0.6392 C   0  0  0  0  0  0  0  0  0  0  0  0
    5.1546    1.1948    0.0468 C   0  0  0  0  0  0  0  0  0  0  0  0
    0.9949   -3.7728   -2.2559 H   0  0  0  0  0  0  0  0  0  0  0  0
    0.2567   -4.5915   -0.8396 H   0  0  0  0  0  0  0  0  0  0  0  0
    1.9348   -3.9165   -0.7669 H   0  0  0  0  0  0  0  0  0  0  0  0
    2.9328   -2.1579   -0.7285 H   0  0  0  0  0  0  0  0  0  0  0  0
    2.8671    1.8608    0.5074 H   0  0  0  0  0  0  0  0  0  0  0  0
    0.4842    1.8167    0.5706 H   0  0  0  0  0  0  0  0  0  0  0  0
   -1.5470   -1.2707   -0.3954 H   0  0  0  0  0  0  0  0  0  0  0  0
   -2.6998    3.6891    1.3771 H   0  0  0  0  0  0  0  0  0  0  0  0
   -5.4173   -0.6268   -0.1464 H   0  0  0  0  0  0  0  0  0  0  0  0
   -6.7708   -0.3569   -1.9735 H   0  0  0  0  0  0  0  0  0  0  0  0
   -9.0667   -0.6912   -2.5323 H   0  0  0  0  0  0  0  0  0  0  0  0
  -10.7946   -0.3023   -0.7868 H   0  0  0  0  0  0  0  0  0  0  0  0
  -10.1368    0.3968    1.4892 H   0  0  0  0  0  0  0  0  0  0  0  0
   -9.6389    0.2957    3.4540 H   0  0  0  0  0  0  0  0  0  0  0  0
   -8.7493    1.7458    3.9907 H   0  0  0  0  0  0  0  0  0  0  0  0
    5.4041   -1.4644   -1.4393 H   0  0  0  0  0  0  0  0  0  0  0  0
    4.7554   -2.1545    0.1327 H   0  0  0  0  0  0  0  0  0  0  0  0
    6.2854   -1.0513    1.4718 H   0  0  0  0  0  0  0  0  0  0  0  0
    7.1569   -2.0566    0.2345 H   0  0  0  0  0  0  0  0  0  0  0  0
    8.2763    0.3035   -2.0342 H   0  0  0  0  0  0  0  0  0  0  0  0
    8.1547   -1.4001   -1.4535 H   0  0  0  0  0  0  0  0  0  0  0  0
    9.3757   -0.3401   -0.7254 H   0  0  0  0  0  0  0  0  0  0  0  0
    9.1309    0.0266    1.1689 H   0  0  0  0  0  0  0  0  0  0  0  0
    7.5890    0.2931    2.0411 H   0  0  0  0  0  0  0  0  0  0  0  0
    8.3069    1.6523    1.0088 H   0  0  0  0  0  0  0  0  0  0  0  0
    7.0286    2.1324   -0.5109 H   0  0  0  0  0  0  0  0  0  0  0  0
    6.3727    1.0210   -1.7265 H   0  0  0  0  0  0  0  0  0  0  0  0
    4.6114    2.0297   -0.4315 H   0  0  0  0  0  0  0  0  0  0  0  0
    5.3167    1.3185    1.1364 H   0  0  0  0  0  0  0  0  0  0  0  0
  1  2  1  0
  2  3  1  0
  3  4  2  0
  4  5  1  0
  5  6  2  0
  6  7  1  0
  7  8  2  0
  8  9  1  0
  9 10  1  0
 10 11  2  0
 11 12  1  0
 12 13  2  0
 13 14  1  0
 13 15  1  0
 15 16  1  0
 16 17  1  0
 17 18  2  0
 18 19  1  0
 19 20  2  0
 20 21  1  0
 21 22  2  0
 22 23  1  0
 23 24  1  0
 23 25  2  0
 15 26  2  0
  5 27  1  0
 27 28  1  0
 28 29  1  0
 29 30  1  0
 30 31  1  0
 30 32  1  0
 30 33  1  0
 33 34  1  0
  8  3  1  0
 26 10  1  0
 34 27  1  0
 22 17  1  0
  1 35  1  0
  1 36  1  0
  1 37  1  0
  4 38  1  0
  6 39  1  0
  7 40  1  0
  9 41  1  0
 12 42  1  0
 16 43  1  0
 18 44  1  0
 19 45  1  0
 20 46  1  0
 21 47  1  0
 24 48  1  0
 24 49  1  0
 28 50  1  0
 28 51  1  0
 29 52  1  0
 29 53  1  0
 31 54  1  0
 31 55  1  0
 31 56  1  0
 32 57  1  0
 32 58  1  0
 32 59  1  0
 33 60  1  0
 33 61  1  0
 34 62  1  0
 34 63  1  0
M  END
$$$$
[H]c1c([H])c([C@@]([H])(N([H])C(=O)c2nc3c([H])c([H])c([H])c([H])c3n2[H])C([H])([H])c2c([H])n([H])c3c([H])c([H])c([H])c([H])c23)c([H])c(OC([H])([H])[H])c1OC([H])([H])[H]
     RDKit          3D

 57 61  0  0  0  0  0  0  0  0999 V2000
   -4.6103   -3.3487   -0.9568 C   0  0  0  0  0  0  0  0  0  0  0  0
   -4.3576   -2.6382    0.2571 O   0  0  0  0  0  0  0  0  0  0  0  0
   -3.2543   -1.7939    0.3461 C   0  0  0  0  0  0  0  0  0  0  0  0
   -2.3981   -1.6845   -0.7538 C   0  0  0  0  0  0  0  0  0  0  0  0
   -1.3066   -0.8496   -0.6658 C   0  0  0  0  0  0  0  0  0  0  0  0
   -1.0282   -0.1066    0.4898 C   0  0  0  0  0  0  0  0  0  0  0  0
   -1.9182   -0.2670    1.5285 C   0  0  0  0  0  0  0  0  0  0  0  0
   -3.0135   -1.0824    1.4917 C   0  0  0  0  0  0  0  0  0  0  0  0
   -3.9089   -1.2311    2.5690 O   0  0  0  0  0  0  0  0  0  0  0  0
   -3.6140   -0.4734    3.7299 C   0  0  0  0  0  0  0  0  0  0  0  0
    0.1843    0.7329    0.5423 C   0  0  2  0  0  0  0  0  0  0  0  0
    0.2508    1.7686   -0.5618 C   0  0  0  0  0  0  0  0  0  0  0  0
   -0.8563    2.7342   -0.5532 C   0  0  0  0  0  0  0  0  0  0  0  0
   -1.6468    3.1940    0.4599 C   0  0  0  0  0  0  0  0  0  0  0  0
   -2.5067    4.0893   -0.0144 N   0  0  0  0  0  0  0  0  0  0  0  0
   -2.3175    4.2491   -1.3426 C   0  0  0  0  0  0  0  0  0  0  0  0
   -2.9648    5.0593   -2.2376 C   0  0  0  0  0  0  0  0  0  0  0  0
   -2.5786    5.0474   -3.5904 C   0  0  0  0  0  0  0  0  0  0  0  0
   -1.5591    4.2180   -3.9625 C   0  0  0  0  0  0  0  0  0  0  0  0
   -0.9142    3.4025   -3.0322 C   0  0  0  0  0  0  0  0  0  0  0  0
   -1.2827    3.4047   -1.7072 C   0  0  0  0  0  0  0  0  0  0  0  0
    1.3386   -0.1840    0.4028 N   0  0  0  0  0  0  0  0  0  0  0  0
    2.4567   -0.0751    1.2370 C   0  0  0  0  0  0  0  0  0  0  0  0
    2.5494    0.8047    2.1373 O   0  0  0  0  0  0  0  0  0  0  0  0
    3.5740   -0.9960    1.0849 C   0  0  0  0  0  0  0  0  0  0  0  0
    4.7858   -0.9358    1.6475 N   0  0  0  0  0  0  0  0  0  0  0  0
    5.5343   -1.9763    1.2922 C   0  0  0  0  0  0  0  0  0  0  0  0
    6.8312   -2.3721    1.5941 C   0  0  0  0  0  0  0  0  0  0  0  0
    7.4007   -3.5298    1.0849 C   0  0  0  0  0  0  0  0  0  0  0  0
    6.6177   -4.2935    0.2498 C   0  0  0  0  0  0  0  0  0  0  0  0
    5.3273   -3.9289   -0.0692 C   0  0  0  0  0  0  0  0  0  0  0  0
    4.7646   -2.7561    0.4511 C   0  0  0  0  0  0  0  0  0  0  0  0
    3.5763   -2.1385    0.3404 N   0  0  0  0  0  0  0  0  0  0  0  0
   -3.7396   -4.0181   -1.1522 H   0  0  0  0  0  0  0  0  0  0  0  0
   -4.6198   -2.6238   -1.8222 H   0  0  0  0  0  0  0  0  0  0  0  0
   -5.5053   -3.9805   -0.9162 H   0  0  0  0  0  0  0  0  0  0  0  0
   -2.6234   -2.2605   -1.6381 H   0  0  0  0  0  0  0  0  0  0  0  0
   -0.6274   -0.7453   -1.4983 H   0  0  0  0  0  0  0  0  0  0  0  0
   -1.7460    0.2869    2.4382 H   0  0  0  0  0  0  0  0  0  0  0  0
   -3.6919    0.6234    3.5403 H   0  0  0  0  0  0  0  0  0  0  0  0
   -4.3068   -0.7083    4.5605 H   0  0  0  0  0  0  0  0  0  0  0  0
   -2.5653   -0.6378    4.0492 H   0  0  0  0  0  0  0  0  0  0  0  0
    0.3356    1.2671    1.4900 H   0  0  0  0  0  0  0  0  0  0  0  0
    0.2400    1.2353   -1.5473 H   0  0  0  0  0  0  0  0  0  0  0  0
    1.1956    2.3428   -0.4898 H   0  0  0  0  0  0  0  0  0  0  0  0
   -1.5839    2.8738    1.4825 H   0  0  0  0  0  0  0  0  0  0  0  0
   -3.2548    4.6369    0.5025 H   0  0  0  0  0  0  0  0  0  0  0  0
   -3.7797    5.7287   -1.9595 H   0  0  0  0  0  0  0  0  0  0  0  0
   -3.1169    5.7087   -4.2843 H   0  0  0  0  0  0  0  0  0  0  0  0
   -1.2438    4.1861   -4.9822 H   0  0  0  0  0  0  0  0  0  0  0  0
   -0.1205    2.7607   -3.3562 H   0  0  0  0  0  0  0  0  0  0  0  0
    1.2293   -0.8832   -0.3567 H   0  0  0  0  0  0  0  0  0  0  0  0
    7.4025   -1.7470    2.2523 H   0  0  0  0  0  0  0  0  0  0  0  0
    8.4184   -3.8123    1.3378 H   0  0  0  0  0  0  0  0  0  0  0  0
    7.0323   -5.2097   -0.1667 H   0  0  0  0  0  0  0  0  0  0  0  0
    4.7259   -4.5371   -0.7238 H   0  0  0  0  0  0  0  0  0  0  0  0
    2.7901   -2.5302   -0.2487 H   0  0  0  0  0  0  0  0  0  0  0  0
  1  2  1  0
  2  3  1  0
  3  4  2  0
  4  5  1  0
  5  6  2  0
  6  7  1  0
  7  8  2  0
  8  9  1  0
  9 10  1  0
  6 11  1  0
 11 12  1  0
 12 13  1  0
 13 14  2  0
 14 15  1  0
 15 16  1  0
 16 17  2  0
 17 18  1  0
 18 19  2  0
 19 20  1  0
 20 21  2  0
 11 22  1  0
 22 23  1  0
 23 24  2  0
 23 25  1  0
 25 26  2  0
 26 27  1  0
 27 28  2  0
 28 29  1  0
 29 30  2  0
 30 31  1  0
 31 32  2  0
 32 33  1  0
  8  3  1  0
 21 13  1  0
 33 25  1  0
 21 16  1  0
 32 27  1  0
  1 34  1  0
  1 35  1  0
  1 36  1  0
  4 37  1  0
  5 38  1  0
  7 39  1  0
 10 40  1  0
 10 41  1  0
 10 42  1  0
 11 43  1  1
 12 44  1  0
 12 45  1  0
 14 46  1  0
 15 47  1  0
 17 48  1  0
 18 49  1  0
 19 50  1  0
 20 51  1  0
 22 52  1  0
 28 53  1  0
 29 54  1  0
 30 55  1  0
 31 56  1  0
 33 57  1  0
M  END
$$$$
[H]c1c([H])c(C(=O)N([H])[C@]([H])(C(=O)N2C([H])([H])C([H])([H])C([H])(N([H])C(=O)c3c([H])c([H])c(OC(F)(F)F)c([H])c3[H])C([H])([H])C2([H])[H])C([H])([H])C([H])(C([H])([H])[H])C([H])([H])[H])c([H])c([H])c1C#N
     RDKit          3D

 67 69  0  0  0  0  0  0  0  0999 V2000
   -0.9213    2.8037   -0.7521 C   0  0  0  0  0  0  0  0  0  0  0  0
   -1.4871    1.5435   -0.0321 C   0  0  0  0  0  0  0  0  0  0  0  0
   -2.6180    2.1426    0.8138 C   0  0  0  0  0  0  0  0  0  0  0  0
   -2.0011    0.6644   -1.1144 C   0  0  0  0  0  0  0  0  0  0  0  0
   -2.5790   -0.6681   -0.7275 C   0  0  2  0  0  0  0  0  0  0  0  0
   -3.7197   -0.5495    0.1657 N   0  0  0  0  0  0  0  0  0  0  0  0
   -5.0105   -0.8452   -0.3031 C   0  0  0  0  0  0  0  0  0  0  0  0
   -5.1543   -1.2041   -1.5073 O   0  0  0  0  0  0  0  0  0  0  0  0
   -6.2157   -0.7687    0.5133 C   0  0  0  0  0  0  0  0  0  0  0  0
   -6.2244   -0.3196    1.8144 C   0  0  0  0  0  0  0  0  0  0  0  0
   -7.3715   -0.2750    2.5754 C   0  0  0  0  0  0  0  0  0  0  0  0
   -8.5778   -0.6793    2.0767 C   0  0  0  0  0  0  0  0  0  0  0  0
   -8.6034   -1.1375    0.7653 C   0  0  0  0  0  0  0  0  0  0  0  0
   -7.4563   -1.1804    0.0043 C   0  0  0  0  0  0  0  0  0  0  0  0
   -9.7869   -0.6443    2.8736 C   0  0  0  0  0  0  0  0  0  0  0  0
  -10.7463   -0.6370    3.5142 N   0  0  0  0  0  0  0  0  0  0  0  0
   -1.5842   -1.6205   -0.1817 C   0  0  0  0  0  0  0  0  0  0  0  0
   -1.9056   -2.0059    1.0322 O   0  0  0  0  0  0  0  0  0  0  0  0
   -0.4327   -2.1518   -0.6949 N   0  0  0  0  0  0  0  0  0  0  0  0
    0.3623   -3.0565    0.1754 C   0  0  0  0  0  0  0  0  0  0  0  0
    1.8251   -2.7205    0.0081 C   0  0  0  0  0  0  0  0  0  0  0  0
    1.9957   -1.3438   -0.6043 C   0  0  0  0  0  0  0  0  0  0  0  0
    1.4861   -1.3526   -1.9926 C   0  0  0  0  0  0  0  0  0  0  0  0
    0.0890   -1.9340   -2.0110 C   0  0  0  0  0  0  0  0  0  0  0  0
    3.4111   -0.9672   -0.6180 N   0  0  0  0  0  0  0  0  0  0  0  0
    3.8880    0.1190    0.1835 C   0  0  0  0  0  0  0  0  0  0  0  0
    3.0160    0.7015    0.8767 O   0  0  0  0  0  0  0  0  0  0  0  0
    5.2928    0.4624    0.1505 C   0  0  0  0  0  0  0  0  0  0  0  0
    6.1065    0.0883   -0.9012 C   0  0  0  0  0  0  0  0  0  0  0  0
    7.4498    0.4536   -0.8208 C   0  0  0  0  0  0  0  0  0  0  0  0
    7.9920    1.1443    0.2157 C   0  0  0  0  0  0  0  0  0  0  0  0
    9.3148    1.5257    0.3366 O   0  0  0  0  0  0  0  0  0  0  0  0
    9.7124    2.7788   -0.1779 C   0  0  0  0  0  0  0  0  0  0  0  0
    9.4971    2.8980   -1.5358 F   0  0  0  0  0  0  0  0  0  0  0  0
   11.0453    2.9731    0.1374 F   0  0  0  0  0  0  0  0  0  0  0  0
    8.9242    3.7733    0.4163 F   0  0  0  0  0  0  0  0  0  0  0  0
    7.1201    1.4937    1.2452 C   0  0  0  0  0  0  0  0  0  0  0  0
    5.7940    1.1732    1.2401 C   0  0  0  0  0  0  0  0  0  0  0  0
   -1.3927    2.9129   -1.7291 H   0  0  0  0  0  0  0  0  0  0  0  0
    0.1661    2.5745   -0.8869 H   0  0  0  0  0  0  0  0  0  0  0  0
   -0.9803    3.6755   -0.0979 H   0  0  0  0  0  0  0  0  0  0  0  0
   -0.7603    1.1165    0.6486 H   0  0  0  0  0  0  0  0  0  0  0  0
   -3.5742    2.0065    0.2889 H   0  0  0  0  0  0  0  0  0  0  0  0
   -2.6279    1.7247    1.8451 H   0  0  0  0  0  0  0  0  0  0  0  0
   -2.4313    3.2368    0.9771 H   0  0  0  0  0  0  0  0  0  0  0  0
   -2.8891    1.2547   -1.5513 H   0  0  0  0  0  0  0  0  0  0  0  0
   -1.2690    0.5404   -1.9205 H   0  0  0  0  0  0  0  0  0  0  0  0
   -2.9591   -1.1090   -1.6724 H   0  0  0  0  0  0  0  0  0  0  0  0
   -3.6196   -0.2656    1.1623 H   0  0  0  0  0  0  0  0  0  0  0  0
   -5.2600    0.0077    2.2292 H   0  0  0  0  0  0  0  0  0  0  0  0
   -7.3137    0.0841    3.5835 H   0  0  0  0  0  0  0  0  0  0  0  0
   -9.5730   -1.4677    0.3573 H   0  0  0  0  0  0  0  0  0  0  0  0
   -7.5285   -1.5400   -1.0109 H   0  0  0  0  0  0  0  0  0  0  0  0
    0.1198   -4.0698   -0.1340 H   0  0  0  0  0  0  0  0  0  0  0  0
    0.0857   -2.9125    1.2281 H   0  0  0  0  0  0  0  0  0  0  0  0
    2.3744   -2.7975    0.9595 H   0  0  0  0  0  0  0  0  0  0  0  0
    2.2587   -3.4530   -0.6952 H   0  0  0  0  0  0  0  0  0  0  0  0
    1.4413   -0.6264    0.0257 H   0  0  0  0  0  0  0  0  0  0  0  0
    2.1424   -1.8912   -2.7051 H   0  0  0  0  0  0  0  0  0  0  0  0
    1.3996   -0.3127   -2.3758 H   0  0  0  0  0  0  0  0  0  0  0  0
    0.2497   -2.9532   -2.5340 H   0  0  0  0  0  0  0  0  0  0  0  0
   -0.6004   -1.4326   -2.6829 H   0  0  0  0  0  0  0  0  0  0  0  0
    4.1065   -1.4734   -1.2000 H   0  0  0  0  0  0  0  0  0  0  0  0
    5.7607   -0.4563   -1.7601 H   0  0  0  0  0  0  0  0  0  0  0  0
    8.1211    0.1705   -1.6387 H   0  0  0  0  0  0  0  0  0  0  0  0
    7.5227    2.0488    2.0886 H   0  0  0  0  0  0  0  0  0  0  0  0
    5.1039    1.4411    2.0409 H   0  0  0  0  0  0  0  0  0  0  0  0
  1  2  1  0
  2  3  1  0
  2  4  1  0
  4  5  1  0
  5  6  1  0
  6  7  1  0
  7  8  2  0
  7  9  1  0
  9 10  2  0
 10 11  1  0
 11 12  2  0
 12 13  1  0
 13 14  2  0
 12 15  1  0
 15 16  3  0
  5 17  1  0
 17 18  2  0
 17 19  1  0
 19 20  1  0
 20 21  1  0
 21 22  1  0
 22 23  1  0
 23 24  1  0
 22 25  1  0
 25 26  1  0
 26 27  2  0
 26 28  1  0
 28 29  2  0
 29 30  1  0
 30 31  2  0
 31 32  1  0
 32 33  1  0
 33 34  1  0
 33 35  1  0
 33 36  1  0
 31 37  1  0
 37 38  2  0
 14  9  1  0
 24 19  1  0
 38 28  1  0
  1 39  1  0
  1 40  1  0
  1 41  1  0
  2 42  1  0
  3 43  1  0
  3 44  1  0
  3 45  1  0
  4 46  1  0
  4 47  1  0
  5 48  1  6
  6 49  1  0
 10 50  1  0
 11 51  1  0
 13 52  1  0
 14 53  1  0
 20 54  1  0
 20 55  1  0
 21 56  1  0
 21 57  1  0
 22 58  1  0
 23 59  1  0
 23 60  1  0
 24 61  1  0
 24 62  1  0
 25 63  1  0
 29 64  1  0
 30 65  1  0
 37 66  1  0
 38 67  1  0
M  END
$$$$
[H]c1nc(N([H])[H])c2c(-c3c([H])c([H])c(C(=O)N([H])[C@]([H])(c4c([H])c([H])c(F)c([H])c4[H])C([H])([H])C([H])(C([H])([H])[H])C([H])([H])[H])c([H])c3[H])c([H])n([H])c2n1
     RDKit          3D

 55 58  0  0  0  0  0  0  0  0999 V2000
   -3.7745    0.5485    4.4613 C   0  0  0  0  0  0  0  0  0  0  0  0
   -3.2711    0.5963    2.9916 C   0  0  0  0  0  0  0  0  0  0  0  0
   -4.2826    1.4266    2.2732 C   0  0  0  0  0  0  0  0  0  0  0  0
   -3.1385   -0.8122    2.5882 C   0  0  0  0  0  0  0  0  0  0  0  0
   -2.6646   -1.1898    1.2634 C   0  0  2  0  0  0  0  0  0  0  0  0
   -1.3492   -0.7507    0.8634 N   0  0  0  0  0  0  0  0  0  0  0  0
   -0.2381   -1.5730    0.6269 C   0  0  0  0  0  0  0  0  0  0  0  0
   -0.3906   -2.8114    0.7744 O   0  0  0  0  0  0  0  0  0  0  0  0
    1.0555   -1.0909    0.2291 C   0  0  0  0  0  0  0  0  0  0  0  0
    2.1245   -1.9573    0.0370 C   0  0  0  0  0  0  0  0  0  0  0  0
    3.3675   -1.5209   -0.3430 C   0  0  0  0  0  0  0  0  0  0  0  0
    3.6041   -0.1675   -0.5531 C   0  0  0  0  0  0  0  0  0  0  0  0
    2.5477    0.6854   -0.3624 C   0  0  0  0  0  0  0  0  0  0  0  0
    1.3346    0.2303    0.0113 C   0  0  0  0  0  0  0  0  0  0  0  0
    4.9301    0.3161   -0.9153 C   0  0  0  0  0  0  0  0  0  0  0  0
    6.0441    0.1767   -0.0769 C   0  0  0  0  0  0  0  0  0  0  0  0
    7.1038    0.7584   -0.6670 N   0  0  0  0  0  0  0  0  0  0  0  0
    6.7485    1.2755   -1.8547 C   0  0  0  0  0  0  0  0  0  0  0  0
    7.3844    1.9374   -2.8341 N   0  0  0  0  0  0  0  0  0  0  0  0
    6.7861    2.3509   -3.9649 C   0  0  0  0  0  0  0  0  0  0  0  0
    5.4835    2.0856   -4.1193 N   0  0  0  0  0  0  0  0  0  0  0  0
    4.7939    1.4221   -3.1643 C   0  0  0  0  0  0  0  0  0  0  0  0
    3.4093    1.1174   -3.3449 N   0  0  0  0  0  0  0  0  0  0  0  0
    5.3956    0.9971   -2.0050 C   0  0  0  0  0  0  0  0  0  0  0  0
   -3.6057   -1.0464    0.1471 C   0  0  0  0  0  0  0  0  0  0  0  0
   -3.5792   -0.0166   -0.7674 C   0  0  0  0  0  0  0  0  0  0  0  0
   -4.4700    0.1074   -1.8120 C   0  0  0  0  0  0  0  0  0  0  0  0
   -5.4556   -0.8376   -1.9779 C   0  0  0  0  0  0  0  0  0  0  0  0
   -6.3204   -0.6929   -3.0144 F   0  0  0  0  0  0  0  0  0  0  0  0
   -5.5264   -1.8896   -1.0894 C   0  0  0  0  0  0  0  0  0  0  0  0
   -4.6228   -1.9899   -0.0530 C   0  0  0  0  0  0  0  0  0  0  0  0
   -3.8303    1.6159    4.7805 H   0  0  0  0  0  0  0  0  0  0  0  0
   -2.9831    0.0810    5.0900 H   0  0  0  0  0  0  0  0  0  0  0  0
   -4.7333    0.0233    4.5261 H   0  0  0  0  0  0  0  0  0  0  0  0
   -2.3296    1.1691    3.0449 H   0  0  0  0  0  0  0  0  0  0  0  0
   -5.0609    0.8034    1.8268 H   0  0  0  0  0  0  0  0  0  0  0  0
   -3.7591    2.0577    1.5141 H   0  0  0  0  0  0  0  0  0  0  0  0
   -4.7419    2.1679    3.0078 H   0  0  0  0  0  0  0  0  0  0  0  0
   -4.1735   -1.2717    2.7148 H   0  0  0  0  0  0  0  0  0  0  0  0
   -2.5512   -1.3540    3.3863 H   0  0  0  0  0  0  0  0  0  0  0  0
   -2.5251   -2.3457    1.3246 H   0  0  0  0  0  0  0  0  0  0  0  0
   -1.2190    0.2719    0.7409 H   0  0  0  0  0  0  0  0  0  0  0  0
    1.9367   -3.0238    0.2028 H   0  0  0  0  0  0  0  0  0  0  0  0
    4.2040   -2.1842   -0.4950 H   0  0  0  0  0  0  0  0  0  0  0  0
    2.7090    1.7621   -0.5104 H   0  0  0  0  0  0  0  0  0  0  0  0
    0.5404    0.9782    0.1423 H   0  0  0  0  0  0  0  0  0  0  0  0
    5.9965   -0.3273    0.8776 H   0  0  0  0  0  0  0  0  0  0  0  0
    8.0771    0.7973   -0.2452 H   0  0  0  0  0  0  0  0  0  0  0  0
    7.3571    2.8934   -4.7410 H   0  0  0  0  0  0  0  0  0  0  0  0
    3.1551    0.1231   -3.5321 H   0  0  0  0  0  0  0  0  0  0  0  0
    2.6631    1.8342   -3.2973 H   0  0  0  0  0  0  0  0  0  0  0  0
   -2.7795    0.7215   -0.6067 H   0  0  0  0  0  0  0  0  0  0  0  0
   -4.3596    0.9639   -2.4804 H   0  0  0  0  0  0  0  0  0  0  0  0
   -6.3150   -2.6268   -1.2392 H   0  0  0  0  0  0  0  0  0  0  0  0
   -4.7016   -2.8154    0.6199 H   0  0  0  0  0  0  0  0  0  0  0  0
  1  2  1  0
  2  3  1  0
  2  4  1  0
  4  5  1  0
  5  6  1  0
  6  7  1  0
  7  8  2  0
  7  9  1  0
  9 10  2  0
 10 11  1  0
 11 12  2  0
 12 13  1  0
 13 14  2  0
 12 15  1  0
 15 16  2  0
 16 17  1  0
 17 18  1  0
 18 19  2  0
 19 20  1  0
 20 21  2  0
 21 22  1  0
 22 23  1  0
 22 24  2  0
  5 25  1  0
 25 26  2  0
 26 27  1  0
 27 28  2  0
 28 29  1  0
 28 30  1  0
 30 31  2  0
 14  9  1  0
 24 15  1  0
 31 25  1  0
 24 18  1  0
  1 32  1  0
  1 33  1  0
  1 34  1  0
  2 35  1  0
  3 36  1  0
  3 37  1  0
  3 38  1  0
  4 39  1  0
  4 40  1  0
  5 41  1  1
  6 42  1  0
 10 43  1  0
 11 44  1  0
 13 45  1  0
 14 46  1  0
 16 47  1  0
 17 48  1  0
 20 49  1  0
 23 50  1  0
 23 51  1  0
 26 52  1  0
 27 53  1  0
 30 54  1  0
 31 55  1  0
M  END
$$$$
[H]c1c([H])c(C(=O)N2C([H])([H])C([H])([H])C([H])(N3C([H])([H])C([H])([H])N(S(=O)(=O)c4c([H])c([H])c(C([H])([H])[H])c([H])c4[H])C([H])([H])C3([H])[H])C([H])([H])C2([H])[H])c([H])c([H])c1Cl
     RDKit          3D

 59 62  0  0  0  0  0  0  0  0999 V2000
   -9.0477    0.1827    1.8312 C   0  0  0  0  0  0  0  0  0  0  0  0
   -7.8222   -0.1295    1.0355 C   0  0  0  0  0  0  0  0  0  0  0  0
   -7.0497   -1.2351    1.3233 C   0  0  0  0  0  0  0  0  0  0  0  0
   -5.9155   -1.5137    0.5765 C   0  0  0  0  0  0  0  0  0  0  0  0
   -5.5101   -0.7136   -0.4729 C   0  0  0  0  0  0  0  0  0  0  0  0
   -6.2841    0.3903   -0.7579 C   0  0  0  0  0  0  0  0  0  0  0  0
   -7.4146    0.6684   -0.0139 C   0  0  0  0  0  0  0  0  0  0  0  0
   -4.0683   -1.0817   -1.4151 S   0  0  0  0  0  0  0  0  0  0  0  0
   -4.2609   -0.6702   -2.8542 O   0  0  0  0  0  0  0  0  0  0  0  0
   -3.9339   -2.5964   -1.4410 O   0  0  0  0  0  0  0  0  0  0  0  0
   -2.6893   -0.4095   -0.8129 N   0  0  0  0  0  0  0  0  0  0  0  0
   -2.2471   -0.7721    0.4841 C   0  0  0  0  0  0  0  0  0  0  0  0
   -0.7697   -0.7192    0.5409 C   0  0  0  0  0  0  0  0  0  0  0  0
   -0.1190    0.2855   -0.2135 N   0  0  0  0  0  0  0  0  0  0  0  0
   -0.7470    0.7915   -1.3564 C   0  0  0  0  0  0  0  0  0  0  0  0
   -2.2682    0.8580   -1.2606 C   0  0  0  0  0  0  0  0  0  0  0  0
    1.2181   -0.2072   -0.5852 C   0  0  0  0  0  0  0  0  0  0  0  0
    2.0564   -0.4719    0.6147 C   0  0  0  0  0  0  0  0  0  0  0  0
    3.5247   -0.4723    0.4135 C   0  0  0  0  0  0  0  0  0  0  0  0
    4.0830    0.1954   -0.7069 N   0  0  0  0  0  0  0  0  0  0  0  0
    3.2131    0.4431   -1.8620 C   0  0  0  0  0  0  0  0  0  0  0  0
    1.8721    0.9205   -1.3961 C   0  0  0  0  0  0  0  0  0  0  0  0
    5.4162    0.6209   -0.8565 C   0  0  0  0  0  0  0  0  0  0  0  0
    5.6180    1.2670   -1.9782 O   0  0  0  0  0  0  0  0  0  0  0  0
    6.5699    0.4782   -0.0168 C   0  0  0  0  0  0  0  0  0  0  0  0
    6.6689   -0.3265    1.0883 C   0  0  0  0  0  0  0  0  0  0  0  0
    7.8069   -0.3748    1.8869 C   0  0  0  0  0  0  0  0  0  0  0  0
    8.8769    0.4156    1.5537 C   0  0  0  0  0  0  0  0  0  0  0  0
   10.3129    0.3502    2.5675 Cl  0  0  0  0  0  0  0  0  0  0  0  0
    8.8252    1.2346    0.4576 C   0  0  0  0  0  0  0  0  0  0  0  0
    7.7021    1.2585   -0.2983 C   0  0  0  0  0  0  0  0  0  0  0  0
   -8.8485    0.8741    2.6647 H   0  0  0  0  0  0  0  0  0  0  0  0
   -9.5085   -0.7213    2.2468 H   0  0  0  0  0  0  0  0  0  0  0  0
   -9.8287    0.6623    1.1938 H   0  0  0  0  0  0  0  0  0  0  0  0
   -7.3282   -1.9014    2.1461 H   0  0  0  0  0  0  0  0  0  0  0  0
   -5.2913   -2.3922    0.7974 H   0  0  0  0  0  0  0  0  0  0  0  0
   -5.9573    1.0214   -1.5917 H   0  0  0  0  0  0  0  0  0  0  0  0
   -8.0224    1.5299   -0.2340 H   0  0  0  0  0  0  0  0  0  0  0  0
   -2.6499   -1.7813    0.7158 H   0  0  0  0  0  0  0  0  0  0  0  0
   -2.7177   -0.0803    1.2257 H   0  0  0  0  0  0  0  0  0  0  0  0
   -0.4578   -0.6290    1.6041 H   0  0  0  0  0  0  0  0  0  0  0  0
   -0.3728   -1.7226    0.2021 H   0  0  0  0  0  0  0  0  0  0  0  0
   -0.5383    0.2408   -2.3000 H   0  0  0  0  0  0  0  0  0  0  0  0
   -0.4362    1.8635   -1.5031 H   0  0  0  0  0  0  0  0  0  0  0  0
   -2.4730    1.6979   -0.5344 H   0  0  0  0  0  0  0  0  0  0  0  0
   -2.6922    1.1179   -2.2242 H   0  0  0  0  0  0  0  0  0  0  0  0
    1.1661   -1.0812   -1.2601 H   0  0  0  0  0  0  0  0  0  0  0  0
    1.7384   -1.4238    1.1149 H   0  0  0  0  0  0  0  0  0  0  0  0
    1.7992    0.3155    1.3725 H   0  0  0  0  0  0  0  0  0  0  0  0
    3.9679    0.0188    1.3455 H   0  0  0  0  0  0  0  0  0  0  0  0
    3.8501   -1.5488    0.4550 H   0  0  0  0  0  0  0  0  0  0  0  0
    3.0761   -0.5417   -2.3610 H   0  0  0  0  0  0  0  0  0  0  0  0
    3.6553    1.1736   -2.5324 H   0  0  0  0  0  0  0  0  0  0  0  0
    1.9344    1.7755   -0.7175 H   0  0  0  0  0  0  0  0  0  0  0  0
    1.2667    1.1331   -2.2935 H   0  0  0  0  0  0  0  0  0  0  0  0
    5.8880   -0.9895    1.3810 H   0  0  0  0  0  0  0  0  0  0  0  0
    7.8210   -1.0261    2.7411 H   0  0  0  0  0  0  0  0  0  0  0  0
    9.6866    1.8526    0.2113 H   0  0  0  0  0  0  0  0  0  0  0  0
    7.6559    1.8953   -1.1518 H   0  0  0  0  0  0  0  0  0  0  0  0
  1  2  1  0
  2  3  2  0
  3  4  1  0
  4  5  2  0
  5  6  1  0
  6  7  2  0
  5  8  1  0
  8  9  2  0
  8 10  2  0
  8 11  1  0
 11 12  1  0
 12 13  1  0
 13 14  1  0
 14 15  1  0
 15 16  1  0
 14 17  1  0
 17 18  1  0
 18 19  1  0
 19 20  1  0
 20 21  1  0
 21 22  1  0
 20 23  1  0
 23 24  2  0
 23 25  1  0
 25 26  2  0
 26 27  1  0
 27 28  2  0
 28 29  1  0
 28 30  1  0
 30 31  2  0
  7  2  1  0
 16 11  1  0
 22 17  1  0
 31 25  1  0
  1 32  1  0
  1 33  1  0
  1 34  1  0
  3 35  1  0
  4 36  1  0
  6 37  1  0
  7 38  1  0
 12 39  1  0
 12 40  1  0
 13 41  1  0
 13 42  1  0
 15 43  1  0
 15 44  1  0
 16 45  1  0
 16 46  1  0
 17 47  1  0
 18 48  1  0
 18 49  1  0
 19 50  1  0
 19 51  1  0
 21 52  1  0
 21 53  1  0
 22 54  1  0
 22 55  1  0
 26 56  1  0
 27 57  1  0
 30 58  1  0
 31 59  1  0
M  END
$$$$
[H]Oc1c([H])c([H])c2c3c1O[C@@]1([H])c4c(c5c([H])c([H])c([H])c([H])c5n4[H])C([H])([H])[C@]4(O[H])[C@@]31C([H])([H])C([H])([H])N(C([H])([H])C1([H])C([H])([H])C1([H])[H])[C@]4([H])C2([H])[H]
     RDKit          3D

 57 64  0  0  0  0  0  0  0  0999 V2000
    2.0014    4.5854    1.6061 O   0  0  0  0  0  0  0  0  0  0  0  0
    1.0012    3.6271    1.5107 C   0  0  0  0  0  0  0  0  0  0  0  0
    0.0368    3.5170    2.4978 C   0  0  0  0  0  0  0  0  0  0  0  0
   -0.9616    2.5440    2.3821 C   0  0  0  0  0  0  0  0  0  0  0  0
   -0.9923    1.6958    1.2938 C   0  0  0  0  0  0  0  0  0  0  0  0
   -1.9721    0.6334    1.0695 C   0  0  0  0  0  0  0  0  0  0  0  0
   -1.6274   -0.3760    0.0315 C   0  0  1  0  0  0  0  0  0  0  0  0
   -2.4307   -0.2466   -1.0937 N   0  0  0  0  0  0  0  0  0  0  0  0
   -3.3940   -1.1927   -1.4458 C   0  0  0  0  0  0  0  0  0  0  0  0
   -4.5883   -1.2396   -0.5785 C   0  0  0  0  0  0  0  0  0  0  0  0
   -4.5744   -1.5593    0.8759 C   0  0  0  0  0  0  0  0  0  0  0  0
   -5.1667   -2.5286   -0.1012 C   0  0  0  0  0  0  0  0  0  0  0  0
   -2.1653    0.8206   -1.9930 C   0  0  0  0  0  0  0  0  0  0  0  0
   -0.8274    1.4334   -1.9531 C   0  0  0  0  0  0  0  0  0  0  0  0
    0.1015    1.0550   -0.8635 C   0  0  1  0  0  0  0  0  0  0  0  0
    1.5071    1.3156   -1.2870 C   0  0  1  0  0  0  0  0  0  0  0  0
    1.7674    2.6042   -0.7386 O   0  0  0  0  0  0  0  0  0  0  0  0
    0.9947    2.7808    0.3973 C   0  0  0  0  0  0  0  0  0  0  0  0
   -0.0022    1.8752    0.3666 C   0  0  0  0  0  0  0  0  0  0  0  0
    2.4808    0.3584   -0.7599 C   0  0  0  0  0  0  0  0  0  0  0  0
    3.8052    0.2697   -1.0120 N   0  0  0  0  0  0  0  0  0  0  0  0
    4.3258   -0.7615   -0.3284 C   0  0  0  0  0  0  0  0  0  0  0  0
    5.6168   -1.2793   -0.2389 C   0  0  0  0  0  0  0  0  0  0  0  0
    5.8361   -2.3824    0.5707 C   0  0  0  0  0  0  0  0  0  0  0  0
    4.8202   -2.9755    1.2834 C   0  0  0  0  0  0  0  0  0  0  0  0
    3.5384   -2.4725    1.2037 C   0  0  0  0  0  0  0  0  0  0  0  0
    3.3434   -1.3770    0.3941 C   0  0  0  0  0  0  0  0  0  0  0  0
    2.1722   -0.6536    0.1109 C   0  0  0  0  0  0  0  0  0  0  0  0
    0.7788   -0.8504    0.6066 C   0  0  0  0  0  0  0  0  0  0  0  0
   -0.1662   -0.3517   -0.4235 C   0  0  1  0  0  0  0  0  0  0  0  0
   -0.0882   -1.1729   -1.5434 O   0  0  0  0  0  0  0  0  0  0  0  0
    2.7068    4.6725    0.8917 H   0  0  0  0  0  0  0  0  0  0  0  0
    0.0668    4.1849    3.3476 H   0  0  0  0  0  0  0  0  0  0  0  0
   -1.7310    2.4362    3.1437 H   0  0  0  0  0  0  0  0  0  0  0  0
   -2.2235    0.1554    2.0640 H   0  0  0  0  0  0  0  0  0  0  0  0
   -2.9285    1.1294    0.7735 H   0  0  0  0  0  0  0  0  0  0  0  0
   -1.7301   -1.3907    0.4797 H   0  0  0  0  0  0  0  0  0  0  0  0
   -2.8964   -2.2238   -1.3316 H   0  0  0  0  0  0  0  0  0  0  0  0
   -3.6672   -1.1720   -2.5408 H   0  0  0  0  0  0  0  0  0  0  0  0
   -5.3367   -0.4056   -0.8203 H   0  0  0  0  0  0  0  0  0  0  0  0
   -5.3118   -1.0563    1.5565 H   0  0  0  0  0  0  0  0  0  0  0  0
   -3.7054   -1.9275    1.4321 H   0  0  0  0  0  0  0  0  0  0  0  0
   -6.2477   -2.6666   -0.1081 H   0  0  0  0  0  0  0  0  0  0  0  0
   -4.5776   -3.4327   -0.3244 H   0  0  0  0  0  0  0  0  0  0  0  0
   -2.9405    1.6147   -1.8047 H   0  0  0  0  0  0  0  0  0  0  0  0
   -2.3811    0.4569   -3.0205 H   0  0  0  0  0  0  0  0  0  0  0  0
   -0.9017    2.5638   -1.9416 H   0  0  0  0  0  0  0  0  0  0  0  0
   -0.2769    1.2429   -2.9256 H   0  0  0  0  0  0  0  0  0  0  0  0
    1.5551    1.4417   -2.3894 H   0  0  0  0  0  0  0  0  0  0  0  0
    4.3612    0.9106   -1.6497 H   0  0  0  0  0  0  0  0  0  0  0  0
    6.4027   -0.8057   -0.8036 H   0  0  0  0  0  0  0  0  0  0  0  0
    6.8492   -2.7733    0.6285 H   0  0  0  0  0  0  0  0  0  0  0  0
    4.9746   -3.8489    1.9290 H   0  0  0  0  0  0  0  0  0  0  0  0
    2.7035   -2.8779    1.7247 H   0  0  0  0  0  0  0  0  0  0  0  0
    0.6341   -0.4012    1.6094 H   0  0  0  0  0  0  0  0  0  0  0  0
    0.6110   -1.9577    0.7036 H   0  0  0  0  0  0  0  0  0  0  0  0
    0.8201   -1.5651   -1.5971 H   0  0  0  0  0  0  0  0  0  0  0  0
  1  2  1  0
  2  3  2  0
  3  4  1  0
  4  5  2  0
  5  6  1  0
  6  7  1  0
  7  8  1  0
  8  9  1  0
  9 10  1  0
 10 11  1  0
 11 12  1  0
  8 13  1  0
 13 14  1  0
 15 14  1  6
 15 16  1  0
 16 17  1  0
 17 18  1  0
 18 19  2  0
 16 20  1  0
 20 21  1  0
 21 22  1  0
 22 23  2  0
 23 24  1  0
 24 25  2  0
 25 26  1  0
 26 27  2  0
 27 28  1  0
 28 29  1  0
 29 30  1  0
 30 31  1  6
 18  2  1  0
 28 20  2  0
 19  5  1  0
 27 22  1  0
 30  7  1  0
 12 10  1  0
 19 15  1  0
 30 15  1  0
  1 32  1  0
  3 33  1  0
  4 34  1  0
  6 35  1  0
  6 36  1  0
  7 37  1  1
  9 38  1  0
  9 39  1  0
 10 40  1  0
 11 41  1  0
 11 42  1  0
 12 43  1  0
 12 44  1  0
 13 45  1  0
 13 46  1  0
 14 47  1  0
 14 48  1  0
 16 49  1  6
 21 50  1  0
 23 51  1  0
 24 52  1  0
 25 53  1  0
 26 54  1  0
 29 55  1  0
 29 56  1  0
 31 57  1  0
M  END
$$$$
[H]c1nc(N2C([H])([H])C([H])([H])N(C(=O)c3c([H])c([H])c([H])c(C(F)(F)F)c3[H])[C@]([H])(C([H])([H])[H])C2([H])[H])nc([H])c1C(=O)N([H])c1c([H])c([H])c(C#N)c([H])c1[H]
     RDKit          3D

 57 60  0  0  0  0  0  0  0  0999 V2000
   -3.2434    1.3528   -0.3845 C   0  0  0  0  0  0  0  0  0  0  0  0
   -3.0096    0.2293    0.6393 C   0  0  2  0  0  0  0  0  0  0  0  0
   -1.5589    0.5022    1.1130 C   0  0  0  0  0  0  0  0  0  0  0  0
   -0.5783   -0.0583    0.2845 N   0  0  0  0  0  0  0  0  0  0  0  0
   -0.9938   -1.0323   -0.7661 C   0  0  0  0  0  0  0  0  0  0  0  0
   -1.9900   -1.9097   -0.0275 C   0  0  0  0  0  0  0  0  0  0  0  0
   -3.2048   -1.0410    0.0522 N   0  0  0  0  0  0  0  0  0  0  0  0
   -4.3545   -1.6371   -0.4618 C   0  0  0  0  0  0  0  0  0  0  0  0
   -4.1928   -2.8152   -1.0424 O   0  0  0  0  0  0  0  0  0  0  0  0
   -5.7215   -1.1860   -0.4660 C   0  0  0  0  0  0  0  0  0  0  0  0
   -6.5872   -1.8398   -1.3831 C   0  0  0  0  0  0  0  0  0  0  0  0
   -7.9203   -1.5348   -1.3578 C   0  0  0  0  0  0  0  0  0  0  0  0
   -8.4551   -0.6035   -0.4642 C   0  0  0  0  0  0  0  0  0  0  0  0
   -7.6113    0.0250    0.4148 C   0  0  0  0  0  0  0  0  0  0  0  0
   -6.2712   -0.2749    0.4010 C   0  0  0  0  0  0  0  0  0  0  0  0
   -8.1723    1.0174    1.4075 C   0  0  0  0  0  0  0  0  0  0  0  0
   -8.7366    0.2903    2.4395 F   0  0  0  0  0  0  0  0  0  0  0  0
   -7.1910    1.8022    1.9541 F   0  0  0  0  0  0  0  0  0  0  0  0
   -9.0780    1.8066    0.7668 F   0  0  0  0  0  0  0  0  0  0  0  0
    0.7993    0.1930    0.3444 C   0  0  0  0  0  0  0  0  0  0  0  0
    1.5295   -0.8478    0.8606 N   0  0  0  0  0  0  0  0  0  0  0  0
    2.8381   -0.8684    0.8906 C   0  0  0  0  0  0  0  0  0  0  0  0
    3.5344    0.2233    0.3738 C   0  0  0  0  0  0  0  0  0  0  0  0
    2.8067    1.2798   -0.1423 C   0  0  0  0  0  0  0  0  0  0  0  0
    1.4407    1.2552   -0.1508 N   0  0  0  0  0  0  0  0  0  0  0  0
    4.9758    0.1110    0.2845 C   0  0  0  0  0  0  0  0  0  0  0  0
    5.5079   -1.0391    0.4330 O   0  0  0  0  0  0  0  0  0  0  0  0
    5.8027    1.2088    0.0310 N   0  0  0  0  0  0  0  0  0  0  0  0
    7.2071    0.9838   -0.1024 C   0  0  0  0  0  0  0  0  0  0  0  0
    7.6251   -0.0779   -0.9207 C   0  0  0  0  0  0  0  0  0  0  0  0
    8.9862   -0.2876   -0.9982 C   0  0  0  0  0  0  0  0  0  0  0  0
    9.9034    0.4797   -0.3265 C   0  0  0  0  0  0  0  0  0  0  0  0
    9.4728    1.5013    0.4593 C   0  0  0  0  0  0  0  0  0  0  0  0
    8.0953    1.7539    0.5701 C   0  0  0  0  0  0  0  0  0  0  0  0
   11.3143    0.2009   -0.4461 C   0  0  0  0  0  0  0  0  0  0  0  0
   12.4559   -0.0502   -0.5608 N   0  0  0  0  0  0  0  0  0  0  0  0
   -3.8868    1.0130   -1.2273 H   0  0  0  0  0  0  0  0  0  0  0  0
   -2.2977    1.7517   -0.7843 H   0  0  0  0  0  0  0  0  0  0  0  0
   -3.7524    2.1611    0.1414 H   0  0  0  0  0  0  0  0  0  0  0  0
   -3.5996    0.4590    1.5296 H   0  0  0  0  0  0  0  0  0  0  0  0
   -1.4689    1.6116    1.2174 H   0  0  0  0  0  0  0  0  0  0  0  0
   -1.4567    0.0826    2.1455 H   0  0  0  0  0  0  0  0  0  0  0  0
   -0.1580   -1.6467   -1.1039 H   0  0  0  0  0  0  0  0  0  0  0  0
   -1.4609   -0.5392   -1.6217 H   0  0  0  0  0  0  0  0  0  0  0  0
   -1.6096   -2.0403    1.0082 H   0  0  0  0  0  0  0  0  0  0  0  0
   -2.1892   -2.8502   -0.5281 H   0  0  0  0  0  0  0  0  0  0  0  0
   -6.1744   -2.5508   -2.0795 H   0  0  0  0  0  0  0  0  0  0  0  0
   -8.6153   -2.0277   -2.0562 H   0  0  0  0  0  0  0  0  0  0  0  0
   -9.5254   -0.3858   -0.4678 H   0  0  0  0  0  0  0  0  0  0  0  0
   -5.6579    0.2510    1.1428 H   0  0  0  0  0  0  0  0  0  0  0  0
    3.4234   -1.6903    1.3046 H   0  0  0  0  0  0  0  0  0  0  0  0
    3.3223    2.1338   -0.5379 H   0  0  0  0  0  0  0  0  0  0  0  0
    5.4756    2.1874   -0.0743 H   0  0  0  0  0  0  0  0  0  0  0  0
    6.9034   -0.6432   -1.4496 H   0  0  0  0  0  0  0  0  0  0  0  0
    9.3508   -1.1056   -1.6332 H   0  0  0  0  0  0  0  0  0  0  0  0
   10.1590    2.1307    1.0000 H   0  0  0  0  0  0  0  0  0  0  0  0
    7.7934    2.5851    1.2227 H   0  0  0  0  0  0  0  0  0  0  0  0
  1  2  1  0
  2  3  1  0
  3  4  1  0
  4  5  1  0
  5  6  1  0
  6  7  1  0
  7  8  1  0
  8  9  2  0
  8 10  1  0
 10 11  2  0
 11 12  1  0
 12 13  2  0
 13 14  1  0
 14 15  2  0
 14 16  1  0
 16 17  1  0
 16 18  1  0
 16 19  1  0
  4 20  1  0
 20 21  2  0
 21 22  1  0
 22 23  2  0
 23 24  1  0
 24 25  2  0
 23 26  1  0
 26 27  2  0
 26 28  1  0
 28 29  1  0
 29 30  2  0
 30 31  1  0
 31 32  2  0
 32 33  1  0
 33 34  2  0
 32 35  1  0
 35 36  3  0
  7  2  1  0
 15 10  1  0
 25 20  1  0
 34 29  1  0
  1 37  1  0
  1 38  1  0
  1 39  1  0
  2 40  1  1
  3 41  1  0
  3 42  1  0
  5 43  1  0
  5 44  1  0
  6 45  1  0
  6 46  1  0
 11 47  1  0
 12 48  1  0
 13 49  1  0
 15 50  1  0
 22 51  1  0
 24 52  1  0
 28 53  1  0
 30 54  1  0
 31 55  1  0
 33 56  1  0
 34 57  1  0
M  END
$$$$
[H]OC(=O)[C@@]([H])(N([H])C(=O)[C@@]([H])(N([H])C(=O)[C@@]([H])(N([H])C(=O)[C@@]([H])(N([H])C(=O)[C@]([H])(N([H])C(=O)N([H])c1c([H])c([H])c(C(F)(F)F)c([H])c1F)C([H])([H])C([H])(C([H])([H])[H])C([H])([H])[H])C([H])(C([H])([H])[H])C([H])([H])[H])C([H])([H])[H])C([H])(C([H])([H])[H])C([H])([H])[H])C([H])([H])[H]
     RDKit          3D

 91 91  0  0  0  0  0  0  0  0999 V2000
   -6.5409   -4.3263    0.2889 C   0  0  0  0  0  0  0  0  0  0  0  0
   -5.9083   -3.3190    1.2528 C   0  0  0  0  0  0  0  0  0  0  0  0
   -5.5000   -4.1851    2.4614 C   0  0  0  0  0  0  0  0  0  0  0  0
   -4.6066   -2.8008    0.6844 C   0  0  0  0  0  0  0  0  0  0  0  0
   -4.8076   -2.2214   -0.6737 C   0  0  1  0  0  0  0  0  0  0  0  0
   -5.7634   -1.1998   -0.8021 N   0  0  0  0  0  0  0  0  0  0  0  0
   -5.5453    0.0761   -0.1158 C   0  0  0  0  0  0  0  0  0  0  0  0
   -4.4778    0.1804    0.5088 O   0  0  0  0  0  0  0  0  0  0  0  0
   -6.5670    1.0097   -0.2451 N   0  0  0  0  0  0  0  0  0  0  0  0
   -6.6469    2.2524    0.4012 C   0  0  0  0  0  0  0  0  0  0  0  0
   -5.7777    2.6080    1.4130 C   0  0  0  0  0  0  0  0  0  0  0  0
   -5.9434    3.7966    2.1558 C   0  0  0  0  0  0  0  0  0  0  0  0
   -6.9821    4.6301    1.8837 C   0  0  0  0  0  0  0  0  0  0  0  0
   -7.8404    4.2870    0.8796 C   0  0  0  0  0  0  0  0  0  0  0  0
   -7.7008    3.1421    0.1502 C   0  0  0  0  0  0  0  0  0  0  0  0
   -8.5637    2.7902   -0.8278 F   0  0  0  0  0  0  0  0  0  0  0  0
   -7.2283    5.8486    2.7293 C   0  0  0  0  0  0  0  0  0  0  0  0
   -7.7968    5.3281    3.9007 F   0  0  0  0  0  0  0  0  0  0  0  0
   -6.0281    6.4416    3.0564 F   0  0  0  0  0  0  0  0  0  0  0  0
   -8.0817    6.7318    2.1209 F   0  0  0  0  0  0  0  0  0  0  0  0
   -3.4820   -1.8199   -1.2573 C   0  0  0  0  0  0  0  0  0  0  0  0
   -3.5334   -1.1853   -2.3333 O   0  0  0  0  0  0  0  0  0  0  0  0
   -2.2441   -2.1328   -0.6637 N   0  0  0  0  0  0  0  0  0  0  0  0
   -0.9051   -1.8700   -1.1179 C   0  0  1  0  0  0  0  0  0  0  0  0
   -0.8397   -1.9988   -2.6454 C   0  0  0  0  0  0  0  0  0  0  0  0
    0.5129   -1.7687   -3.2327 C   0  0  0  0  0  0  0  0  0  0  0  0
   -1.3142   -3.3741   -3.0582 C   0  0  0  0  0  0  0  0  0  0  0  0
   -0.2152   -0.7293   -0.5920 C   0  0  0  0  0  0  0  0  0  0  0  0
   -0.9397    0.3752   -0.5040 O   0  0  0  0  0  0  0  0  0  0  0  0
    1.0774   -0.5732   -0.1543 N   0  0  0  0  0  0  0  0  0  0  0  0
    2.0722    0.2455    0.3147 C   0  0  1  0  0  0  0  0  0  0  0  0
    2.1985    0.2853    1.8374 C   0  0  0  0  0  0  0  0  0  0  0  0
    3.4340    0.0453   -0.2921 C   0  0  0  0  0  0  0  0  0  0  0  0
    3.3405   -0.5893   -1.3980 O   0  0  0  0  0  0  0  0  0  0  0  0
    4.6592    0.4421    0.1950 N   0  0  0  0  0  0  0  0  0  0  0  0
    5.9924    0.2665   -0.2846 C   0  0  1  0  0  0  0  0  0  0  0  0
    6.3803    0.6990   -1.6406 C   0  0  0  0  0  0  0  0  0  0  0  0
    6.1139    2.1372   -1.9837 C   0  0  0  0  0  0  0  0  0  0  0  0
    6.0772   -0.2586   -2.7376 C   0  0  0  0  0  0  0  0  0  0  0  0
    7.0394    0.6211    0.7034 C   0  0  0  0  0  0  0  0  0  0  0  0
    6.6814    0.2313    1.8985 O   0  0  0  0  0  0  0  0  0  0  0  0
    8.2368    1.2471    0.5450 N   0  0  0  0  0  0  0  0  0  0  0  0
    9.2019    1.4923    1.6298 C   0  0  1  0  0  0  0  0  0  0  0  0
   10.5708    0.9985    1.1476 C   0  0  0  0  0  0  0  0  0  0  0  0
    9.3108    2.9257    1.9270 C   0  0  0  0  0  0  0  0  0  0  0  0
   10.0556    3.4523    2.9263 O   0  0  0  0  0  0  0  0  0  0  0  0
    8.6472    3.7512    1.1900 O   0  0  0  0  0  0  0  0  0  0  0  0
   -6.8941   -3.8069   -0.6224 H   0  0  0  0  0  0  0  0  0  0  0  0
   -5.8396   -5.1470    0.1073 H   0  0  0  0  0  0  0  0  0  0  0  0
   -7.4013   -4.7481    0.8355 H   0  0  0  0  0  0  0  0  0  0  0  0
   -6.6331   -2.5533    1.5373 H   0  0  0  0  0  0  0  0  0  0  0  0
   -4.7427   -4.8927    2.0194 H   0  0  0  0  0  0  0  0  0  0  0  0
   -5.1251   -3.5687    3.2738 H   0  0  0  0  0  0  0  0  0  0  0  0
   -6.3611   -4.8244    2.7012 H   0  0  0  0  0  0  0  0  0  0  0  0
   -4.0560   -2.1609    1.3574 H   0  0  0  0  0  0  0  0  0  0  0  0
   -3.9690   -3.7135    0.5486 H   0  0  0  0  0  0  0  0  0  0  0  0
   -5.1324   -3.0729   -1.3308 H   0  0  0  0  0  0  0  0  0  0  0  0
   -6.6242   -1.3165   -1.3875 H   0  0  0  0  0  0  0  0  0  0  0  0
   -7.3965    0.8006   -0.8711 H   0  0  0  0  0  0  0  0  0  0  0  0
   -4.9516    2.0117    1.6954 H   0  0  0  0  0  0  0  0  0  0  0  0
   -5.2542    4.0632    2.9522 H   0  0  0  0  0  0  0  0  0  0  0  0
   -8.6699    4.9570    0.6482 H   0  0  0  0  0  0  0  0  0  0  0  0
   -2.3195   -2.6362    0.2689 H   0  0  0  0  0  0  0  0  0  0  0  0
   -0.2939   -2.7991   -0.8114 H   0  0  0  0  0  0  0  0  0  0  0  0
   -1.4899   -1.2432   -3.1231 H   0  0  0  0  0  0  0  0  0  0  0  0
    1.3423   -2.3254   -2.7475 H   0  0  0  0  0  0  0  0  0  0  0  0
    0.7604   -0.6743   -3.3073 H   0  0  0  0  0  0  0  0  0  0  0  0
    0.4905   -2.1091   -4.2915 H   0  0  0  0  0  0  0  0  0  0  0  0
   -0.4469   -4.0633   -3.1677 H   0  0  0  0  0  0  0  0  0  0  0  0
   -2.0206   -3.7542   -2.2922 H   0  0  0  0  0  0  0  0  0  0  0  0
   -1.8686   -3.2528   -4.0176 H   0  0  0  0  0  0  0  0  0  0  0  0
    1.4946   -1.7035   -0.1538 H   0  0  0  0  0  0  0  0  0  0  0  0
    1.8131    1.3365    0.0920 H   0  0  0  0  0  0  0  0  0  0  0  0
    2.6541    1.1969    2.2242 H   0  0  0  0  0  0  0  0  0  0  0  0
    1.1663    0.2631    2.2451 H   0  0  0  0  0  0  0  0  0  0  0  0
    2.6631   -0.6604    2.1984 H   0  0  0  0  0  0  0  0  0  0  0  0
    4.5988    0.9833    1.1508 H   0  0  0  0  0  0  0  0  0  0  0  0
    6.0280   -0.9173   -0.4288 H   0  0  0  0  0  0  0  0  0  0  0  0
    7.5843    0.6166   -1.5617 H   0  0  0  0  0  0  0  0  0  0  0  0
    5.4540    2.1378   -2.9128 H   0  0  0  0  0  0  0  0  0  0  0  0
    5.5760    2.6757   -1.1754 H   0  0  0  0  0  0  0  0  0  0  0  0
    7.0623    2.6334   -2.2258 H   0  0  0  0  0  0  0  0  0  0  0  0
    5.4481    0.2674   -3.4714 H   0  0  0  0  0  0  0  0  0  0  0  0
    7.0839   -0.4830   -3.2740 H   0  0  0  0  0  0  0  0  0  0  0  0
    5.6965   -1.2160   -2.3950 H   0  0  0  0  0  0  0  0  0  0  0  0
    8.6058    1.6300   -0.3790 H   0  0  0  0  0  0  0  0  0  0  0  0
    8.9426    0.9217    2.5416 H   0  0  0  0  0  0  0  0  0  0  0  0
   11.3715    1.4679    1.7697 H   0  0  0  0  0  0  0  0  0  0  0  0
   10.7041    1.3700    0.1151 H   0  0  0  0  0  0  0  0  0  0  0  0
   10.6987   -0.0775    1.2236 H   0  0  0  0  0  0  0  0  0  0  0  0
   10.4290    4.4016    2.8004 H   0  0  0  0  0  0  0  0  0  0  0  0
  1  2  1  0
  2  3  1  0
  2  4  1  0
  4  5  1  0
  5  6  1  0
  6  7  1  0
  7  8  2  0
  7  9  1  0
  9 10  1  0
 10 11  2  0
 11 12  1  0
 12 13  2  0
 13 14  1  0
 14 15  2  0
 15 16  1  0
 13 17  1  0
 17 18  1  0
 17 19  1  0
 17 20  1  0
  5 21  1  0
 21 22  2  0
 21 23  1  0
 23 24  1  0
 24 25  1  0
 25 26  1  0
 25 27  1  0
 24 28  1  0
 28 29  2  0
 28 30  1  0
 30 31  1  0
 31 32  1  0
 31 33  1  0
 33 34  2  0
 33 35  1  0
 35 36  1  0
 36 37  1  0
 37 38  1  0
 37 39  1  0
 36 40  1  0
 40 41  2  0
 40 42  1  0
 42 43  1  0
 43 44  1  0
 43 45  1  0
 45 46  1  0
 45 47  2  0
 15 10  1  0
  1 48  1  0
  1 49  1  0
  1 50  1  0
  2 51  1  0
  3 52  1  0
  3 53  1  0
  3 54  1  0
  4 55  1  0
  4 56  1  0
  5 57  1  6
  6 58  1  0
  9 59  1  0
 11 60  1  0
 12 61  1  0
 14 62  1  0
 23 63  1  0
 24 64  1  1
 25 65  1  0
 26 66  1  0
 26 67  1  0
 26 68  1  0
 27 69  1  0
 27 70  1  0
 27 71  1  0
 30 72  1  0
 31 73  1  6
 32 74  1  0
 32 75  1  0
 32 76  1  0
 35 77  1  0
 36 78  1  6
 37 79  1  0
 38 80  1  0
 38 81  1  0
 38 82  1  0
 39 83  1  0
 39 84  1  0
 39 85  1  0
 42 86  1  0
 43 87  1  1
 44 88  1  0
 44 89  1  0
 44 90  1  0
 46 91  1  0
M  END
$$$$
[H]c1c([H])c(N2C([H])([H])C([H])([H])N(c3c([H])c([H])c(C(F)(F)F)c([H])c3[H])[C@]([H])(C([H])([H])[H])C2([H])[H])c([H])c([H])c1C#N
     RDKit          3D

 43 45  0  0  0  0  0  0  0  0999 V2000
    0.1986   -1.8904    1.0035 C   0  0  0  0  0  0  0  0  0  0  0  0
    0.2540   -0.3739    1.0986 C   0  0  2  0  0  0  0  0  0  0  0  0
   -1.1007    0.2343    1.2104 C   0  0  0  0  0  0  0  0  0  0  0  0
   -1.8093    0.4780   -0.0037 N   0  0  0  0  0  0  0  0  0  0  0  0
   -1.0612    1.0429   -1.1168 C   0  0  0  0  0  0  0  0  0  0  0  0
    0.2786    0.3970   -1.2801 C   0  0  0  0  0  0  0  0  0  0  0  0
    0.9759    0.1044   -0.0382 N   0  0  0  0  0  0  0  0  0  0  0  0
    2.4171    0.2434   -0.0342 C   0  0  0  0  0  0  0  0  0  0  0  0
    3.0476    1.2181   -0.7584 C   0  0  0  0  0  0  0  0  0  0  0  0
    4.4235    1.3293   -0.8892 C   0  0  0  0  0  0  0  0  0  0  0  0
    5.2148    0.4107   -0.2591 C   0  0  0  0  0  0  0  0  0  0  0  0
    4.6114   -0.5826    0.4823 C   0  0  0  0  0  0  0  0  0  0  0  0
    3.2253   -0.6742    0.6028 C   0  0  0  0  0  0  0  0  0  0  0  0
    6.7020    0.4315   -0.4073 C   0  0  0  0  0  0  0  0  0  0  0  0
    6.9807    0.8130   -1.7351 F   0  0  0  0  0  0  0  0  0  0  0  0
    7.2605   -0.8227   -0.2138 F   0  0  0  0  0  0  0  0  0  0  0  0
    7.2163    1.3706    0.4383 F   0  0  0  0  0  0  0  0  0  0  0  0
   -3.1934    0.1609   -0.1119 C   0  0  0  0  0  0  0  0  0  0  0  0
   -3.6669   -1.1184   -0.0310 C   0  0  0  0  0  0  0  0  0  0  0  0
   -4.9956   -1.3850   -0.1490 C   0  0  0  0  0  0  0  0  0  0  0  0
   -5.8950   -0.3551   -0.3560 C   0  0  0  0  0  0  0  0  0  0  0  0
   -5.4403    0.9472   -0.4414 C   0  0  0  0  0  0  0  0  0  0  0  0
   -4.0984    1.2017   -0.3191 C   0  0  0  0  0  0  0  0  0  0  0  0
   -7.3171   -0.6114   -0.4816 C   0  0  0  0  0  0  0  0  0  0  0  0
   -8.4486   -0.7985   -0.5643 N   0  0  0  0  0  0  0  0  0  0  0  0
    0.6687   -2.3132    1.9360 H   0  0  0  0  0  0  0  0  0  0  0  0
    0.8015   -2.2888    0.1390 H   0  0  0  0  0  0  0  0  0  0  0  0
   -0.7907   -2.3157    0.9179 H   0  0  0  0  0  0  0  0  0  0  0  0
    0.7739   -0.0987    2.0783 H   0  0  0  0  0  0  0  0  0  0  0  0
   -1.7239   -0.3086    1.9663 H   0  0  0  0  0  0  0  0  0  0  0  0
   -0.9655    1.2534    1.6941 H   0  0  0  0  0  0  0  0  0  0  0  0
   -1.6420    0.8205   -2.0602 H   0  0  0  0  0  0  0  0  0  0  0  0
   -0.9925    2.1302   -1.0458 H   0  0  0  0  0  0  0  0  0  0  0  0
    0.8954    1.0447   -1.8930 H   0  0  0  0  0  0  0  0  0  0  0  0
    0.1852   -0.5812   -1.8665 H   0  0  0  0  0  0  0  0  0  0  0  0
    2.4245    1.9729   -1.2542 H   0  0  0  0  0  0  0  0  0  0  0  0
    4.8616    2.1270   -1.4654 H   0  0  0  0  0  0  0  0  0  0  0  0
    5.2040   -1.3298    1.0094 H   0  0  0  0  0  0  0  0  0  0  0  0
    2.7795   -1.4515    1.1908 H   0  0  0  0  0  0  0  0  0  0  0  0
   -2.9864   -1.9813    0.1223 H   0  0  0  0  0  0  0  0  0  0  0  0
   -5.3675   -2.4157   -0.0644 H   0  0  0  0  0  0  0  0  0  0  0  0
   -6.1750    1.7230   -0.6364 H   0  0  0  0  0  0  0  0  0  0  0  0
   -3.7307    2.2419   -0.3862 H   0  0  0  0  0  0  0  0  0  0  0  0
  1  2  1  0
  2  3  1  0
  3  4  1  0
  4  5  1  0
  5  6  1  0
  6  7  1  0
  7  8  1  0
  8  9  2  0
  9 10  1  0
 10 11  2  0
 11 12  1  0
 12 13  2  0
 11 14  1  0
 14 15  1  0
 14 16  1  0
 14 17  1  0
  4 18  1  0
 18 19  2  0
 19 20  1  0
 20 21  2  0
 21 22  1  0
 22 23  2  0
 21 24  1  0
 24 25  3  0
  7  2  1  0
 13  8  1  0
 23 18  1  0
  1 26  1  0
  1 27  1  0
  1 28  1  0
  2 29  1  1
  3 30  1  0
  3 31  1  0
  5 32  1  0
  5 33  1  0
  6 34  1  0
  6 35  1  0
  9 36  1  0
 10 37  1  0
 12 38  1  0
 13 39  1  0
 19 40  1  0
 20 41  1  0
 22 42  1  0
 23 43  1  0
M  END
$$$$
[H]c1c([H])c(N([H])C(=O)c2c([H])c(C(=O)N([H])c3c([H])c([H])c(C(C([H])([H])[H])(C([H])([H])[H])C([H])([H])[H])c([H])c3[H])c([H])c([H])c2OC([H])(C([H])([H])[H])C([H])([H])[H])c([H])c(C(F)(F)F)c1[H]
     RDKit          3D

 65 67  0  0  0  0  0  0  0  0999 V2000
   -5.0501   -2.7252    0.3738 C   0  0  0  0  0  0  0  0  0  0  0  0
   -3.7748   -2.1962    0.7928 C   0  0  0  0  0  0  0  0  0  0  0  0
   -3.2475   -3.1109    1.9681 C   0  0  0  0  0  0  0  0  0  0  0  0
   -3.6204   -0.8304    1.3177 O   0  0  0  0  0  0  0  0  0  0  0  0
   -2.2938   -0.3728    0.9691 C   0  0  0  0  0  0  0  0  0  0  0  0
   -1.4650    0.1442    1.9456 C   0  0  0  0  0  0  0  0  0  0  0  0
   -0.1694    0.5090    1.5584 C   0  0  0  0  0  0  0  0  0  0  0  0
    0.2643    0.3572    0.2332 C   0  0  0  0  0  0  0  0  0  0  0  0
   -0.5912   -0.1420   -0.6974 C   0  0  0  0  0  0  0  0  0  0  0  0
   -1.9112   -0.4981   -0.2892 C   0  0  0  0  0  0  0  0  0  0  0  0
   -2.8737   -0.2684   -1.4550 C   0  0  0  0  0  0  0  0  0  0  0  0
   -2.5252   -0.6321   -2.5479 O   0  0  0  0  0  0  0  0  0  0  0  0
   -4.0667    0.3664   -1.0765 N   0  0  0  0  0  0  0  0  0  0  0  0
   -5.1888    0.9609   -0.7373 C   0  0  0  0  0  0  0  0  0  0  0  0
   -5.0836    2.1530    0.0718 C   0  0  0  0  0  0  0  0  0  0  0  0
   -6.1850    2.8196    0.4989 C   0  0  0  0  0  0  0  0  0  0  0  0
   -7.4421    2.3830    0.1716 C   0  0  0  0  0  0  0  0  0  0  0  0
   -7.5616    1.2551   -0.5952 C   0  0  0  0  0  0  0  0  0  0  0  0
   -6.4665    0.5674   -1.0397 C   0  0  0  0  0  0  0  0  0  0  0  0
   -8.9109    0.7396   -0.9960 C   0  0  0  0  0  0  0  0  0  0  0  0
   -9.7902    1.1971   -0.0491 F   0  0  0  0  0  0  0  0  0  0  0  0
   -9.1176    1.1841   -2.2742 F   0  0  0  0  0  0  0  0  0  0  0  0
   -8.8379   -0.6485   -0.9027 F   0  0  0  0  0  0  0  0  0  0  0  0
    1.6878    0.5566   -0.0453 C   0  0  0  0  0  0  0  0  0  0  0  0
    2.4057    0.9921    0.9331 O   0  0  0  0  0  0  0  0  0  0  0  0
    2.3322    0.2833   -1.2546 N   0  0  0  0  0  0  0  0  0  0  0  0
    3.7743    0.4382   -1.2098 C   0  0  0  0  0  0  0  0  0  0  0  0
    4.3314    1.5189   -0.6122 C   0  0  0  0  0  0  0  0  0  0  0  0
    5.6857    1.4643   -0.2405 C   0  0  0  0  0  0  0  0  0  0  0  0
    6.3908    0.3095   -0.5112 C   0  0  0  0  0  0  0  0  0  0  0  0
    5.8388   -0.7881   -1.1356 C   0  0  0  0  0  0  0  0  0  0  0  0
    4.4896   -0.7088   -1.4892 C   0  0  0  0  0  0  0  0  0  0  0  0
    7.7724    0.2103    0.0922 C   0  0  0  0  0  0  0  0  0  0  0  0
    8.4159    1.5559    0.0168 C   0  0  0  0  0  0  0  0  0  0  0  0
    7.4373   -0.0887    1.5833 C   0  0  0  0  0  0  0  0  0  0  0  0
    8.5984   -0.8905   -0.5039 C   0  0  0  0  0  0  0  0  0  0  0  0
   -5.8972   -2.0280    0.3544 H   0  0  0  0  0  0  0  0  0  0  0  0
   -5.3507   -3.6169    1.0009 H   0  0  0  0  0  0  0  0  0  0  0  0
   -5.0051   -3.2348   -0.6626 H   0  0  0  0  0  0  0  0  0  0  0  0
   -2.9664   -2.3617    0.0210 H   0  0  0  0  0  0  0  0  0  0  0  0
   -4.1070   -3.7911    2.2736 H   0  0  0  0  0  0  0  0  0  0  0  0
   -2.9551   -2.5299    2.8091 H   0  0  0  0  0  0  0  0  0  0  0  0
   -2.4876   -3.7999    1.5898 H   0  0  0  0  0  0  0  0  0  0  0  0
   -1.8120    0.2665    2.9569 H   0  0  0  0  0  0  0  0  0  0  0  0
    0.4974    0.9188    2.2656 H   0  0  0  0  0  0  0  0  0  0  0  0
   -0.3151   -0.2662   -1.6915 H   0  0  0  0  0  0  0  0  0  0  0  0
   -4.3685    0.5707   -2.4100 H   0  0  0  0  0  0  0  0  0  0  0  0
   -4.0812    2.4367    0.3105 H   0  0  0  0  0  0  0  0  0  0  0  0
   -6.0763    3.7161    1.1207 H   0  0  0  0  0  0  0  0  0  0  0  0
   -8.3332    2.8860    0.5010 H   0  0  0  0  0  0  0  0  0  0  0  0
   -6.5531   -0.3590   -1.6589 H   0  0  0  0  0  0  0  0  0  0  0  0
    1.9143   -0.0009   -2.1336 H   0  0  0  0  0  0  0  0  0  0  0  0
    3.7374    2.4190   -0.4528 H   0  0  0  0  0  0  0  0  0  0  0  0
    6.1251    2.3487    0.2364 H   0  0  0  0  0  0  0  0  0  0  0  0
    6.4220   -1.6850   -1.3418 H   0  0  0  0  0  0  0  0  0  0  0  0
    4.0739   -1.5825   -1.9871 H   0  0  0  0  0  0  0  0  0  0  0  0
    8.0771    2.1683    0.8493 H   0  0  0  0  0  0  0  0  0  0  0  0
    8.1796    2.1142   -0.9284 H   0  0  0  0  0  0  0  0  0  0  0  0
    9.5358    1.4454    0.0495 H   0  0  0  0  0  0  0  0  0  0  0  0
    6.8879    0.7444    1.9615 H   0  0  0  0  0  0  0  0  0  0  0  0
    8.3559   -0.3919    2.1086 H   0  0  0  0  0  0  0  0  0  0  0  0
    6.7714   -1.0080    1.5233 H   0  0  0  0  0  0  0  0  0  0  0  0
    8.1362   -1.8743   -0.2691 H   0  0  0  0  0  0  0  0  0  0  0  0
    9.5504   -0.8634    0.1072 H   0  0  0  0  0  0  0  0  0  0  0  0
    8.7927   -0.7064   -1.5329 H   0  0  0  0  0  0  0  0  0  0  0  0
  1  2  1  0
  2  3  1  0
  2  4  1  0
  4  5  1  0
  5  6  2  0
  6  7  1  0
  7  8  2  0
  8  9  1  0
  9 10  2  0
 10 11  1  0
 11 12  2  0
 11 13  1  0
 13 14  1  0
 14 15  2  0
 15 16  1  0
 16 17  2  0
 17 18  1  0
 18 19  2  0
 18 20  1  0
 20 21  1  0
 20 22  1  0
 20 23  1  0
  8 24  1  0
 24 25  2  0
 24 26  1  0
 26 27  1  0
 27 28  2  0
 28 29  1  0
 29 30  2  0
 30 31  1  0
 31 32  2  0
 30 33  1  0
 33 34  1  0
 33 35  1  0
 33 36  1  0
 10  5  1  0
 19 14  1  0
 32 27  1  0
  1 37  1  0
  1 38  1  0
  1 39  1  0
  2 40  1  0
  3 41  1  0
  3 42  1  0
  3 43  1  0
  6 44  1  0
  7 45  1  0
  9 46  1  0
 13 47  1  0
 15 48  1  0
 16 49  1  0
 17 50  1  0
 19 51  1  0
 26 52  1  0
 28 53  1  0
 29 54  1  0
 31 55  1  0
 32 56  1  0
 34 57  1  0
 34 58  1  0
 34 59  1  0
 35 60  1  0
 35 61  1  0
 35 62  1  0
 36 63  1  0
 36 64  1  0
 36 65  1  0
M  END
$$$$
[H]N=C(N([H])[H])N([H])C([H])([H])C([H])([H])C([H])([H])[C@]([H])(C(=O)N([H])[C@]([H])(C(=O)N([H])[C@]([H])(C(=O)N([H])[C@]([H])(C(=O)N([H])[H])C([H])([H])C([H])(C([H])([H])[H])C([H])([H])[H])C([H])([H])c1c([H])c([H])c([H])c([H])c1[H])C([H])([H])c1c([H])c([H])c([H])c([H])c1[H])N([H])C(=O)[C@@]([H])(N([H])C(=O)[C@@]([H])(N([H])C(=O)[C@@]([H])(N([H])C(=O)OC([H])([H])c1c([H])c([H])c([H])c([H])c1[H])C([H])([H])c1c([H])c([H])c([H])c([H])c1[H])C([H])([H])c1c([H])c([H])c([H])c([H])c1[H])C([H])([H])c1c([H])c([H])c([H])c([H])c1[H]
     RDKit          3D

162167  0  0  0  0  0  0  0  0999 V2000
    9.1183    5.8807   -1.4767 C   0  0  0  0  0  0  0  0  0  0  0  0
   10.1325    5.7022   -0.3404 C   0  0  0  0  0  0  0  0  0  0  0  0
   10.0625    7.0179    0.4694 C   0  0  0  0  0  0  0  0  0  0  0  0
    9.6513    4.6300    0.5599 C   0  0  0  0  0  0  0  0  0  0  0  0
    9.4674    3.2672   -0.0348 C   0  0  2  0  0  0  0  0  0  0  0  0
    8.9738    2.4153    1.0581 N   0  0  0  0  0  0  0  0  0  0  0  0
    8.0153    1.3988    0.8058 C   0  0  0  0  0  0  0  0  0  0  0  0
    7.6961    1.3105   -0.4443 O   0  0  0  0  0  0  0  0  0  0  0  0
    7.3678    0.4832    1.7230 C   0  0  2  0  0  0  0  0  0  0  0  0
    8.1419   -0.3386    2.6642 C   0  0  0  0  0  0  0  0  0  0  0  0
    9.0164    0.3038    3.6536 C   0  0  0  0  0  0  0  0  0  0  0  0
   10.3809    0.3476    3.5391 C   0  0  0  0  0  0  0  0  0  0  0  0
   11.1436    0.9708    4.4807 C   0  0  0  0  0  0  0  0  0  0  0  0
   10.5858    1.5840    5.5843 C   0  0  0  0  0  0  0  0  0  0  0  0
    9.1948    1.5316    5.6854 C   0  0  0  0  0  0  0  0  0  0  0  0
    8.4085    0.9084    4.7478 C   0  0  0  0  0  0  0  0  0  0  0  0
    6.6141   -0.4598    0.8479 N   0  0  0  0  0  0  0  0  0  0  0  0
    5.2844   -0.3708    0.4679 C   0  0  0  0  0  0  0  0  0  0  0  0
    4.5630    0.5751    0.8544 O   0  0  0  0  0  0  0  0  0  0  0  0
    4.7099   -1.4451   -0.4431 C   0  0  2  0  0  0  0  0  0  0  0  0
    5.6767   -1.7407   -1.5428 C   0  0  0  0  0  0  0  0  0  0  0  0
    5.2389   -2.7537   -2.5194 C   0  0  0  0  0  0  0  0  0  0  0  0
    5.4412   -4.1210   -2.3328 C   0  0  0  0  0  0  0  0  0  0  0  0
    5.0723   -5.0292   -3.2915 C   0  0  0  0  0  0  0  0  0  0  0  0
    4.4913   -4.6008   -4.4653 C   0  0  0  0  0  0  0  0  0  0  0  0
    4.2842   -3.2619   -4.6645 C   0  0  0  0  0  0  0  0  0  0  0  0
    4.6574   -2.3467   -3.6934 C   0  0  0  0  0  0  0  0  0  0  0  0
    3.3948   -1.1490   -0.8734 N   0  0  0  0  0  0  0  0  0  0  0  0
    2.1910   -1.7299   -0.3350 C   0  0  0  0  0  0  0  0  0  0  0  0
    2.3096   -2.5517    0.5870 O   0  0  0  0  0  0  0  0  0  0  0  0
    0.8851   -1.3388   -0.8732 C   0  0  1  0  0  0  0  0  0  0  0  0
    0.6017   -1.7872   -2.2747 C   0  0  0  0  0  0  0  0  0  0  0  0
    0.5097   -3.2678   -2.4556 C   0  0  0  0  0  0  0  0  0  0  0  0
    0.1593   -3.5423   -3.9200 C   0  0  0  0  0  0  0  0  0  0  0  0
   -0.0535   -4.9312   -4.1339 N   0  0  0  0  0  0  0  0  0  0  0  0
    0.8825   -5.9948   -4.1146 C   0  0  0  0  0  0  0  0  0  0  0  0
    1.1861   -6.6909   -5.3405 N   0  0  0  0  0  0  0  0  0  0  0  0
    1.4889   -6.3975   -3.0630 N   0  0  0  0  0  0  0  0  0  0  0  0
   -0.1296   -1.8542    0.0424 N   0  0  0  0  0  0  0  0  0  0  0  0
   -1.5200   -1.6825   -0.0486 C   0  0  0  0  0  0  0  0  0  0  0  0
   -1.9350   -1.0164   -1.0745 O   0  0  0  0  0  0  0  0  0  0  0  0
   -2.5519   -2.1552    0.8693 C   0  0  2  0  0  0  0  0  0  0  0  0
   -2.3189   -3.4117    1.6265 C   0  0  0  0  0  0  0  0  0  0  0  0
   -2.1194   -4.6738    0.9111 C   0  0  0  0  0  0  0  0  0  0  0  0
   -0.9212   -5.2362    0.6190 C   0  0  0  0  0  0  0  0  0  0  0  0
   -0.7297   -6.4203   -0.0402 C   0  0  0  0  0  0  0  0  0  0  0  0
   -1.8674   -7.1124   -0.4499 C   0  0  0  0  0  0  0  0  0  0  0  0
   -3.0867   -6.5643   -0.1669 C   0  0  0  0  0  0  0  0  0  0  0  0
   -3.2764   -5.3714    0.4971 C   0  0  0  0  0  0  0  0  0  0  0  0
   -3.9013   -2.0981    0.3453 N   0  0  0  0  0  0  0  0  0  0  0  0
   -4.7800   -1.0538    0.6038 C   0  0  0  0  0  0  0  0  0  0  0  0
   -4.3059   -0.0915    1.3094 O   0  0  0  0  0  0  0  0  0  0  0  0
   -6.1682   -0.9654    0.1597 C   0  0  2  0  0  0  0  0  0  0  0  0
   -6.5814   -1.4550   -1.1530 C   0  0  0  0  0  0  0  0  0  0  0  0
   -6.0313   -0.8825   -2.3617 C   0  0  0  0  0  0  0  0  0  0  0  0
   -6.7234    0.1956   -2.9158 C   0  0  0  0  0  0  0  0  0  0  0  0
   -6.3404    0.8275   -4.0753 C   0  0  0  0  0  0  0  0  0  0  0  0
   -5.2233    0.4103   -4.7589 C   0  0  0  0  0  0  0  0  0  0  0  0
   -4.5355   -0.6598   -4.2113 C   0  0  0  0  0  0  0  0  0  0  0  0
   -4.9138   -1.2938   -3.0543 C   0  0  0  0  0  0  0  0  0  0  0  0
   -6.7454    0.3302    0.4974 N   0  0  0  0  0  0  0  0  0  0  0  0
   -7.4830    0.6033    1.6711 C   0  0  0  0  0  0  0  0  0  0  0  0
   -7.6057   -0.4083    2.4663 O   0  0  0  0  0  0  0  0  0  0  0  0
   -8.1056    1.8597    2.0570 C   0  0  2  0  0  0  0  0  0  0  0  0
   -7.2720    3.0651    2.2351 C   0  0  0  0  0  0  0  0  0  0  0  0
   -6.5016    3.5618    1.0932 C   0  0  0  0  0  0  0  0  0  0  0  0
   -7.1414    4.3180    0.0934 C   0  0  0  0  0  0  0  0  0  0  0  0
   -6.4539    4.8454   -0.9726 C   0  0  0  0  0  0  0  0  0  0  0  0
   -5.1096    4.6608   -1.1118 C   0  0  0  0  0  0  0  0  0  0  0  0
   -4.4660    3.9225   -0.1387 C   0  0  0  0  0  0  0  0  0  0  0  0
   -5.1495    3.3857    0.9382 C   0  0  0  0  0  0  0  0  0  0  0  0
   -8.9166    1.6238    3.2634 N   0  0  0  0  0  0  0  0  0  0  0  0
  -10.3190    1.6728    3.2617 C   0  0  0  0  0  0  0  0  0  0  0  0
  -10.9407    1.9186    2.2152 O   0  0  0  0  0  0  0  0  0  0  0  0
  -11.0160    1.4479    4.4347 O   0  0  0  0  0  0  0  0  0  0  0  0
  -12.4505    1.5070    4.3701 C   0  0  0  0  0  0  0  0  0  0  0  0
  -12.7954    2.8662    3.9018 C   0  0  0  0  0  0  0  0  0  0  0  0
  -13.8490    3.0714    3.0449 C   0  0  0  0  0  0  0  0  0  0  0  0
  -14.1972    4.3146    2.5843 C   0  0  0  0  0  0  0  0  0  0  0  0
  -13.4275    5.3827    3.0253 C   0  0  0  0  0  0  0  0  0  0  0  0
  -12.3781    5.1996    3.8757 C   0  0  0  0  0  0  0  0  0  0  0  0
  -12.0413    3.9305    4.3319 C   0  0  0  0  0  0  0  0  0  0  0  0
   10.8239    2.7112   -0.3616 C   0  0  0  0  0  0  0  0  0  0  0  0
   11.6251    3.2165   -1.4248 N   0  0  0  0  0  0  0  0  0  0  0  0
   11.3011    1.7623    0.3049 O   0  0  0  0  0  0  0  0  0  0  0  0
    9.1036    4.9535   -2.0492 H   0  0  0  0  0  0  0  0  0  0  0  0
    9.3579    6.7772   -2.0774 H   0  0  0  0  0  0  0  0  0  0  0  0
    8.1308    5.9925   -0.9756 H   0  0  0  0  0  0  0  0  0  0  0  0
   11.1372    5.5622   -0.7414 H   0  0  0  0  0  0  0  0  0  0  0  0
   10.2540    7.8894   -0.1697 H   0  0  0  0  0  0  0  0  0  0  0  0
    9.1301    7.0573    1.0551 H   0  0  0  0  0  0  0  0  0  0  0  0
   10.8922    6.9488    1.2279 H   0  0  0  0  0  0  0  0  0  0  0  0
    8.7063    4.9605    1.0576 H   0  0  0  0  0  0  0  0  0  0  0  0
   10.3799    4.4870    1.4114 H   0  0  0  0  0  0  0  0  0  0  0  0
    8.8295    3.2130   -0.9175 H   0  0  0  0  0  0  0  0  0  0  0  0
    9.3322    2.6052    1.9930 H   0  0  0  0  0  0  0  0  0  0  0  0
    6.5279    0.9958    2.2853 H   0  0  0  0  0  0  0  0  0  0  0  0
    8.7962   -1.1000    2.1266 H   0  0  0  0  0  0  0  0  0  0  0  0
    7.4384   -1.0410    3.2409 H   0  0  0  0  0  0  0  0  0  0  0  0
   10.8704   -0.1267    2.6705 H   0  0  0  0  0  0  0  0  0  0  0  0
   12.2397    1.0196    4.4206 H   0  0  0  0  0  0  0  0  0  0  0  0
   11.2041    2.0750    6.3343 H   0  0  0  0  0  0  0  0  0  0  0  0
    8.7313    1.9978    6.5253 H   0  0  0  0  0  0  0  0  0  0  0  0
    7.3108    0.8790    4.8466 H   0  0  0  0  0  0  0  0  0  0  0  0
    7.2599   -1.2583    0.5414 H   0  0  0  0  0  0  0  0  0  0  0  0
    4.6972   -2.3713    0.2252 H   0  0  0  0  0  0  0  0  0  0  0  0
    6.6874   -2.0338   -1.1251 H   0  0  0  0  0  0  0  0  0  0  0  0
    5.8673   -0.7814   -2.1075 H   0  0  0  0  0  0  0  0  0  0  0  0
    5.8904   -4.4802   -1.4295 H   0  0  0  0  0  0  0  0  0  0  0  0
    5.2340   -6.1031   -3.1458 H   0  0  0  0  0  0  0  0  0  0  0  0
    4.1905   -5.2893   -5.2380 H   0  0  0  0  0  0  0  0  0  0  0  0
    3.8405   -2.8983   -5.5612 H   0  0  0  0  0  0  0  0  0  0  0  0
    4.4578   -1.2900   -3.9070 H   0  0  0  0  0  0  0  0  0  0  0  0
    3.2537   -0.4504   -1.6518 H   0  0  0  0  0  0  0  0  0  0  0  0
    0.7016   -0.2208   -0.9179 H   0  0  0  0  0  0  0  0  0  0  0  0
   -0.2889   -1.3075   -2.6723 H   0  0  0  0  0  0  0  0  0  0  0  0
    1.4317   -1.3909   -2.9574 H   0  0  0  0  0  0  0  0  0  0  0  0
    1.4373   -3.8153   -2.2395 H   0  0  0  0  0  0  0  0  0  0  0  0
   -0.3753   -3.6094   -1.8887 H   0  0  0  0  0  0  0  0  0  0  0  0
   -0.7546   -2.9763   -4.2239 H   0  0  0  0  0  0  0  0  0  0  0  0
    0.9954   -3.2228   -4.5670 H   0  0  0  0  0  0  0  0  0  0  0  0
   -1.0638   -5.2837   -4.3551 H   0  0  0  0  0  0  0  0  0  0  0  0
    1.8600   -6.2723   -5.9884 H   0  0  0  0  0  0  0  0  0  0  0  0
    0.7157   -7.5831   -5.5258 H   0  0  0  0  0  0  0  0  0  0  0  0
    2.1712   -7.1810   -3.0675 H   0  0  0  0  0  0  0  0  0  0  0  0
    0.2298   -2.4011    0.8644 H   0  0  0  0  0  0  0  0  0  0  0  0
   -2.5137   -1.3290    1.7144 H   0  0  0  0  0  0  0  0  0  0  0  0
   -3.1286   -3.5776    2.3940 H   0  0  0  0  0  0  0  0  0  0  0  0
   -1.3895   -3.3129    2.2897 H   0  0  0  0  0  0  0  0  0  0  0  0
    0.0073   -4.7321    0.9246 H   0  0  0  0  0  0  0  0  0  0  0  0
    0.2287   -6.8543   -0.2624 H   0  0  0  0  0  0  0  0  0  0  0  0
   -1.7543   -8.0660   -0.9809 H   0  0  0  0  0  0  0  0  0  0  0  0
   -3.9817   -7.1286   -0.5014 H   0  0  0  0  0  0  0  0  0  0  0  0
   -4.2617   -4.9986    0.6955 H   0  0  0  0  0  0  0  0  0  0  0  0
   -4.2072   -2.8801   -0.2649 H   0  0  0  0  0  0  0  0  0  0  0  0
   -6.7182   -1.6556    0.9194 H   0  0  0  0  0  0  0  0  0  0  0  0
   -6.4021   -2.5744   -1.2034 H   0  0  0  0  0  0  0  0  0  0  0  0
   -7.7062   -1.4010   -1.1900 H   0  0  0  0  0  0  0  0  0  0  0  0
   -7.6241    0.5837   -2.4357 H   0  0  0  0  0  0  0  0  0  0  0  0
   -6.8880    1.6735   -4.5058 H   0  0  0  0  0  0  0  0  0  0  0  0
   -4.8809    0.8819   -5.6871 H   0  0  0  0  0  0  0  0  0  0  0  0
   -3.6398   -1.0209   -4.7369 H   0  0  0  0  0  0  0  0  0  0  0  0
   -4.3343   -2.1101   -2.6905 H   0  0  0  0  0  0  0  0  0  0  0  0
   -6.6071    1.0711   -0.2019 H   0  0  0  0  0  0  0  0  0  0  0  0
   -8.8581    2.1038    1.2450 H   0  0  0  0  0  0  0  0  0  0  0  0
   -6.4923    2.9003    3.0607 H   0  0  0  0  0  0  0  0  0  0  0  0
   -7.9276    3.9076    2.5826 H   0  0  0  0  0  0  0  0  0  0  0  0
   -8.1999    4.4892    0.1592 H   0  0  0  0  0  0  0  0  0  0  0  0
   -6.9826    5.4329   -1.7283 H   0  0  0  0  0  0  0  0  0  0  0  0
   -4.5528    5.0827   -1.9615 H   0  0  0  0  0  0  0  0  0  0  0  0
   -3.3807    3.7639   -0.2378 H   0  0  0  0  0  0  0  0  0  0  0  0
   -4.6015    2.8005    1.6881 H   0  0  0  0  0  0  0  0  0  0  0  0
   -8.3995    1.4159    4.1225 H   0  0  0  0  0  0  0  0  0  0  0  0
  -12.8729    0.6949    3.7718 H   0  0  0  0  0  0  0  0  0  0  0  0
  -12.8078    1.3932    5.4378 H   0  0  0  0  0  0  0  0  0  0  0  0
  -14.4668    2.2323    2.6876 H   0  0  0  0  0  0  0  0  0  0  0  0
  -15.0374    4.4916    1.9082 H   0  0  0  0  0  0  0  0  0  0  0  0
  -13.6928    6.3965    2.6670 H   0  0  0  0  0  0  0  0  0  0  0  0
  -11.7784    6.0561    4.2093 H   0  0  0  0  0  0  0  0  0  0  0  0
  -11.1878    3.8438    5.0127 H   0  0  0  0  0  0  0  0  0  0  0  0
   11.2171    3.5075   -2.3506 H   0  0  0  0  0  0  0  0  0  0  0  0
   12.6429    3.3102   -1.3016 H   0  0  0  0  0  0  0  0  0  0  0  0
  1  2  1  0
  2  3  1  0
  2  4  1  0
  4  5  1  0
  5  6  1  0
  6  7  1  0
  7  8  2  0
  7  9  1  0
  9 10  1  0
 10 11  1  0
 11 12  2  0
 12 13  1  0
 13 14  2  0
 14 15  1  0
 15 16  2  0
  9 17  1  0
 17 18  1  0
 18 19  2  0
 18 20  1  0
 20 21  1  0
 21 22  1  0
 22 23  2  0
 23 24  1  0
 24 25  2  0
 25 26  1  0
 26 27  2  0
 20 28  1  0
 28 29  1  0
 29 30  2  0
 29 31  1  0
 31 32  1  0
 32 33  1  0
 33 34  1  0
 34 35  1  0
 35 36  1  0
 36 37  1  0
 36 38  2  3
 31 39  1  0
 39 40  1  0
 40 41  2  0
 40 42  1  0
 42 43  1  0
 43 44  1  0
 44 45  2  0
 45 46  1  0
 46 47  2  0
 47 48  1  0
 48 49  2  0
 42 50  1  0
 50 51  1  0
 51 52  2  0
 51 53  1  0
 53 54  1  0
 54 55  1  0
 55 56  2  0
 56 57  1  0
 57 58  2  0
 58 59  1  0
 59 60  2  0
 53 61  1  0
 61 62  1  0
 62 63  2  0
 62 64  1  0
 64 65  1  0
 65 66  1  0
 66 67  2  0
 67 68  1  0
 68 69  2  0
 69 70  1  0
 70 71  2  0
 64 72  1  0
 72 73  1  0
 73 74  2  0
 73 75  1  0
 75 76  1  0
 76 77  1  0
 77 78  2  0
 78 79  1  0
 79 80  2  0
 80 81  1  0
 81 82  2  0
  5 83  1  0
 83 84  1  0
 83 85  2  0
 16 11  1  0
 27 22  1  0
 49 44  1  0
 60 55  1  0
 71 66  1  0
 82 77  1  0
  1 86  1  0
  1 87  1  0
  1 88  1  0
  2 89  1  0
  3 90  1  0
  3 91  1  0
  3 92  1  0
  4 93  1  0
  4 94  1  0
  5 95  1  6
  6 96  1  0
  9 97  1  1
 10 98  1  0
 10 99  1  0
 12100  1  0
 13101  1  0
 14102  1  0
 15103  1  0
 16104  1  0
 17105  1  0
 20106  1  1
 21107  1  0
 21108  1  0
 23109  1  0
 24110  1  0
 25111  1  0
 26112  1  0
 27113  1  0
 28114  1  0
 31115  1  6
 32116  1  0
 32117  1  0
 33118  1  0
 33119  1  0
 34120  1  0
 34121  1  0
 35122  1  0
 37123  1  0
 37124  1  0
 38125  1  0
 39126  1  0
 42127  1  1
 43128  1  0
 43129  1  0
 45130  1  0
 46131  1  0
 47132  1  0
 48133  1  0
 49134  1  0
 50135  1  0
 53136  1  1
 54137  1  0
 54138  1  0
 56139  1  0
 57140  1  0
 58141  1  0
 59142  1  0
 60143  1  0
 61144  1  0
 64145  1  6
 65146  1  0
 65147  1  0
 67148  1  0
 68149  1  0
 69150  1  0
 70151  1  0
 71152  1  0
 72153  1  0
 76154  1  0
 76155  1  0
 78156  1  0
 79157  1  0
 80158  1  0
 81159  1  0
 82160  1  0
 84161  1  0
 84162  1  0
M  END
$$$$
[H]Oc1c([H])c([H])c(C([H])([H])[C@@]([H])(C(=O)N([H])[C@]([H])(C(=O)N2C([H])([H])C([H])([H])C([H])([H])[C@@]2([H])C(=O)N([H])[C@]([H])(C(=O)N([H])[C@]([H])(C(=O)N([H])[H])C([H])([H])c2c([H])n([H])c3c([H])c([H])c([H])c([H])c23)C([H])([H])C([H])(C([H])([H])[H])C([H])([H])[H])C([H])([H])c2c([H])c([H])c(O[H])c([H])c2[H])N([H])C(=O)C(C([H])([H])[H])(C([H])([H])[H])C([H])([H])[H])c([H])c1[H]
     RDKit          3D

117121  0  0  0  0  0  0  0  0999 V2000
    3.4956    3.3010    1.1510 C   0  0  0  0  0  0  0  0  0  0  0  0
    3.7365    1.7747    1.1339 C   0  0  0  0  0  0  0  0  0  0  0  0
    5.2134    1.6048    1.0352 C   0  0  0  0  0  0  0  0  0  0  0  0
    2.9181    1.2464    0.0283 C   0  0  0  0  0  0  0  0  0  0  0  0
    2.9158   -0.1951   -0.2615 C   0  0  2  0  0  0  0  0  0  0  0  0
    2.4997   -1.0492    0.7947 N   0  0  0  0  0  0  0  0  0  0  0  0
    1.1935   -1.6677    0.8108 C   0  0  0  0  0  0  0  0  0  0  0  0
    0.4705   -1.3783   -0.1527 O   0  0  0  0  0  0  0  0  0  0  0  0
    0.8463   -2.5562    1.9238 C   0  0  2  0  0  0  0  0  0  0  0  0
    1.2447   -4.0055    1.4302 C   0  0  0  0  0  0  0  0  0  0  0  0
    0.7806   -4.8214    2.5872 C   0  0  0  0  0  0  0  0  0  0  0  0
   -0.2633   -3.9962    3.2631 C   0  0  0  0  0  0  0  0  0  0  0  0
   -0.4498   -2.7722    2.3684 N   0  0  0  0  0  0  0  0  0  0  0  0
   -1.7168   -2.2199    2.3321 C   0  0  0  0  0  0  0  0  0  0  0  0
   -2.6919   -2.9196    2.8776 O   0  0  0  0  0  0  0  0  0  0  0  0
   -2.1743   -0.9562    1.7851 C   0  0  2  0  0  0  0  0  0  0  0  0
   -1.5148    0.1671    2.5903 C   0  0  0  0  0  0  0  0  0  0  0  0
   -1.9252    1.4947    2.1193 C   0  0  0  0  0  0  0  0  0  0  0  0
   -1.2715    2.1454    1.0917 C   0  0  0  0  0  0  0  0  0  0  0  0
   -1.7014    3.3935    0.7086 C   0  0  0  0  0  0  0  0  0  0  0  0
   -2.7603    4.0539    1.2901 C   0  0  0  0  0  0  0  0  0  0  0  0
   -3.1974    5.3118    0.9067 O   0  0  0  0  0  0  0  0  0  0  0  0
   -3.3938    3.3580    2.3266 C   0  0  0  0  0  0  0  0  0  0  0  0
   -2.9988    2.1086    2.7431 C   0  0  0  0  0  0  0  0  0  0  0  0
   -3.6354   -0.7959    1.9382 N   0  0  0  0  0  0  0  0  0  0  0  0
   -4.4129   -0.3473    0.8638 C   0  0  0  0  0  0  0  0  0  0  0  0
   -3.8175   -0.0847   -0.2382 O   0  0  0  0  0  0  0  0  0  0  0  0
   -5.8865   -0.1640    0.9579 C   0  0  2  0  0  0  0  0  0  0  0  0
   -6.6269   -1.4757    1.1679 C   0  0  0  0  0  0  0  0  0  0  0  0
   -6.4298   -2.4404    0.0701 C   0  0  0  0  0  0  0  0  0  0  0  0
   -5.4190   -3.3679    0.0702 C   0  0  0  0  0  0  0  0  0  0  0  0
   -5.2352   -4.2778   -0.9686 C   0  0  0  0  0  0  0  0  0  0  0  0
   -6.0803   -4.2800   -2.0593 C   0  0  0  0  0  0  0  0  0  0  0  0
   -5.8921   -5.1933   -3.0987 O   0  0  0  0  0  0  0  0  0  0  0  0
   -7.0993   -3.3518   -2.0687 C   0  0  0  0  0  0  0  0  0  0  0  0
   -7.2834   -2.4520   -1.0441 C   0  0  0  0  0  0  0  0  0  0  0  0
   -6.3501    0.4321   -0.2807 N   0  0  0  0  0  0  0  0  0  0  0  0
   -7.0977    1.6354   -0.2679 C   0  0  0  0  0  0  0  0  0  0  0  0
   -7.3502    2.1677    0.8644 O   0  0  0  0  0  0  0  0  0  0  0  0
   -7.5723    2.2582   -1.5156 C   0  0  0  0  0  0  0  0  0  0  0  0
   -8.4021    1.3080   -2.3452 C   0  0  0  0  0  0  0  0  0  0  0  0
   -6.3594    2.6770   -2.3267 C   0  0  0  0  0  0  0  0  0  0  0  0
   -8.3898    3.4920   -1.1326 C   0  0  0  0  0  0  0  0  0  0  0  0
    4.1817   -0.6816   -0.9106 C   0  0  0  0  0  0  0  0  0  0  0  0
    4.7344   -1.7254   -0.4597 O   0  0  0  0  0  0  0  0  0  0  0  0
    4.7322   -0.0044   -1.9828 N   0  0  0  0  0  0  0  0  0  0  0  0
    5.8798   -0.1923   -2.7742 C   0  0  1  0  0  0  0  0  0  0  0  0
    7.0540   -0.9723   -2.3245 C   0  0  0  0  0  0  0  0  0  0  0  0
    7.8283   -0.5008   -1.1731 C   0  0  0  0  0  0  0  0  0  0  0  0
    7.9646   -0.9530    0.1193 C   0  0  0  0  0  0  0  0  0  0  0  0
    8.8327   -0.2062    0.8100 N   0  0  0  0  0  0  0  0  0  0  0  0
    9.2824    0.7540   -0.0264 C   0  0  0  0  0  0  0  0  0  0  0  0
   10.1944    1.7963    0.1405 C   0  0  0  0  0  0  0  0  0  0  0  0
   10.5265    2.6757   -0.8571 C   0  0  0  0  0  0  0  0  0  0  0  0
    9.9213    2.5102   -2.0815 C   0  0  0  0  0  0  0  0  0  0  0  0
    9.0008    1.4779   -2.2912 C   0  0  0  0  0  0  0  0  0  0  0  0
    8.6850    0.6097   -1.2719 C   0  0  0  0  0  0  0  0  0  0  0  0
    5.5652   -0.5733   -4.1773 C   0  0  0  0  0  0  0  0  0  0  0  0
    6.5930   -0.8257   -5.1204 N   0  0  0  0  0  0  0  0  0  0  0  0
    4.3744   -0.6813   -4.5595 O   0  0  0  0  0  0  0  0  0  0  0  0
    2.4599    3.5280    0.7958 H   0  0  0  0  0  0  0  0  0  0  0  0
    3.7462    3.7513    2.1142 H   0  0  0  0  0  0  0  0  0  0  0  0
    4.1737    3.7174    0.3922 H   0  0  0  0  0  0  0  0  0  0  0  0
    3.3707    1.4534    2.1547 H   0  0  0  0  0  0  0  0  0  0  0  0
    5.6491    1.9621    0.0956 H   0  0  0  0  0  0  0  0  0  0  0  0
    5.7347    2.2260    1.8307 H   0  0  0  0  0  0  0  0  0  0  0  0
    5.4866    0.5605    1.3004 H   0  0  0  0  0  0  0  0  0  0  0  0
    3.1947    1.8469   -0.8919 H   0  0  0  0  0  0  0  0  0  0  0  0
    1.8607    1.5961    0.2146 H   0  0  0  0  0  0  0  0  0  0  0  0
    2.1253   -0.3304   -1.0805 H   0  0  0  0  0  0  0  0  0  0  0  0
    3.1102   -1.2726    1.6083 H   0  0  0  0  0  0  0  0  0  0  0  0
    1.5997   -2.4083    2.7478 H   0  0  0  0  0  0  0  0  0  0  0  0
    0.6934   -4.2318    0.5081 H   0  0  0  0  0  0  0  0  0  0  0  0
    2.3386   -4.0180    1.2851 H   0  0  0  0  0  0  0  0  0  0  0  0
    0.4073   -5.8294    2.2865 H   0  0  0  0  0  0  0  0  0  0  0  0
    1.6468   -4.9104    3.2873 H   0  0  0  0  0  0  0  0  0  0  0  0
   -1.1826   -4.5670    3.3198 H   0  0  0  0  0  0  0  0  0  0  0  0
    0.0797   -3.5368    4.2124 H   0  0  0  0  0  0  0  0  0  0  0  0
   -1.9956   -0.8661    0.7264 H   0  0  0  0  0  0  0  0  0  0  0  0
   -0.4366    0.0891    2.6640 H   0  0  0  0  0  0  0  0  0  0  0  0
   -1.9007    0.0111    3.6370 H   0  0  0  0  0  0  0  0  0  0  0  0
   -0.4501    1.6283    0.6371 H   0  0  0  0  0  0  0  0  0  0  0  0
   -1.1727    3.8856   -0.1006 H   0  0  0  0  0  0  0  0  0  0  0  0
   -3.9163    5.3098    0.1696 H   0  0  0  0  0  0  0  0  0  0  0  0
   -4.2394    3.8474    2.8140 H   0  0  0  0  0  0  0  0  0  0  0  0
   -3.5325    1.6051    3.5653 H   0  0  0  0  0  0  0  0  0  0  0  0
   -4.0438   -1.0242    2.8444 H   0  0  0  0  0  0  0  0  0  0  0  0
   -6.1123    0.4551    1.8344 H   0  0  0  0  0  0  0  0  0  0  0  0
   -6.2173   -1.9157    2.0992 H   0  0  0  0  0  0  0  0  0  0  0  0
   -7.7013   -1.2286    1.2751 H   0  0  0  0  0  0  0  0  0  0  0  0
   -4.7151   -3.4318    0.8908 H   0  0  0  0  0  0  0  0  0  0  0  0
   -4.4239   -4.9983   -0.9336 H   0  0  0  0  0  0  0  0  0  0  0  0
   -5.2797   -4.8954   -3.8721 H   0  0  0  0  0  0  0  0  0  0  0  0
   -7.7699   -3.3375   -2.9110 H   0  0  0  0  0  0  0  0  0  0  0  0
   -8.0657   -1.7123   -1.0141 H   0  0  0  0  0  0  0  0  0  0  0  0
   -6.1338   -0.0221   -1.1836 H   0  0  0  0  0  0  0  0  0  0  0  0
   -8.8802    0.5253   -1.7296 H   0  0  0  0  0  0  0  0  0  0  0  0
   -7.7015    0.7918   -3.0340 H   0  0  0  0  0  0  0  0  0  0  0  0
   -9.1334    1.9136   -2.9108 H   0  0  0  0  0  0  0  0  0  0  0  0
   -5.9277    3.5575   -1.8065 H   0  0  0  0  0  0  0  0  0  0  0  0
   -6.6921    2.9135   -3.3402 H   0  0  0  0  0  0  0  0  0  0  0  0
   -5.6547    1.8398   -2.3670 H   0  0  0  0  0  0  0  0  0  0  0  0
   -8.2863    4.2120   -1.9453 H   0  0  0  0  0  0  0  0  0  0  0  0
   -8.0762    3.9069   -0.1546 H   0  0  0  0  0  0  0  0  0  0  0  0
   -9.4408    3.1099   -0.9946 H   0  0  0  0  0  0  0  0  0  0  0  0
    4.1422    0.8648   -2.3012 H   0  0  0  0  0  0  0  0  0  0  0  0
    6.3275    0.9066   -2.8570 H   0  0  0  0  0  0  0  0  0  0  0  0
    7.7905   -0.9674   -3.1965 H   0  0  0  0  0  0  0  0  0  0  0  0
    6.7627   -2.0711   -2.1820 H   0  0  0  0  0  0  0  0  0  0  0  0
    7.4318   -1.8202    0.5383 H   0  0  0  0  0  0  0  0  0  0  0  0
    9.1382   -0.3002    1.8019 H   0  0  0  0  0  0  0  0  0  0  0  0
   10.6466    1.8853    1.1272 H   0  0  0  0  0  0  0  0  0  0  0  0
   11.2448    3.4661   -0.6595 H   0  0  0  0  0  0  0  0  0  0  0  0
   10.1270    3.1525   -2.9087 H   0  0  0  0  0  0  0  0  0  0  0  0
    8.5506    1.3578   -3.2559 H   0  0  0  0  0  0  0  0  0  0  0  0
    6.7899   -1.7935   -5.4753 H   0  0  0  0  0  0  0  0  0  0  0  0
    7.1870   -0.0570   -5.4906 H   0  0  0  0  0  0  0  0  0  0  0  0
  1  2  1  0
  2  3  1  0
  2  4  1  0
  4  5  1  0
  5  6  1  0
  6  7  1  0
  7  8  2  0
  7  9  1  0
  9 10  1  0
 10 11  1  0
 11 12  1  0
 12 13  1  0
 13 14  1  0
 14 15  2  0
 14 16  1  0
 16 17  1  0
 17 18  1  0
 18 19  2  0
 19 20  1  0
 20 21  2  0
 21 22  1  0
 21 23  1  0
 23 24  2  0
 16 25  1  0
 25 26  1  0
 26 27  2  0
 26 28  1  0
 28 29  1  0
 29 30  1  0
 30 31  2  0
 31 32  1  0
 32 33  2  0
 33 34  1  0
 33 35  1  0
 35 36  2  0
 28 37  1  0
 37 38  1  0
 38 39  2  0
 38 40  1  0
 40 41  1  0
 40 42  1  0
 40 43  1  0
  5 44  1  0
 44 45  2  0
 44 46  1  0
 46 47  1  0
 47 48  1  0
 48 49  1  0
 49 50  2  0
 50 51  1  0
 51 52  1  0
 52 53  2  0
 53 54  1  0
 54 55  2  0
 55 56  1  0
 56 57  2  0
 47 58  1  0
 58 59  1  0
 58 60  2  0
 13  9  1  0
 24 18  1  0
 36 30  1  0
 57 49  1  0
 57 52  1  0
  1 61  1  0
  1 62  1  0
  1 63  1  0
  2 64  1  0
  3 65  1  0
  3 66  1  0
  3 67  1  0
  4 68  1  0
  4 69  1  0
  5 70  1  6
  6 71  1  0
  9 72  1  1
 10 73  1  0
 10 74  1  0
 11 75  1  0
 11 76  1  0
 12 77  1  0
 12 78  1  0
 16 79  1  6
 17 80  1  0
 17 81  1  0
 19 82  1  0
 20 83  1  0
 22 84  1  0
 23 85  1  0
 24 86  1  0
 25 87  1  0
 28 88  1  1
 29 89  1  0
 29 90  1  0
 31 91  1  0
 32 92  1  0
 34 93  1  0
 35 94  1  0
 36 95  1  0
 37 96  1  0
 41 97  1  0
 41 98  1  0
 41 99  1  0
 42100  1  0
 42101  1  0
 42102  1  0
 43103  1  0
 43104  1  0
 43105  1  0
 46106  1  0
 47107  1  6
 48108  1  0
 48109  1  0
 50110  1  0
 51111  1  0
 53112  1  0
 54113  1  0
 55114  1  0
 56115  1  0
 59116  1  0
 59117  1  0
M  END
$$$$
[H]c1c([H])c([H])c([C@@]([H])(N([H])C(=O)OC(C([H])([H])[H])(C([H])([H])[H])C([H])([H])[H])C([H])([H])c2c([H])n([H])c3c([H])c([H])c([H])c([H])c23)c([H])c1[H]
     RDKit          3D

 49 51  0  0  0  0  0  0  0  0999 V2000
   -4.5601   -1.3475    1.6866 C   0  0  0  0  0  0  0  0  0  0  0  0
   -3.4398   -1.0841    0.7305 C   0  0  0  0  0  0  0  0  0  0  0  0
   -4.0625   -0.3213   -0.4501 C   0  0  0  0  0  0  0  0  0  0  0  0
   -2.9008   -2.3786    0.2188 C   0  0  0  0  0  0  0  0  0  0  0  0
   -2.4721   -0.2645    1.3699 O   0  0  0  0  0  0  0  0  0  0  0  0
   -1.2945    0.1269    0.6983 C   0  0  0  0  0  0  0  0  0  0  0  0
   -1.1851   -0.3057   -0.4574 O   0  0  0  0  0  0  0  0  0  0  0  0
   -0.3311    0.9390    1.2958 N   0  0  0  0  0  0  0  0  0  0  0  0
    0.9119    1.4335    0.8460 C   0  0  1  0  0  0  0  0  0  0  0  0
    1.5027    0.7449   -0.3788 C   0  0  0  0  0  0  0  0  0  0  0  0
    1.8048   -0.6830   -0.1388 C   0  0  0  0  0  0  0  0  0  0  0  0
    1.7819   -1.3818    1.0765 C   0  0  0  0  0  0  0  0  0  0  0  0
    2.1383   -2.6543    0.8819 N   0  0  0  0  0  0  0  0  0  0  0  0
    2.4043   -2.8548   -0.4205 C   0  0  0  0  0  0  0  0  0  0  0  0
    2.8078   -3.9311   -1.1697 C   0  0  0  0  0  0  0  0  0  0  0  0
    3.0170   -3.8304   -2.5482 C   0  0  0  0  0  0  0  0  0  0  0  0
    2.8072   -2.6162   -3.1448 C   0  0  0  0  0  0  0  0  0  0  0  0
    2.4012   -1.5143   -2.4239 C   0  0  0  0  0  0  0  0  0  0  0  0
    2.2015   -1.6460   -1.0544 C   0  0  0  0  0  0  0  0  0  0  0  0
    1.0328    2.8767    0.6606 C   0  0  0  0  0  0  0  0  0  0  0  0
    0.0297    3.5619   -0.0287 C   0  0  0  0  0  0  0  0  0  0  0  0
    0.1194    4.9003   -0.2178 C   0  0  0  0  0  0  0  0  0  0  0  0
    1.2176    5.5801    0.2810 C   0  0  0  0  0  0  0  0  0  0  0  0
    2.2241    4.9137    0.9693 C   0  0  0  0  0  0  0  0  0  0  0  0
    2.1412    3.5436    1.1675 C   0  0  0  0  0  0  0  0  0  0  0  0
   -5.4946   -1.4830    1.0900 H   0  0  0  0  0  0  0  0  0  0  0  0
   -4.7355   -0.4537    2.3259 H   0  0  0  0  0  0  0  0  0  0  0  0
   -4.4458   -2.2598    2.2837 H   0  0  0  0  0  0  0  0  0  0  0  0
   -3.9291    0.7527   -0.2006 H   0  0  0  0  0  0  0  0  0  0  0  0
   -5.1587   -0.5410   -0.5079 H   0  0  0  0  0  0  0  0  0  0  0  0
   -3.5446   -0.5620   -1.3893 H   0  0  0  0  0  0  0  0  0  0  0  0
   -3.7410   -3.1300    0.2190 H   0  0  0  0  0  0  0  0  0  0  0  0
   -2.5615   -2.3163   -0.8385 H   0  0  0  0  0  0  0  0  0  0  0  0
   -2.1207   -2.8415    0.8543 H   0  0  0  0  0  0  0  0  0  0  0  0
   -0.5852    1.2570    2.3128 H   0  0  0  0  0  0  0  0  0  0  0  0
    1.7019    1.1245    1.6448 H   0  0  0  0  0  0  0  0  0  0  0  0
    2.4761    1.2446   -0.6583 H   0  0  0  0  0  0  0  0  0  0  0  0
    0.8154    0.8158   -1.2377 H   0  0  0  0  0  0  0  0  0  0  0  0
    1.5135   -0.9469    2.0335 H   0  0  0  0  0  0  0  0  0  0  0  0
    2.2137   -3.4227    1.6041 H   0  0  0  0  0  0  0  0  0  0  0  0
    2.9763   -4.8840   -0.7278 H   0  0  0  0  0  0  0  0  0  0  0  0
    3.3334   -4.6544   -3.1566 H   0  0  0  0  0  0  0  0  0  0  0  0
    2.9546   -2.4816   -4.2068 H   0  0  0  0  0  0  0  0  0  0  0  0
    2.2370   -0.5507   -2.9127 H   0  0  0  0  0  0  0  0  0  0  0  0
   -0.7969    2.9572   -0.3866 H   0  0  0  0  0  0  0  0  0  0  0  0
   -0.6853    5.4026   -0.7641 H   0  0  0  0  0  0  0  0  0  0  0  0
    1.2758    6.6400    0.1224 H   0  0  0  0  0  0  0  0  0  0  0  0
    3.0604    5.5120    1.3326 H   0  0  0  0  0  0  0  0  0  0  0  0
    2.9436    3.0137    1.7144 H   0  0  0  0  0  0  0  0  0  0  0  0
  1  2  1  0
  2  3  1  0
  2  4  1  0
  2  5  1  0
  5  6  1  0
  6  7  2  0
  6  8  1  0
  8  9  1  0
  9 10  1  0
 10 11  1  0
 11 12  2  0
 12 13  1  0
 13 14  1  0
 14 15  2  0
 15 16  1  0
 16 17  2  0
 17 18  1  0
 18 19  2  0
  9 20  1  0
 20 21  2  0
 21 22  1  0
 22 23  2  0
 23 24  1  0
 24 25  2  0
 19 11  1  0
 25 20  1  0
 19 14  1  0
  1 26  1  0
  1 27  1  0
  1 28  1  0
  3 29  1  0
  3 30  1  0
  3 31  1  0
  4 32  1  0
  4 33  1  0
  4 34  1  0
  8 35  1  0
  9 36  1  1
 10 37  1  0
 10 38  1  0
 12 39  1  0
 13 40  1  0
 15 41  1  0
 16 42  1  0
 17 43  1  0
 18 44  1  0
 21 45  1  0
 22 46  1  0
 23 47  1  0
 24 48  1  0
 25 49  1  0
M  END
$$$$
[H]c1c([H])c(C#N)c([H])c(C(=O)N(C([H])([H])[H])[C@]2([H])C([H])([H])[C@]3([H])C([H])([H])N(S(=O)(=O)c4c([H])c([H])c(OC([H])([H])[H])c([H])c4[H])C([H])([H])[C@]32[H])c1[H]
     RDKit          3D

 53 56  0  0  0  0  0  0  0  0999 V2000
   -4.3999    2.5841   -2.9077 C   0  0  0  0  0  0  0  0  0  0  0  0
   -3.5345    3.0707   -1.8971 O   0  0  0  0  0  0  0  0  0  0  0  0
   -3.3866    2.3451   -0.7199 C   0  0  0  0  0  0  0  0  0  0  0  0
   -4.0679    1.1621   -0.5221 C   0  0  0  0  0  0  0  0  0  0  0  0
   -3.9255    0.4370    0.6444 C   0  0  0  0  0  0  0  0  0  0  0  0
   -3.1001    0.8527    1.6689 C   0  0  0  0  0  0  0  0  0  0  0  0
   -2.4146    2.0475    1.4644 C   0  0  0  0  0  0  0  0  0  0  0  0
   -2.5590    2.7693    0.2981 C   0  0  0  0  0  0  0  0  0  0  0  0
   -2.9079   -0.0375    3.1590 S   0  0  0  0  0  0  0  0  0  0  0  0
   -4.2312   -0.7608    3.3794 O   0  0  0  0  0  0  0  0  0  0  0  0
   -2.7175    0.9123    4.3059 O   0  0  0  0  0  0  0  0  0  0  0  0
   -1.6963   -1.2054    3.0623 N   0  0  0  0  0  0  0  0  0  0  0  0
   -0.4146   -0.5813    2.7925 C   0  0  0  0  0  0  0  0  0  0  0  0
   -0.1680   -0.9767    1.4025 C   0  0  1  0  0  0  0  0  0  0  0  0
    1.0077   -1.5620    0.8395 C   0  0  1  0  0  0  0  0  0  0  0  0
    0.0594   -2.6537    0.3410 C   0  0  0  0  0  0  0  0  0  0  0  0
   -0.5412   -2.4875    1.6375 C   0  0  2  0  0  0  0  0  0  0  0  0
   -1.9137   -2.2051    2.0261 C   0  0  0  0  0  0  0  0  0  0  0  0
    1.6330   -0.9226   -0.3300 N   0  0  0  0  0  0  0  0  0  0  0  0
    0.8061   -0.3611   -1.3392 C   0  0  0  0  0  0  0  0  0  0  0  0
    3.0298   -0.9350   -0.3388 C   0  0  0  0  0  0  0  0  0  0  0  0
    3.6018   -1.5226    0.6963 O   0  0  0  0  0  0  0  0  0  0  0  0
    3.9977   -0.4196   -1.2799 C   0  0  0  0  0  0  0  0  0  0  0  0
    5.3687   -0.6138   -1.0395 C   0  0  0  0  0  0  0  0  0  0  0  0
    6.3375   -0.1508   -1.8781 C   0  0  0  0  0  0  0  0  0  0  0  0
    6.0359    0.5413   -3.0221 C   0  0  0  0  0  0  0  0  0  0  0  0
    4.7056    0.7501   -3.2897 C   0  0  0  0  0  0  0  0  0  0  0  0
    3.7056    0.2737   -2.4263 C   0  0  0  0  0  0  0  0  0  0  0  0
    4.3650    1.4721   -4.4821 C   0  0  0  0  0  0  0  0  0  0  0  0
    4.0895    2.0676   -5.4311 N   0  0  0  0  0  0  0  0  0  0  0  0
   -5.4365    2.4514   -2.5651 H   0  0  0  0  0  0  0  0  0  0  0  0
   -4.0524    1.5539   -3.2128 H   0  0  0  0  0  0  0  0  0  0  0  0
   -4.3337    3.1916   -3.8304 H   0  0  0  0  0  0  0  0  0  0  0  0
   -4.7279    0.8012   -1.3057 H   0  0  0  0  0  0  0  0  0  0  0  0
   -4.4680   -0.5003    0.7997 H   0  0  0  0  0  0  0  0  0  0  0  0
   -1.7619    2.3983    2.2493 H   0  0  0  0  0  0  0  0  0  0  0  0
   -2.0245    3.7109    0.1260 H   0  0  0  0  0  0  0  0  0  0  0  0
   -0.5147    0.4940    2.9890 H   0  0  0  0  0  0  0  0  0  0  0  0
    0.3863   -0.9756    3.4496 H   0  0  0  0  0  0  0  0  0  0  0  0
   -0.9182   -0.5910    0.7190 H   0  0  0  0  0  0  0  0  0  0  0  0
    1.7634   -1.9626    1.5474 H   0  0  0  0  0  0  0  0  0  0  0  0
   -0.4817   -2.4371   -0.5726 H   0  0  0  0  0  0  0  0  0  0  0  0
    0.6339   -3.6007    0.2293 H   0  0  0  0  0  0  0  0  0  0  0  0
    0.0848   -2.8457    2.4701 H   0  0  0  0  0  0  0  0  0  0  0  0
   -2.4592   -1.7321    1.2037 H   0  0  0  0  0  0  0  0  0  0  0  0
   -2.5072   -3.0682    2.3994 H   0  0  0  0  0  0  0  0  0  0  0  0
    0.8590    0.7446   -1.4136 H   0  0  0  0  0  0  0  0  0  0  0  0
    0.9216   -0.8659   -2.3438 H   0  0  0  0  0  0  0  0  0  0  0  0
   -0.2981   -0.5388   -1.1359 H   0  0  0  0  0  0  0  0  0  0  0  0
    5.6307   -1.1611   -0.1378 H   0  0  0  0  0  0  0  0  0  0  0  0
    7.3995   -0.3295   -1.6444 H   0  0  0  0  0  0  0  0  0  0  0  0
    6.8381    0.8773   -3.6371 H   0  0  0  0  0  0  0  0  0  0  0  0
    2.7019    0.4950   -2.7270 H   0  0  0  0  0  0  0  0  0  0  0  0
  1  2  1  0
  2  3  1  0
  3  4  2  0
  4  5  1  0
  5  6  2  0
  6  7  1  0
  7  8  2  0
  6  9  1  0
  9 10  2  0
  9 11  2  0
  9 12  1  0
 12 13  1  0
 13 14  1  0
 14 15  1  0
 15 16  1  0
 16 17  1  0
 17 18  1  0
 15 19  1  0
 19 20  1  0
 19 21  1  0
 21 22  2  0
 21 23  1  0
 23 24  2  0
 24 25  1  0
 25 26  2  0
 26 27  1  0
 27 28  2  0
 27 29  1  0
 29 30  3  0
  8  3  1  0
 18 12  1  0
 28 23  1  0
 17 14  1  0
  1 31  1  0
  1 32  1  0
  1 33  1  0
  4 34  1  0
  5 35  1  0
  7 36  1  0
  8 37  1  0
 13 38  1  0
 13 39  1  0
 14 40  1  6
 15 41  1  1
 16 42  1  0
 16 43  1  0
 17 44  1  1
 18 45  1  0
 18 46  1  0
 20 47  1  0
 20 48  1  0
 20 49  1  0
 24 50  1  0
 25 51  1  0
 26 52  1  0
 28 53  1  0
M  END
$$$$
[H]c1c([H])c(C(F)(F)F)c([H])c([H])c1C(=O)N([H])[C@@]([H])(C(=O)N([H])[C@]1([H])C([H])([H])C([H])([H])[C@@]([H])(OC(=O)N2C([H])([H])C([H])([H])OC([H])([H])C2([H])[H])C([H])([H])C1([H])[H])C([H])([H])[H]
     RDKit          3D

 61 63  0  0  0  0  0  0  0  0999 V2000
   -2.8636   -1.8414    1.8147 C   0  0  0  0  0  0  0  0  0  0  0  0
   -3.0651   -1.5084    0.3258 C   0  0  1  0  0  0  0  0  0  0  0  0
   -4.2855   -0.7707    0.1947 N   0  0  0  0  0  0  0  0  0  0  0  0
   -5.4315   -1.2765   -0.4489 C   0  0  0  0  0  0  0  0  0  0  0  0
   -5.4154   -2.4382   -0.9512 O   0  0  0  0  0  0  0  0  0  0  0  0
   -6.6603   -0.4775   -0.5491 C   0  0  0  0  0  0  0  0  0  0  0  0
   -7.8717   -1.0805   -0.8778 C   0  0  0  0  0  0  0  0  0  0  0  0
   -9.0468   -0.3517   -0.9663 C   0  0  0  0  0  0  0  0  0  0  0  0
   -9.0749    1.0029   -0.7309 C   0  0  0  0  0  0  0  0  0  0  0  0
   -7.8843    1.6124   -0.4043 C   0  0  0  0  0  0  0  0  0  0  0  0
   -6.6947    0.8836   -0.3156 C   0  0  0  0  0  0  0  0  0  0  0  0
  -10.3400    1.7877   -0.8289 C   0  0  0  0  0  0  0  0  0  0  0  0
  -10.6499    2.1899   -2.0940 F   0  0  0  0  0  0  0  0  0  0  0  0
  -11.4109    1.0415   -0.3526 F   0  0  0  0  0  0  0  0  0  0  0  0
  -10.2745    2.8901   -0.0044 F   0  0  0  0  0  0  0  0  0  0  0  0
   -1.9221   -0.6652   -0.0970 C   0  0  0  0  0  0  0  0  0  0  0  0
   -2.0671    0.5024   -0.5928 O   0  0  0  0  0  0  0  0  0  0  0  0
   -0.6080   -1.2047    0.0684 N   0  0  0  0  0  0  0  0  0  0  0  0
    0.5881   -0.4484   -0.3134 C   0  0  1  0  0  0  0  0  0  0  0  0
    1.1719    0.1421    0.9713 C   0  0  0  0  0  0  0  0  0  0  0  0
    2.4524    0.8340    0.4886 C   0  0  0  0  0  0  0  0  0  0  0  0
    3.4295   -0.3223    0.2859 C   0  0  1  0  0  0  0  0  0  0  0  0
    2.9458   -1.3472   -0.6379 C   0  0  0  0  0  0  0  0  0  0  0  0
    1.5418   -1.2213   -1.1260 C   0  0  0  0  0  0  0  0  0  0  0  0
    4.6679    0.2662   -0.0527 O   0  0  0  0  0  0  0  0  0  0  0  0
    5.7143    0.3568    0.8337 C   0  0  0  0  0  0  0  0  0  0  0  0
    5.5350   -0.0976    1.9847 O   0  0  0  0  0  0  0  0  0  0  0  0
    6.9238    0.9488    0.4274 N   0  0  0  0  0  0  0  0  0  0  0  0
    8.0158    1.0765    1.3566 C   0  0  0  0  0  0  0  0  0  0  0  0
    9.2614    0.4979    0.7388 C   0  0  0  0  0  0  0  0  0  0  0  0
    9.0968    0.1116   -0.5621 O   0  0  0  0  0  0  0  0  0  0  0  0
    8.4796    1.0252   -1.3892 C   0  0  0  0  0  0  0  0  0  0  0  0
    7.0955    1.4319   -0.9168 C   0  0  0  0  0  0  0  0  0  0  0  0
   -3.2843   -1.0351    2.4550 H   0  0  0  0  0  0  0  0  0  0  0  0
   -3.3264   -2.8312    2.0023 H   0  0  0  0  0  0  0  0  0  0  0  0
   -1.7852   -1.8992    2.0648 H   0  0  0  0  0  0  0  0  0  0  0  0
   -3.1082   -2.4591   -0.2518 H   0  0  0  0  0  0  0  0  0  0  0  0
   -4.2904    0.2057    0.6194 H   0  0  0  0  0  0  0  0  0  0  0  0
   -7.8461   -2.1473   -1.0566 H   0  0  0  0  0  0  0  0  0  0  0  0
  -10.0015   -0.8142   -1.2259 H   0  0  0  0  0  0  0  0  0  0  0  0
   -7.8924    2.6909   -0.2282 H   0  0  0  0  0  0  0  0  0  0  0  0
   -5.7689    1.3882   -0.0697 H   0  0  0  0  0  0  0  0  0  0  0  0
   -0.4631   -2.1292    0.4571 H   0  0  0  0  0  0  0  0  0  0  0  0
    0.1966    0.4585   -0.8573 H   0  0  0  0  0  0  0  0  0  0  0  0
    1.3846   -0.6632    1.6896 H   0  0  0  0  0  0  0  0  0  0  0  0
    0.4620    0.8822    1.3408 H   0  0  0  0  0  0  0  0  0  0  0  0
    2.2390    1.3870   -0.4242 H   0  0  0  0  0  0  0  0  0  0  0  0
    2.8103    1.4392    1.3432 H   0  0  0  0  0  0  0  0  0  0  0  0
    3.5571   -0.7116    1.3352 H   0  0  0  0  0  0  0  0  0  0  0  0
    3.0776   -2.3677   -0.1839 H   0  0  0  0  0  0  0  0  0  0  0  0
    3.6097   -1.3854   -1.5481 H   0  0  0  0  0  0  0  0  0  0  0  0
    1.1133   -2.2592   -1.2710 H   0  0  0  0  0  0  0  0  0  0  0  0
    1.5342   -0.7990   -2.1753 H   0  0  0  0  0  0  0  0  0  0  0  0
    7.7734    0.6250    2.3292 H   0  0  0  0  0  0  0  0  0  0  0  0
    8.2132    2.1772    1.5368 H   0  0  0  0  0  0  0  0  0  0  0  0
    9.4951   -0.4367    1.3292 H   0  0  0  0  0  0  0  0  0  0  0  0
   10.1434    1.1454    0.8705 H   0  0  0  0  0  0  0  0  0  0  0  0
    9.1190    1.8710   -1.6542 H   0  0  0  0  0  0  0  0  0  0  0  0
    8.3141    0.4850   -2.3692 H   0  0  0  0  0  0  0  0  0  0  0  0
    7.0779    2.5559   -0.8843 H   0  0  0  0  0  0  0  0  0  0  0  0
    6.2930    1.0771   -1.5957 H   0  0  0  0  0  0  0  0  0  0  0  0
  1  2  1  0
  2  3  1  0
  3  4  1  0
  4  5  2  0
  4  6  1  0
  6  7  2  0
  7  8  1  0
  8  9  2  0
  9 10  1  0
 10 11  2  0
  9 12  1  0
 12 13  1  0
 12 14  1  0
 12 15  1  0
  2 16  1  0
 16 17  2  0
 16 18  1  0
 18 19  1  0
 19 20  1  0
 20 21  1  0
 21 22  1  0
 22 23  1  0
 23 24  1  0
 22 25  1  0
 25 26  1  0
 26 27  2  0
 26 28  1  0
 28 29  1  0
 29 30  1  0
 30 31  1  0
 31 32  1  0
 32 33  1  0
 11  6  1  0
 24 19  1  0
 33 28  1  0
  1 34  1  0
  1 35  1  0
  1 36  1  0
  2 37  1  6
  3 38  1  0
  7 39  1  0
  8 40  1  0
 10 41  1  0
 11 42  1  0
 18 43  1  0
 19 44  1  6
 20 45  1  0
 20 46  1  0
 21 47  1  0
 21 48  1  0
 22 49  1  1
 23 50  1  0
 23 51  1  0
 24 52  1  0
 24 53  1  0
 29 54  1  0
 29 55  1  0
 30 56  1  0
 30 57  1  0
 32 58  1  0
 32 59  1  0
 33 60  1  0
 33 61  1  0
M  END
$$$$
[H]c1c([H])c([H])c(C2([H])C([H])([H])C([H])([H])N([C@]3([H])C([H])([H])[C@]4([H])O[C@@]([H])(N([H])S(=O)(=O)c5c([H])c([H])c(OC([H])([H])[H])c([H])c5[H])C([H])([H])[C@]43[H])C([H])([H])C2([H])[H])c([H])c1[H]
     RDKit          3D

 61 65  0  0  0  0  0  0  0  0999 V2000
   -8.9891   -2.4184   -1.1151 C   0  0  0  0  0  0  0  0  0  0  0  0
   -7.9849   -1.7778   -1.8761 O   0  0  0  0  0  0  0  0  0  0  0  0
   -7.1395   -0.8625   -1.2549 C   0  0  0  0  0  0  0  0  0  0  0  0
   -7.2589   -0.5646    0.0886 C   0  0  0  0  0  0  0  0  0  0  0  0
   -6.4232    0.3414    0.7064 C   0  0  0  0  0  0  0  0  0  0  0  0
   -5.4138    1.0035    0.0030 C   0  0  0  0  0  0  0  0  0  0  0  0
   -5.2978    0.7045   -1.3351 C   0  0  0  0  0  0  0  0  0  0  0  0
   -6.1414   -0.2087   -1.9533 C   0  0  0  0  0  0  0  0  0  0  0  0
   -4.3632    2.1525    0.7822 S   0  0  0  0  0  0  0  0  0  0  0  0
   -3.9173    3.1267   -0.3003 O   0  0  0  0  0  0  0  0  0  0  0  0
   -5.1370    2.9752    1.7726 O   0  0  0  0  0  0  0  0  0  0  0  0
   -2.9849    1.4175    1.5134 N   0  0  0  0  0  0  0  0  0  0  0  0
   -2.2206    0.7801    0.4992 C   0  0  1  0  0  0  0  0  0  0  0  0
   -0.8259    1.4408    0.5085 C   0  0  0  0  0  0  0  0  0  0  0  0
   -0.0052    0.2483    0.4897 C   0  0  1  0  0  0  0  0  0  0  0  0
    1.0569   -0.1317    1.3788 C   0  0  1  0  0  0  0  0  0  0  0  0
    0.2517   -1.4439    1.5289 C   0  0  0  0  0  0  0  0  0  0  0  0
   -0.8829   -0.5494    1.5104 C   0  0  2  0  0  0  0  0  0  0  0  0
   -1.9893   -0.5919    0.7889 O   0  0  0  0  0  0  0  0  0  0  0  0
    2.3604   -0.2477    0.8400 N   0  0  0  0  0  0  0  0  0  0  0  0
    2.5573   -1.2428   -0.1636 C   0  0  0  0  0  0  0  0  0  0  0  0
    4.0636   -1.3749   -0.4195 C   0  0  0  0  0  0  0  0  0  0  0  0
    4.7645   -0.1241    0.0507 C   0  0  0  0  0  0  0  0  0  0  0  0
    3.9481    1.0401   -0.5199 C   0  0  0  0  0  0  0  0  0  0  0  0
    2.6635    1.0637    0.2352 C   0  0  0  0  0  0  0  0  0  0  0  0
    6.1243    0.0155   -0.4826 C   0  0  0  0  0  0  0  0  0  0  0  0
    6.4462   -0.1268   -1.8086 C   0  0  0  0  0  0  0  0  0  0  0  0
    7.7417    0.0204   -2.2333 C   0  0  0  0  0  0  0  0  0  0  0  0
    8.7557    0.3143   -1.3461 C   0  0  0  0  0  0  0  0  0  0  0  0
    8.4662    0.4665    0.0120 C   0  0  0  0  0  0  0  0  0  0  0  0
    7.1502    0.3100    0.3951 C   0  0  0  0  0  0  0  0  0  0  0  0
   -9.7200   -2.9186   -1.7914 H   0  0  0  0  0  0  0  0  0  0  0  0
   -9.5802   -1.7257   -0.4897 H   0  0  0  0  0  0  0  0  0  0  0  0
   -8.5654   -3.2265   -0.4762 H   0  0  0  0  0  0  0  0  0  0  0  0
   -8.0334   -1.0644    0.6592 H   0  0  0  0  0  0  0  0  0  0  0  0
   -6.5203    0.5731    1.7639 H   0  0  0  0  0  0  0  0  0  0  0  0
   -4.5311    1.1936   -1.9291 H   0  0  0  0  0  0  0  0  0  0  0  0
   -6.0487   -0.4468   -3.0199 H   0  0  0  0  0  0  0  0  0  0  0  0
   -3.3042    0.7654    2.2562 H   0  0  0  0  0  0  0  0  0  0  0  0
   -2.6640    0.8964   -0.4846 H   0  0  0  0  0  0  0  0  0  0  0  0
   -0.6885    2.0486    1.4132 H   0  0  0  0  0  0  0  0  0  0  0  0
   -0.6820    2.0363   -0.4199 H   0  0  0  0  0  0  0  0  0  0  0  0
   -0.0390   -0.3072   -0.4603 H   0  0  0  0  0  0  0  0  0  0  0  0
    1.0858    0.3338    2.3829 H   0  0  0  0  0  0  0  0  0  0  0  0
    0.5256   -1.9811    2.4451 H   0  0  0  0  0  0  0  0  0  0  0  0
    0.2945   -2.1148    0.6656 H   0  0  0  0  0  0  0  0  0  0  0  0
   -0.9602    0.0882    2.4150 H   0  0  0  0  0  0  0  0  0  0  0  0
    2.0092   -1.0534   -1.0970 H   0  0  0  0  0  0  0  0  0  0  0  0
    2.2567   -2.2523    0.1992 H   0  0  0  0  0  0  0  0  0  0  0  0
    4.2426   -1.4826   -1.5107 H   0  0  0  0  0  0  0  0  0  0  0  0
    4.5037   -2.2284    0.0978 H   0  0  0  0  0  0  0  0  0  0  0  0
    4.7637   -0.0171    1.1443 H   0  0  0  0  0  0  0  0  0  0  0  0
    4.4560    2.0094   -0.3707 H   0  0  0  0  0  0  0  0  0  0  0  0
    3.7600    0.8705   -1.5836 H   0  0  0  0  0  0  0  0  0  0  0  0
    2.5801    1.8484    0.9963 H   0  0  0  0  0  0  0  0  0  0  0  0
    1.8416    1.2859   -0.5060 H   0  0  0  0  0  0  0  0  0  0  0  0
    5.6270   -0.3625   -2.5075 H   0  0  0  0  0  0  0  0  0  0  0  0
    7.9859   -0.0960   -3.2910 H   0  0  0  0  0  0  0  0  0  0  0  0
    9.7989    0.4367   -1.6618 H   0  0  0  0  0  0  0  0  0  0  0  0
    9.2643    0.6972    0.7039 H   0  0  0  0  0  0  0  0  0  0  0  0
    6.9658    0.4384    1.4742 H   0  0  0  0  0  0  0  0  0  0  0  0
  1  2  1  0
  2  3  1  0
  3  4  2  0
  4  5  1  0
  5  6  2  0
  6  7  1  0
  7  8  2  0
  6  9  1  0
  9 10  2  0
  9 11  2  0
  9 12  1  0
 12 13  1  0
 13 14  1  0
 14 15  1  0
 15 16  1  0
 16 17  1  0
 17 18  1  0
 18 19  1  0
 16 20  1  0
 20 21  1  0
 21 22  1  0
 22 23  1  0
 23 24  1  0
 24 25  1  0
 23 26  1  0
 26 27  2  0
 27 28  1  0
 28 29  2  0
 29 30  1  0
 30 31  2  0
  8  3  1  0
 19 13  1  0
 25 20  1  0
 31 26  1  0
 18 15  1  0
  1 32  1  0
  1 33  1  0
  1 34  1  0
  4 35  1  0
  5 36  1  0
  7 37  1  0
  8 38  1  0
 12 39  1  0
 13 40  1  6
 14 41  1  0
 14 42  1  0
 15 43  1  6
 16 44  1  1
 17 45  1  0
 17 46  1  0
 18 47  1  1
 21 48  1  0
 21 49  1  0
 22 50  1  0
 22 51  1  0
 23 52  1  0
 24 53  1  0
 24 54  1  0
 25 55  1  0
 25 56  1  0
 27 57  1  0
 28 58  1  0
 29 59  1  0
 30 60  1  0
 31 61  1  0
M  END
$$$$
[H]N=C(N([H])[H])N([H])C([H])([H])C([H])([H])C([H])([H])[C@@]([H])(C(=O)N([H])[C@]([H])(C(=O)N([H])[H])C([H])([H])c1c([H])n([H])c2c([H])c([H])c([H])c([H])c12)N([H])C(=O)[C@@]([H])(N([H])C(=O)[C@@]([H])(N([H])C(=O)OC([H])([H])c1c([H])c([H])c([H])c([H])c1[H])C([H])([H])c1c([H])c([H])c([H])c([H])c1[H])C([H])([H])[H]
     RDKit          3D

 97100  0  0  0  0  0  0  0  0999 V2000
    0.6683    3.1370    2.2575 C   0  0  0  0  0  0  0  0  0  0  0  0
    0.3428    1.9090    1.3629 C   0  0  2  0  0  0  0  0  0  0  0  0
    1.6100    1.2820    0.9894 N   0  0  0  0  0  0  0  0  0  0  0  0
    2.1352    0.1991    1.7236 C   0  0  0  0  0  0  0  0  0  0  0  0
    1.5622   -0.2295    2.7478 O   0  0  0  0  0  0  0  0  0  0  0  0
    3.4142   -0.4324    1.2172 C   0  0  2  0  0  0  0  0  0  0  0  0
    3.0388   -1.0924   -0.1130 C   0  0  0  0  0  0  0  0  0  0  0  0
    4.2173   -1.7171   -0.7132 C   0  0  0  0  0  0  0  0  0  0  0  0
    5.0847   -0.9580   -1.4989 C   0  0  0  0  0  0  0  0  0  0  0  0
    6.1755   -1.5409   -2.1072 C   0  0  0  0  0  0  0  0  0  0  0  0
    6.4149   -2.8978   -1.9369 C   0  0  0  0  0  0  0  0  0  0  0  0
    5.5835   -3.6557   -1.1749 C   0  0  0  0  0  0  0  0  0  0  0  0
    4.4990   -3.0607   -0.5732 C   0  0  0  0  0  0  0  0  0  0  0  0
    3.7372   -1.4316    2.1800 N   0  0  0  0  0  0  0  0  0  0  0  0
    5.0792   -1.7076    2.5496 C   0  0  0  0  0  0  0  0  0  0  0  0
    6.0301   -1.0641    1.9865 O   0  0  0  0  0  0  0  0  0  0  0  0
    5.4124   -2.6391    3.4945 O   0  0  0  0  0  0  0  0  0  0  0  0
    6.7090   -2.9665    3.8599 C   0  0  0  0  0  0  0  0  0  0  0  0
    7.4113   -3.6128    2.7358 C   0  0  0  0  0  0  0  0  0  0  0  0
    7.0577   -4.9358    2.4409 C   0  0  0  0  0  0  0  0  0  0  0  0
    7.6889   -5.5956    1.4240 C   0  0  0  0  0  0  0  0  0  0  0  0
    8.6782   -5.0048    0.6540 C   0  0  0  0  0  0  0  0  0  0  0  0
    9.0017   -3.6943    0.9762 C   0  0  0  0  0  0  0  0  0  0  0  0
    8.3794   -3.0064    2.0008 C   0  0  0  0  0  0  0  0  0  0  0  0
   -0.3088    2.4981    0.1652 C   0  0  0  0  0  0  0  0  0  0  0  0
    0.3035    3.2316   -0.6026 O   0  0  0  0  0  0  0  0  0  0  0  0
   -1.6840    2.1343   -0.0238 N   0  0  0  0  0  0  0  0  0  0  0  0
   -2.3763    2.7150   -1.2103 C   0  0  1  0  0  0  0  0  0  0  0  0
   -1.9818    2.1377   -2.4945 C   0  0  0  0  0  0  0  0  0  0  0  0
   -2.3072    2.7854   -3.7760 C   0  0  0  0  0  0  0  0  0  0  0  0
   -3.5978    3.2458   -4.2405 C   0  0  0  0  0  0  0  0  0  0  0  0
   -4.2097    4.3475   -3.5525 N   0  0  0  0  0  0  0  0  0  0  0  0
   -3.6727    5.6644   -3.6685 C   0  0  0  0  0  0  0  0  0  0  0  0
   -2.7415    6.2396   -2.7739 N   0  0  0  0  0  0  0  0  0  0  0  0
   -4.0662    6.3396   -4.6674 N   0  0  0  0  0  0  0  0  0  0  0  0
   -3.8102    2.4304   -0.7663 C   0  0  0  0  0  0  0  0  0  0  0  0
   -4.0854    2.9971    0.3184 O   0  0  0  0  0  0  0  0  0  0  0  0
   -4.6601    1.6383   -1.4687 N   0  0  0  0  0  0  0  0  0  0  0  0
   -6.0139    1.2324   -1.3096 C   0  0  1  0  0  0  0  0  0  0  0  0
   -6.0985   -0.2871   -1.4557 C   0  0  0  0  0  0  0  0  0  0  0  0
   -5.2509   -1.0230   -0.5123 C   0  0  0  0  0  0  0  0  0  0  0  0
   -3.9494   -1.5074   -0.8294 C   0  0  0  0  0  0  0  0  0  0  0  0
   -3.4356   -2.0798    0.2659 N   0  0  0  0  0  0  0  0  0  0  0  0
   -4.2978   -2.0135    1.2860 C   0  0  0  0  0  0  0  0  0  0  0  0
   -4.2145   -2.4623    2.6011 C   0  0  0  0  0  0  0  0  0  0  0  0
   -5.2500   -2.2784    3.4835 C   0  0  0  0  0  0  0  0  0  0  0  0
   -6.3615   -1.6339    2.9980 C   0  0  0  0  0  0  0  0  0  0  0  0
   -6.4656   -1.1831    1.7068 C   0  0  0  0  0  0  0  0  0  0  0  0
   -5.4227   -1.3614    0.8055 C   0  0  0  0  0  0  0  0  0  0  0  0
   -6.8805    1.8042   -0.2989 C   0  0  0  0  0  0  0  0  0  0  0  0
   -8.2791    1.3997   -0.3371 N   0  0  0  0  0  0  0  0  0  0  0  0
   -6.6161    2.5992    0.6005 O   0  0  0  0  0  0  0  0  0  0  0  0
    1.2660    2.7983    3.1280 H   0  0  0  0  0  0  0  0  0  0  0  0
   -0.2932    3.5411    2.6289 H   0  0  0  0  0  0  0  0  0  0  0  0
    1.1669    3.9343    1.6807 H   0  0  0  0  0  0  0  0  0  0  0  0
   -0.2677    1.2524    1.9573 H   0  0  0  0  0  0  0  0  0  0  0  0
    2.1048    1.6560    0.1761 H   0  0  0  0  0  0  0  0  0  0  0  0
    4.2025    0.2743    0.9845 H   0  0  0  0  0  0  0  0  0  0  0  0
    2.2524   -1.8468    0.0468 H   0  0  0  0  0  0  0  0  0  0  0  0
    2.6225   -0.3213   -0.8224 H   0  0  0  0  0  0  0  0  0  0  0  0
    4.8948    0.1013   -1.6299 H   0  0  0  0  0  0  0  0  0  0  0  0
    6.8423   -0.9336   -2.7190 H   0  0  0  0  0  0  0  0  0  0  0  0
    7.2691   -3.3243   -2.4204 H   0  0  0  0  0  0  0  0  0  0  0  0
    5.7912   -4.7229   -1.0539 H   0  0  0  0  0  0  0  0  0  0  0  0
    3.8340   -3.6645    0.0343 H   0  0  0  0  0  0  0  0  0  0  0  0
    2.9912   -1.9966    2.6504 H   0  0  0  0  0  0  0  0  0  0  0  0
    7.2800   -2.0556    4.2003 H   0  0  0  0  0  0  0  0  0  0  0  0
    6.7229   -3.7060    4.7190 H   0  0  0  0  0  0  0  0  0  0  0  0
    6.2760   -5.4487    3.0235 H   0  0  0  0  0  0  0  0  0  0  0  0
    7.4238   -6.6257    1.1807 H   0  0  0  0  0  0  0  0  0  0  0  0
    9.1882   -5.5244   -0.1577 H   0  0  0  0  0  0  0  0  0  0  0  0
    9.7648   -3.2100    0.3988 H   0  0  0  0  0  0  0  0  0  0  0  0
    8.7029   -1.9673    2.1929 H   0  0  0  0  0  0  0  0  0  0  0  0
   -2.1681    1.5105    0.5945 H   0  0  0  0  0  0  0  0  0  0  0  0
   -2.1131    3.7744   -1.2024 H   0  0  0  0  0  0  0  0  0  0  0  0
   -0.8254    2.0848   -2.4710 H   0  0  0  0  0  0  0  0  0  0  0  0
   -2.2194    1.0218   -2.5688 H   0  0  0  0  0  0  0  0  0  0  0  0
   -1.5126    3.6364   -3.9210 H   0  0  0  0  0  0  0  0  0  0  0  0
   -1.8714    2.0585   -4.5864 H   0  0  0  0  0  0  0  0  0  0  0  0
   -4.3118    2.3791   -4.3761 H   0  0  0  0  0  0  0  0  0  0  0  0
   -3.4453    3.6479   -5.3340 H   0  0  0  0  0  0  0  0  0  0  0  0
   -5.0489    4.2107   -2.9749 H   0  0  0  0  0  0  0  0  0  0  0  0
   -2.9281    6.2816   -1.7672 H   0  0  0  0  0  0  0  0  0  0  0  0
   -1.8626    6.6112   -3.2053 H   0  0  0  0  0  0  0  0  0  0  0  0
   -3.8468    7.2828   -4.9800 H   0  0  0  0  0  0  0  0  0  0  0  0
   -4.2082    1.1581   -2.3490 H   0  0  0  0  0  0  0  0  0  0  0  0
   -6.4833    1.6137   -2.3421 H   0  0  0  0  0  0  0  0  0  0  0  0
   -5.7570   -0.5214   -2.4914 H   0  0  0  0  0  0  0  0  0  0  0  0
   -7.1496   -0.6078   -1.3856 H   0  0  0  0  0  0  0  0  0  0  0  0
   -3.4830   -1.4154   -1.7952 H   0  0  0  0  0  0  0  0  0  0  0  0
   -2.4710   -2.5327    0.3340 H   0  0  0  0  0  0  0  0  0  0  0  0
   -3.3295   -2.9851    2.9956 H   0  0  0  0  0  0  0  0  0  0  0  0
   -5.1790   -2.6288    4.5139 H   0  0  0  0  0  0  0  0  0  0  0  0
   -7.1752   -1.4979    3.7263 H   0  0  0  0  0  0  0  0  0  0  0  0
   -7.3488   -0.7176    1.3751 H   0  0  0  0  0  0  0  0  0  0  0  0
   -8.7201    1.3143   -1.2499 H   0  0  0  0  0  0  0  0  0  0  0  0
   -8.7737    1.2159    0.5402 H   0  0  0  0  0  0  0  0  0  0  0  0
  1  2  1  0
  2  3  1  0
  3  4  1  0
  4  5  2  0
  4  6  1  0
  6  7  1  0
  7  8  1  0
  8  9  2  0
  9 10  1  0
 10 11  2  0
 11 12  1  0
 12 13  2  0
  6 14  1  0
 14 15  1  0
 15 16  2  0
 15 17  1  0
 17 18  1  0
 18 19  1  0
 19 20  2  0
 20 21  1  0
 21 22  2  0
 22 23  1  0
 23 24  2  0
  2 25  1  0
 25 26  2  0
 25 27  1  0
 27 28  1  0
 28 29  1  0
 29 30  1  0
 30 31  1  0
 31 32  1  0
 32 33  1  0
 33 34  1  0
 33 35  2  3
 28 36  1  0
 36 37  2  0
 36 38  1  0
 38 39  1  0
 39 40  1  0
 40 41  1  0
 41 42  2  0
 42 43  1  0
 43 44  1  0
 44 45  2  0
 45 46  1  0
 46 47  2  0
 47 48  1  0
 48 49  2  0
 39 50  1  0
 50 51  1  0
 50 52  2  0
 13  8  1  0
 24 19  1  0
 49 41  1  0
 49 44  1  0
  1 53  1  0
  1 54  1  0
  1 55  1  0
  2 56  1  1
  3 57  1  0
  6 58  1  6
  7 59  1  0
  7 60  1  0
  9 61  1  0
 10 62  1  0
 11 63  1  0
 12 64  1  0
 13 65  1  0
 14 66  1  0
 18 67  1  0
 18 68  1  0
 20 69  1  0
 21 70  1  0
 22 71  1  0
 23 72  1  0
 24 73  1  0
 27 74  1  0
 28 75  1  6
 29 76  1  0
 29 77  1  0
 30 78  1  0
 30 79  1  0
 31 80  1  0
 31 81  1  0
 32 82  1  0
 34 83  1  0
 34 84  1  0
 35 85  1  0
 38 86  1  0
 39 87  1  6
 40 88  1  0
 40 89  1  0
 42 90  1  0
 43 91  1  0
 45 92  1  0
 46 93  1  0
 47 94  1  0
 48 95  1  0
 51 96  1  0
 51 97  1  0
M  END
$$$$
[H]c1c([H])c(C#N)c([H])c(S(=O)(=O)N([H])[C@]2([H])C([H])([H])C([H])([H])[C@@]([H])(c3c([H])c([H])c(N4C([H])([H])C([H])([H])N(C([H])([H])[H])C([H])([H])C4([H])[H])c([H])c3[H])C([H])([H])C2([H])[H])c1[H]
     RDKit          3D

 61 64  0  0  0  0  0  0  0  0999 V2000
    8.8755    0.0621   -0.5167 C   0  0  0  0  0  0  0  0  0  0  0  0
    7.7750    0.9687   -0.2772 N   0  0  0  0  0  0  0  0  0  0  0  0
    7.0984    0.7414    0.9493 C   0  0  0  0  0  0  0  0  0  0  0  0
    5.6188    0.9176    0.9367 C   0  0  0  0  0  0  0  0  0  0  0  0
    4.9553    0.5062   -0.2582 N   0  0  0  0  0  0  0  0  0  0  0  0
    5.7052    0.3656   -1.4695 C   0  0  0  0  0  0  0  0  0  0  0  0
    6.9619    1.2046   -1.4178 C   0  0  0  0  0  0  0  0  0  0  0  0
    3.5593    0.2441   -0.2298 C   0  0  0  0  0  0  0  0  0  0  0  0
    2.9054   -0.2083   -1.3680 C   0  0  0  0  0  0  0  0  0  0  0  0
    1.5517   -0.4672   -1.3644 C   0  0  0  0  0  0  0  0  0  0  0  0
    0.7870   -0.2891   -0.2329 C   0  0  0  0  0  0  0  0  0  0  0  0
    1.4149    0.1586    0.9062 C   0  0  0  0  0  0  0  0  0  0  0  0
    2.7901    0.4195    0.8953 C   0  0  0  0  0  0  0  0  0  0  0  0
   -0.6615   -0.5648   -0.2239 C   0  0  1  0  0  0  0  0  0  0  0  0
   -1.0346   -1.6390    0.7730 C   0  0  0  0  0  0  0  0  0  0  0  0
   -2.2796   -1.2990    1.5450 C   0  0  0  0  0  0  0  0  0  0  0  0
   -3.3837   -0.7665    0.6558 C   0  0  1  0  0  0  0  0  0  0  0  0
   -2.9079    0.3797   -0.2095 C   0  0  0  0  0  0  0  0  0  0  0  0
   -1.4635    0.6773    0.1219 C   0  0  0  0  0  0  0  0  0  0  0  0
   -3.9100   -1.8383   -0.1409 N   0  0  0  0  0  0  0  0  0  0  0  0
   -5.5572   -2.1917    0.1361 S   0  0  0  0  0  0  0  0  0  0  0  0
   -5.9434   -3.3155   -0.7918 O   0  0  0  0  0  0  0  0  0  0  0  0
   -5.8034   -2.6471    1.5399 O   0  0  0  0  0  0  0  0  0  0  0  0
   -6.5215   -0.7933   -0.2593 C   0  0  0  0  0  0  0  0  0  0  0  0
   -6.9949   -0.6162   -1.5433 C   0  0  0  0  0  0  0  0  0  0  0  0
   -7.7621    0.4837   -1.8789 C   0  0  0  0  0  0  0  0  0  0  0  0
   -8.0616    1.4233   -0.9139 C   0  0  0  0  0  0  0  0  0  0  0  0
   -7.6015    1.2705    0.3757 C   0  0  0  0  0  0  0  0  0  0  0  0
   -6.8316    0.1550    0.6872 C   0  0  0  0  0  0  0  0  0  0  0  0
   -7.9376    2.2724    1.3455 C   0  0  0  0  0  0  0  0  0  0  0  0
   -8.2199    3.0817    2.1285 N   0  0  0  0  0  0  0  0  0  0  0  0
    8.6936   -0.6523   -1.3213 H   0  0  0  0  0  0  0  0  0  0  0  0
    9.7536    0.6770   -0.8048 H   0  0  0  0  0  0  0  0  0  0  0  0
    9.1651   -0.5051    0.3900 H   0  0  0  0  0  0  0  0  0  0  0  0
    7.5087    1.4791    1.7000 H   0  0  0  0  0  0  0  0  0  0  0  0
    7.3991   -0.2575    1.3702 H   0  0  0  0  0  0  0  0  0  0  0  0
    5.3056    1.9506    1.2044 H   0  0  0  0  0  0  0  0  0  0  0  0
    5.2250    0.2623    1.7694 H   0  0  0  0  0  0  0  0  0  0  0  0
    5.8805   -0.6712   -1.7696 H   0  0  0  0  0  0  0  0  0  0  0  0
    5.0821    0.8363   -2.2866 H   0  0  0  0  0  0  0  0  0  0  0  0
    6.6513    2.2630   -1.4229 H   0  0  0  0  0  0  0  0  0  0  0  0
    7.5555    0.9964   -2.3277 H   0  0  0  0  0  0  0  0  0  0  0  0
    3.4461   -0.3686   -2.2852 H   0  0  0  0  0  0  0  0  0  0  0  0
    1.0926   -0.8192   -2.2832 H   0  0  0  0  0  0  0  0  0  0  0  0
    0.8718    0.3215    1.8368 H   0  0  0  0  0  0  0  0  0  0  0  0
    3.2602    0.7710    1.8016 H   0  0  0  0  0  0  0  0  0  0  0  0
   -0.9986   -0.9154   -1.2198 H   0  0  0  0  0  0  0  0  0  0  0  0
   -1.1574   -2.6198    0.2636 H   0  0  0  0  0  0  0  0  0  0  0  0
   -0.2061   -1.7267    1.5265 H   0  0  0  0  0  0  0  0  0  0  0  0
   -2.6684   -2.2630    1.9688 H   0  0  0  0  0  0  0  0  0  0  0  0
   -2.1000   -0.6434    2.4137 H   0  0  0  0  0  0  0  0  0  0  0  0
   -4.1747   -0.3776    1.3059 H   0  0  0  0  0  0  0  0  0  0  0  0
   -3.5552    1.2715   -0.1109 H   0  0  0  0  0  0  0  0  0  0  0  0
   -2.9360    0.0491   -1.2668 H   0  0  0  0  0  0  0  0  0  0  0  0
   -1.3960    0.8467    1.2088 H   0  0  0  0  0  0  0  0  0  0  0  0
   -1.0987    1.5692   -0.4166 H   0  0  0  0  0  0  0  0  0  0  0  0
   -3.6707   -1.7903   -1.1484 H   0  0  0  0  0  0  0  0  0  0  0  0
   -6.7581   -1.3606   -2.3095 H   0  0  0  0  0  0  0  0  0  0  0  0
   -8.1366    0.6251   -2.8919 H   0  0  0  0  0  0  0  0  0  0  0  0
   -8.6666    2.2835   -1.1942 H   0  0  0  0  0  0  0  0  0  0  0  0
   -6.4905    0.0722    1.7126 H   0  0  0  0  0  0  0  0  0  0  0  0
  1  2  1  0
  2  3  1  0
  3  4  1  0
  4  5  1  0
  5  6  1  0
  6  7  1  0
  5  8  1  0
  8  9  2  0
  9 10  1  0
 10 11  2  0
 11 12  1  0
 12 13  2  0
 11 14  1  0
 14 15  1  0
 15 16  1  0
 16 17  1  0
 17 18  1  0
 18 19  1  0
 17 20  1  0
 20 21  1  0
 21 22  2  0
 21 23  2  0
 21 24  1  0
 24 25  2  0
 25 26  1  0
 26 27  2  0
 27 28  1  0
 28 29  2  0
 28 30  1  0
 30 31  3  0
  7  2  1  0
 13  8  1  0
 19 14  1  0
 29 24  1  0
  1 32  1  0
  1 33  1  0
  1 34  1  0
  3 35  1  0
  3 36  1  0
  4 37  1  0
  4 38  1  0
  6 39  1  0
  6 40  1  0
  7 41  1  0
  7 42  1  0
  9 43  1  0
 10 44  1  0
 12 45  1  0
 13 46  1  0
 14 47  1  6
 15 48  1  0
 15 49  1  0
 16 50  1  0
 16 51  1  0
 17 52  1  1
 18 53  1  0
 18 54  1  0
 19 55  1  0
 19 56  1  0
 20 57  1  0
 25 58  1  0
 26 59  1  0
 27 60  1  0
 29 61  1  0
M  END
$$$$
[H]O[C@@]1([H])C([H])([H])C([H])([H])[C@]2(C([H])([H])[H])[C@]1([H])C([H])([H])C([H])([H])[C@]1([H])[C@]2([H])C([H])([H])C([H])([H])[C@]2(C([H])([H])[H])C([H])([H])[C@]([H])(O[H])C([H])([H])C([H])([H])[C@@]12[H]
     RDKit          3D

 53 56  0  0  0  0  0  0  0  0999 V2000
    2.5352   -0.0930    1.7352 C   0  0  0  0  0  0  0  0  0  0  0  0
    2.0831    0.5836    0.4309 C   0  0  2  0  0  0  0  0  0  0  0  0
    1.2476    1.7745    0.7119 C   0  0  0  0  0  0  0  0  0  0  0  0
   -0.1844    1.7155    0.4321 C   0  0  0  0  0  0  0  0  0  0  0  0
   -0.6220    0.6806   -0.5668 C   0  0  1  0  0  0  0  0  0  0  0  0
    0.0491   -0.6240   -0.1402 C   0  0  1  0  0  0  0  0  0  0  0  0
   -0.5932   -1.8160   -0.7691 C   0  0  0  0  0  0  0  0  0  0  0  0
   -2.0164   -1.9148   -0.2208 C   0  0  0  0  0  0  0  0  0  0  0  0
   -2.5116   -0.6008    0.2710 C   0  0  2  0  0  0  0  0  0  0  0  0
   -4.0049   -0.4611    0.2600 C   0  0  1  0  0  0  0  0  0  0  0  0
   -4.6175   -1.0415    1.3692 O   0  0  0  0  0  0  0  0  0  0  0  0
   -4.2344    1.0223    0.2106 C   0  0  0  0  0  0  0  0  0  0  0  0
   -2.9150    1.6546   -0.2215 C   0  0  0  0  0  0  0  0  0  0  0  0
   -2.0816    0.5095   -0.6624 C   0  0  1  0  0  0  0  0  0  0  0  0
   -2.4602    0.1900   -2.1100 C   0  0  0  0  0  0  0  0  0  0  0  0
    1.4820   -0.4254   -0.4843 C   0  0  2  0  0  0  0  0  0  0  0  0
    2.3136   -1.6728   -0.4579 C   0  0  0  0  0  0  0  0  0  0  0  0
    3.6384   -1.3497   -1.0698 C   0  0  0  0  0  0  0  0  0  0  0  0
    4.2853   -0.1209   -0.5580 C   0  0  1  0  0  0  0  0  0  0  0  0
    5.1920    0.3263   -1.5496 O   0  0  0  0  0  0  0  0  0  0  0  0
    3.3938    1.0109   -0.2329 C   0  0  0  0  0  0  0  0  0  0  0  0
    3.3940   -0.7528    1.5777 H   0  0  0  0  0  0  0  0  0  0  0  0
    1.6884   -0.6015    2.2313 H   0  0  0  0  0  0  0  0  0  0  0  0
    2.8748    0.7269    2.4067 H   0  0  0  0  0  0  0  0  0  0  0  0
    1.6831    2.6702    0.1754 H   0  0  0  0  0  0  0  0  0  0  0  0
    1.3923    2.0380    1.8026 H   0  0  0  0  0  0  0  0  0  0  0  0
   -0.5687    2.7023    0.0459 H   0  0  0  0  0  0  0  0  0  0  0  0
   -0.7751    1.5300    1.3639 H   0  0  0  0  0  0  0  0  0  0  0  0
   -0.2124    0.9789   -1.5623 H   0  0  0  0  0  0  0  0  0  0  0  0
   -0.0804   -0.6962    0.9556 H   0  0  0  0  0  0  0  0  0  0  0  0
   -0.5813   -1.8133   -1.8650 H   0  0  0  0  0  0  0  0  0  0  0  0
   -0.0700   -2.7140   -0.4274 H   0  0  0  0  0  0  0  0  0  0  0  0
   -2.7098   -2.3400   -0.9686 H   0  0  0  0  0  0  0  0  0  0  0  0
   -2.0490   -2.6293    0.6495 H   0  0  0  0  0  0  0  0  0  0  0  0
   -2.1541   -0.3331    1.2757 H   0  0  0  0  0  0  0  0  0  0  0  0
   -4.3907   -0.9729   -0.6444 H   0  0  0  0  0  0  0  0  0  0  0  0
   -5.5974   -1.0212    1.1765 H   0  0  0  0  0  0  0  0  0  0  0  0
   -4.4570    1.3859    1.2458 H   0  0  0  0  0  0  0  0  0  0  0  0
   -5.0710    1.3158   -0.4549 H   0  0  0  0  0  0  0  0  0  0  0  0
   -3.1500    2.3147   -1.0859 H   0  0  0  0  0  0  0  0  0  0  0  0
   -2.4957    2.2811    0.5659 H   0  0  0  0  0  0  0  0  0  0  0  0
   -1.5441    0.1933   -2.7626 H   0  0  0  0  0  0  0  0  0  0  0  0
   -3.1086    0.9947   -2.5412 H   0  0  0  0  0  0  0  0  0  0  0  0
   -3.0375   -0.7413   -2.1924 H   0  0  0  0  0  0  0  0  0  0  0  0
    1.5448   -0.0168   -1.5271 H   0  0  0  0  0  0  0  0  0  0  0  0
    2.3619   -2.1601    0.5215 H   0  0  0  0  0  0  0  0  0  0  0  0
    1.8164   -2.4195   -1.1442 H   0  0  0  0  0  0  0  0  0  0  0  0
    4.3741   -2.1980   -0.9800 H   0  0  0  0  0  0  0  0  0  0  0  0
    3.4721   -1.2235   -2.1716 H   0  0  0  0  0  0  0  0  0  0  0  0
    4.9522   -0.3986    0.3101 H   0  0  0  0  0  0  0  0  0  0  0  0
    5.4838    1.2359   -1.3297 H   0  0  0  0  0  0  0  0  0  0  0  0
    3.9005    1.6629    0.5311 H   0  0  0  0  0  0  0  0  0  0  0  0
    3.1356    1.6535   -1.0854 H   0  0  0  0  0  0  0  0  0  0  0  0
  2  1  1  1
  2  3  1  0
  3  4  1  0
  4  5  1  0
  5  6  1  0
  6  7  1  0
  7  8  1  0
  8  9  1  0
  9 10  1  0
 10 11  1  0
 10 12  1  0
 12 13  1  0
 13 14  1  0
 14 15  1  6
  6 16  1  0
 16 17  1  0
 17 18  1  0
 18 19  1  0
 19 20  1  0
 19 21  1  0
 16  2  1  0
 21  2  1  0
 14  5  1  0
 14  9  1  0
  1 22  1  0
  1 23  1  0
  1 24  1  0
  3 25  1  0
  3 26  1  0
  4 27  1  0
  4 28  1  0
  5 29  1  6
  6 30  1  1
  7 31  1  0
  7 32  1  0
  8 33  1  0
  8 34  1  0
  9 35  1  1
 10 36  1  6
 11 37  1  0
 12 38  1  0
 12 39  1  0
 13 40  1  0
 13 41  1  0
 15 42  1  0
 15 43  1  0
 15 44  1  0
 16 45  1  6
 17 46  1  0
 17 47  1  0
 18 48  1  0
 18 49  1  0
 19 50  1  1
 20 51  1  0
 21 52  1  0
 21 53  1  0
M  END
$$$$
[H]c1nc2c([H])c(OC([H])([H])[H])c(OC([H])([H])[H])c([H])c2c(Oc2c([H])c([H])c(N([H])C(=O)N([H])[C@]([H])(c3c([H])n(C([H])([H])[H])c(=O)n([H])c3=O)C([H])([H])[H])c([H])c2F)c1[H]
     RDKit          3D

 61 64  0  0  0  0  0  0  0  0999 V2000
   -9.2076   -0.6655    1.9618 C   0  0  0  0  0  0  0  0  0  0  0  0
   -7.8888   -1.0919    1.8261 O   0  0  0  0  0  0  0  0  0  0  0  0
   -7.0576   -0.7256    0.8013 C   0  0  0  0  0  0  0  0  0  0  0  0
   -7.3641    0.0972   -0.2534 C   0  0  0  0  0  0  0  0  0  0  0  0
   -6.4777    0.4435   -1.2667 C   0  0  0  0  0  0  0  0  0  0  0  0
   -6.8681    1.2543   -2.2666 N   0  0  0  0  0  0  0  0  0  0  0  0
   -6.0465    1.6089   -3.2585 C   0  0  0  0  0  0  0  0  0  0  0  0
   -4.7781    1.1462   -3.2720 C   0  0  0  0  0  0  0  0  0  0  0  0
   -4.2841    0.2657   -2.2216 C   0  0  0  0  0  0  0  0  0  0  0  0
   -3.0199   -0.0655   -2.4043 O   0  0  0  0  0  0  0  0  0  0  0  0
   -1.7832   -0.0367   -1.9157 C   0  0  0  0  0  0  0  0  0  0  0  0
   -1.0320    1.1520   -2.2417 C   0  0  0  0  0  0  0  0  0  0  0  0
    0.2452    1.3325   -1.8158 C   0  0  0  0  0  0  0  0  0  0  0  0
    0.9302    0.4377   -1.0589 C   0  0  0  0  0  0  0  0  0  0  0  0
    2.2226    0.6071   -0.5715 N   0  0  0  0  0  0  0  0  0  0  0  0
    2.9188    1.8413   -0.4897 C   0  0  0  0  0  0  0  0  0  0  0  0
    2.3403    2.9064   -0.8820 O   0  0  0  0  0  0  0  0  0  0  0  0
    4.2153    1.8649    0.0152 N   0  0  0  0  0  0  0  0  0  0  0  0
    5.4637    1.8899    0.5011 C   0  0  1  0  0  0  0  0  0  0  0  0
    5.4373    2.3255    1.9729 C   0  0  0  0  0  0  0  0  0  0  0  0
    6.2707    0.6337    0.3187 C   0  0  0  0  0  0  0  0  0  0  0  0
    6.7411   -0.1214    1.3647 C   0  0  0  0  0  0  0  0  0  0  0  0
    7.4782   -1.2211    1.0978 N   0  0  0  0  0  0  0  0  0  0  0  0
    7.9860   -2.0452    2.1586 C   0  0  0  0  0  0  0  0  0  0  0  0
    7.7663   -1.6003   -0.1825 C   0  0  0  0  0  0  0  0  0  0  0  0
    8.4584   -2.6375   -0.3879 O   0  0  0  0  0  0  0  0  0  0  0  0
    7.3201   -0.8845   -1.2282 N   0  0  0  0  0  0  0  0  0  0  0  0
    6.5723    0.2311   -0.9473 C   0  0  0  0  0  0  0  0  0  0  0  0
    6.1650    0.8893   -1.9639 O   0  0  0  0  0  0  0  0  0  0  0  0
    0.2105   -0.7271   -0.7400 C   0  0  0  0  0  0  0  0  0  0  0  0
   -1.0890   -0.9244   -1.1695 C   0  0  0  0  0  0  0  0  0  0  0  0
   -1.5987   -2.1677   -0.8768 F   0  0  0  0  0  0  0  0  0  0  0  0
   -5.1718   -0.0602   -1.2460 C   0  0  0  0  0  0  0  0  0  0  0  0
   -4.8601   -0.8840   -0.1932 C   0  0  0  0  0  0  0  0  0  0  0  0
   -5.7412   -1.2240    0.8043 C   0  0  0  0  0  0  0  0  0  0  0  0
   -5.3703   -2.0693    1.8338 O   0  0  0  0  0  0  0  0  0  0  0  0
   -4.0476   -2.6348    1.8012 C   0  0  0  0  0  0  0  0  0  0  0  0
   -9.3442   -0.1700    2.9577 H   0  0  0  0  0  0  0  0  0  0  0  0
   -9.9041   -1.5607    1.9349 H   0  0  0  0  0  0  0  0  0  0  0  0
   -9.4923    0.0448    1.1796 H   0  0  0  0  0  0  0  0  0  0  0  0
   -8.3584    0.5241   -0.3298 H   0  0  0  0  0  0  0  0  0  0  0  0
   -6.3838    2.2744   -4.0816 H   0  0  0  0  0  0  0  0  0  0  0  0
   -4.0771    1.4240   -4.0569 H   0  0  0  0  0  0  0  0  0  0  0  0
   -1.5686    1.8802   -2.8358 H   0  0  0  0  0  0  0  0  0  0  0  0
    0.7181    2.2762   -2.1528 H   0  0  0  0  0  0  0  0  0  0  0  0
    2.7235   -0.2621   -0.2503 H   0  0  0  0  0  0  0  0  0  0  0  0
    4.2648    3.2363   -0.1411 H   0  0  0  0  0  0  0  0  0  0  0  0
    6.1638    2.6948    0.0552 H   0  0  0  0  0  0  0  0  0  0  0  0
    5.3947    3.4509    1.9830 H   0  0  0  0  0  0  0  0  0  0  0  0
    4.5370    1.9468    2.4484 H   0  0  0  0  0  0  0  0  0  0  0  0
    6.3282    2.0390    2.5146 H   0  0  0  0  0  0  0  0  0  0  0  0
    6.5324    0.1381    2.3879 H   0  0  0  0  0  0  0  0  0  0  0  0
    8.9139   -2.5410    1.8189 H   0  0  0  0  0  0  0  0  0  0  0  0
    7.2328   -2.8263    2.4369 H   0  0  0  0  0  0  0  0  0  0  0  0
    8.1688   -1.4143    3.0545 H   0  0  0  0  0  0  0  0  0  0  0  0
    7.5131   -1.1528   -2.2039 H   0  0  0  0  0  0  0  0  0  0  0  0
    0.7213   -1.4684   -0.1433 H   0  0  0  0  0  0  0  0  0  0  0  0
   -3.8730   -1.2723   -0.1532 H   0  0  0  0  0  0  0  0  0  0  0  0
   -3.3092   -1.8782    2.0131 H   0  0  0  0  0  0  0  0  0  0  0  0
   -3.9408   -3.0383    0.7547 H   0  0  0  0  0  0  0  0  0  0  0  0
   -4.0166   -3.4853    2.5183 H   0  0  0  0  0  0  0  0  0  0  0  0
  1  2  1  0
  2  3  1  0
  3  4  2  0
  4  5  1  0
  5  6  2  0
  6  7  1  0
  7  8  2  0
  8  9  1  0
  9 10  1  0
 10 11  1  0
 11 12  2  0
 12 13  1  0
 13 14  2  0
 14 15  1  0
 15 16  1  0
 16 17  2  0
 16 18  1  0
 18 19  1  0
 19 20  1  0
 19 21  1  0
 21 22  2  0
 22 23  1  0
 23 24  1  0
 23 25  1  0
 25 26  2  0
 25 27  1  0
 27 28  1  0
 28 29  2  0
 14 30  1  0
 30 31  2  0
 31 32  1  0
  9 33  2  0
 33 34  1  0
 34 35  2  0
 35 36  1  0
 36 37  1  0
 35  3  1  0
 33  5  1  0
 31 11  1  0
 28 21  1  0
  1 38  1  0
  1 39  1  0
  1 40  1  0
  4 41  1  0
  7 42  1  0
  8 43  1  0
 12 44  1  0
 13 45  1  0
 15 46  1  0
 18 47  1  0
 19 48  1  6
 20 49  1  0
 20 50  1  0
 20 51  1  0
 22 52  1  0
 24 53  1  0
 24 54  1  0
 24 55  1  0
 27 56  1  0
 30 57  1  0
 34 58  1  0
 37 59  1  0
 37 60  1  0
 37 61  1  0
M  END
$$$$
[H]c1c([H])c(C(=O)N2C([H])([H])C([H])([H])N([C@]3([H])C([H])([H])C([H])([H])[C@@]([H])(N([H])S(=O)(=O)c4c([H])c([H])c(OC([H])([H])[H])c([H])c4[H])C([H])([H])C3([H])[H])C([H])([H])C2([H])[H])c([H])c(Cl)c1Cl
     RDKit          3D

 63 66  0  0  0  0  0  0  0  0999 V2000
    8.5113    1.5903   -2.5214 C   0  0  0  0  0  0  0  0  0  0  0  0
    8.0645    0.3278   -2.0883 O   0  0  0  0  0  0  0  0  0  0  0  0
    7.2075    0.1706   -1.0146 C   0  0  0  0  0  0  0  0  0  0  0  0
    6.7590    1.2685   -0.3245 C   0  0  0  0  0  0  0  0  0  0  0  0
    5.9030    1.1803    0.7553 C   0  0  0  0  0  0  0  0  0  0  0  0
    5.4740   -0.0781    1.1643 C   0  0  0  0  0  0  0  0  0  0  0  0
    5.9116   -1.1808    0.4879 C   0  0  0  0  0  0  0  0  0  0  0  0
    6.7784   -1.0666   -0.6029 C   0  0  0  0  0  0  0  0  0  0  0  0
    4.3943   -0.2707    2.5265 S   0  0  0  0  0  0  0  0  0  0  0  0
    4.6594   -1.6214    3.1191 O   0  0  0  0  0  0  0  0  0  0  0  0
    4.7132    0.8328    3.4976 O   0  0  0  0  0  0  0  0  0  0  0  0
    2.7360   -0.1065    2.0305 N   0  0  0  0  0  0  0  0  0  0  0  0
    2.3650   -1.1070    1.0816 C   0  0  1  0  0  0  0  0  0  0  0  0
    1.2452   -1.9322    1.6077 C   0  0  0  0  0  0  0  0  0  0  0  0
    0.0022   -1.6631    0.7800 C   0  0  0  0  0  0  0  0  0  0  0  0
   -0.2190   -0.1807    0.7746 C   0  0  1  0  0  0  0  0  0  0  0  0
    0.8125    0.4576   -0.1030 C   0  0  0  0  0  0  0  0  0  0  0  0
    1.9988   -0.4567   -0.2221 C   0  0  0  0  0  0  0  0  0  0  0  0
   -1.5586    0.2255    0.5447 N   0  0  0  0  0  0  0  0  0  0  0  0
   -2.0934   -0.1491   -0.7174 C   0  0  0  0  0  0  0  0  0  0  0  0
   -3.5802    0.2473   -0.8281 C   0  0  0  0  0  0  0  0  0  0  0  0
   -4.3104   -0.3018    0.2484 N   0  0  0  0  0  0  0  0  0  0  0  0
   -3.4756   -1.0766    1.2052 C   0  0  0  0  0  0  0  0  0  0  0  0
   -2.4068   -0.1086    1.6619 C   0  0  0  0  0  0  0  0  0  0  0  0
   -5.6700   -0.2213    0.5256 C   0  0  0  0  0  0  0  0  0  0  0  0
   -6.0668   -0.8436    1.6338 O   0  0  0  0  0  0  0  0  0  0  0  0
   -6.7621    0.4130   -0.1571 C   0  0  0  0  0  0  0  0  0  0  0  0
   -6.6283    1.0823   -1.3290 C   0  0  0  0  0  0  0  0  0  0  0  0
   -7.7257    1.6917   -1.9485 C   0  0  0  0  0  0  0  0  0  0  0  0
   -8.9603    1.6098   -1.3584 C   0  0  0  0  0  0  0  0  0  0  0  0
  -10.3410    2.3765   -2.1380 Cl  0  0  0  0  0  0  0  0  0  0  0  0
   -9.1538    0.9479   -0.1775 C   0  0  0  0  0  0  0  0  0  0  0  0
  -10.7094    0.8233    0.6023 Cl  0  0  0  0  0  0  0  0  0  0  0  0
   -8.0342    0.3626    0.3937 C   0  0  0  0  0  0  0  0  0  0  0  0
    7.6477    2.2619   -2.6559 H   0  0  0  0  0  0  0  0  0  0  0  0
    8.9924    1.4439   -3.5205 H   0  0  0  0  0  0  0  0  0  0  0  0
    9.2244    2.0554   -1.8139 H   0  0  0  0  0  0  0  0  0  0  0  0
    7.0785    2.2676   -0.6229 H   0  0  0  0  0  0  0  0  0  0  0  0
    5.5467    2.0377    1.3017 H   0  0  0  0  0  0  0  0  0  0  0  0
    5.5950   -2.1747    0.7891 H   0  0  0  0  0  0  0  0  0  0  0  0
    7.1133   -1.9513   -1.1252 H   0  0  0  0  0  0  0  0  0  0  0  0
    2.1342   -0.2102    2.8981 H   0  0  0  0  0  0  0  0  0  0  0  0
    3.2592   -1.7578    0.9340 H   0  0  0  0  0  0  0  0  0  0  0  0
    1.4734   -3.0157    1.6558 H   0  0  0  0  0  0  0  0  0  0  0  0
    0.9935   -1.6356    2.6576 H   0  0  0  0  0  0  0  0  0  0  0  0
   -0.8105   -2.2193    1.2972 H   0  0  0  0  0  0  0  0  0  0  0  0
    0.1839   -2.0414   -0.2403 H   0  0  0  0  0  0  0  0  0  0  0  0
    0.0518    0.1573    1.8299 H   0  0  0  0  0  0  0  0  0  0  0  0
    1.1294    1.4579    0.2674 H   0  0  0  0  0  0  0  0  0  0  0  0
    0.3709    0.5486   -1.1394 H   0  0  0  0  0  0  0  0  0  0  0  0
    1.8650   -1.2407   -1.0141 H   0  0  0  0  0  0  0  0  0  0  0  0
    2.9000    0.1514   -0.5372 H   0  0  0  0  0  0  0  0  0  0  0  0
   -1.6028    0.4497   -1.5137 H   0  0  0  0  0  0  0  0  0  0  0  0
   -1.9773   -1.2142   -0.9934 H   0  0  0  0  0  0  0  0  0  0  0  0
   -3.8990   -0.2132   -1.7828 H   0  0  0  0  0  0  0  0  0  0  0  0
   -3.6456    1.3514   -0.9427 H   0  0  0  0  0  0  0  0  0  0  0  0
   -3.0675   -1.8977    0.5825 H   0  0  0  0  0  0  0  0  0  0  0  0
   -4.0753   -1.4661    2.0381 H   0  0  0  0  0  0  0  0  0  0  0  0
   -1.8500   -0.4739    2.5391 H   0  0  0  0  0  0  0  0  0  0  0  0
   -2.9274    0.8214    1.9749 H   0  0  0  0  0  0  0  0  0  0  0  0
   -5.7116    1.2006   -1.8738 H   0  0  0  0  0  0  0  0  0  0  0  0
   -7.6288    2.2292   -2.8858 H   0  0  0  0  0  0  0  0  0  0  0  0
   -8.2037   -0.1651    1.3418 H   0  0  0  0  0  0  0  0  0  0  0  0
  1  2  1  0
  2  3  1  0
  3  4  2  0
  4  5  1  0
  5  6  2  0
  6  7  1  0
  7  8  2  0
  6  9  1  0
  9 10  2  0
  9 11  2  0
  9 12  1  0
 12 13  1  0
 13 14  1  0
 14 15  1  0
 15 16  1  0
 16 17  1  0
 17 18  1  0
 16 19  1  0
 19 20  1  0
 20 21  1  0
 21 22  1  0
 22 23  1  0
 23 24  1  0
 22 25  1  0
 25 26  2  0
 25 27  1  0
 27 28  2  0
 28 29  1  0
 29 30  2  0
 30 31  1  0
 30 32  1  0
 32 33  1  0
 32 34  2  0
  8  3  1  0
 18 13  1  0
 24 19  1  0
 34 27  1  0
  1 35  1  0
  1 36  1  0
  1 37  1  0
  4 38  1  0
  5 39  1  0
  7 40  1  0
  8 41  1  0
 12 42  1  0
 13 43  1  6
 14 44  1  0
 14 45  1  0
 15 46  1  0
 15 47  1  0
 16 48  1  1
 17 49  1  0
 17 50  1  0
 18 51  1  0
 18 52  1  0
 20 53  1  0
 20 54  1  0
 21 55  1  0
 21 56  1  0
 23 57  1  0
 23 58  1  0
 24 59  1  0
 24 60  1  0
 28 61  1  0
 29 62  1  0
 34 63  1  0
M  END
$$$$
[H]c1nc(N([H])[H])c(C(F)(F)F)nc1-c1c([H])nc([H])c(C(=O)N([H])[C@]([H])(c2c([H])c([H])c(F)c(C(F)(F)F)c2[H])C([H])([H])C([H])(C([H])([H])[H])C([H])([H])[H])c1[H]
     RDKit          3D

 56 58  0  0  0  0  0  0  0  0999 V2000
   -4.0290    3.2704   -1.0173 C   0  0  0  0  0  0  0  0  0  0  0  0
   -4.2626    1.9183   -1.6757 C   0  0  0  0  0  0  0  0  0  0  0  0
   -5.5498    1.3644   -1.2168 C   0  0  0  0  0  0  0  0  0  0  0  0
   -3.0632    1.0477   -1.6403 C   0  0  0  0  0  0  0  0  0  0  0  0
   -2.4884    0.6860   -0.3328 C   0  0  2  0  0  0  0  0  0  0  0  0
   -1.2986   -0.1724   -0.5628 N   0  0  0  0  0  0  0  0  0  0  0  0
    0.0012    0.2804   -0.2159 C   0  0  0  0  0  0  0  0  0  0  0  0
    0.1537    1.4389    0.2995 O   0  0  0  0  0  0  0  0  0  0  0  0
    1.1951   -0.5160   -0.4182 C   0  0  0  0  0  0  0  0  0  0  0  0
    1.1704   -1.8211   -0.8532 C   0  0  0  0  0  0  0  0  0  0  0  0
    2.3273   -2.5294   -1.0312 N   0  0  0  0  0  0  0  0  0  0  0  0
    3.5412   -2.0158   -0.8001 C   0  0  0  0  0  0  0  0  0  0  0  0
    3.6174   -0.7043   -0.3604 C   0  0  0  0  0  0  0  0  0  0  0  0
    2.4602    0.0181   -0.1778 C   0  0  0  0  0  0  0  0  0  0  0  0
    4.9428   -0.1493   -0.1103 C   0  0  0  0  0  0  0  0  0  0  0  0
    5.1365    1.1330    0.3252 C   0  0  0  0  0  0  0  0  0  0  0  0
    6.4027    1.5938    0.5406 N   0  0  0  0  0  0  0  0  0  0  0  0
    7.4935    0.8469    0.3462 C   0  0  0  0  0  0  0  0  0  0  0  0
    8.8099    1.3370    0.5738 N   0  0  0  0  0  0  0  0  0  0  0  0
    7.3049   -0.4598   -0.0972 C   0  0  0  0  0  0  0  0  0  0  0  0
    6.0559   -0.8979   -0.3042 N   0  0  0  0  0  0  0  0  0  0  0  0
    8.4408   -1.3684   -0.3428 C   0  0  0  0  0  0  0  0  0  0  0  0
    9.1910   -1.5690    0.7998 F   0  0  0  0  0  0  0  0  0  0  0  0
    9.2175   -0.8444   -1.3725 F   0  0  0  0  0  0  0  0  0  0  0  0
    7.9669   -2.5775   -0.7985 F   0  0  0  0  0  0  0  0  0  0  0  0
   -3.3186    0.0147    0.6509 C   0  0  0  0  0  0  0  0  0  0  0  0
   -3.8314    0.7364    1.7094 C   0  0  0  0  0  0  0  0  0  0  0  0
   -4.6144    0.1651    2.6796 C   0  0  0  0  0  0  0  0  0  0  0  0
   -4.9257   -1.1575    2.6424 C   0  0  0  0  0  0  0  0  0  0  0  0
   -5.6996   -1.7612    3.5863 F   0  0  0  0  0  0  0  0  0  0  0  0
   -4.4254   -1.9080    1.5918 C   0  0  0  0  0  0  0  0  0  0  0  0
   -3.6441   -1.3282    0.6275 C   0  0  0  0  0  0  0  0  0  0  0  0
   -4.7287   -3.3530    1.4957 C   0  0  0  0  0  0  0  0  0  0  0  0
   -4.2372   -3.9624    2.6334 F   0  0  0  0  0  0  0  0  0  0  0  0
   -6.1056   -3.5247    1.3935 F   0  0  0  0  0  0  0  0  0  0  0  0
   -4.1188   -3.9093    0.4063 F   0  0  0  0  0  0  0  0  0  0  0  0
   -2.9615    3.4590   -0.8427 H   0  0  0  0  0  0  0  0  0  0  0  0
   -4.5374    4.0592   -1.5830 H   0  0  0  0  0  0  0  0  0  0  0  0
   -4.5288    3.2715   -0.0050 H   0  0  0  0  0  0  0  0  0  0  0  0
   -4.4001    2.1887   -2.7821 H   0  0  0  0  0  0  0  0  0  0  0  0
   -5.9580    1.8102   -0.2827 H   0  0  0  0  0  0  0  0  0  0  0  0
   -6.3462    1.6356   -1.9824 H   0  0  0  0  0  0  0  0  0  0  0  0
   -5.6050    0.2458   -1.2059 H   0  0  0  0  0  0  0  0  0  0  0  0
   -2.2536    1.6430   -2.1717 H   0  0  0  0  0  0  0  0  0  0  0  0
   -3.1932    0.1790   -2.3396 H   0  0  0  0  0  0  0  0  0  0  0  0
   -2.0803    1.6210    0.1220 H   0  0  0  0  0  0  0  0  0  0  0  0
   -1.4079   -1.1161   -0.9827 H   0  0  0  0  0  0  0  0  0  0  0  0
    0.2114   -2.2788   -1.0518 H   0  0  0  0  0  0  0  0  0  0  0  0
    4.4491   -2.5963   -0.9481 H   0  0  0  0  0  0  0  0  0  0  0  0
    2.4735    1.0428    0.1628 H   0  0  0  0  0  0  0  0  0  0  0  0
    4.2833    1.7857    0.5000 H   0  0  0  0  0  0  0  0  0  0  0  0
    9.5196    1.3234   -0.1886 H   0  0  0  0  0  0  0  0  0  0  0  0
    9.1183    1.7248    1.4963 H   0  0  0  0  0  0  0  0  0  0  0  0
   -3.6191    1.8047    1.7990 H   0  0  0  0  0  0  0  0  0  0  0  0
   -4.9895    0.7846    3.4894 H   0  0  0  0  0  0  0  0  0  0  0  0
   -3.2628   -1.9094   -0.1772 H   0  0  0  0  0  0  0  0  0  0  0  0
  1  2  1  0
  2  3  1  0
  2  4  1  0
  4  5  1  0
  5  6  1  0
  6  7  1  0
  7  8  2  0
  7  9  1  0
  9 10  2  0
 10 11  1  0
 11 12  2  0
 12 13  1  0
 13 14  2  0
 13 15  1  0
 15 16  2  0
 16 17  1  0
 17 18  2  0
 18 19  1  0
 18 20  1  0
 20 21  2  0
 20 22  1  0
 22 23  1  0
 22 24  1  0
 22 25  1  0
  5 26  1  0
 26 27  2  0
 27 28  1  0
 28 29  2  0
 29 30  1  0
 29 31  1  0
 31 32  2  0
 31 33  1  0
 33 34  1  0
 33 35  1  0
 33 36  1  0
 14  9  1  0
 21 15  1  0
 32 26  1  0
  1 37  1  0
  1 38  1  0
  1 39  1  0
  2 40  1  0
  3 41  1  0
  3 42  1  0
  3 43  1  0
  4 44  1  0
  4 45  1  0
  5 46  1  1
  6 47  1  0
 10 48  1  0
 12 49  1  0
 14 50  1  0
 16 51  1  0
 19 52  1  0
 19 53  1  0
 27 54  1  0
 28 55  1  0
 32 56  1  0
M  END
$$$$
[H]N=C(N([H])[H])N([H])C([H])([H])C([H])([H])C([H])([H])[C@@]([H])(C(=O)N([H])[C@]([H])(C(=N[H])N([H])[H])C([H])([H])c1c([H])c([H])c([H])c([H])c1[H])N([H])C(=O)[C@@]([H])(N([H])C(=O)[C@@]([H])(N([H])C(=O)[C@@]([H])(N([H])[H])C([H])([H])c1c([H])c([H])c([H])c([H])c1[H])C([H])([H])C([H])(C([H])([H])[H])C([H])([H])[H])C([H])([H])c1c([H])c([H])c([H])c([H])c1[H]
     RDKit          3D

107109  0  0  0  0  0  0  0  0999 V2000
    5.4496   -0.0165   -3.5907 C   0  0  0  0  0  0  0  0  0  0  0  0
    4.3086   -0.8355   -4.1278 C   0  0  0  0  0  0  0  0  0  0  0  0
    3.6357   -0.0911   -5.2544 C   0  0  0  0  0  0  0  0  0  0  0  0
    3.3704   -1.3798   -3.0926 C   0  0  0  0  0  0  0  0  0  0  0  0
    2.6498   -0.4219   -2.2507 C   0  0  2  0  0  0  0  0  0  0  0  0
    3.4561    0.4603   -1.4650 N   0  0  0  0  0  0  0  0  0  0  0  0
    3.2908    1.8606   -1.5160 C   0  0  0  0  0  0  0  0  0  0  0  0
    2.4161    2.3407   -2.2720 O   0  0  0  0  0  0  0  0  0  0  0  0
    4.1481    2.7559   -0.6799 C   0  0  1  0  0  0  0  0  0  0  0  0
    3.7959    4.1424   -0.9189 N   0  0  0  0  0  0  0  0  0  0  0  0
    3.8528    2.5049    0.7986 C   0  0  0  0  0  0  0  0  0  0  0  0
    4.7092    3.3720    1.6447 C   0  0  0  0  0  0  0  0  0  0  0  0
    4.3666    4.6382    2.0581 C   0  0  0  0  0  0  0  0  0  0  0  0
    5.2185    5.4026    2.8570 C   0  0  0  0  0  0  0  0  0  0  0  0
    6.4412    4.9019    3.2589 C   0  0  0  0  0  0  0  0  0  0  0  0
    6.7882    3.6333    2.8474 C   0  0  0  0  0  0  0  0  0  0  0  0
    5.9528    2.8778    2.0602 C   0  0  0  0  0  0  0  0  0  0  0  0
    1.6909   -1.1493   -1.3373 C   0  0  0  0  0  0  0  0  0  0  0  0
    1.0697   -0.4772   -0.4412 O   0  0  0  0  0  0  0  0  0  0  0  0
    1.4212   -2.5340   -1.3850 N   0  0  0  0  0  0  0  0  0  0  0  0
    0.4919   -3.1551   -0.4705 C   0  0  1  0  0  0  0  0  0  0  0  0
    0.9852   -3.0905    0.9365 C   0  0  0  0  0  0  0  0  0  0  0  0
    2.2844   -3.7803    1.1377 C   0  0  0  0  0  0  0  0  0  0  0  0
    2.2846   -5.1459    1.3723 C   0  0  0  0  0  0  0  0  0  0  0  0
    3.4643   -5.8633    1.6037 C   0  0  0  0  0  0  0  0  0  0  0  0
    4.6557   -5.2053    1.6003 C   0  0  0  0  0  0  0  0  0  0  0  0
    4.6700   -3.8528    1.3688 C   0  0  0  0  0  0  0  0  0  0  0  0
    3.4958   -3.1329    1.1370 C   0  0  0  0  0  0  0  0  0  0  0  0
   -0.9161   -2.7120   -0.6493 C   0  0  0  0  0  0  0  0  0  0  0  0
   -1.4410   -2.5755   -1.7700 O   0  0  0  0  0  0  0  0  0  0  0  0
   -1.7495   -2.4165    0.4783 N   0  0  0  0  0  0  0  0  0  0  0  0
   -3.1454   -2.0095    0.3629 C   0  0  1  0  0  0  0  0  0  0  0  0
   -4.0419   -2.7723    1.2357 C   0  0  0  0  0  0  0  0  0  0  0  0
   -5.5106   -2.5011    1.1610 C   0  0  0  0  0  0  0  0  0  0  0  0
   -6.0335   -2.7352   -0.2661 C   0  0  0  0  0  0  0  0  0  0  0  0
   -5.7810   -4.1129   -0.6614 N   0  0  0  0  0  0  0  0  0  0  0  0
   -6.4624   -5.2114   -0.0505 C   0  0  0  0  0  0  0  0  0  0  0  0
   -5.8090   -6.3471    0.4858 N   0  0  0  0  0  0  0  0  0  0  0  0
   -7.7449   -5.1556    0.0089 N   0  0  0  0  0  0  0  0  0  0  0  0
   -3.1746   -0.5528    0.3688 C   0  0  0  0  0  0  0  0  0  0  0  0
   -2.3316   -0.0094   -0.4598 O   0  0  0  0  0  0  0  0  0  0  0  0
   -3.9293    0.3505    1.0952 N   0  0  0  0  0  0  0  0  0  0  0  0
   -3.8137    1.8142    0.8905 C   0  0  1  0  0  0  0  0  0  0  0  0
   -5.1410    2.4573    1.0411 C   0  0  0  0  0  0  0  0  0  0  0  0
   -5.1161    3.9081    0.8201 C   0  0  0  0  0  0  0  0  0  0  0  0
   -5.2693    4.3957   -0.4831 C   0  0  0  0  0  0  0  0  0  0  0  0
   -5.2848    5.7439   -0.7419 C   0  0  0  0  0  0  0  0  0  0  0  0
   -5.1500    6.6891    0.2653 C   0  0  0  0  0  0  0  0  0  0  0  0
   -4.9999    6.2032    1.5402 C   0  0  0  0  0  0  0  0  0  0  0  0
   -4.9840    4.8464    1.8089 C   0  0  0  0  0  0  0  0  0  0  0  0
   -2.7632    2.3343    1.8189 C   0  0  0  0  0  0  0  0  0  0  0  0
   -2.1292    3.5876    1.6158 N   0  0  0  0  0  0  0  0  0  0  0  0
   -2.4158    1.6371    2.8430 N   0  0  0  0  0  0  0  0  0  0  0  0
    5.2795    1.0784   -3.7681 H   0  0  0  0  0  0  0  0  0  0  0  0
    5.7412   -0.2489   -2.5618 H   0  0  0  0  0  0  0  0  0  0  0  0
    6.3978   -0.2147   -4.1895 H   0  0  0  0  0  0  0  0  0  0  0  0
    4.7842   -1.7436   -4.6085 H   0  0  0  0  0  0  0  0  0  0  0  0
    4.2860   -0.1456   -6.1596 H   0  0  0  0  0  0  0  0  0  0  0  0
    2.6757   -0.5698   -5.5578 H   0  0  0  0  0  0  0  0  0  0  0  0
    3.4829    0.9830   -5.0449 H   0  0  0  0  0  0  0  0  0  0  0  0
    2.5942   -2.0487   -3.6023 H   0  0  0  0  0  0  0  0  0  0  0  0
    3.9611   -2.0738   -2.4651 H   0  0  0  0  0  0  0  0  0  0  0  0
    1.9266    0.2078   -2.8834 H   0  0  0  0  0  0  0  0  0  0  0  0
    4.1786    0.0669   -0.8279 H   0  0  0  0  0  0  0  0  0  0  0  0
    5.1895    2.5103   -0.8935 H   0  0  0  0  0  0  0  0  0  0  0  0
    4.2340    4.5187   -1.7983 H   0  0  0  0  0  0  0  0  0  0  0  0
    2.7394    4.2000   -1.0171 H   0  0  0  0  0  0  0  0  0  0  0  0
    3.9697    1.4512    1.0527 H   0  0  0  0  0  0  0  0  0  0  0  0
    2.7683    2.7587    0.9567 H   0  0  0  0  0  0  0  0  0  0  0  0
    3.4190    5.0437    1.7527 H   0  0  0  0  0  0  0  0  0  0  0  0
    4.9718    6.3893    3.1901 H   0  0  0  0  0  0  0  0  0  0  0  0
    7.0972    5.5107    3.8837 H   0  0  0  0  0  0  0  0  0  0  0  0
    7.7536    3.2475    3.1725 H   0  0  0  0  0  0  0  0  0  0  0  0
    6.2101    1.8698    1.7271 H   0  0  0  0  0  0  0  0  0  0  0  0
    1.9323   -3.1192   -2.1141 H   0  0  0  0  0  0  0  0  0  0  0  0
    0.4640   -4.2460   -0.8215 H   0  0  0  0  0  0  0  0  0  0  0  0
    0.2459   -3.6805    1.5557 H   0  0  0  0  0  0  0  0  0  0  0  0
    1.0486   -2.0664    1.3602 H   0  0  0  0  0  0  0  0  0  0  0  0
    1.3782   -5.7162    1.3872 H   0  0  0  0  0  0  0  0  0  0  0  0
    3.3981   -6.9398    1.7820 H   0  0  0  0  0  0  0  0  0  0  0  0
    5.5994   -5.7082    1.7751 H   0  0  0  0  0  0  0  0  0  0  0  0
    5.5991   -3.3120    1.3641 H   0  0  0  0  0  0  0  0  0  0  0  0
    3.5453   -2.0727    0.9636 H   0  0  0  0  0  0  0  0  0  0  0  0
   -1.3461   -2.4809    1.4169 H   0  0  0  0  0  0  0  0  0  0  0  0
   -3.3794   -2.2735   -0.7430 H   0  0  0  0  0  0  0  0  0  0  0  0
   -3.9356   -3.8672    0.9555 H   0  0  0  0  0  0  0  0  0  0  0  0
   -3.7748   -2.7046    2.3228 H   0  0  0  0  0  0  0  0  0  0  0  0
   -5.9197   -1.6461    1.6513 H   0  0  0  0  0  0  0  0  0  0  0  0
   -5.9849   -3.3922    1.7221 H   0  0  0  0  0  0  0  0  0  0  0  0
   -7.1289   -2.5979   -0.2212 H   0  0  0  0  0  0  0  0  0  0  0  0
   -5.5216   -2.1058   -0.9904 H   0  0  0  0  0  0  0  0  0  0  0  0
   -5.0836   -4.3702   -1.4137 H   0  0  0  0  0  0  0  0  0  0  0  0
   -5.3459   -7.0156   -0.1576 H   0  0  0  0  0  0  0  0  0  0  0  0
   -5.7734   -6.5384    1.5043 H   0  0  0  0  0  0  0  0  0  0  0  0
   -8.3041   -5.9012    0.4305 H   0  0  0  0  0  0  0  0  0  0  0  0
   -4.5890    0.0710    1.8288 H   0  0  0  0  0  0  0  0  0  0  0  0
   -3.4085    1.9540   -0.1181 H   0  0  0  0  0  0  0  0  0  0  0  0
   -5.5830    2.2612    2.0558 H   0  0  0  0  0  0  0  0  0  0  0  0
   -5.8503    1.9636    0.3281 H   0  0  0  0  0  0  0  0  0  0  0  0
   -5.3775    3.6528   -1.2677 H   0  0  0  0  0  0  0  0  0  0  0  0
   -5.4038    6.1340   -1.7533 H   0  0  0  0  0  0  0  0  0  0  0  0
   -5.1621    7.7516    0.0643 H   0  0  0  0  0  0  0  0  0  0  0  0
   -4.8930    6.9280    2.3421 H   0  0  0  0  0  0  0  0  0  0  0  0
   -4.8628    4.5048    2.8325 H   0  0  0  0  0  0  0  0  0  0  0  0
   -1.6897    4.1579    2.3615 H   0  0  0  0  0  0  0  0  0  0  0  0
   -2.0883    3.9888    0.6356 H   0  0  0  0  0  0  0  0  0  0  0  0
   -1.6912    1.9812    3.4955 H   0  0  0  0  0  0  0  0  0  0  0  0
  1  2  1  0
  2  3  1  0
  2  4  1  0
  4  5  1  0
  5  6  1  0
  6  7  1  0
  7  8  2  0
  7  9  1  0
  9 10  1  0
  9 11  1  0
 11 12  1  0
 12 13  2  0
 13 14  1  0
 14 15  2  0
 15 16  1  0
 16 17  2  0
  5 18  1  0
 18 19  2  0
 18 20  1  0
 20 21  1  0
 21 22  1  0
 22 23  1  0
 23 24  2  0
 24 25  1  0
 25 26  2  0
 26 27  1  0
 27 28  2  0
 21 29  1  0
 29 30  2  0
 29 31  1  0
 31 32  1  0
 32 33  1  0
 33 34  1  0
 34 35  1  0
 35 36  1  0
 36 37  1  0
 37 38  1  0
 37 39  2  3
 32 40  1  0
 40 41  2  0
 40 42  1  0
 42 43  1  0
 43 44  1  0
 44 45  1  0
 45 46  2  0
 46 47  1  0
 47 48  2  0
 48 49  1  0
 49 50  2  0
 43 51  1  0
 51 52  1  0
 51 53  2  3
 17 12  1  0
 28 23  1  0
 50 45  1  0
  1 54  1  0
  1 55  1  0
  1 56  1  0
  2 57  1  0
  3 58  1  0
  3 59  1  0
  3 60  1  0
  4 61  1  0
  4 62  1  0
  5 63  1  6
  6 64  1  0
  9 65  1  1
 10 66  1  0
 10 67  1  0
 11 68  1  0
 11 69  1  0
 13 70  1  0
 14 71  1  0
 15 72  1  0
 16 73  1  0
 17 74  1  0
 20 75  1  0
 21 76  1  6
 22 77  1  0
 22 78  1  0
 24 79  1  0
 25 80  1  0
 26 81  1  0
 27 82  1  0
 28 83  1  0
 31 84  1  0
 32 85  1  6
 33 86  1  0
 33 87  1  0
 34 88  1  0
 34 89  1  0
 35 90  1  0
 35 91  1  0
 36 92  1  0
 38 93  1  0
 38 94  1  0
 39 95  1  0
 42 96  1  0
 43 97  1  6
 44 98  1  0
 44 99  1  0
 46100  1  0
 47101  1  0
 48102  1  0
 49103  1  0
 50104  1  0
 52105  1  0
 52106  1  0
 53107  1  0
M  END
$$$$
[H]c1c([H])c([H])c(C(=O)N([H])[C@]([H])(C(=O)N([H])[C@]([H])(C(=O)N([H])[C@]([H])(C(=O)N2C([H])([H])C([H])([H])OC([H])([H])C2([H])[H])C([H])([H])c2c([H])n([H])c3c([H])c([H])c([H])c([H])c23)C([H])([H])C([H])(C([H])([H])[H])C([H])([H])[H])C([H])([H])c2c([H])c([H])c([H])c([H])c2[H])c([H])c1[H]
     RDKit          3D

 90 94  0  0  0  0  0  0  0  0999 V2000
    0.9811   -4.4625    3.5727 C   0  0  0  0  0  0  0  0  0  0  0  0
    0.4678   -3.5689    2.4127 C   0  0  0  0  0  0  0  0  0  0  0  0
   -0.7998   -4.2884    1.9335 C   0  0  0  0  0  0  0  0  0  0  0  0
    0.0934   -2.2334    2.9272 C   0  0  0  0  0  0  0  0  0  0  0  0
   -0.3849   -1.1962    2.0132 C   0  0  2  0  0  0  0  0  0  0  0  0
   -1.5658   -1.4133    1.2416 N   0  0  0  0  0  0  0  0  0  0  0  0
   -2.6865   -0.5400    1.2763 C   0  0  0  0  0  0  0  0  0  0  0  0
   -2.6194    0.4663    2.0136 O   0  0  0  0  0  0  0  0  0  0  0  0
   -3.8778   -0.8066    0.4763 C   0  0  2  0  0  0  0  0  0  0  0  0
   -3.6627   -1.1565   -0.9515 C   0  0  0  0  0  0  0  0  0  0  0  0
   -4.9104   -1.4315   -1.6863 C   0  0  0  0  0  0  0  0  0  0  0  0
   -5.4079   -2.7283   -1.6039 C   0  0  0  0  0  0  0  0  0  0  0  0
   -6.5670   -3.1099   -2.2617 C   0  0  0  0  0  0  0  0  0  0  0  0
   -7.2476   -2.1767   -3.0207 C   0  0  0  0  0  0  0  0  0  0  0  0
   -6.7810   -0.8983   -3.1186 C   0  0  0  0  0  0  0  0  0  0  0  0
   -5.6151   -0.5377   -2.4494 C   0  0  0  0  0  0  0  0  0  0  0  0
   -4.7486    0.3766    0.5789 N   0  0  0  0  0  0  0  0  0  0  0  0
   -4.3063    1.6349    0.1154 C   0  0  0  0  0  0  0  0  0  0  0  0
   -3.1713    1.7610   -0.3962 O   0  0  0  0  0  0  0  0  0  0  0  0
   -5.1560    2.8014    0.2249 C   0  0  0  0  0  0  0  0  0  0  0  0
   -4.6236    4.0634   -0.0677 C   0  0  0  0  0  0  0  0  0  0  0  0
   -5.3443    5.2098    0.0068 C   0  0  0  0  0  0  0  0  0  0  0  0
   -6.6668    5.1984    0.3822 C   0  0  0  0  0  0  0  0  0  0  0  0
   -7.2370    3.9705    0.6817 C   0  0  0  0  0  0  0  0  0  0  0  0
   -6.4793    2.8011    0.5987 C   0  0  0  0  0  0  0  0  0  0  0  0
    0.6695   -0.6100    1.1400 C   0  0  0  0  0  0  0  0  0  0  0  0
    0.4023   -0.4202   -0.0683 O   0  0  0  0  0  0  0  0  0  0  0  0
    1.9494   -0.2552    1.6039 N   0  0  0  0  0  0  0  0  0  0  0  0
    2.9778    0.3316    0.7458 C   0  0  1  0  0  0  0  0  0  0  0  0
    3.3973    1.6580    1.3584 C   0  0  0  0  0  0  0  0  0  0  0  0
    4.4204    2.3278    0.5205 C   0  0  0  0  0  0  0  0  0  0  0  0
    5.7848    2.3787    0.7237 C   0  0  0  0  0  0  0  0  0  0  0  0
    6.3473    3.0805   -0.2526 N   0  0  0  0  0  0  0  0  0  0  0  0
    5.4019    3.5040   -1.1076 C   0  0  0  0  0  0  0  0  0  0  0  0
    5.4986    4.2688   -2.2773 C   0  0  0  0  0  0  0  0  0  0  0  0
    4.3612    4.5808   -2.9968 C   0  0  0  0  0  0  0  0  0  0  0  0
    3.1486    4.1167   -2.5253 C   0  0  0  0  0  0  0  0  0  0  0  0
    3.0632    3.3594   -1.3653 C   0  0  0  0  0  0  0  0  0  0  0  0
    4.1981    3.0482   -0.6472 C   0  0  0  0  0  0  0  0  0  0  0  0
    4.1429   -0.5954    0.8582 C   0  0  0  0  0  0  0  0  0  0  0  0
    4.3559   -1.0288    2.0485 O   0  0  0  0  0  0  0  0  0  0  0  0
    4.9634   -0.9920   -0.2121 N   0  0  0  0  0  0  0  0  0  0  0  0
    4.7892   -0.5975   -1.5779 C   0  0  0  0  0  0  0  0  0  0  0  0
    5.1037   -1.7123   -2.5467 C   0  0  0  0  0  0  0  0  0  0  0  0
    6.4045   -2.1221   -2.3045 O   0  0  0  0  0  0  0  0  0  0  0  0
    6.4632   -2.7510   -1.0720 C   0  0  0  0  0  0  0  0  0  0  0  0
    6.0899   -1.8725    0.0763 C   0  0  0  0  0  0  0  0  0  0  0  0
    1.4402   -3.8181    4.3492 H   0  0  0  0  0  0  0  0  0  0  0  0
    1.7049   -5.2086    3.1833 H   0  0  0  0  0  0  0  0  0  0  0  0
    0.1435   -5.0137    4.0418 H   0  0  0  0  0  0  0  0  0  0  0  0
    1.2242   -3.6010    1.6406 H   0  0  0  0  0  0  0  0  0  0  0  0
   -0.8309   -4.4106    0.8463 H   0  0  0  0  0  0  0  0  0  0  0  0
   -1.7198   -3.8272    2.3039 H   0  0  0  0  0  0  0  0  0  0  0  0
   -0.8350   -5.3493    2.3323 H   0  0  0  0  0  0  0  0  0  0  0  0
    1.0204   -1.8219    3.4425 H   0  0  0  0  0  0  0  0  0  0  0  0
   -0.6350   -2.3101    3.7779 H   0  0  0  0  0  0  0  0  0  0  0  0
   -0.6555   -0.3016    2.6894 H   0  0  0  0  0  0  0  0  0  0  0  0
   -1.6657   -2.2214    0.5888 H   0  0  0  0  0  0  0  0  0  0  0  0
   -4.4504   -1.6697    0.9563 H   0  0  0  0  0  0  0  0  0  0  0  0
   -3.0986   -0.3880   -1.5245 H   0  0  0  0  0  0  0  0  0  0  0  0
   -2.9962   -2.0736   -1.0204 H   0  0  0  0  0  0  0  0  0  0  0  0
   -4.9085   -3.4825   -1.0247 H   0  0  0  0  0  0  0  0  0  0  0  0
   -6.9483   -4.1229   -2.1914 H   0  0  0  0  0  0  0  0  0  0  0  0
   -8.1623   -2.4451   -3.5485 H   0  0  0  0  0  0  0  0  0  0  0  0
   -7.3166   -0.1677   -3.7145 H   0  0  0  0  0  0  0  0  0  0  0  0
   -5.2866    0.4758   -2.5659 H   0  0  0  0  0  0  0  0  0  0  0  0
   -5.6977    0.3020    0.9958 H   0  0  0  0  0  0  0  0  0  0  0  0
   -3.5709    4.1011   -0.3685 H   0  0  0  0  0  0  0  0  0  0  0  0
   -4.9025    6.1858   -0.2281 H   0  0  0  0  0  0  0  0  0  0  0  0
   -7.2931    6.0712    0.4617 H   0  0  0  0  0  0  0  0  0  0  0  0
   -8.2851    3.9067    0.9852 H   0  0  0  0  0  0  0  0  0  0  0  0
   -6.9366    1.8420    0.8349 H   0  0  0  0  0  0  0  0  0  0  0  0
    2.1945   -0.4072    2.5925 H   0  0  0  0  0  0  0  0  0  0  0  0
    2.5894    0.4331   -0.2470 H   0  0  0  0  0  0  0  0  0  0  0  0
    3.8876    1.3955    2.3262 H   0  0  0  0  0  0  0  0  0  0  0  0
    2.5010    2.2960    1.5106 H   0  0  0  0  0  0  0  0  0  0  0  0
    6.2836    1.8941    1.5799 H   0  0  0  0  0  0  0  0  0  0  0  0
    7.3642    3.2945   -0.3755 H   0  0  0  0  0  0  0  0  0  0  0  0
    6.4397    4.6344   -2.6530 H   0  0  0  0  0  0  0  0  0  0  0  0
    4.4468    5.1812   -3.9129 H   0  0  0  0  0  0  0  0  0  0  0  0
    2.2615    4.3684   -3.0987 H   0  0  0  0  0  0  0  0  0  0  0  0
    2.1291    2.9889   -0.9815 H   0  0  0  0  0  0  0  0  0  0  0  0
    5.5175    0.2267   -1.7686 H   0  0  0  0  0  0  0  0  0  0  0  0
    3.7905   -0.1415   -1.7861 H   0  0  0  0  0  0  0  0  0  0  0  0
    4.3616   -2.5195   -2.5377 H   0  0  0  0  0  0  0  0  0  0  0  0
    5.0910   -1.2613   -3.5726 H   0  0  0  0  0  0  0  0  0  0  0  0
    5.9007   -3.7033   -1.1010 H   0  0  0  0  0  0  0  0  0  0  0  0
    7.5399   -3.0531   -0.9267 H   0  0  0  0  0  0  0  0  0  0  0  0
    6.9453   -1.2024    0.3193 H   0  0  0  0  0  0  0  0  0  0  0  0
    5.8014   -2.5087    0.9317 H   0  0  0  0  0  0  0  0  0  0  0  0
  1  2  1  0
  2  3  1  0
  2  4  1  0
  4  5  1  0
  5  6  1  0
  6  7  1  0
  7  8  2  0
  7  9  1  0
  9 10  1  0
 10 11  1  0
 11 12  2  0
 12 13  1  0
 13 14  2  0
 14 15  1  0
 15 16  2  0
  9 17  1  0
 17 18  1  0
 18 19  2  0
 18 20  1  0
 20 21  2  0
 21 22  1  0
 22 23  2  0
 23 24  1  0
 24 25  2  0
  5 26  1  0
 26 27  2  0
 26 28  1  0
 28 29  1  0
 29 30  1  0
 30 31  1  0
 31 32  2  0
 32 33  1  0
 33 34  1  0
 34 35  2  0
 35 36  1  0
 36 37  2  0
 37 38  1  0
 38 39  2  0
 29 40  1  0
 40 41  2  0
 40 42  1  0
 42 43  1  0
 43 44  1  0
 44 45  1  0
 45 46  1  0
 46 47  1  0
 16 11  1  0
 25 20  1  0
 39 31  1  0
 47 42  1  0
 39 34  1  0
  1 48  1  0
  1 49  1  0
  1 50  1  0
  2 51  1  0
  3 52  1  0
  3 53  1  0
  3 54  1  0
  4 55  1  0
  4 56  1  0
  5 57  1  1
  6 58  1  0
  9 59  1  1
 10 60  1  0
 10 61  1  0
 12 62  1  0
 13 63  1  0
 14 64  1  0
 15 65  1  0
 16 66  1  0
 17 67  1  0
 21 68  1  0
 22 69  1  0
 23 70  1  0
 24 71  1  0
 25 72  1  0
 28 73  1  0
 29 74  1  6
 30 75  1  0
 30 76  1  0
 32 77  1  0
 33 78  1  0
 35 79  1  0
 36 80  1  0
 37 81  1  0
 38 82  1  0
 43 83  1  0
 43 84  1  0
 44 85  1  0
 44 86  1  0
 46 87  1  0
 46 88  1  0
 47 89  1  0
 47 90  1  0
M  END
$$$$
[H]c1nc2c(c([H])c1-c1c([H])c([H])c(C(=O)N([H])[C@@]([H])(c3c([H])c([H])c([H])c([H])c3[H])C([H])([H])[H])c([H])c1[H])c([H])c(C(=O)N([H])[H])n2[H]
     RDKit          3D

 49 52  0  0  0  0  0  0  0  0999 V2000
   -5.2348    2.1357    1.0759 C   0  0  0  0  0  0  0  0  0  0  0  0
   -4.8273    1.1407    0.0070 C   0  0  1  0  0  0  0  0  0  0  0  0
   -3.4257    0.8272    0.0567 N   0  0  0  0  0  0  0  0  0  0  0  0
   -2.5157    1.1076   -0.9867 C   0  0  0  0  0  0  0  0  0  0  0  0
   -2.9892    1.6665   -2.0100 O   0  0  0  0  0  0  0  0  0  0  0  0
   -1.0970    0.7873   -0.9305 C   0  0  0  0  0  0  0  0  0  0  0  0
   -0.2884    1.1092   -2.0007 C   0  0  0  0  0  0  0  0  0  0  0  0
    1.0704    0.8233   -1.9946 C   0  0  0  0  0  0  0  0  0  0  0  0
    1.6749    0.2049   -0.9198 C   0  0  0  0  0  0  0  0  0  0  0  0
    0.8752   -0.1211    0.1554 C   0  0  0  0  0  0  0  0  0  0  0  0
   -0.4949    0.1700    0.1431 C   0  0  0  0  0  0  0  0  0  0  0  0
    3.1059   -0.0811   -0.9479 C   0  0  0  0  0  0  0  0  0  0  0  0
    3.7599   -0.3729   -2.1266 C   0  0  0  0  0  0  0  0  0  0  0  0
    5.0739   -0.6423   -2.1964 N   0  0  0  0  0  0  0  0  0  0  0  0
    5.8121   -0.6302   -1.0496 C   0  0  0  0  0  0  0  0  0  0  0  0
    7.1174   -0.8587   -0.8348 N   0  0  0  0  0  0  0  0  0  0  0  0
    7.4353   -0.7414    0.4724 C   0  0  0  0  0  0  0  0  0  0  0  0
    6.2246   -0.4161    1.0952 C   0  0  0  0  0  0  0  0  0  0  0  0
    5.2210   -0.3463    0.1619 C   0  0  0  0  0  0  0  0  0  0  0  0
    3.8590   -0.0706    0.2081 C   0  0  0  0  0  0  0  0  0  0  0  0
    8.7236   -0.9074    1.1156 C   0  0  0  0  0  0  0  0  0  0  0  0
    8.8494   -0.7391    2.5099 N   0  0  0  0  0  0  0  0  0  0  0  0
    9.7260   -1.1999    0.4365 O   0  0  0  0  0  0  0  0  0  0  0  0
   -5.6805   -0.0695    0.1546 C   0  0  0  0  0  0  0  0  0  0  0  0
   -6.7703   -0.2965   -0.6587 C   0  0  0  0  0  0  0  0  0  0  0  0
   -7.5628   -1.4187   -0.5235 C   0  0  0  0  0  0  0  0  0  0  0  0
   -7.2868   -2.3604    0.4413 C   0  0  0  0  0  0  0  0  0  0  0  0
   -6.2055   -2.1542    1.2629 C   0  0  0  0  0  0  0  0  0  0  0  0
   -5.4219   -1.0297    1.1177 C   0  0  0  0  0  0  0  0  0  0  0  0
   -6.2285    2.5472    0.7689 H   0  0  0  0  0  0  0  0  0  0  0  0
   -4.5505    2.9947    1.1449 H   0  0  0  0  0  0  0  0  0  0  0  0
   -5.4103    1.6359    2.0616 H   0  0  0  0  0  0  0  0  0  0  0  0
   -5.0468    1.6211   -0.9678 H   0  0  0  0  0  0  0  0  0  0  0  0
   -3.0924    0.3597    0.9424 H   0  0  0  0  0  0  0  0  0  0  0  0
   -0.7243    1.5998   -2.8734 H   0  0  0  0  0  0  0  0  0  0  0  0
    1.7065    1.0840   -2.8526 H   0  0  0  0  0  0  0  0  0  0  0  0
    1.3235   -0.6089    1.0161 H   0  0  0  0  0  0  0  0  0  0  0  0
   -1.1181   -0.0874    0.9883 H   0  0  0  0  0  0  0  0  0  0  0  0
    3.1734   -0.3817   -3.0328 H   0  0  0  0  0  0  0  0  0  0  0  0
    7.7963   -1.0980   -1.5971 H   0  0  0  0  0  0  0  0  0  0  0  0
    6.0712   -0.2403    2.1516 H   0  0  0  0  0  0  0  0  0  0  0  0
    3.4240    0.1486    1.1730 H   0  0  0  0  0  0  0  0  0  0  0  0
    8.7250   -1.5273    3.2061 H   0  0  0  0  0  0  0  0  0  0  0  0
    9.0748    0.1919    2.9075 H   0  0  0  0  0  0  0  0  0  0  0  0
   -6.9994    0.4455   -1.4295 H   0  0  0  0  0  0  0  0  0  0  0  0
   -8.4199   -1.5671   -1.1863 H   0  0  0  0  0  0  0  0  0  0  0  0
   -7.9058   -3.2468    0.5546 H   0  0  0  0  0  0  0  0  0  0  0  0
   -5.9715   -2.8821    2.0272 H   0  0  0  0  0  0  0  0  0  0  0  0
   -4.5550   -0.8470    1.7629 H   0  0  0  0  0  0  0  0  0  0  0  0
  1  2  1  0
  2  3  1  0
  3  4  1  0
  4  5  2  0
  4  6  1  0
  6  7  2  0
  7  8  1  0
  8  9  2  0
  9 10  1  0
 10 11  2  0
  9 12  1  0
 12 13  2  0
 13 14  1  0
 14 15  2  0
 15 16  1  0
 16 17  1  0
 17 18  2  0
 18 19  1  0
 19 20  2  0
 17 21  1  0
 21 22  1  0
 21 23  2  0
  2 24  1  0
 24 25  2  0
 25 26  1  0
 26 27  2  0
 27 28  1  0
 28 29  2  0
 11  6  1  0
 20 12  1  0
 29 24  1  0
 19 15  1  0
  1 30  1  0
  1 31  1  0
  1 32  1  0
  2 33  1  6
  3 34  1  0
  7 35  1  0
  8 36  1  0
 10 37  1  0
 11 38  1  0
 13 39  1  0
 16 40  1  0
 18 41  1  0
 20 42  1  0
 22 43  1  0
 22 44  1  0
 25 45  1  0
 26 46  1  0
 27 47  1  0
 28 48  1  0
 29 49  1  0
M  END
$$$$
[H]c1nc(N([H])c2c([H])c([H])c(N3C([H])([H])C([H])([H])C([H])(N4C([H])([H])C([H])([H])C([H])([H])C4([H])[H])C([H])([H])C3([H])[H])c([H])c2OC([H])([H])[H])nc(N([H])c2c([H])c([H])c([H])c([H])c2C(F)(F)F)c1Cl
     RDKit          3D

 68 72  0  0  0  0  0  0  0  0999 V2000
    0.4896   -2.9002   -2.0848 C   0  0  0  0  0  0  0  0  0  0  0  0
    1.1701   -1.9496   -1.2918 O   0  0  0  0  0  0  0  0  0  0  0  0
    0.4131   -1.1368   -0.4581 C   0  0  0  0  0  0  0  0  0  0  0  0
   -0.9536   -1.2391   -0.3930 C   0  0  0  0  0  0  0  0  0  0  0  0
   -1.7293   -0.4526    0.4187 C   0  0  0  0  0  0  0  0  0  0  0  0
   -1.0896    0.4814    1.2009 C   0  0  0  0  0  0  0  0  0  0  0  0
    0.3025    0.6062    1.1535 C   0  0  0  0  0  0  0  0  0  0  0  0
    1.0695   -0.1792    0.3439 C   0  0  0  0  0  0  0  0  0  0  0  0
    2.4593   -0.0879    0.2685 N   0  0  0  0  0  0  0  0  0  0  0  0
    3.3796    0.7418    0.9203 C   0  0  0  0  0  0  0  0  0  0  0  0
    2.9817    1.6598    1.8025 N   0  0  0  0  0  0  0  0  0  0  0  0
    3.8857    2.4341    2.4070 C   0  0  0  0  0  0  0  0  0  0  0  0
    5.2261    2.2839    2.1190 C   0  0  0  0  0  0  0  0  0  0  0  0
    6.4400    3.2816    2.8915 Cl  0  0  0  0  0  0  0  0  0  0  0  0
    5.6553    1.3202    1.1915 C   0  0  0  0  0  0  0  0  0  0  0  0
    7.0268    1.1897    0.9211 N   0  0  0  0  0  0  0  0  0  0  0  0
    7.7147    0.3392    0.0650 C   0  0  0  0  0  0  0  0  0  0  0  0
    7.0816   -0.5723   -0.7242 C   0  0  0  0  0  0  0  0  0  0  0  0
    7.7451   -1.4422   -1.5993 C   0  0  0  0  0  0  0  0  0  0  0  0
    9.1113   -1.3606   -1.6546 C   0  0  0  0  0  0  0  0  0  0  0  0
    9.7847   -0.4430   -0.8636 C   0  0  0  0  0  0  0  0  0  0  0  0
    9.1159    0.3980   -0.0148 C   0  0  0  0  0  0  0  0  0  0  0  0
    9.9273    1.3416    0.7875 C   0  0  0  0  0  0  0  0  0  0  0  0
   11.2782    1.1319    0.4640 F   0  0  0  0  0  0  0  0  0  0  0  0
    9.8533    1.1483    2.1381 F   0  0  0  0  0  0  0  0  0  0  0  0
    9.6640    2.6267    0.3723 F   0  0  0  0  0  0  0  0  0  0  0  0
    4.7115    0.5988    0.6397 N   0  0  0  0  0  0  0  0  0  0  0  0
   -3.1381   -0.5670    0.4771 N   0  0  0  0  0  0  0  0  0  0  0  0
   -3.9197   -1.4870   -0.2979 C   0  0  0  0  0  0  0  0  0  0  0  0
   -4.9854   -0.7151   -1.0892 C   0  0  0  0  0  0  0  0  0  0  0  0
   -5.6527    0.3468   -0.2826 C   0  0  0  0  0  0  0  0  0  0  0  0
   -5.3790    0.1054    1.1821 C   0  0  0  0  0  0  0  0  0  0  0  0
   -3.8938    0.3046    1.3891 C   0  0  0  0  0  0  0  0  0  0  0  0
   -7.0366    0.4488   -0.6125 N   0  0  0  0  0  0  0  0  0  0  0  0
   -7.7483    1.4420    0.1287 C   0  0  0  0  0  0  0  0  0  0  0  0
   -9.1840    1.2343   -0.3641 C   0  0  0  0  0  0  0  0  0  0  0  0
   -9.2343   -0.2375   -0.6133 C   0  0  0  0  0  0  0  0  0  0  0  0
   -7.7980   -0.7545   -0.5148 C   0  0  0  0  0  0  0  0  0  0  0  0
   -0.1425   -3.5551   -1.4646 H   0  0  0  0  0  0  0  0  0  0  0  0
    1.1684   -3.4442   -2.7580 H   0  0  0  0  0  0  0  0  0  0  0  0
   -0.2086   -2.3191   -2.7393 H   0  0  0  0  0  0  0  0  0  0  0  0
   -1.3945   -2.0007   -1.0398 H   0  0  0  0  0  0  0  0  0  0  0  0
   -1.6320    1.1391    1.8675 H   0  0  0  0  0  0  0  0  0  0  0  0
    0.7067    1.3540    1.7926 H   0  0  0  0  0  0  0  0  0  0  0  0
    2.9365   -0.7874   -0.4232 H   0  0  0  0  0  0  0  0  0  0  0  0
    3.6164    3.1962    3.1319 H   0  0  0  0  0  0  0  0  0  0  0  0
    7.6618    1.8699    1.4744 H   0  0  0  0  0  0  0  0  0  0  0  0
    6.0038   -0.7172   -0.7571 H   0  0  0  0  0  0  0  0  0  0  0  0
    7.2421   -2.1591   -2.2195 H   0  0  0  0  0  0  0  0  0  0  0  0
    9.7142   -1.9916   -2.3010 H   0  0  0  0  0  0  0  0  0  0  0  0
   10.8755   -0.4109   -0.9382 H   0  0  0  0  0  0  0  0  0  0  0  0
   -3.3667   -2.1253   -0.9875 H   0  0  0  0  0  0  0  0  0  0  0  0
   -4.4899   -2.1605    0.4052 H   0  0  0  0  0  0  0  0  0  0  0  0
   -4.4545   -0.2633   -1.9767 H   0  0  0  0  0  0  0  0  0  0  0  0
   -5.6548   -1.4867   -1.4957 H   0  0  0  0  0  0  0  0  0  0  0  0
   -5.1828    1.3217   -0.5579 H   0  0  0  0  0  0  0  0  0  0  0  0
   -5.6725   -0.9010    1.4726 H   0  0  0  0  0  0  0  0  0  0  0  0
   -5.8796    0.8564    1.8295 H   0  0  0  0  0  0  0  0  0  0  0  0
   -3.6068    1.3705    1.1759 H   0  0  0  0  0  0  0  0  0  0  0  0
   -3.6575    0.0863    2.4464 H   0  0  0  0  0  0  0  0  0  0  0  0
   -7.4327    2.4751   -0.0781 H   0  0  0  0  0  0  0  0  0  0  0  0
   -7.7868    1.2416    1.2310 H   0  0  0  0  0  0  0  0  0  0  0  0
   -9.3658    1.8389   -1.2995 H   0  0  0  0  0  0  0  0  0  0  0  0
   -9.8798    1.5324    0.4452 H   0  0  0  0  0  0  0  0  0  0  0  0
   -9.8914   -0.7408    0.1370 H   0  0  0  0  0  0  0  0  0  0  0  0
   -9.6613   -0.3987   -1.6330 H   0  0  0  0  0  0  0  0  0  0  0  0
   -7.6832   -1.4417   -1.3911 H   0  0  0  0  0  0  0  0  0  0  0  0
   -7.6263   -1.3189    0.4267 H   0  0  0  0  0  0  0  0  0  0  0  0
  1  2  1  0
  2  3  1  0
  3  4  2  0
  4  5  1  0
  5  6  2  0
  6  7  1  0
  7  8  2  0
  8  9  1  0
  9 10  1  0
 10 11  2  0
 11 12  1  0
 12 13  2  0
 13 14  1  0
 13 15  1  0
 15 16  1  0
 16 17  1  0
 17 18  2  0
 18 19  1  0
 19 20  2  0
 20 21  1  0
 21 22  2  0
 22 23  1  0
 23 24  1  0
 23 25  1  0
 23 26  1  0
 15 27  2  0
  5 28  1  0
 28 29  1  0
 29 30  1  0
 30 31  1  0
 31 32  1  0
 32 33  1  0
 31 34  1  0
 34 35  1  0
 35 36  1  0
 36 37  1  0
 37 38  1  0
  8  3  1  0
 27 10  1  0
 33 28  1  0
 38 34  1  0
 22 17  1  0
  1 39  1  0
  1 40  1  0
  1 41  1  0
  4 42  1  0
  6 43  1  0
  7 44  1  0
  9 45  1  0
 12 46  1  0
 16 47  1  0
 18 48  1  0
 19 49  1  0
 20 50  1  0
 21 51  1  0
 29 52  1  0
 29 53  1  0
 30 54  1  0
 30 55  1  0
 31 56  1  0
 32 57  1  0
 32 58  1  0
 33 59  1  0
 33 60  1  0
 35 61  1  0
 35 62  1  0
 36 63  1  0
 36 64  1  0
 37 65  1  0
 37 66  1  0
 38 67  1  0
 38 68  1  0
M  END
$$$$
[H]N=C(N([H])[H])N([H])C([H])([H])C([H])([H])C([H])([H])[C@@]([H])(C(=O)N([H])[C@]([H])(C(=O)N([H])[C@]([H])(C(=O)N([H])[H])C([H])([H])c1c([H])c([H])c([H])c([H])c1[H])C([H])([H])c1c([H])c([H])c([H])c([H])c1[H])N([H])C(=O)[C@@]([H])(N([H])C(=O)[C@@]([H])(N([H])C(=O)C([H])(C([H])([H])[H])C([H])([H])[H])C([H])([H])c1c([H])c([H])c([H])c([H])c1[H])C([H])([H])c1c([H])c([H])c([H])c([H])c1[H]
     RDKit          3D

118121  0  0  0  0  0  0  0  0999 V2000
    7.7290   -3.7748   -1.3447 C   0  0  0  0  0  0  0  0  0  0  0  0
    6.9687   -4.6406   -0.3610 C   0  0  0  0  0  0  0  0  0  0  0  0
    7.8813   -4.9162    0.8122 C   0  0  0  0  0  0  0  0  0  0  0  0
    5.6778   -4.0406    0.0252 C   0  0  0  0  0  0  0  0  0  0  0  0
    4.6125   -4.6374   -0.2607 O   0  0  0  0  0  0  0  0  0  0  0  0
    5.6210   -2.8136    0.7055 N   0  0  0  0  0  0  0  0  0  0  0  0
    4.3647   -2.1876    1.0892 C   0  0  1  0  0  0  0  0  0  0  0  0
    4.3269   -1.8747    2.5696 C   0  0  0  0  0  0  0  0  0  0  0  0
    4.4868   -3.0090    3.4554 C   0  0  0  0  0  0  0  0  0  0  0  0
    5.7423   -3.3913    3.8796 C   0  0  0  0  0  0  0  0  0  0  0  0
    5.9265   -4.4776    4.7389 C   0  0  0  0  0  0  0  0  0  0  0  0
    4.8345   -5.1853    5.1737 C   0  0  0  0  0  0  0  0  0  0  0  0
    3.5794   -4.8221    4.7655 C   0  0  0  0  0  0  0  0  0  0  0  0
    3.4115   -3.7369    3.9092 C   0  0  0  0  0  0  0  0  0  0  0  0
    4.2425   -0.8418    0.4270 C   0  0  0  0  0  0  0  0  0  0  0  0
    5.2521   -0.0673    0.3807 O   0  0  0  0  0  0  0  0  0  0  0  0
    3.0540   -0.4369   -0.1332 N   0  0  0  0  0  0  0  0  0  0  0  0
    2.7756    0.8481   -0.8114 C   0  0  1  0  0  0  0  0  0  0  0  0
    2.6680    0.5839   -2.2690 C   0  0  0  0  0  0  0  0  0  0  0  0
    2.3888    1.7521   -3.1038 C   0  0  0  0  0  0  0  0  0  0  0  0
    1.0994    1.9865   -3.5936 C   0  0  0  0  0  0  0  0  0  0  0  0
    0.8614    3.0811   -4.3851 C   0  0  0  0  0  0  0  0  0  0  0  0
    1.8710    3.9909   -4.7298 C   0  0  0  0  0  0  0  0  0  0  0  0
    3.1238    3.7604   -4.2501 C   0  0  0  0  0  0  0  0  0  0  0  0
    3.3667    2.6698   -3.4613 C   0  0  0  0  0  0  0  0  0  0  0  0
    1.4994    1.3052   -0.2270 C   0  0  0  0  0  0  0  0  0  0  0  0
    0.8998    0.4436    0.4679 O   0  0  0  0  0  0  0  0  0  0  0  0
    0.9648    2.5797   -0.3993 N   0  0  0  0  0  0  0  0  0  0  0  0
   -0.1894    3.2599    0.0361 C   0  0  1  0  0  0  0  0  0  0  0  0
   -0.8232    4.2119   -0.9059 C   0  0  0  0  0  0  0  0  0  0  0  0
    0.0168    5.3681   -1.3540 C   0  0  0  0  0  0  0  0  0  0  0  0
    0.4043    6.2257   -0.1879 C   0  0  0  0  0  0  0  0  0  0  0  0
    1.1846    7.3588   -0.6686 N   0  0  0  0  0  0  0  0  0  0  0  0
    0.5327    8.3381   -1.4568 C   0  0  0  0  0  0  0  0  0  0  0  0
    1.1866    8.8934   -2.5776 N   0  0  0  0  0  0  0  0  0  0  0  0
   -0.6509    8.7063   -1.1376 N   0  0  0  0  0  0  0  0  0  0  0  0
   -1.2199    2.3988    0.6644 C   0  0  0  0  0  0  0  0  0  0  0  0
   -0.9343    1.5873    1.5894 O   0  0  0  0  0  0  0  0  0  0  0  0
   -2.5757    2.4241    0.2769 N   0  0  0  0  0  0  0  0  0  0  0  0
   -3.5353    1.5394    0.9852 C   0  0  1  0  0  0  0  0  0  0  0  0
   -4.5783    2.4271    1.5102 C   0  0  0  0  0  0  0  0  0  0  0  0
   -5.6624    1.8713    2.3026 C   0  0  0  0  0  0  0  0  0  0  0  0
   -5.4842    1.6547    3.6877 C   0  0  0  0  0  0  0  0  0  0  0  0
   -6.5337    1.1859    4.4059 C   0  0  0  0  0  0  0  0  0  0  0  0
   -7.7792    0.9013    3.8691 C   0  0  0  0  0  0  0  0  0  0  0  0
   -7.9712    1.1063    2.5153 C   0  0  0  0  0  0  0  0  0  0  0  0
   -6.8987    1.5878    1.7716 C   0  0  0  0  0  0  0  0  0  0  0  0
   -3.8687    0.4026    0.1502 C   0  0  0  0  0  0  0  0  0  0  0  0
   -3.2904    0.3948   -1.0173 O   0  0  0  0  0  0  0  0  0  0  0  0
   -4.7022   -0.6855    0.3973 N   0  0  0  0  0  0  0  0  0  0  0  0
   -4.8474   -1.7410   -0.6335 C   0  0  1  0  0  0  0  0  0  0  0  0
   -4.8972   -3.0289    0.1007 C   0  0  0  0  0  0  0  0  0  0  0  0
   -5.0383   -4.2612   -0.6375 C   0  0  0  0  0  0  0  0  0  0  0  0
   -6.2616   -4.8348   -0.8698 C   0  0  0  0  0  0  0  0  0  0  0  0
   -6.3357   -6.0228   -1.5734 C   0  0  0  0  0  0  0  0  0  0  0  0
   -5.2359   -6.6613   -2.0544 C   0  0  0  0  0  0  0  0  0  0  0  0
   -3.9874   -6.0996   -1.8312 C   0  0  0  0  0  0  0  0  0  0  0  0
   -3.9105   -4.9201   -1.1329 C   0  0  0  0  0  0  0  0  0  0  0  0
   -6.0501   -1.4441   -1.4708 C   0  0  0  0  0  0  0  0  0  0  0  0
   -6.3453   -2.2339   -2.5964 N   0  0  0  0  0  0  0  0  0  0  0  0
   -6.8090   -0.5008   -1.2017 O   0  0  0  0  0  0  0  0  0  0  0  0
    7.6832   -2.7324   -1.0386 H   0  0  0  0  0  0  0  0  0  0  0  0
    7.3166   -3.8604   -2.3788 H   0  0  0  0  0  0  0  0  0  0  0  0
    8.7836   -4.1194   -1.4005 H   0  0  0  0  0  0  0  0  0  0  0  0
    6.8288   -5.6186   -0.8885 H   0  0  0  0  0  0  0  0  0  0  0  0
    8.6004   -5.7328    0.5958 H   0  0  0  0  0  0  0  0  0  0  0  0
    7.2411   -5.1592    1.7106 H   0  0  0  0  0  0  0  0  0  0  0  0
    8.4823   -4.0211    1.0641 H   0  0  0  0  0  0  0  0  0  0  0  0
    6.4970   -2.3183    0.9487 H   0  0  0  0  0  0  0  0  0  0  0  0
    3.5436   -2.8312    0.7626 H   0  0  0  0  0  0  0  0  0  0  0  0
    3.3376   -1.3376    2.7128 H   0  0  0  0  0  0  0  0  0  0  0  0
    5.0971   -1.0709    2.7210 H   0  0  0  0  0  0  0  0  0  0  0  0
    6.6239   -2.8399    3.5421 H   0  0  0  0  0  0  0  0  0  0  0  0
    6.9044   -4.7923    5.0856 H   0  0  0  0  0  0  0  0  0  0  0  0
    4.9629   -6.0395    5.8464 H   0  0  0  0  0  0  0  0  0  0  0  0
    2.7383   -5.3933    5.1306 H   0  0  0  0  0  0  0  0  0  0  0  0
    2.4022   -3.4354    3.5796 H   0  0  0  0  0  0  0  0  0  0  0  0
    2.2278   -1.0831   -0.1023 H   0  0  0  0  0  0  0  0  0  0  0  0
    3.6411    1.4906   -0.5708 H   0  0  0  0  0  0  0  0  0  0  0  0
    3.5476    0.0359   -2.6818 H   0  0  0  0  0  0  0  0  0  0  0  0
    1.8130   -0.1492   -2.4635 H   0  0  0  0  0  0  0  0  0  0  0  0
    0.2980    1.3297   -3.3587 H   0  0  0  0  0  0  0  0  0  0  0  0
   -0.1323    3.3030   -4.7927 H   0  0  0  0  0  0  0  0  0  0  0  0
    1.6093    4.8379   -5.3574 H   0  0  0  0  0  0  0  0  0  0  0  0
    3.9263    4.4649   -4.5097 H   0  0  0  0  0  0  0  0  0  0  0  0
    4.3857    2.5384   -3.1034 H   0  0  0  0  0  0  0  0  0  0  0  0
    1.6194    3.2493   -0.9797 H   0  0  0  0  0  0  0  0  0  0  0  0
    0.2155    3.8443    0.9893 H   0  0  0  0  0  0  0  0  0  0  0  0
   -1.1371    3.6870   -1.8654 H   0  0  0  0  0  0  0  0  0  0  0  0
   -1.7776    4.6472   -0.5229 H   0  0  0  0  0  0  0  0  0  0  0  0
   -0.5423    6.0019   -2.0831 H   0  0  0  0  0  0  0  0  0  0  0  0
    0.9107    5.0147   -1.9188 H   0  0  0  0  0  0  0  0  0  0  0  0
    0.9829    5.6207    0.5318 H   0  0  0  0  0  0  0  0  0  0  0  0
   -0.5348    6.5592    0.3181 H   0  0  0  0  0  0  0  0  0  0  0  0
    2.1974    7.3838   -0.3968 H   0  0  0  0  0  0  0  0  0  0  0  0
    0.7022    8.9156   -3.4950 H   0  0  0  0  0  0  0  0  0  0  0  0
    2.1415    9.2715   -2.4673 H   0  0  0  0  0  0  0  0  0  0  0  0
   -1.1456    9.4331   -1.7149 H   0  0  0  0  0  0  0  0  0  0  0  0
   -2.9691    3.0143   -0.4728 H   0  0  0  0  0  0  0  0  0  0  0  0
   -2.9101    1.1010    1.8451 H   0  0  0  0  0  0  0  0  0  0  0  0
   -4.0744    3.2007    2.1523 H   0  0  0  0  0  0  0  0  0  0  0  0
   -5.0228    2.9820    0.6384 H   0  0  0  0  0  0  0  0  0  0  0  0
   -4.5122    1.8754    4.1075 H   0  0  0  0  0  0  0  0  0  0  0  0
   -6.4287    1.0063    5.4883 H   0  0  0  0  0  0  0  0  0  0  0  0
   -8.5808    0.5269    4.4999 H   0  0  0  0  0  0  0  0  0  0  0  0
   -8.9049    0.9110    2.0263 H   0  0  0  0  0  0  0  0  0  0  0  0
   -7.0449    1.7546    0.7014 H   0  0  0  0  0  0  0  0  0  0  0  0
   -5.2501   -0.8661    1.2488 H   0  0  0  0  0  0  0  0  0  0  0  0
   -3.9933   -1.6456   -1.3055 H   0  0  0  0  0  0  0  0  0  0  0  0
   -5.7498   -2.8972    0.8635 H   0  0  0  0  0  0  0  0  0  0  0  0
   -3.9903   -3.0432    0.7911 H   0  0  0  0  0  0  0  0  0  0  0  0
   -7.1929   -4.3789   -0.5113 H   0  0  0  0  0  0  0  0  0  0  0  0
   -7.3135   -6.4599   -1.7460 H   0  0  0  0  0  0  0  0  0  0  0  0
   -5.2821   -7.6031   -2.6139 H   0  0  0  0  0  0  0  0  0  0  0  0
   -3.0990   -6.5700   -2.1935 H   0  0  0  0  0  0  0  0  0  0  0  0
   -2.9013   -4.5160   -0.9808 H   0  0  0  0  0  0  0  0  0  0  0  0
   -7.3476   -2.4214   -2.8439 H   0  0  0  0  0  0  0  0  0  0  0  0
   -5.5633   -2.6216   -3.1682 H   0  0  0  0  0  0  0  0  0  0  0  0
  1  2  1  0
  2  3  1  0
  2  4  1  0
  4  5  2  0
  4  6  1  0
  6  7  1  0
  7  8  1  0
  8  9  1  0
  9 10  2  0
 10 11  1  0
 11 12  2  0
 12 13  1  0
 13 14  2  0
  7 15  1  0
 15 16  2  0
 15 17  1  0
 17 18  1  0
 18 19  1  0
 19 20  1  0
 20 21  2  0
 21 22  1  0
 22 23  2  0
 23 24  1  0
 24 25  2  0
 18 26  1  0
 26 27  2  0
 26 28  1  0
 28 29  1  0
 29 30  1  0
 30 31  1  0
 31 32  1  0
 32 33  1  0
 33 34  1  0
 34 35  1  0
 34 36  2  3
 29 37  1  0
 37 38  2  0
 37 39  1  0
 39 40  1  0
 40 41  1  0
 41 42  1  0
 42 43  2  0
 43 44  1  0
 44 45  2  0
 45 46  1  0
 46 47  2  0
 40 48  1  0
 48 49  2  0
 48 50  1  0
 50 51  1  0
 51 52  1  0
 52 53  1  0
 53 54  2  0
 54 55  1  0
 55 56  2  0
 56 57  1  0
 57 58  2  0
 51 59  1  0
 59 60  1  0
 59 61  2  0
 14  9  1  0
 25 20  1  0
 47 42  1  0
 58 53  1  0
  1 62  1  0
  1 63  1  0
  1 64  1  0
  2 65  1  0
  3 66  1  0
  3 67  1  0
  3 68  1  0
  6 69  1  0
  7 70  1  6
  8 71  1  0
  8 72  1  0
 10 73  1  0
 11 74  1  0
 12 75  1  0
 13 76  1  0
 14 77  1  0
 17 78  1  0
 18 79  1  6
 19 80  1  0
 19 81  1  0
 21 82  1  0
 22 83  1  0
 23 84  1  0
 24 85  1  0
 25 86  1  0
 28 87  1  0
 29 88  1  1
 30 89  1  0
 30 90  1  0
 31 91  1  0
 31 92  1  0
 32 93  1  0
 32 94  1  0
 33 95  1  0
 35 96  1  0
 35 97  1  0
 36 98  1  0
 39 99  1  0
 40100  1  1
 41101  1  0
 41102  1  0
 43103  1  0
 44104  1  0
 45105  1  0
 46106  1  0
 47107  1  0
 50108  1  0
 51109  1  6
 52110  1  0
 52111  1  0
 54112  1  0
 55113  1  0
 56114  1  0
 57115  1  0
 58116  1  0
 60117  1  0
 60118  1  0
M  END
$$$$
[H]c1c([H])c(N([H])C(=O)c2c([H])c([H])c(N([H])C(=O)OC(C([H])([H])[H])(C([H])([H])[H])C([H])([H])[H])c([H])c2[H])c([H])c(C(F)(F)F)c1[H]
     RDKit          3D

 46 47  0  0  0  0  0  0  0  0999 V2000
   -5.8480    2.2227   -0.7322 C   0  0  0  0  0  0  0  0  0  0  0  0
   -6.1525    0.8231   -0.2316 C   0  0  0  0  0  0  0  0  0  0  0  0
   -7.0992    1.0763    0.9843 C   0  0  0  0  0  0  0  0  0  0  0  0
   -6.9570    0.0788   -1.2488 C   0  0  0  0  0  0  0  0  0  0  0  0
   -5.0690    0.1479    0.2918 O   0  0  0  0  0  0  0  0  0  0  0  0
   -3.8303   -0.0476   -0.3468 C   0  0  0  0  0  0  0  0  0  0  0  0
   -3.6860    0.4582   -1.4683 O   0  0  0  0  0  0  0  0  0  0  0  0
   -2.8751   -0.7791    0.3485 N   0  0  0  0  0  0  0  0  0  0  0  0
   -1.5165   -1.0522   -0.0169 C   0  0  0  0  0  0  0  0  0  0  0  0
   -1.0222   -2.3219    0.2492 C   0  0  0  0  0  0  0  0  0  0  0  0
    0.3506   -2.5149    0.1287 C   0  0  0  0  0  0  0  0  0  0  0  0
    1.1500   -1.4325   -0.2471 C   0  0  0  0  0  0  0  0  0  0  0  0
    0.6123   -0.2171   -0.5043 C   0  0  0  0  0  0  0  0  0  0  0  0
   -0.7571    0.0189   -0.3972 C   0  0  0  0  0  0  0  0  0  0  0  0
    2.6229   -1.5667   -0.0555 C   0  0  0  0  0  0  0  0  0  0  0  0
    3.0427   -2.7318    0.2716 O   0  0  0  0  0  0  0  0  0  0  0  0
    3.4827   -0.5147   -0.1865 N   0  0  0  0  0  0  0  0  0  0  0  0
    4.8730   -0.4416    0.1027 C   0  0  0  0  0  0  0  0  0  0  0  0
    5.4211   -1.2202    1.1151 C   0  0  0  0  0  0  0  0  0  0  0  0
    6.7172   -1.0844    1.5422 C   0  0  0  0  0  0  0  0  0  0  0  0
    7.5273   -0.1381    0.9626 C   0  0  0  0  0  0  0  0  0  0  0  0
    7.0159    0.6496   -0.0399 C   0  0  0  0  0  0  0  0  0  0  0  0
    5.6835    0.5046   -0.4805 C   0  0  0  0  0  0  0  0  0  0  0  0
    7.9006    1.6796   -0.6448 C   0  0  0  0  0  0  0  0  0  0  0  0
    7.2105    2.8752   -0.6535 F   0  0  0  0  0  0  0  0  0  0  0  0
    9.0754    1.7749    0.0855 F   0  0  0  0  0  0  0  0  0  0  0  0
    8.2355    1.3025   -1.9099 F   0  0  0  0  0  0  0  0  0  0  0  0
   -5.1572    2.7753   -0.1015 H   0  0  0  0  0  0  0  0  0  0  0  0
   -6.8214    2.7479   -0.7791 H   0  0  0  0  0  0  0  0  0  0  0  0
   -5.4764    2.1650   -1.7923 H   0  0  0  0  0  0  0  0  0  0  0  0
   -6.7511    1.9785    1.4908 H   0  0  0  0  0  0  0  0  0  0  0  0
   -8.1420    1.1553    0.6086 H   0  0  0  0  0  0  0  0  0  0  0  0
   -6.9543    0.2274    1.6553 H   0  0  0  0  0  0  0  0  0  0  0  0
   -8.0396    0.3753   -1.1117 H   0  0  0  0  0  0  0  0  0  0  0  0
   -6.8444   -1.0275   -1.0948 H   0  0  0  0  0  0  0  0  0  0  0  0
   -6.7336    0.3472   -2.2974 H   0  0  0  0  0  0  0  0  0  0  0  0
   -3.1376   -1.2208    1.2952 H   0  0  0  0  0  0  0  0  0  0  0  0
   -1.7134   -3.1032    0.5346 H   0  0  0  0  0  0  0  0  0  0  0  0
    0.7181   -3.4985    0.3201 H   0  0  0  0  0  0  0  0  0  0  0  0
    1.1877    0.6611   -0.8211 H   0  0  0  0  0  0  0  0  0  0  0  0
   -1.1685    0.9990   -0.6097 H   0  0  0  0  0  0  0  0  0  0  0  0
    3.0828    0.4110   -0.5675 H   0  0  0  0  0  0  0  0  0  0  0  0
    4.7996   -1.9621    1.5907 H   0  0  0  0  0  0  0  0  0  0  0  0
    7.1467   -1.7036    2.3192 H   0  0  0  0  0  0  0  0  0  0  0  0
    8.5746   -0.0049    1.3041 H   0  0  0  0  0  0  0  0  0  0  0  0
    5.3218    1.1281   -1.2824 H   0  0  0  0  0  0  0  0  0  0  0  0
  1  2  1  0
  2  3  1  0
  2  4  1  0
  2  5  1  0
  5  6  1  0
  6  7  2  0
  6  8  1  0
  8  9  1  0
  9 10  2  0
 10 11  1  0
 11 12  2  0
 12 13  1  0
 13 14  2  0
 12 15  1  0
 15 16  2  0
 15 17  1  0
 17 18  1  0
 18 19  2  0
 19 20  1  0
 20 21  2  0
 21 22  1  0
 22 23  2  0
 22 24  1  0
 24 25  1  0
 24 26  1  0
 24 27  1  0
 14  9  1  0
 23 18  1  0
  1 28  1  0
  1 29  1  0
  1 30  1  0
  3 31  1  0
  3 32  1  0
  3 33  1  0
  4 34  1  0
  4 35  1  0
  4 36  1  0
  8 37  1  0
 10 38  1  0
 11 39  1  0
 13 40  1  0
 14 41  1  0
 17 42  1  0
 19 43  1  0
 20 44  1  0
 21 45  1  0
 23 46  1  0
M  END
$$$$
[H]c1nc(N([H])c2c([H])c([H])c(N3C([H])([H])C([H])([H])N(C([H])([H])[H])C([H])([H])C3([H])[H])c([H])c2OC([H])([H])[H])nc(N([H])c2c([H])c([H])c([H])c([H])c2S(=O)(=O)C([H])(C([H])([H])[H])C([H])([H])[H])c1F
     RDKit          3D

 67 70  0  0  0  0  0  0  0  0999 V2000
    2.7091   -3.0371   -1.7859 C   0  0  0  0  0  0  0  0  0  0  0  0
    1.9805   -1.9454   -1.3048 O   0  0  0  0  0  0  0  0  0  0  0  0
    2.5341   -0.8718   -0.6403 C   0  0  0  0  0  0  0  0  0  0  0  0
    3.8937   -0.8442   -0.4206 C   0  0  0  0  0  0  0  0  0  0  0  0
    4.4982    0.1877    0.2286 C   0  0  0  0  0  0  0  0  0  0  0  0
    3.6947    1.2200    0.6664 C   0  0  0  0  0  0  0  0  0  0  0  0
    2.3177    1.1830    0.4392 C   0  0  0  0  0  0  0  0  0  0  0  0
    1.6834    0.1559   -0.2122 C   0  0  0  0  0  0  0  0  0  0  0  0
    0.3151    0.0382   -0.4820 N   0  0  0  0  0  0  0  0  0  0  0  0
   -0.7237    0.9433   -0.1487 C   0  0  0  0  0  0  0  0  0  0  0  0
   -0.5430    2.0901    0.4991 N   0  0  0  0  0  0  0  0  0  0  0  0
   -1.5340    2.9383    0.8089 C   0  0  0  0  0  0  0  0  0  0  0  0
   -2.8038    2.5872    0.4279 C   0  0  0  0  0  0  0  0  0  0  0  0
   -3.8434    3.4156    0.7196 F   0  0  0  0  0  0  0  0  0  0  0  0
   -3.0761    1.3876   -0.2623 C   0  0  0  0  0  0  0  0  0  0  0  0
   -4.3981    1.0672   -0.6207 N   0  0  0  0  0  0  0  0  0  0  0  0
   -4.8965   -0.0348   -1.3034 C   0  0  0  0  0  0  0  0  0  0  0  0
   -4.1236   -0.9726   -1.9582 C   0  0  0  0  0  0  0  0  0  0  0  0
   -4.6272   -2.0450   -2.6838 C   0  0  0  0  0  0  0  0  0  0  0  0
   -5.9882   -2.1915   -2.7617 C   0  0  0  0  0  0  0  0  0  0  0  0
   -6.8097   -1.2947   -2.1335 C   0  0  0  0  0  0  0  0  0  0  0  0
   -6.2831   -0.2271   -1.4104 C   0  0  0  0  0  0  0  0  0  0  0  0
   -7.4076    0.8043   -0.6163 S   0  0  0  0  0  0  0  0  0  0  0  0
   -7.3035    2.2484   -1.0251 O   0  0  0  0  0  0  0  0  0  0  0  0
   -8.8316    0.3149   -0.9003 O   0  0  0  0  0  0  0  0  0  0  0  0
   -7.2226    0.6631    1.1398 C   0  0  0  0  0  0  0  0  0  0  0  0
   -7.5901   -0.7489    1.5584 C   0  0  0  0  0  0  0  0  0  0  0  0
   -8.2047    1.6631    1.7600 C   0  0  0  0  0  0  0  0  0  0  0  0
   -2.0062    0.6424   -0.5045 N   0  0  0  0  0  0  0  0  0  0  0  0
    5.8999    0.2076    0.4360 N   0  0  0  0  0  0  0  0  0  0  0  0
    6.5613    1.0812    1.4053 C   0  0  0  0  0  0  0  0  0  0  0  0
    7.5625    0.2938    2.2283 C   0  0  0  0  0  0  0  0  0  0  0  0
    8.3164   -0.6621    1.4850 N   0  0  0  0  0  0  0  0  0  0  0  0
    9.3138   -0.1075    0.6186 C   0  0  0  0  0  0  0  0  0  0  0  0
    7.4523   -1.5466    0.7240 C   0  0  0  0  0  0  0  0  0  0  0  0
    6.7779   -0.6385   -0.3211 C   0  0  0  0  0  0  0  0  0  0  0  0
    2.0853   -3.6216   -2.4934 H   0  0  0  0  0  0  0  0  0  0  0  0
    3.0429   -3.6418   -0.9194 H   0  0  0  0  0  0  0  0  0  0  0  0
    3.6204   -2.7432   -2.3646 H   0  0  0  0  0  0  0  0  0  0  0  0
    4.4873   -1.6909   -0.7803 H   0  0  0  0  0  0  0  0  0  0  0  0
    4.1574    2.0422    1.1789 H   0  0  0  0  0  0  0  0  0  0  0  0
    1.7512    2.0180    0.8060 H   0  0  0  0  0  0  0  0  0  0  0  0
    0.0169   -0.8478   -1.0064 H   0  0  0  0  0  0  0  0  0  0  0  0
   -1.3740    3.8755    1.3402 H   0  0  0  0  0  0  0  0  0  0  0  0
   -5.1171    1.8032   -0.3369 H   0  0  0  0  0  0  0  0  0  0  0  0
   -3.0304   -0.9071   -1.9413 H   0  0  0  0  0  0  0  0  0  0  0  0
   -3.9485   -2.7483   -3.1761 H   0  0  0  0  0  0  0  0  0  0  0  0
   -6.3766   -3.0407   -3.3373 H   0  0  0  0  0  0  0  0  0  0  0  0
   -7.8776   -1.4384   -2.2148 H   0  0  0  0  0  0  0  0  0  0  0  0
   -6.2164    0.9353    1.4347 H   0  0  0  0  0  0  0  0  0  0  0  0
   -8.0419   -0.7577    2.5582 H   0  0  0  0  0  0  0  0  0  0  0  0
   -6.6700   -1.3592    1.5525 H   0  0  0  0  0  0  0  0  0  0  0  0
   -8.2754   -1.2171    0.8007 H   0  0  0  0  0  0  0  0  0  0  0  0
   -8.4720    1.4028    2.7841 H   0  0  0  0  0  0  0  0  0  0  0  0
   -7.7153    2.6550    1.7046 H   0  0  0  0  0  0  0  0  0  0  0  0
   -9.1042    1.7340    1.0946 H   0  0  0  0  0  0  0  0  0  0  0  0
    5.8789    1.5560    2.1089 H   0  0  0  0  0  0  0  0  0  0  0  0
    7.1332    1.8728    0.8687 H   0  0  0  0  0  0  0  0  0  0  0  0
    7.0689   -0.2199    3.0670 H   0  0  0  0  0  0  0  0  0  0  0  0
    8.2946    1.0536    2.6280 H   0  0  0  0  0  0  0  0  0  0  0  0
    9.0971    0.9301    0.3505 H   0  0  0  0  0  0  0  0  0  0  0  0
   10.3177   -0.1130    1.1221 H   0  0  0  0  0  0  0  0  0  0  0  0
    9.4283   -0.7784   -0.2628 H   0  0  0  0  0  0  0  0  0  0  0  0
    6.6331   -1.8977    1.3827 H   0  0  0  0  0  0  0  0  0  0  0  0
    7.9957   -2.3689    0.2629 H   0  0  0  0  0  0  0  0  0  0  0  0
    6.3403   -1.2027   -1.1365 H   0  0  0  0  0  0  0  0  0  0  0  0
    7.5764    0.0701   -0.7249 H   0  0  0  0  0  0  0  0  0  0  0  0
  1  2  1  0
  2  3  1  0
  3  4  2  0
  4  5  1  0
  5  6  2  0
  6  7  1  0
  7  8  2  0
  8  9  1  0
  9 10  1  0
 10 11  2  0
 11 12  1  0
 12 13  2  0
 13 14  1  0
 13 15  1  0
 15 16  1  0
 16 17  1  0
 17 18  2  0
 18 19  1  0
 19 20  2  0
 20 21  1  0
 21 22  2  0
 22 23  1  0
 23 24  2  0
 23 25  2  0
 23 26  1  0
 26 27  1  0
 26 28  1  0
 15 29  2  0
  5 30  1  0
 30 31  1  0
 31 32  1  0
 32 33  1  0
 33 34  1  0
 33 35  1  0
 35 36  1  0
  8  3  1  0
 29 10  1  0
 36 30  1  0
 22 17  1  0
  1 37  1  0
  1 38  1  0
  1 39  1  0
  4 40  1  0
  6 41  1  0
  7 42  1  0
  9 43  1  0
 12 44  1  0
 16 45  1  0
 18 46  1  0
 19 47  1  0
 20 48  1  0
 21 49  1  0
 26 50  1  0
 27 51  1  0
 27 52  1  0
 27 53  1  0
 28 54  1  0
 28 55  1  0
 28 56  1  0
 31 57  1  0
 31 58  1  0
 32 59  1  0
 32 60  1  0
 34 61  1  0
 34 62  1  0
 34 63  1  0
 35 64  1  0
 35 65  1  0
 36 66  1  0
 36 67  1  0
M  END
$$$$
[H]OC(=O)[C@@]([H])(N([H])C(=O)[C@@]([H])(N([H])C(=O)[C@@]([H])(N([H])C(=O)[C@@]([H])(N([H])C(=O)[C@@]([H])(N([H])C(=O)[C@@]([H])(N([H])[H])C([H])([H])C([H])([H])C([H])([H])N=C(N([H])[H])N([H])[H])C([H])([H])c1c([H])c([H])c([H])c([H])c1[H])[C@@]([H])(C([H])([H])[H])C([H])([H])C([H])([H])[H])C([H])([H])c1c([H])c([H])c([H])c([H])c1[H])C([H])([H])C([H])(C([H])([H])[H])C([H])([H])[H])C([H])([H])c1c([H])c([H])c([H])c([H])c1[H]
     RDKit          3D

124126  0  0  0  0  0  0  0  0999 V2000
    2.7703   -5.0813    0.9823 C   0  0  0  0  0  0  0  0  0  0  0  0
    2.7212   -3.6381    0.5194 C   0  0  0  0  0  0  0  0  0  0  0  0
    1.3334   -3.0223    0.8515 C   0  0  2  0  0  0  0  0  0  0  0  0
    0.3937   -3.9357    0.0690 C   0  0  0  0  0  0  0  0  0  0  0  0
    1.3675   -1.6486    0.2547 C   0  0  2  0  0  0  0  0  0  0  0  0
    2.4696   -0.8489    0.7512 N   0  0  0  0  0  0  0  0  0  0  0  0
    3.6933   -0.5861    0.1031 C   0  0  0  0  0  0  0  0  0  0  0  0
    3.9038   -1.0635   -1.0188 O   0  0  0  0  0  0  0  0  0  0  0  0
    4.7395    0.2485    0.7510 C   0  0  2  0  0  0  0  0  0  0  0  0
    4.1767    1.6653    0.8914 C   0  0  0  0  0  0  0  0  0  0  0  0
    5.1151    2.6051    1.5293 C   0  0  0  0  0  0  0  0  0  0  0  0
    6.0195    3.3974    0.8407 C   0  0  0  0  0  0  0  0  0  0  0  0
    6.8724    4.2606    1.4981 C   0  0  0  0  0  0  0  0  0  0  0  0
    6.8693    4.3773    2.8659 C   0  0  0  0  0  0  0  0  0  0  0  0
    5.9595    3.5802    3.5613 C   0  0  0  0  0  0  0  0  0  0  0  0
    5.1130    2.7242    2.9176 C   0  0  0  0  0  0  0  0  0  0  0  0
    6.0047    0.2449    0.1205 N   0  0  0  0  0  0  0  0  0  0  0  0
    6.3861    0.4481   -1.2134 C   0  0  0  0  0  0  0  0  0  0  0  0
    5.6363    0.6956   -2.1799 O   0  0  0  0  0  0  0  0  0  0  0  0
    7.8586    0.3756   -1.6000 C   0  0  1  0  0  0  0  0  0  0  0  0
    8.5930    0.1795   -0.3795 N   0  0  0  0  0  0  0  0  0  0  0  0
    7.9880   -0.7456   -2.5615 C   0  0  0  0  0  0  0  0  0  0  0  0
    9.3405   -1.0487   -3.0788 C   0  0  0  0  0  0  0  0  0  0  0  0
   10.0587    0.0124   -3.8256 C   0  0  0  0  0  0  0  0  0  0  0  0
   10.3483    1.2163   -3.1207 N   0  0  0  0  0  0  0  0  0  0  0  0
   11.4051    1.4972   -2.4612 C   0  0  0  0  0  0  0  0  0  0  0  0
   12.4916    0.6071   -2.3275 N   0  0  0  0  0  0  0  0  0  0  0  0
   11.4995    2.7606   -1.8201 N   0  0  0  0  0  0  0  0  0  0  0  0
    0.0899   -0.8756    0.4423 C   0  0  0  0  0  0  0  0  0  0  0  0
    0.0909    0.3371    0.0243 O   0  0  0  0  0  0  0  0  0  0  0  0
   -1.0720   -1.3614    1.0376 N   0  0  0  0  0  0  0  0  0  0  0  0
   -2.2834   -0.6950    1.2691 C   0  0  1  0  0  0  0  0  0  0  0  0
   -2.1706    0.6769    1.9448 C   0  0  0  0  0  0  0  0  0  0  0  0
   -1.5634    0.5764    3.2978 C   0  0  0  0  0  0  0  0  0  0  0  0
   -2.3647    0.2287    4.3924 C   0  0  0  0  0  0  0  0  0  0  0  0
   -1.8666    0.1335    5.6662 C   0  0  0  0  0  0  0  0  0  0  0  0
   -0.5332    0.3810    5.9350 C   0  0  0  0  0  0  0  0  0  0  0  0
    0.2804    0.7271    4.8805 C   0  0  0  0  0  0  0  0  0  0  0  0
   -0.2548    0.8178    3.5776 C   0  0  0  0  0  0  0  0  0  0  0  0
   -3.3417   -0.7429    0.2373 C   0  0  0  0  0  0  0  0  0  0  0  0
   -3.0767   -1.1957   -0.8904 O   0  0  0  0  0  0  0  0  0  0  0  0
   -4.6014   -0.2729    0.6128 N   0  0  0  0  0  0  0  0  0  0  0  0
   -5.7451   -0.2549   -0.2555 C   0  0  1  0  0  0  0  0  0  0  0  0
   -6.8399   -1.1787    0.2347 C   0  0  0  0  0  0  0  0  0  0  0  0
   -6.3936   -2.6316    0.3121 C   0  0  0  0  0  0  0  0  0  0  0  0
   -7.6337   -3.3861    0.8234 C   0  0  0  0  0  0  0  0  0  0  0  0
   -6.1896   -3.1613   -1.1070 C   0  0  0  0  0  0  0  0  0  0  0  0
   -6.2964    1.0927   -0.4096 C   0  0  0  0  0  0  0  0  0  0  0  0
   -5.6422    2.0742   -0.0082 O   0  0  0  0  0  0  0  0  0  0  0  0
   -7.5556    1.3045   -0.9971 N   0  0  0  0  0  0  0  0  0  0  0  0
   -8.1858    2.5949   -1.1954 C   0  0  1  0  0  0  0  0  0  0  0  0
   -8.8963    2.7666   -2.4791 C   0  0  0  0  0  0  0  0  0  0  0  0
  -10.0105    1.8109   -2.7273 C   0  0  0  0  0  0  0  0  0  0  0  0
   -9.7572    0.6252   -3.3599 C   0  0  0  0  0  0  0  0  0  0  0  0
  -10.7717   -0.2675   -3.5871 C   0  0  0  0  0  0  0  0  0  0  0  0
  -12.0474    0.0342   -3.1739 C   0  0  0  0  0  0  0  0  0  0  0  0
  -12.3178    1.2198   -2.5372 C   0  0  0  0  0  0  0  0  0  0  0  0
  -11.2750    2.1229   -2.3133 C   0  0  0  0  0  0  0  0  0  0  0  0
   -9.0348    2.8489    0.0210 C   0  0  0  0  0  0  0  0  0  0  0  0
   -9.7218    4.0328    0.0976 O   0  0  0  0  0  0  0  0  0  0  0  0
   -9.1171    2.0138    0.9435 O   0  0  0  0  0  0  0  0  0  0  0  0
    2.2570   -5.2031    1.9475 H   0  0  0  0  0  0  0  0  0  0  0  0
    3.8643   -5.3016    1.1524 H   0  0  0  0  0  0  0  0  0  0  0  0
    2.4450   -5.7889    0.1950 H   0  0  0  0  0  0  0  0  0  0  0  0
    2.7625   -3.6541   -0.5810 H   0  0  0  0  0  0  0  0  0  0  0  0
    3.5388   -3.0919    0.9707 H   0  0  0  0  0  0  0  0  0  0  0  0
    1.1516   -3.1044    1.9077 H   0  0  0  0  0  0  0  0  0  0  0  0
   -0.2940   -3.3814   -0.5964 H   0  0  0  0  0  0  0  0  0  0  0  0
    0.9547   -4.6217   -0.5743 H   0  0  0  0  0  0  0  0  0  0  0  0
   -0.2193   -4.4832    0.8053 H   0  0  0  0  0  0  0  0  0  0  0  0
    1.5123   -1.7857   -0.8286 H   0  0  0  0  0  0  0  0  0  0  0  0
    2.3457   -0.4040    1.7190 H   0  0  0  0  0  0  0  0  0  0  0  0
    4.8664   -0.1106    1.8151 H   0  0  0  0  0  0  0  0  0  0  0  0
    3.2592    1.6727    1.5081 H   0  0  0  0  0  0  0  0  0  0  0  0
    3.8681    2.0344   -0.1279 H   0  0  0  0  0  0  0  0  0  0  0  0
    6.0556    3.3497   -0.2270 H   0  0  0  0  0  0  0  0  0  0  0  0
    7.5956    4.8942    0.9665 H   0  0  0  0  0  0  0  0  0  0  0  0
    7.5103    5.0345    3.4311 H   0  0  0  0  0  0  0  0  0  0  0  0
    5.9603    3.6793    4.6462 H   0  0  0  0  0  0  0  0  0  0  0  0
    4.3995    2.0997    3.4729 H   0  0  0  0  0  0  0  0  0  0  0  0
    6.8501    0.0532    0.7832 H   0  0  0  0  0  0  0  0  0  0  0  0
    8.1230    1.3769   -2.0265 H   0  0  0  0  0  0  0  0  0  0  0  0
    9.5001   -0.2800   -0.6059 H   0  0  0  0  0  0  0  0  0  0  0  0
    8.8054    1.0494    0.1395 H   0  0  0  0  0  0  0  0  0  0  0  0
    7.6174   -1.6627   -2.0396 H   0  0  0  0  0  0  0  0  0  0  0  0
    7.2759   -0.5714   -3.4018 H   0  0  0  0  0  0  0  0  0  0  0  0
    9.2241   -1.9201   -3.7949 H   0  0  0  0  0  0  0  0  0  0  0  0
    9.9697   -1.4972   -2.2564 H   0  0  0  0  0  0  0  0  0  0  0  0
    9.4300    0.2983   -4.7122 H   0  0  0  0  0  0  0  0  0  0  0  0
   11.0083   -0.4257   -4.2728 H   0  0  0  0  0  0  0  0  0  0  0  0
   13.1361    0.5895   -1.4896 H   0  0  0  0  0  0  0  0  0  0  0  0
   12.7362   -0.1103   -3.0638 H   0  0  0  0  0  0  0  0  0  0  0  0
   11.6738    3.6322   -2.3342 H   0  0  0  0  0  0  0  0  0  0  0  0
   11.3873    2.7909   -0.7890 H   0  0  0  0  0  0  0  0  0  0  0  0
   -1.0225   -2.3676    1.3919 H   0  0  0  0  0  0  0  0  0  0  0  0
   -2.8135   -1.2794    2.1604 H   0  0  0  0  0  0  0  0  0  0  0  0
   -1.5762    1.3686    1.3327 H   0  0  0  0  0  0  0  0  0  0  0  0
   -3.1782    1.1524    2.0316 H   0  0  0  0  0  0  0  0  0  0  0  0
   -3.4106    0.0343    4.1751 H   0  0  0  0  0  0  0  0  0  0  0  0
   -2.4952   -0.1401    6.5214 H   0  0  0  0  0  0  0  0  0  0  0  0
   -0.1764    0.2974    6.9524 H   0  0  0  0  0  0  0  0  0  0  0  0
    1.3165    0.9231    5.0622 H   0  0  0  0  0  0  0  0  0  0  0  0
    0.4204    1.1080    2.7689 H   0  0  0  0  0  0  0  0  0  0  0  0
   -4.7600    0.0884    1.5761 H   0  0  0  0  0  0  0  0  0  0  0  0
   -5.4514   -0.6866   -1.2641 H   0  0  0  0  0  0  0  0  0  0  0  0
   -7.2151   -0.8129    1.2056 H   0  0  0  0  0  0  0  0  0  0  0  0
   -7.7331   -1.1979   -0.4327 H   0  0  0  0  0  0  0  0  0  0  0  0
   -5.5458   -2.8075    0.9619 H   0  0  0  0  0  0  0  0  0  0  0  0
   -7.6884   -3.3724    1.9164 H   0  0  0  0  0  0  0  0  0  0  0  0
   -8.5292   -2.9031    0.3297 H   0  0  0  0  0  0  0  0  0  0  0  0
   -7.5946   -4.4260    0.4348 H   0  0  0  0  0  0  0  0  0  0  0  0
   -6.4787   -4.2374   -1.1028 H   0  0  0  0  0  0  0  0  0  0  0  0
   -6.9239   -2.6781   -1.7945 H   0  0  0  0  0  0  0  0  0  0  0  0
   -5.1583   -3.0980   -1.4556 H   0  0  0  0  0  0  0  0  0  0  0  0
   -8.1071    0.4877   -1.3226 H   0  0  0  0  0  0  0  0  0  0  0  0
   -7.3819    3.3521   -1.1077 H   0  0  0  0  0  0  0  0  0  0  0  0
   -9.3368    3.7869   -2.4941 H   0  0  0  0  0  0  0  0  0  0  0  0
   -8.1399    2.7448   -3.2904 H   0  0  0  0  0  0  0  0  0  0  0  0
   -8.7622    0.3848   -3.6892 H   0  0  0  0  0  0  0  0  0  0  0  0
  -10.5848   -1.2324   -4.0997 H   0  0  0  0  0  0  0  0  0  0  0  0
  -12.8820   -0.6653   -3.3435 H   0  0  0  0  0  0  0  0  0  0  0  0
  -13.3379    1.4645   -2.2112 H   0  0  0  0  0  0  0  0  0  0  0  0
  -11.5666    3.0323   -1.8149 H   0  0  0  0  0  0  0  0  0  0  0  0
   -9.4870    4.8485    0.6051 H   0  0  0  0  0  0  0  0  0  0  0  0
  1  2  1  0
  2  3  1  0
  3  4  1  0
  3  5  1  0
  5  6  1  0
  6  7  1  0
  7  8  2  0
  7  9  1  0
  9 10  1  0
 10 11  1  0
 11 12  2  0
 12 13  1  0
 13 14  2  0
 14 15  1  0
 15 16  2  0
  9 17  1  0
 17 18  1  0
 18 19  2  0
 18 20  1  0
 20 21  1  0
 20 22  1  0
 22 23  1  0
 23 24  1  0
 24 25  1  0
 25 26  2  3
 26 27  1  0
 26 28  1  0
  5 29  1  0
 29 30  2  0
 29 31  1  0
 31 32  1  0
 32 33  1  0
 33 34  1  0
 34 35  2  0
 35 36  1  0
 36 37  2  0
 37 38  1  0
 38 39  2  0
 32 40  1  0
 40 41  2  0
 40 42  1  0
 42 43  1  0
 43 44  1  0
 44 45  1  0
 45 46  1  0
 45 47  1  0
 43 48  1  0
 48 49  2  0
 48 50  1  0
 50 51  1  0
 51 52  1  0
 52 53  1  0
 53 54  2  0
 54 55  1  0
 55 56  2  0
 56 57  1  0
 57 58  2  0
 51 59  1  0
 59 60  1  0
 59 61  2  0
 16 11  1  0
 39 34  1  0
 58 53  1  0
  1 62  1  0
  1 63  1  0
  1 64  1  0
  2 65  1  0
  2 66  1  0
  3 67  1  1
  4 68  1  0
  4 69  1  0
  4 70  1  0
  5 71  1  6
  6 72  1  0
  9 73  1  1
 10 74  1  0
 10 75  1  0
 12 76  1  0
 13 77  1  0
 14 78  1  0
 15 79  1  0
 16 80  1  0
 17 81  1  0
 20 82  1  6
 21 83  1  0
 21 84  1  0
 22 85  1  0
 22 86  1  0
 23 87  1  0
 23 88  1  0
 24 89  1  0
 24 90  1  0
 27 91  1  0
 27 92  1  0
 28 93  1  0
 28 94  1  0
 31 95  1  0
 32 96  1  1
 33 97  1  0
 33 98  1  0
 35 99  1  0
 36100  1  0
 37101  1  0
 38102  1  0
 39103  1  0
 42104  1  0
 43105  1  6
 44106  1  0
 44107  1  0
 45108  1  0
 46109  1  0
 46110  1  0
 46111  1  0
 47112  1  0
 47113  1  0
 47114  1  0
 50115  1  0
 51116  1  6
 52117  1  0
 52118  1  0
 54119  1  0
 55120  1  0
 56121  1  0
 57122  1  0
 58123  1  0
 60124  1  0
M  END
$$$$
[H]OC(=O)[C@@]([H])(N([H])C(=O)[C@@]([H])(N([H])C(=O)[C@@]1([H])N(C(=O)[C@@]([H])(N([H])C(=O)[C@@]([H])(N([H])[H])C([H])([H])c2c([H])c([H])c([H])c([H])c2[H])C([H])([H])c2c([H])c([H])c([H])c([H])c2[H])C([H])([H])C([H])([H])C1([H])[H])C([H])([H])c1c([H])c([H])c([H])c([H])c1[H])C([H])([H])c1c([H])c([H])c([H])c([H])c1[H]
     RDKit          3D

 97101  0  0  0  0  0  0  0  0999 V2000
    9.0246   -0.4822    1.2927 O   0  0  0  0  0  0  0  0  0  0  0  0
    7.6892   -0.5678    1.5610 C   0  0  0  0  0  0  0  0  0  0  0  0
    7.3562   -1.4943    2.3794 O   0  0  0  0  0  0  0  0  0  0  0  0
    6.6222    0.2892    1.0040 C   0  0  2  0  0  0  0  0  0  0  0  0
    6.7072    1.7197    1.4894 C   0  0  0  0  0  0  0  0  0  0  0  0
    7.9306    2.4421    1.1772 C   0  0  0  0  0  0  0  0  0  0  0  0
    8.9521    2.4191    2.1056 C   0  0  0  0  0  0  0  0  0  0  0  0
   10.1429    3.0716    1.8903 C   0  0  0  0  0  0  0  0  0  0  0  0
   10.3162    3.7689    0.7091 C   0  0  0  0  0  0  0  0  0  0  0  0
    9.3086    3.8039   -0.2299 C   0  0  0  0  0  0  0  0  0  0  0  0
    8.1321    3.1469    0.0064 C   0  0  0  0  0  0  0  0  0  0  0  0
    5.2886   -0.1420    1.3872 N   0  0  0  0  0  0  0  0  0  0  0  0
    4.2428   -0.3756    0.4648 C   0  0  0  0  0  0  0  0  0  0  0  0
    4.4907   -0.2018   -0.7523 O   0  0  0  0  0  0  0  0  0  0  0  0
    2.9036   -0.8026    0.9021 C   0  0  2  0  0  0  0  0  0  0  0  0
    2.8776   -2.1647    1.5772 C   0  0  0  0  0  0  0  0  0  0  0  0
    3.3239   -3.2679    0.7409 C   0  0  0  0  0  0  0  0  0  0  0  0
    2.4443   -3.9506   -0.0740 C   0  0  0  0  0  0  0  0  0  0  0  0
    2.8904   -4.9961   -0.8514 C   0  0  0  0  0  0  0  0  0  0  0  0
    4.2120   -5.3988   -0.8484 C   0  0  0  0  0  0  0  0  0  0  0  0
    5.0943   -4.7293   -0.0434 C   0  0  0  0  0  0  0  0  0  0  0  0
    4.6306   -3.6753    0.7364 C   0  0  0  0  0  0  0  0  0  0  0  0
    2.0330   -0.8472   -0.2825 N   0  0  0  0  0  0  0  0  0  0  0  0
    0.9094    0.0067   -0.3299 C   0  0  0  0  0  0  0  0  0  0  0  0
    0.6933    0.7829    0.6417 O   0  0  0  0  0  0  0  0  0  0  0  0
   -0.0316    0.0334   -1.4740 C   0  0  2  0  0  0  0  0  0  0  0  0
    0.6841    0.4119   -2.7749 C   0  0  0  0  0  0  0  0  0  0  0  0
    0.8208    1.8957   -2.5961 C   0  0  0  0  0  0  0  0  0  0  0  0
   -0.2720    2.3302   -1.6951 C   0  0  0  0  0  0  0  0  0  0  0  0
   -0.9801    1.0709   -1.2963 N   0  0  0  0  0  0  0  0  0  0  0  0
   -2.2796    1.0506   -0.8030 C   0  0  0  0  0  0  0  0  0  0  0  0
   -2.9097    2.1945   -0.9071 O   0  0  0  0  0  0  0  0  0  0  0  0
   -3.0414   -0.0087   -0.1981 C   0  0  2  0  0  0  0  0  0  0  0  0
   -2.7598   -1.4313   -0.4935 C   0  0  0  0  0  0  0  0  0  0  0  0
   -3.7525   -2.3131    0.2587 C   0  0  0  0  0  0  0  0  0  0  0  0
   -4.9356   -2.6523   -0.3296 C   0  0  0  0  0  0  0  0  0  0  0  0
   -5.8235   -3.4545    0.3516 C   0  0  0  0  0  0  0  0  0  0  0  0
   -5.5672   -3.9389    1.6214 C   0  0  0  0  0  0  0  0  0  0  0  0
   -4.3548   -3.5644    2.1690 C   0  0  0  0  0  0  0  0  0  0  0  0
   -3.4436   -2.7624    1.5147 C   0  0  0  0  0  0  0  0  0  0  0  0
   -4.4810    0.3062   -0.3762 N   0  0  0  0  0  0  0  0  0  0  0  0
   -5.1789    0.8366    0.7224 C   0  0  0  0  0  0  0  0  0  0  0  0
   -4.5883    1.0425    1.8377 O   0  0  0  0  0  0  0  0  0  0  0  0
   -6.6194    1.1628    0.5823 C   0  0  1  0  0  0  0  0  0  0  0  0
   -7.1647    1.8858    1.6972 N   0  0  0  0  0  0  0  0  0  0  0  0
   -6.8568    1.7733   -0.7574 C   0  0  0  0  0  0  0  0  0  0  0  0
   -8.2986    2.1316   -0.9266 C   0  0  0  0  0  0  0  0  0  0  0  0
   -9.2126    1.2145   -1.3817 C   0  0  0  0  0  0  0  0  0  0  0  0
  -10.5526    1.5664   -1.5491 C   0  0  0  0  0  0  0  0  0  0  0  0
  -10.9129    2.8596   -1.2413 C   0  0  0  0  0  0  0  0  0  0  0  0
   -9.9978    3.7875   -0.7830 C   0  0  0  0  0  0  0  0  0  0  0  0
   -8.6824    3.4119   -0.6272 C   0  0  0  0  0  0  0  0  0  0  0  0
    9.7666   -0.6939    1.9472 H   0  0  0  0  0  0  0  0  0  0  0  0
    6.6606    0.2259   -0.0985 H   0  0  0  0  0  0  0  0  0  0  0  0
    6.5841    1.6783    2.5910 H   0  0  0  0  0  0  0  0  0  0  0  0
    5.8018    2.2700    1.1060 H   0  0  0  0  0  0  0  0  0  0  0  0
    8.8322    1.8675    3.0542 H   0  0  0  0  0  0  0  0  0  0  0  0
   10.9311    3.0369    2.6384 H   0  0  0  0  0  0  0  0  0  0  0  0
   11.2394    4.2936    0.5061 H   0  0  0  0  0  0  0  0  0  0  0  0
    9.4368    4.3550   -1.1724 H   0  0  0  0  0  0  0  0  0  0  0  0
    7.3129    3.1461   -0.6983 H   0  0  0  0  0  0  0  0  0  0  0  0
    5.1084   -0.2829    2.3945 H   0  0  0  0  0  0  0  0  0  0  0  0
    2.5128   -0.0777    1.6412 H   0  0  0  0  0  0  0  0  0  0  0  0
    1.8014   -2.3346    1.8459 H   0  0  0  0  0  0  0  0  0  0  0  0
    3.4208   -2.0815    2.5435 H   0  0  0  0  0  0  0  0  0  0  0  0
    1.3905   -3.6938   -0.1308 H   0  0  0  0  0  0  0  0  0  0  0  0
    2.2375   -5.5673   -1.5126 H   0  0  0  0  0  0  0  0  0  0  0  0
    4.5765   -6.2195   -1.4543 H   0  0  0  0  0  0  0  0  0  0  0  0
    6.1404   -5.0194   -0.0152 H   0  0  0  0  0  0  0  0  0  0  0  0
    5.3880   -3.2049    1.3470 H   0  0  0  0  0  0  0  0  0  0  0  0
    2.2001   -1.4747   -1.0893 H   0  0  0  0  0  0  0  0  0  0  0  0
   -0.4563   -0.9941   -1.6238 H   0  0  0  0  0  0  0  0  0  0  0  0
    1.6192   -0.1243   -2.9225 H   0  0  0  0  0  0  0  0  0  0  0  0
   -0.0894    0.2208   -3.5745 H   0  0  0  0  0  0  0  0  0  0  0  0
    1.8363    2.0387   -2.1160 H   0  0  0  0  0  0  0  0  0  0  0  0
    0.8252    2.4129   -3.5828 H   0  0  0  0  0  0  0  0  0  0  0  0
    0.1291    2.7368   -0.7527 H   0  0  0  0  0  0  0  0  0  0  0  0
   -1.0060    3.0142   -2.1671 H   0  0  0  0  0  0  0  0  0  0  0  0
   -2.8943    0.0584    0.9622 H   0  0  0  0  0  0  0  0  0  0  0  0
   -1.7556   -1.6725   -0.0378 H   0  0  0  0  0  0  0  0  0  0  0  0
   -2.7733   -1.7579   -1.5199 H   0  0  0  0  0  0  0  0  0  0  0  0
   -5.2084   -2.3028   -1.3373 H   0  0  0  0  0  0  0  0  0  0  0  0
   -6.7638   -3.7248   -0.1144 H   0  0  0  0  0  0  0  0  0  0  0  0
   -6.2645   -4.5693    2.1585 H   0  0  0  0  0  0  0  0  0  0  0  0
   -4.0847   -3.9130    3.1762 H   0  0  0  0  0  0  0  0  0  0  0  0
   -2.4872   -2.4931    1.9998 H   0  0  0  0  0  0  0  0  0  0  0  0
   -4.8906    0.1173   -1.2904 H   0  0  0  0  0  0  0  0  0  0  0  0
   -7.1314    0.1384    0.5948 H   0  0  0  0  0  0  0  0  0  0  0  0
   -6.5413    1.6802    2.5311 H   0  0  0  0  0  0  0  0  0  0  0  0
   -7.1384    2.9089    1.5918 H   0  0  0  0  0  0  0  0  0  0  0  0
   -6.1736    2.5975   -0.9484 H   0  0  0  0  0  0  0  0  0  0  0  0
   -6.6723    0.9988   -1.5631 H   0  0  0  0  0  0  0  0  0  0  0  0
   -8.9602    0.1956   -1.6312 H   0  0  0  0  0  0  0  0  0  0  0  0
  -11.3078    0.8854   -1.9010 H   0  0  0  0  0  0  0  0  0  0  0  0
  -11.9477    3.1578   -1.3623 H   0  0  0  0  0  0  0  0  0  0  0  0
  -10.2635    4.8032   -0.5414 H   0  0  0  0  0  0  0  0  0  0  0  0
   -7.9653    4.1685   -0.2647 H   0  0  0  0  0  0  0  0  0  0  0  0
  1  2  1  0
  2  3  2  0
  2  4  1  0
  4  5  1  0
  5  6  1  0
  6  7  2  0
  7  8  1  0
  8  9  2  0
  9 10  1  0
 10 11  2  0
  4 12  1  0
 12 13  1  0
 13 14  2  0
 13 15  1  0
 15 16  1  0
 16 17  1  0
 17 18  2  0
 18 19  1  0
 19 20  2  0
 20 21  1  0
 21 22  2  0
 15 23  1  0
 23 24  1  0
 24 25  2  0
 24 26  1  0
 26 27  1  0
 27 28  1  0
 28 29  1  0
 29 30  1  0
 30 31  1  0
 31 32  2  0
 31 33  1  0
 33 34  1  0
 34 35  1  0
 35 36  2  0
 36 37  1  0
 37 38  2  0
 38 39  1  0
 39 40  2  0
 33 41  1  0
 41 42  1  0
 42 43  2  0
 42 44  1  0
 44 45  1  0
 44 46  1  0
 46 47  1  0
 47 48  2  0
 48 49  1  0
 49 50  2  0
 50 51  1  0
 51 52  2  0
 11  6  1  0
 22 17  1  0
 30 26  1  0
 40 35  1  0
 52 47  1  0
  1 53  1  0
  4 54  1  6
  5 55  1  0
  5 56  1  0
  7 57  1  0
  8 58  1  0
  9 59  1  0
 10 60  1  0
 11 61  1  0
 12 62  1  0
 15 63  1  1
 16 64  1  0
 16 65  1  0
 18 66  1  0
 19 67  1  0
 20 68  1  0
 21 69  1  0
 22 70  1  0
 23 71  1  0
 26 72  1  6
 27 73  1  0
 27 74  1  0
 28 75  1  0
 28 76  1  0
 29 77  1  0
 29 78  1  0
 33 79  1  1
 34 80  1  0
 34 81  1  0
 36 82  1  0
 37 83  1  0
 38 84  1  0
 39 85  1  0
 40 86  1  0
 41 87  1  0
 44 88  1  6
 45 89  1  0
 45 90  1  0
 46 91  1  0
 46 92  1  0
 48 93  1  0
 49 94  1  0
 50 95  1  0
 51 96  1  0
 52 97  1  0
M  END
$$$$
[H]N=C(N([H])[H])N([H])C([H])([H])C([H])([H])C([H])([H])[C@@]([H])(C(=O)N([H])[C@]([H])(C(=O)N([H])[C@]([H])(C(=O)N([H])[C@]([H])(C(=N[H])N([H])[H])C([H])([H])C([H])([H])C([H])([H])N([H])C(=N[H])N([H])[H])C([H])([H])c1c([H])c([H])c([H])c([H])c1[H])C([H])([H])c1c([H])c([H])c([H])c([H])c1[H])N([H])C(=O)[C@@]([H])(N([H])C(=O)OC(C([H])([H])[H])(C([H])([H])[H])C([H])([H])[H])C([H])([H])c1c([H])c([H])c([H])c([H])c1[H]
     RDKit          3D

126128  0  0  0  0  0  0  0  0999 V2000
   -7.2539    5.6488   -1.4627 C   0  0  0  0  0  0  0  0  0  0  0  0
   -7.1335    4.6476   -0.3077 C   0  0  0  0  0  0  0  0  0  0  0  0
   -6.0470    5.1336    0.6090 C   0  0  0  0  0  0  0  0  0  0  0  0
   -8.4622    4.6520    0.4103 C   0  0  0  0  0  0  0  0  0  0  0  0
   -6.8970    3.3868   -0.8756 O   0  0  0  0  0  0  0  0  0  0  0  0
   -6.7096    2.2330   -0.1786 C   0  0  0  0  0  0  0  0  0  0  0  0
   -6.7435    2.2877    1.0921 O   0  0  0  0  0  0  0  0  0  0  0  0
   -6.4711    0.9363   -0.7432 N   0  0  0  0  0  0  0  0  0  0  0  0
   -6.2751   -0.2230    0.0761 C   0  0  1  0  0  0  0  0  0  0  0  0
   -7.3521   -1.2863   -0.1115 C   0  0  0  0  0  0  0  0  0  0  0  0
   -8.6899   -0.7465    0.2289 C   0  0  0  0  0  0  0  0  0  0  0  0
   -9.4076   -0.1436   -0.8043 C   0  0  0  0  0  0  0  0  0  0  0  0
  -10.6565    0.3946   -0.6134 C   0  0  0  0  0  0  0  0  0  0  0  0
  -11.2064    0.3306    0.6441 C   0  0  0  0  0  0  0  0  0  0  0  0
  -10.4900   -0.2721    1.6780 C   0  0  0  0  0  0  0  0  0  0  0  0
   -9.2408   -0.8078    1.4752 C   0  0  0  0  0  0  0  0  0  0  0  0
   -4.9151   -0.7806   -0.2095 C   0  0  0  0  0  0  0  0  0  0  0  0
   -4.2779   -0.2517   -1.1552 O   0  0  0  0  0  0  0  0  0  0  0  0
   -4.3736   -1.8344    0.5400 N   0  0  0  0  0  0  0  0  0  0  0  0
   -3.0843   -2.3661    0.2921 C   0  0  1  0  0  0  0  0  0  0  0  0
   -2.9074   -2.8471   -1.1405 C   0  0  0  0  0  0  0  0  0  0  0  0
   -3.9317   -3.9148   -1.4012 C   0  0  0  0  0  0  0  0  0  0  0  0
   -3.8440   -4.4456   -2.8184 C   0  0  0  0  0  0  0  0  0  0  0  0
   -2.5607   -5.0189   -3.1156 N   0  0  0  0  0  0  0  0  0  0  0  0
   -2.0924   -6.2107   -2.5231 C   0  0  0  0  0  0  0  0  0  0  0  0
   -2.9870   -7.1410   -1.9343 N   0  0  0  0  0  0  0  0  0  0  0  0
   -0.8314   -6.5075   -2.4892 N   0  0  0  0  0  0  0  0  0  0  0  0
   -1.9790   -1.4246    0.5417 C   0  0  0  0  0  0  0  0  0  0  0  0
   -2.3298   -0.2359    0.8366 O   0  0  0  0  0  0  0  0  0  0  0  0
   -0.6048   -1.6779    0.4933 N   0  0  0  0  0  0  0  0  0  0  0  0
    0.3920   -0.6430    0.7355 C   0  0  1  0  0  0  0  0  0  0  0  0
    0.6221   -0.4645    2.2298 C   0  0  0  0  0  0  0  0  0  0  0  0
    1.0914   -1.6562    2.9182 C   0  0  0  0  0  0  0  0  0  0  0  0
    0.2700   -2.6170    3.4706 C   0  0  0  0  0  0  0  0  0  0  0  0
    0.7255   -3.7406    4.1230 C   0  0  0  0  0  0  0  0  0  0  0  0
    2.0859   -3.9181    4.2321 C   0  0  0  0  0  0  0  0  0  0  0  0
    2.9578   -2.9996    3.7045 C   0  0  0  0  0  0  0  0  0  0  0  0
    2.4480   -1.8945    3.0627 C   0  0  0  0  0  0  0  0  0  0  0  0
    1.6240   -0.8626   -0.0011 C   0  0  0  0  0  0  0  0  0  0  0  0
    1.7886   -1.9524   -0.6551 O   0  0  0  0  0  0  0  0  0  0  0  0
    2.6968    0.0468   -0.0648 N   0  0  0  0  0  0  0  0  0  0  0  0
    3.9478   -0.1456   -0.7661 C   0  0  1  0  0  0  0  0  0  0  0  0
    3.8217    0.4147   -2.2018 C   0  0  0  0  0  0  0  0  0  0  0  0
    3.4983    1.8257   -2.2470 C   0  0  0  0  0  0  0  0  0  0  0  0
    2.1902    2.2457   -2.2601 C   0  0  0  0  0  0  0  0  0  0  0  0
    1.8402    3.5833   -2.3042 C   0  0  0  0  0  0  0  0  0  0  0  0
    2.8397    4.5281   -2.3368 C   0  0  0  0  0  0  0  0  0  0  0  0
    4.1458    4.1243   -2.3239 C   0  0  0  0  0  0  0  0  0  0  0  0
    4.4774    2.7846   -2.2796 C   0  0  0  0  0  0  0  0  0  0  0  0
    5.0982    0.3836   -0.0533 C   0  0  0  0  0  0  0  0  0  0  0  0
    5.0072    1.0461    1.0314 O   0  0  0  0  0  0  0  0  0  0  0  0
    6.4095    0.1842   -0.5382 N   0  0  0  0  0  0  0  0  0  0  0  0
    7.5954    0.7503    0.2178 C   0  0  1  0  0  0  0  0  0  0  0  0
    8.2918   -0.3913    0.8419 C   0  0  0  0  0  0  0  0  0  0  0  0
    9.4197   -0.2809    1.7456 C   0  0  0  0  0  0  0  0  0  0  0  0
   10.6719    0.3914    1.4318 C   0  0  0  0  0  0  0  0  0  0  0  0
   10.6732    1.8125    1.3150 N   0  0  0  0  0  0  0  0  0  0  0  0
   11.8356    2.5274    0.9078 C   0  0  0  0  0  0  0  0  0  0  0  0
   12.8376    1.8751    0.1303 N   0  0  0  0  0  0  0  0  0  0  0  0
   11.9647    3.7544    1.2476 N   0  0  0  0  0  0  0  0  0  0  0  0
    8.3578    1.4174   -0.8866 C   0  0  0  0  0  0  0  0  0  0  0  0
    9.1487    0.6723   -1.7899 N   0  0  0  0  0  0  0  0  0  0  0  0
    8.2671    2.7026   -1.0644 N   0  0  0  0  0  0  0  0  0  0  0  0
   -6.2648    5.7303   -1.9879 H   0  0  0  0  0  0  0  0  0  0  0  0
   -8.0297    5.3442   -2.1853 H   0  0  0  0  0  0  0  0  0  0  0  0
   -7.4773    6.6461   -1.0596 H   0  0  0  0  0  0  0  0  0  0  0  0
   -5.0440    5.0856    0.1476 H   0  0  0  0  0  0  0  0  0  0  0  0
   -6.3075    6.2040    0.8450 H   0  0  0  0  0  0  0  0  0  0  0  0
   -6.1068    4.6093    1.5861 H   0  0  0  0  0  0  0  0  0  0  0  0
   -9.2993    4.9466   -0.2723 H   0  0  0  0  0  0  0  0  0  0  0  0
   -8.3819    5.3884    1.2521 H   0  0  0  0  0  0  0  0  0  0  0  0
   -8.7486    3.6612    0.8148 H   0  0  0  0  0  0  0  0  0  0  0  0
   -6.4474    0.8843   -1.7822 H   0  0  0  0  0  0  0  0  0  0  0  0
   -6.3559    0.1032    1.1347 H   0  0  0  0  0  0  0  0  0  0  0  0
   -7.1328   -2.0790    0.6329 H   0  0  0  0  0  0  0  0  0  0  0  0
   -7.3023   -1.7450   -1.1060 H   0  0  0  0  0  0  0  0  0  0  0  0
   -8.9782   -0.0908   -1.7930 H   0  0  0  0  0  0  0  0  0  0  0  0
  -11.1640    0.8482   -1.4511 H   0  0  0  0  0  0  0  0  0  0  0  0
  -12.1965    0.7507    0.8217 H   0  0  0  0  0  0  0  0  0  0  0  0
  -10.9945   -0.2809    2.6391 H   0  0  0  0  0  0  0  0  0  0  0  0
   -8.7056   -1.2664    2.2770 H   0  0  0  0  0  0  0  0  0  0  0  0
   -4.9711   -2.2416    1.3263 H   0  0  0  0  0  0  0  0  0  0  0  0
   -2.8942   -3.2662    0.9311 H   0  0  0  0  0  0  0  0  0  0  0  0
   -2.8411   -2.0671   -1.8838 H   0  0  0  0  0  0  0  0  0  0  0  0
   -1.9052   -3.3761   -1.1689 H   0  0  0  0  0  0  0  0  0  0  0  0
   -3.7721   -4.7988   -0.7412 H   0  0  0  0  0  0  0  0  0  0  0  0
   -4.9774   -3.5804   -1.2445 H   0  0  0  0  0  0  0  0  0  0  0  0
   -4.6286   -5.2509   -2.8783 H   0  0  0  0  0  0  0  0  0  0  0  0
   -4.1281   -3.6695   -3.5323 H   0  0  0  0  0  0  0  0  0  0  0  0
   -1.9557   -4.5051   -3.8121 H   0  0  0  0  0  0  0  0  0  0  0  0
   -2.8934   -7.4846   -0.9424 H   0  0  0  0  0  0  0  0  0  0  0  0
   -3.7972   -7.5405   -2.4573 H   0  0  0  0  0  0  0  0  0  0  0  0
   -0.1556   -5.8430   -2.9130 H   0  0  0  0  0  0  0  0  0  0  0  0
   -0.2776   -2.6441    0.2768 H   0  0  0  0  0  0  0  0  0  0  0  0
   -0.0829    0.3078    0.4433 H   0  0  0  0  0  0  0  0  0  0  0  0
   -0.2917   -0.0519    2.6542 H   0  0  0  0  0  0  0  0  0  0  0  0
    1.4053    0.3193    2.3126 H   0  0  0  0  0  0  0  0  0  0  0  0
   -0.7906   -2.4674    3.3793 H   0  0  0  0  0  0  0  0  0  0  0  0
    0.0198   -4.4439    4.5287 H   0  0  0  0  0  0  0  0  0  0  0  0
    2.5122   -4.7972    4.7417 H   0  0  0  0  0  0  0  0  0  0  0  0
    4.0356   -3.1742    3.8107 H   0  0  0  0  0  0  0  0  0  0  0  0
    3.1689   -1.1941    2.6615 H   0  0  0  0  0  0  0  0  0  0  0  0
    2.5876    0.9501    0.4367 H   0  0  0  0  0  0  0  0  0  0  0  0
    4.0619   -1.2311   -0.9356 H   0  0  0  0  0  0  0  0  0  0  0  0
    3.0736   -0.2490   -2.7080 H   0  0  0  0  0  0  0  0  0  0  0  0
    4.8000    0.1392   -2.6812 H   0  0  0  0  0  0  0  0  0  0  0  0
    1.4121    1.5101   -2.2357 H   0  0  0  0  0  0  0  0  0  0  0  0
    0.8200    3.9085   -2.3144 H   0  0  0  0  0  0  0  0  0  0  0  0
    2.6160    5.6012   -2.3728 H   0  0  0  0  0  0  0  0  0  0  0  0
    4.9195    4.8980   -2.3496 H   0  0  0  0  0  0  0  0  0  0  0  0
    5.5046    2.5155   -2.2732 H   0  0  0  0  0  0  0  0  0  0  0  0
    6.5811   -0.3450   -1.4016 H   0  0  0  0  0  0  0  0  0  0  0  0
    7.1846    1.4443    0.9220 H   0  0  0  0  0  0  0  0  0  0  0  0
    7.4738   -1.0241    1.3861 H   0  0  0  0  0  0  0  0  0  0  0  0
    8.5810   -1.1229   -0.0307 H   0  0  0  0  0  0  0  0  0  0  0  0
    8.9950    0.2832    2.6862 H   0  0  0  0  0  0  0  0  0  0  0  0
    9.6357   -1.3316    2.2100 H   0  0  0  0  0  0  0  0  0  0  0  0
   11.4160    0.1509    2.2694 H   0  0  0  0  0  0  0  0  0  0  0  0
   11.1613   -0.0534    0.4985 H   0  0  0  0  0  0  0  0  0  0  0  0
    9.8204    2.3571    1.5521 H   0  0  0  0  0  0  0  0  0  0  0  0
   13.0997    0.8954    0.3509 H   0  0  0  0  0  0  0  0  0  0  0  0
   13.2968    2.3739   -0.6415 H   0  0  0  0  0  0  0  0  0  0  0  0
   11.2479    4.2263    1.8048 H   0  0  0  0  0  0  0  0  0  0  0  0
    9.0299   -0.3520   -1.8814 H   0  0  0  0  0  0  0  0  0  0  0  0
    9.8686    1.1320   -2.3858 H   0  0  0  0  0  0  0  0  0  0  0  0
    7.6842    3.3339   -0.4791 H   0  0  0  0  0  0  0  0  0  0  0  0
  1  2  1  0
  2  3  1  0
  2  4  1  0
  2  5  1  0
  5  6  1  0
  6  7  2  0
  6  8  1  0
  8  9  1  0
  9 10  1  0
 10 11  1  0
 11 12  2  0
 12 13  1  0
 13 14  2  0
 14 15  1  0
 15 16  2  0
  9 17  1  0
 17 18  2  0
 17 19  1  0
 19 20  1  0
 20 21  1  0
 21 22  1  0
 22 23  1  0
 23 24  1  0
 24 25  1  0
 25 26  1  0
 25 27  2  3
 20 28  1  0
 28 29  2  0
 28 30  1  0
 30 31  1  0
 31 32  1  0
 32 33  1  0
 33 34  2  0
 34 35  1  0
 35 36  2  0
 36 37  1  0
 37 38  2  0
 31 39  1  0
 39 40  2  0
 39 41  1  0
 41 42  1  0
 42 43  1  0
 43 44  1  0
 44 45  2  0
 45 46  1  0
 46 47  2  0
 47 48  1  0
 48 49  2  0
 42 50  1  0
 50 51  2  0
 50 52  1  0
 52 53  1  0
 53 54  1  0
 54 55  1  0
 55 56  1  0
 56 57  1  0
 57 58  1  0
 58 59  1  0
 58 60  2  3
 53 61  1  0
 61 62  1  0
 61 63  2  3
 16 11  1  0
 38 33  1  0
 49 44  1  0
  1 64  1  0
  1 65  1  0
  1 66  1  0
  3 67  1  0
  3 68  1  0
  3 69  1  0
  4 70  1  0
  4 71  1  0
  4 72  1  0
  8 73  1  0
  9 74  1  1
 10 75  1  0
 10 76  1  0
 12 77  1  0
 13 78  1  0
 14 79  1  0
 15 80  1  0
 16 81  1  0
 19 82  1  0
 20 83  1  1
 21 84  1  0
 21 85  1  0
 22 86  1  0
 22 87  1  0
 23 88  1  0
 23 89  1  0
 24 90  1  0
 26 91  1  0
 26 92  1  0
 27 93  1  0
 30 94  1  0
 31 95  1  6
 32 96  1  0
 32 97  1  0
 34 98  1  0
 35 99  1  0
 36100  1  0
 37101  1  0
 38102  1  0
 41103  1  0
 42104  1  6
 43105  1  0
 43106  1  0
 45107  1  0
 46108  1  0
 47109  1  0
 48110  1  0
 49111  1  0
 52112  1  0
 53113  1  1
 54114  1  0
 54115  1  0
 55116  1  0
 55117  1  0
 56118  1  0
 56119  1  0
 57120  1  0
 59121  1  0
 59122  1  0
 60123  1  0
 62124  1  0
 62125  1  0
 63126  1  0
M  END
$$$$
[H]c1nc(N2C([H])([H])C([H])([H])N(c3nc(C(=O)N([H])c4c([H])c([H])c(C(F)(F)F)c([H])c4[H])nc(N4C([H])([H])C([H])([H])N(C([H])([H])[H])C([H])([H])C4([H])[H])c3[H])C([H])([H])C2([H])[H])c2c([H])c([H])n([H])c2n1
     RDKit          3D

 70 75  0  0  0  0  0  0  0  0999 V2000
   -1.4157    7.2678   -0.0720 C   0  0  0  0  0  0  0  0  0  0  0  0
   -1.1830    5.8215   -0.1097 N   0  0  0  0  0  0  0  0  0  0  0  0
   -2.1987    5.2554    0.7449 C   0  0  0  0  0  0  0  0  0  0  0  0
   -2.3696    3.7919    0.6256 C   0  0  0  0  0  0  0  0  0  0  0  0
   -1.6866    3.1706   -0.5002 N   0  0  0  0  0  0  0  0  0  0  0  0
   -1.4209    3.8994   -1.6734 C   0  0  0  0  0  0  0  0  0  0  0  0
   -1.3125    5.3962   -1.4769 C   0  0  0  0  0  0  0  0  0  0  0  0
   -1.3103    1.7723   -0.3373 C   0  0  0  0  0  0  0  0  0  0  0  0
   -0.0271    1.4325   -0.0480 C   0  0  0  0  0  0  0  0  0  0  0  0
    0.2975    0.0875    0.1781 C   0  0  0  0  0  0  0  0  0  0  0  0
   -0.6841   -0.8260    0.0998 N   0  0  0  0  0  0  0  0  0  0  0  0
   -1.9360   -0.5008   -0.1871 C   0  0  0  0  0  0  0  0  0  0  0  0
   -2.2303    0.8231   -0.4060 N   0  0  0  0  0  0  0  0  0  0  0  0
   -3.0583   -1.4166   -0.2195 C   0  0  0  0  0  0  0  0  0  0  0  0
   -4.0784   -1.0387   -0.8492 O   0  0  0  0  0  0  0  0  0  0  0  0
   -3.0566   -2.7006    0.4340 N   0  0  0  0  0  0  0  0  0  0  0  0
   -4.2690   -3.4250    0.3309 C   0  0  0  0  0  0  0  0  0  0  0  0
   -5.4746   -2.7648    0.4011 C   0  0  0  0  0  0  0  0  0  0  0  0
   -6.6260   -3.5034    0.1960 C   0  0  0  0  0  0  0  0  0  0  0  0
   -6.5622   -4.8555   -0.0696 C   0  0  0  0  0  0  0  0  0  0  0  0
   -5.3450   -5.4752   -0.1257 C   0  0  0  0  0  0  0  0  0  0  0  0
   -4.1860   -4.7786    0.0709 C   0  0  0  0  0  0  0  0  0  0  0  0
   -7.8046   -5.6028   -0.3165 C   0  0  0  0  0  0  0  0  0  0  0  0
   -8.8248   -4.7625   -0.7537 F   0  0  0  0  0  0  0  0  0  0  0  0
   -7.6139   -6.5829   -1.2760 F   0  0  0  0  0  0  0  0  0  0  0  0
   -8.2231   -6.1688    0.8814 F   0  0  0  0  0  0  0  0  0  0  0  0
    1.6462   -0.1989    0.4324 N   0  0  0  0  0  0  0  0  0  0  0  0
    2.0376   -1.1378    1.4672 C   0  0  0  0  0  0  0  0  0  0  0  0
    3.3635   -1.7513    1.0717 C   0  0  0  0  0  0  0  0  0  0  0  0
    4.3466   -0.6942    0.8215 N   0  0  0  0  0  0  0  0  0  0  0  0
    3.9288    0.6276    0.4017 C   0  0  0  0  0  0  0  0  0  0  0  0
    2.6571    0.4549   -0.4073 C   0  0  0  0  0  0  0  0  0  0  0  0
    5.7177   -1.0426    0.9741 C   0  0  0  0  0  0  0  0  0  0  0  0
    6.3267   -1.0768    2.1743 N   0  0  0  0  0  0  0  0  0  0  0  0
    7.6181   -1.4282    2.2597 C   0  0  0  0  0  0  0  0  0  0  0  0
    8.3683   -1.7518    1.1923 N   0  0  0  0  0  0  0  0  0  0  0  0
    7.7875   -1.7251   -0.0422 C   0  0  0  0  0  0  0  0  0  0  0  0
    8.2892   -1.9692   -1.2795 N   0  0  0  0  0  0  0  0  0  0  0  0
    7.3025   -1.7743   -2.2008 C   0  0  0  0  0  0  0  0  0  0  0  0
    6.1903   -1.4077   -1.4831 C   0  0  0  0  0  0  0  0  0  0  0  0
    6.4668   -1.3708   -0.1374 C   0  0  0  0  0  0  0  0  0  0  0  0
   -2.0079    7.6325   -0.9233 H   0  0  0  0  0  0  0  0  0  0  0  0
   -0.4526    7.7913   -0.0992 H   0  0  0  0  0  0  0  0  0  0  0  0
   -1.9958    7.5606    0.8438 H   0  0  0  0  0  0  0  0  0  0  0  0
   -3.1735    5.7755    0.6653 H   0  0  0  0  0  0  0  0  0  0  0  0
   -1.8595    5.4832    1.8022 H   0  0  0  0  0  0  0  0  0  0  0  0
   -3.4287    3.4543    0.5510 H   0  0  0  0  0  0  0  0  0  0  0  0
   -1.9951    3.2503    1.5517 H   0  0  0  0  0  0  0  0  0  0  0  0
   -0.5160    3.4853   -2.1906 H   0  0  0  0  0  0  0  0  0  0  0  0
   -2.2804    3.7533   -2.3978 H   0  0  0  0  0  0  0  0  0  0  0  0
   -0.4049    5.7349   -2.0074 H   0  0  0  0  0  0  0  0  0  0  0  0
   -2.1736    5.9326   -1.9490 H   0  0  0  0  0  0  0  0  0  0  0  0
    0.7248    2.1705    0.0167 H   0  0  0  0  0  0  0  0  0  0  0  0
   -2.2524   -3.0764    0.9281 H   0  0  0  0  0  0  0  0  0  0  0  0
   -5.5622   -1.7350    0.6389 H   0  0  0  0  0  0  0  0  0  0  0  0
   -7.5766   -3.0092    0.2351 H   0  0  0  0  0  0  0  0  0  0  0  0
   -5.3531   -6.5396   -0.3310 H   0  0  0  0  0  0  0  0  0  0  0  0
   -3.2156   -5.2565    0.0285 H   0  0  0  0  0  0  0  0  0  0  0  0
    2.1485   -0.6046    2.4419 H   0  0  0  0  0  0  0  0  0  0  0  0
    1.2992   -1.9295    1.6242 H   0  0  0  0  0  0  0  0  0  0  0  0
    3.7319   -2.2864    1.9947 H   0  0  0  0  0  0  0  0  0  0  0  0
    3.2981   -2.4427    0.2318 H   0  0  0  0  0  0  0  0  0  0  0  0
    3.7313    1.2754    1.2542 H   0  0  0  0  0  0  0  0  0  0  0  0
    4.7202    1.0538   -0.2595 H   0  0  0  0  0  0  0  0  0  0  0  0
    2.9157   -0.2375   -1.2420 H   0  0  0  0  0  0  0  0  0  0  0  0
    2.3058    1.3897   -0.8470 H   0  0  0  0  0  0  0  0  0  0  0  0
    8.0715   -1.4246    3.2622 H   0  0  0  0  0  0  0  0  0  0  0  0
    9.2757   -2.2472   -1.4576 H   0  0  0  0  0  0  0  0  0  0  0  0
    7.3719   -1.8712   -3.2739 H   0  0  0  0  0  0  0  0  0  0  0  0
    5.2063   -1.1529   -1.8784 H   0  0  0  0  0  0  0  0  0  0  0  0
  1  2  1  0
  2  3  1  0
  3  4  1  0
  4  5  1  0
  5  6  1  0
  6  7  1  0
  5  8  1  0
  8  9  2  0
  9 10  1  0
 10 11  2  0
 11 12  1  0
 12 13  2  0
 12 14  1  0
 14 15  2  0
 14 16  1  0
 16 17  1  0
 17 18  2  0
 18 19  1  0
 19 20  2  0
 20 21  1  0
 21 22  2  0
 20 23  1  0
 23 24  1  0
 23 25  1  0
 23 26  1  0
 10 27  1  0
 27 28  1  0
 28 29  1  0
 29 30  1  0
 30 31  1  0
 31 32  1  0
 30 33  1  0
 33 34  2  0
 34 35  1  0
 35 36  2  0
 36 37  1  0
 37 38  1  0
 38 39  1  0
 39 40  2  0
 40 41  1  0
  7  2  1  0
 13  8  1  0
 22 17  1  0
 32 27  1  0
 41 33  1  0
 41 37  2  0
  1 42  1  0
  1 43  1  0
  1 44  1  0
  3 45  1  0
  3 46  1  0
  4 47  1  0
  4 48  1  0
  6 49  1  0
  6 50  1  0
  7 51  1  0
  7 52  1  0
  9 53  1  0
 16 54  1  0
 18 55  1  0
 19 56  1  0
 21 57  1  0
 22 58  1  0
 28 59  1  0
 28 60  1  0
 29 61  1  0
 29 62  1  0
 31 63  1  0
 31 64  1  0
 32 65  1  0
 32 66  1  0
 35 67  1  0
 38 68  1  0
 39 69  1  0
 40 70  1  0
M  END
$$$$
[H]OC([H])([H])[C@]1([H])O[C@@]([H])(n2c([H])nc3c(N([H])[H])nc([H])nc32)[C@]([H])(O[H])[C@@]([H])(O[H])[C@]1([H])O[H]
     RDKit          3D

 36 38  0  0  0  0  0  0  0  0999 V2000
    5.5258    1.0419    0.5329 N   0  0  0  0  0  0  0  0  0  0  0  0
    4.5013    0.1887    0.0616 C   0  0  0  0  0  0  0  0  0  0  0  0
    4.7820   -1.0413   -0.3625 N   0  0  0  0  0  0  0  0  0  0  0  0
    3.8548   -1.8829   -0.8153 C   0  0  0  0  0  0  0  0  0  0  0  0
    2.5806   -1.4543   -0.8384 N   0  0  0  0  0  0  0  0  0  0  0  0
    2.2206   -0.2243   -0.4257 C   0  0  0  0  0  0  0  0  0  0  0  0
    1.0174    0.3895   -0.3685 N   0  0  0  0  0  0  0  0  0  0  0  0
    1.2445    1.6106    0.1260 C   0  0  0  0  0  0  0  0  0  0  0  0
    2.5657    1.7607    0.3746 N   0  0  0  0  0  0  0  0  0  0  0  0
    3.2041    0.6274    0.0390 C   0  0  0  0  0  0  0  0  0  0  0  0
   -0.2605   -0.2122   -0.7816 C   0  0  2  0  0  0  0  0  0  0  0  0
   -1.1178    0.7645   -1.0739 O   0  0  0  0  0  0  0  0  0  0  0  0
   -2.1592    1.0541   -0.2802 C   0  0  1  0  0  0  0  0  0  0  0  0
   -3.4430    0.8555   -1.0594 C   0  0  0  0  0  0  0  0  0  0  0  0
   -4.5837    1.1313   -0.3251 O   0  0  0  0  0  0  0  0  0  0  0  0
   -2.2511    0.3438    1.0205 C   0  0  1  0  0  0  0  0  0  0  0  0
   -3.4311    0.5863    1.6754 O   0  0  0  0  0  0  0  0  0  0  0  0
   -2.0404   -1.1418    0.7214 C   0  0  2  0  0  0  0  0  0  0  0  0
   -2.2068   -1.9085    1.8678 O   0  0  0  0  0  0  0  0  0  0  0  0
   -0.6241   -1.2284    0.2219 C   0  0  1  0  0  0  0  0  0  0  0  0
   -0.4419   -2.5470   -0.2538 O   0  0  0  0  0  0  0  0  0  0  0  0
    5.4618    2.0773    0.4507 H   0  0  0  0  0  0  0  0  0  0  0  0
    6.3867    0.6613    0.9821 H   0  0  0  0  0  0  0  0  0  0  0  0
    4.1519   -2.8815   -1.1495 H   0  0  0  0  0  0  0  0  0  0  0  0
    0.4570    2.3457    0.2894 H   0  0  0  0  0  0  0  0  0  0  0  0
    0.0028   -0.7603   -1.7371 H   0  0  0  0  0  0  0  0  0  0  0  0
   -2.1280    2.1596   -0.0469 H   0  0  0  0  0  0  0  0  0  0  0  0
   -3.5468   -0.1995   -1.4188 H   0  0  0  0  0  0  0  0  0  0  0  0
   -3.4778    1.5518   -1.9474 H   0  0  0  0  0  0  0  0  0  0  0  0
   -4.5788    2.0673    0.0262 H   0  0  0  0  0  0  0  0  0  0  0  0
   -1.3548    0.6636    1.6313 H   0  0  0  0  0  0  0  0  0  0  0  0
   -3.3162    1.4248    2.2161 H   0  0  0  0  0  0  0  0  0  0  0  0
   -2.7053   -1.4869   -0.0836 H   0  0  0  0  0  0  0  0  0  0  0  0
   -3.0719   -2.3833    1.7773 H   0  0  0  0  0  0  0  0  0  0  0  0
    0.0313   -1.1787    1.1406 H   0  0  0  0  0  0  0  0  0  0  0  0
   -1.2490   -2.7745   -0.7872 H   0  0  0  0  0  0  0  0  0  0  0  0
  1  2  1  0
  2  3  2  0
  3  4  1  0
  4  5  2  0
  5  6  1  0
  6  7  1  0
  7  8  1  0
  8  9  2  0
  9 10  1  0
  7 11  1  0
 11 12  1  0
 12 13  1  0
 13 14  1  0
 14 15  1  0
 13 16  1  0
 16 17  1  0
 16 18  1  0
 18 19  1  0
 18 20  1  0
 20 21  1  0
 10  2  1  0
 20 11  1  0
 10  6  2  0
  1 22  1  0
  1 23  1  0
  4 24  1  0
  8 25  1  0
 11 26  1  6
 13 27  1  1
 14 28  1  0
 14 29  1  0
 15 30  1  0
 16 31  1  1
 17 32  1  0
 18 33  1  6
 19 34  1  0
 20 35  1  1
 21 36  1  0
M  END
$$$$
[H]c1c([H])c([C@@]2([H])C([H])([H])N(C(=O)c3c([H])c(OC([H])([H])[H])c(OC([H])([H])[H])c(OC([H])([H])[H])c3[H])[C@@]([H])(c3c([H])c([H])c(C(F)(F)F)c([H])c3[H])C2([H])[H])c([H])c(F)c1F
     RDKit          3D

 61 64  0  0  0  0  0  0  0  0999 V2000
    4.5608    1.6410    3.3879 C   0  0  0  0  0  0  0  0  0  0  0  0
    4.0495    0.8046    2.4572 O   0  0  0  0  0  0  0  0  0  0  0  0
    3.5516    0.0654    1.6129 C   0  0  0  0  0  0  0  0  0  0  0  0
    2.2584    0.1025    1.0391 C   0  0  0  0  0  0  0  0  0  0  0  0
    1.8140   -0.7640    0.1091 C   0  0  0  0  0  0  0  0  0  0  0  0
    2.6502   -1.7697   -0.3017 C   0  0  0  0  0  0  0  0  0  0  0  0
    3.9870   -1.9704    0.1717 C   0  0  0  0  0  0  0  0  0  0  0  0
    4.7532   -2.8273   -0.1233 O   0  0  0  0  0  0  0  0  0  0  0  0
    5.6075   -3.8596   -0.5065 C   0  0  0  0  0  0  0  0  0  0  0  0
    4.3656   -0.9934    1.1244 C   0  0  0  0  0  0  0  0  0  0  0  0
    5.7095   -1.0202    1.6350 O   0  0  0  0  0  0  0  0  0  0  0  0
    6.5559   -0.1067    0.7864 C   0  0  0  0  0  0  0  0  0  0  0  0
    0.5496   -0.6830   -0.6205 C   0  0  0  0  0  0  0  0  0  0  0  0
    0.3433   -1.6041   -1.5232 O   0  0  0  0  0  0  0  0  0  0  0  0
   -0.5073    0.2257   -0.5273 N   0  0  0  0  0  0  0  0  0  0  0  0
   -0.6570    1.4283    0.2458 C   0  0  0  0  0  0  0  0  0  0  0  0
   -1.5425    2.2797   -0.6830 C   0  0  1  0  0  0  0  0  0  0  0  0
   -2.5489    1.2738   -1.1426 C   0  0  0  0  0  0  0  0  0  0  0  0
   -1.7195    0.0232   -1.2951 C   0  0  2  0  0  0  0  0  0  0  0  0
   -2.4880   -1.1601   -1.1575 C   0  0  0  0  0  0  0  0  0  0  0  0
   -3.6999   -1.1382   -2.0669 C   0  0  0  0  0  0  0  0  0  0  0  0
   -4.3594   -2.2885   -1.9364 C   0  0  0  0  0  0  0  0  0  0  0  0
   -4.3506   -3.3872   -1.3318 C   0  0  0  0  0  0  0  0  0  0  0  0
   -3.1300   -3.4194   -0.4148 C   0  0  0  0  0  0  0  0  0  0  0  0
   -2.3567   -2.2970   -0.4459 C   0  0  0  0  0  0  0  0  0  0  0  0
   -5.1657   -4.5768   -1.2829 C   0  0  0  0  0  0  0  0  0  0  0  0
   -4.4829   -5.6110   -0.6435 F   0  0  0  0  0  0  0  0  0  0  0  0
   -6.4056   -4.3859   -0.6779 F   0  0  0  0  0  0  0  0  0  0  0  0
   -5.3827   -5.0420   -2.5833 F   0  0  0  0  0  0  0  0  0  0  0  0
   -2.2124    3.3939    0.0481 C   0  0  0  0  0  0  0  0  0  0  0  0
   -1.6490    4.1234    1.0462 C   0  0  0  0  0  0  0  0  0  0  0  0
   -2.4603    5.1243    1.7034 C   0  0  0  0  0  0  0  0  0  0  0  0
   -3.6839    5.2942    1.3125 C   0  0  0  0  0  0  0  0  0  0  0  0
   -4.5048    6.2714    1.9425 F   0  0  0  0  0  0  0  0  0  0  0  0
   -4.3282    4.6083    0.3283 C   0  0  0  0  0  0  0  0  0  0  0  0
   -5.5967    4.8665   -0.0144 F   0  0  0  0  0  0  0  0  0  0  0  0
   -3.5418    3.6289   -0.3097 C   0  0  0  0  0  0  0  0  0  0  0  0
    4.5464    1.0099    4.3748 H   0  0  0  0  0  0  0  0  0  0  0  0
    4.1262    2.5894    3.6235 H   0  0  0  0  0  0  0  0  0  0  0  0
    5.7195    1.7356    3.2703 H   0  0  0  0  0  0  0  0  0  0  0  0
    1.5831    0.8536    1.4377 H   0  0  0  0  0  0  0  0  0  0  0  0
    2.3576   -2.5114   -1.0147 H   0  0  0  0  0  0  0  0  0  0  0  0
    5.9586   -4.4049    0.4638 H   0  0  0  0  0  0  0  0  0  0  0  0
    6.4842   -3.5881   -1.0538 H   0  0  0  0  0  0  0  0  0  0  0  0
    4.9577   -4.6558   -0.9563 H   0  0  0  0  0  0  0  0  0  0  0  0
    6.5415    0.8882    1.2597 H   0  0  0  0  0  0  0  0  0  0  0  0
    7.5733   -0.4652    0.7558 H   0  0  0  0  0  0  0  0  0  0  0  0
    6.0690   -0.0052   -0.2256 H   0  0  0  0  0  0  0  0  0  0  0  0
   -1.1587    1.3006    1.2149 H   0  0  0  0  0  0  0  0  0  0  0  0
    0.2828    2.0278    0.3568 H   0  0  0  0  0  0  0  0  0  0  0  0
   -0.9332    2.6109   -1.5133 H   0  0  0  0  0  0  0  0  0  0  0  0
   -3.0477    1.5543   -2.0860 H   0  0  0  0  0  0  0  0  0  0  0  0
   -3.2899    1.1789   -0.2970 H   0  0  0  0  0  0  0  0  0  0  0  0
   -1.3614    0.1253   -2.4026 H   0  0  0  0  0  0  0  0  0  0  0  0
   -3.8993   -0.3198   -2.6450 H   0  0  0  0  0  0  0  0  0  0  0  0
   -5.3645   -2.2315   -2.6643 H   0  0  0  0  0  0  0  0  0  0  0  0
   -3.0298   -4.2994    0.1255 H   0  0  0  0  0  0  0  0  0  0  0  0
   -1.4887   -2.3767    0.2780 H   0  0  0  0  0  0  0  0  0  0  0  0
   -0.6457    3.9737    1.3519 H   0  0  0  0  0  0  0  0  0  0  0  0
   -1.9561    5.6951    2.5067 H   0  0  0  0  0  0  0  0  0  0  0  0
   -4.0067    3.0643   -1.0907 H   0  0  0  0  0  0  0  0  0  0  0  0
  1  2  1  0
  2  3  1  0
  3  4  2  0
  4  5  1  0
  5  6  2  0
  6  7  1  0
  7  8  1  0
  8  9  1  0
  7 10  2  0
 10 11  1  0
 11 12  1  0
  5 13  1  0
 13 14  2  0
 13 15  1  0
 15 16  1  0
 16 17  1  0
 17 18  1  0
 18 19  1  0
 19 20  1  0
 20 21  2  0
 21 22  1  0
 22 23  2  0
 23 24  1  0
 24 25  2  0
 23 26  1  0
 26 27  1  0
 26 28  1  0
 26 29  1  0
 17 30  1  0
 30 31  2  0
 31 32  1  0
 32 33  2  0
 33 34  1  0
 33 35  1  0
 35 36  1  0
 35 37  2  0
 10  3  1  0
 19 15  1  0
 25 20  1  0
 37 30  1  0
  1 38  1  0
  1 39  1  0
  1 40  1  0
  4 41  1  0
  6 42  1  0
  9 43  1  0
  9 44  1  0
  9 45  1  0
 12 46  1  0
 12 47  1  0
 12 48  1  0
 16 49  1  0
 16 50  1  0
 17 51  1  6
 18 52  1  0
 18 53  1  0
 19 54  1  6
 21 55  1  0
 22 56  1  0
 24 57  1  0
 25 58  1  0
 31 59  1  0
 32 60  1  0
 37 61  1  0
M  END
$$$$
[H]OC(=O)[C@@]([H])(N([H])C(=O)[C@@]([H])(N([H])C(=O)[C@@]([H])(N([H])C(=O)[C@@]([H])(N([H])[H])C([H])([H])c1c([H])c([H])c(O[H])c([H])c1[H])C([H])([H])c1c([H])c([H])c([H])c([H])c1[H])C([H])([H])C([H])(C([H])([H])[H])C([H])([H])[H])C([H])([H])c1c([H])c([H])c(O[H])c([H])c1[H]
     RDKit          3D

 84 86  0  0  0  0  0  0  0  0999 V2000
   -2.5744   -4.0012   -0.4006 C   0  0  0  0  0  0  0  0  0  0  0  0
   -2.0661   -3.5064    0.9294 C   0  0  0  0  0  0  0  0  0  0  0  0
   -0.8763   -4.2320    1.4330 C   0  0  0  0  0  0  0  0  0  0  0  0
   -2.1126   -2.0323    1.1149 C   0  0  0  0  0  0  0  0  0  0  0  0
   -1.4436   -1.1380    0.2209 C   0  0  2  0  0  0  0  0  0  0  0  0
   -0.1188   -1.0217   -0.0618 N   0  0  0  0  0  0  0  0  0  0  0  0
    0.6282    0.0071   -0.6921 C   0  0  0  0  0  0  0  0  0  0  0  0
    0.0311    1.1140   -1.0119 O   0  0  0  0  0  0  0  0  0  0  0  0
    2.0433   -0.1276   -0.9896 C   0  0  2  0  0  0  0  0  0  0  0  0
    2.4716   -1.1360   -2.0088 C   0  0  0  0  0  0  0  0  0  0  0  0
    2.2063   -2.5374   -1.7534 C   0  0  0  0  0  0  0  0  0  0  0  0
    3.0847   -3.2697   -0.9413 C   0  0  0  0  0  0  0  0  0  0  0  0
    2.9189   -4.6019   -0.7135 C   0  0  0  0  0  0  0  0  0  0  0  0
    1.8471   -5.2615   -1.3011 C   0  0  0  0  0  0  0  0  0  0  0  0
    0.9640   -4.5490   -2.1088 C   0  0  0  0  0  0  0  0  0  0  0  0
    1.1621   -3.2225   -2.3119 C   0  0  0  0  0  0  0  0  0  0  0  0
    2.9708    0.0799    0.0465 N   0  0  0  0  0  0  0  0  0  0  0  0
    3.7862    1.2407    0.2983 C   0  0  0  0  0  0  0  0  0  0  0  0
    3.6592    2.2380   -0.4174 O   0  0  0  0  0  0  0  0  0  0  0  0
    4.7285    1.0808    1.4375 C   0  0  1  0  0  0  0  0  0  0  0  0
    5.6016   -0.0578    1.0143 N   0  0  0  0  0  0  0  0  0  0  0  0
    5.5375    2.2273    1.8561 C   0  0  0  0  0  0  0  0  0  0  0  0
    6.4551    2.7258    0.8338 C   0  0  0  0  0  0  0  0  0  0  0  0
    7.6685    2.0900    0.6845 C   0  0  0  0  0  0  0  0  0  0  0  0
    8.6109    2.5223   -0.2023 C   0  0  0  0  0  0  0  0  0  0  0  0
    8.3038    3.6485   -0.9778 C   0  0  0  0  0  0  0  0  0  0  0  0
    9.2826    4.0659   -1.8754 O   0  0  0  0  0  0  0  0  0  0  0  0
    7.1144    4.2668   -0.8299 C   0  0  0  0  0  0  0  0  0  0  0  0
    6.1656    3.8246    0.0741 C   0  0  0  0  0  0  0  0  0  0  0  0
   -2.1311    0.3190    0.5249 C   0  0  0  0  0  0  0  0  0  0  0  0
   -1.2109    0.9586    1.0848 O   0  0  0  0  0  0  0  0  0  0  0  0
   -3.3589    0.3511    0.0881 N   0  0  0  0  0  0  0  0  0  0  0  0
   -4.5277    1.1005   -0.1043 C   0  0  1  0  0  0  0  0  0  0  0  0
   -5.5005    1.0198    1.0111 C   0  0  0  0  0  0  0  0  0  0  0  0
   -6.7520    1.7782    0.6688 C   0  0  0  0  0  0  0  0  0  0  0  0
   -6.9933    3.0801    0.9256 C   0  0  0  0  0  0  0  0  0  0  0  0
   -8.1650    3.7109    0.5083 C   0  0  0  0  0  0  0  0  0  0  0  0
   -9.1103    2.9768   -0.1913 C   0  0  0  0  0  0  0  0  0  0  0  0
  -10.2881    3.6260   -0.6160 O   0  0  0  0  0  0  0  0  0  0  0  0
   -8.8699    1.6471   -0.4505 C   0  0  0  0  0  0  0  0  0  0  0  0
   -7.7168    1.0354   -0.0360 C   0  0  0  0  0  0  0  0  0  0  0  0
   -4.1008    2.5447   -0.3469 C   0  0  0  0  0  0  0  0  0  0  0  0
   -4.8818    3.2771   -1.2214 O   0  0  0  0  0  0  0  0  0  0  0  0
   -3.1290    3.0007    0.2081 O   0  0  0  0  0  0  0  0  0  0  0  0
   -2.1952   -5.0503   -0.5206 H   0  0  0  0  0  0  0  0  0  0  0  0
   -2.2105   -3.4305   -1.2736 H   0  0  0  0  0  0  0  0  0  0  0  0
   -3.6747   -4.1002   -0.4027 H   0  0  0  0  0  0  0  0  0  0  0  0
   -2.9063   -3.8769    1.6529 H   0  0  0  0  0  0  0  0  0  0  0  0
   -1.0196   -5.3253    1.1255 H   0  0  0  0  0  0  0  0  0  0  0  0
   -0.8574   -4.1843    2.5467 H   0  0  0  0  0  0  0  0  0  0  0  0
    0.0999   -3.9615    1.0705 H   0  0  0  0  0  0  0  0  0  0  0  0
   -1.7509   -1.8630    2.1886 H   0  0  0  0  0  0  0  0  0  0  0  0
   -3.2174   -1.7666    1.2015 H   0  0  0  0  0  0  0  0  0  0  0  0
   -1.9610   -1.2154   -0.8501 H   0  0  0  0  0  0  0  0  0  0  0  0
    0.5233   -1.8393    0.2650 H   0  0  0  0  0  0  0  0  0  0  0  0
    2.2041    0.8882   -1.6591 H   0  0  0  0  0  0  0  0  0  0  0  0
    2.0332   -0.8544   -3.0189 H   0  0  0  0  0  0  0  0  0  0  0  0
    3.5808   -0.9870   -2.1708 H   0  0  0  0  0  0  0  0  0  0  0  0
    3.9059   -2.7445   -0.4981 H   0  0  0  0  0  0  0  0  0  0  0  0
    3.5825   -5.1960   -0.0906 H   0  0  0  0  0  0  0  0  0  0  0  0
    1.7320   -6.3389   -1.1079 H   0  0  0  0  0  0  0  0  0  0  0  0
    0.1499   -5.1137   -2.5412 H   0  0  0  0  0  0  0  0  0  0  0  0
    0.4393   -2.7105   -2.9519 H   0  0  0  0  0  0  0  0  0  0  0  0
    3.0898   -0.7371    0.7427 H   0  0  0  0  0  0  0  0  0  0  0  0
    4.1448    0.6661    2.2988 H   0  0  0  0  0  0  0  0  0  0  0  0
    5.8990    0.1810    0.0327 H   0  0  0  0  0  0  0  0  0  0  0  0
    5.0650   -0.9287    1.0555 H   0  0  0  0  0  0  0  0  0  0  0  0
    6.1948    1.9567    2.7414 H   0  0  0  0  0  0  0  0  0  0  0  0
    4.9080    3.0950    2.2162 H   0  0  0  0  0  0  0  0  0  0  0  0
    7.8883    1.2101    1.2978 H   0  0  0  0  0  0  0  0  0  0  0  0
    9.5876    2.0406   -0.3488 H   0  0  0  0  0  0  0  0  0  0  0  0
    9.1352    4.8595   -2.4572 H   0  0  0  0  0  0  0  0  0  0  0  0
    6.9017    5.1477   -1.4565 H   0  0  0  0  0  0  0  0  0  0  0  0
    5.2534    4.3911    0.1417 H   0  0  0  0  0  0  0  0  0  0  0  0
   -3.6495   -0.7557   -0.3306 H   0  0  0  0  0  0  0  0  0  0  0  0
   -5.0499    0.8012   -1.1006 H   0  0  0  0  0  0  0  0  0  0  0  0
   -5.0841    1.4820    1.9400 H   0  0  0  0  0  0  0  0  0  0  0  0
   -5.7656   -0.0065    1.2862 H   0  0  0  0  0  0  0  0  0  0  0  0
   -6.2415    3.6536    1.4872 H   0  0  0  0  0  0  0  0  0  0  0  0
   -8.2916    4.7522    0.7470 H   0  0  0  0  0  0  0  0  0  0  0  0
  -10.9631    3.0412   -1.1271 H   0  0  0  0  0  0  0  0  0  0  0  0
   -9.6469    1.1223   -0.9905 H   0  0  0  0  0  0  0  0  0  0  0  0
   -7.5362    0.0057   -0.2249 H   0  0  0  0  0  0  0  0  0  0  0  0
   -5.6113    2.8295   -1.7817 H   0  0  0  0  0  0  0  0  0  0  0  0
  1  2  1  0
  2  3  1  0
  2  4  1  0
  4  5  1  0
  5  6  1  0
  6  7  1  0
  7  8  2  0
  7  9  1  0
  9 10  1  0
 10 11  1  0
 11 12  2  0
 12 13  1  0
 13 14  2  0
 14 15  1  0
 15 16  2  0
  9 17  1  0
 17 18  1  0
 18 19  2  0
 18 20  1  0
 20 21  1  0
 20 22  1  0
 22 23  1  0
 23 24  2  0
 24 25  1  0
 25 26  2  0
 26 27  1  0
 26 28  1  0
 28 29  2  0
  5 30  1  0
 30 31  2  0
 30 32  1  0
 32 33  1  0
 33 34  1  0
 34 35  1  0
 35 36  2  0
 36 37  1  0
 37 38  2  0
 38 39  1  0
 38 40  1  0
 40 41  2  0
 33 42  1  0
 42 43  1  0
 42 44  2  0
 16 11  1  0
 29 23  1  0
 41 35  1  0
  1 45  1  0
  1 46  1  0
  1 47  1  0
  2 48  1  0
  3 49  1  0
  3 50  1  0
  3 51  1  0
  4 52  1  0
  4 53  1  0
  5 54  1  6
  6 55  1  0
  9 56  1  6
 10 57  1  0
 10 58  1  0
 12 59  1  0
 13 60  1  0
 14 61  1  0
 15 62  1  0
 16 63  1  0
 17 64  1  0
 20 65  1  1
 21 66  1  0
 21 67  1  0
 22 68  1  0
 22 69  1  0
 24 70  1  0
 25 71  1  0
 27 72  1  0
 28 73  1  0
 29 74  1  0
 32 75  1  0
 33 76  1  6
 34 77  1  0
 34 78  1  0
 36 79  1  0
 37 80  1  0
 39 81  1  0
 40 82  1  0
 41 83  1  0
 43 84  1  0
M  END
$$$$
[H]N=C(N([H])[H])N([H])C([H])([H])C([H])([H])C([H])([H])[C@@]([H])(C(=O)N([H])[C@]([H])(C(=N[H])N([H])[H])C([H])([H])c1c([H])c([H])c([H])c([H])c1[H])N([H])C(=O)[C@@]([H])(N([H])C(=O)[C@@]([H])(N([H])C(=O)[C@@]([H])(N([H])[H])C([H])([H])C([H])(C([H])([H])[H])C([H])([H])[H])C([H])([H])c1c([H])c([H])c([H])c([H])c1[H])C([H])([H])c1c([H])c([H])c([H])c([H])c1[H]
     RDKit          3D

107109  0  0  0  0  0  0  0  0999 V2000
    1.9594    5.6432   -0.1703 C   0  0  0  0  0  0  0  0  0  0  0  0
    2.1658    4.6193   -1.3100 C   0  0  0  0  0  0  0  0  0  0  0  0
    2.1095    5.3720   -2.6375 C   0  0  0  0  0  0  0  0  0  0  0  0
    3.5480    4.0919   -1.1449 C   0  0  0  0  0  0  0  0  0  0  0  0
    4.0059    3.0661   -2.1233 C   0  0  2  0  0  0  0  0  0  0  0  0
    4.0069    3.4352   -3.4997 N   0  0  0  0  0  0  0  0  0  0  0  0
    3.5104    1.7077   -1.8315 C   0  0  0  0  0  0  0  0  0  0  0  0
    2.4359    1.5805   -1.2216 O   0  0  0  0  0  0  0  0  0  0  0  0
    4.2332    0.5518   -2.2254 N   0  0  0  0  0  0  0  0  0  0  0  0
    3.7645   -0.7837   -1.9371 C   0  0  1  0  0  0  0  0  0  0  0  0
    4.2345   -1.3946   -0.6975 C   0  0  0  0  0  0  0  0  0  0  0  0
    3.9788   -0.7450    0.5865 C   0  0  0  0  0  0  0  0  0  0  0  0
    4.9425    0.1272    1.0481 C   0  0  0  0  0  0  0  0  0  0  0  0
    4.7759    0.7642    2.2527 C   0  0  0  0  0  0  0  0  0  0  0  0
    3.6688    0.5613    3.0248 C   0  0  0  0  0  0  0  0  0  0  0  0
    2.7004   -0.3225    2.5486 C   0  0  0  0  0  0  0  0  0  0  0  0
    2.8672   -0.9589    1.3431 C   0  0  0  0  0  0  0  0  0  0  0  0
    2.4174   -1.1128   -2.4574 C   0  0  0  0  0  0  0  0  0  0  0  0
    1.9408   -0.4478   -3.4323 O   0  0  0  0  0  0  0  0  0  0  0  0
    1.6175   -2.1407   -1.9314 N   0  0  0  0  0  0  0  0  0  0  0  0
    0.3410   -2.6167   -2.3233 C   0  0  1  0  0  0  0  0  0  0  0  0
    0.0484   -3.9855   -1.8552 C   0  0  0  0  0  0  0  0  0  0  0  0
    0.9617   -5.0559   -2.2876 C   0  0  0  0  0  0  0  0  0  0  0  0
    2.1049   -5.4369   -1.5971 C   0  0  0  0  0  0  0  0  0  0  0  0
    2.9261   -6.4767   -2.0438 C   0  0  0  0  0  0  0  0  0  0  0  0
    2.6224   -7.1641   -3.1978 C   0  0  0  0  0  0  0  0  0  0  0  0
    1.5086   -6.8050   -3.8864 C   0  0  0  0  0  0  0  0  0  0  0  0
    0.7060   -5.7767   -3.4347 C   0  0  0  0  0  0  0  0  0  0  0  0
   -0.7456   -1.6484   -1.9452 C   0  0  0  0  0  0  0  0  0  0  0  0
   -0.5648   -0.4535   -2.2540 O   0  0  0  0  0  0  0  0  0  0  0  0
   -1.9230   -1.9995   -1.2835 N   0  0  0  0  0  0  0  0  0  0  0  0
   -2.9295   -1.0177   -1.0056 C   0  0  1  0  0  0  0  0  0  0  0  0
   -4.2192   -1.6033   -0.5492 C   0  0  0  0  0  0  0  0  0  0  0  0
   -4.0317   -2.3808    0.7487 C   0  0  0  0  0  0  0  0  0  0  0  0
   -5.3252   -2.9965    1.2384 C   0  0  0  0  0  0  0  0  0  0  0  0
   -5.0953   -3.7147    2.4805 N   0  0  0  0  0  0  0  0  0  0  0  0
   -4.3438   -4.9061    2.5846 C   0  0  0  0  0  0  0  0  0  0  0  0
   -4.8673   -6.1292    2.1041 N   0  0  0  0  0  0  0  0  0  0  0  0
   -3.1815   -4.8803    3.1238 N   0  0  0  0  0  0  0  0  0  0  0  0
   -2.4911    0.0142   -0.0134 C   0  0  0  0  0  0  0  0  0  0  0  0
   -1.3393   -0.0828    0.4548 O   0  0  0  0  0  0  0  0  0  0  0  0
   -3.3177    1.0740    0.3929 N   0  0  0  0  0  0  0  0  0  0  0  0
   -2.8359    2.0782    1.3182 C   0  0  1  0  0  0  0  0  0  0  0  0
   -3.4407    3.4208    1.1138 C   0  0  0  0  0  0  0  0  0  0  0  0
   -2.8570    4.3976    2.0600 C   0  0  0  0  0  0  0  0  0  0  0  0
   -3.2956    4.6236    3.3438 C   0  0  0  0  0  0  0  0  0  0  0  0
   -2.7213    5.5531    4.1763 C   0  0  0  0  0  0  0  0  0  0  0  0
   -1.6533    6.3014    3.7118 C   0  0  0  0  0  0  0  0  0  0  0  0
   -1.1702    6.1271    2.4483 C   0  0  0  0  0  0  0  0  0  0  0  0
   -1.7894    5.1663    1.6355 C   0  0  0  0  0  0  0  0  0  0  0  0
   -3.1162    1.5736    2.7103 C   0  0  0  0  0  0  0  0  0  0  0  0
   -4.3712    1.1105    3.1099 N   0  0  0  0  0  0  0  0  0  0  0  0
   -2.1397    1.5715    3.5692 N   0  0  0  0  0  0  0  0  0  0  0  0
    2.5463    5.3103    0.7156 H   0  0  0  0  0  0  0  0  0  0  0  0
    0.9005    5.7022    0.1333 H   0  0  0  0  0  0  0  0  0  0  0  0
    2.3343    6.6208   -0.5077 H   0  0  0  0  0  0  0  0  0  0  0  0
    1.3894    3.8558   -1.3364 H   0  0  0  0  0  0  0  0  0  0  0  0
    1.7354    4.6674   -3.3973 H   0  0  0  0  0  0  0  0  0  0  0  0
    3.1293    5.7617   -2.8623 H   0  0  0  0  0  0  0  0  0  0  0  0
    1.3715    6.1920   -2.5255 H   0  0  0  0  0  0  0  0  0  0  0  0
    3.7038    3.6315   -0.1216 H   0  0  0  0  0  0  0  0  0  0  0  0
    4.3115    4.9220   -1.1558 H   0  0  0  0  0  0  0  0  0  0  0  0
    5.1523    2.9767   -1.8794 H   0  0  0  0  0  0  0  0  0  0  0  0
    4.7896    4.0837   -3.6794 H   0  0  0  0  0  0  0  0  0  0  0  0
    4.1694    2.5727   -4.0598 H   0  0  0  0  0  0  0  0  0  0  0  0
    5.1442    0.7519   -2.7372 H   0  0  0  0  0  0  0  0  0  0  0  0
    4.3961   -1.3943   -2.7622 H   0  0  0  0  0  0  0  0  0  0  0  0
    3.9008   -2.4606   -0.6225 H   0  0  0  0  0  0  0  0  0  0  0  0
    5.3683   -1.5245   -0.8157 H   0  0  0  0  0  0  0  0  0  0  0  0
    5.8623    0.3422    0.4891 H   0  0  0  0  0  0  0  0  0  0  0  0
    5.5426    1.4630    2.6249 H   0  0  0  0  0  0  0  0  0  0  0  0
    3.5006    1.0466    3.9946 H   0  0  0  0  0  0  0  0  0  0  0  0
    1.8010   -0.5159    3.1361 H   0  0  0  0  0  0  0  0  0  0  0  0
    2.0609   -1.6301    1.0406 H   0  0  0  0  0  0  0  0  0  0  0  0
    2.0410   -2.6575   -1.0931 H   0  0  0  0  0  0  0  0  0  0  0  0
    0.2879   -2.5726   -3.4671 H   0  0  0  0  0  0  0  0  0  0  0  0
    0.0880   -3.9768   -0.7246 H   0  0  0  0  0  0  0  0  0  0  0  0
   -1.0275   -4.2797   -2.0615 H   0  0  0  0  0  0  0  0  0  0  0  0
    2.4088   -4.9473   -0.6850 H   0  0  0  0  0  0  0  0  0  0  0  0
    3.8107   -6.7689   -1.5040 H   0  0  0  0  0  0  0  0  0  0  0  0
    3.2672   -7.9607   -3.5105 H   0  0  0  0  0  0  0  0  0  0  0  0
    1.2633   -7.3506   -4.8026 H   0  0  0  0  0  0  0  0  0  0  0  0
   -0.1583   -5.5607   -4.0448 H   0  0  0  0  0  0  0  0  0  0  0  0
   -2.0815   -2.9760   -0.9825 H   0  0  0  0  0  0  0  0  0  0  0  0
   -3.0867   -0.3637   -1.9356 H   0  0  0  0  0  0  0  0  0  0  0  0
   -5.0426   -0.9061   -0.4057 H   0  0  0  0  0  0  0  0  0  0  0  0
   -4.5033   -2.3658   -1.3496 H   0  0  0  0  0  0  0  0  0  0  0  0
   -3.3144   -3.2065    0.5898 H   0  0  0  0  0  0  0  0  0  0  0  0
   -3.6277   -1.7460    1.5631 H   0  0  0  0  0  0  0  0  0  0  0  0
   -6.1308   -2.2826    1.3915 H   0  0  0  0  0  0  0  0  0  0  0  0
   -5.6395   -3.7137    0.4277 H   0  0  0  0  0  0  0  0  0  0  0  0
   -5.4980   -3.3540    3.3999 H   0  0  0  0  0  0  0  0  0  0  0  0
   -4.2351   -6.9641    1.9636 H   0  0  0  0  0  0  0  0  0  0  0  0
   -5.8743   -6.2845    1.8623 H   0  0  0  0  0  0  0  0  0  0  0  0
   -2.5800   -5.7378    3.2274 H   0  0  0  0  0  0  0  0  0  0  0  0
   -4.2765    1.1471    0.0277 H   0  0  0  0  0  0  0  0  0  0  0  0
   -1.7206    2.1655    1.2800 H   0  0  0  0  0  0  0  0  0  0  0  0
   -3.1673    3.7614    0.0735 H   0  0  0  0  0  0  0  0  0  0  0  0
   -4.5572    3.4064    1.2169 H   0  0  0  0  0  0  0  0  0  0  0  0
   -4.1357    4.0400    3.7162 H   0  0  0  0  0  0  0  0  0  0  0  0
   -3.0771    5.7147    5.1867 H   0  0  0  0  0  0  0  0  0  0  0  0
   -1.1958    7.0332    4.3742 H   0  0  0  0  0  0  0  0  0  0  0  0
   -0.3348    6.7041    2.0715 H   0  0  0  0  0  0  0  0  0  0  0  0
   -1.4090    5.0279    0.6411 H   0  0  0  0  0  0  0  0  0  0  0  0
   -4.6268    1.0378    4.0989 H   0  0  0  0  0  0  0  0  0  0  0  0
   -5.1073    0.8133    2.4076 H   0  0  0  0  0  0  0  0  0  0  0  0
   -2.2060    1.2528    4.5435 H   0  0  0  0  0  0  0  0  0  0  0  0
  1  2  1  0
  2  3  1  0
  2  4  1  0
  4  5  1  0
  5  6  1  0
  5  7  1  0
  7  8  2  0
  7  9  1  0
  9 10  1  0
 10 11  1  0
 11 12  1  0
 12 13  2  0
 13 14  1  0
 14 15  2  0
 15 16  1  0
 16 17  2  0
 10 18  1  0
 18 19  2  0
 18 20  1  0
 20 21  1  0
 21 22  1  0
 22 23  1  0
 23 24  2  0
 24 25  1  0
 25 26  2  0
 26 27  1  0
 27 28  2  0
 21 29  1  0
 29 30  2  0
 29 31  1  0
 31 32  1  0
 32 33  1  0
 33 34  1  0
 34 35  1  0
 35 36  1  0
 36 37  1  0
 37 38  1  0
 37 39  2  3
 32 40  1  0
 40 41  2  0
 40 42  1  0
 42 43  1  0
 43 44  1  0
 44 45  1  0
 45 46  2  0
 46 47  1  0
 47 48  2  0
 48 49  1  0
 49 50  2  0
 43 51  1  0
 51 52  1  0
 51 53  2  3
 17 12  1  0
 28 23  1  0
 50 45  1  0
  1 54  1  0
  1 55  1  0
  1 56  1  0
  2 57  1  0
  3 58  1  0
  3 59  1  0
  3 60  1  0
  4 61  1  0
  4 62  1  0
  5 63  1  1
  6 64  1  0
  6 65  1  0
  9 66  1  0
 10 67  1  6
 11 68  1  0
 11 69  1  0
 13 70  1  0
 14 71  1  0
 15 72  1  0
 16 73  1  0
 17 74  1  0
 20 75  1  0
 21 76  1  6
 22 77  1  0
 22 78  1  0
 24 79  1  0
 25 80  1  0
 26 81  1  0
 27 82  1  0
 28 83  1  0
 31 84  1  0
 32 85  1  6
 33 86  1  0
 33 87  1  0
 34 88  1  0
 34 89  1  0
 35 90  1  0
 35 91  1  0
 36 92  1  0
 38 93  1  0
 38 94  1  0
 39 95  1  0
 42 96  1  0
 43 97  1  1
 44 98  1  0
 44 99  1  0
 46100  1  0
 47101  1  0
 48102  1  0
 49103  1  0
 50104  1  0
 52105  1  0
 52106  1  0
 53107  1  0
M  END
$$$$
[H]c1nc(N([H])c2c([H])c([H])c(F)c(C(F)(F)F)c2[H])c2c([H])c(OC([H])([H])C([H])([H])C([H])([H])N3C([H])([H])C([H])([H])OC([H])([H])C3([H])[H])c(OC([H])([H])[H])c([H])c2n1
     RDKit          3D

 58 61  0  0  0  0  0  0  0  0999 V2000
   -2.8709   -3.4869    1.8547 C   0  0  0  0  0  0  0  0  0  0  0  0
   -2.5032   -2.4117    1.0398 O   0  0  0  0  0  0  0  0  0  0  0  0
   -1.1574   -1.9908    1.0578 C   0  0  0  0  0  0  0  0  0  0  0  0
   -0.2331   -2.6244    1.8602 C   0  0  0  0  0  0  0  0  0  0  0  0
    1.0793   -2.2227    1.8834 C   0  0  0  0  0  0  0  0  0  0  0  0
    1.9480   -2.8643    2.6789 N   0  0  0  0  0  0  0  0  0  0  0  0
    3.2431   -2.5109    2.7394 C   0  0  0  0  0  0  0  0  0  0  0  0
    3.6670   -1.5075    1.9956 N   0  0  0  0  0  0  0  0  0  0  0  0
    2.8795   -0.8141    1.1782 C   0  0  0  0  0  0  0  0  0  0  0  0
    3.3581    0.2190    0.3624 N   0  0  0  0  0  0  0  0  0  0  0  0
    4.7148    0.6887    0.3737 C   0  0  0  0  0  0  0  0  0  0  0  0
    5.5189    0.7100    1.4737 C   0  0  0  0  0  0  0  0  0  0  0  0
    6.8457    1.1436    1.3868 C   0  0  0  0  0  0  0  0  0  0  0  0
    7.3189    1.5492    0.1615 C   0  0  0  0  0  0  0  0  0  0  0  0
    8.5949    1.9697    0.0544 F   0  0  0  0  0  0  0  0  0  0  0  0
    6.5144    1.5341   -0.9661 C   0  0  0  0  0  0  0  0  0  0  0  0
    5.2149    1.1076   -0.8727 C   0  0  0  0  0  0  0  0  0  0  0  0
    7.0733    1.9811   -2.2790 C   0  0  0  0  0  0  0  0  0  0  0  0
    7.4780    3.2798   -2.1749 F   0  0  0  0  0  0  0  0  0  0  0  0
    6.0806    1.8998   -3.2321 F   0  0  0  0  0  0  0  0  0  0  0  0
    8.0953    1.1426   -2.6775 F   0  0  0  0  0  0  0  0  0  0  0  0
    1.5325   -1.1743    1.1109 C   0  0  0  0  0  0  0  0  0  0  0  0
    0.6073   -0.5501    0.3171 C   0  0  0  0  0  0  0  0  0  0  0  0
   -0.7208   -0.9491    0.2875 C   0  0  0  0  0  0  0  0  0  0  0  0
   -1.6086   -0.2783   -0.5338 O   0  0  0  0  0  0  0  0  0  0  0  0
   -1.2442    0.8065   -1.3499 C   0  0  0  0  0  0  0  0  0  0  0  0
   -2.4003    1.3431   -2.1456 C   0  0  0  0  0  0  0  0  0  0  0  0
   -3.5427    1.8273   -1.2815 C   0  0  0  0  0  0  0  0  0  0  0  0
   -4.0711    0.7813   -0.4678 N   0  0  0  0  0  0  0  0  0  0  0  0
   -4.7553   -0.2574   -1.1694 C   0  0  0  0  0  0  0  0  0  0  0  0
   -6.2494   -0.1808   -1.1325 C   0  0  0  0  0  0  0  0  0  0  0  0
   -6.7181    1.0537   -0.7134 O   0  0  0  0  0  0  0  0  0  0  0  0
   -6.2476    1.3287    0.5708 C   0  0  0  0  0  0  0  0  0  0  0  0
   -4.7695    1.1943    0.7061 C   0  0  0  0  0  0  0  0  0  0  0  0
   -2.2009   -4.3552    1.5825 H   0  0  0  0  0  0  0  0  0  0  0  0
   -2.7006   -3.2164    2.9208 H   0  0  0  0  0  0  0  0  0  0  0  0
   -3.9393   -3.7633    1.6950 H   0  0  0  0  0  0  0  0  0  0  0  0
   -0.5907   -3.4527    2.4705 H   0  0  0  0  0  0  0  0  0  0  0  0
    3.9321   -3.0700    3.4148 H   0  0  0  0  0  0  0  0  0  0  0  0
    2.7099    0.6911   -0.3032 H   0  0  0  0  0  0  0  0  0  0  0  0
    5.1151    0.4050    2.4269 H   0  0  0  0  0  0  0  0  0  0  0  0
    7.4325    1.1362    2.2940 H   0  0  0  0  0  0  0  0  0  0  0  0
    4.5780    1.0900   -1.7467 H   0  0  0  0  0  0  0  0  0  0  0  0
    0.9215    0.2970   -0.3174 H   0  0  0  0  0  0  0  0  0  0  0  0
   -0.4774    0.4607   -2.0720 H   0  0  0  0  0  0  0  0  0  0  0  0
   -0.7735    1.6340   -0.7609 H   0  0  0  0  0  0  0  0  0  0  0  0
   -2.0806    2.2326   -2.7653 H   0  0  0  0  0  0  0  0  0  0  0  0
   -2.6821    0.5793   -2.8818 H   0  0  0  0  0  0  0  0  0  0  0  0
   -3.1103    2.5921   -0.5930 H   0  0  0  0  0  0  0  0  0  0  0  0
   -4.3205    2.3267   -1.8584 H   0  0  0  0  0  0  0  0  0  0  0  0
   -4.4210   -0.2435   -2.2483 H   0  0  0  0  0  0  0  0  0  0  0  0
   -4.4205   -1.2760   -0.8155 H   0  0  0  0  0  0  0  0  0  0  0  0
   -6.6631   -0.9800   -0.4543 H   0  0  0  0  0  0  0  0  0  0  0  0
   -6.6766   -0.3957   -2.1342 H   0  0  0  0  0  0  0  0  0  0  0  0
   -6.8189    0.6593    1.2780 H   0  0  0  0  0  0  0  0  0  0  0  0
   -6.5730    2.3649    0.8426 H   0  0  0  0  0  0  0  0  0  0  0  0
   -4.5715    0.4125    1.4987 H   0  0  0  0  0  0  0  0  0  0  0  0
   -4.3408    2.1346    1.1228 H   0  0  0  0  0  0  0  0  0  0  0  0
  1  2  1  0
  2  3  1  0
  3  4  2  0
  4  5  1  0
  5  6  2  0
  6  7  1  0
  7  8  2  0
  8  9  1  0
  9 10  1  0
 10 11  1  0
 11 12  2  0
 12 13  1  0
 13 14  2  0
 14 15  1  0
 14 16  1  0
 16 17  2  0
 16 18  1  0
 18 19  1  0
 18 20  1  0
 18 21  1  0
  9 22  2  0
 22 23  1  0
 23 24  2  0
 24 25  1  0
 25 26  1  0
 26 27  1  0
 27 28  1  0
 28 29  1  0
 29 30  1  0
 30 31  1  0
 31 32  1  0
 32 33  1  0
 33 34  1  0
 24  3  1  0
 34 29  1  0
 22  5  1  0
 17 11  1  0
  1 35  1  0
  1 36  1  0
  1 37  1  0
  4 38  1  0
  7 39  1  0
 10 40  1  0
 12 41  1  0
 13 42  1  0
 17 43  1  0
 23 44  1  0
 26 45  1  0
 26 46  1  0
 27 47  1  0
 27 48  1  0
 28 49  1  0
 28 50  1  0
 30 51  1  0
 30 52  1  0
 31 53  1  0
 31 54  1  0
 33 55  1  0
 33 56  1  0
 34 57  1  0
 34 58  1  0
M  END
$$$$
[H]c1nc(N([H])[H])c2c(-c3c([H])c([H])c([H])c(N([H])C(=O)N([H])c4c([H])c([H])c([H])c(C(F)(F)F)c4[H])c3[H])c([H])n([C@]3([H])C([H])([H])C([H])([H])[C@@]([H])(C(=O)N([H])[H])C([H])([H])C3([H])[H])c2n1
     RDKit          3D

 65 69  0  0  0  0  0  0  0  0999 V2000
    0.1235   -3.9361   -0.6131 N   0  0  0  0  0  0  0  0  0  0  0  0
   -1.0394   -3.6228    0.1821 C   0  0  0  0  0  0  0  0  0  0  0  0
   -1.3994   -4.3353    1.2048 N   0  0  0  0  0  0  0  0  0  0  0  0
   -2.5138   -4.0574    1.9691 C   0  0  0  0  0  0  0  0  0  0  0  0
   -3.2469   -2.9841    1.6064 N   0  0  0  0  0  0  0  0  0  0  0  0
   -2.9396   -2.1913    0.5538 C   0  0  0  0  0  0  0  0  0  0  0  0
   -3.5561   -1.0977    0.0504 N   0  0  0  0  0  0  0  0  0  0  0  0
   -2.8135   -0.7066   -1.0286 C   0  0  0  0  0  0  0  0  0  0  0  0
   -1.7532   -1.5716   -1.1550 C   0  0  0  0  0  0  0  0  0  0  0  0
   -0.6226   -1.4761   -2.0895 C   0  0  0  0  0  0  0  0  0  0  0  0
   -0.6483   -1.7695   -3.4139 C   0  0  0  0  0  0  0  0  0  0  0  0
    0.4491   -1.6497   -4.2398 C   0  0  0  0  0  0  0  0  0  0  0  0
    1.6532   -1.2127   -3.7420 C   0  0  0  0  0  0  0  0  0  0  0  0
    1.7462   -0.8871   -2.3705 C   0  0  0  0  0  0  0  0  0  0  0  0
    2.8652   -0.5460   -1.7888 N   0  0  0  0  0  0  0  0  0  0  0  0
    3.9654    0.0746   -1.1145 C   0  0  0  0  0  0  0  0  0  0  0  0
    3.8859    1.2162   -0.6817 O   0  0  0  0  0  0  0  0  0  0  0  0
    5.2225   -0.6104   -0.9105 N   0  0  0  0  0  0  0  0  0  0  0  0
    6.3017    0.0153   -0.2539 C   0  0  0  0  0  0  0  0  0  0  0  0
    7.2773   -0.8485    0.2671 C   0  0  0  0  0  0  0  0  0  0  0  0
    8.3752   -0.3236    0.8941 C   0  0  0  0  0  0  0  0  0  0  0  0
    8.5609    1.0335    1.0381 C   0  0  0  0  0  0  0  0  0  0  0  0
    7.6195    1.8973    0.5371 C   0  0  0  0  0  0  0  0  0  0  0  0
    6.4979    1.3572   -0.1084 C   0  0  0  0  0  0  0  0  0  0  0  0
    7.7561    3.3815    0.6862 C   0  0  0  0  0  0  0  0  0  0  0  0
    6.7058    3.8109    1.5133 F   0  0  0  0  0  0  0  0  0  0  0  0
    8.9592    3.6202    1.3491 F   0  0  0  0  0  0  0  0  0  0  0  0
    7.6729    4.0128   -0.5148 F   0  0  0  0  0  0  0  0  0  0  0  0
    0.5862   -1.0305   -1.5762 C   0  0  0  0  0  0  0  0  0  0  0  0
   -1.8048   -2.5240   -0.1718 C   0  0  0  0  0  0  0  0  0  0  0  0
   -4.7567   -0.4895    0.6228 C   0  0  1  0  0  0  0  0  0  0  0  0
   -4.4146    0.3954    1.7856 C   0  0  0  0  0  0  0  0  0  0  0  0
   -4.3434    1.8467    1.5580 C   0  0  0  0  0  0  0  0  0  0  0  0
   -5.0784    2.4190    0.4134 C   0  0  1  0  0  0  0  0  0  0  0  0
   -5.4647    1.5290   -0.6968 C   0  0  0  0  0  0  0  0  0  0  0  0
   -5.6911    0.0981   -0.3744 C   0  0  0  0  0  0  0  0  0  0  0  0
   -6.2463    3.2307    0.9724 C   0  0  0  0  0  0  0  0  0  0  0  0
   -5.8670    4.3958    1.6817 N   0  0  0  0  0  0  0  0  0  0  0  0
   -7.4284    2.9269    0.8433 O   0  0  0  0  0  0  0  0  0  0  0  0
    0.1179   -4.2716   -1.5767 H   0  0  0  0  0  0  0  0  0  0  0  0
    1.0553   -3.7978   -0.1527 H   0  0  0  0  0  0  0  0  0  0  0  0
   -2.7113   -4.7233    2.7727 H   0  0  0  0  0  0  0  0  0  0  0  0
   -3.0004    0.1128   -1.6773 H   0  0  0  0  0  0  0  0  0  0  0  0
   -1.5809   -2.1153   -3.8540 H   0  0  0  0  0  0  0  0  0  0  0  0
    0.4305   -1.8876   -5.2923 H   0  0  0  0  0  0  0  0  0  0  0  0
    2.5637   -1.1103   -4.3337 H   0  0  0  0  0  0  0  0  0  0  0  0
    2.3759    0.7888   -1.8833 H   0  0  0  0  0  0  0  0  0  0  0  0
    5.2799   -1.5819   -1.2643 H   0  0  0  0  0  0  0  0  0  0  0  0
    7.1320   -1.9213    0.1631 H   0  0  0  0  0  0  0  0  0  0  0  0
    9.1278   -1.0183    1.2879 H   0  0  0  0  0  0  0  0  0  0  0  0
    9.4397    1.3939    1.5502 H   0  0  0  0  0  0  0  0  0  0  0  0
    5.8106    2.0747   -0.5142 H   0  0  0  0  0  0  0  0  0  0  0  0
    0.6541   -0.7864   -0.5195 H   0  0  0  0  0  0  0  0  0  0  0  0
   -5.3201   -1.3730    1.0895 H   0  0  0  0  0  0  0  0  0  0  0  0
   -3.3764    0.0594    2.1251 H   0  0  0  0  0  0  0  0  0  0  0  0
   -5.0458    0.1618    2.6648 H   0  0  0  0  0  0  0  0  0  0  0  0
   -4.7209    2.3604    2.5022 H   0  0  0  0  0  0  0  0  0  0  0  0
   -3.2758    2.2389    1.5111 H   0  0  0  0  0  0  0  0  0  0  0  0
   -4.4463    3.2530   -0.0469 H   0  0  0  0  0  0  0  0  0  0  0  0
   -6.4639    1.9194   -1.0923 H   0  0  0  0  0  0  0  0  0  0  0  0
   -4.7518    1.6470   -1.5584 H   0  0  0  0  0  0  0  0  0  0  0  0
   -6.7398    0.0073    0.0433 H   0  0  0  0  0  0  0  0  0  0  0  0
   -5.6945   -0.4892   -1.2987 H   0  0  0  0  0  0  0  0  0  0  0  0
   -6.5504    5.1515    1.7965 H   0  0  0  0  0  0  0  0  0  0  0  0
   -4.9049    4.5165    2.0956 H   0  0  0  0  0  0  0  0  0  0  0  0
  1  2  1  0
  2  3  2  0
  3  4  1  0
  4  5  2  0
  5  6  1  0
  6  7  1  0
  7  8  1  0
  8  9  2  0
  9 10  1  0
 10 11  2  0
 11 12  1  0
 12 13  2  0
 13 14  1  0
 14 15  1  0
 15 16  1  0
 16 17  2  0
 16 18  1  0
 18 19  1  0
 19 20  2  0
 20 21  1  0
 21 22  2  0
 22 23  1  0
 23 24  2  0
 23 25  1  0
 25 26  1  0
 25 27  1  0
 25 28  1  0
 14 29  2  0
  9 30  1  0
  7 31  1  0
 31 32  1  0
 32 33  1  0
 33 34  1  0
 34 35  1  0
 35 36  1  0
 34 37  1  0
 37 38  1  0
 37 39  2  0
 30  2  1  0
 36 31  1  0
 30  6  2  0
 29 10  1  0
 24 19  1  0
  1 40  1  0
  1 41  1  0
  4 42  1  0
  8 43  1  0
 11 44  1  0
 12 45  1  0
 13 46  1  0
 15 47  1  0
 18 48  1  0
 20 49  1  0
 21 50  1  0
 22 51  1  0
 24 52  1  0
 29 53  1  0
 31 54  1  1
 32 55  1  0
 32 56  1  0
 33 57  1  0
 33 58  1  0
 34 59  1  6
 35 60  1  0
 35 61  1  0
 36 62  1  0
 36 63  1  0
 38 64  1  0
 38 65  1  0
M  END
$$$$
[H]c1nc2c(c([H])c1C(=O)N([H])[C@]([H])(C(=O)N1C([H])([H])C([H])([H])C([H])(c3c([H])c([H])c([H])c([H])c3[H])C([H])([H])C1([H])[H])C([H])([H])[H])c([H])c([H])n2[H]
     RDKit          3D

 52 55  0  0  0  0  0  0  0  0999 V2000
    0.7949    0.6085   -2.2065 C   0  0  0  0  0  0  0  0  0  0  0  0
    1.0327    0.5817   -0.6831 C   0  0  2  0  0  0  0  0  0  0  0  0
    2.4499    0.2154   -0.5135 N   0  0  0  0  0  0  0  0  0  0  0  0
    3.3144    1.0533    0.2179 C   0  0  0  0  0  0  0  0  0  0  0  0
    2.8513    2.1098    0.7276 O   0  0  0  0  0  0  0  0  0  0  0  0
    4.7123    0.7516    0.4068 C   0  0  0  0  0  0  0  0  0  0  0  0
    5.5292    1.6317    1.1247 C   0  0  0  0  0  0  0  0  0  0  0  0
    6.8298    1.4024    1.3189 N   0  0  0  0  0  0  0  0  0  0  0  0
    7.4394    0.2957    0.8276 C   0  0  0  0  0  0  0  0  0  0  0  0
    8.6971   -0.1853    0.8602 N   0  0  0  0  0  0  0  0  0  0  0  0
    8.7737   -1.3461    0.2024 C   0  0  0  0  0  0  0  0  0  0  0  0
    7.5175   -1.6387   -0.2813 C   0  0  0  0  0  0  0  0  0  0  0  0
    6.6899   -0.6176    0.1078 C   0  0  0  0  0  0  0  0  0  0  0  0
    5.3554   -0.3713   -0.0844 C   0  0  0  0  0  0  0  0  0  0  0  0
    0.2119   -0.4958   -0.0869 C   0  0  0  0  0  0  0  0  0  0  0  0
    0.7209   -1.6338    0.1673 O   0  0  0  0  0  0  0  0  0  0  0  0
   -1.1701   -0.3108    0.2281 N   0  0  0  0  0  0  0  0  0  0  0  0
   -1.9654   -1.4013    0.7407 C   0  0  0  0  0  0  0  0  0  0  0  0
   -3.2181   -1.5512   -0.1087 C   0  0  0  0  0  0  0  0  0  0  0  0
   -3.8133   -0.2215   -0.3293 C   0  0  0  0  0  0  0  0  0  0  0  0
   -3.2058    0.8372    0.6208 C   0  0  0  0  0  0  0  0  0  0  0  0
   -1.7630    0.9813    0.0892 C   0  0  0  0  0  0  0  0  0  0  0  0
   -5.2600   -0.0894   -0.2715 C   0  0  0  0  0  0  0  0  0  0  0  0
   -6.0905   -0.7719    0.5737 C   0  0  0  0  0  0  0  0  0  0  0  0
   -7.4496   -0.5544    0.5548 C   0  0  0  0  0  0  0  0  0  0  0  0
   -8.0526    0.3560   -0.3092 C   0  0  0  0  0  0  0  0  0  0  0  0
   -7.2214    1.0495   -1.1661 C   0  0  0  0  0  0  0  0  0  0  0  0
   -5.8647    0.8258   -1.1401 C   0  0  0  0  0  0  0  0  0  0  0  0
    1.4489    1.3258   -2.7106 H   0  0  0  0  0  0  0  0  0  0  0  0
    1.0823   -0.4016   -2.6267 H   0  0  0  0  0  0  0  0  0  0  0  0
   -0.2512    0.7712   -2.4768 H   0  0  0  0  0  0  0  0  0  0  0  0
    0.8178    1.5797   -0.3064 H   0  0  0  0  0  0  0  0  0  0  0  0
    2.7935   -0.6611   -0.9416 H   0  0  0  0  0  0  0  0  0  0  0  0
    5.0736    2.5333    1.5351 H   0  0  0  0  0  0  0  0  0  0  0  0
    9.5005    0.2759    1.3295 H   0  0  0  0  0  0  0  0  0  0  0  0
    9.6583   -1.9805    0.0523 H   0  0  0  0  0  0  0  0  0  0  0  0
    7.1945   -2.4877   -0.8575 H   0  0  0  0  0  0  0  0  0  0  0  0
    4.7694   -1.0843   -0.6462 H   0  0  0  0  0  0  0  0  0  0  0  0
   -1.4177   -2.3700    0.6996 H   0  0  0  0  0  0  0  0  0  0  0  0
   -2.2363   -1.2664    1.8163 H   0  0  0  0  0  0  0  0  0  0  0  0
   -2.9303   -2.0670   -1.0392 H   0  0  0  0  0  0  0  0  0  0  0  0
   -3.8607   -2.2651    0.4473 H   0  0  0  0  0  0  0  0  0  0  0  0
   -3.4710    0.1555   -1.3405 H   0  0  0  0  0  0  0  0  0  0  0  0
   -3.2348    0.5369    1.6606 H   0  0  0  0  0  0  0  0  0  0  0  0
   -3.7207    1.7830    0.3701 H   0  0  0  0  0  0  0  0  0  0  0  0
   -1.9129    1.2121   -0.9803 H   0  0  0  0  0  0  0  0  0  0  0  0
   -1.2393    1.7931    0.6459 H   0  0  0  0  0  0  0  0  0  0  0  0
   -5.6959   -1.4854    1.2595 H   0  0  0  0  0  0  0  0  0  0  0  0
   -8.1280   -1.0949    1.2267 H   0  0  0  0  0  0  0  0  0  0  0  0
   -9.1142    0.5186   -0.3176 H   0  0  0  0  0  0  0  0  0  0  0  0
   -7.7012    1.7606   -1.8394 H   0  0  0  0  0  0  0  0  0  0  0  0
   -5.2703    1.4074   -1.8431 H   0  0  0  0  0  0  0  0  0  0  0  0
  1  2  1  0
  2  3  1  0
  3  4  1  0
  4  5  2  0
  4  6  1  0
  6  7  2  0
  7  8  1  0
  8  9  2  0
  9 10  1  0
 10 11  1  0
 11 12  2  0
 12 13  1  0
 13 14  2  0
  2 15  1  0
 15 16  2  0
 15 17  1  0
 17 18  1  0
 18 19  1  0
 19 20  1  0
 20 21  1  0
 21 22  1  0
 20 23  1  0
 23 24  2  0
 24 25  1  0
 25 26  2  0
 26 27  1  0
 27 28  2  0
 14  6  1  0
 22 17  1  0
 28 23  1  0
 13  9  1  0
  1 29  1  0
  1 30  1  0
  1 31  1  0
  2 32  1  1
  3 33  1  0
  7 34  1  0
 10 35  1  0
 11 36  1  0
 12 37  1  0
 14 38  1  0
 18 39  1  0
 18 40  1  0
 19 41  1  0
 19 42  1  0
 20 43  1  0
 21 44  1  0
 21 45  1  0
 22 46  1  0
 22 47  1  0
 24 48  1  0
 25 49  1  0
 26 50  1  0
 27 51  1  0
 28 52  1  0
M  END
$$$$
[H]c1nc(N([H])[H])c(C(=O)N([H])c2c([H])c([H])c(C(F)(F)F)c([H])c2[H])c([H])c1-c1c([H])nn(C([H])([H])[H])c1[H]
     RDKit          3D

 40 42  0  0  0  0  0  0  0  0999 V2000
   -5.0663    3.3138   -0.4742 C   0  0  0  0  0  0  0  0  0  0  0  0
   -4.8575    1.9254   -0.0676 N   0  0  0  0  0  0  0  0  0  0  0  0
   -3.7392    1.1842   -0.2950 C   0  0  0  0  0  0  0  0  0  0  0  0
   -3.9131   -0.0756    0.2337 C   0  0  0  0  0  0  0  0  0  0  0  0
   -5.1710   -0.0811    0.7885 C   0  0  0  0  0  0  0  0  0  0  0  0
   -5.6940    1.1563    0.5760 N   0  0  0  0  0  0  0  0  0  0  0  0
   -2.9694   -1.2165    0.2450 C   0  0  0  0  0  0  0  0  0  0  0  0
   -3.3361   -2.5176    0.2195 C   0  0  0  0  0  0  0  0  0  0  0  0
   -2.3938   -3.4695    0.2340 N   0  0  0  0  0  0  0  0  0  0  0  0
   -1.0406   -3.1753    0.2768 C   0  0  0  0  0  0  0  0  0  0  0  0
   -0.1651   -4.2749    0.2867 N   0  0  0  0  0  0  0  0  0  0  0  0
   -0.6450   -1.8751    0.3044 C   0  0  0  0  0  0  0  0  0  0  0  0
   -1.6051   -0.9109    0.2890 C   0  0  0  0  0  0  0  0  0  0  0  0
    0.7746   -1.5059    0.3201 C   0  0  0  0  0  0  0  0  0  0  0  0
    1.6211   -2.4559    0.3239 O   0  0  0  0  0  0  0  0  0  0  0  0
    1.2000   -0.1688    0.3205 N   0  0  0  0  0  0  0  0  0  0  0  0
    2.5378    0.2430    0.3070 C   0  0  0  0  0  0  0  0  0  0  0  0
    3.5611   -0.5094    0.7781 C   0  0  0  0  0  0  0  0  0  0  0  0
    4.8524   -0.0192    0.6410 C   0  0  0  0  0  0  0  0  0  0  0  0
    5.1240    1.1934    0.0486 C   0  0  0  0  0  0  0  0  0  0  0  0
    4.0756    1.9576   -0.4279 C   0  0  0  0  0  0  0  0  0  0  0  0
    2.7968    1.4889   -0.3009 C   0  0  0  0  0  0  0  0  0  0  0  0
    6.5357    1.6162   -0.0724 C   0  0  0  0  0  0  0  0  0  0  0  0
    7.2840    0.9690    0.8958 F   0  0  0  0  0  0  0  0  0  0  0  0
    6.6201    2.9844    0.0288 F   0  0  0  0  0  0  0  0  0  0  0  0
    7.0574    1.1967   -1.3147 F   0  0  0  0  0  0  0  0  0  0  0  0
   -4.5760    3.4615   -1.4510 H   0  0  0  0  0  0  0  0  0  0  0  0
   -6.1381    3.5542   -0.4540 H   0  0  0  0  0  0  0  0  0  0  0  0
   -4.5312    3.9935    0.2565 H   0  0  0  0  0  0  0  0  0  0  0  0
   -2.8528    1.5264   -0.8141 H   0  0  0  0  0  0  0  0  0  0  0  0
   -5.6611   -0.9009    1.2975 H   0  0  0  0  0  0  0  0  0  0  0  0
   -4.4034   -2.7623    0.1889 H   0  0  0  0  0  0  0  0  0  0  0  0
   -0.4337   -5.0834    0.9348 H   0  0  0  0  0  0  0  0  0  0  0  0
    0.6844   -4.3809   -0.2711 H   0  0  0  0  0  0  0  0  0  0  0  0
   -1.3349    0.1226    0.3060 H   0  0  0  0  0  0  0  0  0  0  0  0
    0.4449    0.5933    0.3420 H   0  0  0  0  0  0  0  0  0  0  0  0
    3.4567   -1.4631    1.2720 H   0  0  0  0  0  0  0  0  0  0  0  0
    5.6572   -0.6429    1.0239 H   0  0  0  0  0  0  0  0  0  0  0  0
    4.2922    2.9283   -0.9020 H   0  0  0  0  0  0  0  0  0  0  0  0
    1.9513    2.0807   -0.6717 H   0  0  0  0  0  0  0  0  0  0  0  0
  1  2  1  0
  2  3  1  0
  3  4  2  0
  4  5  1  0
  5  6  2  0
  4  7  1  0
  7  8  2  0
  8  9  1  0
  9 10  2  0
 10 11  1  0
 10 12  1  0
 12 13  2  0
 12 14  1  0
 14 15  2  0
 14 16  1  0
 16 17  1  0
 17 18  2  0
 18 19  1  0
 19 20  2  0
 20 21  1  0
 21 22  2  0
 20 23  1  0
 23 24  1  0
 23 25  1  0
 23 26  1  0
  6  2  1  0
 13  7  1  0
 22 17  1  0
  1 27  1  0
  1 28  1  0
  1 29  1  0
  3 30  1  0
  5 31  1  0
  8 32  1  0
 11 33  1  0
 11 34  1  0
 13 35  1  0
 16 36  1  0
 18 37  1  0
 19 38  1  0
 21 39  1  0
 22 40  1  0
M  END
$$$$
[H]OC([H])([H])[C@@]1([H])O[C@]([H])(n2c([H])nc3c(N([H])C([H])([H])c4c([H])c([H])c([H])c(Cl)c4[H])c([H])c([H])c([H])c32)[C@]([H])(O[H])[C@]1([H])O[H]
     RDKit          3D

 47 50  0  0  0  0  0  0  0  0999 V2000
   -6.1884   -2.3981    0.3378 O   0  0  0  0  0  0  0  0  0  0  0  0
   -4.9034   -2.0919    0.8363 C   0  0  0  0  0  0  0  0  0  0  0  0
   -4.8696   -0.5858    1.0975 C   0  0  1  0  0  0  0  0  0  0  0  0
   -3.6173   -0.2393    1.5937 O   0  0  0  0  0  0  0  0  0  0  0  0
   -2.8689   -0.0203    0.4740 C   0  0  1  0  0  0  0  0  0  0  0  0
   -3.7796    0.9357   -0.3096 C   0  0  2  0  0  0  0  0  0  0  0  0
   -3.9720    2.1131    0.3995 O   0  0  0  0  0  0  0  0  0  0  0  0
   -5.0761    0.1176   -0.2129 C   0  0  2  0  0  0  0  0  0  0  0  0
   -6.1925    0.9432   -0.2243 O   0  0  0  0  0  0  0  0  0  0  0  0
   -1.5818    0.5744    0.7209 N   0  0  0  0  0  0  0  0  0  0  0  0
   -1.1604    1.3726    1.7040 C   0  0  0  0  0  0  0  0  0  0  0  0
    0.1391    1.6891    1.5284 N   0  0  0  0  0  0  0  0  0  0  0  0
    0.5344    1.0697    0.4049 C   0  0  0  0  0  0  0  0  0  0  0  0
    1.7795    1.0565   -0.2364 C   0  0  0  0  0  0  0  0  0  0  0  0
    2.8554    1.7972    0.3141 N   0  0  0  0  0  0  0  0  0  0  0  0
    4.1899    1.8067   -0.2276 C   0  0  0  0  0  0  0  0  0  0  0  0
    4.8681    0.4828   -0.1295 C   0  0  0  0  0  0  0  0  0  0  0  0
    4.3720   -0.4892    0.7202 C   0  0  0  0  0  0  0  0  0  0  0  0
    4.9878   -1.7173    0.8200 C   0  0  0  0  0  0  0  0  0  0  0  0
    6.1073   -1.9758    0.0651 C   0  0  0  0  0  0  0  0  0  0  0  0
    6.6336   -1.0403   -0.7910 C   0  0  0  0  0  0  0  0  0  0  0  0
    8.0491   -1.4100   -1.7252 Cl  0  0  0  0  0  0  0  0  0  0  0  0
    5.9907    0.1785   -0.8651 C   0  0  0  0  0  0  0  0  0  0  0  0
    1.9103    0.3237   -1.3980 C   0  0  0  0  0  0  0  0  0  0  0  0
    0.8506   -0.3827   -1.9248 C   0  0  0  0  0  0  0  0  0  0  0  0
   -0.3583   -0.3487   -1.2703 C   0  0  0  0  0  0  0  0  0  0  0  0
   -0.5231    0.3852   -0.0906 C   0  0  0  0  0  0  0  0  0  0  0  0
   -6.1919   -3.3631    0.1062 H   0  0  0  0  0  0  0  0  0  0  0  0
   -4.6496   -2.6803    1.7171 H   0  0  0  0  0  0  0  0  0  0  0  0
   -4.2103   -2.3698    0.0172 H   0  0  0  0  0  0  0  0  0  0  0  0
   -5.6802   -0.3454    1.8305 H   0  0  0  0  0  0  0  0  0  0  0  0
   -2.7671   -0.9459   -0.0972 H   0  0  0  0  0  0  0  0  0  0  0  0
   -3.4508    1.0713   -1.3377 H   0  0  0  0  0  0  0  0  0  0  0  0
   -3.7880    2.9072   -0.1604 H   0  0  0  0  0  0  0  0  0  0  0  0
   -5.0523   -0.5628   -1.0903 H   0  0  0  0  0  0  0  0  0  0  0  0
   -6.0511    1.6964    0.3946 H   0  0  0  0  0  0  0  0  0  0  0  0
   -1.7921    1.7095    2.5231 H   0  0  0  0  0  0  0  0  0  0  0  0
    2.6866    2.3800    1.1693 H   0  0  0  0  0  0  0  0  0  0  0  0
    4.1757    2.0460   -1.3242 H   0  0  0  0  0  0  0  0  0  0  0  0
    4.8122    2.6012    0.2273 H   0  0  0  0  0  0  0  0  0  0  0  0
    3.4985   -0.2896    1.3105 H   0  0  0  0  0  0  0  0  0  0  0  0
    4.6070   -2.4655    1.4733 H   0  0  0  0  0  0  0  0  0  0  0  0
    6.5937   -2.9461    0.1441 H   0  0  0  0  0  0  0  0  0  0  0  0
    6.4077    0.9144   -1.5409 H   0  0  0  0  0  0  0  0  0  0  0  0
    2.8914    0.3247   -1.9005 H   0  0  0  0  0  0  0  0  0  0  0  0
    0.9907   -0.9387   -2.8260 H   0  0  0  0  0  0  0  0  0  0  0  0
   -1.2067   -0.8900   -1.6557 H   0  0  0  0  0  0  0  0  0  0  0  0
  1  2  1  0
  2  3  1  0
  3  4  1  0
  4  5  1  0
  5  6  1  0
  6  7  1  0
  6  8  1  0
  8  9  1  0
  5 10  1  0
 10 11  1  0
 11 12  2  0
 12 13  1  0
 13 14  2  0
 14 15  1  0
 15 16  1  0
 16 17  1  0
 17 18  2  0
 18 19  1  0
 19 20  2  0
 20 21  1  0
 21 22  1  0
 21 23  2  0
 14 24  1  0
 24 25  2  0
 25 26  1  0
 26 27  2  0
  8  3  1  0
 27 10  1  0
 27 13  1  0
 23 17  1  0
  1 28  1  0
  2 29  1  0
  2 30  1  0
  3 31  1  1
  5 32  1  6
  6 33  1  6
  7 34  1  0
  8 35  1  6
  9 36  1  0
 11 37  1  0
 15 38  1  0
 16 39  1  0
 16 40  1  0
 18 41  1  0
 19 42  1  0
 20 43  1  0
 23 44  1  0
 24 45  1  0
 25 46  1  0
 26 47  1  0
M  END
$$$$
[H]OC(=O)C([H])([H])[C@@]([H])(C(=O)N([H])[C@@]([H])(C(=O)N1C([H])([H])C([H])([H])C([H])([H])[C@@]1([H])C(=O)N([H])[C@@]([H])(C(=O)N([H])[H])C([H])([H])[H])C([H])([H])c1c([H])c([H])c(O[H])c([H])c1[H])N([H])C(=O)[C@@]([H])(N([H])C(=O)[C@@]([H])(N([H])C(=O)[C@]([H])(N([H])C(=O)[C@]([H])(N([H])C(=O)[C@@]([H])(N([H])C(=O)C([H])([H])[H])C([H])([H])[H])C([H])([H])[H])C([H])([H])[H])C([H])([H])c1c([H])c([H])c([H])c([H])c1[H])C([H])([H])c1c([H])c([H])c([H])c([H])c1[H]
     RDKit          3D

137140  0  0  0  0  0  0  0  0999 V2000
  -11.3950    2.9910   -2.3620 C   0  0  0  0  0  0  0  0  0  0  0  0
  -11.2219    2.8673   -0.8651 C   0  0  1  0  0  0  0  0  0  0  0  0
   -9.9973    3.4522   -0.4082 N   0  0  0  0  0  0  0  0  0  0  0  0
   -8.8986    2.6720    0.1412 C   0  0  0  0  0  0  0  0  0  0  0  0
   -9.1496    1.4449    0.1757 O   0  0  0  0  0  0  0  0  0  0  0  0
   -7.7337    3.4025    0.5447 C   0  0  2  0  0  0  0  0  0  0  0  0
   -7.2465    4.4425   -0.4598 C   0  0  0  0  0  0  0  0  0  0  0  0
   -5.9481    4.8931    0.2113 C   0  0  0  0  0  0  0  0  0  0  0  0
   -5.6880    3.8947    1.3423 C   0  0  0  0  0  0  0  0  0  0  0  0
   -6.5056    2.7465    0.8469 N   0  0  0  0  0  0  0  0  0  0  0  0
   -5.9897    1.4545    0.7187 C   0  0  0  0  0  0  0  0  0  0  0  0
   -6.6460    0.5438    0.1710 O   0  0  0  0  0  0  0  0  0  0  0  0
   -4.6163    1.1397    1.2429 C   0  0  1  0  0  0  0  0  0  0  0  0
   -4.6593    1.1114    2.7320 C   0  0  0  0  0  0  0  0  0  0  0  0
   -5.5765    0.0992    3.3233 C   0  0  0  0  0  0  0  0  0  0  0  0
   -6.8903    0.3729    3.5678 C   0  0  0  0  0  0  0  0  0  0  0  0
   -7.7005   -0.6047    4.1459 C   0  0  0  0  0  0  0  0  0  0  0  0
   -7.2115   -1.8323    4.4750 C   0  0  0  0  0  0  0  0  0  0  0  0
   -7.9775   -2.8601    5.0578 O   0  0  0  0  0  0  0  0  0  0  0  0
   -5.8964   -2.0890    4.2252 C   0  0  0  0  0  0  0  0  0  0  0  0
   -5.0748   -1.1486    3.6577 C   0  0  0  0  0  0  0  0  0  0  0  0
   -4.2379   -0.1752    0.6995 N   0  0  0  0  0  0  0  0  0  0  0  0
   -3.2282   -0.3728   -0.2546 C   0  0  0  0  0  0  0  0  0  0  0  0
   -2.5690    0.6101   -0.6739 O   0  0  0  0  0  0  0  0  0  0  0  0
   -2.9464   -1.7568   -0.7805 C   0  0  2  0  0  0  0  0  0  0  0  0
   -2.6377   -2.7197    0.3222 C   0  0  0  0  0  0  0  0  0  0  0  0
   -2.4565   -4.1196   -0.0547 C   0  0  0  0  0  0  0  0  0  0  0  0
   -3.5876   -4.8963   -0.4196 O   0  0  0  0  0  0  0  0  0  0  0  0
   -1.3830   -4.7207   -0.0907 O   0  0  0  0  0  0  0  0  0  0  0  0
   -1.9586   -1.6767   -1.8006 N   0  0  0  0  0  0  0  0  0  0  0  0
   -0.5701   -1.8310   -1.7908 C   0  0  0  0  0  0  0  0  0  0  0  0
    0.0428   -2.0842   -0.7351 O   0  0  0  0  0  0  0  0  0  0  0  0
    0.2740   -1.6962   -3.0252 C   0  0  2  0  0  0  0  0  0  0  0  0
   -0.1990   -2.3543   -4.2468 C   0  0  0  0  0  0  0  0  0  0  0  0
   -0.3516   -3.8083   -4.2706 C   0  0  0  0  0  0  0  0  0  0  0  0
    0.7060   -4.6047   -4.6300 C   0  0  0  0  0  0  0  0  0  0  0  0
    0.5668   -5.9704   -4.6556 C   0  0  0  0  0  0  0  0  0  0  0  0
   -0.6294   -6.5496   -4.3242 C   0  0  0  0  0  0  0  0  0  0  0  0
   -1.7316   -5.7713   -3.9513 C   0  0  0  0  0  0  0  0  0  0  0  0
   -1.5466   -4.3943   -3.9390 C   0  0  0  0  0  0  0  0  0  0  0  0
    1.6668   -2.0190   -2.6862 N   0  0  0  0  0  0  0  0  0  0  0  0
    2.5281   -1.1512   -2.0594 C   0  0  0  0  0  0  0  0  0  0  0  0
    1.9731    0.0270   -1.7637 O   0  0  0  0  0  0  0  0  0  0  0  0
    3.9033   -1.2419   -1.6434 C   0  0  2  0  0  0  0  0  0  0  0  0
    4.8452   -2.2658   -2.0424 C   0  0  0  0  0  0  0  0  0  0  0  0
    4.7024   -3.6800   -1.8150 C   0  0  0  0  0  0  0  0  0  0  0  0
    4.3237   -4.5320   -2.8440 C   0  0  0  0  0  0  0  0  0  0  0  0
    4.1797   -5.8916   -2.7231 C   0  0  0  0  0  0  0  0  0  0  0  0
    4.4311   -6.4493   -1.4887 C   0  0  0  0  0  0  0  0  0  0  0  0
    4.8121   -5.6273   -0.4335 C   0  0  0  0  0  0  0  0  0  0  0  0
    4.9507   -4.2474   -0.5821 C   0  0  0  0  0  0  0  0  0  0  0  0
    4.0909   -0.7713   -0.2651 N   0  0  0  0  0  0  0  0  0  0  0  0
    5.2041    0.0025    0.0877 C   0  0  0  0  0  0  0  0  0  0  0  0
    6.0832    0.2930   -0.7724 O   0  0  0  0  0  0  0  0  0  0  0  0
    5.3859    0.5109    1.4971 C   0  0  1  0  0  0  0  0  0  0  0  0
    4.2985    0.1585    2.4246 C   0  0  0  0  0  0  0  0  0  0  0  0
    6.7217    0.3553    2.0009 N   0  0  0  0  0  0  0  0  0  0  0  0
    7.8014    1.2270    1.7564 C   0  0  0  0  0  0  0  0  0  0  0  0
    7.6806    2.2292    1.0336 O   0  0  0  0  0  0  0  0  0  0  0  0
    9.1432    0.9497    2.3835 C   0  0  1  0  0  0  0  0  0  0  0  0
    9.5506   -0.4644    2.3032 C   0  0  0  0  0  0  0  0  0  0  0  0
   10.1676    1.8298    1.8988 N   0  0  0  0  0  0  0  0  0  0  0  0
   10.3536    3.1686    2.3009 C   0  0  0  0  0  0  0  0  0  0  0  0
    9.5917    3.6930    3.1325 O   0  0  0  0  0  0  0  0  0  0  0  0
   11.4722    3.9453    1.7196 C   0  0  2  0  0  0  0  0  0  0  0  0
   12.6582    3.9759    2.6955 C   0  0  0  0  0  0  0  0  0  0  0  0
   11.0830    5.3380    1.5391 N   0  0  0  0  0  0  0  0  0  0  0  0
   11.1627    5.9426    0.2566 C   0  0  0  0  0  0  0  0  0  0  0  0
   10.7817    7.3551    0.0684 C   0  0  0  0  0  0  0  0  0  0  0  0
   11.5606    5.2757   -0.7257 O   0  0  0  0  0  0  0  0  0  0  0  0
  -12.4016    3.3279   -0.1416 C   0  0  0  0  0  0  0  0  0  0  0  0
  -13.6667    2.7897   -0.5233 N   0  0  0  0  0  0  0  0  0  0  0  0
  -12.4197    4.1657    0.8026 O   0  0  0  0  0  0  0  0  0  0  0  0
  -10.6678    2.3507   -2.9109 H   0  0  0  0  0  0  0  0  0  0  0  0
  -11.3178    4.0443   -2.7028 H   0  0  0  0  0  0  0  0  0  0  0  0
  -12.3926    2.6238   -2.6629 H   0  0  0  0  0  0  0  0  0  0  0  0
  -11.1384    1.7445   -0.6881 H   0  0  0  0  0  0  0  0  0  0  0  0
   -9.8811    4.4614   -0.4641 H   0  0  0  0  0  0  0  0  0  0  0  0
   -7.9818    4.0172    1.4656 H   0  0  0  0  0  0  0  0  0  0  0  0
   -6.9999    3.9876   -1.4381 H   0  0  0  0  0  0  0  0  0  0  0  0
   -7.9652    5.2417   -0.6084 H   0  0  0  0  0  0  0  0  0  0  0  0
   -6.0278    5.9127    0.6007 H   0  0  0  0  0  0  0  0  0  0  0  0
   -5.1118    4.7655   -0.4961 H   0  0  0  0  0  0  0  0  0  0  0  0
   -6.1996    4.2237    2.2678 H   0  0  0  0  0  0  0  0  0  0  0  0
   -4.6381    3.6544    1.4311 H   0  0  0  0  0  0  0  0  0  0  0  0
   -3.9213    1.8750    0.8328 H   0  0  0  0  0  0  0  0  0  0  0  0
   -4.8859    2.1169    3.1489 H   0  0  0  0  0  0  0  0  0  0  0  0
   -3.6130    0.8269    3.0649 H   0  0  0  0  0  0  0  0  0  0  0  0
   -7.3671    1.3301    3.3442 H   0  0  0  0  0  0  0  0  0  0  0  0
   -8.7484   -0.4006    4.3499 H   0  0  0  0  0  0  0  0  0  0  0  0
   -7.5700   -3.7464    5.2815 H   0  0  0  0  0  0  0  0  0  0  0  0
   -5.4862   -3.0725    4.4833 H   0  0  0  0  0  0  0  0  0  0  0  0
   -4.0210   -1.3277    3.4518 H   0  0  0  0  0  0  0  0  0  0  0  0
   -4.7675   -0.9924    1.0573 H   0  0  0  0  0  0  0  0  0  0  0  0
   -3.9013   -2.1711   -1.2607 H   0  0  0  0  0  0  0  0  0  0  0  0
   -1.7496   -2.3539    0.9324 H   0  0  0  0  0  0  0  0  0  0  0  0
   -3.4684   -2.7075    1.0969 H   0  0  0  0  0  0  0  0  0  0  0  0
   -4.2075   -5.1962    0.3647 H   0  0  0  0  0  0  0  0  0  0  0  0
   -2.3338   -1.4419   -2.8118 H   0  0  0  0  0  0  0  0  0  0  0  0
    0.2956   -0.5735   -3.1728 H   0  0  0  0  0  0  0  0  0  0  0  0
    0.5466   -2.1116   -5.0580 H   0  0  0  0  0  0  0  0  0  0  0  0
   -1.1397   -1.8662   -4.6160 H   0  0  0  0  0  0  0  0  0  0  0  0
    1.6742   -4.1772   -4.9178 H   0  0  0  0  0  0  0  0  0  0  0  0
    1.4267   -6.6124   -4.9341 H   0  0  0  0  0  0  0  0  0  0  0  0
   -0.7555   -7.6443   -4.3381 H   0  0  0  0  0  0  0  0  0  0  0  0
   -2.6681   -6.2342   -3.6907 H   0  0  0  0  0  0  0  0  0  0  0  0
   -2.4431   -3.8345   -3.6502 H   0  0  0  0  0  0  0  0  0  0  0  0
    1.9379   -2.9776   -2.9551 H   0  0  0  0  0  0  0  0  0  0  0  0
    4.3874   -0.2741   -2.2025 H   0  0  0  0  0  0  0  0  0  0  0  0
    5.8825   -1.9353   -1.6572 H   0  0  0  0  0  0  0  0  0  0  0  0
    5.0385   -2.1161   -3.1883 H   0  0  0  0  0  0  0  0  0  0  0  0
    4.1143   -4.1197   -3.8356 H   0  0  0  0  0  0  0  0  0  0  0  0
    3.8919   -6.5445   -3.5205 H   0  0  0  0  0  0  0  0  0  0  0  0
    4.3222   -7.5098   -1.3694 H   0  0  0  0  0  0  0  0  0  0  0  0
    5.0091   -6.0709    0.5354 H   0  0  0  0  0  0  0  0  0  0  0  0
    5.2543   -3.6901    0.2898 H   0  0  0  0  0  0  0  0  0  0  0  0
    3.3826   -1.0101    0.4724 H   0  0  0  0  0  0  0  0  0  0  0  0
    5.3051    1.6598    1.3287 H   0  0  0  0  0  0  0  0  0  0  0  0
    3.4185    0.8553    2.3479 H   0  0  0  0  0  0  0  0  0  0  0  0
    4.6873    0.2977    3.4870 H   0  0  0  0  0  0  0  0  0  0  0  0
    3.9415   -0.8933    2.3923 H   0  0  0  0  0  0  0  0  0  0  0  0
    6.8480   -0.5172    2.6108 H   0  0  0  0  0  0  0  0  0  0  0  0
    8.9387    1.2688    3.4644 H   0  0  0  0  0  0  0  0  0  0  0  0
    9.2625   -0.9543    1.3389 H   0  0  0  0  0  0  0  0  0  0  0  0
   10.6619   -0.5086    2.4017 H   0  0  0  0  0  0  0  0  0  0  0  0
    9.1037   -1.0811    3.1419 H   0  0  0  0  0  0  0  0  0  0  0  0
   10.8299    1.4070    1.1707 H   0  0  0  0  0  0  0  0  0  0  0  0
   11.8577    3.5283    0.7702 H   0  0  0  0  0  0  0  0  0  0  0  0
   13.4262    4.6303    2.2883 H   0  0  0  0  0  0  0  0  0  0  0  0
   12.3026    4.3024    3.6843 H   0  0  0  0  0  0  0  0  0  0  0  0
   13.0330    2.9480    2.7797 H   0  0  0  0  0  0  0  0  0  0  0  0
   10.7485    5.8729    2.3480 H   0  0  0  0  0  0  0  0  0  0  0  0
   10.6657    7.5634   -1.0194 H   0  0  0  0  0  0  0  0  0  0  0  0
   11.5349    8.0598    0.4749 H   0  0  0  0  0  0  0  0  0  0  0  0
    9.8327    7.6253    0.5918 H   0  0  0  0  0  0  0  0  0  0  0  0
  -14.2988    2.2829    0.1509 H   0  0  0  0  0  0  0  0  0  0  0  0
  -14.0462    2.8677   -1.5078 H   0  0  0  0  0  0  0  0  0  0  0  0
  1  2  1  0
  2  3  1  0
  3  4  1  0
  4  5  2  0
  4  6  1  0
  6  7  1  0
  7  8  1  0
  8  9  1  0
  9 10  1  0
 10 11  1  0
 11 12  2  0
 11 13  1  0
 13 14  1  0
 14 15  1  0
 15 16  2  0
 16 17  1  0
 17 18  2  0
 18 19  1  0
 18 20  1  0
 20 21  2  0
 13 22  1  0
 22 23  1  0
 23 24  2  0
 23 25  1  0
 25 26  1  0
 26 27  1  0
 27 28  1  0
 27 29  2  0
 25 30  1  0
 30 31  1  0
 31 32  2  0
 31 33  1  0
 33 34  1  0
 34 35  1  0
 35 36  2  0
 36 37  1  0
 37 38  2  0
 38 39  1  0
 39 40  2  0
 33 41  1  0
 41 42  1  0
 42 43  2  0
 42 44  1  0
 44 45  1  0
 45 46  1  0
 46 47  2  0
 47 48  1  0
 48 49  2  0
 49 50  1  0
 50 51  2  0
 44 52  1  0
 52 53  1  0
 53 54  2  0
 53 55  1  0
 55 56  1  0
 55 57  1  0
 57 58  1  0
 58 59  2  0
 58 60  1  0
 60 61  1  0
 60 62  1  0
 62 63  1  0
 63 64  2  0
 63 65  1  0
 65 66  1  0
 65 67  1  0
 67 68  1  0
 68 69  1  0
 68 70  2  0
  2 71  1  0
 71 72  1  0
 71 73  2  0
 10  6  1  0
 21 15  1  0
 40 35  1  0
 51 46  1  0
  1 74  1  0
  1 75  1  0
  1 76  1  0
  2 77  1  6
  3 78  1  0
  6 79  1  1
  7 80  1  0
  7 81  1  0
  8 82  1  0
  8 83  1  0
  9 84  1  0
  9 85  1  0
 13 86  1  1
 14 87  1  0
 14 88  1  0
 16 89  1  0
 17 90  1  0
 19 91  1  0
 20 92  1  0
 21 93  1  0
 22 94  1  0
 25 95  1  6
 26 96  1  0
 26 97  1  0
 28 98  1  0
 30 99  1  0
 33100  1  6
 34101  1  0
 34102  1  0
 36103  1  0
 37104  1  0
 38105  1  0
 39106  1  0
 40107  1  0
 41108  1  0
 44109  1  6
 45110  1  0
 45111  1  0
 47112  1  0
 48113  1  0
 49114  1  0
 50115  1  0
 51116  1  0
 52117  1  0
 55118  1  6
 56119  1  0
 56120  1  0
 56121  1  0
 57122  1  0
 60123  1  1
 61124  1  0
 61125  1  0
 61126  1  0
 62127  1  0
 65128  1  6
 66129  1  0
 66130  1  0
 66131  1  0
 67132  1  0
 69133  1  0
 69134  1  0
 69135  1  0
 72136  1  0
 72137  1  0
M  END
$$$$
[H]c1nc([C@@]2([H])C([H])([H])[C@]2([H])C([H])([H])Oc2nc(C([H])([H])[H])nc([H])c2-c2nn([H])c(=O)c([H])c2[H])c([H])c([H])c1OC([H])([H])[H]
     RDKit          3D

 46 49  0  0  0  0  0  0  0  0999 V2000
    7.6570    0.3013   -0.7780 C   0  0  0  0  0  0  0  0  0  0  0  0
    7.0013   -0.7947   -0.1846 O   0  0  0  0  0  0  0  0  0  0  0  0
    5.6224   -0.8006   -0.1169 C   0  0  0  0  0  0  0  0  0  0  0  0
    4.9262    0.2663   -0.6320 C   0  0  0  0  0  0  0  0  0  0  0  0
    3.5410    0.2572   -0.5624 C   0  0  0  0  0  0  0  0  0  0  0  0
    2.8980   -0.8117    0.0163 C   0  0  0  0  0  0  0  0  0  0  0  0
    3.5839   -1.8610    0.5230 N   0  0  0  0  0  0  0  0  0  0  0  0
    4.9195   -1.8565    0.4581 C   0  0  0  0  0  0  0  0  0  0  0  0
    1.3919   -0.7654    0.0568 C   0  0  1  0  0  0  0  0  0  0  0  0
    0.8400    0.6042    0.2957 C   0  0  0  0  0  0  0  0  0  0  0  0
    0.6936   -0.0976   -1.0346 C   0  0  2  0  0  0  0  0  0  0  0  0
   -0.6857   -0.3312   -1.5086 C   0  0  0  0  0  0  0  0  0  0  0  0
   -1.7557   -0.1680   -0.7236 O   0  0  0  0  0  0  0  0  0  0  0  0
   -2.3818   -0.5745    0.3641 C   0  0  0  0  0  0  0  0  0  0  0  0
   -1.9308   -1.5570    1.1564 N   0  0  0  0  0  0  0  0  0  0  0  0
   -2.4992   -2.0206    2.2561 C   0  0  0  0  0  0  0  0  0  0  0  0
   -1.9099   -3.1205    3.0646 C   0  0  0  0  0  0  0  0  0  0  0  0
   -3.6623   -1.4434    2.6254 N   0  0  0  0  0  0  0  0  0  0  0  0
   -4.1818   -0.4481    1.8810 C   0  0  0  0  0  0  0  0  0  0  0  0
   -3.6012    0.0393    0.7406 C   0  0  0  0  0  0  0  0  0  0  0  0
   -4.1467    1.1108   -0.0737 C   0  0  0  0  0  0  0  0  0  0  0  0
   -5.3231    1.7212    0.2669 C   0  0  0  0  0  0  0  0  0  0  0  0
   -5.8561    2.7588   -0.5171 C   0  0  0  0  0  0  0  0  0  0  0  0
   -5.1586    3.1284   -1.6209 C   0  0  0  0  0  0  0  0  0  0  0  0
   -5.5401    4.0551   -2.4089 O   0  0  0  0  0  0  0  0  0  0  0  0
   -4.0202    2.5229   -1.9321 N   0  0  0  0  0  0  0  0  0  0  0  0
   -3.5291    1.5463   -1.1844 N   0  0  0  0  0  0  0  0  0  0  0  0
    7.3253    0.3961   -1.8516 H   0  0  0  0  0  0  0  0  0  0  0  0
    8.7523    0.2369   -0.7070 H   0  0  0  0  0  0  0  0  0  0  0  0
    7.2725    1.2280   -0.2775 H   0  0  0  0  0  0  0  0  0  0  0  0
    5.4054    1.1184   -1.0920 H   0  0  0  0  0  0  0  0  0  0  0  0
    3.0280    1.1080   -0.9711 H   0  0  0  0  0  0  0  0  0  0  0  0
    5.5385   -2.6682    0.8459 H   0  0  0  0  0  0  0  0  0  0  0  0
    0.9873   -1.5705    0.6594 H   0  0  0  0  0  0  0  0  0  0  0  0
   -0.0442    0.7659    0.9441 H   0  0  0  0  0  0  0  0  0  0  0  0
    1.5415    1.4688    0.3662 H   0  0  0  0  0  0  0  0  0  0  0  0
    1.3938    0.3343   -1.8264 H   0  0  0  0  0  0  0  0  0  0  0  0
   -0.7003   -1.4302   -1.8549 H   0  0  0  0  0  0  0  0  0  0  0  0
   -0.7754    0.1858   -2.5259 H   0  0  0  0  0  0  0  0  0  0  0  0
   -2.0951   -4.0620    2.4795 H   0  0  0  0  0  0  0  0  0  0  0  0
   -0.8146   -3.0180    3.1827 H   0  0  0  0  0  0  0  0  0  0  0  0
   -2.4396   -3.2115    4.0316 H   0  0  0  0  0  0  0  0  0  0  0  0
   -5.1217   -0.0268    2.2350 H   0  0  0  0  0  0  0  0  0  0  0  0
   -5.8954    1.4405    1.1447 H   0  0  0  0  0  0  0  0  0  0  0  0
   -6.7800    3.2546   -0.2698 H   0  0  0  0  0  0  0  0  0  0  0  0
   -3.4706    2.7892   -2.7712 H   0  0  0  0  0  0  0  0  0  0  0  0
  1  2  1  0
  2  3  1  0
  3  4  2  0
  4  5  1  0
  5  6  2  0
  6  7  1  0
  7  8  2  0
  6  9  1  0
  9 10  1  0
 10 11  1  0
 11 12  1  0
 12 13  1  0
 13 14  1  0
 14 15  2  0
 15 16  1  0
 16 17  1  0
 16 18  2  0
 18 19  1  0
 19 20  2  0
 20 21  1  0
 21 22  1  0
 22 23  2  0
 23 24  1  0
 24 25  2  0
 24 26  1  0
 26 27  1  0
  8  3  1  0
 11  9  1  0
 20 14  1  0
 27 21  2  0
  1 28  1  0
  1 29  1  0
  1 30  1  0
  4 31  1  0
  5 32  1  0
  8 33  1  0
  9 34  1  1
 10 35  1  0
 10 36  1  0
 11 37  1  6
 12 38  1  0
 12 39  1  0
 17 40  1  0
 17 41  1  0
 17 42  1  0
 19 43  1  0
 22 44  1  0
 23 45  1  0
 26 46  1  0
M  END
$$$$
[H]OC(=O)[C@@]([H])(N([H])C(=O)[C@@]([H])(N([H])C(=O)[C@@]([H])(N([H])C(=O)[C@]([H])(N([H])C(=O)OC([H])([H])c1c([H])c([H])c([H])c([H])c1[H])C([H])([H])c1c([H])c([H])c([H])c([H])c1[H])C([H])(C([H])([H])[H])C([H])([H])[H])C([H])([H])c1c([H])c([H])c([H])c([H])c1[H])C([H])([H])c1c([H])c([H])c([H])c([H])c1[H]
     RDKit          3D

 95 98  0  0  0  0  0  0  0  0999 V2000
   -1.7693   -2.2780    2.1805 C   0  0  0  0  0  0  0  0  0  0  0  0
   -0.3159   -1.9262    2.3299 C   0  0  0  0  0  0  0  0  0  0  0  0
    0.3463   -3.0969    3.0238 C   0  0  0  0  0  0  0  0  0  0  0  0
    0.3755   -1.4417    1.1188 C   0  0  2  0  0  0  0  0  0  0  0  0
    1.7777   -1.1841    1.4765 N   0  0  0  0  0  0  0  0  0  0  0  0
    2.8632   -1.3820    0.6149 C   0  0  0  0  0  0  0  0  0  0  0  0
    2.6432   -1.8093   -0.5468 O   0  0  0  0  0  0  0  0  0  0  0  0
    4.2297   -1.0928    1.0410 C   0  0  1  0  0  0  0  0  0  0  0  0
    4.8370   -2.1115    1.9857 C   0  0  0  0  0  0  0  0  0  0  0  0
    4.9687   -3.4570    1.4528 C   0  0  0  0  0  0  0  0  0  0  0  0
    3.9780   -4.3877    1.5980 C   0  0  0  0  0  0  0  0  0  0  0  0
    4.0743   -5.6906    1.0972 C   0  0  0  0  0  0  0  0  0  0  0  0
    5.2168   -6.0375    0.4341 C   0  0  0  0  0  0  0  0  0  0  0  0
    6.2395   -5.1223    0.2689 C   0  0  0  0  0  0  0  0  0  0  0  0
    6.1139   -3.8524    0.7718 C   0  0  0  0  0  0  0  0  0  0  0  0
    5.1407   -1.0639   -0.1137 N   0  0  0  0  0  0  0  0  0  0  0  0
    5.8945    0.1219   -0.3070 C   0  0  0  0  0  0  0  0  0  0  0  0
    5.7901    1.1065    0.4764 O   0  0  0  0  0  0  0  0  0  0  0  0
    6.7752    0.2482   -1.3633 O   0  0  0  0  0  0  0  0  0  0  0  0
    7.5680    1.3565   -1.6598 C   0  0  0  0  0  0  0  0  0  0  0  0
    6.8141    2.6031   -1.9190 C   0  0  0  0  0  0  0  0  0  0  0  0
    6.7570    3.6361   -0.9790 C   0  0  0  0  0  0  0  0  0  0  0  0
    6.0515    4.7901   -1.2234 C   0  0  0  0  0  0  0  0  0  0  0  0
    5.3852    4.9478   -2.4072 C   0  0  0  0  0  0  0  0  0  0  0  0
    5.4441    3.9185   -3.3399 C   0  0  0  0  0  0  0  0  0  0  0  0
    6.1461    2.7662   -3.1007 C   0  0  0  0  0  0  0  0  0  0  0  0
   -0.2025   -0.2048    0.5217 C   0  0  0  0  0  0  0  0  0  0  0  0
    0.5250    0.8311    0.5332 O   0  0  0  0  0  0  0  0  0  0  0  0
   -1.4731   -0.1117   -0.0461 N   0  0  0  0  0  0  0  0  0  0  0  0
   -2.0403    1.0882   -0.6321 C   0  0  1  0  0  0  0  0  0  0  0  0
   -2.3137    1.0359   -2.0738 C   0  0  0  0  0  0  0  0  0  0  0  0
   -3.2241    0.0303   -2.5890 C   0  0  0  0  0  0  0  0  0  0  0  0
   -4.5605    0.2802   -2.7533 C   0  0  0  0  0  0  0  0  0  0  0  0
   -5.3431   -0.7330   -3.2664 C   0  0  0  0  0  0  0  0  0  0  0  0
   -4.8479   -1.9699   -3.6163 C   0  0  0  0  0  0  0  0  0  0  0  0
   -3.4878   -2.2180   -3.4464 C   0  0  0  0  0  0  0  0  0  0  0  0
   -2.7062   -1.2027   -2.9330 C   0  0  0  0  0  0  0  0  0  0  0  0
   -3.0026    1.7432    0.2610 C   0  0  0  0  0  0  0  0  0  0  0  0
   -3.0821    1.2810    1.4326 O   0  0  0  0  0  0  0  0  0  0  0  0
   -3.8274    2.8346   -0.0810 N   0  0  0  0  0  0  0  0  0  0  0  0
   -4.7559    3.5220    0.7452 C   0  0  1  0  0  0  0  0  0  0  0  0
   -5.6779    2.7272    1.6119 C   0  0  0  0  0  0  0  0  0  0  0  0
   -6.6147    1.8513    0.8994 C   0  0  0  0  0  0  0  0  0  0  0  0
   -6.4834    0.5306    0.6015 C   0  0  0  0  0  0  0  0  0  0  0  0
   -7.4346   -0.2314   -0.0694 C   0  0  0  0  0  0  0  0  0  0  0  0
   -8.5907    0.4008   -0.4581 C   0  0  0  0  0  0  0  0  0  0  0  0
   -8.7896    1.7376   -0.1890 C   0  0  0  0  0  0  0  0  0  0  0  0
   -7.8213    2.4527    0.4774 C   0  0  0  0  0  0  0  0  0  0  0  0
   -4.0999    4.6118    1.5404 C   0  0  0  0  0  0  0  0  0  0  0  0
   -4.8341    5.3861    2.4060 O   0  0  0  0  0  0  0  0  0  0  0  0
   -2.8805    4.8003    1.4006 O   0  0  0  0  0  0  0  0  0  0  0  0
   -2.1131   -2.9261    3.0420 H   0  0  0  0  0  0  0  0  0  0  0  0
   -1.9228   -2.8674    1.2468 H   0  0  0  0  0  0  0  0  0  0  0  0
   -2.4446   -1.4172    2.1850 H   0  0  0  0  0  0  0  0  0  0  0  0
   -0.3095   -1.1076    3.1339 H   0  0  0  0  0  0  0  0  0  0  0  0
    1.4098   -2.8346    3.2653 H   0  0  0  0  0  0  0  0  0  0  0  0
    0.2570   -4.0299    2.4601 H   0  0  0  0  0  0  0  0  0  0  0  0
   -0.1488   -3.1883    4.0312 H   0  0  0  0  0  0  0  0  0  0  0  0
    0.3809   -2.1824    0.3155 H   0  0  0  0  0  0  0  0  0  0  0  0
    1.9412   -0.8314    2.4359 H   0  0  0  0  0  0  0  0  0  0  0  0
    4.2757   -0.1110    1.5240 H   0  0  0  0  0  0  0  0  0  0  0  0
    5.8218   -1.7132    2.3006 H   0  0  0  0  0  0  0  0  0  0  0  0
    4.1799   -2.1339    2.8936 H   0  0  0  0  0  0  0  0  0  0  0  0
    3.0579   -4.1751    2.1136 H   0  0  0  0  0  0  0  0  0  0  0  0
    3.2771   -6.4149    1.2223 H   0  0  0  0  0  0  0  0  0  0  0  0
    5.3188   -7.0490    0.0317 H   0  0  0  0  0  0  0  0  0  0  0  0
    7.1258   -5.4718   -0.2738 H   0  0  0  0  0  0  0  0  0  0  0  0
    6.9398   -3.1667    0.6196 H   0  0  0  0  0  0  0  0  0  0  0  0
    5.2008   -1.8747   -0.7299 H   0  0  0  0  0  0  0  0  0  0  0  0
    8.3079    1.5838   -0.8382 H   0  0  0  0  0  0  0  0  0  0  0  0
    8.2128    1.0797   -2.5291 H   0  0  0  0  0  0  0  0  0  0  0  0
    7.2779    3.5314   -0.0381 H   0  0  0  0  0  0  0  0  0  0  0  0
    6.0138    5.5864   -0.4854 H   0  0  0  0  0  0  0  0  0  0  0  0
    4.8197    5.8456   -2.6306 H   0  0  0  0  0  0  0  0  0  0  0  0
    4.9261    4.0252   -4.2755 H   0  0  0  0  0  0  0  0  0  0  0  0
    6.1691    1.9965   -3.8402 H   0  0  0  0  0  0  0  0  0  0  0  0
   -2.0822   -0.9495   -0.0844 H   0  0  0  0  0  0  0  0  0  0  0  0
   -1.1231    1.8273   -0.5596 H   0  0  0  0  0  0  0  0  0  0  0  0
   -2.6126    2.0835   -2.3961 H   0  0  0  0  0  0  0  0  0  0  0  0
   -1.3061    0.9251   -2.5911 H   0  0  0  0  0  0  0  0  0  0  0  0
   -5.0358    1.2096   -2.5103 H   0  0  0  0  0  0  0  0  0  0  0  0
   -6.4246   -0.5998   -3.4247 H   0  0  0  0  0  0  0  0  0  0  0  0
   -5.4449   -2.7746   -4.0192 H   0  0  0  0  0  0  0  0  0  0  0  0
   -3.0499   -3.1888   -3.7115 H   0  0  0  0  0  0  0  0  0  0  0  0
   -1.6427   -1.4496   -2.8194 H   0  0  0  0  0  0  0  0  0  0  0  0
   -3.7139    3.1639   -1.1032 H   0  0  0  0  0  0  0  0  0  0  0  0
   -5.5193    4.0447    0.0214 H   0  0  0  0  0  0  0  0  0  0  0  0
   -5.0932    2.1443    2.3832 H   0  0  0  0  0  0  0  0  0  0  0  0
   -6.3159    3.4608    2.2263 H   0  0  0  0  0  0  0  0  0  0  0  0
   -5.5590    0.0444    0.9251 H   0  0  0  0  0  0  0  0  0  0  0  0
   -7.2449   -1.2931   -0.2674 H   0  0  0  0  0  0  0  0  0  0  0  0
   -9.3431   -0.1762   -0.9811 H   0  0  0  0  0  0  0  0  0  0  0  0
   -9.7241    2.1961   -0.5167 H   0  0  0  0  0  0  0  0  0  0  0  0
   -8.0098    3.4983    0.6727 H   0  0  0  0  0  0  0  0  0  0  0  0
   -4.5057    5.6455    3.3436 H   0  0  0  0  0  0  0  0  0  0  0  0
  1  2  1  0
  2  3  1  0
  2  4  1  0
  4  5  1  0
  5  6  1  0
  6  7  2  0
  6  8  1  0
  8  9  1  0
  9 10  1  0
 10 11  2  0
 11 12  1  0
 12 13  2  0
 13 14  1  0
 14 15  2  0
  8 16  1  0
 16 17  1  0
 17 18  2  0
 17 19  1  0
 19 20  1  0
 20 21  1  0
 21 22  2  0
 22 23  1  0
 23 24  2  0
 24 25  1  0
 25 26  2  0
  4 27  1  0
 27 28  2  0
 27 29  1  0
 29 30  1  0
 30 31  1  0
 31 32  1  0
 32 33  2  0
 33 34  1  0
 34 35  2  0
 35 36  1  0
 36 37  2  0
 30 38  1  0
 38 39  2  0
 38 40  1  0
 40 41  1  0
 41 42  1  0
 42 43  1  0
 43 44  2  0
 44 45  1  0
 45 46  2  0
 46 47  1  0
 47 48  2  0
 41 49  1  0
 49 50  1  0
 49 51  2  0
 15 10  1  0
 26 21  1  0
 37 32  1  0
 48 43  1  0
  1 52  1  0
  1 53  1  0
  1 54  1  0
  2 55  1  0
  3 56  1  0
  3 57  1  0
  3 58  1  0
  4 59  1  6
  5 60  1  0
  8 61  1  1
  9 62  1  0
  9 63  1  0
 11 64  1  0
 12 65  1  0
 13 66  1  0
 14 67  1  0
 15 68  1  0
 16 69  1  0
 20 70  1  0
 20 71  1  0
 22 72  1  0
 23 73  1  0
 24 74  1  0
 25 75  1  0
 26 76  1  0
 29 77  1  0
 30 78  1  6
 31 79  1  0
 31 80  1  0
 33 81  1  0
 34 82  1  0
 35 83  1  0
 36 84  1  0
 37 85  1  0
 40 86  1  0
 41 87  1  6
 42 88  1  0
 42 89  1  0
 44 90  1  0
 45 91  1  0
 46 92  1  0
 47 93  1  0
 48 94  1  0
 50 95  1  0
M  END
$$$$
[H]/C(C(=O)N([H])[C@]([H])(c1c([H])c([H])c(OC([H])([H])[H])c(OC([H])([H])[H])c1[H])C([H])([H])c1c([H])n([H])c2c([H])c([H])c([H])c([H])c12)=C(/[H])c1c([H])c([H])c(C(F)(F)F)c([H])c1[H]
     RDKit          3D

 61 64  0  0  0  0  0  0  0  0999 V2000
   -4.8204   -5.4972    0.9114 C   0  0  0  0  0  0  0  0  0  0  0  0
   -4.3200   -4.6232   -0.0791 O   0  0  0  0  0  0  0  0  0  0  0  0
   -3.5956   -3.4906    0.1433 C   0  0  0  0  0  0  0  0  0  0  0  0
   -3.3434   -3.0480    1.4056 C   0  0  0  0  0  0  0  0  0  0  0  0
   -2.6026   -1.8880    1.6546 C   0  0  0  0  0  0  0  0  0  0  0  0
   -2.1114   -1.1675    0.6228 C   0  0  0  0  0  0  0  0  0  0  0  0
   -2.3495   -1.5966   -0.6783 C   0  0  0  0  0  0  0  0  0  0  0  0
   -3.0807   -2.7430   -0.9234 C   0  0  0  0  0  0  0  0  0  0  0  0
   -3.3269   -3.1937   -2.1917 O   0  0  0  0  0  0  0  0  0  0  0  0
   -2.9280   -2.6522   -3.4090 C   0  0  0  0  0  0  0  0  0  0  0  0
   -1.3329    0.1523    0.8348 C   0  0  2  0  0  0  0  0  0  0  0  0
   -2.1716    1.1624    0.1118 C   0  0  0  0  0  0  0  0  0  0  0  0
   -1.7223    2.5527    0.1874 C   0  0  0  0  0  0  0  0  0  0  0  0
   -0.5060    3.1390    0.2995 C   0  0  0  0  0  0  0  0  0  0  0  0
   -0.6841    4.4852    0.3381 N   0  0  0  0  0  0  0  0  0  0  0  0
   -1.9860    4.7591    0.2547 C   0  0  0  0  0  0  0  0  0  0  0  0
   -2.6967    5.9687    0.2328 C   0  0  0  0  0  0  0  0  0  0  0  0
   -4.0606    5.9686    0.1193 C   0  0  0  0  0  0  0  0  0  0  0  0
   -4.7775    4.7884    0.0207 C   0  0  0  0  0  0  0  0  0  0  0  0
   -4.0606    3.5958    0.0449 C   0  0  0  0  0  0  0  0  0  0  0  0
   -2.6941    3.6038    0.1587 C   0  0  0  0  0  0  0  0  0  0  0  0
   -0.0980   -0.1487    0.0713 N   0  0  0  0  0  0  0  0  0  0  0  0
    1.1421   -0.0249    0.7516 C   0  0  0  0  0  0  0  0  0  0  0  0
    1.1150    0.3508    1.9756 O   0  0  0  0  0  0  0  0  0  0  0  0
    2.4205   -0.3051    0.1279 C   0  0  0  0  0  0  0  0  0  0  0  0
    3.5128   -0.1111    0.7985 C   0  0  0  0  0  0  0  0  0  0  0  0
    4.8815   -0.3268    0.3810 C   0  0  0  0  0  0  0  0  0  0  0  0
    5.9362    0.1090    1.1940 C   0  0  0  0  0  0  0  0  0  0  0  0
    7.2605   -0.1093    0.8679 C   0  0  0  0  0  0  0  0  0  0  0  0
    7.6028   -0.7808   -0.2870 C   0  0  0  0  0  0  0  0  0  0  0  0
    6.5841   -1.2133   -1.0986 C   0  0  0  0  0  0  0  0  0  0  0  0
    5.2520   -0.9892   -0.7663 C   0  0  0  0  0  0  0  0  0  0  0  0
    9.0555   -1.0010   -0.5706 C   0  0  0  0  0  0  0  0  0  0  0  0
    9.2196   -1.7417   -1.7040 F   0  0  0  0  0  0  0  0  0  0  0  0
    9.6263   -1.6531    0.5202 F   0  0  0  0  0  0  0  0  0  0  0  0
    9.6880    0.2266   -0.6607 F   0  0  0  0  0  0  0  0  0  0  0  0
   -4.8201   -6.5627    0.6017 H   0  0  0  0  0  0  0  0  0  0  0  0
   -5.8743   -5.1944    1.1150 H   0  0  0  0  0  0  0  0  0  0  0  0
   -4.2596   -5.4274    1.8571 H   0  0  0  0  0  0  0  0  0  0  0  0
   -3.6982   -3.5620    2.2900 H   0  0  0  0  0  0  0  0  0  0  0  0
   -2.4140   -1.5448    2.6753 H   0  0  0  0  0  0  0  0  0  0  0  0
   -1.9691   -1.0359   -1.5085 H   0  0  0  0  0  0  0  0  0  0  0  0
   -2.2908   -3.3714   -3.9838 H   0  0  0  0  0  0  0  0  0  0  0  0
   -2.4000   -1.6957   -3.3709 H   0  0  0  0  0  0  0  0  0  0  0  0
   -3.8508   -2.5492   -4.0325 H   0  0  0  0  0  0  0  0  0  0  0  0
   -1.1681    0.3257    1.8800 H   0  0  0  0  0  0  0  0  0  0  0  0
   -3.2456    1.0770    0.5004 H   0  0  0  0  0  0  0  0  0  0  0  0
   -2.2132    0.8893   -0.9835 H   0  0  0  0  0  0  0  0  0  0  0  0
    0.4655    2.6793    0.3466 H   0  0  0  0  0  0  0  0  0  0  0  0
    0.0721    5.1994    0.4237 H   0  0  0  0  0  0  0  0  0  0  0  0
   -2.1210    6.8936    0.3092 H   0  0  0  0  0  0  0  0  0  0  0  0
   -4.6014    6.9007    0.0958 H   0  0  0  0  0  0  0  0  0  0  0  0
   -5.8493    4.7975   -0.0733 H   0  0  0  0  0  0  0  0  0  0  0  0
   -4.5964    2.6694   -0.0336 H   0  0  0  0  0  0  0  0  0  0  0  0
   -0.1406   -0.4383   -0.9000 H   0  0  0  0  0  0  0  0  0  0  0  0
    2.5174   -0.6809   -0.8832 H   0  0  0  0  0  0  0  0  0  0  0  0
    3.3765    0.2802    1.8308 H   0  0  0  0  0  0  0  0  0  0  0  0
    5.6807    0.6334    2.1037 H   0  0  0  0  0  0  0  0  0  0  0  0
    8.0494    0.2440    1.5245 H   0  0  0  0  0  0  0  0  0  0  0  0
    6.8540   -1.7319   -2.0048 H   0  0  0  0  0  0  0  0  0  0  0  0
    4.4690   -1.3524   -1.4393 H   0  0  0  0  0  0  0  0  0  0  0  0
  1  2  1  0
  2  3  1  0
  3  4  2  0
  4  5  1  0
  5  6  2  0
  6  7  1  0
  7  8  2  0
  8  9  1  0
  9 10  1  0
  6 11  1  0
 11 12  1  0
 12 13  1  0
 13 14  2  0
 14 15  1  0
 15 16  1  0
 16 17  2  0
 17 18  1  0
 18 19  2  0
 19 20  1  0
 20 21  2  0
 11 22  1  0
 22 23  1  0
 23 24  2  0
 23 25  1  0
 25 26  2  0
 26 27  1  0
 27 28  2  0
 28 29  1  0
 29 30  2  0
 30 31  1  0
 31 32  2  0
 30 33  1  0
 33 34  1  0
 33 35  1  0
 33 36  1  0
  8  3  1  0
 21 13  1  0
 32 27  1  0
 21 16  1  0
  1 37  1  0
  1 38  1  0
  1 39  1  0
  4 40  1  0
  5 41  1  0
  7 42  1  0
 10 43  1  0
 10 44  1  0
 10 45  1  0
 11 46  1  1
 12 47  1  0
 12 48  1  0
 14 49  1  0
 15 50  1  0
 17 51  1  0
 18 52  1  0
 19 53  1  0
 20 54  1  0
 22 55  1  0
 25 56  1  0
 26 57  1  0
 28 58  1  0
 29 59  1  0
 31 60  1  0
 32 61  1  0
M  END
$$$$
[H]/C(C(=O)N([H])c1c([H])c([H])c(Cl)c([H])c1[H])=C(/[H])c1c([H])c([H])c(-c2c([H])c([H])c(OC([H])([H])[H])c([H])c2[H])c([H])c1[H]
     RDKit          3D

 44 46  0  0  0  0  0  0  0  0999 V2000
   -9.0650    0.5519   -0.3842 C   0  0  0  0  0  0  0  0  0  0  0  0
   -8.1756   -0.3073    0.2802 O   0  0  0  0  0  0  0  0  0  0  0  0
   -6.7914   -0.2193    0.1730 C   0  0  0  0  0  0  0  0  0  0  0  0
   -6.1532    0.7132   -0.5905 C   0  0  0  0  0  0  0  0  0  0  0  0
   -4.7926    0.7733   -0.6749 C   0  0  0  0  0  0  0  0  0  0  0  0
   -4.0393   -0.1348    0.0319 C   0  0  0  0  0  0  0  0  0  0  0  0
   -4.6692   -1.0817    0.8068 C   0  0  0  0  0  0  0  0  0  0  0  0
   -6.0498   -1.1343    0.8857 C   0  0  0  0  0  0  0  0  0  0  0  0
   -2.5838   -0.1420    0.0002 C   0  0  0  0  0  0  0  0  0  0  0  0
   -1.8565   -1.3047    0.1365 C   0  0  0  0  0  0  0  0  0  0  0  0
   -0.4798   -1.3299    0.1101 C   0  0  0  0  0  0  0  0  0  0  0  0
    0.2471   -0.1777   -0.0562 C   0  0  0  0  0  0  0  0  0  0  0  0
    1.7110   -0.1254   -0.0948 C   0  0  0  0  0  0  0  0  0  0  0  0
    2.4899   -1.1713    0.0221 C   0  0  0  0  0  0  0  0  0  0  0  0
    3.9498   -1.1458   -0.0128 C   0  0  0  0  0  0  0  0  0  0  0  0
    4.5566   -2.2526    0.1147 O   0  0  0  0  0  0  0  0  0  0  0  0
    4.6660    0.0536   -0.1807 N   0  0  0  0  0  0  0  0  0  0  0  0
    6.0680    0.2224   -0.2396 C   0  0  0  0  0  0  0  0  0  0  0  0
    6.6149    1.4977   -0.0260 C   0  0  0  0  0  0  0  0  0  0  0  0
    7.9676    1.7360   -0.0862 C   0  0  0  0  0  0  0  0  0  0  0  0
    8.8677    0.7335   -0.3606 C   0  0  0  0  0  0  0  0  0  0  0  0
   10.5710    1.0972   -0.4228 Cl  0  0  0  0  0  0  0  0  0  0  0  0
    8.3616   -0.5189   -0.5731 C   0  0  0  0  0  0  0  0  0  0  0  0
    6.9775   -0.7660   -0.5125 C   0  0  0  0  0  0  0  0  0  0  0  0
   -0.4718    1.0073   -0.1958 C   0  0  0  0  0  0  0  0  0  0  0  0
   -1.8478    1.0122   -0.1667 C   0  0  0  0  0  0  0  0  0  0  0  0
   -9.0367    1.5294    0.1205 H   0  0  0  0  0  0  0  0  0  0  0  0
  -10.0812    0.0737   -0.3320 H   0  0  0  0  0  0  0  0  0  0  0  0
   -8.7622    0.6136   -1.4486 H   0  0  0  0  0  0  0  0  0  0  0  0
   -6.7267    1.4258   -1.1457 H   0  0  0  0  0  0  0  0  0  0  0  0
   -4.2672    1.5093   -1.2781 H   0  0  0  0  0  0  0  0  0  0  0  0
   -4.0896   -1.8138    1.3774 H   0  0  0  0  0  0  0  0  0  0  0  0
   -6.5397   -1.8799    1.4960 H   0  0  0  0  0  0  0  0  0  0  0  0
   -2.4229   -2.2363    0.2704 H   0  0  0  0  0  0  0  0  0  0  0  0
    0.0022   -2.2699    0.2225 H   0  0  0  0  0  0  0  0  0  0  0  0
    2.1784    0.8429   -0.2283 H   0  0  0  0  0  0  0  0  0  0  0  0
    1.9831   -2.1458    0.1575 H   0  0  0  0  0  0  0  0  0  0  0  0
    4.1094    0.9468   -0.2822 H   0  0  0  0  0  0  0  0  0  0  0  0
    5.8983    2.2928    0.1937 H   0  0  0  0  0  0  0  0  0  0  0  0
    8.3241    2.7571    0.0914 H   0  0  0  0  0  0  0  0  0  0  0  0
    9.0507   -1.3234   -0.7909 H   0  0  0  0  0  0  0  0  0  0  0  0
    6.6293   -1.7772   -0.7024 H   0  0  0  0  0  0  0  0  0  0  0  0
    0.0862    1.9363   -0.3295 H   0  0  0  0  0  0  0  0  0  0  0  0
   -2.4083    1.9320   -0.2751 H   0  0  0  0  0  0  0  0  0  0  0  0
  1  2  1  0
  2  3  1  0
  3  4  2  0
  4  5  1  0
  5  6  2  0
  6  7  1  0
  7  8  2  0
  6  9  1  0
  9 10  2  0
 10 11  1  0
 11 12  2  0
 12 13  1  0
 13 14  2  0
 14 15  1  0
 15 16  2  0
 15 17  1  0
 17 18  1  0
 18 19  2  0
 19 20  1  0
 20 21  2  0
 21 22  1  0
 21 23  1  0
 23 24  2  0
 12 25  1  0
 25 26  2  0
  8  3  1  0
 26  9  1  0
 24 18  1  0
  1 27  1  0
  1 28  1  0
  1 29  1  0
  4 30  1  0
  5 31  1  0
  7 32  1  0
  8 33  1  0
 10 34  1  0
 11 35  1  0
 13 36  1  0
 14 37  1  0
 17 38  1  0
 19 39  1  0
 20 40  1  0
 23 41  1  0
 24 42  1  0
 25 43  1  0
 26 44  1  0
M  END
$$$$
