[H]/C(=C(/[H])C([H])([H])C([H])([H])N1C([H])([H])C([H])([H])N(C([H])([H])C([H])([H])[H])C([H])([H])C1([H])[H])c1c([H])c([H])c2c(N([H])c3c([H])c([H])c(Sc4nc([H])c([H])n4C([H])([H])[H])c(Cl)c3[H])c(C#N)c([H])nc2c1[H]
     RDKit          3D

 71 75  0  0  0  0  0  0  0  0999 V2000
   -8.6409   -2.7498   -0.2871 C   0  0  0  0  0  0  0  0  0  0  0  0
   -9.7107   -1.7161   -0.0073 C   0  0  0  0  0  0  0  0  0  0  0  0
   -9.1855   -0.4346    0.3207 N   0  0  0  0  0  0  0  0  0  0  0  0
   -8.5260    0.2583   -0.7312 C   0  0  0  0  0  0  0  0  0  0  0  0
   -7.1558    0.7666   -0.3479 C   0  0  0  0  0  0  0  0  0  0  0  0
   -6.4482   -0.1261    0.5187 N   0  0  0  0  0  0  0  0  0  0  0  0
   -5.0580    0.1251    0.6330 C   0  0  0  0  0  0  0  0  0  0  0  0
   -4.2600   -0.1342   -0.5972 C   0  0  0  0  0  0  0  0  0  0  0  0
   -2.8201    0.1836   -0.2948 C   0  0  0  0  0  0  0  0  0  0  0  0
   -2.1668    1.1065   -0.9719 C   0  0  0  0  0  0  0  0  0  0  0  0
   -0.7814    1.4609   -0.7331 C   0  0  0  0  0  0  0  0  0  0  0  0
    0.0282    0.8961    0.2206 C   0  0  0  0  0  0  0  0  0  0  0  0
    1.3574    1.2536    0.4157 C   0  0  0  0  0  0  0  0  0  0  0  0
    1.9042    2.2331   -0.3927 C   0  0  0  0  0  0  0  0  0  0  0  0
    3.2027    2.6411   -0.2709 C   0  0  0  0  0  0  0  0  0  0  0  0
    4.0743    2.0706    0.7096 N   0  0  0  0  0  0  0  0  0  0  0  0
    4.8577    0.9212    0.4047 C   0  0  0  0  0  0  0  0  0  0  0  0
    5.8268    0.5091    1.2939 C   0  0  0  0  0  0  0  0  0  0  0  0
    6.5697   -0.6077    0.9718 C   0  0  0  0  0  0  0  0  0  0  0  0
    6.3632   -1.3005   -0.1945 C   0  0  0  0  0  0  0  0  0  0  0  0
    7.3138   -2.7232   -0.6410 S   0  0  0  0  0  0  0  0  0  0  0  0
    8.6018   -3.0442    0.5704 C   0  0  0  0  0  0  0  0  0  0  0  0
    8.5427   -3.7849    1.6697 N   0  0  0  0  0  0  0  0  0  0  0  0
    9.7317   -3.7461    2.2660 C   0  0  0  0  0  0  0  0  0  0  0  0
   10.5396   -2.9404    1.4795 C   0  0  0  0  0  0  0  0  0  0  0  0
    9.8289   -2.5145    0.4374 N   0  0  0  0  0  0  0  0  0  0  0  0
   10.3097   -1.6368   -0.6385 C   0  0  0  0  0  0  0  0  0  0  0  0
    5.3796   -0.8734   -1.0840 C   0  0  0  0  0  0  0  0  0  0  0  0
    5.0942   -1.7412   -2.5757 Cl  0  0  0  0  0  0  0  0  0  0  0  0
    4.6271    0.2350   -0.7878 C   0  0  0  0  0  0  0  0  0  0  0  0
    3.7114    3.6308   -1.1114 C   0  0  0  0  0  0  0  0  0  0  0  0
    2.8785    4.1658   -2.0421 C   0  0  0  0  0  0  0  0  0  0  0  0
    1.6179    3.7550   -2.1445 N   0  0  0  0  0  0  0  0  0  0  0  0
    1.0963    2.8075   -1.3549 C   0  0  0  0  0  0  0  0  0  0  0  0
   -0.2172    2.4405   -1.5326 C   0  0  0  0  0  0  0  0  0  0  0  0
    5.0766    4.0095   -0.9350 C   0  0  0  0  0  0  0  0  0  0  0  0
    6.1953    4.3377   -0.7965 N   0  0  0  0  0  0  0  0  0  0  0  0
   -7.1340   -0.5074    1.6989 C   0  0  0  0  0  0  0  0  0  0  0  0
   -8.6089   -0.2975    1.6164 C   0  0  0  0  0  0  0  0  0  0  0  0
   -9.1172   -3.6444   -0.7404 H   0  0  0  0  0  0  0  0  0  0  0  0
   -8.1820   -3.0747    0.6623 H   0  0  0  0  0  0  0  0  0  0  0  0
   -7.9093   -2.3881   -1.0271 H   0  0  0  0  0  0  0  0  0  0  0  0
  -10.3040   -1.6038   -0.9486 H   0  0  0  0  0  0  0  0  0  0  0  0
  -10.3439   -2.0760    0.8164 H   0  0  0  0  0  0  0  0  0  0  0  0
   -8.5002   -0.3351   -1.6732 H   0  0  0  0  0  0  0  0  0  0  0  0
   -9.1380    1.1696   -0.9737 H   0  0  0  0  0  0  0  0  0  0  0  0
   -7.2847    1.7355    0.1758 H   0  0  0  0  0  0  0  0  0  0  0  0
   -6.6066    0.9159   -1.2984 H   0  0  0  0  0  0  0  0  0  0  0  0
   -4.9303    1.2073    0.8903 H   0  0  0  0  0  0  0  0  0  0  0  0
   -4.5979   -0.4326    1.4729 H   0  0  0  0  0  0  0  0  0  0  0  0
   -4.2615   -1.2063   -0.9026 H   0  0  0  0  0  0  0  0  0  0  0  0
   -4.5450    0.5056   -1.4515 H   0  0  0  0  0  0  0  0  0  0  0  0
   -2.2876   -0.3381    0.4856 H   0  0  0  0  0  0  0  0  0  0  0  0
   -2.7288    1.6142   -1.7514 H   0  0  0  0  0  0  0  0  0  0  0  0
   -0.3651    0.1383    0.8584 H   0  0  0  0  0  0  0  0  0  0  0  0
    1.9802    0.8020    1.1677 H   0  0  0  0  0  0  0  0  0  0  0  0
    4.1357    2.4963    1.6478 H   0  0  0  0  0  0  0  0  0  0  0  0
    6.0187    1.0180    2.2083 H   0  0  0  0  0  0  0  0  0  0  0  0
    7.3264   -0.9329    1.6610 H   0  0  0  0  0  0  0  0  0  0  0  0
   10.0872   -4.2202    3.1882 H   0  0  0  0  0  0  0  0  0  0  0  0
   11.5733   -2.7116    1.7014 H   0  0  0  0  0  0  0  0  0  0  0  0
   10.9077   -0.8019   -0.2258 H   0  0  0  0  0  0  0  0  0  0  0  0
   10.8823   -2.2857   -1.3388 H   0  0  0  0  0  0  0  0  0  0  0  0
    9.4161   -1.2289   -1.1555 H   0  0  0  0  0  0  0  0  0  0  0  0
    3.8623    0.5847   -1.4587 H   0  0  0  0  0  0  0  0  0  0  0  0
    3.3021    4.9390   -2.6892 H   0  0  0  0  0  0  0  0  0  0  0  0
   -0.7837    2.9435   -2.3133 H   0  0  0  0  0  0  0  0  0  0  0  0
   -6.9473   -1.5500    2.0260 H   0  0  0  0  0  0  0  0  0  0  0  0
   -6.7409    0.1232    2.5430 H   0  0  0  0  0  0  0  0  0  0  0  0
   -8.8323    0.7256    2.0474 H   0  0  0  0  0  0  0  0  0  0  0  0
   -9.1016   -1.0172    2.3180 H   0  0  0  0  0  0  0  0  0  0  0  0
  1  2  1  0
  2  3  1  0
  3  4  1  0
  4  5  1  0
  5  6  1  0
  6  7  1  0
  7  8  1  0
  8  9  1  0
  9 10  2  0
 10 11  1  0
 11 12  2  0
 12 13  1  0
 13 14  2  0
 14 15  1  0
 15 16  1  0
 16 17  1  0
 17 18  2  0
 18 19  1  0
 19 20  2  0
 20 21  1  0
 21 22  1  0
 22 23  2  0
 23 24  1  0
 24 25  2  0
 25 26  1  0
 26 27  1  0
 20 28  1  0
 28 29  1  0
 28 30  2  0
 15 31  2  0
 31 32  1  0
 32 33  2  0
 33 34  1  0
 34 35  2  0
 31 36  1  0
 36 37  3  0
  6 38  1  0
 38 39  1  0
 39  3  1  0
 35 11  1  0
 34 14  1  0
 30 17  1  0
 26 22  1  0
  1 40  1  0
  1 41  1  0
  1 42  1  0
  2 43  1  0
  2 44  1  0
  4 45  1  0
  4 46  1  0
  5 47  1  0
  5 48  1  0
  7 49  1  0
  7 50  1  0
  8 51  1  0
  8 52  1  0
  9 53  1  0
 10 54  1  0
 12 55  1  0
 13 56  1  0
 16 57  1  0
 18 58  1  0
 19 59  1  0
 24 60  1  0
 25 61  1  0
 27 62  1  0
 27 63  1  0
 27 64  1  0
 30 65  1  0
 32 66  1  0
 35 67  1  0
 38 68  1  0
 38 69  1  0
 39 70  1  0
 39 71  1  0
M  END
$$$$
[H]c1c([H])c(N([H])c2nc(N([H])[C@]3([H])C([H])([H])C([H])([H])C([H])([H])C([H])([H])[C@]3([H])N([H])[H])c([H])c3nc([H])n([H])c(=O)c23)c2c(c1[H])c(C([H])([H])[H])c([H])n2[H]
     RDKit          3D

 55 59  0  0  0  0  0  0  0  0999 V2000
    7.5183    1.8925   -1.2564 C   0  0  0  0  0  0  0  0  0  0  0  0
    6.3239    1.0159   -1.3286 C   0  0  0  0  0  0  0  0  0  0  0  0
    6.1539   -0.1144   -2.1298 C   0  0  0  0  0  0  0  0  0  0  0  0
    4.9296   -0.6206   -1.8952 N   0  0  0  0  0  0  0  0  0  0  0  0
    4.2826    0.1272   -0.9727 C   0  0  0  0  0  0  0  0  0  0  0  0
    3.0022    0.0156   -0.3993 C   0  0  0  0  0  0  0  0  0  0  0  0
    2.1843   -1.1045   -0.8042 N   0  0  0  0  0  0  0  0  0  0  0  0
    0.8216   -1.2757   -0.4841 C   0  0  0  0  0  0  0  0  0  0  0  0
    0.1000   -0.2857    0.0663 N   0  0  0  0  0  0  0  0  0  0  0  0
   -1.2182   -0.2853    0.3311 C   0  0  0  0  0  0  0  0  0  0  0  0
   -1.8456    0.8319    0.9384 N   0  0  0  0  0  0  0  0  0  0  0  0
   -3.1799    1.0995    1.2600 C   0  0  2  0  0  0  0  0  0  0  0  0
   -3.9582    0.0465    2.0133 C   0  0  0  0  0  0  0  0  0  0  0  0
   -5.0848    0.7628    2.7781 C   0  0  0  0  0  0  0  0  0  0  0  0
   -5.7548    1.7658    1.8613 C   0  0  0  0  0  0  0  0  0  0  0  0
   -5.4978    1.4535    0.3958 C   0  0  0  0  0  0  0  0  0  0  0  0
   -4.0130    1.5817    0.1115 C   0  0  2  0  0  0  0  0  0  0  0  0
   -3.7342    0.9339   -1.1400 N   0  0  0  0  0  0  0  0  0  0  0  0
   -1.8671   -1.4437   -0.0125 C   0  0  0  0  0  0  0  0  0  0  0  0
   -1.1762   -2.5214   -0.5911 C   0  0  0  0  0  0  0  0  0  0  0  0
   -1.8528   -3.6443   -0.8953 N   0  0  0  0  0  0  0  0  0  0  0  0
   -1.2076   -4.6933   -1.4317 C   0  0  0  0  0  0  0  0  0  0  0  0
    0.1129   -4.6506   -1.6751 N   0  0  0  0  0  0  0  0  0  0  0  0
    0.8557   -3.5327   -1.3864 C   0  0  0  0  0  0  0  0  0  0  0  0
    2.0855   -3.5476   -1.6290 O   0  0  0  0  0  0  0  0  0  0  0  0
    0.1770   -2.4632   -0.8381 C   0  0  0  0  0  0  0  0  0  0  0  0
    2.6840    0.9590    0.5079 C   0  0  0  0  0  0  0  0  0  0  0  0
    3.5512    1.9935    0.8730 C   0  0  0  0  0  0  0  0  0  0  0  0
    4.7913    2.0826    0.3020 C   0  0  0  0  0  0  0  0  0  0  0  0
    5.1395    1.1407   -0.6185 C   0  0  0  0  0  0  0  0  0  0  0  0
    8.3945    1.3129   -1.6364 H   0  0  0  0  0  0  0  0  0  0  0  0
    7.7433    2.1893   -0.2033 H   0  0  0  0  0  0  0  0  0  0  0  0
    7.3698    2.8058   -1.8859 H   0  0  0  0  0  0  0  0  0  0  0  0
    6.8965   -0.4871   -2.8065 H   0  0  0  0  0  0  0  0  0  0  0  0
    4.5123   -1.4655   -2.3435 H   0  0  0  0  0  0  0  0  0  0  0  0
    2.6630   -1.8050   -1.4024 H   0  0  0  0  0  0  0  0  0  0  0  0
   -1.1011    1.6092    1.1837 H   0  0  0  0  0  0  0  0  0  0  0  0
   -3.1569    2.0409    1.9672 H   0  0  0  0  0  0  0  0  0  0  0  0
   -3.3691   -0.5500    2.6975 H   0  0  0  0  0  0  0  0  0  0  0  0
   -4.5365   -0.5476    1.2509 H   0  0  0  0  0  0  0  0  0  0  0  0
   -4.7019    1.3147    3.6530 H   0  0  0  0  0  0  0  0  0  0  0  0
   -5.8553    0.0599    3.1309 H   0  0  0  0  0  0  0  0  0  0  0  0
   -6.8456    1.6873    2.0197 H   0  0  0  0  0  0  0  0  0  0  0  0
   -5.4728    2.8056    2.1110 H   0  0  0  0  0  0  0  0  0  0  0  0
   -5.9001    0.4567    0.1446 H   0  0  0  0  0  0  0  0  0  0  0  0
   -6.1049    2.1775   -0.1916 H   0  0  0  0  0  0  0  0  0  0  0  0
   -3.7971    2.6843   -0.0873 H   0  0  0  0  0  0  0  0  0  0  0  0
   -4.5487    0.8991   -1.7806 H   0  0  0  0  0  0  0  0  0  0  0  0
   -2.9297    1.3402   -1.6614 H   0  0  0  0  0  0  0  0  0  0  0  0
   -2.9041   -1.5769    0.1528 H   0  0  0  0  0  0  0  0  0  0  0  0
   -1.7360   -5.6062   -1.6842 H   0  0  0  0  0  0  0  0  0  0  0  0
    0.6450   -5.4411   -2.0872 H   0  0  0  0  0  0  0  0  0  0  0  0
    1.7523    0.9633    1.0205 H   0  0  0  0  0  0  0  0  0  0  0  0
    3.2291    2.7203    1.6119 H   0  0  0  0  0  0  0  0  0  0  0  0
    5.4312    2.8929    0.6086 H   0  0  0  0  0  0  0  0  0  0  0  0
  1  2  1  0
  2  3  2  0
  3  4  1  0
  4  5  1  0
  5  6  2  0
  6  7  1  0
  7  8  1  0
  8  9  2  0
  9 10  1  0
 10 11  1  0
 11 12  1  0
 12 13  1  0
 13 14  1  0
 14 15  1  0
 15 16  1  0
 16 17  1  0
 17 18  1  0
 10 19  2  0
 19 20  1  0
 20 21  1  0
 21 22  2  0
 22 23  1  0
 23 24  1  0
 24 25  2  0
 24 26  1  0
  6 27  1  0
 27 28  2  0
 28 29  1  0
 29 30  2  0
 30  2  1  0
 30  5  1  0
 26  8  1  0
 17 12  1  0
 26 20  2  0
  1 31  1  0
  1 32  1  0
  1 33  1  0
  3 34  1  0
  4 35  1  0
  7 36  1  0
 11 37  1  0
 12 38  1  1
 13 39  1  0
 13 40  1  0
 14 41  1  0
 14 42  1  0
 15 43  1  0
 15 44  1  0
 16 45  1  0
 16 46  1  0
 17 47  1  6
 18 48  1  0
 18 49  1  0
 19 50  1  0
 22 51  1  0
 23 52  1  0
 27 53  1  0
 28 54  1  0
 29 55  1  0
M  END
$$$$
[H]c1nc([H])c(-c2nc(N([H])c3c([H])c(N([H])C(=O)c4c([H])c([H])c(C([H])([H])N5C([H])([H])C([H])([H])N(C([H])([H])[H])C([H])([H])C5([H])[H])c(C(F)(F)F)c4[H])c([H])c([H])c3C([H])([H])[H])nc([H])c2[H])c([H])n1
     RDKit          3D

 70 74  0  0  0  0  0  0  0  0999 V2000
   -8.5052    3.2715   -0.4066 C   0  0  0  0  0  0  0  0  0  0  0  0
   -8.1498    1.9003   -0.2191 N   0  0  0  0  0  0  0  0  0  0  0  0
   -7.9905    1.5467    1.1627 C   0  0  0  0  0  0  0  0  0  0  0  0
   -6.6716    2.0053    1.6866 C   0  0  0  0  0  0  0  0  0  0  0  0
   -5.5340    1.4618    0.9025 N   0  0  0  0  0  0  0  0  0  0  0  0
   -5.5776    0.0073    0.9754 C   0  0  0  0  0  0  0  0  0  0  0  0
   -4.2810   -0.5664    0.5565 C   0  0  0  0  0  0  0  0  0  0  0  0
   -3.1553    0.1720    0.2814 C   0  0  0  0  0  0  0  0  0  0  0  0
   -1.9202   -0.3907   -0.0610 C   0  0  0  0  0  0  0  0  0  0  0  0
   -1.7837   -1.7463   -0.1355 C   0  0  0  0  0  0  0  0  0  0  0  0
   -2.8995   -2.5056    0.1377 C   0  0  0  0  0  0  0  0  0  0  0  0
   -4.1284   -1.9588    0.4773 C   0  0  0  0  0  0  0  0  0  0  0  0
   -5.2827   -2.8419    0.7515 C   0  0  0  0  0  0  0  0  0  0  0  0
   -6.3385   -2.6665   -0.1040 F   0  0  0  0  0  0  0  0  0  0  0  0
   -5.6916   -2.7487    2.0690 F   0  0  0  0  0  0  0  0  0  0  0  0
   -4.8601   -4.1689    0.5872 F   0  0  0  0  0  0  0  0  0  0  0  0
   -0.5124   -2.4272   -0.4908 C   0  0  0  0  0  0  0  0  0  0  0  0
   -0.4915   -3.6690   -0.5955 O   0  0  0  0  0  0  0  0  0  0  0  0
    0.6645   -1.6802   -0.7090 N   0  0  0  0  0  0  0  0  0  0  0  0
    1.9116   -2.2437   -1.0607 C   0  0  0  0  0  0  0  0  0  0  0  0
    2.1060   -3.4367   -1.7066 C   0  0  0  0  0  0  0  0  0  0  0  0
    3.3872   -3.9309   -1.9885 C   0  0  0  0  0  0  0  0  0  0  0  0
    4.4666   -3.1796   -1.5971 C   0  0  0  0  0  0  0  0  0  0  0  0
    5.8194   -3.6805   -1.8832 C   0  0  0  0  0  0  0  0  0  0  0  0
    4.3408   -1.9494   -0.9329 C   0  0  0  0  0  0  0  0  0  0  0  0
    5.5062   -1.2755   -0.5892 N   0  0  0  0  0  0  0  0  0  0  0  0
    5.6169   -0.0529    0.0852 C   0  0  0  0  0  0  0  0  0  0  0  0
    4.6113    0.6708    0.5141 N   0  0  0  0  0  0  0  0  0  0  0  0
    4.6611    1.8407    1.1603 C   0  0  0  0  0  0  0  0  0  0  0  0
    5.9438    2.3425    1.4019 C   0  0  0  0  0  0  0  0  0  0  0  0
    7.0452    1.6343    0.9788 C   0  0  0  0  0  0  0  0  0  0  0  0
    6.8632    0.4806    0.3453 N   0  0  0  0  0  0  0  0  0  0  0  0
    8.4094    2.1547    1.2268 C   0  0  0  0  0  0  0  0  0  0  0  0
    8.6833    3.3166    1.8637 C   0  0  0  0  0  0  0  0  0  0  0  0
    9.9804    3.6771    2.0239 N   0  0  0  0  0  0  0  0  0  0  0  0
   11.0175    2.9448    1.5853 C   0  0  0  0  0  0  0  0  0  0  0  0
   10.7617    1.7875    0.9504 N   0  0  0  0  0  0  0  0  0  0  0  0
    9.4831    1.3997    0.7744 C   0  0  0  0  0  0  0  0  0  0  0  0
    3.0758   -1.5348   -0.6935 C   0  0  0  0  0  0  0  0  0  0  0  0
   -5.7438    1.8954   -0.4884 C   0  0  0  0  0  0  0  0  0  0  0  0
   -7.0680    1.4864   -1.0500 C   0  0  0  0  0  0  0  0  0  0  0  0
   -9.6121    3.3873   -0.2693 H   0  0  0  0  0  0  0  0  0  0  0  0
   -7.9754    3.9371    0.2862 H   0  0  0  0  0  0  0  0  0  0  0  0
   -8.2193    3.6071   -1.4450 H   0  0  0  0  0  0  0  0  0  0  0  0
   -8.0702    0.4559    1.3074 H   0  0  0  0  0  0  0  0  0  0  0  0
   -8.7861    2.0185    1.7377 H   0  0  0  0  0  0  0  0  0  0  0  0
   -6.5396    3.1049    1.6514 H   0  0  0  0  0  0  0  0  0  0  0  0
   -6.5142    1.6799    2.7241 H   0  0  0  0  0  0  0  0  0  0  0  0
   -6.4305   -0.2975    0.3600 H   0  0  0  0  0  0  0  0  0  0  0  0
   -5.8148   -0.2714    2.0245 H   0  0  0  0  0  0  0  0  0  0  0  0
   -3.2356    1.2578    0.3638 H   0  0  0  0  0  0  0  0  0  0  0  0
   -1.0850    0.2654   -0.2639 H   0  0  0  0  0  0  0  0  0  0  0  0
   -2.7781   -3.5904    0.0755 H   0  0  0  0  0  0  0  0  0  0  0  0
    0.6395   -0.6091   -0.6149 H   0  0  0  0  0  0  0  0  0  0  0  0
    1.2455   -4.0074   -2.0252 H   0  0  0  0  0  0  0  0  0  0  0  0
    3.4619   -4.8704   -2.4953 H   0  0  0  0  0  0  0  0  0  0  0  0
    5.7818   -4.6929   -2.3306 H   0  0  0  0  0  0  0  0  0  0  0  0
    6.3487   -3.0330   -2.6415 H   0  0  0  0  0  0  0  0  0  0  0  0
    6.4515   -3.7725   -0.9749 H   0  0  0  0  0  0  0  0  0  0  0  0
    6.4666   -1.7365   -0.8701 H   0  0  0  0  0  0  0  0  0  0  0  0
    3.7885    2.3913    1.4897 H   0  0  0  0  0  0  0  0  0  0  0  0
    6.0068    3.2820    1.9203 H   0  0  0  0  0  0  0  0  0  0  0  0
    7.8753    3.9289    2.2287 H   0  0  0  0  0  0  0  0  0  0  0  0
   12.0427    3.3074    1.7550 H   0  0  0  0  0  0  0  0  0  0  0  0
    9.2540    0.4572    0.2581 H   0  0  0  0  0  0  0  0  0  0  0  0
    2.8742   -0.6083   -0.1902 H   0  0  0  0  0  0  0  0  0  0  0  0
   -5.7333    3.0115   -0.4501 H   0  0  0  0  0  0  0  0  0  0  0  0
   -4.9130    1.5466   -1.0927 H   0  0  0  0  0  0  0  0  0  0  0  0
   -7.1215    0.4320   -1.3928 H   0  0  0  0  0  0  0  0  0  0  0  0
   -7.1781    2.0764   -2.0124 H   0  0  0  0  0  0  0  0  0  0  0  0
  1  2  1  0
  2  3  1  0
  3  4  1  0
  4  5  1  0
  5  6  1  0
  6  7  1  0
  7  8  2  0
  8  9  1  0
  9 10  2  0
 10 11  1  0
 11 12  2  0
 12 13  1  0
 13 14  1  0
 13 15  1  0
 13 16  1  0
 10 17  1  0
 17 18  2  0
 17 19  1  0
 19 20  1  0
 20 21  2  0
 21 22  1  0
 22 23  2  0
 23 24  1  0
 23 25  1  0
 25 26  1  0
 26 27  1  0
 27 28  2  0
 28 29  1  0
 29 30  2  0
 30 31  1  0
 31 32  2  0
 31 33  1  0
 33 34  2  0
 34 35  1  0
 35 36  2  0
 36 37  1  0
 37 38  2  0
 25 39  2  0
  5 40  1  0
 40 41  1  0
 41  2  1  0
 12  7  1  0
 39 20  1  0
 32 27  1  0
 38 33  1  0
  1 42  1  0
  1 43  1  0
  1 44  1  0
  3 45  1  0
  3 46  1  0
  4 47  1  0
  4 48  1  0
  6 49  1  0
  6 50  1  0
  8 51  1  0
  9 52  1  0
 11 53  1  0
 19 54  1  0
 21 55  1  0
 22 56  1  0
 24 57  1  0
 24 58  1  0
 24 59  1  0
 26 60  1  0
 29 61  1  0
 30 62  1  0
 34 63  1  0
 36 64  1  0
 38 65  1  0
 39 66  1  0
 40 67  1  0
 40 68  1  0
 41 69  1  0
 41 70  1  0
M  END
$$$$
[H]c1nc(N([H])[H])c([H])c(-n2c(N([H])c3c([H])c(N([H])C(=O)c4c([H])c(C5([H])C([H])([H])C5([H])[H])nn4[H])c([H])c([H])c3C([H])([H])[H])nc3c([H])c([H])c([H])c([H])c32)n1
     RDKit          3D

 58 63  0  0  0  0  0  0  0  0999 V2000
   -0.6242   -5.2799   -0.4179 C   0  0  0  0  0  0  0  0  0  0  0  0
    0.0172   -3.9448   -0.6288 C   0  0  0  0  0  0  0  0  0  0  0  0
    1.3706   -3.7850   -0.6653 C   0  0  0  0  0  0  0  0  0  0  0  0
    2.0001   -2.5662   -0.8559 C   0  0  0  0  0  0  0  0  0  0  0  0
    1.2622   -1.4215   -1.0230 C   0  0  0  0  0  0  0  0  0  0  0  0
    1.7917   -0.1255   -1.2017 N   0  0  0  0  0  0  0  0  0  0  0  0
    3.0835    0.2871   -0.9355 C   0  0  0  0  0  0  0  0  0  0  0  0
    3.9517   -0.4763   -0.4841 O   0  0  0  0  0  0  0  0  0  0  0  0
    3.5180    1.6813   -1.1748 C   0  0  0  0  0  0  0  0  0  0  0  0
    4.7486    2.2306   -0.9622 C   0  0  0  0  0  0  0  0  0  0  0  0
    4.7195    3.5615   -1.3197 C   0  0  0  0  0  0  0  0  0  0  0  0
    3.4658    3.7849   -1.7416 N   0  0  0  0  0  0  0  0  0  0  0  0
    2.7490    2.6692   -1.6567 N   0  0  0  0  0  0  0  0  0  0  0  0
    5.8065    4.5605   -1.2664 C   0  0  0  0  0  0  0  0  0  0  0  0
    6.7576    4.4813   -0.0470 C   0  0  0  0  0  0  0  0  0  0  0  0
    7.2064    4.1275   -1.4034 C   0  0  0  0  0  0  0  0  0  0  0  0
   -0.1316   -1.5960   -0.9850 C   0  0  0  0  0  0  0  0  0  0  0  0
   -0.7821   -2.7920   -0.7963 C   0  0  0  0  0  0  0  0  0  0  0  0
   -2.1545   -2.9976   -0.8633 N   0  0  0  0  0  0  0  0  0  0  0  0
   -3.2884   -2.2153   -0.5520 C   0  0  0  0  0  0  0  0  0  0  0  0
   -4.5381   -2.4846   -1.0816 N   0  0  0  0  0  0  0  0  0  0  0  0
   -5.3947   -1.6494   -0.5246 C   0  0  0  0  0  0  0  0  0  0  0  0
   -6.7734   -1.4597   -0.6733 C   0  0  0  0  0  0  0  0  0  0  0  0
   -7.4272   -0.4928    0.0477 C   0  0  0  0  0  0  0  0  0  0  0  0
   -6.7414    0.3099    0.9313 C   0  0  0  0  0  0  0  0  0  0  0  0
   -5.3826    0.1421    1.0951 C   0  0  0  0  0  0  0  0  0  0  0  0
   -4.7348   -0.8405    0.3587 C   0  0  0  0  0  0  0  0  0  0  0  0
   -3.4181   -1.2277    0.3146 N   0  0  0  0  0  0  0  0  0  0  0  0
   -2.4838   -0.5981    1.2224 C   0  0  0  0  0  0  0  0  0  0  0  0
   -2.1854    0.7497    1.1658 C   0  0  0  0  0  0  0  0  0  0  0  0
   -1.3279    1.3569    2.0571 C   0  0  0  0  0  0  0  0  0  0  0  0
   -1.0307    2.7461    1.9857 N   0  0  0  0  0  0  0  0  0  0  0  0
   -0.7684    0.5794    3.0172 N   0  0  0  0  0  0  0  0  0  0  0  0
   -1.0451   -0.7308    3.0891 C   0  0  0  0  0  0  0  0  0  0  0  0
   -1.8950   -1.3095    2.1983 N   0  0  0  0  0  0  0  0  0  0  0  0
    0.0233   -5.9401    0.1964 H   0  0  0  0  0  0  0  0  0  0  0  0
   -0.8159   -5.8096   -1.3642 H   0  0  0  0  0  0  0  0  0  0  0  0
   -1.5593   -5.1472    0.1950 H   0  0  0  0  0  0  0  0  0  0  0  0
    1.9874   -4.6832   -0.5347 H   0  0  0  0  0  0  0  0  0  0  0  0
    3.0761   -2.5210   -0.8852 H   0  0  0  0  0  0  0  0  0  0  0  0
    1.1244    0.6147   -1.5874 H   0  0  0  0  0  0  0  0  0  0  0  0
    5.6146    1.6962   -0.5712 H   0  0  0  0  0  0  0  0  0  0  0  0
    1.7490    2.5932   -1.9265 H   0  0  0  0  0  0  0  0  0  0  0  0
    5.5612    5.5805   -1.6111 H   0  0  0  0  0  0  0  0  0  0  0  0
    7.0092    5.4661    0.4073 H   0  0  0  0  0  0  0  0  0  0  0  0
    6.5054    3.6790    0.6725 H   0  0  0  0  0  0  0  0  0  0  0  0
    7.9720    4.8276   -1.8426 H   0  0  0  0  0  0  0  0  0  0  0  0
    7.4513    3.0611   -1.6243 H   0  0  0  0  0  0  0  0  0  0  0  0
   -0.7039   -0.6919   -1.1568 H   0  0  0  0  0  0  0  0  0  0  0  0
   -2.4197   -3.9921   -1.2478 H   0  0  0  0  0  0  0  0  0  0  0  0
   -7.3034   -2.0841   -1.3598 H   0  0  0  0  0  0  0  0  0  0  0  0
   -8.5070   -0.3841   -0.1047 H   0  0  0  0  0  0  0  0  0  0  0  0
   -7.2549    1.0655    1.4941 H   0  0  0  0  0  0  0  0  0  0  0  0
   -4.8100    0.7596    1.7846 H   0  0  0  0  0  0  0  0  0  0  0  0
   -2.6289    1.3722    0.4029 H   0  0  0  0  0  0  0  0  0  0  0  0
   -0.0936    3.0991    2.2390 H   0  0  0  0  0  0  0  0  0  0  0  0
   -1.7347    3.4534    1.6799 H   0  0  0  0  0  0  0  0  0  0  0  0
   -0.5634   -1.2898    3.8803 H   0  0  0  0  0  0  0  0  0  0  0  0
  1  2  1  0
  2  3  2  0
  3  4  1  0
  4  5  2  0
  5  6  1  0
  6  7  1  0
  7  8  2  0
  7  9  1  0
  9 10  2  0
 10 11  1  0
 11 12  2  0
 12 13  1  0
 11 14  1  0
 14 15  1  0
 15 16  1  0
  5 17  1  0
 17 18  2  0
 18 19  1  0
 19 20  1  0
 20 21  2  0
 21 22  1  0
 22 23  2  0
 23 24  1  0
 24 25  2  0
 25 26  1  0
 26 27  2  0
 27 28  1  0
 28 29  1  0
 29 30  2  0
 30 31  1  0
 31 32  1  0
 31 33  2  0
 33 34  1  0
 34 35  2  0
 18  2  1  0
 28 20  1  0
 35 29  1  0
 13  9  1  0
 16 14  1  0
 27 22  1  0
  1 36  1  0
  1 37  1  0
  1 38  1  0
  3 39  1  0
  4 40  1  0
  6 41  1  0
 10 42  1  0
 13 43  1  0
 14 44  1  0
 15 45  1  0
 15 46  1  0
 16 47  1  0
 16 48  1  0
 17 49  1  0
 19 50  1  0
 23 51  1  0
 24 52  1  0
 25 53  1  0
 26 54  1  0
 30 55  1  0
 32 56  1  0
 32 57  1  0
 34 58  1  0
M  END
$$$$
[H]c1nc(N([H])[H])c2c(-c3c([H])c([H])c4c(c3[H])C([H])([H])C([H])([H])N4C(=O)C([H])([H])c3c([H])c([H])c([H])c(OC(F)(F)F)c3[H])c([H])n(C([H])([H])C([H])([H])[H])c2n1
     RDKit          3D

 57 61  0  0  0  0  0  0  0  0999 V2000
   -7.4595    1.9497   -1.5847 C   0  0  0  0  0  0  0  0  0  0  0  0
   -7.2500    1.1689   -0.3119 C   0  0  0  0  0  0  0  0  0  0  0  0
   -5.9597    0.4975   -0.3296 N   0  0  0  0  0  0  0  0  0  0  0  0
   -4.7750    0.9250    0.0914 C   0  0  0  0  0  0  0  0  0  0  0  0
   -3.8195   -0.0850   -0.1355 C   0  0  0  0  0  0  0  0  0  0  0  0
   -2.4240   -0.0213    0.2248 C   0  0  0  0  0  0  0  0  0  0  0  0
   -1.6317    0.9295   -0.3872 C   0  0  0  0  0  0  0  0  0  0  0  0
   -0.3142    1.0159   -0.0017 C   0  0  0  0  0  0  0  0  0  0  0  0
    0.2177    0.1740    0.9770 C   0  0  0  0  0  0  0  0  0  0  0  0
    1.5202    0.0921    1.5223 N   0  0  0  0  0  0  0  0  0  0  0  0
    1.3646   -0.5270    2.8209 C   0  0  0  0  0  0  0  0  0  0  0  0
    0.2442   -1.5032    2.5523 C   0  0  0  0  0  0  0  0  0  0  0  0
   -0.6026   -0.7759    1.5781 C   0  0  0  0  0  0  0  0  0  0  0  0
   -1.9343   -0.8682    1.1934 C   0  0  0  0  0  0  0  0  0  0  0  0
    2.7168    0.5374    0.8944 C   0  0  0  0  0  0  0  0  0  0  0  0
    2.7086    1.0654   -0.2531 O   0  0  0  0  0  0  0  0  0  0  0  0
    4.0266    0.3941    1.5749 C   0  0  0  0  0  0  0  0  0  0  0  0
    5.0960    0.9268    0.7216 C   0  0  0  0  0  0  0  0  0  0  0  0
    5.4962    2.2472    0.7784 C   0  0  0  0  0  0  0  0  0  0  0  0
    6.4992    2.7166   -0.0320 C   0  0  0  0  0  0  0  0  0  0  0  0
    7.1524    1.8897   -0.9397 C   0  0  0  0  0  0  0  0  0  0  0  0
    6.7605    0.5866   -0.9987 C   0  0  0  0  0  0  0  0  0  0  0  0
    7.3874   -0.2596   -1.8875 O   0  0  0  0  0  0  0  0  0  0  0  0
    8.5236   -0.9799   -1.5065 C   0  0  0  0  0  0  0  0  0  0  0  0
    9.5705   -0.1678   -1.1193 F   0  0  0  0  0  0  0  0  0  0  0  0
    8.2164   -1.8057   -0.4530 F   0  0  0  0  0  0  0  0  0  0  0  0
    8.9675   -1.7852   -2.5402 F   0  0  0  0  0  0  0  0  0  0  0  0
    5.7476    0.1161   -0.1791 C   0  0  0  0  0  0  0  0  0  0  0  0
   -4.4657   -1.1552   -0.7170 C   0  0  0  0  0  0  0  0  0  0  0  0
   -4.0814   -2.4128   -1.1773 C   0  0  0  0  0  0  0  0  0  0  0  0
   -2.7176   -2.7942   -1.0906 N   0  0  0  0  0  0  0  0  0  0  0  0
   -5.0046   -3.2392   -1.7202 N   0  0  0  0  0  0  0  0  0  0  0  0
   -6.2807   -2.8249   -1.8046 C   0  0  0  0  0  0  0  0  0  0  0  0
   -6.6683   -1.6212   -1.3699 N   0  0  0  0  0  0  0  0  0  0  0  0
   -5.8024   -0.7523   -0.8209 C   0  0  0  0  0  0  0  0  0  0  0  0
   -7.0965    1.3073   -2.4234 H   0  0  0  0  0  0  0  0  0  0  0  0
   -8.5342    2.1440   -1.7116 H   0  0  0  0  0  0  0  0  0  0  0  0
   -6.9181    2.9041   -1.5112 H   0  0  0  0  0  0  0  0  0  0  0  0
   -7.2100    1.9001    0.5296 H   0  0  0  0  0  0  0  0  0  0  0  0
   -8.0836    0.4769   -0.1588 H   0  0  0  0  0  0  0  0  0  0  0  0
   -4.5561    1.8845    0.5373 H   0  0  0  0  0  0  0  0  0  0  0  0
   -2.0845    1.5548   -1.1347 H   0  0  0  0  0  0  0  0  0  0  0  0
    0.3321    1.7481   -0.4608 H   0  0  0  0  0  0  0  0  0  0  0  0
    1.0125    0.2817    3.5242 H   0  0  0  0  0  0  0  0  0  0  0  0
    2.2844   -1.0016    3.1824 H   0  0  0  0  0  0  0  0  0  0  0  0
    0.6976   -2.4071    2.0921 H   0  0  0  0  0  0  0  0  0  0  0  0
   -0.3253   -1.7438    3.4766 H   0  0  0  0  0  0  0  0  0  0  0  0
   -2.5584   -1.6058    1.6742 H   0  0  0  0  0  0  0  0  0  0  0  0
    4.2515   -0.7003    1.7375 H   0  0  0  0  0  0  0  0  0  0  0  0
    4.0137    0.8702    2.5928 H   0  0  0  0  0  0  0  0  0  0  0  0
    5.0097    2.9036    1.4681 H   0  0  0  0  0  0  0  0  0  0  0  0
    6.7806    3.7638    0.0477 H   0  0  0  0  0  0  0  0  0  0  0  0
    7.9341    2.3192   -1.5500 H   0  0  0  0  0  0  0  0  0  0  0  0
    5.4225   -0.9284   -0.2157 H   0  0  0  0  0  0  0  0  0  0  0  0
   -2.3616   -3.5760   -0.5026 H   0  0  0  0  0  0  0  0  0  0  0  0
   -2.0252   -2.2533   -1.6553 H   0  0  0  0  0  0  0  0  0  0  0  0
   -7.0096   -3.4961   -2.2406 H   0  0  0  0  0  0  0  0  0  0  0  0
  1  2  1  0
  2  3  1  0
  3  4  1  0
  4  5  2  0
  5  6  1  0
  6  7  2  0
  7  8  1  0
  8  9  2  0
  9 10  1  0
 10 11  1  0
 11 12  1  0
 12 13  1  0
 13 14  2  0
 10 15  1  0
 15 16  2  0
 15 17  1  0
 17 18  1  0
 18 19  2  0
 19 20  1  0
 20 21  2  0
 21 22  1  0
 22 23  1  0
 23 24  1  0
 24 25  1  0
 24 26  1  0
 24 27  1  0
 22 28  2  0
  5 29  1  0
 29 30  2  0
 30 31  1  0
 30 32  1  0
 32 33  2  0
 33 34  1  0
 34 35  2  0
 35  3  1  0
 14  6  1  0
 28 18  1  0
 35 29  1  0
 13  9  1  0
  1 36  1  0
  1 37  1  0
  1 38  1  0
  2 39  1  0
  2 40  1  0
  4 41  1  0
  7 42  1  0
  8 43  1  0
 11 44  1  0
 11 45  1  0
 12 46  1  0
 12 47  1  0
 14 48  1  0
 17 49  1  0
 17 50  1  0
 19 51  1  0
 20 52  1  0
 21 53  1  0
 28 54  1  0
 31 55  1  0
 31 56  1  0
 33 57  1  0
M  END
$$$$
[H]OC([H])(c1c([H])c([H])c(C([H])([H])N2C([H])([H])C([H])([H])[C@@]([H])(C([H])([H])N(C([H])([H])[H])C([H])([H])[H])C2([H])[H])c(C(F)(F)F)c1[H])N([H])c1c([H])c([H])c(C([H])([H])[H])c(N([H])c2nc([H])c([H])c(-c3c([H])nc([H])nc3[H])n2)c1[H]
     RDKit          3D

 78 82  0  0  0  0  0  0  0  0999 V2000
   -8.5888   -2.0640   -1.4742 C   0  0  0  0  0  0  0  0  0  0  0  0
   -8.4936   -0.9622   -0.5381 N   0  0  0  0  0  0  0  0  0  0  0  0
   -9.4266   -1.2314    0.5466 C   0  0  0  0  0  0  0  0  0  0  0  0
   -7.1399   -0.8096   -0.0416 C   0  0  0  0  0  0  0  0  0  0  0  0
   -7.0337    0.3285    0.9415 C   0  0  2  0  0  0  0  0  0  0  0  0
   -7.4187    1.6478    0.3517 C   0  0  0  0  0  0  0  0  0  0  0  0
   -6.4753    2.5854    1.0714 C   0  0  0  0  0  0  0  0  0  0  0  0
   -5.2431    1.8543    1.2913 N   0  0  0  0  0  0  0  0  0  0  0  0
   -4.4604    2.0436    0.0803 C   0  0  0  0  0  0  0  0  0  0  0  0
   -3.1053    1.4964    0.1170 C   0  0  0  0  0  0  0  0  0  0  0  0
   -2.5492    0.8651    1.2242 C   0  0  0  0  0  0  0  0  0  0  0  0
   -1.2483    0.3689    1.2437 C   0  0  0  0  0  0  0  0  0  0  0  0
   -0.4516    0.4943    0.1320 C   0  0  0  0  0  0  0  0  0  0  0  0
   -0.9904    1.1155   -0.9638 C   0  0  0  0  0  0  0  0  0  0  0  0
   -2.3014    1.6206   -0.9976 C   0  0  0  0  0  0  0  0  0  0  0  0
   -2.7740    2.2631   -2.2289 C   0  0  0  0  0  0  0  0  0  0  0  0
   -3.8438    1.6406   -2.8354 F   0  0  0  0  0  0  0  0  0  0  0  0
   -1.7503    2.2143   -3.1900 F   0  0  0  0  0  0  0  0  0  0  0  0
   -3.0076    3.6216   -2.0626 F   0  0  0  0  0  0  0  0  0  0  0  0
    0.9567   -0.0408    0.1215 C   0  0  0  0  0  0  0  0  0  0  0  0
    1.5905    0.3095    1.3398 O   0  0  0  0  0  0  0  0  0  0  0  0
    0.9726   -1.4663    0.0323 N   0  0  0  0  0  0  0  0  0  0  0  0
    2.1564   -2.1973   -0.0364 C   0  0  0  0  0  0  0  0  0  0  0  0
    2.1451   -3.5651   -0.0601 C   0  0  0  0  0  0  0  0  0  0  0  0
    3.3362   -4.2895   -0.1339 C   0  0  0  0  0  0  0  0  0  0  0  0
    4.5290   -3.6312   -0.1833 C   0  0  0  0  0  0  0  0  0  0  0  0
    5.7687   -4.4581   -0.2616 C   0  0  0  0  0  0  0  0  0  0  0  0
    4.5935   -2.2267   -0.1615 C   0  0  0  0  0  0  0  0  0  0  0  0
    5.8806   -1.6890   -0.2102 N   0  0  0  0  0  0  0  0  0  0  0  0
    6.2168   -0.3149   -0.2355 C   0  0  0  0  0  0  0  0  0  0  0  0
    5.3899    0.7210   -0.2233 N   0  0  0  0  0  0  0  0  0  0  0  0
    5.7064    2.0138   -0.2458 C   0  0  0  0  0  0  0  0  0  0  0  0
    7.0472    2.3373   -0.2863 C   0  0  0  0  0  0  0  0  0  0  0  0
    7.9605    1.3091   -0.3006 C   0  0  0  0  0  0  0  0  0  0  0  0
    7.5533    0.0297   -0.2759 N   0  0  0  0  0  0  0  0  0  0  0  0
    9.4172    1.5720   -0.3409 C   0  0  0  0  0  0  0  0  0  0  0  0
   10.3081    0.5227   -0.3550 C   0  0  0  0  0  0  0  0  0  0  0  0
   11.6264    0.7748   -0.3895 N   0  0  0  0  0  0  0  0  0  0  0  0
   12.1267    2.0211   -0.4112 C   0  0  0  0  0  0  0  0  0  0  0  0
   11.2831    3.0551   -0.3978 N   0  0  0  0  0  0  0  0  0  0  0  0
    9.9289    2.8321   -0.3631 C   0  0  0  0  0  0  0  0  0  0  0  0
    3.3937   -1.5579   -0.0881 C   0  0  0  0  0  0  0  0  0  0  0  0
   -5.6624    0.5155    1.5132 C   0  0  0  0  0  0  0  0  0  0  0  0
   -9.5792   -2.5917   -1.3762 H   0  0  0  0  0  0  0  0  0  0  0  0
   -7.7825   -2.8013   -1.3739 H   0  0  0  0  0  0  0  0  0  0  0  0
   -8.5149   -1.6227   -2.5004 H   0  0  0  0  0  0  0  0  0  0  0  0
   -8.9723   -1.9039    1.3051 H   0  0  0  0  0  0  0  0  0  0  0  0
  -10.3492   -1.6556    0.1094 H   0  0  0  0  0  0  0  0  0  0  0  0
   -9.6989   -0.2420    0.9757 H   0  0  0  0  0  0  0  0  0  0  0  0
   -6.4665   -0.6384   -0.8997 H   0  0  0  0  0  0  0  0  0  0  0  0
   -6.8599   -1.7585    0.4514 H   0  0  0  0  0  0  0  0  0  0  0  0
   -7.7065    0.0771    1.8153 H   0  0  0  0  0  0  0  0  0  0  0  0
   -7.2502    1.7464   -0.7198 H   0  0  0  0  0  0  0  0  0  0  0  0
   -8.4718    1.8662    0.6612 H   0  0  0  0  0  0  0  0  0  0  0  0
   -6.3240    3.4798    0.4361 H   0  0  0  0  0  0  0  0  0  0  0  0
   -6.9104    2.8094    2.0577 H   0  0  0  0  0  0  0  0  0  0  0  0
   -5.0841    1.7029   -0.7849 H   0  0  0  0  0  0  0  0  0  0  0  0
   -4.3901    3.1562   -0.0481 H   0  0  0  0  0  0  0  0  0  0  0  0
   -3.1535    0.7652    2.1114 H   0  0  0  0  0  0  0  0  0  0  0  0
   -0.8334   -0.1204    2.1149 H   0  0  0  0  0  0  0  0  0  0  0  0
   -0.3438    1.2091   -1.8466 H   0  0  0  0  0  0  0  0  0  0  0  0
    1.5178    0.4602   -0.6657 H   0  0  0  0  0  0  0  0  0  0  0  0
    2.1671    1.0912    1.2495 H   0  0  0  0  0  0  0  0  0  0  0  0
    0.0483   -1.9687    0.0188 H   0  0  0  0  0  0  0  0  0  0  0  0
    1.2084   -4.0712   -0.0212 H   0  0  0  0  0  0  0  0  0  0  0  0
    3.2986   -5.3874   -0.1517 H   0  0  0  0  0  0  0  0  0  0  0  0
    5.4860   -5.5186   -0.3638 H   0  0  0  0  0  0  0  0  0  0  0  0
    6.2983   -4.3438    0.7054 H   0  0  0  0  0  0  0  0  0  0  0  0
    6.4113   -4.1561   -1.1147 H   0  0  0  0  0  0  0  0  0  0  0  0
    6.7373   -2.3544   -0.2306 H   0  0  0  0  0  0  0  0  0  0  0  0
    4.9565    2.7885   -0.2344 H   0  0  0  0  0  0  0  0  0  0  0  0
    7.3802    3.3715   -0.3067 H   0  0  0  0  0  0  0  0  0  0  0  0
    9.8917   -0.4783   -0.3373 H   0  0  0  0  0  0  0  0  0  0  0  0
   13.2194    2.1637   -0.4387 H   0  0  0  0  0  0  0  0  0  0  0  0
    9.3037    3.6987   -0.3546 H   0  0  0  0  0  0  0  0  0  0  0  0
    3.4261   -0.4753   -0.0707 H   0  0  0  0  0  0  0  0  0  0  0  0
   -5.5946    0.1967    2.5787 H   0  0  0  0  0  0  0  0  0  0  0  0
   -4.9883   -0.1638    0.9081 H   0  0  0  0  0  0  0  0  0  0  0  0
  1  2  1  0
  2  3  1  0
  2  4  1  0
  4  5  1  0
  5  6  1  0
  6  7  1  0
  7  8  1  0
  8  9  1  0
  9 10  1  0
 10 11  2  0
 11 12  1  0
 12 13  2  0
 13 14  1  0
 14 15  2  0
 15 16  1  0
 16 17  1  0
 16 18  1  0
 16 19  1  0
 13 20  1  0
 20 21  1  0
 20 22  1  0
 22 23  1  0
 23 24  2  0
 24 25  1  0
 25 26  2  0
 26 27  1  0
 26 28  1  0
 28 29  1  0
 29 30  1  0
 30 31  2  0
 31 32  1  0
 32 33  2  0
 33 34  1  0
 34 35  2  0
 34 36  1  0
 36 37  2  0
 37 38  1  0
 38 39  2  0
 39 40  1  0
 40 41  2  0
 28 42  2  0
  8 43  1  0
 43  5  1  0
 15 10  1  0
 42 23  1  0
 35 30  1  0
 41 36  1  0
  1 44  1  0
  1 45  1  0
  1 46  1  0
  3 47  1  0
  3 48  1  0
  3 49  1  0
  4 50  1  0
  4 51  1  0
  5 52  1  1
  6 53  1  0
  6 54  1  0
  7 55  1  0
  7 56  1  0
  9 57  1  0
  9 58  1  0
 11 59  1  0
 12 60  1  0
 14 61  1  0
 20 62  1  0
 21 63  1  0
 22 64  1  0
 24 65  1  0
 25 66  1  0
 27 67  1  0
 27 68  1  0
 27 69  1  0
 29 70  1  0
 32 71  1  0
 33 72  1  0
 37 73  1  0
 39 74  1  0
 41 75  1  0
 42 76  1  0
 43 77  1  0
 43 78  1  0
M  END
$$$$
[H]c1c([H])c(Cl)c(-c2c([H])c3c([H])nc(N([H])c4c([H])c([H])c([H])c(SC([H])([H])[H])c4[H])nc3n(C([H])([H])[H])c2=O)c(Cl)c1[H]
     RDKit          3D

 45 48  0  0  0  0  0  0  0  0999 V2000
    8.5893    1.0036    0.0302 C   0  0  0  0  0  0  0  0  0  0  0  0
    7.5166    0.4546    1.3981 S   0  0  0  0  0  0  0  0  0  0  0  0
    6.0294   -0.2960    0.7331 C   0  0  0  0  0  0  0  0  0  0  0  0
    5.9684   -1.6474    0.4633 C   0  0  0  0  0  0  0  0  0  0  0  0
    4.8390   -2.2423   -0.0468 C   0  0  0  0  0  0  0  0  0  0  0  0
    3.6863   -1.4906   -0.3179 C   0  0  0  0  0  0  0  0  0  0  0  0
    3.7260   -0.1536   -0.0571 C   0  0  0  0  0  0  0  0  0  0  0  0
    2.6220    0.6819   -0.2630 N   0  0  0  0  0  0  0  0  0  0  0  0
    1.2883    0.2653   -0.1215 C   0  0  0  0  0  0  0  0  0  0  0  0
    0.9672   -0.9583    0.2433 N   0  0  0  0  0  0  0  0  0  0  0  0
   -0.2977   -1.3741    0.3835 C   0  0  0  0  0  0  0  0  0  0  0  0
   -1.3228   -0.4587    0.1285 C   0  0  0  0  0  0  0  0  0  0  0  0
   -2.6339   -0.8262    0.2551 C   0  0  0  0  0  0  0  0  0  0  0  0
   -3.6196    0.0835    0.0011 C   0  0  0  0  0  0  0  0  0  0  0  0
   -5.0111   -0.3402    0.1454 C   0  0  0  0  0  0  0  0  0  0  0  0
   -5.6365   -0.1961    1.3648 C   0  0  0  0  0  0  0  0  0  0  0  0
   -4.8064    0.4849    2.7574 Cl  0  0  0  0  0  0  0  0  0  0  0  0
   -6.9569   -0.6103    1.4596 C   0  0  0  0  0  0  0  0  0  0  0  0
   -7.6225   -1.1474    0.3740 C   0  0  0  0  0  0  0  0  0  0  0  0
   -6.9934   -1.2889   -0.8412 C   0  0  0  0  0  0  0  0  0  0  0  0
   -5.6886   -0.8841   -0.9501 C   0  0  0  0  0  0  0  0  0  0  0  0
   -4.8256   -1.0358   -2.4706 Cl  0  0  0  0  0  0  0  0  0  0  0  0
   -3.2848    1.3621   -0.3800 C   0  0  0  0  0  0  0  0  0  0  0  0
   -4.1716    2.2194   -0.6199 O   0  0  0  0  0  0  0  0  0  0  0  0
   -2.0120    1.7376   -0.5084 N   0  0  0  0  0  0  0  0  0  0  0  0
   -1.6244    3.0790   -0.9088 C   0  0  0  0  0  0  0  0  0  0  0  0
   -1.0191    0.8328   -0.2560 C   0  0  0  0  0  0  0  0  0  0  0  0
    0.2705    1.1649   -0.3719 N   0  0  0  0  0  0  0  0  0  0  0  0
    4.8997    0.4273    0.4656 C   0  0  0  0  0  0  0  0  0  0  0  0
    9.0119    0.1211   -0.5106 H   0  0  0  0  0  0  0  0  0  0  0  0
    9.4410    1.5366    0.4946 H   0  0  0  0  0  0  0  0  0  0  0  0
    8.0229    1.6111   -0.6839 H   0  0  0  0  0  0  0  0  0  0  0  0
    6.8383   -2.2531    0.6607 H   0  0  0  0  0  0  0  0  0  0  0  0
    4.8014   -3.3210   -0.2582 H   0  0  0  0  0  0  0  0  0  0  0  0
    2.8507   -2.0354   -0.7391 H   0  0  0  0  0  0  0  0  0  0  0  0
    2.8144    1.7021   -0.5464 H   0  0  0  0  0  0  0  0  0  0  0  0
   -0.5394   -2.3721    0.6807 H   0  0  0  0  0  0  0  0  0  0  0  0
   -2.8458   -1.8529    0.5603 H   0  0  0  0  0  0  0  0  0  0  0  0
   -7.4938   -0.5174    2.4001 H   0  0  0  0  0  0  0  0  0  0  0  0
   -8.6668   -1.4795    0.4329 H   0  0  0  0  0  0  0  0  0  0  0  0
   -7.5356   -1.7138   -1.6818 H   0  0  0  0  0  0  0  0  0  0  0  0
   -1.0314    3.5133   -0.0734 H   0  0  0  0  0  0  0  0  0  0  0  0
   -2.5134    3.6713   -1.1555 H   0  0  0  0  0  0  0  0  0  0  0  0
   -0.9431    3.0549   -1.7849 H   0  0  0  0  0  0  0  0  0  0  0  0
    4.9127    1.4877    0.6650 H   0  0  0  0  0  0  0  0  0  0  0  0
  1  2  1  0
  2  3  1  0
  3  4  2  0
  4  5  1  0
  5  6  2  0
  6  7  1  0
  7  8  1  0
  8  9  1  0
  9 10  2  0
 10 11  1  0
 11 12  2  0
 12 13  1  0
 13 14  2  0
 14 15  1  0
 15 16  2  0
 16 17  1  0
 16 18  1  0
 18 19  2  0
 19 20  1  0
 20 21  2  0
 21 22  1  0
 14 23  1  0
 23 24  2  0
 23 25  1  0
 25 26  1  0
 25 27  1  0
 27 28  2  0
  7 29  2  0
 29  3  1  0
 28  9  1  0
 27 12  1  0
 21 15  1  0
  1 30  1  0
  1 31  1  0
  1 32  1  0
  4 33  1  0
  5 34  1  0
  6 35  1  0
  8 36  1  0
 11 37  1  0
 13 38  1  0
 18 39  1  0
 19 40  1  0
 20 41  1  0
 26 42  1  0
 26 43  1  0
 26 44  1  0
 29 45  1  0
M  END
$$$$
[H]c1nc(N([H])[H])c2c(-c3c([H])c([H])c(C([H])([H])c4nc([H])c(C([H])([H])[H])o4)c(OC([H])([H])[H])c3[H])nn(C([H])([H])C([H])([H])N3C([H])([H])C([H])([H])C([H])(N(C([H])([H])[H])C([H])([H])[H])C([H])([H])C3([H])[H])c2n1
     RDKit          3D

 70 74  0  0  0  0  0  0  0  0999 V2000
    6.1388    2.4544    0.7618 C   0  0  0  0  0  0  0  0  0  0  0  0
    6.1595    1.0637    0.8415 O   0  0  0  0  0  0  0  0  0  0  0  0
    5.0715    0.2456    0.9314 C   0  0  0  0  0  0  0  0  0  0  0  0
    3.8089    0.8297    0.9463 C   0  0  0  0  0  0  0  0  0  0  0  0
    2.6460    0.1011    1.0348 C   0  0  0  0  0  0  0  0  0  0  0  0
    2.8126   -1.2936    1.1093 C   0  0  0  0  0  0  0  0  0  0  0  0
    4.0638   -1.8578    1.0932 C   0  0  0  0  0  0  0  0  0  0  0  0
    5.2230   -1.1187    1.0051 C   0  0  0  0  0  0  0  0  0  0  0  0
    6.5324   -1.7885    0.9921 C   0  0  0  0  0  0  0  0  0  0  0  0
    7.1533   -1.8425   -0.3522 C   0  0  0  0  0  0  0  0  0  0  0  0
    7.0757   -2.7707   -1.3164 N   0  0  0  0  0  0  0  0  0  0  0  0
    7.8172   -2.3800   -2.3718 C   0  0  0  0  0  0  0  0  0  0  0  0
    8.3534   -1.1699   -2.0111 C   0  0  0  0  0  0  0  0  0  0  0  0
    9.2505   -0.3001   -2.8063 C   0  0  0  0  0  0  0  0  0  0  0  0
    7.9313   -0.8991   -0.8134 O   0  0  0  0  0  0  0  0  0  0  0  0
    1.3017    0.6650    1.0801 C   0  0  0  0  0  0  0  0  0  0  0  0
    0.2965    0.4015    0.2152 N   0  0  0  0  0  0  0  0  0  0  0  0
   -0.7930    1.0247    0.5237 N   0  0  0  0  0  0  0  0  0  0  0  0
   -2.1012    1.0127   -0.1483 C   0  0  0  0  0  0  0  0  0  0  0  0
   -2.9711   -0.0880    0.4083 C   0  0  0  0  0  0  0  0  0  0  0  0
   -4.2431   -0.1934   -0.1662 N   0  0  0  0  0  0  0  0  0  0  0  0
   -4.3458   -0.6155   -1.5097 C   0  0  0  0  0  0  0  0  0  0  0  0
   -5.5713   -1.5215   -1.6971 C   0  0  0  0  0  0  0  0  0  0  0  0
   -6.6516   -1.1725   -0.7173 C   0  0  0  0  0  0  0  0  0  0  0  0
   -6.6044    0.3110   -0.4009 C   0  0  0  0  0  0  0  0  0  0  0  0
   -5.3149    0.5055    0.4068 C   0  0  0  0  0  0  0  0  0  0  0  0
   -7.9806   -1.4993   -1.1699 N   0  0  0  0  0  0  0  0  0  0  0  0
   -8.4004   -0.7918   -2.3451 C   0  0  0  0  0  0  0  0  0  0  0  0
   -8.9493   -1.3246   -0.1305 C   0  0  0  0  0  0  0  0  0  0  0  0
   -0.5355    1.7396    1.6348 C   0  0  0  0  0  0  0  0  0  0  0  0
   -1.3190    2.5558    2.3813 N   0  0  0  0  0  0  0  0  0  0  0  0
   -0.8147    3.1493    3.4731 C   0  0  0  0  0  0  0  0  0  0  0  0
    0.4574    2.9624    3.8623 N   0  0  0  0  0  0  0  0  0  0  0  0
    1.2747    2.1552    3.1452 C   0  0  0  0  0  0  0  0  0  0  0  0
    2.5978    1.9248    3.5717 N   0  0  0  0  0  0  0  0  0  0  0  0
    0.7994    1.5278    2.0157 C   0  0  0  0  0  0  0  0  0  0  0  0
    7.1894    2.7948    0.5702 H   0  0  0  0  0  0  0  0  0  0  0  0
    5.5077    2.8119   -0.0727 H   0  0  0  0  0  0  0  0  0  0  0  0
    5.8617    2.8731    1.7436 H   0  0  0  0  0  0  0  0  0  0  0  0
    3.7278    1.9290    0.8610 H   0  0  0  0  0  0  0  0  0  0  0  0
    1.8990   -1.8877    1.1796 H   0  0  0  0  0  0  0  0  0  0  0  0
    4.1784   -2.9498    1.1511 H   0  0  0  0  0  0  0  0  0  0  0  0
    7.2738   -1.3179    1.6799 H   0  0  0  0  0  0  0  0  0  0  0  0
    6.4462   -2.8387    1.3449 H   0  0  0  0  0  0  0  0  0  0  0  0
    7.9703   -2.8980   -3.3149 H   0  0  0  0  0  0  0  0  0  0  0  0
    8.8230   -0.0127   -3.7844 H   0  0  0  0  0  0  0  0  0  0  0  0
   10.1808   -0.8895   -3.0243 H   0  0  0  0  0  0  0  0  0  0  0  0
    9.5705    0.5815   -2.2226 H   0  0  0  0  0  0  0  0  0  0  0  0
   -1.8808    0.7903   -1.2125 H   0  0  0  0  0  0  0  0  0  0  0  0
   -2.5358    2.0077   -0.0901 H   0  0  0  0  0  0  0  0  0  0  0  0
   -3.0729   -0.0165    1.5154 H   0  0  0  0  0  0  0  0  0  0  0  0
   -2.4130   -1.0488    0.2349 H   0  0  0  0  0  0  0  0  0  0  0  0
   -4.4058    0.1839   -2.2701 H   0  0  0  0  0  0  0  0  0  0  0  0
   -3.4543   -1.2578   -1.7413 H   0  0  0  0  0  0  0  0  0  0  0  0
   -5.2577   -2.5938   -1.5330 H   0  0  0  0  0  0  0  0  0  0  0  0
   -5.9086   -1.4337   -2.7273 H   0  0  0  0  0  0  0  0  0  0  0  0
   -6.4796   -1.7564    0.2130 H   0  0  0  0  0  0  0  0  0  0  0  0
   -6.5692    0.8910   -1.3384 H   0  0  0  0  0  0  0  0  0  0  0  0
   -7.4414    0.5450    0.2625 H   0  0  0  0  0  0  0  0  0  0  0  0
   -5.2065    1.5776    0.5550 H   0  0  0  0  0  0  0  0  0  0  0  0
   -5.5384    0.0689    1.4177 H   0  0  0  0  0  0  0  0  0  0  0  0
   -7.8275   -1.0429   -3.2514 H   0  0  0  0  0  0  0  0  0  0  0  0
   -8.3278    0.2971   -2.1656 H   0  0  0  0  0  0  0  0  0  0  0  0
   -9.4800   -1.0407   -2.5024 H   0  0  0  0  0  0  0  0  0  0  0  0
   -9.6706   -0.5050   -0.3582 H   0  0  0  0  0  0  0  0  0  0  0  0
   -8.5120   -1.0726    0.8633 H   0  0  0  0  0  0  0  0  0  0  0  0
   -9.5572   -2.2558   -0.0671 H   0  0  0  0  0  0  0  0  0  0  0  0
   -1.4897    3.7929    4.0302 H   0  0  0  0  0  0  0  0  0  0  0  0
    2.8799    1.0146    3.9812 H   0  0  0  0  0  0  0  0  0  0  0  0
    3.3510    2.6571    3.4952 H   0  0  0  0  0  0  0  0  0  0  0  0
  1  2  1  0
  2  3  1  0
  3  4  2  0
  4  5  1  0
  5  6  2  0
  6  7  1  0
  7  8  2  0
  8  9  1  0
  9 10  1  0
 10 11  2  0
 11 12  1  0
 12 13  2  0
 13 14  1  0
 13 15  1  0
  5 16  1  0
 16 17  2  0
 17 18  1  0
 18 19  1  0
 19 20  1  0
 20 21  1  0
 21 22  1  0
 22 23  1  0
 23 24  1  0
 24 25  1  0
 25 26  1  0
 24 27  1  0
 27 28  1  0
 27 29  1  0
 18 30  1  0
 30 31  2  0
 31 32  1  0
 32 33  2  0
 33 34  1  0
 34 35  1  0
 34 36  2  0
  8  3  1  0
 15 10  1  0
 36 16  1  0
 26 21  1  0
 36 30  1  0
  1 37  1  0
  1 38  1  0
  1 39  1  0
  4 40  1  0
  6 41  1  0
  7 42  1  0
  9 43  1  0
  9 44  1  0
 12 45  1  0
 14 46  1  0
 14 47  1  0
 14 48  1  0
 19 49  1  0
 19 50  1  0
 20 51  1  0
 20 52  1  0
 22 53  1  0
 22 54  1  0
 23 55  1  0
 23 56  1  0
 24 57  1  0
 25 58  1  0
 25 59  1  0
 26 60  1  0
 26 61  1  0
 28 62  1  0
 28 63  1  0
 28 64  1  0
 29 65  1  0
 29 66  1  0
 29 67  1  0
 32 68  1  0
 35 69  1  0
 35 70  1  0
M  END
$$$$
[H]c1nc(N([H])C([H])([H])C([H])([H])C([H])([H])C2([H])N([H])C([H])([H])C([H])([H])OC2([H])[H])c([H])c(-n2c(N([H])c3c([H])c(N([H])C(=O)c4c([H])c([H])c([H])c(C(F)(F)F)c4[H])c([H])c([H])c3C([H])([H])[H])nc3c([H])c([H])c([H])c([H])c32)n1
     RDKit          3D

 79 84  0  0  0  0  0  0  0  0999 V2000
   -1.3418   -3.3927   -1.8772 C   0  0  0  0  0  0  0  0  0  0  0  0
   -2.5710   -2.5901   -1.7320 C   0  0  0  0  0  0  0  0  0  0  0  0
   -3.7793   -3.1357   -2.0854 C   0  0  0  0  0  0  0  0  0  0  0  0
   -4.9372   -2.3606   -1.9389 C   0  0  0  0  0  0  0  0  0  0  0  0
   -4.8752   -1.0882   -1.4551 C   0  0  0  0  0  0  0  0  0  0  0  0
   -6.0559   -0.3141   -1.1271 N   0  0  0  0  0  0  0  0  0  0  0  0
   -7.2100   -0.9561   -0.7090 C   0  0  0  0  0  0  0  0  0  0  0  0
   -7.2618   -2.2302   -0.6067 O   0  0  0  0  0  0  0  0  0  0  0  0
   -8.4562   -0.2923   -0.3466 C   0  0  0  0  0  0  0  0  0  0  0  0
   -9.6184   -0.6883   -0.9309 C   0  0  0  0  0  0  0  0  0  0  0  0
  -10.8096   -0.1395   -0.5602 C   0  0  0  0  0  0  0  0  0  0  0  0
  -10.8828    0.8310    0.4097 C   0  0  0  0  0  0  0  0  0  0  0  0
   -9.7076    1.2393    1.0025 C   0  0  0  0  0  0  0  0  0  0  0  0
   -8.4915    0.6856    0.6319 C   0  0  0  0  0  0  0  0  0  0  0  0
   -9.7183    2.2725    2.0771 C   0  0  0  0  0  0  0  0  0  0  0  0
   -9.0067    1.8160    3.1899 F   0  0  0  0  0  0  0  0  0  0  0  0
  -11.0179    2.4994    2.5029 F   0  0  0  0  0  0  0  0  0  0  0  0
   -9.1476    3.4556    1.7069 F   0  0  0  0  0  0  0  0  0  0  0  0
   -3.6426   -0.5248   -1.0970 C   0  0  0  0  0  0  0  0  0  0  0  0
   -2.4929   -1.2757   -1.2326 C   0  0  0  0  0  0  0  0  0  0  0  0
   -1.2302   -0.8839   -0.7712 N   0  0  0  0  0  0  0  0  0  0  0  0
   -0.7829    0.4361   -0.6200 C   0  0  0  0  0  0  0  0  0  0  0  0
   -1.3029    1.5419   -1.1606 N   0  0  0  0  0  0  0  0  0  0  0  0
   -0.6444    2.6477   -0.8042 C   0  0  0  0  0  0  0  0  0  0  0  0
   -0.7725    3.9948   -1.1248 C   0  0  0  0  0  0  0  0  0  0  0  0
    0.0913    4.9413   -0.6307 C   0  0  0  0  0  0  0  0  0  0  0  0
    1.1047    4.5208    0.2021 C   0  0  0  0  0  0  0  0  0  0  0  0
    1.2378    3.1816    0.5265 C   0  0  0  0  0  0  0  0  0  0  0  0
    0.3740    2.1963    0.0379 C   0  0  0  0  0  0  0  0  0  0  0  0
    0.2741    0.8696    0.1388 N   0  0  0  0  0  0  0  0  0  0  0  0
    1.0457    0.0294    0.9738 C   0  0  0  0  0  0  0  0  0  0  0  0
    2.3918    0.1458    1.2481 C   0  0  0  0  0  0  0  0  0  0  0  0
    3.0769   -0.6478    2.1183 C   0  0  0  0  0  0  0  0  0  0  0  0
    4.4338   -0.3993    2.4200 N   0  0  0  0  0  0  0  0  0  0  0  0
    5.1505    0.6840    1.8648 C   0  0  0  0  0  0  0  0  0  0  0  0
    5.7924    0.4613    0.5210 C   0  0  0  0  0  0  0  0  0  0  0  0
    6.8187   -0.6191    0.6951 C   0  0  0  0  0  0  0  0  0  0  0  0
    7.5925   -0.9535   -0.5656 C   0  0  0  0  0  0  0  0  0  0  0  0
    8.3254    0.2063   -1.1450 C   0  0  0  0  0  0  0  0  0  0  0  0
    9.5296    0.5208   -0.5589 O   0  0  0  0  0  0  0  0  0  0  0  0
   10.2017   -0.4743    0.0824 C   0  0  0  0  0  0  0  0  0  0  0  0
    9.8504   -1.7814   -0.6123 C   0  0  0  0  0  0  0  0  0  0  0  0
    8.4778   -2.0517   -0.2085 N   0  0  0  0  0  0  0  0  0  0  0  0
    2.3826   -1.6316    2.7582 N   0  0  0  0  0  0  0  0  0  0  0  0
    1.0529   -1.7798    2.5133 C   0  0  0  0  0  0  0  0  0  0  0  0
    0.4261   -0.9838    1.6618 N   0  0  0  0  0  0  0  0  0  0  0  0
   -1.0115   -3.7466   -0.8623 H   0  0  0  0  0  0  0  0  0  0  0  0
   -1.5916   -4.3193   -2.4415 H   0  0  0  0  0  0  0  0  0  0  0  0
   -0.5397   -2.8511   -2.4090 H   0  0  0  0  0  0  0  0  0  0  0  0
   -3.8871   -4.1281   -2.4718 H   0  0  0  0  0  0  0  0  0  0  0  0
   -5.8946   -2.7737   -2.2443 H   0  0  0  0  0  0  0  0  0  0  0  0
   -5.9619    0.7148   -1.2262 H   0  0  0  0  0  0  0  0  0  0  0  0
   -9.6258   -1.4553   -1.7069 H   0  0  0  0  0  0  0  0  0  0  0  0
  -11.7437   -0.4429   -1.0144 H   0  0  0  0  0  0  0  0  0  0  0  0
  -11.8151    1.2811    0.7252 H   0  0  0  0  0  0  0  0  0  0  0  0
   -7.5635    1.0233    1.1068 H   0  0  0  0  0  0  0  0  0  0  0  0
   -3.5991    0.4920   -0.7202 H   0  0  0  0  0  0  0  0  0  0  0  0
   -0.5155   -1.6366   -0.5315 H   0  0  0  0  0  0  0  0  0  0  0  0
   -1.5785    4.2887   -1.7748 H   0  0  0  0  0  0  0  0  0  0  0  0
    0.0094    6.0006   -0.8769 H   0  0  0  0  0  0  0  0  0  0  0  0
    1.7942    5.2360    0.6027 H   0  0  0  0  0  0  0  0  0  0  0  0
    2.0308    2.8824    1.2001 H   0  0  0  0  0  0  0  0  0  0  0  0
    2.9570    0.8887    0.7170 H   0  0  0  0  0  0  0  0  0  0  0  0
    4.9107   -1.0669    3.0937 H   0  0  0  0  0  0  0  0  0  0  0  0
    4.5323    1.6217    1.8204 H   0  0  0  0  0  0  0  0  0  0  0  0
    5.9917    0.9775    2.5703 H   0  0  0  0  0  0  0  0  0  0  0  0
    6.3941    1.4079    0.3505 H   0  0  0  0  0  0  0  0  0  0  0  0
    5.0599    0.2721   -0.2464 H   0  0  0  0  0  0  0  0  0  0  0  0
    7.5230   -0.3092    1.4957 H   0  0  0  0  0  0  0  0  0  0  0  0
    6.2842   -1.5297    1.0839 H   0  0  0  0  0  0  0  0  0  0  0  0
    6.8779   -1.3474   -1.2946 H   0  0  0  0  0  0  0  0  0  0  0  0
    8.5582    0.0114   -2.2132 H   0  0  0  0  0  0  0  0  0  0  0  0
    7.7076    1.1196   -1.1448 H   0  0  0  0  0  0  0  0  0  0  0  0
   10.0634   -0.5350    1.1713 H   0  0  0  0  0  0  0  0  0  0  0  0
   11.2912   -0.3132   -0.1341 H   0  0  0  0  0  0  0  0  0  0  0  0
    9.9316   -1.6048   -1.6939 H   0  0  0  0  0  0  0  0  0  0  0  0
   10.4952   -2.5570   -0.1978 H   0  0  0  0  0  0  0  0  0  0  0  0
    8.5621   -2.1540    0.8559 H   0  0  0  0  0  0  0  0  0  0  0  0
    0.4794   -2.5598    3.0286 H   0  0  0  0  0  0  0  0  0  0  0  0
  1  2  1  0
  2  3  2  0
  3  4  1  0
  4  5  2  0
  5  6  1  0
  6  7  1  0
  7  8  2  0
  7  9  1  0
  9 10  2  0
 10 11  1  0
 11 12  2  0
 12 13  1  0
 13 14  2  0
 13 15  1  0
 15 16  1  0
 15 17  1  0
 15 18  1  0
  5 19  1  0
 19 20  2  0
 20 21  1  0
 21 22  1  0
 22 23  2  0
 23 24  1  0
 24 25  2  0
 25 26  1  0
 26 27  2  0
 27 28  1  0
 28 29  2  0
 29 30  1  0
 30 31  1  0
 31 32  2  0
 32 33  1  0
 33 34  1  0
 34 35  1  0
 35 36  1  0
 36 37  1  0
 37 38  1  0
 38 39  1  0
 39 40  1  0
 40 41  1  0
 41 42  1  0
 42 43  1  0
 33 44  2  0
 44 45  1  0
 45 46  2  0
 20  2  1  0
 30 22  1  0
 46 31  1  0
 14  9  1  0
 29 24  1  0
 43 38  1  0
  1 47  1  0
  1 48  1  0
  1 49  1  0
  3 50  1  0
  4 51  1  0
  6 52  1  0
 10 53  1  0
 11 54  1  0
 12 55  1  0
 14 56  1  0
 19 57  1  0
 21 58  1  0
 25 59  1  0
 26 60  1  0
 27 61  1  0
 28 62  1  0
 32 63  1  0
 34 64  1  0
 35 65  1  0
 35 66  1  0
 36 67  1  0
 36 68  1  0
 37 69  1  0
 37 70  1  0
 38 71  1  0
 39 72  1  0
 39 73  1  0
 41 74  1  0
 41 75  1  0
 42 76  1  0
 42 77  1  0
 43 78  1  0
 45 79  1  0
M  END
$$$$
[H]c1c([H])c(C([H])([H])[H])c(-c2c([H])c(C([H])([H])[H])c3nc(N([H])c4c([H])c([H])c(OC([H])([H])C([H])([H])N5C([H])([H])C([H])([H])C([H])([H])C5([H])[H])c([H])c4[H])nnc3c2[H])c(C([H])([H])[H])c1[H]
     RDKit          3D

 65 69  0  0  0  0  0  0  0  0999 V2000
   -6.5966    2.6416    0.4782 C   0  0  0  0  0  0  0  0  0  0  0  0
   -7.4097    1.4156    0.5561 C   0  0  0  0  0  0  0  0  0  0  0  0
   -8.7510    1.4988    0.8498 C   0  0  0  0  0  0  0  0  0  0  0  0
   -9.5210    0.3553    0.9242 C   0  0  0  0  0  0  0  0  0  0  0  0
   -8.9280   -0.8631    0.7010 C   0  0  0  0  0  0  0  0  0  0  0  0
   -7.5541   -0.9353    0.4010 C   0  0  0  0  0  0  0  0  0  0  0  0
   -6.9358   -2.2644    0.1650 C   0  0  0  0  0  0  0  0  0  0  0  0
   -6.7880    0.1912    0.3260 C   0  0  0  0  0  0  0  0  0  0  0  0
   -5.3740    0.1498    0.0047 C   0  0  0  0  0  0  0  0  0  0  0  0
   -4.3755    0.3059    0.9516 C   0  0  0  0  0  0  0  0  0  0  0  0
   -3.0811    0.2703    0.5443 C   0  0  0  0  0  0  0  0  0  0  0  0
   -1.9822    0.4335    1.5400 C   0  0  0  0  0  0  0  0  0  0  0  0
   -2.7070    0.0856   -0.7731 C   0  0  0  0  0  0  0  0  0  0  0  0
   -1.4369    0.0547   -1.2037 N   0  0  0  0  0  0  0  0  0  0  0  0
   -1.0854   -0.1161   -2.4697 C   0  0  0  0  0  0  0  0  0  0  0  0
    0.2276   -0.1403   -2.9240 N   0  0  0  0  0  0  0  0  0  0  0  0
    1.4258    0.0032   -2.1912 C   0  0  0  0  0  0  0  0  0  0  0  0
    2.6231   -0.1962   -2.8662 C   0  0  0  0  0  0  0  0  0  0  0  0
    3.8666   -0.0841   -2.2928 C   0  0  0  0  0  0  0  0  0  0  0  0
    3.9482    0.2524   -0.9405 C   0  0  0  0  0  0  0  0  0  0  0  0
    5.1935    0.3684   -0.3495 O   0  0  0  0  0  0  0  0  0  0  0  0
    5.3220    0.7012    0.9961 C   0  0  0  0  0  0  0  0  0  0  0  0
    6.7789    0.7584    1.3825 C   0  0  0  0  0  0  0  0  0  0  0  0
    7.4363   -0.4905    1.1861 N   0  0  0  0  0  0  0  0  0  0  0  0
    8.8267   -0.3867    1.5822 C   0  0  0  0  0  0  0  0  0  0  0  0
    9.6668   -0.9166    0.4417 C   0  0  0  0  0  0  0  0  0  0  0  0
    8.6707   -1.8818   -0.2188 C   0  0  0  0  0  0  0  0  0  0  0  0
    7.4167   -1.0000   -0.1489 C   0  0  0  0  0  0  0  0  0  0  0  0
    2.7837    0.4569   -0.2412 C   0  0  0  0  0  0  0  0  0  0  0  0
    1.5365    0.3323   -0.8647 C   0  0  0  0  0  0  0  0  0  0  0  0
   -2.1031   -0.2650   -3.3505 N   0  0  0  0  0  0  0  0  0  0  0  0
   -3.3721   -0.2511   -3.0387 N   0  0  0  0  0  0  0  0  0  0  0  0
   -3.6907   -0.0736   -1.7359 C   0  0  0  0  0  0  0  0  0  0  0  0
   -4.9983   -0.0374   -1.3216 C   0  0  0  0  0  0  0  0  0  0  0  0
   -7.2092    3.5556    0.4356 H   0  0  0  0  0  0  0  0  0  0  0  0
   -5.8979    2.6960    1.3669 H   0  0  0  0  0  0  0  0  0  0  0  0
   -5.9506    2.5401   -0.4368 H   0  0  0  0  0  0  0  0  0  0  0  0
   -9.2429    2.4429    1.0297 H   0  0  0  0  0  0  0  0  0  0  0  0
  -10.5893    0.4180    1.1568 H   0  0  0  0  0  0  0  0  0  0  0  0
   -9.5014   -1.7822    0.7508 H   0  0  0  0  0  0  0  0  0  0  0  0
   -7.7013   -3.0728    0.1618 H   0  0  0  0  0  0  0  0  0  0  0  0
   -6.3911   -2.2439   -0.7987 H   0  0  0  0  0  0  0  0  0  0  0  0
   -6.1916   -2.4560    0.9902 H   0  0  0  0  0  0  0  0  0  0  0  0
   -4.6965    0.4495    1.9766 H   0  0  0  0  0  0  0  0  0  0  0  0
   -1.3410    1.3004    1.2269 H   0  0  0  0  0  0  0  0  0  0  0  0
   -1.3192   -0.4611    1.5489 H   0  0  0  0  0  0  0  0  0  0  0  0
   -2.3576    0.5590    2.5663 H   0  0  0  0  0  0  0  0  0  0  0  0
    0.3211   -0.2863   -3.9966 H   0  0  0  0  0  0  0  0  0  0  0  0
    2.5912   -0.4598   -3.9218 H   0  0  0  0  0  0  0  0  0  0  0  0
    4.7850   -0.2506   -2.8647 H   0  0  0  0  0  0  0  0  0  0  0  0
    4.8247    1.6653    1.2442 H   0  0  0  0  0  0  0  0  0  0  0  0
    4.8606   -0.0490    1.6966 H   0  0  0  0  0  0  0  0  0  0  0  0
    7.2917    1.6059    0.8632 H   0  0  0  0  0  0  0  0  0  0  0  0
    6.8555    1.0228    2.4688 H   0  0  0  0  0  0  0  0  0  0  0  0
    9.0956    0.6280    1.8748 H   0  0  0  0  0  0  0  0  0  0  0  0
    8.9638   -1.1059    2.4407 H   0  0  0  0  0  0  0  0  0  0  0  0
   10.5757   -1.4442    0.7719 H   0  0  0  0  0  0  0  0  0  0  0  0
    9.9141   -0.1018   -0.3020 H   0  0  0  0  0  0  0  0  0  0  0  0
    8.9376   -2.1374   -1.2399 H   0  0  0  0  0  0  0  0  0  0  0  0
    8.5298   -2.6975    0.4867 H   0  0  0  0  0  0  0  0  0  0  0  0
    6.5525   -1.6422   -0.3650 H   0  0  0  0  0  0  0  0  0  0  0  0
    7.5271   -0.1376   -0.8527 H   0  0  0  0  0  0  0  0  0  0  0  0
    2.8180    0.7216    0.8227 H   0  0  0  0  0  0  0  0  0  0  0  0
    0.6830    0.5106   -0.2651 H   0  0  0  0  0  0  0  0  0  0  0  0
   -5.7701   -0.1605   -2.0606 H   0  0  0  0  0  0  0  0  0  0  0  0
  1  2  1  0
  2  3  2  0
  3  4  1  0
  4  5  2  0
  5  6  1  0
  6  7  1  0
  6  8  2  0
  8  9  1  0
  9 10  2  0
 10 11  1  0
 11 12  1  0
 11 13  2  0
 13 14  1  0
 14 15  2  0
 15 16  1  0
 16 17  1  0
 17 18  2  0
 18 19  1  0
 19 20  2  0
 20 21  1  0
 21 22  1  0
 22 23  1  0
 23 24  1  0
 24 25  1  0
 25 26  1  0
 26 27  1  0
 27 28  1  0
 20 29  1  0
 29 30  2  0
 15 31  1  0
 31 32  2  0
 32 33  1  0
 33 34  2  0
  8  2  1  0
 34  9  1  0
 33 13  1  0
 30 17  1  0
 28 24  1  0
  1 35  1  0
  1 36  1  0
  1 37  1  0
  3 38  1  0
  4 39  1  0
  5 40  1  0
  7 41  1  0
  7 42  1  0
  7 43  1  0
 10 44  1  0
 12 45  1  0
 12 46  1  0
 12 47  1  0
 16 48  1  0
 18 49  1  0
 19 50  1  0
 22 51  1  0
 22 52  1  0
 23 53  1  0
 23 54  1  0
 25 55  1  0
 25 56  1  0
 26 57  1  0
 26 58  1  0
 27 59  1  0
 27 60  1  0
 28 61  1  0
 28 62  1  0
 29 63  1  0
 30 64  1  0
 34 65  1  0
M  END
$$$$
[H]C(=C1C(=O)N([H])c2c([H])c([H])c([H])c([H])c21)c1c(-c2c([H])c([H])c([H])c([H])c2[N+](=O)[O-])nn([H])c1[H]
     RDKit          3D

 37 40  0  0  0  0  0  0  0  0999 V2000
    3.2608   -1.1282   -2.6287 O   0  0  0  0  0  0  0  0  0  0  0  0
    4.0705   -1.0725   -1.5442 N   0  0  0  0  0  0  0  0  0  0  0  0
    5.2678   -1.3966   -1.6324 O   0  0  0  0  0  0  0  0  0  0  0  0
    3.5578   -0.6399   -0.2925 C   0  0  0  0  0  0  0  0  0  0  0  0
    4.1677   -1.1700    0.8603 C   0  0  0  0  0  0  0  0  0  0  0  0
    3.7508   -0.8291    2.1210 C   0  0  0  0  0  0  0  0  0  0  0  0
    2.7115    0.0531    2.2800 C   0  0  0  0  0  0  0  0  0  0  0  0
    2.1249    0.5649    1.1444 C   0  0  0  0  0  0  0  0  0  0  0  0
    2.5212    0.2420   -0.1377 C   0  0  0  0  0  0  0  0  0  0  0  0
    1.8856    0.8549   -1.2913 C   0  0  0  0  0  0  0  0  0  0  0  0
    2.4455    1.6084   -2.2746 N   0  0  0  0  0  0  0  0  0  0  0  0
    1.5229    1.9610   -3.1146 N   0  0  0  0  0  0  0  0  0  0  0  0
    0.3238    1.4746   -2.7483 C   0  0  0  0  0  0  0  0  0  0  0  0
    0.5112    0.7640   -1.5907 C   0  0  0  0  0  0  0  0  0  0  0  0
   -0.4385    0.0136   -0.8163 C   0  0  0  0  0  0  0  0  0  0  0  0
   -1.5838    0.4688   -0.3500 C   0  0  0  0  0  0  0  0  0  0  0  0
   -2.2014    1.7806   -0.4587 C   0  0  0  0  0  0  0  0  0  0  0  0
   -1.7549    2.8101   -1.0125 O   0  0  0  0  0  0  0  0  0  0  0  0
   -3.4851    1.7293    0.2063 N   0  0  0  0  0  0  0  0  0  0  0  0
   -3.6556    0.4226    0.7124 C   0  0  0  0  0  0  0  0  0  0  0  0
   -4.7436   -0.1148    1.4316 C   0  0  0  0  0  0  0  0  0  0  0  0
   -4.7212   -1.4144    1.8352 C   0  0  0  0  0  0  0  0  0  0  0  0
   -3.6157   -2.1726    1.5216 C   0  0  0  0  0  0  0  0  0  0  0  0
   -2.5510   -1.6682    0.8244 C   0  0  0  0  0  0  0  0  0  0  0  0
   -2.5640   -0.3478    0.4087 C   0  0  0  0  0  0  0  0  0  0  0  0
    4.9823   -1.8617    0.7145 H   0  0  0  0  0  0  0  0  0  0  0  0
    4.2260   -1.2414    3.0178 H   0  0  0  0  0  0  0  0  0  0  0  0
    2.4010    0.3052    3.2893 H   0  0  0  0  0  0  0  0  0  0  0  0
    1.3089    1.2580    1.2765 H   0  0  0  0  0  0  0  0  0  0  0  0
    1.7223    2.5513   -3.9608 H   0  0  0  0  0  0  0  0  0  0  0  0
   -0.6259    1.6141   -3.2911 H   0  0  0  0  0  0  0  0  0  0  0  0
   -0.2158   -1.0375   -0.5756 H   0  0  0  0  0  0  0  0  0  0  0  0
   -4.1747    2.5029    0.3064 H   0  0  0  0  0  0  0  0  0  0  0  0
   -5.6051    0.4835    1.6748 H   0  0  0  0  0  0  0  0  0  0  0  0
   -5.5302   -1.9001    2.3962 H   0  0  0  0  0  0  0  0  0  0  0  0
   -3.5912   -3.1989    1.8370 H   0  0  0  0  0  0  0  0  0  0  0  0
   -1.7049   -2.2692    0.5910 H   0  0  0  0  0  0  0  0  0  0  0  0
  1  2  1  0
  2  3  2  0
  2  4  1  0
  4  5  2  0
  5  6  1  0
  6  7  2  0
  7  8  1  0
  8  9  2  0
  9 10  1  0
 10 11  2  0
 11 12  1  0
 12 13  1  0
 13 14  2  0
 14 15  1  0
 15 16  2  3
 16 17  1  0
 17 18  2  0
 17 19  1  0
 19 20  1  0
 20 21  2  0
 21 22  1  0
 22 23  2  0
 23 24  1  0
 24 25  2  0
  9  4  1  0
 14 10  1  0
 25 16  1  0
 25 20  1  0
  5 26  1  0
  6 27  1  0
  7 28  1  0
  8 29  1  0
 12 30  1  0
 13 31  1  0
 15 32  1  0
 19 33  1  0
 21 34  1  0
 22 35  1  0
 23 36  1  0
 24 37  1  0
M  CHG  2   1  -1   2   1
M  END
$$$$
[H]C([H])=C([H])C(=O)N([H])[C@]1([H])C([H])([H])C([H])([H])[C@]([H])(n2nc(-c3c([H])c([H])c(Oc4c([H])c([H])c([H])c([H])c4[H])c([H])c3[H])c3c(N([H])[H])nc([H])nc32)C([H])([H])C1([H])[H]
     RDKit          3D

 60 64  0  0  0  0  0  0  0  0999 V2000
    2.9239    0.0653   -3.0844 N   0  0  0  0  0  0  0  0  0  0  0  0
    1.5595    0.2939   -3.3566 C   0  0  0  0  0  0  0  0  0  0  0  0
    1.0978    0.2626   -4.6251 N   0  0  0  0  0  0  0  0  0  0  0  0
   -0.2060    0.4434   -4.9031 C   0  0  0  0  0  0  0  0  0  0  0  0
   -1.0999    0.6624   -3.9244 N   0  0  0  0  0  0  0  0  0  0  0  0
   -0.7030    0.7065   -2.6296 C   0  0  0  0  0  0  0  0  0  0  0  0
   -1.3922    0.8927   -1.4878 N   0  0  0  0  0  0  0  0  0  0  0  0
   -0.5424    0.8333   -0.5167 N   0  0  0  0  0  0  0  0  0  0  0  0
    0.7240    0.6095   -0.9692 C   0  0  0  0  0  0  0  0  0  0  0  0
    1.9056    0.4612   -0.1365 C   0  0  0  0  0  0  0  0  0  0  0  0
    3.0417    1.2270   -0.2099 C   0  0  0  0  0  0  0  0  0  0  0  0
    4.1418    1.0003    0.6101 C   0  0  0  0  0  0  0  0  0  0  0  0
    4.1462   -0.0107    1.5444 C   0  0  0  0  0  0  0  0  0  0  0  0
    5.2600   -0.2287    2.3642 O   0  0  0  0  0  0  0  0  0  0  0  0
    6.2460   -1.0828    1.9536 C   0  0  0  0  0  0  0  0  0  0  0  0
    6.1767   -1.7394    0.7428 C   0  0  0  0  0  0  0  0  0  0  0  0
    7.1778   -2.5953    0.3457 C   0  0  0  0  0  0  0  0  0  0  0  0
    8.2493   -2.7845    1.1778 C   0  0  0  0  0  0  0  0  0  0  0  0
    8.3253   -2.1396    2.3757 C   0  0  0  0  0  0  0  0  0  0  0  0
    7.3288   -1.2821    2.7805 C   0  0  0  0  0  0  0  0  0  0  0  0
    3.0172   -0.7928    1.6382 C   0  0  0  0  0  0  0  0  0  0  0  0
    1.9338   -0.5651    0.8258 C   0  0  0  0  0  0  0  0  0  0  0  0
    0.6532    0.5201   -2.3354 C   0  0  0  0  0  0  0  0  0  0  0  0
   -2.8240    1.1151   -1.4022 C   0  0  2  0  0  0  0  0  0  0  0  0
   -3.0738    2.0729   -0.2950 C   0  0  0  0  0  0  0  0  0  0  0  0
   -4.5034    2.3329    0.0409 C   0  0  0  0  0  0  0  0  0  0  0  0
   -5.4054    1.1466   -0.0613 C   0  0  1  0  0  0  0  0  0  0  0  0
   -5.0448    0.1982   -1.1712 C   0  0  0  0  0  0  0  0  0  0  0  0
   -3.5589   -0.1741   -1.0828 C   0  0  0  0  0  0  0  0  0  0  0  0
   -5.4602    0.3729    1.1619 N   0  0  0  0  0  0  0  0  0  0  0  0
   -6.6125    0.1551    1.9161 C   0  0  0  0  0  0  0  0  0  0  0  0
   -7.7067    0.6410    1.5557 O   0  0  0  0  0  0  0  0  0  0  0  0
   -6.5745   -0.6387    3.1359 C   0  0  0  0  0  0  0  0  0  0  0  0
   -7.6482   -0.8570    3.8627 C   0  0  0  0  0  0  0  0  0  0  0  0
    3.6225    0.7894   -3.3235 H   0  0  0  0  0  0  0  0  0  0  0  0
    3.2299   -0.8195   -2.6484 H   0  0  0  0  0  0  0  0  0  0  0  0
   -0.5755    0.4184   -5.9171 H   0  0  0  0  0  0  0  0  0  0  0  0
    3.0552    2.0545   -0.9320 H   0  0  0  0  0  0  0  0  0  0  0  0
    4.9871    1.6329    0.4961 H   0  0  0  0  0  0  0  0  0  0  0  0
    5.3206   -1.5879    0.0786 H   0  0  0  0  0  0  0  0  0  0  0  0
    7.1322   -3.1170   -0.6064 H   0  0  0  0  0  0  0  0  0  0  0  0
    9.0522   -3.4470    0.9016 H   0  0  0  0  0  0  0  0  0  0  0  0
    9.1675   -2.2835    3.0387 H   0  0  0  0  0  0  0  0  0  0  0  0
    7.3690   -0.7604    3.7270 H   0  0  0  0  0  0  0  0  0  0  0  0
    3.0287   -1.5873    2.3772 H   0  0  0  0  0  0  0  0  0  0  0  0
    1.0448   -1.1794    0.8986 H   0  0  0  0  0  0  0  0  0  0  0  0
   -3.2054    1.4683   -2.3716 H   0  0  0  0  0  0  0  0  0  0  0  0
   -2.4801    1.7438    0.5968 H   0  0  0  0  0  0  0  0  0  0  0  0
   -2.6025    3.0580   -0.5860 H   0  0  0  0  0  0  0  0  0  0  0  0
   -4.5396    2.6837    1.1054 H   0  0  0  0  0  0  0  0  0  0  0  0
   -4.8683    3.1910   -0.5610 H   0  0  0  0  0  0  0  0  0  0  0  0
   -6.4355    1.5091   -0.2558 H   0  0  0  0  0  0  0  0  0  0  0  0
   -5.1670    0.7345   -2.1337 H   0  0  0  0  0  0  0  0  0  0  0  0
   -5.6918   -0.6924   -1.0804 H   0  0  0  0  0  0  0  0  0  0  0  0
   -3.2969   -0.5436   -0.0830 H   0  0  0  0  0  0  0  0  0  0  0  0
   -3.3591   -0.9700   -1.8207 H   0  0  0  0  0  0  0  0  0  0  0  0
   -4.5323   -0.0403    1.4721 H   0  0  0  0  0  0  0  0  0  0  0  0
   -5.6257   -1.0804    3.4798 H   0  0  0  0  0  0  0  0  0  0  0  0
   -8.5879   -0.4404    3.5543 H   0  0  0  0  0  0  0  0  0  0  0  0
   -7.5947   -1.4414    4.7526 H   0  0  0  0  0  0  0  0  0  0  0  0
  1  2  1  0
  2  3  2  0
  3  4  1  0
  4  5  2  0
  5  6  1  0
  6  7  1  0
  7  8  1  0
  8  9  2  0
  9 10  1  0
 10 11  2  0
 11 12  1  0
 12 13  2  0
 13 14  1  0
 14 15  1  0
 15 16  2  0
 16 17  1  0
 17 18  2  0
 18 19  1  0
 19 20  2  0
 13 21  1  0
 21 22  2  0
  9 23  1  0
  7 24  1  0
 24 25  1  0
 25 26  1  0
 26 27  1  0
 27 28  1  0
 28 29  1  0
 27 30  1  0
 30 31  1  0
 31 32  2  0
 31 33  1  0
 33 34  2  3
 23  2  1  0
 29 24  1  0
 23  6  2  0
 22 10  1  0
 20 15  1  0
  1 35  1  0
  1 36  1  0
  4 37  1  0
 11 38  1  0
 12 39  1  0
 16 40  1  0
 17 41  1  0
 18 42  1  0
 19 43  1  0
 20 44  1  0
 21 45  1  0
 22 46  1  0
 24 47  1  6
 25 48  1  0
 25 49  1  0
 26 50  1  0
 26 51  1  0
 27 52  1  6
 28 53  1  0
 28 54  1  0
 29 55  1  0
 29 56  1  0
 30 57  1  0
 33 58  1  0
 34 59  1  0
 34 60  1  0
M  END
$$$$
[H]c1c([H])c([H])c2c(c1[H])c1c3c(c4c5c([H])c([H])c([H])c([H])c5n5c4c1n2C1([H])OC5([H])[C@]([H])(OC([H])([H])[H])[C@]([H])(N([H])C([H])([H])[H])C1([H])[H])C([H])([H])N([H])C3=O
     RDKit          3D

 58 65  0  0  0  0  0  0  0  0999 V2000
    4.4507    1.7180   -1.0129 C   0  0  0  0  0  0  0  0  0  0  0  0
    3.1951    1.2505   -1.4833 N   0  0  0  0  0  0  0  0  0  0  0  0
    2.2503    0.8123   -0.5220 C   0  0  2  0  0  0  0  0  0  0  0  0
    1.8581    1.9250    0.4144 C   0  0  0  0  0  0  0  0  0  0  0  0
    0.9447    1.4584    1.5154 C   0  0  0  0  0  0  0  0  0  0  0  0
    1.1963    0.2381    2.0139 O   0  0  0  0  0  0  0  0  0  0  0  0
    1.5460   -0.7870    1.1606 C   0  0  0  0  0  0  0  0  0  0  0  0
    2.6291   -0.4462    0.1691 C   0  0  2  0  0  0  0  0  0  0  0  0
    3.8452   -0.4382    0.8160 O   0  0  0  0  0  0  0  0  0  0  0  0
    4.6531   -1.4739    0.3421 C   0  0  0  0  0  0  0  0  0  0  0  0
    0.3624   -1.3705    0.5213 N   0  0  0  0  0  0  0  0  0  0  0  0
    0.2122   -2.6353    0.1016 C   0  0  0  0  0  0  0  0  0  0  0  0
    1.0409   -3.7237    0.1053 C   0  0  0  0  0  0  0  0  0  0  0  0
    0.6784   -4.9525   -0.3839 C   0  0  0  0  0  0  0  0  0  0  0  0
   -0.6040   -5.0842   -0.9092 C   0  0  0  0  0  0  0  0  0  0  0  0
   -1.4647   -4.0197   -0.9319 C   0  0  0  0  0  0  0  0  0  0  0  0
   -1.0513   -2.8150   -0.4301 C   0  0  0  0  0  0  0  0  0  0  0  0
   -1.6980   -1.5780   -0.3217 C   0  0  0  0  0  0  0  0  0  0  0  0
   -2.9449   -1.1050   -0.6539 C   0  0  0  0  0  0  0  0  0  0  0  0
   -4.0715   -1.8278   -1.2876 C   0  0  0  0  0  0  0  0  0  0  0  0
   -5.1080   -0.8593   -1.3928 N   0  0  0  0  0  0  0  0  0  0  0  0
   -4.6780    0.4065   -0.8657 C   0  0  0  0  0  0  0  0  0  0  0  0
   -5.4280    1.3738   -0.8667 O   0  0  0  0  0  0  0  0  0  0  0  0
   -3.3230    0.2219   -0.4118 C   0  0  0  0  0  0  0  0  0  0  0  0
   -2.4141    1.0790    0.1777 C   0  0  0  0  0  0  0  0  0  0  0  0
   -2.4609    2.4063    0.5383 C   0  0  0  0  0  0  0  0  0  0  0  0
   -3.3876    3.4184    0.4816 C   0  0  0  0  0  0  0  0  0  0  0  0
   -3.1448    4.7018    0.9381 C   0  0  0  0  0  0  0  0  0  0  0  0
   -1.9017    4.9596    1.4752 C   0  0  0  0  0  0  0  0  0  0  0  0
   -0.9633    3.9493    1.5369 C   0  0  0  0  0  0  0  0  0  0  0  0
   -1.2055    2.6708    1.0819 C   0  0  0  0  0  0  0  0  0  0  0  0
   -0.4442    1.5629    1.0503 N   0  0  0  0  0  0  0  0  0  0  0  0
   -1.1625    0.5617    0.4984 C   0  0  0  0  0  0  0  0  0  0  0  0
   -0.7956   -0.7360    0.2618 C   0  0  0  0  0  0  0  0  0  0  0  0
    5.2642    1.0465   -1.4162 H   0  0  0  0  0  0  0  0  0  0  0  0
    4.5841    1.7635    0.0766 H   0  0  0  0  0  0  0  0  0  0  0  0
    4.7305    2.7224   -1.4055 H   0  0  0  0  0  0  0  0  0  0  0  0
    3.3209    0.6058   -2.2938 H   0  0  0  0  0  0  0  0  0  0  0  0
    1.3006    0.5776   -1.0971 H   0  0  0  0  0  0  0  0  0  0  0  0
    1.2904    2.6698   -0.1810 H   0  0  0  0  0  0  0  0  0  0  0  0
    2.7781    2.3506    0.8612 H   0  0  0  0  0  0  0  0  0  0  0  0
    1.0386    2.2067    2.3414 H   0  0  0  0  0  0  0  0  0  0  0  0
    1.9639   -1.6017    1.8112 H   0  0  0  0  0  0  0  0  0  0  0  0
    2.6212   -1.2855   -0.5788 H   0  0  0  0  0  0  0  0  0  0  0  0
    5.6315   -1.4754    0.8556 H   0  0  0  0  0  0  0  0  0  0  0  0
    4.8225   -1.3991   -0.7480 H   0  0  0  0  0  0  0  0  0  0  0  0
    4.1694   -2.4747    0.5014 H   0  0  0  0  0  0  0  0  0  0  0  0
    2.0515   -3.5991    0.5248 H   0  0  0  0  0  0  0  0  0  0  0  0
    1.3642   -5.7929   -0.3631 H   0  0  0  0  0  0  0  0  0  0  0  0
   -0.9397   -6.0448   -1.3120 H   0  0  0  0  0  0  0  0  0  0  0  0
   -2.4474   -4.1077   -1.3302 H   0  0  0  0  0  0  0  0  0  0  0  0
   -3.7891   -2.1778   -2.3024 H   0  0  0  0  0  0  0  0  0  0  0  0
   -4.4207   -2.6559   -0.6410 H   0  0  0  0  0  0  0  0  0  0  0  0
   -6.0512   -1.0217   -1.7912 H   0  0  0  0  0  0  0  0  0  0  0  0
   -4.3493    3.2535    0.0760 H   0  0  0  0  0  0  0  0  0  0  0  0
   -3.8988    5.4907    0.8830 H   0  0  0  0  0  0  0  0  0  0  0  0
   -1.6775    5.9532    1.8427 H   0  0  0  0  0  0  0  0  0  0  0  0
    0.0312    4.1345    1.9597 H   0  0  0  0  0  0  0  0  0  0  0  0
  1  2  1  0
  2  3  1  0
  3  4  1  0
  4  5  1  0
  5  6  1  0
  6  7  1  0
  7  8  1  0
  8  9  1  0
  9 10  1  0
  7 11  1  0
 11 12  1  0
 12 13  2  0
 13 14  1  0
 14 15  2  0
 15 16  1  0
 16 17  2  0
 17 18  1  0
 18 19  2  0
 19 20  1  0
 20 21  1  0
 21 22  1  0
 22 23  2  0
 22 24  1  0
 24 25  2  0
 25 26  1  0
 26 27  2  0
 27 28  1  0
 28 29  2  0
 29 30  1  0
 30 31  2  0
 31 32  1  0
 32 33  1  0
 33 34  2  0
  8  3  1  0
 34 11  1  0
 32  5  1  0
 17 12  1  0
 34 18  1  0
 24 19  1  0
 33 25  1  0
 31 26  1  0
  1 35  1  0
  1 36  1  0
  1 37  1  0
  2 38  1  0
  3 39  1  6
  4 40  1  0
  4 41  1  0
  5 42  1  0
  7 43  1  0
  8 44  1  6
 10 45  1  0
 10 46  1  0
 10 47  1  0
 13 48  1  0
 14 49  1  0
 15 50  1  0
 16 51  1  0
 20 52  1  0
 20 53  1  0
 21 54  1  0
 27 55  1  0
 28 56  1  0
 29 57  1  0
 30 58  1  0
M  END
$$$$
[H]c1c([H])c(N([H])c2nc(N([H])C([H])([H])[C@@]([H])(N([H])[H])C([H])([H])[H])c([H])c3nc([H])n([H])c(=O)c23)c2c(c1[H])c([H])c([H])n2[H]
     RDKit          3D

 45 48  0  0  0  0  0  0  0  0999 V2000
    5.9704   -0.8098    0.5823 C   0  0  0  0  0  0  0  0  0  0  0  0
    4.4653   -0.7234    0.7238 C   0  0  2  0  0  0  0  0  0  0  0  0
    4.0660   -1.2625    2.0258 N   0  0  0  0  0  0  0  0  0  0  0  0
    3.7557   -1.5207   -0.3361 C   0  0  0  0  0  0  0  0  0  0  0  0
    2.3454   -1.4566   -0.2351 N   0  0  0  0  0  0  0  0  0  0  0  0
    1.5485   -0.3347   -0.5825 C   0  0  0  0  0  0  0  0  0  0  0  0
    2.0837    0.7946   -1.1384 C   0  0  0  0  0  0  0  0  0  0  0  0
    1.2789    1.8816   -1.4474 C   0  0  0  0  0  0  0  0  0  0  0  0
    1.8861    2.9528   -2.0019 N   0  0  0  0  0  0  0  0  0  0  0  0
    1.1073    3.9999   -2.3117 C   0  0  0  0  0  0  0  0  0  0  0  0
   -0.2079    3.9724   -2.0779 N   0  0  0  0  0  0  0  0  0  0  0  0
   -0.8224    2.8889   -1.5166 C   0  0  0  0  0  0  0  0  0  0  0  0
   -2.0449    2.9262   -1.3288 O   0  0  0  0  0  0  0  0  0  0  0  0
   -0.0820    1.8003   -1.1814 C   0  0  0  0  0  0  0  0  0  0  0  0
   -0.6337    0.6625   -0.6185 C   0  0  0  0  0  0  0  0  0  0  0  0
   -1.9967    0.5837   -0.2909 N   0  0  0  0  0  0  0  0  0  0  0  0
   -2.6874   -0.5454    0.2311 C   0  0  0  0  0  0  0  0  0  0  0  0
   -2.1759   -1.7849    0.3771 C   0  0  0  0  0  0  0  0  0  0  0  0
   -2.9445   -2.8320    0.8790 C   0  0  0  0  0  0  0  0  0  0  0  0
   -4.2472   -2.6533    1.2450 C   0  0  0  0  0  0  0  0  0  0  0  0
   -4.7969   -1.4098    1.1095 C   0  0  0  0  0  0  0  0  0  0  0  0
   -6.0610   -0.9501    1.3938 C   0  0  0  0  0  0  0  0  0  0  0  0
   -6.0656    0.3885    1.0635 C   0  0  0  0  0  0  0  0  0  0  0  0
   -4.8465    0.6887    0.6050 N   0  0  0  0  0  0  0  0  0  0  0  0
   -4.0302   -0.3844    0.6138 C   0  0  0  0  0  0  0  0  0  0  0  0
    0.2320   -0.3312   -0.3588 N   0  0  0  0  0  0  0  0  0  0  0  0
    6.4649    0.0653    1.0626 H   0  0  0  0  0  0  0  0  0  0  0  0
    6.2820   -0.8972   -0.4775 H   0  0  0  0  0  0  0  0  0  0  0  0
    6.3149   -1.7094    1.1325 H   0  0  0  0  0  0  0  0  0  0  0  0
    4.1780    0.3325    0.6473 H   0  0  0  0  0  0  0  0  0  0  0  0
    3.0896   -1.6249    1.9353 H   0  0  0  0  0  0  0  0  0  0  0  0
    4.0889   -0.4713    2.7036 H   0  0  0  0  0  0  0  0  0  0  0  0
    4.1151   -1.1081   -1.3214 H   0  0  0  0  0  0  0  0  0  0  0  0
    4.1384   -2.5843   -0.3634 H   0  0  0  0  0  0  0  0  0  0  0  0
    1.8504   -2.3198    0.1301 H   0  0  0  0  0  0  0  0  0  0  0  0
    3.1577    0.8225   -1.3517 H   0  0  0  0  0  0  0  0  0  0  0  0
    1.5024    4.9074   -2.7611 H   0  0  0  0  0  0  0  0  0  0  0  0
   -0.8118    4.7729   -2.3138 H   0  0  0  0  0  0  0  0  0  0  0  0
   -2.6020    1.4083   -0.4091 H   0  0  0  0  0  0  0  0  0  0  0  0
   -1.1872   -2.0495    0.1190 H   0  0  0  0  0  0  0  0  0  0  0  0
   -2.5247   -3.8144    0.9902 H   0  0  0  0  0  0  0  0  0  0  0  0
   -4.8133   -3.4916    1.6313 H   0  0  0  0  0  0  0  0  0  0  0  0
   -6.9098   -1.4875    1.7945 H   0  0  0  0  0  0  0  0  0  0  0  0
   -6.8940    1.0778    1.1537 H   0  0  0  0  0  0  0  0  0  0  0  0
   -4.5360    1.6302    0.2739 H   0  0  0  0  0  0  0  0  0  0  0  0
  1  2  1  0
  2  3  1  0
  2  4  1  0
  4  5  1  0
  5  6  1  0
  6  7  2  0
  7  8  1  0
  8  9  1  0
  9 10  2  0
 10 11  1  0
 11 12  1  0
 12 13  2  0
 12 14  1  0
 14 15  1  0
 15 16  1  0
 16 17  1  0
 17 18  2  0
 18 19  1  0
 19 20  2  0
 20 21  1  0
 21 22  1  0
 22 23  2  0
 23 24  1  0
 24 25  1  0
 15 26  2  0
 26  6  1  0
 14  8  2  0
 25 17  1  0
 25 21  2  0
  1 27  1  0
  1 28  1  0
  1 29  1  0
  2 30  1  1
  3 31  1  0
  3 32  1  0
  4 33  1  0
  4 34  1  0
  5 35  1  0
  7 36  1  0
 10 37  1  0
 11 38  1  0
 16 39  1  0
 18 40  1  0
 19 41  1  0
 20 42  1  0
 22 43  1  0
 23 44  1  0
 24 45  1  0
M  END
$$$$
[H]c1nc(N([H])c2c([H])c([H])c([H])c(N3C([H])([H])C([H])([H])OC([H])([H])C3([H])[H])c2[H])nc(-c2c(-c3c([H])c([H])c([H])c(N([H])C(=O)C([H])([H])c4c([H])c([H])c([H])c([H])c4[H])c3[H])nc3sc([H])c([H])n23)c1[H]
     RDKit          3D

 72 78  0  0  0  0  0  0  0  0999 V2000
    6.0763    0.4128   -0.8253 O   0  0  0  0  0  0  0  0  0  0  0  0
    6.7714    0.4221    0.2582 C   0  0  0  0  0  0  0  0  0  0  0  0
    8.2338    0.4161    0.1589 C   0  0  0  0  0  0  0  0  0  0  0  0
    8.7494   -0.9090   -0.1922 C   0  0  0  0  0  0  0  0  0  0  0  0
    9.2399   -1.6820    0.8825 C   0  0  0  0  0  0  0  0  0  0  0  0
    9.7397   -2.9280    0.7050 C   0  0  0  0  0  0  0  0  0  0  0  0
    9.7742   -3.4689   -0.5645 C   0  0  0  0  0  0  0  0  0  0  0  0
    9.3020   -2.7445   -1.6511 C   0  0  0  0  0  0  0  0  0  0  0  0
    8.7952   -1.4655   -1.4395 C   0  0  0  0  0  0  0  0  0  0  0  0
    6.0854    0.4409    1.4981 N   0  0  0  0  0  0  0  0  0  0  0  0
    4.6673    0.4833    1.5373 C   0  0  0  0  0  0  0  0  0  0  0  0
    3.9495   -0.3188    2.4366 C   0  0  0  0  0  0  0  0  0  0  0  0
    2.5808   -0.2300    2.5144 C   0  0  0  0  0  0  0  0  0  0  0  0
    1.8775    0.6627    1.6982 C   0  0  0  0  0  0  0  0  0  0  0  0
    2.5416    1.4697    0.8024 C   0  0  0  0  0  0  0  0  0  0  0  0
    3.9259    1.3299    0.7715 C   0  0  0  0  0  0  0  0  0  0  0  0
    1.8747    2.4640   -0.0171 C   0  0  0  0  0  0  0  0  0  0  0  0
    2.3230    3.7587    0.0143 N   0  0  0  0  0  0  0  0  0  0  0  0
    1.5457    4.4735   -0.8393 C   0  0  0  0  0  0  0  0  0  0  0  0
    1.2472    6.0123   -1.4959 S   0  0  0  0  0  0  0  0  0  0  0  0
   -0.0705    5.6136   -2.5051 C   0  0  0  0  0  0  0  0  0  0  0  0
   -0.2092    4.2679   -2.2680 C   0  0  0  0  0  0  0  0  0  0  0  0
    0.6251    3.7115   -1.4163 N   0  0  0  0  0  0  0  0  0  0  0  0
    0.8391    2.4514   -0.8924 C   0  0  0  0  0  0  0  0  0  0  0  0
    0.0509    1.2303   -1.1813 C   0  0  0  0  0  0  0  0  0  0  0  0
    0.5779    0.1036   -1.7336 C   0  0  0  0  0  0  0  0  0  0  0  0
   -0.3157   -0.9563   -1.9425 C   0  0  0  0  0  0  0  0  0  0  0  0
   -1.6167   -0.8445   -1.6081 N   0  0  0  0  0  0  0  0  0  0  0  0
   -2.1335    0.2563   -1.0685 C   0  0  0  0  0  0  0  0  0  0  0  0
   -3.4774    0.4355   -0.6918 N   0  0  0  0  0  0  0  0  0  0  0  0
   -4.5007   -0.5089   -0.8243 C   0  0  0  0  0  0  0  0  0  0  0  0
   -4.5153   -1.6052   -1.6416 C   0  0  0  0  0  0  0  0  0  0  0  0
   -5.5571   -2.5161   -1.7159 C   0  0  0  0  0  0  0  0  0  0  0  0
   -6.6734   -2.3476   -0.9338 C   0  0  0  0  0  0  0  0  0  0  0  0
   -6.6717   -1.2375   -0.0978 C   0  0  0  0  0  0  0  0  0  0  0  0
   -5.6452   -0.3407   -0.0247 C   0  0  0  0  0  0  0  0  0  0  0  0
   -7.8434   -1.0466    0.7115 N   0  0  0  0  0  0  0  0  0  0  0  0
   -9.1651   -0.8526    0.1873 C   0  0  0  0  0  0  0  0  0  0  0  0
  -10.1572   -1.3199    1.2185 C   0  0  0  0  0  0  0  0  0  0  0  0
  -10.0465   -0.6512    2.4108 O   0  0  0  0  0  0  0  0  0  0  0  0
   -8.7854   -0.2304    2.7529 C   0  0  0  0  0  0  0  0  0  0  0  0
   -7.6777   -1.0764    2.1664 C   0  0  0  0  0  0  0  0  0  0  0  0
   -1.2489    1.2828   -0.8708 N   0  0  0  0  0  0  0  0  0  0  0  0
    8.5639    1.2082   -0.5581 H   0  0  0  0  0  0  0  0  0  0  0  0
    8.6548    0.7505    1.1468 H   0  0  0  0  0  0  0  0  0  0  0  0
    9.2176   -1.2633    1.8956 H   0  0  0  0  0  0  0  0  0  0  0  0
   10.1050   -3.4717    1.5800 H   0  0  0  0  0  0  0  0  0  0  0  0
   10.1725   -4.4608   -0.6927 H   0  0  0  0  0  0  0  0  0  0  0  0
    9.3343   -3.1812   -2.6410 H   0  0  0  0  0  0  0  0  0  0  0  0
    8.4258   -0.8848   -2.2733 H   0  0  0  0  0  0  0  0  0  0  0  0
    6.6325    0.4246    2.3717 H   0  0  0  0  0  0  0  0  0  0  0  0
    4.5093   -1.0023    3.0583 H   0  0  0  0  0  0  0  0  0  0  0  0
    2.0229   -0.8438    3.1967 H   0  0  0  0  0  0  0  0  0  0  0  0
    0.8146    0.7439    1.7423 H   0  0  0  0  0  0  0  0  0  0  0  0
    4.4322    1.9755    0.0612 H   0  0  0  0  0  0  0  0  0  0  0  0
   -0.6786    6.2413   -3.1805 H   0  0  0  0  0  0  0  0  0  0  0  0
   -1.0292    3.7407   -2.8276 H   0  0  0  0  0  0  0  0  0  0  0  0
    1.6206    0.0488   -1.9912 H   0  0  0  0  0  0  0  0  0  0  0  0
    0.0254   -1.8739   -2.3756 H   0  0  0  0  0  0  0  0  0  0  0  0
   -3.7664    1.3823   -0.2694 H   0  0  0  0  0  0  0  0  0  0  0  0
   -3.6727   -1.8011   -2.3062 H   0  0  0  0  0  0  0  0  0  0  0  0
   -5.4879   -3.3481   -2.3858 H   0  0  0  0  0  0  0  0  0  0  0  0
   -7.5284   -3.0007   -0.9231 H   0  0  0  0  0  0  0  0  0  0  0  0
   -5.6809    0.5150    0.6443 H   0  0  0  0  0  0  0  0  0  0  0  0
   -9.3621    0.2246   -0.0708 H   0  0  0  0  0  0  0  0  0  0  0  0
   -9.3751   -1.4127   -0.7566 H   0  0  0  0  0  0  0  0  0  0  0  0
  -11.1686   -1.0509    0.8055 H   0  0  0  0  0  0  0  0  0  0  0  0
  -10.1212   -2.4165    1.2745 H   0  0  0  0  0  0  0  0  0  0  0  0
   -8.6146    0.8209    2.3935 H   0  0  0  0  0  0  0  0  0  0  0  0
   -8.6334   -0.1870    3.8601 H   0  0  0  0  0  0  0  0  0  0  0  0
   -7.7934   -2.1538    2.4560 H   0  0  0  0  0  0  0  0  0  0  0  0
   -6.7025   -0.6645    2.4820 H   0  0  0  0  0  0  0  0  0  0  0  0
  1  2  2  0
  2  3  1  0
  3  4  1  0
  4  5  2  0
  5  6  1  0
  6  7  2  0
  7  8  1  0
  8  9  2  0
  2 10  1  0
 10 11  1  0
 11 12  2  0
 12 13  1  0
 13 14  2  0
 14 15  1  0
 15 16  2  0
 15 17  1  0
 17 18  1  0
 18 19  2  0
 19 20  1  0
 20 21  1  0
 21 22  2  0
 22 23  1  0
 23 24  1  0
 24 25  1  0
 25 26  2  0
 26 27  1  0
 27 28  2  0
 28 29  1  0
 29 30  1  0
 30 31  1  0
 31 32  2  0
 32 33  1  0
 33 34  2  0
 34 35  1  0
 35 36  2  0
 35 37  1  0
 37 38  1  0
 38 39  1  0
 39 40  1  0
 40 41  1  0
 41 42  1  0
 29 43  2  0
  9  4  1  0
 16 11  1  0
 24 17  2  0
 43 25  1  0
 23 19  1  0
 36 31  1  0
 42 37  1  0
  3 44  1  0
  3 45  1  0
  5 46  1  0
  6 47  1  0
  7 48  1  0
  8 49  1  0
  9 50  1  0
 10 51  1  0
 12 52  1  0
 13 53  1  0
 14 54  1  0
 16 55  1  0
 21 56  1  0
 22 57  1  0
 26 58  1  0
 27 59  1  0
 30 60  1  0
 32 61  1  0
 33 62  1  0
 34 63  1  0
 36 64  1  0
 38 65  1  0
 38 66  1  0
 39 67  1  0
 39 68  1  0
 41 69  1  0
 41 70  1  0
 42 71  1  0
 42 72  1  0
M  END
$$$$
[H]OC([H])([H])C([H])([H])N1C([H])([H])C([H])([H])N(c2nc(C([H])([H])[H])nc(N([H])c3nc([H])c(C(=O)N([H])c4c(Cl)c([H])c([H])c([H])c4C([H])([H])[H])s3)c2[H])C([H])([H])C1([H])[H]
     RDKit          3D

 59 62  0  0  0  0  0  0  0  0999 V2000
    0.6166   -2.8435   -0.5820 C   0  0  0  0  0  0  0  0  0  0  0  0
    1.1865   -1.4829   -0.8147 C   0  0  0  0  0  0  0  0  0  0  0  0
    0.3557   -0.4469   -0.6876 N   0  0  0  0  0  0  0  0  0  0  0  0
    0.7874    0.8080   -0.8762 C   0  0  0  0  0  0  0  0  0  0  0  0
   -0.0651    1.9179   -0.7269 N   0  0  0  0  0  0  0  0  0  0  0  0
   -1.4175    1.6754   -0.3282 C   0  0  0  0  0  0  0  0  0  0  0  0
   -2.4000    2.5336   -0.1144 N   0  0  0  0  0  0  0  0  0  0  0  0
   -3.5662    2.1129    0.2568 C   0  0  0  0  0  0  0  0  0  0  0  0
   -3.7284    0.7550    0.4139 C   0  0  0  0  0  0  0  0  0  0  0  0
   -2.1774    0.1748    0.0124 S   0  0  0  0  0  0  0  0  0  0  0  0
   -4.9426    0.0295    0.8278 C   0  0  0  0  0  0  0  0  0  0  0  0
   -4.8773   -1.2038    0.8982 O   0  0  0  0  0  0  0  0  0  0  0  0
   -6.1088    0.7882    1.1216 N   0  0  0  0  0  0  0  0  0  0  0  0
   -7.3213    0.1648    1.5318 C   0  0  0  0  0  0  0  0  0  0  0  0
   -8.2433   -0.2074    0.6115 C   0  0  0  0  0  0  0  0  0  0  0  0
   -8.0489    0.0111   -0.8335 C   0  0  0  0  0  0  0  0  0  0  0  0
   -9.4209   -0.8162    1.0289 C   0  0  0  0  0  0  0  0  0  0  0  0
   -9.6232   -1.0277    2.3744 C   0  0  0  0  0  0  0  0  0  0  0  0
   -8.6589   -0.6347    3.2901 C   0  0  0  0  0  0  0  0  0  0  0  0
   -7.4862   -0.0304    2.8989 C   0  0  0  0  0  0  0  0  0  0  0  0
   -6.2415    0.4807    4.0358 Cl  0  0  0  0  0  0  0  0  0  0  0  0
    2.1061    1.0053   -1.2041 C   0  0  0  0  0  0  0  0  0  0  0  0
    3.0030   -0.0399   -1.3457 C   0  0  0  0  0  0  0  0  0  0  0  0
    2.4604   -1.2803   -1.1320 N   0  0  0  0  0  0  0  0  0  0  0  0
    4.3648    0.1171   -1.6573 N   0  0  0  0  0  0  0  0  0  0  0  0
    5.1833   -1.0547   -1.8793 C   0  0  0  0  0  0  0  0  0  0  0  0
    6.4528   -0.9898   -1.0488 C   0  0  0  0  0  0  0  0  0  0  0  0
    6.8314    0.3134   -0.6722 N   0  0  0  0  0  0  0  0  0  0  0  0
    7.0896    0.5767    0.6944 C   0  0  0  0  0  0  0  0  0  0  0  0
    8.3474   -0.1130    1.1511 C   0  0  0  0  0  0  0  0  0  0  0  0
    8.3070   -1.4945    1.0236 O   0  0  0  0  0  0  0  0  0  0  0  0
    6.4240    1.4035   -1.4850 C   0  0  0  0  0  0  0  0  0  0  0  0
    4.9221    1.4563   -1.7235 C   0  0  0  0  0  0  0  0  0  0  0  0
    1.3563   -3.5960   -0.8776 H   0  0  0  0  0  0  0  0  0  0  0  0
   -0.3450   -2.9816   -1.1549 H   0  0  0  0  0  0  0  0  0  0  0  0
    0.3990   -2.9009    0.5237 H   0  0  0  0  0  0  0  0  0  0  0  0
    0.2734    2.8703   -0.9000 H   0  0  0  0  0  0  0  0  0  0  0  0
   -4.4066    2.8240    0.4421 H   0  0  0  0  0  0  0  0  0  0  0  0
   -6.0969    1.8225    1.0428 H   0  0  0  0  0  0  0  0  0  0  0  0
   -8.9637   -0.2011   -1.4183 H   0  0  0  0  0  0  0  0  0  0  0  0
   -7.2555   -0.6867   -1.1681 H   0  0  0  0  0  0  0  0  0  0  0  0
   -7.6636    1.0247   -0.9986 H   0  0  0  0  0  0  0  0  0  0  0  0
  -10.1520   -1.1103    0.2971 H   0  0  0  0  0  0  0  0  0  0  0  0
  -10.5416   -1.5002    2.6806 H   0  0  0  0  0  0  0  0  0  0  0  0
   -8.8363   -0.8096    4.3426 H   0  0  0  0  0  0  0  0  0  0  0  0
    2.4893    2.0021   -1.3670 H   0  0  0  0  0  0  0  0  0  0  0  0
    5.4969   -1.1091   -2.9416 H   0  0  0  0  0  0  0  0  0  0  0  0
    4.5700   -1.9493   -1.6743 H   0  0  0  0  0  0  0  0  0  0  0  0
    7.2943   -1.5500   -1.4995 H   0  0  0  0  0  0  0  0  0  0  0  0
    6.1817   -1.5655   -0.1099 H   0  0  0  0  0  0  0  0  0  0  0  0
    6.2488    0.2861    1.3613 H   0  0  0  0  0  0  0  0  0  0  0  0
    7.2674    1.6641    0.8205 H   0  0  0  0  0  0  0  0  0  0  0  0
    9.1908    0.2417    0.4905 H   0  0  0  0  0  0  0  0  0  0  0  0
    8.6515    0.2051    2.1733 H   0  0  0  0  0  0  0  0  0  0  0  0
    7.8472   -1.8156    1.8636 H   0  0  0  0  0  0  0  0  0  0  0  0
    6.6890    2.3511   -0.9435 H   0  0  0  0  0  0  0  0  0  0  0  0
    6.9790    1.4225   -2.4398 H   0  0  0  0  0  0  0  0  0  0  0  0
    4.4595    2.0562   -0.9188 H   0  0  0  0  0  0  0  0  0  0  0  0
    4.7568    1.9592   -2.6864 H   0  0  0  0  0  0  0  0  0  0  0  0
  1  2  1  0
  2  3  2  0
  3  4  1  0
  4  5  1  0
  5  6  1  0
  6  7  2  0
  7  8  1  0
  8  9  2  0
  9 10  1  0
  9 11  1  0
 11 12  2  0
 11 13  1  0
 13 14  1  0
 14 15  2  0
 15 16  1  0
 15 17  1  0
 17 18  2  0
 18 19  1  0
 19 20  2  0
 20 21  1  0
  4 22  2  0
 22 23  1  0
 23 24  2  0
 23 25  1  0
 25 26  1  0
 26 27  1  0
 27 28  1  0
 28 29  1  0
 29 30  1  0
 30 31  1  0
 28 32  1  0
 32 33  1  0
 24  2  1  0
 33 25  1  0
 10  6  1  0
 20 14  1  0
  1 34  1  0
  1 35  1  0
  1 36  1  0
  5 37  1  0
  8 38  1  0
 13 39  1  0
 16 40  1  0
 16 41  1  0
 16 42  1  0
 17 43  1  0
 18 44  1  0
 19 45  1  0
 22 46  1  0
 26 47  1  0
 26 48  1  0
 27 49  1  0
 27 50  1  0
 29 51  1  0
 29 52  1  0
 30 53  1  0
 30 54  1  0
 31 55  1  0
 32 56  1  0
 32 57  1  0
 33 58  1  0
 33 59  1  0
M  END
$$$$
[H]c1nc(N([H])[H])c2c(-c3c([H])c([H])c(Oc4c([H])c([H])c([H])c([H])c4[H])c([H])c3[H])c([H])n(C3([H])C([H])([H])C([H])([H])C([H])(N4C([H])([H])C([H])([H])N(C([H])([H])[H])C([H])([H])C4([H])[H])C([H])([H])C3([H])[H])c2n1
     RDKit          3D

 70 75  0  0  0  0  0  0  0  0999 V2000
    8.9631    2.0343   -0.2929 C   0  0  0  0  0  0  0  0  0  0  0  0
    8.0265    1.2518    0.4537 N   0  0  0  0  0  0  0  0  0  0  0  0
    8.0391   -0.1129   -0.0648 C   0  0  0  0  0  0  0  0  0  0  0  0
    6.7033   -0.7811    0.2646 C   0  0  0  0  0  0  0  0  0  0  0  0
    5.7064   -0.1326   -0.5610 N   0  0  0  0  0  0  0  0  0  0  0  0
    5.9663    1.2426   -0.7623 C   0  0  0  0  0  0  0  0  0  0  0  0
    6.6851    1.7955    0.4626 C   0  0  0  0  0  0  0  0  0  0  0  0
    4.3866   -0.5530   -0.3225 C   0  0  0  0  0  0  0  0  0  0  0  0
    3.8236   -0.2819    1.0468 C   0  0  0  0  0  0  0  0  0  0  0  0
    2.4686   -1.0056    1.0966 C   0  0  0  0  0  0  0  0  0  0  0  0
    1.5895   -0.3029    0.0863 C   0  0  0  0  0  0  0  0  0  0  0  0
    2.0885   -0.7209   -1.2913 C   0  0  0  0  0  0  0  0  0  0  0  0
    3.4756   -0.0796   -1.4224 C   0  0  0  0  0  0  0  0  0  0  0  0
    0.1911   -0.6348    0.2614 N   0  0  0  0  0  0  0  0  0  0  0  0
   -0.7990    0.2503    0.2462 C   0  0  0  0  0  0  0  0  0  0  0  0
   -2.0256   -0.4031    0.4472 C   0  0  0  0  0  0  0  0  0  0  0  0
   -3.3229    0.2494    0.5340 C   0  0  0  0  0  0  0  0  0  0  0  0
   -3.7456    0.9370   -0.6040 C   0  0  0  0  0  0  0  0  0  0  0  0
   -4.9421    1.6074   -0.5706 C   0  0  0  0  0  0  0  0  0  0  0  0
   -5.7624    1.6412    0.5388 C   0  0  0  0  0  0  0  0  0  0  0  0
   -6.9760    2.3270    0.5572 O   0  0  0  0  0  0  0  0  0  0  0  0
   -8.1703    1.7163    0.1862 C   0  0  0  0  0  0  0  0  0  0  0  0
   -8.9632    1.0697    1.1063 C   0  0  0  0  0  0  0  0  0  0  0  0
  -10.1496    0.4679    0.7138 C   0  0  0  0  0  0  0  0  0  0  0  0
  -10.5863    0.4851   -0.5858 C   0  0  0  0  0  0  0  0  0  0  0  0
   -9.7962    1.1321   -1.5151 C   0  0  0  0  0  0  0  0  0  0  0  0
   -8.6075    1.7360   -1.1261 C   0  0  0  0  0  0  0  0  0  0  0  0
   -5.3100    0.9454    1.6551 C   0  0  0  0  0  0  0  0  0  0  0  0
   -4.1165    0.2649    1.6524 C   0  0  0  0  0  0  0  0  0  0  0  0
   -1.7135   -1.7268    0.5813 C   0  0  0  0  0  0  0  0  0  0  0  0
   -2.5063   -2.8536    0.7873 C   0  0  0  0  0  0  0  0  0  0  0  0
   -3.9148   -2.7503    0.8840 N   0  0  0  0  0  0  0  0  0  0  0  0
   -1.8838   -4.0499    0.8691 N   0  0  0  0  0  0  0  0  0  0  0  0
   -0.5444   -4.1382    0.7533 C   0  0  0  0  0  0  0  0  0  0  0  0
    0.2276   -3.0691    0.5543 N   0  0  0  0  0  0  0  0  0  0  0  0
   -0.3427   -1.8406    0.4636 C   0  0  0  0  0  0  0  0  0  0  0  0
    8.5395    2.5071   -1.1875 H   0  0  0  0  0  0  0  0  0  0  0  0
    9.4729    2.7956    0.3531 H   0  0  0  0  0  0  0  0  0  0  0  0
    9.7887    1.3391   -0.6088 H   0  0  0  0  0  0  0  0  0  0  0  0
    8.8742   -0.7109    0.3789 H   0  0  0  0  0  0  0  0  0  0  0  0
    8.1544   -0.1340   -1.1688 H   0  0  0  0  0  0  0  0  0  0  0  0
    6.4792   -0.7251    1.3338 H   0  0  0  0  0  0  0  0  0  0  0  0
    6.7911   -1.8300   -0.0923 H   0  0  0  0  0  0  0  0  0  0  0  0
    6.7312    1.3192   -1.5926 H   0  0  0  0  0  0  0  0  0  0  0  0
    5.1349    1.8603   -1.0727 H   0  0  0  0  0  0  0  0  0  0  0  0
    6.2012    1.4384    1.4087 H   0  0  0  0  0  0  0  0  0  0  0  0
    6.7630    2.8990    0.4189 H   0  0  0  0  0  0  0  0  0  0  0  0
    4.3775   -1.6853   -0.4137 H   0  0  0  0  0  0  0  0  0  0  0  0
    4.4828   -0.7240    1.7937 H   0  0  0  0  0  0  0  0  0  0  0  0
    3.6031    0.7732    1.2358 H   0  0  0  0  0  0  0  0  0  0  0  0
    2.6230   -2.0489    0.7507 H   0  0  0  0  0  0  0  0  0  0  0  0
    2.0170   -0.9315    2.0923 H   0  0  0  0  0  0  0  0  0  0  0  0
    1.7596    0.7827    0.1833 H   0  0  0  0  0  0  0  0  0  0  0  0
    2.2044   -1.8026   -1.2906 H   0  0  0  0  0  0  0  0  0  0  0  0
    1.4727   -0.3048   -2.1010 H   0  0  0  0  0  0  0  0  0  0  0  0
    3.8889   -0.4699   -2.3889 H   0  0  0  0  0  0  0  0  0  0  0  0
    3.3641    1.0151   -1.4858 H   0  0  0  0  0  0  0  0  0  0  0  0
   -0.7257    1.3105    0.1060 H   0  0  0  0  0  0  0  0  0  0  0  0
   -3.1253    0.9375   -1.5088 H   0  0  0  0  0  0  0  0  0  0  0  0
   -5.2856    2.1529   -1.4609 H   0  0  0  0  0  0  0  0  0  0  0  0
   -8.6693    1.0227    2.1493 H   0  0  0  0  0  0  0  0  0  0  0  0
  -10.7669   -0.0390    1.4480 H   0  0  0  0  0  0  0  0  0  0  0  0
  -11.5151    0.0076   -0.8622 H   0  0  0  0  0  0  0  0  0  0  0  0
  -10.1264    1.1549   -2.5453 H   0  0  0  0  0  0  0  0  0  0  0  0
   -8.0025    2.2342   -1.8530 H   0  0  0  0  0  0  0  0  0  0  0  0
   -5.9431    0.9656    2.5261 H   0  0  0  0  0  0  0  0  0  0  0  0
   -3.7897   -0.2615    2.5504 H   0  0  0  0  0  0  0  0  0  0  0  0
   -4.5108   -2.4564    0.0659 H   0  0  0  0  0  0  0  0  0  0  0  0
   -4.3429   -2.9855    1.8282 H   0  0  0  0  0  0  0  0  0  0  0  0
   -0.0825   -5.1231    0.8262 H   0  0  0  0  0  0  0  0  0  0  0  0
  1  2  1  0
  2  3  1  0
  3  4  1  0
  4  5  1  0
  5  6  1  0
  6  7  1  0
  5  8  1  0
  8  9  1  0
  9 10  1  0
 10 11  1  0
 11 12  1  0
 12 13  1  0
 11 14  1  0
 14 15  1  0
 15 16  2  0
 16 17  1  0
 17 18  2  0
 18 19  1  0
 19 20  2  0
 20 21  1  0
 21 22  1  0
 22 23  2  0
 23 24  1  0
 24 25  2  0
 25 26  1  0
 26 27  2  0
 20 28  1  0
 28 29  2  0
 16 30  1  0
 30 31  2  0
 31 32  1  0
 31 33  1  0
 33 34  2  0
 34 35  1  0
 35 36  2  0
  7  2  1  0
 13  8  1  0
 36 14  1  0
 29 17  1  0
 36 30  1  0
 27 22  1  0
  1 37  1  0
  1 38  1  0
  1 39  1  0
  3 40  1  0
  3 41  1  0
  4 42  1  0
  4 43  1  0
  6 44  1  0
  6 45  1  0
  7 46  1  0
  7 47  1  0
  8 48  1  0
  9 49  1  0
  9 50  1  0
 10 51  1  0
 10 52  1  0
 11 53  1  0
 12 54  1  0
 12 55  1  0
 13 56  1  0
 13 57  1  0
 15 58  1  0
 18 59  1  0
 19 60  1  0
 23 61  1  0
 24 62  1  0
 25 63  1  0
 26 64  1  0
 27 65  1  0
 28 66  1  0
 29 67  1  0
 32 68  1  0
 32 69  1  0
 34 70  1  0
M  END
$$$$
[H]c1c([H])c([H])c2c(c([H])c([H])n2[H])c1N([H])c1nc(N([H])[C@]2([H])C([H])([H])C([H])([H])C([H])([H])C([H])([H])[C@]2([H])N([H])[H])c([H])c2nc([H])n([H])c(=O)c12
     RDKit          3D

 52 56  0  0  0  0  0  0  0  0999 V2000
    3.2258    0.4685    1.8648 N   0  0  0  0  0  0  0  0  0  0  0  0
    2.3013    0.7928    0.7696 C   0  0  1  0  0  0  0  0  0  0  0  0
    2.4962    2.2782    0.4995 C   0  0  0  0  0  0  0  0  0  0  0  0
    3.9021    2.6189    0.1223 C   0  0  0  0  0  0  0  0  0  0  0  0
    4.4891    1.7135   -0.9196 C   0  0  0  0  0  0  0  0  0  0  0  0
    4.2369    0.2695   -0.6005 C   0  0  0  0  0  0  0  0  0  0  0  0
    2.7476    0.0552   -0.4495 C   0  0  1  0  0  0  0  0  0  0  0  0
    2.4604   -1.3602   -0.4280 N   0  0  0  0  0  0  0  0  0  0  0  0
    1.1538   -1.8937   -0.3503 C   0  0  0  0  0  0  0  0  0  0  0  0
    1.0022   -3.2628   -0.3299 C   0  0  0  0  0  0  0  0  0  0  0  0
   -0.2592   -3.8379   -0.2579 C   0  0  0  0  0  0  0  0  0  0  0  0
   -0.3765   -5.1832   -0.2526 N   0  0  0  0  0  0  0  0  0  0  0  0
   -1.6032   -5.7130   -0.1972 C   0  0  0  0  0  0  0  0  0  0  0  0
   -2.7066   -4.9754   -0.1479 N   0  0  0  0  0  0  0  0  0  0  0  0
   -2.5888   -3.6269   -0.1530 C   0  0  0  0  0  0  0  0  0  0  0  0
   -3.6446   -2.9784   -0.1095 O   0  0  0  0  0  0  0  0  0  0  0  0
   -1.3772   -2.9915   -0.2059 C   0  0  0  0  0  0  0  0  0  0  0  0
   -1.2153   -1.6043   -0.2253 C   0  0  0  0  0  0  0  0  0  0  0  0
   -2.3373   -0.7689   -0.0938 N   0  0  0  0  0  0  0  0  0  0  0  0
   -2.3367    0.6693   -0.1850 C   0  0  0  0  0  0  0  0  0  0  0  0
   -1.2820    1.3969   -0.6306 C   0  0  0  0  0  0  0  0  0  0  0  0
   -1.3462    2.7986   -0.7345 C   0  0  0  0  0  0  0  0  0  0  0  0
   -2.5055    3.4360   -0.3756 C   0  0  0  0  0  0  0  0  0  0  0  0
   -3.5811    2.7087    0.0767 C   0  0  0  0  0  0  0  0  0  0  0  0
   -4.8123    3.1309    0.4814 N   0  0  0  0  0  0  0  0  0  0  0  0
   -5.5053    2.0400    0.8299 C   0  0  0  0  0  0  0  0  0  0  0  0
   -4.7286    0.9293    0.6513 C   0  0  0  0  0  0  0  0  0  0  0  0
   -3.5044    1.3495    0.1726 C   0  0  0  0  0  0  0  0  0  0  0  0
    0.0378   -1.1635   -0.2968 N   0  0  0  0  0  0  0  0  0  0  0  0
    3.1578   -0.5553    2.1040 H   0  0  0  0  0  0  0  0  0  0  0  0
    2.9789    1.0441    2.7220 H   0  0  0  0  0  0  0  0  0  0  0  0
    1.2654    0.6531    1.0698 H   0  0  0  0  0  0  0  0  0  0  0  0
    2.2411    2.8806    1.4066 H   0  0  0  0  0  0  0  0  0  0  0  0
    1.8295    2.6046   -0.3428 H   0  0  0  0  0  0  0  0  0  0  0  0
    3.8807    3.6482   -0.3209 H   0  0  0  0  0  0  0  0  0  0  0  0
    4.5566    2.6851    1.0146 H   0  0  0  0  0  0  0  0  0  0  0  0
    4.0988    1.9912   -1.9142 H   0  0  0  0  0  0  0  0  0  0  0  0
    5.5988    1.9165   -0.9296 H   0  0  0  0  0  0  0  0  0  0  0  0
    4.7618    0.0526    0.3665 H   0  0  0  0  0  0  0  0  0  0  0  0
    4.6801   -0.3631   -1.3824 H   0  0  0  0  0  0  0  0  0  0  0  0
    2.2879    0.5341   -1.3595 H   0  0  0  0  0  0  0  0  0  0  0  0
    3.2789   -2.0160   -0.4732 H   0  0  0  0  0  0  0  0  0  0  0  0
    1.8390   -3.9460   -0.3681 H   0  0  0  0  0  0  0  0  0  0  0  0
   -1.7101   -6.8022   -0.1920 H   0  0  0  0  0  0  0  0  0  0  0  0
   -3.6771   -5.4055   -0.1048 H   0  0  0  0  0  0  0  0  0  0  0  0
   -3.2879   -1.1424    0.1057 H   0  0  0  0  0  0  0  0  0  0  0  0
   -0.3345    0.9728   -0.9526 H   0  0  0  0  0  0  0  0  0  0  0  0
   -0.5017    3.3628   -1.0896 H   0  0  0  0  0  0  0  0  0  0  0  0
   -2.6068    4.5229   -0.4376 H   0  0  0  0  0  0  0  0  0  0  0  0
   -5.1466    4.1236    0.5115 H   0  0  0  0  0  0  0  0  0  0  0  0
   -6.5295    2.0194    1.2003 H   0  0  0  0  0  0  0  0  0  0  0  0
   -5.0035   -0.0774    0.8417 H   0  0  0  0  0  0  0  0  0  0  0  0
  1  2  1  0
  2  3  1  0
  3  4  1  0
  4  5  1  0
  5  6  1  0
  6  7  1  0
  7  8  1  0
  8  9  1  0
  9 10  2  0
 10 11  1  0
 11 12  1  0
 12 13  2  0
 13 14  1  0
 14 15  1  0
 15 16  2  0
 15 17  1  0
 17 18  1  0
 18 19  1  0
 19 20  1  0
 20 21  2  0
 21 22  1  0
 22 23  2  0
 23 24  1  0
 24 25  1  0
 25 26  1  0
 26 27  2  0
 27 28  1  0
 18 29  2  0
  7  2  1  0
 29  9  1  0
 17 11  2  0
 28 20  1  0
 28 24  2  0
  1 30  1  0
  1 31  1  0
  2 32  1  1
  3 33  1  0
  3 34  1  0
  4 35  1  0
  4 36  1  0
  5 37  1  0
  5 38  1  0
  6 39  1  0
  6 40  1  0
  7 41  1  6
  8 42  1  0
 10 43  1  0
 13 44  1  0
 14 45  1  0
 19 46  1  0
 21 47  1  0
 22 48  1  0
 23 49  1  0
 25 50  1  0
 26 51  1  0
 27 52  1  0
M  END
$$$$
[H]Oc1c([H])c([H])c([H])c(N([H])c2c([H])c([H])nc3c([H])c(-c4c([H])c([H])c([H])c(C([H])([H])N5C([H])([H])C([H])([H])OC([H])([H])C5([H])[H])c4[H])sc23)c1[H]
     RDKit          3D

 53 57  0  0  0  0  0  0  0  0999 V2000
    8.8874   -1.8813   -2.5144 O   0  0  0  0  0  0  0  0  0  0  0  0
    8.3138   -1.1574   -1.4927 C   0  0  0  0  0  0  0  0  0  0  0  0
    9.1306   -0.5188   -0.5914 C   0  0  0  0  0  0  0  0  0  0  0  0
    8.5397    0.1937    0.4133 C   0  0  0  0  0  0  0  0  0  0  0  0
    7.1447    0.2694    0.5194 C   0  0  0  0  0  0  0  0  0  0  0  0
    6.3126   -0.3575   -0.3636 C   0  0  0  0  0  0  0  0  0  0  0  0
    4.9090   -0.3622   -0.3180 N   0  0  0  0  0  0  0  0  0  0  0  0
    4.1085   -0.3931    0.8373 C   0  0  0  0  0  0  0  0  0  0  0  0
    4.6021   -0.6581    2.0908 C   0  0  0  0  0  0  0  0  0  0  0  0
    3.6641   -0.6855    3.1021 C   0  0  0  0  0  0  0  0  0  0  0  0
    2.3681   -0.4764    2.9166 N   0  0  0  0  0  0  0  0  0  0  0  0
    1.8367   -0.2096    1.6794 C   0  0  0  0  0  0  0  0  0  0  0  0
    0.5436    0.0158    1.3849 C   0  0  0  0  0  0  0  0  0  0  0  0
    0.2275    0.2636    0.0798 C   0  0  0  0  0  0  0  0  0  0  0  0
    1.7455    0.1743   -0.6970 S   0  0  0  0  0  0  0  0  0  0  0  0
    2.7302   -0.1732    0.6527 C   0  0  0  0  0  0  0  0  0  0  0  0
   -1.1040    0.5388   -0.4988 C   0  0  0  0  0  0  0  0  0  0  0  0
   -1.2232    0.7661   -1.8484 C   0  0  0  0  0  0  0  0  0  0  0  0
   -2.4242    1.0286   -2.4609 C   0  0  0  0  0  0  0  0  0  0  0  0
   -3.5596    1.0599   -1.6521 C   0  0  0  0  0  0  0  0  0  0  0  0
   -3.4844    0.8372   -0.2935 C   0  0  0  0  0  0  0  0  0  0  0  0
   -4.6859    0.8678    0.5742 C   0  0  0  0  0  0  0  0  0  0  0  0
   -5.8663    0.5485   -0.1562 N   0  0  0  0  0  0  0  0  0  0  0  0
   -5.9210   -0.7523   -0.7306 C   0  0  0  0  0  0  0  0  0  0  0  0
   -6.9706   -0.7056   -1.8406 C   0  0  0  0  0  0  0  0  0  0  0  0
   -8.1971   -0.5007   -1.1699 O   0  0  0  0  0  0  0  0  0  0  0  0
   -8.1860    0.7736   -0.6142 C   0  0  0  0  0  0  0  0  0  0  0  0
   -7.1028    0.9101    0.4642 C   0  0  0  0  0  0  0  0  0  0  0  0
   -2.2319    0.5733    0.2830 C   0  0  0  0  0  0  0  0  0  0  0  0
    6.9457   -1.0822   -1.3865 C   0  0  0  0  0  0  0  0  0  0  0  0
    8.3602   -2.3778   -3.2152 H   0  0  0  0  0  0  0  0  0  0  0  0
   10.2101   -0.5611   -0.6505 H   0  0  0  0  0  0  0  0  0  0  0  0
    9.1503    0.7016    1.1300 H   0  0  0  0  0  0  0  0  0  0  0  0
    6.7149    0.8690    1.3262 H   0  0  0  0  0  0  0  0  0  0  0  0
    4.4378   -0.3408   -1.2827 H   0  0  0  0  0  0  0  0  0  0  0  0
    5.6195   -0.8588    2.3354 H   0  0  0  0  0  0  0  0  0  0  0  0
    4.0009   -0.8943    4.1413 H   0  0  0  0  0  0  0  0  0  0  0  0
   -0.2826    0.0131    2.1365 H   0  0  0  0  0  0  0  0  0  0  0  0
   -0.3343    0.7369   -2.4516 H   0  0  0  0  0  0  0  0  0  0  0  0
   -2.5362    1.2081   -3.5106 H   0  0  0  0  0  0  0  0  0  0  0  0
   -4.5292    1.2629   -2.0849 H   0  0  0  0  0  0  0  0  0  0  0  0
   -4.5827    0.0950    1.3889 H   0  0  0  0  0  0  0  0  0  0  0  0
   -4.7346    1.8284    1.1095 H   0  0  0  0  0  0  0  0  0  0  0  0
   -6.2919   -1.4685    0.0357 H   0  0  0  0  0  0  0  0  0  0  0  0
   -4.9718   -1.1129   -1.1231 H   0  0  0  0  0  0  0  0  0  0  0  0
   -7.0595   -1.6609   -2.3717 H   0  0  0  0  0  0  0  0  0  0  0  0
   -6.8162    0.1273   -2.5314 H   0  0  0  0  0  0  0  0  0  0  0  0
   -9.1793    1.0405   -0.2325 H   0  0  0  0  0  0  0  0  0  0  0  0
   -7.9022    1.4783   -1.4227 H   0  0  0  0  0  0  0  0  0  0  0  0
   -7.3697    0.2620    1.3350 H   0  0  0  0  0  0  0  0  0  0  0  0
   -7.1450    1.9446    0.8067 H   0  0  0  0  0  0  0  0  0  0  0  0
   -2.1276    0.3936    1.3404 H   0  0  0  0  0  0  0  0  0  0  0  0
    6.3161   -1.5928   -2.1072 H   0  0  0  0  0  0  0  0  0  0  0  0
  1  2  1  0
  2  3  2  0
  3  4  1  0
  4  5  2  0
  5  6  1  0
  6  7  1  0
  7  8  1  0
  8  9  2  0
  9 10  1  0
 10 11  2  0
 11 12  1  0
 12 13  1  0
 13 14  2  0
 14 15  1  0
 15 16  1  0
 14 17  1  0
 17 18  2  0
 18 19  1  0
 19 20  2  0
 20 21  1  0
 21 22  1  0
 22 23  1  0
 23 24  1  0
 24 25  1  0
 25 26  1  0
 26 27  1  0
 27 28  1  0
 21 29  2  0
  6 30  2  0
 30  2  1  0
 16  8  1  0
 29 17  1  0
 16 12  2  0
 28 23  1  0
  1 31  1  0
  3 32  1  0
  4 33  1  0
  5 34  1  0
  7 35  1  0
  9 36  1  0
 10 37  1  0
 13 38  1  0
 18 39  1  0
 19 40  1  0
 20 41  1  0
 22 42  1  0
 22 43  1  0
 24 44  1  0
 24 45  1  0
 25 46  1  0
 25 47  1  0
 27 48  1  0
 27 49  1  0
 28 50  1  0
 28 51  1  0
 29 52  1  0
 30 53  1  0
M  END
$$$$
[H]C([H])=C([H])C(=O)N1C([H])([H])C([H])([H])C([H])([H])C([H])(n2nc(-c3c([H])c([H])c(Oc4c([H])c([H])c([H])c([H])c4[H])c([H])c3[H])c3c(N([H])[H])nc([H])nc32)C1([H])[H]
     RDKit          3D

 57 61  0  0  0  0  0  0  0  0999 V2000
    2.0025   -1.2508    2.7981 N   0  0  0  0  0  0  0  0  0  0  0  0
    0.5924   -1.3444    2.7014 C   0  0  0  0  0  0  0  0  0  0  0  0
   -0.1772   -1.6372    3.7602 N   0  0  0  0  0  0  0  0  0  0  0  0
   -1.5124   -1.7042    3.7334 C   0  0  0  0  0  0  0  0  0  0  0  0
   -2.1103   -1.4605    2.5657 N   0  0  0  0  0  0  0  0  0  0  0  0
   -1.4458   -1.1593    1.4455 C   0  0  0  0  0  0  0  0  0  0  0  0
   -1.8549   -0.8664    0.1800 N   0  0  0  0  0  0  0  0  0  0  0  0
   -0.7751   -0.6348   -0.5206 N   0  0  0  0  0  0  0  0  0  0  0  0
    0.3382   -0.7653    0.2385 C   0  0  0  0  0  0  0  0  0  0  0  0
    1.7162   -0.5470   -0.2231 C   0  0  0  0  0  0  0  0  0  0  0  0
    2.0616    0.6996   -0.7564 C   0  0  0  0  0  0  0  0  0  0  0  0
    3.3157    0.8904   -1.2416 C   0  0  0  0  0  0  0  0  0  0  0  0
    4.2817   -0.1130   -1.2303 C   0  0  0  0  0  0  0  0  0  0  0  0
    5.5327    0.1860   -1.7502 O   0  0  0  0  0  0  0  0  0  0  0  0
    6.5343    0.7000   -0.9352 C   0  0  0  0  0  0  0  0  0  0  0  0
    6.3216    0.9291    0.4090 C   0  0  0  0  0  0  0  0  0  0  0  0
    7.3201    1.4386    1.2090 C   0  0  0  0  0  0  0  0  0  0  0  0
    8.5468    1.7236    0.6623 C   0  0  0  0  0  0  0  0  0  0  0  0
    8.7514    1.4907   -0.6871 C   0  0  0  0  0  0  0  0  0  0  0  0
    7.7605    0.9819   -1.4951 C   0  0  0  0  0  0  0  0  0  0  0  0
    3.9466   -1.3352   -0.7093 C   0  0  0  0  0  0  0  0  0  0  0  0
    2.6813   -1.5301   -0.2195 C   0  0  0  0  0  0  0  0  0  0  0  0
   -0.0434   -1.0946    1.4911 C   0  0  0  0  0  0  0  0  0  0  0  0
   -3.2500   -0.8417   -0.2177 C   0  0  0  0  0  0  0  0  0  0  0  0
   -3.3591   -0.8833   -1.7063 C   0  0  0  0  0  0  0  0  0  0  0  0
   -4.8038   -0.7017   -2.1368 C   0  0  0  0  0  0  0  0  0  0  0  0
   -5.1923    0.7083   -1.6632 C   0  0  0  0  0  0  0  0  0  0  0  0
   -5.1947    0.6487   -0.2331 N   0  0  0  0  0  0  0  0  0  0  0  0
   -3.9182    0.3629    0.4088 C   0  0  0  0  0  0  0  0  0  0  0  0
   -6.3349    0.8422    0.5819 C   0  0  0  0  0  0  0  0  0  0  0  0
   -6.2427    0.7740    1.8598 O   0  0  0  0  0  0  0  0  0  0  0  0
   -7.6265    1.1206   -0.0085 C   0  0  0  0  0  0  0  0  0  0  0  0
   -8.6888    1.2998    0.7963 C   0  0  0  0  0  0  0  0  0  0  0  0
    2.5178   -0.3305    2.7592 H   0  0  0  0  0  0  0  0  0  0  0  0
    2.6049   -2.0999    2.9138 H   0  0  0  0  0  0  0  0  0  0  0  0
   -2.0958   -1.9512    4.6405 H   0  0  0  0  0  0  0  0  0  0  0  0
    1.3174    1.4671   -0.7631 H   0  0  0  0  0  0  0  0  0  0  0  0
    3.5661    1.8655   -1.6519 H   0  0  0  0  0  0  0  0  0  0  0  0
    5.3581    0.7137    0.8769 H   0  0  0  0  0  0  0  0  0  0  0  0
    7.1522    1.6165    2.2570 H   0  0  0  0  0  0  0  0  0  0  0  0
    9.3296    2.1253    1.2994 H   0  0  0  0  0  0  0  0  0  0  0  0
    9.7349    1.7302   -1.0761 H   0  0  0  0  0  0  0  0  0  0  0  0
    7.9772    0.8177   -2.5541 H   0  0  0  0  0  0  0  0  0  0  0  0
    4.6663   -2.1209   -0.6883 H   0  0  0  0  0  0  0  0  0  0  0  0
    2.3967   -2.5068    0.1771 H   0  0  0  0  0  0  0  0  0  0  0  0
   -3.7711   -1.7365    0.1936 H   0  0  0  0  0  0  0  0  0  0  0  0
   -2.7497   -0.0968   -2.1954 H   0  0  0  0  0  0  0  0  0  0  0  0
   -3.0631   -1.8983   -2.0419 H   0  0  0  0  0  0  0  0  0  0  0  0
   -5.4569   -1.3898   -1.5383 H   0  0  0  0  0  0  0  0  0  0  0  0
   -4.9430   -0.8281   -3.2110 H   0  0  0  0  0  0  0  0  0  0  0  0
   -4.3340    1.3606   -2.0042 H   0  0  0  0  0  0  0  0  0  0  0  0
   -6.1081    1.0554   -2.1247 H   0  0  0  0  0  0  0  0  0  0  0  0
   -4.0521    0.1366    1.4833 H   0  0  0  0  0  0  0  0  0  0  0  0
   -3.2202    1.2119    0.3139 H   0  0  0  0  0  0  0  0  0  0  0  0
   -7.7621    1.1867   -1.0527 H   0  0  0  0  0  0  0  0  0  0  0  0
   -8.5796    1.2373    1.8609 H   0  0  0  0  0  0  0  0  0  0  0  0
   -9.6588    1.5075    0.3892 H   0  0  0  0  0  0  0  0  0  0  0  0
  1  2  1  0
  2  3  2  0
  3  4  1  0
  4  5  2  0
  5  6  1  0
  6  7  1  0
  7  8  1  0
  8  9  2  0
  9 10  1  0
 10 11  2  0
 11 12  1  0
 12 13  2  0
 13 14  1  0
 14 15  1  0
 15 16  2  0
 16 17  1  0
 17 18  2  0
 18 19  1  0
 19 20  2  0
 13 21  1  0
 21 22  2  0
  9 23  1  0
  7 24  1  0
 24 25  1  0
 25 26  1  0
 26 27  1  0
 27 28  1  0
 28 29  1  0
 28 30  1  0
 30 31  2  0
 30 32  1  0
 32 33  2  3
 23  2  1  0
 29 24  1  0
 23  6  2  0
 22 10  1  0
 20 15  1  0
  1 34  1  0
  1 35  1  0
  4 36  1  0
 11 37  1  0
 12 38  1  0
 16 39  1  0
 17 40  1  0
 18 41  1  0
 19 42  1  0
 20 43  1  0
 21 44  1  0
 22 45  1  0
 24 46  1  0
 25 47  1  0
 25 48  1  0
 26 49  1  0
 26 50  1  0
 27 51  1  0
 27 52  1  0
 29 53  1  0
 29 54  1  0
 32 55  1  0
 33 56  1  0
 33 57  1  0
M  END
$$$$
[H]c1nc2c([H])c(OC([H])([H])[H])c(S(=O)(=O)C(C([H])([H])[H])(C([H])([H])[H])C([H])([H])[H])c([H])n2c1C(=O)N([H])c1c([H])c([H])c([H])c([H])c1C([H])([H])[H]
     RDKit          3D

 51 53  0  0  0  0  0  0  0  0999 V2000
   -4.8650    2.6292   -0.5088 C   0  0  0  0  0  0  0  0  0  0  0  0
   -3.9845    1.7253    0.0866 O   0  0  0  0  0  0  0  0  0  0  0  0
   -2.5848    1.8477   -0.0934 C   0  0  0  0  0  0  0  0  0  0  0  0
   -2.0918    2.8755   -0.8629 C   0  0  0  0  0  0  0  0  0  0  0  0
   -0.7201    2.9746   -1.0182 C   0  0  0  0  0  0  0  0  0  0  0  0
    0.0141    3.8875   -1.6950 N   0  0  0  0  0  0  0  0  0  0  0  0
    1.3010    3.6132   -1.5640 C   0  0  0  0  0  0  0  0  0  0  0  0
    1.4166    2.4607   -0.7611 C   0  0  0  0  0  0  0  0  0  0  0  0
    2.6896    1.8685   -0.3654 C   0  0  0  0  0  0  0  0  0  0  0  0
    3.6576    2.6989   -0.2748 O   0  0  0  0  0  0  0  0  0  0  0  0
    2.9358    0.5189   -0.0922 N   0  0  0  0  0  0  0  0  0  0  0  0
    4.1202   -0.1163    0.3049 C   0  0  0  0  0  0  0  0  0  0  0  0
    5.3045    0.5337    0.5030 C   0  0  0  0  0  0  0  0  0  0  0  0
    6.4315   -0.1842    0.9000 C   0  0  0  0  0  0  0  0  0  0  0  0
    6.4145   -1.5302    1.1058 C   0  0  0  0  0  0  0  0  0  0  0  0
    5.2312   -2.1958    0.9104 C   0  0  0  0  0  0  0  0  0  0  0  0
    4.1163   -1.5026    0.5203 C   0  0  0  0  0  0  0  0  0  0  0  0
    2.8524   -2.2931    0.3238 C   0  0  0  0  0  0  0  0  0  0  0  0
    0.1608    2.1125   -0.4532 N   0  0  0  0  0  0  0  0  0  0  0  0
   -0.3281    1.0998    0.3065 C   0  0  0  0  0  0  0  0  0  0  0  0
   -1.7122    0.9841    0.4735 C   0  0  0  0  0  0  0  0  0  0  0  0
   -2.2466   -0.3770    1.4228 S   0  0  0  0  0  0  0  0  0  0  0  0
   -1.0794   -1.0076    2.1634 O   0  0  0  0  0  0  0  0  0  0  0  0
   -3.1799    0.0900    2.5390 O   0  0  0  0  0  0  0  0  0  0  0  0
   -3.0499   -1.6468    0.5523 C   0  0  0  0  0  0  0  0  0  0  0  0
   -3.4181   -2.7451    1.5604 C   0  0  0  0  0  0  0  0  0  0  0  0
   -2.1426   -2.3273   -0.4699 C   0  0  0  0  0  0  0  0  0  0  0  0
   -4.3101   -1.3028   -0.1714 C   0  0  0  0  0  0  0  0  0  0  0  0
   -5.8420    2.5441    0.0265 H   0  0  0  0  0  0  0  0  0  0  0  0
   -5.0757    2.4092   -1.5830 H   0  0  0  0  0  0  0  0  0  0  0  0
   -4.5062    3.6590   -0.3464 H   0  0  0  0  0  0  0  0  0  0  0  0
   -2.7253    3.5936   -1.3405 H   0  0  0  0  0  0  0  0  0  0  0  0
    2.1403    4.1394   -1.9732 H   0  0  0  0  0  0  0  0  0  0  0  0
    2.1110   -0.1488   -0.2417 H   0  0  0  0  0  0  0  0  0  0  0  0
    5.4518    1.5924    0.3755 H   0  0  0  0  0  0  0  0  0  0  0  0
    7.3831    0.3289    1.0606 H   0  0  0  0  0  0  0  0  0  0  0  0
    7.2840   -2.1036    1.4151 H   0  0  0  0  0  0  0  0  0  0  0  0
    5.1877   -3.2912    1.0703 H   0  0  0  0  0  0  0  0  0  0  0  0
    2.0843   -2.0363    1.0645 H   0  0  0  0  0  0  0  0  0  0  0  0
    3.0483   -3.3634    0.3662 H   0  0  0  0  0  0  0  0  0  0  0  0
    2.5101   -2.0860   -0.7292 H   0  0  0  0  0  0  0  0  0  0  0  0
    0.3315    0.4040    0.8003 H   0  0  0  0  0  0  0  0  0  0  0  0
   -3.8609   -2.3322    2.4722 H   0  0  0  0  0  0  0  0  0  0  0  0
   -4.1649   -3.3846    1.0536 H   0  0  0  0  0  0  0  0  0  0  0  0
   -2.4687   -3.3127    1.7620 H   0  0  0  0  0  0  0  0  0  0  0  0
   -2.2664   -1.7622   -1.4186 H   0  0  0  0  0  0  0  0  0  0  0  0
   -1.0968   -2.1736   -0.1465 H   0  0  0  0  0  0  0  0  0  0  0  0
   -2.4233   -3.3750   -0.5933 H   0  0  0  0  0  0  0  0  0  0  0  0
   -4.1696   -0.8207   -1.1547 H   0  0  0  0  0  0  0  0  0  0  0  0
   -5.1041   -0.8554    0.4604 H   0  0  0  0  0  0  0  0  0  0  0  0
   -4.7612   -2.3164   -0.4571 H   0  0  0  0  0  0  0  0  0  0  0  0
  1  2  1  0
  2  3  1  0
  3  4  2  0
  4  5  1  0
  5  6  2  0
  6  7  1  0
  7  8  2  0
  8  9  1  0
  9 10  2  0
  9 11  1  0
 11 12  1  0
 12 13  2  0
 13 14  1  0
 14 15  2  0
 15 16  1  0
 16 17  2  0
 17 18  1  0
  8 19  1  0
 19 20  1  0
 20 21  2  0
 21 22  1  0
 22 23  2  0
 22 24  2  0
 22 25  1  0
 25 26  1  0
 25 27  1  0
 25 28  1  0
 21  3  1  0
 19  5  1  0
 17 12  1  0
  1 29  1  0
  1 30  1  0
  1 31  1  0
  4 32  1  0
  7 33  1  0
 11 34  1  0
 13 35  1  0
 14 36  1  0
 15 37  1  0
 16 38  1  0
 18 39  1  0
 18 40  1  0
 18 41  1  0
 20 42  1  0
 26 43  1  0
 26 44  1  0
 26 45  1  0
 27 46  1  0
 27 47  1  0
 27 48  1  0
 28 49  1  0
 28 50  1  0
 28 51  1  0
M  END
$$$$
[H]c1nc(N([H])C([H])([H])C([H])([H])C([H])([H])N2C([H])([H])C([H])([H])N(C([H])([H])[H])C([H])([H])C2([H])[H])c([H])c(-n2c(N([H])c3c([H])c(C(=O)N([H])c4c([H])c([H])c([H])c(C(F)(F)F)c4[H])c([H])c([H])c3C([H])([H])[H])nc3c([H])c([H])c([H])c([H])c32)n1
     RDKit          3D

 83 88  0  0  0  0  0  0  0  0999 V2000
   -8.7514    2.0308    2.4632 C   0  0  0  0  0  0  0  0  0  0  0  0
   -9.0131    1.2846    1.2531 N   0  0  0  0  0  0  0  0  0  0  0  0
   -8.4219    1.8996    0.0959 C   0  0  0  0  0  0  0  0  0  0  0  0
   -7.0525    1.3180   -0.1517 C   0  0  0  0  0  0  0  0  0  0  0  0
   -7.0944   -0.0536   -0.5002 N   0  0  0  0  0  0  0  0  0  0  0  0
   -7.1101   -0.3526   -1.9133 C   0  0  0  0  0  0  0  0  0  0  0  0
   -5.8051    0.0629   -2.5159 C   0  0  0  0  0  0  0  0  0  0  0  0
   -4.5816   -0.6092   -1.8673 C   0  0  0  0  0  0  0  0  0  0  0  0
   -3.4530   -0.0487   -2.5276 N   0  0  0  0  0  0  0  0  0  0  0  0
   -2.0989   -0.0991   -2.2367 C   0  0  0  0  0  0  0  0  0  0  0  0
   -1.5686   -0.8100   -1.1891 C   0  0  0  0  0  0  0  0  0  0  0  0
   -0.2360   -0.7490   -0.9011 C   0  0  0  0  0  0  0  0  0  0  0  0
    0.5205    0.0593   -1.7223 N   0  0  0  0  0  0  0  0  0  0  0  0
    0.0522    0.7533   -2.7358 C   0  0  0  0  0  0  0  0  0  0  0  0
   -1.2586    0.6845   -3.0092 N   0  0  0  0  0  0  0  0  0  0  0  0
    0.4437   -1.3816    0.1501 N   0  0  0  0  0  0  0  0  0  0  0  0
    1.7207   -1.8545   -0.0316 C   0  0  0  0  0  0  0  0  0  0  0  0
    2.3809   -2.0071   -1.2922 N   0  0  0  0  0  0  0  0  0  0  0  0
    3.7635   -2.0557   -1.4908 C   0  0  0  0  0  0  0  0  0  0  0  0
    4.5569   -1.3738   -0.5765 C   0  0  0  0  0  0  0  0  0  0  0  0
    5.9350   -1.2379   -0.7999 C   0  0  0  0  0  0  0  0  0  0  0  0
    6.4819   -1.7795   -1.9013 C   0  0  0  0  0  0  0  0  0  0  0  0
    5.7012   -2.4699   -2.8272 C   0  0  0  0  0  0  0  0  0  0  0  0
    4.3331   -2.5919   -2.5941 C   0  0  0  0  0  0  0  0  0  0  0  0
    3.5595   -3.3317   -3.6332 C   0  0  0  0  0  0  0  0  0  0  0  0
    6.6422   -0.3805    0.1915 C   0  0  0  0  0  0  0  0  0  0  0  0
    6.8968   -0.8641    1.3077 O   0  0  0  0  0  0  0  0  0  0  0  0
    6.9649    0.9172   -0.1929 N   0  0  0  0  0  0  0  0  0  0  0  0
    7.5823    1.9624    0.5004 C   0  0  0  0  0  0  0  0  0  0  0  0
    7.7222    3.2258   -0.1144 C   0  0  0  0  0  0  0  0  0  0  0  0
    8.2812    4.2764    0.5483 C   0  0  0  0  0  0  0  0  0  0  0  0
    8.7403    4.1490    1.8506 C   0  0  0  0  0  0  0  0  0  0  0  0
    8.6098    2.9135    2.4638 C   0  0  0  0  0  0  0  0  0  0  0  0
    8.0360    1.8501    1.7828 C   0  0  0  0  0  0  0  0  0  0  0  0
    9.0925    2.7703    3.8667 C   0  0  0  0  0  0  0  0  0  0  0  0
   10.1727    1.8761    3.8664 F   0  0  0  0  0  0  0  0  0  0  0  0
    8.0573    2.2524    4.6338 F   0  0  0  0  0  0  0  0  0  0  0  0
    9.4591    3.9716    4.4031 F   0  0  0  0  0  0  0  0  0  0  0  0
    2.1324   -2.2788    1.1550 N   0  0  0  0  0  0  0  0  0  0  0  0
    1.1576   -2.0952    2.0822 C   0  0  0  0  0  0  0  0  0  0  0  0
    1.1436   -2.3925    3.4227 C   0  0  0  0  0  0  0  0  0  0  0  0
   -0.0139   -2.0976    4.1457 C   0  0  0  0  0  0  0  0  0  0  0  0
   -1.0834   -1.5240    3.4889 C   0  0  0  0  0  0  0  0  0  0  0  0
   -1.0754   -1.2246    2.1549 C   0  0  0  0  0  0  0  0  0  0  0  0
    0.0750   -1.5172    1.4237 C   0  0  0  0  0  0  0  0  0  0  0  0
   -8.2612   -0.7081    0.0836 C   0  0  0  0  0  0  0  0  0  0  0  0
   -8.6416   -0.0971    1.3939 C   0  0  0  0  0  0  0  0  0  0  0  0
   -9.3629    2.9414    2.4976 H   0  0  0  0  0  0  0  0  0  0  0  0
   -8.9555    1.3819    3.3388 H   0  0  0  0  0  0  0  0  0  0  0  0
   -7.6604    2.2692    2.4957 H   0  0  0  0  0  0  0  0  0  0  0  0
   -8.2900    3.0113    0.2262 H   0  0  0  0  0  0  0  0  0  0  0  0
   -9.0507    1.7782   -0.8165 H   0  0  0  0  0  0  0  0  0  0  0  0
   -6.4997    1.9552   -0.8673 H   0  0  0  0  0  0  0  0  0  0  0  0
   -6.5251    1.4031    0.8375 H   0  0  0  0  0  0  0  0  0  0  0  0
   -7.9122    0.2251   -2.4276 H   0  0  0  0  0  0  0  0  0  0  0  0
   -7.2481   -1.4453   -2.0582 H   0  0  0  0  0  0  0  0  0  0  0  0
   -5.7840   -0.1685   -3.6274 H   0  0  0  0  0  0  0  0  0  0  0  0
   -5.7388    1.1663   -2.4929 H   0  0  0  0  0  0  0  0  0  0  0  0
   -4.6638   -1.6914   -2.1974 H   0  0  0  0  0  0  0  0  0  0  0  0
   -4.6171   -0.5341   -0.7841 H   0  0  0  0  0  0  0  0  0  0  0  0
   -3.7071    0.5042   -3.4298 H   0  0  0  0  0  0  0  0  0  0  0  0
   -2.2667   -1.4316   -0.6074 H   0  0  0  0  0  0  0  0  0  0  0  0
    0.6819    1.3844   -3.3621 H   0  0  0  0  0  0  0  0  0  0  0  0
    1.7808   -2.1103   -2.1432 H   0  0  0  0  0  0  0  0  0  0  0  0
    4.1512   -0.9272    0.3257 H   0  0  0  0  0  0  0  0  0  0  0  0
    7.5601   -1.6548   -2.0451 H   0  0  0  0  0  0  0  0  0  0  0  0
    6.1489   -2.9075   -3.7111 H   0  0  0  0  0  0  0  0  0  0  0  0
    2.6262   -2.7393   -3.8750 H   0  0  0  0  0  0  0  0  0  0  0  0
    3.2770   -4.3584   -3.2561 H   0  0  0  0  0  0  0  0  0  0  0  0
    4.1176   -3.3987   -4.5923 H   0  0  0  0  0  0  0  0  0  0  0  0
    6.6950    1.1678   -1.2208 H   0  0  0  0  0  0  0  0  0  0  0  0
    7.3629    3.3270   -1.1411 H   0  0  0  0  0  0  0  0  0  0  0  0
    8.3595    5.2303    0.0035 H   0  0  0  0  0  0  0  0  0  0  0  0
    9.1735    4.9844    2.3403 H   0  0  0  0  0  0  0  0  0  0  0  0
    7.9811    0.9162    2.3473 H   0  0  0  0  0  0  0  0  0  0  0  0
    2.0061   -2.8425    3.8909 H   0  0  0  0  0  0  0  0  0  0  0  0
   -0.0208   -2.3303    5.1851 H   0  0  0  0  0  0  0  0  0  0  0  0
   -1.9990   -1.2858    4.0319 H   0  0  0  0  0  0  0  0  0  0  0  0
   -1.9106   -0.7719    1.6377 H   0  0  0  0  0  0  0  0  0  0  0  0
   -9.1224   -0.6311   -0.6379 H   0  0  0  0  0  0  0  0  0  0  0  0
   -8.0027   -1.7755    0.2030 H   0  0  0  0  0  0  0  0  0  0  0  0
   -9.4902   -0.6849    1.8208 H   0  0  0  0  0  0  0  0  0  0  0  0
   -7.7886   -0.2291    2.1074 H   0  0  0  0  0  0  0  0  0  0  0  0
  1  2  1  0
  2  3  1  0
  3  4  1  0
  4  5  1  0
  5  6  1  0
  6  7  1  0
  7  8  1  0
  8  9  1  0
  9 10  1  0
 10 11  2  0
 11 12  1  0
 12 13  2  0
 13 14  1  0
 14 15  2  0
 12 16  1  0
 16 17  1  0
 17 18  1  0
 18 19  1  0
 19 20  2  0
 20 21  1  0
 21 22  2  0
 22 23  1  0
 23 24  2  0
 24 25  1  0
 21 26  1  0
 26 27  2  0
 26 28  1  0
 28 29  1  0
 29 30  2  0
 30 31  1  0
 31 32  2  0
 32 33  1  0
 33 34  2  0
 33 35  1  0
 35 36  1  0
 35 37  1  0
 35 38  1  0
 17 39  2  0
 39 40  1  0
 40 41  2  0
 41 42  1  0
 42 43  2  0
 43 44  1  0
 44 45  2  0
  5 46  1  0
 46 47  1  0
 47  2  1  0
 15 10  1  0
 45 16  1  0
 24 19  1  0
 34 29  1  0
 45 40  1  0
  1 48  1  0
  1 49  1  0
  1 50  1  0
  3 51  1  0
  3 52  1  0
  4 53  1  0
  4 54  1  0
  6 55  1  0
  6 56  1  0
  7 57  1  0
  7 58  1  0
  8 59  1  0
  8 60  1  0
  9 61  1  0
 11 62  1  0
 14 63  1  0
 18 64  1  0
 20 65  1  0
 22 66  1  0
 23 67  1  0
 25 68  1  0
 25 69  1  0
 25 70  1  0
 28 71  1  0
 30 72  1  0
 31 73  1  0
 32 74  1  0
 34 75  1  0
 41 76  1  0
 42 77  1  0
 43 78  1  0
 44 79  1  0
 46 80  1  0
 46 81  1  0
 47 82  1  0
 47 83  1  0
M  END
$$$$
[H]OC1([H])C([H])([H])C([H])([H])N(C([H])([H])C([H])([H])c2c([H])c([H])c(-n3c([H])c(-c4c([H])c([H])c([H])c(OC([H])([H])[H])c4[H])c4c(N([H])[H])nc([H])nc43)c([H])c2[H])C([H])([H])C1([H])[H]
     RDKit          3D

 62 66  0  0  0  0  0  0  0  0999 V2000
   -8.4025   -3.0858    1.5681 C   0  0  0  0  0  0  0  0  0  0  0  0
   -7.1595   -2.7361    0.9907 O   0  0  0  0  0  0  0  0  0  0  0  0
   -6.8209   -1.3762    0.8702 C   0  0  0  0  0  0  0  0  0  0  0  0
   -7.6863   -0.4010    1.3076 C   0  0  0  0  0  0  0  0  0  0  0  0
   -7.3617    0.9302    1.1933 C   0  0  0  0  0  0  0  0  0  0  0  0
   -6.1644    1.3062    0.6388 C   0  0  0  0  0  0  0  0  0  0  0  0
   -5.2808    0.3519    0.1927 C   0  0  0  0  0  0  0  0  0  0  0  0
   -5.6215   -1.0059    0.3142 C   0  0  0  0  0  0  0  0  0  0  0  0
   -3.9948    0.6483   -0.4260 C   0  0  0  0  0  0  0  0  0  0  0  0
   -2.7667    0.2568    0.1273 C   0  0  0  0  0  0  0  0  0  0  0  0
   -1.8196    0.7356   -0.6878 N   0  0  0  0  0  0  0  0  0  0  0  0
   -0.4105    0.6072   -0.5698 C   0  0  0  0  0  0  0  0  0  0  0  0
    0.2765    1.3377    0.3679 C   0  0  0  0  0  0  0  0  0  0  0  0
    1.6525    1.2462    0.5140 C   0  0  0  0  0  0  0  0  0  0  0  0
    2.3795    0.4035   -0.2933 C   0  0  0  0  0  0  0  0  0  0  0  0
    3.8770    0.2978   -0.1482 C   0  0  0  0  0  0  0  0  0  0  0  0
    4.1531   -0.7833    0.8510 C   0  0  0  0  0  0  0  0  0  0  0  0
    5.5729   -0.9878    1.0684 N   0  0  0  0  0  0  0  0  0  0  0  0
    6.1989   -1.5585   -0.1299 C   0  0  0  0  0  0  0  0  0  0  0  0
    7.5652   -2.0529    0.3107 C   0  0  0  0  0  0  0  0  0  0  0  0
    8.4182   -0.9174    0.8299 C   0  0  0  0  0  0  0  0  0  0  0  0
    9.4262   -1.4906    1.6020 O   0  0  0  0  0  0  0  0  0  0  0  0
    7.6381    0.0183    1.7190 C   0  0  0  0  0  0  0  0  0  0  0  0
    6.2525    0.3042    1.2453 C   0  0  0  0  0  0  0  0  0  0  0  0
    1.7095   -0.3370   -1.2385 C   0  0  0  0  0  0  0  0  0  0  0  0
    0.3272   -0.2324   -1.3714 C   0  0  0  0  0  0  0  0  0  0  0  0
   -2.3820    1.4026   -1.7183 C   0  0  0  0  0  0  0  0  0  0  0  0
   -1.8335    2.0429   -2.7827 N   0  0  0  0  0  0  0  0  0  0  0  0
   -2.6087    2.6297   -3.6913 C   0  0  0  0  0  0  0  0  0  0  0  0
   -3.9409    2.5885   -3.5559 N   0  0  0  0  0  0  0  0  0  0  0  0
   -4.5235    1.9632   -2.5136 C   0  0  0  0  0  0  0  0  0  0  0  0
   -5.9350    1.9158   -2.4132 N   0  0  0  0  0  0  0  0  0  0  0  0
   -3.7535    1.3510   -1.5602 C   0  0  0  0  0  0  0  0  0  0  0  0
   -9.2308   -2.7406    0.8952 H   0  0  0  0  0  0  0  0  0  0  0  0
   -8.4469   -2.5588    2.5589 H   0  0  0  0  0  0  0  0  0  0  0  0
   -8.4280   -4.1858    1.6832 H   0  0  0  0  0  0  0  0  0  0  0  0
   -8.6346   -0.6577    1.7480 H   0  0  0  0  0  0  0  0  0  0  0  0
   -8.0482    1.7071    1.5402 H   0  0  0  0  0  0  0  0  0  0  0  0
   -5.8718    2.3511    0.5442 H   0  0  0  0  0  0  0  0  0  0  0  0
   -4.9546   -1.7880   -0.0235 H   0  0  0  0  0  0  0  0  0  0  0  0
   -2.6318   -0.3157    1.0306 H   0  0  0  0  0  0  0  0  0  0  0  0
   -0.2882    2.0025    1.0063 H   0  0  0  0  0  0  0  0  0  0  0  0
    2.1352    1.8595    1.2845 H   0  0  0  0  0  0  0  0  0  0  0  0
    4.2706    0.0517   -1.1398 H   0  0  0  0  0  0  0  0  0  0  0  0
    4.2203    1.2925    0.1740 H   0  0  0  0  0  0  0  0  0  0  0  0
    3.7040   -0.5348    1.8284 H   0  0  0  0  0  0  0  0  0  0  0  0
    3.6681   -1.7080    0.4805 H   0  0  0  0  0  0  0  0  0  0  0  0
    5.6245   -2.3977   -0.5151 H   0  0  0  0  0  0  0  0  0  0  0  0
    6.3923   -0.7575   -0.8945 H   0  0  0  0  0  0  0  0  0  0  0  0
    8.0761   -2.4686   -0.5815 H   0  0  0  0  0  0  0  0  0  0  0  0
    7.3897   -2.8333    1.0640 H   0  0  0  0  0  0  0  0  0  0  0  0
    8.8887   -0.3610    0.0147 H   0  0  0  0  0  0  0  0  0  0  0  0
   10.3088   -1.1810    1.3041 H   0  0  0  0  0  0  0  0  0  0  0  0
    7.5952   -0.3166    2.7586 H   0  0  0  0  0  0  0  0  0  0  0  0
    8.2061    0.9950    1.7053 H   0  0  0  0  0  0  0  0  0  0  0  0
    5.7541    0.9344    1.9857 H   0  0  0  0  0  0  0  0  0  0  0  0
    6.2226    0.7769    0.2296 H   0  0  0  0  0  0  0  0  0  0  0  0
    2.2900   -0.9992   -1.8706 H   0  0  0  0  0  0  0  0  0  0  0  0
   -0.1448   -0.8248   -2.1161 H   0  0  0  0  0  0  0  0  0  0  0  0
   -2.1908    3.1473   -4.5502 H   0  0  0  0  0  0  0  0  0  0  0  0
   -6.4445    2.8107   -2.2689 H   0  0  0  0  0  0  0  0  0  0  0  0
   -6.4125    0.9958   -2.4866 H   0  0  0  0  0  0  0  0  0  0  0  0
  1  2  1  0
  2  3  1  0
  3  4  2  0
  4  5  1  0
  5  6  2  0
  6  7  1  0
  7  8  2  0
  7  9  1  0
  9 10  2  0
 10 11  1  0
 11 12  1  0
 12 13  2  0
 13 14  1  0
 14 15  2  0
 15 16  1  0
 16 17  1  0
 17 18  1  0
 18 19  1  0
 19 20  1  0
 20 21  1  0
 21 22  1  0
 21 23  1  0
 23 24  1  0
 15 25  1  0
 25 26  2  0
 11 27  1  0
 27 28  2  0
 28 29  1  0
 29 30  2  0
 30 31  1  0
 31 32  1  0
 31 33  2  0
  8  3  1  0
 33  9  1  0
 26 12  1  0
 33 27  1  0
 24 18  1  0
  1 34  1  0
  1 35  1  0
  1 36  1  0
  4 37  1  0
  5 38  1  0
  6 39  1  0
  8 40  1  0
 10 41  1  0
 13 42  1  0
 14 43  1  0
 16 44  1  0
 16 45  1  0
 17 46  1  0
 17 47  1  0
 19 48  1  0
 19 49  1  0
 20 50  1  0
 20 51  1  0
 21 52  1  0
 22 53  1  0
 23 54  1  0
 23 55  1  0
 24 56  1  0
 24 57  1  0
 25 58  1  0
 26 59  1  0
 29 60  1  0
 32 61  1  0
 32 62  1  0
M  END
$$$$
[H]c1c([H])c(Cl)c(-c2c([H])c(C([H])([H])[H])c3nc(N([H])c4c([H])c([H])c(OC([H])([H])C([H])([H])N5C([H])([H])C([H])([H])C([H])([H])C5([H])[H])c([H])c4[H])nnc3c2[H])c(Cl)c1[H]
     RDKit          3D

 59 63  0  0  0  0  0  0  0  0999 V2000
   -3.1157    1.6245   -1.1217 C   0  0  0  0  0  0  0  0  0  0  0  0
   -4.0368    0.6703   -0.4529 C   0  0  0  0  0  0  0  0  0  0  0  0
   -5.3885    0.6943   -0.7260 C   0  0  0  0  0  0  0  0  0  0  0  0
   -6.2813   -0.1671   -0.1344 C   0  0  0  0  0  0  0  0  0  0  0  0
   -5.7761   -1.0812    0.7650 C   0  0  0  0  0  0  0  0  0  0  0  0
   -4.4122   -1.1119    1.0467 C   0  0  0  0  0  0  0  0  0  0  0  0
   -3.8995   -1.9941    1.9189 N   0  0  0  0  0  0  0  0  0  0  0  0
   -2.6247   -2.0342    2.1909 N   0  0  0  0  0  0  0  0  0  0  0  0
   -1.7203   -1.1804    1.6064 C   0  0  0  0  0  0  0  0  0  0  0  0
   -0.3824   -1.3661    1.9939 N   0  0  0  0  0  0  0  0  0  0  0  0
    0.6968   -0.6155    1.5433 C   0  0  0  0  0  0  0  0  0  0  0  0
    0.6094    0.6276    0.9986 C   0  0  0  0  0  0  0  0  0  0  0  0
    1.7112    1.3097    0.5477 C   0  0  0  0  0  0  0  0  0  0  0  0
    3.0039    0.7626    0.6223 C   0  0  0  0  0  0  0  0  0  0  0  0
    4.0623    1.5140    0.1501 O   0  0  0  0  0  0  0  0  0  0  0  0
    5.3974    1.1911    0.0744 C   0  0  0  0  0  0  0  0  0  0  0  0
    5.6712    0.0884   -0.8785 C   0  0  0  0  0  0  0  0  0  0  0  0
    7.0641   -0.2802   -0.9614 N   0  0  0  0  0  0  0  0  0  0  0  0
    7.9239    0.6935   -1.5440 C   0  0  0  0  0  0  0  0  0  0  0  0
    9.3039    0.0988   -1.3165 C   0  0  0  0  0  0  0  0  0  0  0  0
    9.1132   -0.9024   -0.1784 C   0  0  0  0  0  0  0  0  0  0  0  0
    7.6836   -0.5844    0.2873 C   0  0  0  0  0  0  0  0  0  0  0  0
    3.1078   -0.4840    1.1688 C   0  0  0  0  0  0  0  0  0  0  0  0
    1.9924   -1.1510    1.6136 C   0  0  0  0  0  0  0  0  0  0  0  0
   -2.2203   -0.3104    0.7478 N   0  0  0  0  0  0  0  0  0  0  0  0
   -3.5199   -0.2488    0.4529 C   0  0  0  0  0  0  0  0  0  0  0  0
   -7.7225   -0.1314   -0.4310 C   0  0  0  0  0  0  0  0  0  0  0  0
   -8.2196   -0.6776   -1.5966 C   0  0  0  0  0  0  0  0  0  0  0  0
   -7.1606   -1.4180   -2.7768 Cl  0  0  0  0  0  0  0  0  0  0  0  0
   -9.5793   -0.6438   -1.8498 C   0  0  0  0  0  0  0  0  0  0  0  0
  -10.4527   -0.0616   -0.9362 C   0  0  0  0  0  0  0  0  0  0  0  0
   -9.9792    0.4878    0.2298 C   0  0  0  0  0  0  0  0  0  0  0  0
   -8.6175    0.4419    0.4602 C   0  0  0  0  0  0  0  0  0  0  0  0
   -7.9895    1.1387    1.9468 Cl  0  0  0  0  0  0  0  0  0  0  0  0
   -2.3387    1.9679   -0.4362 H   0  0  0  0  0  0  0  0  0  0  0  0
   -3.6846    2.5467   -1.4293 H   0  0  0  0  0  0  0  0  0  0  0  0
   -2.6551    1.1985   -2.0391 H   0  0  0  0  0  0  0  0  0  0  0  0
   -5.7957    1.4079   -1.4290 H   0  0  0  0  0  0  0  0  0  0  0  0
   -6.4205   -1.7886    1.2657 H   0  0  0  0  0  0  0  0  0  0  0  0
   -0.1303   -2.1418    2.7034 H   0  0  0  0  0  0  0  0  0  0  0  0
   -0.3468    1.1686    0.9015 H   0  0  0  0  0  0  0  0  0  0  0  0
    1.6250    2.3084    0.1104 H   0  0  0  0  0  0  0  0  0  0  0  0
    5.7055    0.8347    1.1031 H   0  0  0  0  0  0  0  0  0  0  0  0
    5.9796    2.1198   -0.1492 H   0  0  0  0  0  0  0  0  0  0  0  0
    5.0912   -0.8013   -0.6652 H   0  0  0  0  0  0  0  0  0  0  0  0
    5.3720    0.4549   -1.9082 H   0  0  0  0  0  0  0  0  0  0  0  0
    7.9303    1.6740   -0.9988 H   0  0  0  0  0  0  0  0  0  0  0  0
    7.7317    0.9045   -2.6152 H   0  0  0  0  0  0  0  0  0  0  0  0
   10.0607    0.8675   -1.0560 H   0  0  0  0  0  0  0  0  0  0  0  0
    9.5702   -0.4748   -2.2229 H   0  0  0  0  0  0  0  0  0  0  0  0
    9.8491   -0.8012    0.6173 H   0  0  0  0  0  0  0  0  0  0  0  0
    9.0642   -1.9527   -0.5840 H   0  0  0  0  0  0  0  0  0  0  0  0
    7.2437   -1.4357    0.8165 H   0  0  0  0  0  0  0  0  0  0  0  0
    7.8091    0.3187    0.9412 H   0  0  0  0  0  0  0  0  0  0  0  0
    4.0823   -0.9578    1.2859 H   0  0  0  0  0  0  0  0  0  0  0  0
    2.0725   -2.1515    2.0508 H   0  0  0  0  0  0  0  0  0  0  0  0
   -9.9447   -1.0782   -2.7699 H   0  0  0  0  0  0  0  0  0  0  0  0
  -11.5084   -0.0331   -1.1276 H   0  0  0  0  0  0  0  0  0  0  0  0
  -10.6052    0.9452    0.9629 H   0  0  0  0  0  0  0  0  0  0  0  0
  1  2  1  0
  2  3  2  0
  3  4  1  0
  4  5  2  0
  5  6  1  0
  6  7  2  0
  7  8  1  0
  8  9  2  0
  9 10  1  0
 10 11  1  0
 11 12  2  0
 12 13  1  0
 13 14  2  0
 14 15  1  0
 15 16  1  0
 16 17  1  0
 17 18  1  0
 18 19  1  0
 19 20  1  0
 20 21  1  0
 21 22  1  0
 14 23  1  0
 23 24  2  0
  9 25  1  0
 25 26  2  0
  4 27  1  0
 27 28  2  0
 28 29  1  0
 28 30  1  0
 30 31  2  0
 31 32  1  0
 32 33  2  0
 33 34  1  0
 26  2  1  0
 33 27  1  0
 26  6  1  0
 24 11  1  0
 22 18  1  0
  1 35  1  0
  1 36  1  0
  1 37  1  0
  3 38  1  0
  5 39  1  0
 10 40  1  0
 12 41  1  0
 13 42  1  0
 16 43  1  0
 16 44  1  0
 17 45  1  0
 17 46  1  0
 19 47  1  0
 19 48  1  0
 20 49  1  0
 20 50  1  0
 21 51  1  0
 21 52  1  0
 22 53  1  0
 22 54  1  0
 23 55  1  0
 24 56  1  0
 30 57  1  0
 31 58  1  0
 32 59  1  0
M  END
$$$$
[H]c1nc2c([H])c(OC([H])([H])[H])c(OC([H])([H])[H])c([H])c2c(Oc2c([H])c([H])c3c(C(=O)N([H])C4([H])C([H])([H])C4([H])[H])c([H])c([H])c([H])c3c2[H])c1[H]
     RDKit          3D

 53 57  0  0  0  0  0  0  0  0999 V2000
   -5.0389   -0.0309    4.0762 C   0  0  0  0  0  0  0  0  0  0  0  0
   -4.5323    0.5816    2.9125 O   0  0  0  0  0  0  0  0  0  0  0  0
   -3.9357   -0.1811    1.9352 C   0  0  0  0  0  0  0  0  0  0  0  0
   -3.7985   -1.5529    2.0305 C   0  0  0  0  0  0  0  0  0  0  0  0
   -3.1975   -2.3157    1.0446 C   0  0  0  0  0  0  0  0  0  0  0  0
   -3.0952   -3.6546    1.1628 N   0  0  0  0  0  0  0  0  0  0  0  0
   -2.5263   -4.3795    0.1961 C   0  0  0  0  0  0  0  0  0  0  0  0
   -2.0271   -3.8145   -0.9415 C   0  0  0  0  0  0  0  0  0  0  0  0
   -2.1328   -2.4097   -1.0661 C   0  0  0  0  0  0  0  0  0  0  0  0
   -1.6401   -1.8045   -2.2006 O   0  0  0  0  0  0  0  0  0  0  0  0
   -0.5358   -0.9756   -2.1273 C   0  0  0  0  0  0  0  0  0  0  0  0
    0.2744   -0.8697   -1.0215 C   0  0  0  0  0  0  0  0  0  0  0  0
    1.3764   -0.0462   -0.9380 C   0  0  0  0  0  0  0  0  0  0  0  0
    1.7391    0.7475   -2.0073 C   0  0  0  0  0  0  0  0  0  0  0  0
    2.8104    1.6058   -1.9629 C   0  0  0  0  0  0  0  0  0  0  0  0
    3.1116    2.4267   -3.0726 C   0  0  0  0  0  0  0  0  0  0  0  0
    2.3165    2.3422   -4.1877 C   0  0  0  0  0  0  0  0  0  0  0  0
    1.2534    1.4762   -4.2142 C   0  0  0  0  0  0  0  0  0  0  0  0
    0.9372    0.6567   -3.1255 C   0  0  0  0  0  0  0  0  0  0  0  0
   -0.1694   -0.1723   -3.2059 C   0  0  0  0  0  0  0  0  0  0  0  0
    3.7353    1.6456   -0.8650 C   0  0  0  0  0  0  0  0  0  0  0  0
    4.1178    2.8485   -0.5548 O   0  0  0  0  0  0  0  0  0  0  0  0
    4.2878    0.6274   -0.0984 N   0  0  0  0  0  0  0  0  0  0  0  0
    5.2268    0.9276    0.9890 C   0  0  0  0  0  0  0  0  0  0  0  0
    5.1342    0.0823    2.2606 C   0  0  0  0  0  0  0  0  0  0  0  0
    6.3069   -0.0094    1.3435 C   0  0  0  0  0  0  0  0  0  0  0  0
   -2.7202   -1.6545   -0.0756 C   0  0  0  0  0  0  0  0  0  0  0  0
   -2.8648   -0.2636   -0.1654 C   0  0  0  0  0  0  0  0  0  0  0  0
   -3.4638    0.4865    0.8203 C   0  0  0  0  0  0  0  0  0  0  0  0
   -3.6047    1.8715    0.7281 O   0  0  0  0  0  0  0  0  0  0  0  0
   -3.1555    2.6352   -0.3680 C   0  0  0  0  0  0  0  0  0  0  0  0
   -5.5945   -0.9780    3.8550 H   0  0  0  0  0  0  0  0  0  0  0  0
   -4.2766   -0.2432    4.8478 H   0  0  0  0  0  0  0  0  0  0  0  0
   -5.7587    0.6766    4.5888 H   0  0  0  0  0  0  0  0  0  0  0  0
   -4.1715   -2.0844    2.9121 H   0  0  0  0  0  0  0  0  0  0  0  0
   -2.4453   -5.4773    0.2972 H   0  0  0  0  0  0  0  0  0  0  0  0
   -1.5553   -4.3458   -1.7584 H   0  0  0  0  0  0  0  0  0  0  0  0
    0.0466   -1.4746   -0.1268 H   0  0  0  0  0  0  0  0  0  0  0  0
    1.9292   -0.0045   -0.0155 H   0  0  0  0  0  0  0  0  0  0  0  0
    3.9558    3.0770   -2.9750 H   0  0  0  0  0  0  0  0  0  0  0  0
    2.5342    2.9717   -5.0631 H   0  0  0  0  0  0  0  0  0  0  0  0
    0.6073    1.3903   -5.0928 H   0  0  0  0  0  0  0  0  0  0  0  0
   -0.7473   -0.1875   -4.1149 H   0  0  0  0  0  0  0  0  0  0  0  0
    4.1135   -0.3892   -0.2374 H   0  0  0  0  0  0  0  0  0  0  0  0
    5.4029    2.0199    1.1243 H   0  0  0  0  0  0  0  0  0  0  0  0
    4.4806   -0.8117    2.2675 H   0  0  0  0  0  0  0  0  0  0  0  0
    5.2415    0.6394    3.2319 H   0  0  0  0  0  0  0  0  0  0  0  0
    6.5014   -0.9392    0.7966 H   0  0  0  0  0  0  0  0  0  0  0  0
    7.2571    0.4746    1.7046 H   0  0  0  0  0  0  0  0  0  0  0  0
   -2.5240    0.2440   -1.0434 H   0  0  0  0  0  0  0  0  0  0  0  0
   -3.8819    3.4904   -0.4907 H   0  0  0  0  0  0  0  0  0  0  0  0
   -3.1850    2.0991   -1.3284 H   0  0  0  0  0  0  0  0  0  0  0  0
   -2.1196    3.0257   -0.2101 H   0  0  0  0  0  0  0  0  0  0  0  0
  1  2  1  0
  2  3  1  0
  3  4  2  0
  4  5  1  0
  5  6  2  0
  6  7  1  0
  7  8  2  0
  8  9  1  0
  9 10  1  0
 10 11  1  0
 11 12  2  0
 12 13  1  0
 13 14  2  0
 14 15  1  0
 15 16  2  0
 16 17  1  0
 17 18  2  0
 18 19  1  0
 19 20  2  0
 15 21  1  0
 21 22  2  0
 21 23  1  0
 23 24  1  0
 24 25  1  0
 25 26  1  0
  9 27  2  0
 27 28  1  0
 28 29  2  0
 29 30  1  0
 30 31  1  0
 29  3  1  0
 27  5  1  0
 20 11  1  0
 26 24  1  0
 19 14  1  0
  1 32  1  0
  1 33  1  0
  1 34  1  0
  4 35  1  0
  7 36  1  0
  8 37  1  0
 12 38  1  0
 13 39  1  0
 16 40  1  0
 17 41  1  0
 18 42  1  0
 20 43  1  0
 23 44  1  0
 24 45  1  0
 25 46  1  0
 25 47  1  0
 26 48  1  0
 26 49  1  0
 28 50  1  0
 31 51  1  0
 31 52  1  0
 31 53  1  0
M  END
$$$$
[H]c1nc(Oc2c([H])c([H])c(N([H])C(=O)N([H])c3c([H])c([H])c(C([H])([H])N4C([H])([H])C([H])([H])N(C([H])([H])C([H])([H])[H])C([H])([H])C4([H])[H])c(C(F)(F)F)c3[H])c([H])c2[H])c([H])c(N([H])C([H])([H])[H])n1
     RDKit          3D

 68 71  0  0  0  0  0  0  0  0999 V2000
  -10.2990   -0.3201   -0.2443 C   0  0  0  0  0  0  0  0  0  0  0  0
   -9.0487    0.5002   -0.4280 C   0  0  0  0  0  0  0  0  0  0  0  0
   -8.1793   -0.0359   -1.4572 N   0  0  0  0  0  0  0  0  0  0  0  0
   -7.0305    0.8062   -1.5517 C   0  0  0  0  0  0  0  0  0  0  0  0
   -5.7154    0.1130   -1.2911 C   0  0  0  0  0  0  0  0  0  0  0  0
   -5.7379   -0.8228   -0.2229 N   0  0  0  0  0  0  0  0  0  0  0  0
   -5.1553   -0.4373    1.0060 C   0  0  0  0  0  0  0  0  0  0  0  0
   -3.7153   -0.2169    1.0542 C   0  0  0  0  0  0  0  0  0  0  0  0
   -2.9459   -0.4458   -0.0457 C   0  0  0  0  0  0  0  0  0  0  0  0
   -1.5554   -0.2549    0.0222 C   0  0  0  0  0  0  0  0  0  0  0  0
   -0.9188    0.1543    1.1522 C   0  0  0  0  0  0  0  0  0  0  0  0
    0.4451    0.3547    1.3623 N   0  0  0  0  0  0  0  0  0  0  0  0
    1.4499   -0.2261    0.5465 C   0  0  0  0  0  0  0  0  0  0  0  0
    1.1958   -0.9699   -0.4220 O   0  0  0  0  0  0  0  0  0  0  0  0
    2.8063    0.0526    0.8476 N   0  0  0  0  0  0  0  0  0  0  0  0
    3.8841   -0.4730    0.1219 C   0  0  0  0  0  0  0  0  0  0  0  0
    5.0696    0.2695    0.1595 C   0  0  0  0  0  0  0  0  0  0  0  0
    6.1724   -0.1959   -0.5017 C   0  0  0  0  0  0  0  0  0  0  0  0
    6.1984   -1.3743   -1.2203 C   0  0  0  0  0  0  0  0  0  0  0  0
    7.3559   -1.8175   -1.8874 O   0  0  0  0  0  0  0  0  0  0  0  0
    8.4788   -0.9936   -1.7796 C   0  0  0  0  0  0  0  0  0  0  0  0
    9.3306   -1.0781   -0.6992 C   0  0  0  0  0  0  0  0  0  0  0  0
   10.4383   -0.2312   -0.6411 C   0  0  0  0  0  0  0  0  0  0  0  0
   11.3426   -0.2777    0.4449 N   0  0  0  0  0  0  0  0  0  0  0  0
   12.4721    0.6190    0.4560 C   0  0  0  0  0  0  0  0  0  0  0  0
   10.6148    0.6290   -1.6528 N   0  0  0  0  0  0  0  0  0  0  0  0
    9.7904    0.7181   -2.7086 C   0  0  0  0  0  0  0  0  0  0  0  0
    8.7293   -0.1014   -2.7527 N   0  0  0  0  0  0  0  0  0  0  0  0
    5.0337   -2.0940   -1.2508 C   0  0  0  0  0  0  0  0  0  0  0  0
    3.8935   -1.6380   -0.5818 C   0  0  0  0  0  0  0  0  0  0  0  0
   -1.7503    0.3770    2.2572 C   0  0  0  0  0  0  0  0  0  0  0  0
   -3.1090    0.2069    2.2445 C   0  0  0  0  0  0  0  0  0  0  0  0
   -3.9076    0.4692    3.4596 C   0  0  0  0  0  0  0  0  0  0  0  0
   -3.0267    0.8724    4.4765 F   0  0  0  0  0  0  0  0  0  0  0  0
   -4.5531   -0.6222    3.9660 F   0  0  0  0  0  0  0  0  0  0  0  0
   -4.7451    1.5847    3.3219 F   0  0  0  0  0  0  0  0  0  0  0  0
   -6.9874   -1.4884    0.0062 C   0  0  0  0  0  0  0  0  0  0  0  0
   -7.8513   -1.4181   -1.2341 C   0  0  0  0  0  0  0  0  0  0  0  0
  -10.0056   -1.2236    0.3376 H   0  0  0  0  0  0  0  0  0  0  0  0
  -11.0156    0.2828    0.3494 H   0  0  0  0  0  0  0  0  0  0  0  0
  -10.7451   -0.5533   -1.2099 H   0  0  0  0  0  0  0  0  0  0  0  0
   -9.3902    1.5064   -0.7967 H   0  0  0  0  0  0  0  0  0  0  0  0
   -8.5282    0.6942    0.5188 H   0  0  0  0  0  0  0  0  0  0  0  0
   -6.9427    1.2787   -2.5729 H   0  0  0  0  0  0  0  0  0  0  0  0
   -7.0852    1.6803   -0.8419 H   0  0  0  0  0  0  0  0  0  0  0  0
   -5.3787   -0.3639   -2.2424 H   0  0  0  0  0  0  0  0  0  0  0  0
   -4.9782    0.9378   -1.0987 H   0  0  0  0  0  0  0  0  0  0  0  0
   -5.3596   -1.2873    1.7313 H   0  0  0  0  0  0  0  0  0  0  0  0
   -5.7610    0.3966    1.4141 H   0  0  0  0  0  0  0  0  0  0  0  0
   -3.3300   -0.7898   -1.0118 H   0  0  0  0  0  0  0  0  0  0  0  0
   -0.9627   -0.4277   -0.8741 H   0  0  0  0  0  0  0  0  0  0  0  0
    0.7597    0.9698    2.1611 H   0  0  0  0  0  0  0  0  0  0  0  0
    3.0013    0.6928    1.6707 H   0  0  0  0  0  0  0  0  0  0  0  0
    5.0877    1.2125    0.7209 H   0  0  0  0  0  0  0  0  0  0  0  0
    7.0847    0.3965   -0.4601 H   0  0  0  0  0  0  0  0  0  0  0  0
    9.1416   -1.7902    0.0899 H   0  0  0  0  0  0  0  0  0  0  0  0
   11.2010   -0.9471    1.2284 H   0  0  0  0  0  0  0  0  0  0  0  0
   12.6067    1.1140   -0.5277 H   0  0  0  0  0  0  0  0  0  0  0  0
   13.4237    0.0623    0.6491 H   0  0  0  0  0  0  0  0  0  0  0  0
   12.3043    1.3858    1.2464 H   0  0  0  0  0  0  0  0  0  0  0  0
    9.9776    1.4417   -3.5159 H   0  0  0  0  0  0  0  0  0  0  0  0
    5.0003   -3.0327   -1.8043 H   0  0  0  0  0  0  0  0  0  0  0  0
    3.0130   -2.2945   -0.6480 H   0  0  0  0  0  0  0  0  0  0  0  0
   -1.3081    0.7006    3.1773 H   0  0  0  0  0  0  0  0  0  0  0  0
   -7.5417   -1.0573    0.8567 H   0  0  0  0  0  0  0  0  0  0  0  0
   -6.7530   -2.5420    0.2777 H   0  0  0  0  0  0  0  0  0  0  0  0
   -7.2335   -1.7544   -2.0856 H   0  0  0  0  0  0  0  0  0  0  0  0
   -8.7522   -2.0077   -1.0717 H   0  0  0  0  0  0  0  0  0  0  0  0
  1  2  1  0
  2  3  1  0
  3  4  1  0
  4  5  1  0
  5  6  1  0
  6  7  1  0
  7  8  1  0
  8  9  2  0
  9 10  1  0
 10 11  2  0
 11 12  1  0
 12 13  1  0
 13 14  2  0
 13 15  1  0
 15 16  1  0
 16 17  2  0
 17 18  1  0
 18 19  2  0
 19 20  1  0
 20 21  1  0
 21 22  2  0
 22 23  1  0
 23 24  1  0
 24 25  1  0
 23 26  2  0
 26 27  1  0
 27 28  2  0
 19 29  1  0
 29 30  2  0
 11 31  1  0
 31 32  2  0
 32 33  1  0
 33 34  1  0
 33 35  1  0
 33 36  1  0
  6 37  1  0
 37 38  1  0
 38  3  1  0
 32  8  1  0
 30 16  1  0
 28 21  1  0
  1 39  1  0
  1 40  1  0
  1 41  1  0
  2 42  1  0
  2 43  1  0
  4 44  1  0
  4 45  1  0
  5 46  1  0
  5 47  1  0
  7 48  1  0
  7 49  1  0
  9 50  1  0
 10 51  1  0
 12 52  1  0
 15 53  1  0
 17 54  1  0
 18 55  1  0
 22 56  1  0
 24 57  1  0
 25 58  1  0
 25 59  1  0
 25 60  1  0
 27 61  1  0
 29 62  1  0
 30 63  1  0
 31 64  1  0
 37 65  1  0
 37 66  1  0
 38 67  1  0
 38 68  1  0
M  END
$$$$
[H]c1nc(N([H])C(=O)c2c([H])c([H])c(-c3nc([C@@]4([H])C([H])([H])N(C(=O)C([H])([H])OC([H])([H])[H])C([H])([H])C([H])([H])C4([H])[H])n4c([H])c([H])nc(N([H])[H])c34)c(F)c2[H])c([H])c(C(F)(F)F)c1[H]
     RDKit          3D

 66 70  0  0  0  0  0  0  0  0999 V2000
  -10.1283   -0.7474   -0.0261 C   0  0  0  0  0  0  0  0  0  0  0  0
   -8.7710   -0.4829    0.0790 O   0  0  0  0  0  0  0  0  0  0  0  0
   -8.5224    0.6065    0.8715 C   0  0  0  0  0  0  0  0  0  0  0  0
   -7.1194    0.9986    1.0620 C   0  0  0  0  0  0  0  0  0  0  0  0
   -6.8612    2.1070    1.6637 O   0  0  0  0  0  0  0  0  0  0  0  0
   -6.0081    0.2443    0.6293 N   0  0  0  0  0  0  0  0  0  0  0  0
   -6.2050   -1.0088   -0.0011 C   0  0  0  0  0  0  0  0  0  0  0  0
   -4.9518   -1.7950   -0.3173 C   0  0  0  0  0  0  0  0  0  0  0  0
   -3.9336   -1.5698    0.7247 C   0  0  0  0  0  0  0  0  0  0  0  0
   -3.5662   -0.1208    0.9508 C   0  0  2  0  0  0  0  0  0  0  0  0
   -4.6762    0.8359    0.8656 C   0  0  0  0  0  0  0  0  0  0  0  0
   -2.2979    0.2342    0.2509 C   0  0  0  0  0  0  0  0  0  0  0  0
   -1.0830    0.1923    0.8233 N   0  0  0  0  0  0  0  0  0  0  0  0
   -0.1051    0.5530   -0.0207 C   0  0  0  0  0  0  0  0  0  0  0  0
    1.3296    0.5895    0.2519 C   0  0  0  0  0  0  0  0  0  0  0  0
    2.0147    1.7777    0.2526 C   0  0  0  0  0  0  0  0  0  0  0  0
    3.3773    1.8130    0.5504 C   0  0  0  0  0  0  0  0  0  0  0  0
    4.0898    0.6768    0.8525 C   0  0  0  0  0  0  0  0  0  0  0  0
    3.3936   -0.5279    0.8531 C   0  0  0  0  0  0  0  0  0  0  0  0
    2.0427   -0.5567    0.5574 C   0  0  0  0  0  0  0  0  0  0  0  0
    1.3504   -1.7271    0.5520 F   0  0  0  0  0  0  0  0  0  0  0  0
    5.5250    0.7086    1.1606 C   0  0  0  0  0  0  0  0  0  0  0  0
    5.9579    1.4690    2.0378 O   0  0  0  0  0  0  0  0  0  0  0  0
    6.4104   -0.1333    0.4482 N   0  0  0  0  0  0  0  0  0  0  0  0
    7.8138   -0.1913    0.6525 C   0  0  0  0  0  0  0  0  0  0  0  0
    8.5833   -1.0277   -0.1259 C   0  0  0  0  0  0  0  0  0  0  0  0
    9.9445   -1.0998    0.0617 C   0  0  0  0  0  0  0  0  0  0  0  0
   10.4848   -0.3070    1.0513 C   0  0  0  0  0  0  0  0  0  0  0  0
    9.6761    0.5146    1.8059 C   0  0  0  0  0  0  0  0  0  0  0  0
    8.3607    0.5638    1.6008 N   0  0  0  0  0  0  0  0  0  0  0  0
   10.8032   -1.9740   -0.7521 C   0  0  0  0  0  0  0  0  0  0  0  0
   11.8144   -1.2461   -1.3884 F   0  0  0  0  0  0  0  0  0  0  0  0
    9.9883   -2.5656   -1.7315 F   0  0  0  0  0  0  0  0  0  0  0  0
   11.4312   -2.9592   -0.0243 F   0  0  0  0  0  0  0  0  0  0  0  0
   -0.7210    0.8460   -1.2105 C   0  0  0  0  0  0  0  0  0  0  0  0
   -0.2765    1.2543   -2.4555 C   0  0  0  0  0  0  0  0  0  0  0  0
    1.1085    1.4410   -2.6664 N   0  0  0  0  0  0  0  0  0  0  0  0
   -1.1606    1.4545   -3.4749 N   0  0  0  0  0  0  0  0  0  0  0  0
   -2.4627    1.2530   -3.2635 C   0  0  0  0  0  0  0  0  0  0  0  0
   -2.8849    0.8449   -2.0158 C   0  0  0  0  0  0  0  0  0  0  0  0
   -2.0583    0.6381   -0.9965 N   0  0  0  0  0  0  0  0  0  0  0  0
  -10.7272    0.0742   -0.4520 H   0  0  0  0  0  0  0  0  0  0  0  0
  -10.5082   -1.0313    1.0014 H   0  0  0  0  0  0  0  0  0  0  0  0
  -10.2418   -1.6878   -0.6343 H   0  0  0  0  0  0  0  0  0  0  0  0
   -8.9861    0.3849    1.8805 H   0  0  0  0  0  0  0  0  0  0  0  0
   -9.1648    1.4749    0.5109 H   0  0  0  0  0  0  0  0  0  0  0  0
   -6.8541   -1.6762    0.6307 H   0  0  0  0  0  0  0  0  0  0  0  0
   -6.7220   -0.8751   -0.9639 H   0  0  0  0  0  0  0  0  0  0  0  0
   -4.6044   -1.6550   -1.3577 H   0  0  0  0  0  0  0  0  0  0  0  0
   -5.2256   -2.8874   -0.2685 H   0  0  0  0  0  0  0  0  0  0  0  0
   -2.9912   -2.1120    0.5259 H   0  0  0  0  0  0  0  0  0  0  0  0
   -4.3505   -2.0183    1.6759 H   0  0  0  0  0  0  0  0  0  0  0  0
   -3.2677   -0.1448    2.0548 H   0  0  0  0  0  0  0  0  0  0  0  0
   -4.8385    1.3967    1.8438 H   0  0  0  0  0  0  0  0  0  0  0  0
   -4.5090    1.7192    0.1739 H   0  0  0  0  0  0  0  0  0  0  0  0
    1.5236    2.7353    0.0280 H   0  0  0  0  0  0  0  0  0  0  0  0
    3.9246    2.7503    0.5519 H   0  0  0  0  0  0  0  0  0  0  0  0
    3.9422   -1.4274    1.0878 H   0  0  0  0  0  0  0  0  0  0  0  0
    6.0252   -0.7878   -0.3085 H   0  0  0  0  0  0  0  0  0  0  0  0
    8.1446   -1.6590   -0.9107 H   0  0  0  0  0  0  0  0  0  0  0  0
   11.5484   -0.3332    1.2313 H   0  0  0  0  0  0  0  0  0  0  0  0
   10.1323    1.1280    2.5718 H   0  0  0  0  0  0  0  0  0  0  0  0
    1.4937    2.3912   -2.7929 H   0  0  0  0  0  0  0  0  0  0  0  0
    1.7151    0.5806   -2.6838 H   0  0  0  0  0  0  0  0  0  0  0  0
   -3.2231    1.3958   -4.0455 H   0  0  0  0  0  0  0  0  0  0  0  0
   -3.9427    0.6878   -1.8713 H   0  0  0  0  0  0  0  0  0  0  0  0
  1  2  1  0
  2  3  1  0
  3  4  1  0
  4  5  2  0
  4  6  1  0
  6  7  1  0
  7  8  1  0
  8  9  1  0
  9 10  1  0
 10 11  1  0
 10 12  1  0
 12 13  2  0
 13 14  1  0
 14 15  1  0
 15 16  2  0
 16 17  1  0
 17 18  2  0
 18 19  1  0
 19 20  2  0
 20 21  1  0
 18 22  1  0
 22 23  2  0
 22 24  1  0
 24 25  1  0
 25 26  2  0
 26 27  1  0
 27 28  2  0
 28 29  1  0
 29 30  2  0
 27 31  1  0
 31 32  1  0
 31 33  1  0
 31 34  1  0
 14 35  2  0
 35 36  1  0
 36 37  1  0
 36 38  2  0
 38 39  1  0
 39 40  2  0
 40 41  1  0
 11  6  1  0
 41 12  1  0
 20 15  1  0
 30 25  1  0
 41 35  1  0
  1 42  1  0
  1 43  1  0
  1 44  1  0
  3 45  1  0
  3 46  1  0
  7 47  1  0
  7 48  1  0
  8 49  1  0
  8 50  1  0
  9 51  1  0
  9 52  1  0
 10 53  1  1
 11 54  1  0
 11 55  1  0
 16 56  1  0
 17 57  1  0
 19 58  1  0
 24 59  1  0
 26 60  1  0
 28 61  1  0
 29 62  1  0
 37 63  1  0
 37 64  1  0
 39 65  1  0
 40 66  1  0
M  END
$$$$
[H]c1c([H])c(Cl)c(-c2c([H])c(C([H])([H])[H])c3nc(N([H])c4c([H])c([H])c(OC([H])([H])C([H])([H])[N+]5([O-])C([H])([H])C([H])([H])C([H])([H])C5([H])[H])c([H])c4[H])nnc3c2[H])c(Cl)c1[H]
     RDKit          3D

 60 64  0  0  0  0  0  0  0  0999 V2000
   -2.9205    1.7077    0.8725 C   0  0  0  0  0  0  0  0  0  0  0  0
   -4.0054    0.8064    0.4063 C   0  0  0  0  0  0  0  0  0  0  0  0
   -5.3464    1.1210    0.4474 C   0  0  0  0  0  0  0  0  0  0  0  0
   -6.3453    0.2779    0.0163 C   0  0  0  0  0  0  0  0  0  0  0  0
   -5.9502   -0.9448   -0.4801 C   0  0  0  0  0  0  0  0  0  0  0  0
   -4.5983   -1.2816   -0.5299 C   0  0  0  0  0  0  0  0  0  0  0  0
   -4.1970   -2.4911   -1.0145 N   0  0  0  0  0  0  0  0  0  0  0  0
   -2.9211   -2.8192   -1.0600 N   0  0  0  0  0  0  0  0  0  0  0  0
   -1.9206   -1.9894   -0.6343 C   0  0  0  0  0  0  0  0  0  0  0  0
   -0.5889   -2.4499   -0.7011 N   0  0  0  0  0  0  0  0  0  0  0  0
    0.5801   -1.7735   -0.3363 C   0  0  0  0  0  0  0  0  0  0  0  0
    0.7493   -0.4163   -0.2554 C   0  0  0  0  0  0  0  0  0  0  0  0
    1.9652    0.1601    0.1539 C   0  0  0  0  0  0  0  0  0  0  0  0
    3.0303   -0.6304    0.4883 C   0  0  0  0  0  0  0  0  0  0  0  0
    4.2323   -0.0521    0.8916 O   0  0  0  0  0  0  0  0  0  0  0  0
    5.3344   -0.8638    1.2575 C   0  0  0  0  0  0  0  0  0  0  0  0
    6.5615   -0.1282    1.6553 C   0  0  0  0  0  0  0  0  0  0  0  0
    7.1610    0.7149    0.6697 N   0  0  0  0  0  0  0  0  0  0  0  0
    7.2325    1.9799    1.1664 O   0  0  0  0  0  0  0  0  0  0  0  0
    6.4716    0.7910   -0.5823 C   0  0  0  0  0  0  0  0  0  0  0  0
    7.5220    1.1079   -1.6317 C   0  0  0  0  0  0  0  0  0  0  0  0
    8.8396    0.8130   -1.0038 C   0  0  0  0  0  0  0  0  0  0  0  0
    8.5217    0.2811    0.3471 C   0  0  0  0  0  0  0  0  0  0  0  0
    2.8877   -1.9990    0.4167 C   0  0  0  0  0  0  0  0  0  0  0  0
    1.6983   -2.5468    0.0158 C   0  0  0  0  0  0  0  0  0  0  0  0
   -2.3317   -0.8095   -0.1642 N   0  0  0  0  0  0  0  0  0  0  0  0
   -3.6276   -0.4307   -0.0979 C   0  0  0  0  0  0  0  0  0  0  0  0
   -7.7482    0.6556    0.0724 C   0  0  0  0  0  0  0  0  0  0  0  0
   -8.4407    0.5870    1.2574 C   0  0  0  0  0  0  0  0  0  0  0  0
   -7.6078    0.0395    2.6842 Cl  0  0  0  0  0  0  0  0  0  0  0  0
   -9.7960    0.9500    1.3247 C   0  0  0  0  0  0  0  0  0  0  0  0
  -10.4443    1.3804    0.1958 C   0  0  0  0  0  0  0  0  0  0  0  0
   -9.7608    1.4538   -0.9979 C   0  0  0  0  0  0  0  0  0  0  0  0
   -8.4135    1.0900   -1.0525 C   0  0  0  0  0  0  0  0  0  0  0  0
   -7.5572    1.1833   -2.5570 Cl  0  0  0  0  0  0  0  0  0  0  0  0
   -2.0548    1.6439    0.1948 H   0  0  0  0  0  0  0  0  0  0  0  0
   -3.3435    2.7223    0.9758 H   0  0  0  0  0  0  0  0  0  0  0  0
   -2.6695    1.3757    1.9057 H   0  0  0  0  0  0  0  0  0  0  0  0
   -5.6262    2.0964    0.8487 H   0  0  0  0  0  0  0  0  0  0  0  0
   -6.6615   -1.6766   -0.8444 H   0  0  0  0  0  0  0  0  0  0  0  0
   -0.4683   -3.4426   -1.0847 H   0  0  0  0  0  0  0  0  0  0  0  0
   -0.0717    0.2360   -0.5191 H   0  0  0  0  0  0  0  0  0  0  0  0
    1.9908    1.2477    0.1816 H   0  0  0  0  0  0  0  0  0  0  0  0
    4.9512   -1.4922    2.1214 H   0  0  0  0  0  0  0  0  0  0  0  0
    5.5257   -1.6028    0.4605 H   0  0  0  0  0  0  0  0  0  0  0  0
    7.3279   -0.9152    1.9313 H   0  0  0  0  0  0  0  0  0  0  0  0
    6.4258    0.4597    2.5993 H   0  0  0  0  0  0  0  0  0  0  0  0
    5.9273   -0.1485   -0.8623 H   0  0  0  0  0  0  0  0  0  0  0  0
    5.7194    1.6059   -0.6147 H   0  0  0  0  0  0  0  0  0  0  0  0
    7.4992    2.1695   -1.9504 H   0  0  0  0  0  0  0  0  0  0  0  0
    7.3719    0.4707   -2.5419 H   0  0  0  0  0  0  0  0  0  0  0  0
    9.4787    1.7286   -0.9790 H   0  0  0  0  0  0  0  0  0  0  0  0
    9.4287    0.0471   -1.5794 H   0  0  0  0  0  0  0  0  0  0  0  0
    9.2227    0.7164    1.0871 H   0  0  0  0  0  0  0  0  0  0  0  0
    8.5118   -0.8325    0.3971 H   0  0  0  0  0  0  0  0  0  0  0  0
    3.7554   -2.6008    0.6882 H   0  0  0  0  0  0  0  0  0  0  0  0
    1.6054   -3.6188   -0.0356 H   0  0  0  0  0  0  0  0  0  0  0  0
  -10.3170    0.8845    2.2701 H   0  0  0  0  0  0  0  0  0  0  0  0
  -11.4906    1.6538    0.2763 H   0  0  0  0  0  0  0  0  0  0  0  0
  -10.3047    1.7972   -1.8661 H   0  0  0  0  0  0  0  0  0  0  0  0
  1  2  1  0
  2  3  2  0
  3  4  1  0
  4  5  2  0
  5  6  1  0
  6  7  2  0
  7  8  1  0
  8  9  2  0
  9 10  1  0
 10 11  1  0
 11 12  2  0
 12 13  1  0
 13 14  2  0
 14 15  1  0
 15 16  1  0
 16 17  1  0
 17 18  1  0
 18 19  1  0
 18 20  1  0
 20 21  1  0
 21 22  1  0
 22 23  1  0
 14 24  1  0
 24 25  2  0
  9 26  1  0
 26 27  2  0
  4 28  1  0
 28 29  2  0
 29 30  1  0
 29 31  1  0
 31 32  2  0
 32 33  1  0
 33 34  2  0
 34 35  1  0
 27  2  1  0
 34 28  1  0
 27  6  1  0
 25 11  1  0
 23 18  1  0
  1 36  1  0
  1 37  1  0
  1 38  1  0
  3 39  1  0
  5 40  1  0
 10 41  1  0
 12 42  1  0
 13 43  1  0
 16 44  1  0
 16 45  1  0
 17 46  1  0
 17 47  1  0
 20 48  1  0
 20 49  1  0
 21 50  1  0
 21 51  1  0
 22 52  1  0
 22 53  1  0
 23 54  1  0
 23 55  1  0
 24 56  1  0
 25 57  1  0
 31 58  1  0
 32 59  1  0
 33 60  1  0
M  CHG  2  18   1  19  -1
M  END
$$$$
[H]c1nc(N([H])[H])c([H])c(-n2c(N([H])c3c([H])c(C(=O)N([H])c4c([H])c([H])c([H])c(C(F)(F)F)c4[H])c([H])c([H])c3C([H])([H])[H])nc3c([H])c([H])c([H])c([H])c32)n1
     RDKit          3D

 57 61  0  0  0  0  0  0  0  0999 V2000
    0.5887   -2.6487    3.8567 C   0  0  0  0  0  0  0  0  0  0  0  0
    0.9804   -1.8008    2.6920 C   0  0  0  0  0  0  0  0  0  0  0  0
    2.2578   -1.2796    2.6152 C   0  0  0  0  0  0  0  0  0  0  0  0
    2.6493   -0.4904    1.5823 C   0  0  0  0  0  0  0  0  0  0  0  0
    1.7853   -0.1660    0.5377 C   0  0  0  0  0  0  0  0  0  0  0  0
    0.5317   -0.6786    0.6167 C   0  0  0  0  0  0  0  0  0  0  0  0
    0.0696   -1.4947    1.6547 C   0  0  0  0  0  0  0  0  0  0  0  0
   -1.1642   -2.1178    1.6951 N   0  0  0  0  0  0  0  0  0  0  0  0
   -2.4844   -1.9007    1.3085 C   0  0  0  0  0  0  0  0  0  0  0  0
   -3.3245   -3.0056    1.2298 N   0  0  0  0  0  0  0  0  0  0  0  0
   -4.5506   -2.5146    1.0660 C   0  0  0  0  0  0  0  0  0  0  0  0
   -5.7540   -3.2678    1.0261 C   0  0  0  0  0  0  0  0  0  0  0  0
   -6.9187   -2.5469    0.9603 C   0  0  0  0  0  0  0  0  0  0  0  0
   -6.9077   -1.1587    0.9326 C   0  0  0  0  0  0  0  0  0  0  0  0
   -5.7317   -0.4869    0.9661 C   0  0  0  0  0  0  0  0  0  0  0  0
   -4.4921   -1.1531    1.0386 C   0  0  0  0  0  0  0  0  0  0  0  0
   -3.1833   -0.7809    1.1930 N   0  0  0  0  0  0  0  0  0  0  0  0
   -2.7774    0.5981    1.2723 C   0  0  0  0  0  0  0  0  0  0  0  0
   -3.2675    1.5351    0.3382 C   0  0  0  0  0  0  0  0  0  0  0  0
   -2.8302    2.8738    0.4642 C   0  0  0  0  0  0  0  0  0  0  0  0
   -3.3317    3.8927   -0.4238 N   0  0  0  0  0  0  0  0  0  0  0  0
   -2.0115    3.1243    1.4344 N   0  0  0  0  0  0  0  0  0  0  0  0
   -1.5030    2.3009    2.3636 C   0  0  0  0  0  0  0  0  0  0  0  0
   -1.9553    1.0087    2.2013 N   0  0  0  0  0  0  0  0  0  0  0  0
    2.3823    0.6330   -0.5430 C   0  0  0  0  0  0  0  0  0  0  0  0
    2.2111    1.8532   -0.6267 O   0  0  0  0  0  0  0  0  0  0  0  0
    3.1999   -0.0363   -1.5096 N   0  0  0  0  0  0  0  0  0  0  0  0
    3.9402    0.4853   -2.5675 C   0  0  0  0  0  0  0  0  0  0  0  0
    3.9422   -0.2859   -3.7349 C   0  0  0  0  0  0  0  0  0  0  0  0
    4.7267    0.0545   -4.8092 C   0  0  0  0  0  0  0  0  0  0  0  0
    5.5226    1.1554   -4.7603 C   0  0  0  0  0  0  0  0  0  0  0  0
    5.5583    1.9518   -3.6369 C   0  0  0  0  0  0  0  0  0  0  0  0
    4.7503    1.5904   -2.5470 C   0  0  0  0  0  0  0  0  0  0  0  0
    6.4532    3.1116   -3.6227 C   0  0  0  0  0  0  0  0  0  0  0  0
    5.7564    4.3105   -3.5918 F   0  0  0  0  0  0  0  0  0  0  0  0
    7.3172    3.0686   -2.5366 F   0  0  0  0  0  0  0  0  0  0  0  0
    7.2597    3.0572   -4.7500 F   0  0  0  0  0  0  0  0  0  0  0  0
    0.1185   -3.5889    3.6209 H   0  0  0  0  0  0  0  0  0  0  0  0
    0.1055   -2.0299    4.6499 H   0  0  0  0  0  0  0  0  0  0  0  0
    1.5743   -2.9446    4.3496 H   0  0  0  0  0  0  0  0  0  0  0  0
    2.9495   -1.5378    3.4208 H   0  0  0  0  0  0  0  0  0  0  0  0
    3.6549   -0.0860    1.5259 H   0  0  0  0  0  0  0  0  0  0  0  0
   -0.1706   -0.4326   -0.1979 H   0  0  0  0  0  0  0  0  0  0  0  0
   -1.1005   -3.1194    2.2159 H   0  0  0  0  0  0  0  0  0  0  0  0
   -5.7231   -4.3404    1.0537 H   0  0  0  0  0  0  0  0  0  0  0  0
   -7.8945   -3.0555    0.9353 H   0  0  0  0  0  0  0  0  0  0  0  0
   -7.8491   -0.6031    0.8953 H   0  0  0  0  0  0  0  0  0  0  0  0
   -5.6615    0.6098    0.9684 H   0  0  0  0  0  0  0  0  0  0  0  0
   -3.9492    1.2662   -0.4398 H   0  0  0  0  0  0  0  0  0  0  0  0
   -3.5136    3.6772   -1.3946 H   0  0  0  0  0  0  0  0  0  0  0  0
   -3.5231    4.8461   -0.0440 H   0  0  0  0  0  0  0  0  0  0  0  0
   -0.8405    2.5248    3.1531 H   0  0  0  0  0  0  0  0  0  0  0  0
    3.2025   -1.1078   -1.3386 H   0  0  0  0  0  0  0  0  0  0  0  0
    3.3270   -1.1700   -3.8059 H   0  0  0  0  0  0  0  0  0  0  0  0
    4.7014   -0.5972   -5.6915 H   0  0  0  0  0  0  0  0  0  0  0  0
    6.1288    1.4336   -5.5993 H   0  0  0  0  0  0  0  0  0  0  0  0
    4.7685    2.2028   -1.6627 H   0  0  0  0  0  0  0  0  0  0  0  0
  1  2  1  0
  2  3  2  0
  3  4  1  0
  4  5  2  0
  5  6  1  0
  6  7  2  0
  7  8  1  0
  8  9  1  0
  9 10  2  0
 10 11  1  0
 11 12  2  0
 12 13  1  0
 13 14  2  0
 14 15  1  0
 15 16  2  0
 16 17  1  0
 17 18  1  0
 18 19  2  0
 19 20  1  0
 20 21  1  0
 20 22  2  0
 22 23  1  0
 23 24  2  0
  5 25  1  0
 25 26  2  0
 25 27  1  0
 27 28  1  0
 28 29  2  0
 29 30  1  0
 30 31  2  0
 31 32  1  0
 32 33  2  0
 32 34  1  0
 34 35  1  0
 34 36  1  0
 34 37  1  0
  7  2  1  0
 17  9  1  0
 24 18  1  0
 33 28  1  0
 16 11  1  0
  1 38  1  0
  1 39  1  0
  1 40  1  0
  3 41  1  0
  4 42  1  0
  6 43  1  0
  8 44  1  0
 12 45  1  0
 13 46  1  0
 14 47  1  0
 15 48  1  0
 19 49  1  0
 21 50  1  0
 21 51  1  0
 23 52  1  0
 27 53  1  0
 29 54  1  0
 30 55  1  0
 31 56  1  0
 33 57  1  0
M  END
$$$$
[H]c1c([H])c([H])c2c(N([H])[H])c(C(=O)N([H])[H])nnc2c1-c1c(C([H])([H])[H])c([H])c2c([H])nn([H])c2c1[H]
     RDKit          3D

 38 41  0  0  0  0  0  0  0  0999 V2000
   -2.4697   -1.8948    1.7835 C   0  0  0  0  0  0  0  0  0  0  0  0
   -2.6111   -0.7950    0.7789 C   0  0  0  0  0  0  0  0  0  0  0  0
   -3.8513   -0.1483    0.6942 C   0  0  0  0  0  0  0  0  0  0  0  0
   -4.0513    0.8799   -0.1978 C   0  0  0  0  0  0  0  0  0  0  0  0
   -5.1140    1.6879   -0.5124 C   0  0  0  0  0  0  0  0  0  0  0  0
   -4.6779    2.5210   -1.4916 N   0  0  0  0  0  0  0  0  0  0  0  0
   -3.4254    2.2890   -1.8061 N   0  0  0  0  0  0  0  0  0  0  0  0
   -3.0145    1.2791   -1.0209 C   0  0  0  0  0  0  0  0  0  0  0  0
   -1.7802    0.6689   -0.9685 C   0  0  0  0  0  0  0  0  0  0  0  0
   -1.6115   -0.3598   -0.0627 C   0  0  0  0  0  0  0  0  0  0  0  0
   -0.3316   -1.0360    0.0023 C   0  0  0  0  0  0  0  0  0  0  0  0
   -0.2373   -2.4062   -0.0772 C   0  0  0  0  0  0  0  0  0  0  0  0
    0.9995   -3.0210   -0.0370 C   0  0  0  0  0  0  0  0  0  0  0  0
    2.1581   -2.3067    0.0810 C   0  0  0  0  0  0  0  0  0  0  0  0
    2.0466   -0.9317    0.1596 C   0  0  0  0  0  0  0  0  0  0  0  0
    3.2073   -0.1803    0.2833 C   0  0  0  0  0  0  0  0  0  0  0  0
    4.4507   -0.8599    0.3191 N   0  0  0  0  0  0  0  0  0  0  0  0
    3.1256    1.1917    0.3674 C   0  0  0  0  0  0  0  0  0  0  0  0
    1.9164    1.7545    0.3262 N   0  0  0  0  0  0  0  0  0  0  0  0
    0.7949    1.0675    0.2090 N   0  0  0  0  0  0  0  0  0  0  0  0
    0.8245   -0.2954    0.1220 C   0  0  0  0  0  0  0  0  0  0  0  0
    4.3558    1.9513    0.4928 C   0  0  0  0  0  0  0  0  0  0  0  0
    4.3570    3.3783    0.5886 N   0  0  0  0  0  0  0  0  0  0  0  0
    5.4700    1.3825    0.5218 O   0  0  0  0  0  0  0  0  0  0  0  0
   -1.4765   -1.9563    2.2361 H   0  0  0  0  0  0  0  0  0  0  0  0
   -2.8898   -2.8525    1.4258 H   0  0  0  0  0  0  0  0  0  0  0  0
   -3.1453   -1.6154    2.6510 H   0  0  0  0  0  0  0  0  0  0  0  0
   -4.6577   -0.4907    1.3633 H   0  0  0  0  0  0  0  0  0  0  0  0
   -6.0779    1.6372   -0.0525 H   0  0  0  0  0  0  0  0  0  0  0  0
   -2.8699    2.8132   -2.5421 H   0  0  0  0  0  0  0  0  0  0  0  0
   -0.9809    0.9882   -1.6219 H   0  0  0  0  0  0  0  0  0  0  0  0
   -1.1310   -3.0491   -0.1810 H   0  0  0  0  0  0  0  0  0  0  0  0
    1.0556   -4.1047   -0.1010 H   0  0  0  0  0  0  0  0  0  0  0  0
    3.1439   -2.7612    0.1153 H   0  0  0  0  0  0  0  0  0  0  0  0
    4.9487   -0.9157    1.2328 H   0  0  0  0  0  0  0  0  0  0  0  0
    4.8999   -1.3067   -0.5028 H   0  0  0  0  0  0  0  0  0  0  0  0
    3.4981    3.8684    0.2576 H   0  0  0  0  0  0  0  0  0  0  0  0
    5.1522    3.9288    0.9628 H   0  0  0  0  0  0  0  0  0  0  0  0
  1  2  1  0
  2  3  2  0
  3  4  1  0
  4  5  1  0
  5  6  2  0
  6  7  1  0
  7  8  1  0
  8  9  1  0
  9 10  2  0
 10 11  1  0
 11 12  2  0
 12 13  1  0
 13 14  2  0
 14 15  1  0
 15 16  2  0
 16 17  1  0
 16 18  1  0
 18 19  2  0
 19 20  1  0
 20 21  2  0
 18 22  1  0
 22 23  1  0
 22 24  2  0
 10  2  1  0
 21 11  1  0
  8  4  2  0
 21 15  1  0
  1 25  1  0
  1 26  1  0
  1 27  1  0
  3 28  1  0
  5 29  1  0
  7 30  1  0
  9 31  1  0
 12 32  1  0
 13 33  1  0
 14 34  1  0
 17 35  1  0
 17 36  1  0
 23 37  1  0
 23 38  1  0
M  END
$$$$
[H]c1nc(N([H])[H])c([H])c(-n2c(N([H])c3c([H])c(N([H])C(=O)c4c([H])c(OC5([H])C([H])([H])C([H])([H])N(C([H])([H])[H])C([H])([H])C5([H])[H])c([H])c(C(F)(F)F)c4[H])c([H])c([H])c3C([H])([H])[H])nc3c([H])c([H])c([H])c([H])c32)n1
     RDKit          3D

 76 81  0  0  0  0  0  0  0  0999 V2000
    9.8085    1.2324   -0.3470 C   0  0  0  0  0  0  0  0  0  0  0  0
    8.8141    0.6067    0.5242 N   0  0  0  0  0  0  0  0  0  0  0  0
    7.8939    1.5615    1.0739 C   0  0  0  0  0  0  0  0  0  0  0  0
    6.5540    1.0189    1.4574 C   0  0  0  0  0  0  0  0  0  0  0  0
    5.8610    0.3070    0.2888 C   0  0  0  0  0  0  0  0  0  0  0  0
    6.8918    0.3223   -0.8439 C   0  0  0  0  0  0  0  0  0  0  0  0
    8.1236   -0.3816   -0.2861 C   0  0  0  0  0  0  0  0  0  0  0  0
    5.6076   -1.0001    0.6796 O   0  0  0  0  0  0  0  0  0  0  0  0
    4.3777   -1.6304    0.7271 C   0  0  0  0  0  0  0  0  0  0  0  0
    3.1807   -1.0190    0.3741 C   0  0  0  0  0  0  0  0  0  0  0  0
    1.9891   -1.6902    0.4440 C   0  0  0  0  0  0  0  0  0  0  0  0
    1.9555   -2.9888    0.8683 C   0  0  0  0  0  0  0  0  0  0  0  0
    3.1215   -3.6338    1.2264 C   0  0  0  0  0  0  0  0  0  0  0  0
    4.3035   -2.9535    1.1522 C   0  0  0  0  0  0  0  0  0  0  0  0
    3.0796   -5.0720    1.6866 C   0  0  0  0  0  0  0  0  0  0  0  0
    1.8102   -5.3735    2.1457 F   0  0  0  0  0  0  0  0  0  0  0  0
    3.9675   -5.3164    2.6855 F   0  0  0  0  0  0  0  0  0  0  0  0
    3.3623   -5.9293    0.6297 F   0  0  0  0  0  0  0  0  0  0  0  0
    0.6998   -1.0489    0.0689 C   0  0  0  0  0  0  0  0  0  0  0  0
   -0.1471   -1.0698    0.9588 O   0  0  0  0  0  0  0  0  0  0  0  0
    0.5989   -0.5142   -1.2116 N   0  0  0  0  0  0  0  0  0  0  0  0
   -0.5295    0.1250   -1.7453 C   0  0  0  0  0  0  0  0  0  0  0  0
   -0.4103    0.6927   -3.0213 C   0  0  0  0  0  0  0  0  0  0  0  0
   -1.4921    1.3171   -3.5652 C   0  0  0  0  0  0  0  0  0  0  0  0
   -2.6982    1.4130   -2.9125 C   0  0  0  0  0  0  0  0  0  0  0  0
   -3.8552    2.0899   -3.5772 C   0  0  0  0  0  0  0  0  0  0  0  0
   -2.8641    0.8610   -1.6379 C   0  0  0  0  0  0  0  0  0  0  0  0
   -4.0993    1.0055   -1.0019 N   0  0  0  0  0  0  0  0  0  0  0  0
   -4.4820    0.3575    0.2061 C   0  0  0  0  0  0  0  0  0  0  0  0
   -3.8618   -0.5332    0.9724 N   0  0  0  0  0  0  0  0  0  0  0  0
   -4.5816   -0.8868    2.0513 C   0  0  0  0  0  0  0  0  0  0  0  0
   -4.3823   -1.7462    3.0997 C   0  0  0  0  0  0  0  0  0  0  0  0
   -5.3129   -1.9242    4.0931 C   0  0  0  0  0  0  0  0  0  0  0  0
   -6.4951   -1.2048    4.0231 C   0  0  0  0  0  0  0  0  0  0  0  0
   -6.6865   -0.3477    2.9696 C   0  0  0  0  0  0  0  0  0  0  0  0
   -5.7591   -0.1571    1.9628 C   0  0  0  0  0  0  0  0  0  0  0  0
   -5.6803    0.5737    0.8631 N   0  0  0  0  0  0  0  0  0  0  0  0
   -6.6750    1.4631    0.4097 C   0  0  0  0  0  0  0  0  0  0  0  0
   -7.3525    1.3064   -0.7766 C   0  0  0  0  0  0  0  0  0  0  0  0
   -8.3270    2.2258   -1.1730 C   0  0  0  0  0  0  0  0  0  0  0  0
   -9.0013    2.0182   -2.3929 N   0  0  0  0  0  0  0  0  0  0  0  0
   -8.5645    3.2533   -0.3531 N   0  0  0  0  0  0  0  0  0  0  0  0
   -7.9075    3.4106    0.8052 C   0  0  0  0  0  0  0  0  0  0  0  0
   -6.9750    2.5295    1.1861 N   0  0  0  0  0  0  0  0  0  0  0  0
   -1.7755    0.2413   -1.1089 C   0  0  0  0  0  0  0  0  0  0  0  0
    9.5964    2.2945   -0.5171 H   0  0  0  0  0  0  0  0  0  0  0  0
    9.8532    0.7510   -1.3282 H   0  0  0  0  0  0  0  0  0  0  0  0
   10.7940    1.1487    0.1672 H   0  0  0  0  0  0  0  0  0  0  0  0
    8.3488    1.9401    2.0403 H   0  0  0  0  0  0  0  0  0  0  0  0
    7.7847    2.4682    0.4477 H   0  0  0  0  0  0  0  0  0  0  0  0
    6.6064    0.3562    2.3435 H   0  0  0  0  0  0  0  0  0  0  0  0
    5.9067    1.8693    1.7449 H   0  0  0  0  0  0  0  0  0  0  0  0
    4.9509    0.8441   -0.0001 H   0  0  0  0  0  0  0  0  0  0  0  0
    7.1163    1.3570   -1.0937 H   0  0  0  0  0  0  0  0  0  0  0  0
    6.5081   -0.1801   -1.7540 H   0  0  0  0  0  0  0  0  0  0  0  0
    7.8616   -1.2519    0.3279 H   0  0  0  0  0  0  0  0  0  0  0  0
    8.7750   -0.7429   -1.1309 H   0  0  0  0  0  0  0  0  0  0  0  0
    3.1820    0.0175    0.0273 H   0  0  0  0  0  0  0  0  0  0  0  0
    1.0114   -3.5533    0.9417 H   0  0  0  0  0  0  0  0  0  0  0  0
    5.2374   -3.4536    1.4244 H   0  0  0  0  0  0  0  0  0  0  0  0
    1.4522   -0.6050   -1.8342 H   0  0  0  0  0  0  0  0  0  0  0  0
    0.5410    0.6337   -3.5470 H   0  0  0  0  0  0  0  0  0  0  0  0
   -1.3684    1.7549   -4.5543 H   0  0  0  0  0  0  0  0  0  0  0  0
   -4.8056    1.5364   -3.4707 H   0  0  0  0  0  0  0  0  0  0  0  0
   -3.6541    2.1804   -4.6715 H   0  0  0  0  0  0  0  0  0  0  0  0
   -3.9919    3.1213   -3.2064 H   0  0  0  0  0  0  0  0  0  0  0  0
   -4.7966    1.6558   -1.4670 H   0  0  0  0  0  0  0  0  0  0  0  0
   -3.4695   -2.3092    3.1465 H   0  0  0  0  0  0  0  0  0  0  0  0
   -5.1530   -2.6092    4.9329 H   0  0  0  0  0  0  0  0  0  0  0  0
   -7.2385   -1.3364    4.8078 H   0  0  0  0  0  0  0  0  0  0  0  0
   -7.5975    0.2170    2.8953 H   0  0  0  0  0  0  0  0  0  0  0  0
   -7.0991    0.4348   -1.3990 H   0  0  0  0  0  0  0  0  0  0  0  0
   -8.7811    2.6172   -3.2044 H   0  0  0  0  0  0  0  0  0  0  0  0
   -9.7052    1.2691   -2.4727 H   0  0  0  0  0  0  0  0  0  0  0  0
   -8.0987    4.2552    1.4631 H   0  0  0  0  0  0  0  0  0  0  0  0
   -1.8521   -0.1918   -0.1464 H   0  0  0  0  0  0  0  0  0  0  0  0
  1  2  1  0
  2  3  1  0
  3  4  1  0
  4  5  1  0
  5  6  1  0
  6  7  1  0
  5  8  1  0
  8  9  1  0
  9 10  2  0
 10 11  1  0
 11 12  2  0
 12 13  1  0
 13 14  2  0
 13 15  1  0
 15 16  1  0
 15 17  1  0
 15 18  1  0
 11 19  1  0
 19 20  2  0
 19 21  1  0
 21 22  1  0
 22 23  2  0
 23 24  1  0
 24 25  2  0
 25 26  1  0
 25 27  1  0
 27 28  1  0
 28 29  1  0
 29 30  2  0
 30 31  1  0
 31 32  2  0
 32 33  1  0
 33 34  2  0
 34 35  1  0
 35 36  2  0
 36 37  1  0
 37 38  1  0
 38 39  2  0
 39 40  1  0
 40 41  1  0
 40 42  2  0
 42 43  1  0
 43 44  2  0
 27 45  2  0
  7  2  1  0
 14  9  1  0
 45 22  1  0
 37 29  1  0
 44 38  1  0
 36 31  1  0
  1 46  1  0
  1 47  1  0
  1 48  1  0
  3 49  1  0
  3 50  1  0
  4 51  1  0
  4 52  1  0
  5 53  1  0
  6 54  1  0
  6 55  1  0
  7 56  1  0
  7 57  1  0
 10 58  1  0
 12 59  1  0
 14 60  1  0
 21 61  1  0
 23 62  1  0
 24 63  1  0
 26 64  1  0
 26 65  1  0
 26 66  1  0
 28 67  1  0
 32 68  1  0
 33 69  1  0
 34 70  1  0
 35 71  1  0
 39 72  1  0
 41 73  1  0
 41 74  1  0
 43 75  1  0
 45 76  1  0
M  END
$$$$
[H]c1nc(N([H])[H])c2c(-c3c([H])nc4c(c3[H])c([H])c([H])n4[H])nn(C([H])([H])C([H])([H])N3C([H])([H])C([H])([H])C([H])(C([H])([H])N(C([H])([H])[H])C([H])([H])[H])C([H])([H])C3([H])[H])c2n1
     RDKit          3D

 60 64  0  0  0  0  0  0  0  0999 V2000
   -6.8733   -0.3357    1.7295 C   0  0  0  0  0  0  0  0  0  0  0  0
   -6.8767   -0.8429    0.4155 N   0  0  0  0  0  0  0  0  0  0  0  0
   -8.0827   -0.8064   -0.3189 C   0  0  0  0  0  0  0  0  0  0  0  0
   -5.6724   -1.0954   -0.2480 C   0  0  0  0  0  0  0  0  0  0  0  0
   -4.8095    0.0437   -0.6493 C   0  0  0  0  0  0  0  0  0  0  0  0
   -4.3490    0.8543    0.5139 C   0  0  0  0  0  0  0  0  0  0  0  0
   -2.8490    1.1567    0.2771 C   0  0  0  0  0  0  0  0  0  0  0  0
   -2.2076   -0.1361    0.4656 N   0  0  0  0  0  0  0  0  0  0  0  0
   -0.8072    0.0486    0.5820 C   0  0  0  0  0  0  0  0  0  0  0  0
   -0.1229    0.5150   -0.7017 C   0  0  0  0  0  0  0  0  0  0  0  0
    1.3111    0.6446   -0.3911 N   0  0  0  0  0  0  0  0  0  0  0  0
    2.2332   -0.2767   -0.4986 N   0  0  0  0  0  0  0  0  0  0  0  0
    3.4669    0.2018   -0.1136 C   0  0  0  0  0  0  0  0  0  0  0  0
    4.6806   -0.5825   -0.0876 C   0  0  0  0  0  0  0  0  0  0  0  0
    4.6842   -1.7491    0.6532 C   0  0  0  0  0  0  0  0  0  0  0  0
    5.7708   -2.5501    0.6703 N   0  0  0  0  0  0  0  0  0  0  0  0
    6.8971   -2.2559   -0.0270 C   0  0  0  0  0  0  0  0  0  0  0  0
    8.0824   -2.8475   -0.1858 N   0  0  0  0  0  0  0  0  0  0  0  0
    8.8762   -2.1404   -0.9945 C   0  0  0  0  0  0  0  0  0  0  0  0
    8.1704   -1.0269   -1.3844 C   0  0  0  0  0  0  0  0  0  0  0  0
    6.9368   -1.1039   -0.7786 C   0  0  0  0  0  0  0  0  0  0  0  0
    5.8018   -0.2787   -0.7901 C   0  0  0  0  0  0  0  0  0  0  0  0
    3.2909    1.5039    0.2573 C   0  0  0  0  0  0  0  0  0  0  0  0
    4.1389    2.4786    0.7405 C   0  0  0  0  0  0  0  0  0  0  0  0
    5.5141    2.2763    0.9792 N   0  0  0  0  0  0  0  0  0  0  0  0
    3.5726    3.6898    1.0194 N   0  0  0  0  0  0  0  0  0  0  0  0
    2.2615    3.9223    0.8353 C   0  0  0  0  0  0  0  0  0  0  0  0
    1.4391    2.9578    0.3628 N   0  0  0  0  0  0  0  0  0  0  0  0
    1.9314    1.7548    0.0725 C   0  0  0  0  0  0  0  0  0  0  0  0
   -2.6124   -1.0881   -0.5186 C   0  0  0  0  0  0  0  0  0  0  0  0
   -3.6400   -0.5368   -1.4491 C   0  0  0  0  0  0  0  0  0  0  0  0
   -6.1635   -0.9634    2.3447 H   0  0  0  0  0  0  0  0  0  0  0  0
   -7.8705   -0.5440    2.1994 H   0  0  0  0  0  0  0  0  0  0  0  0
   -6.6780    0.7432    1.8507 H   0  0  0  0  0  0  0  0  0  0  0  0
   -7.8278   -0.8712   -1.4092 H   0  0  0  0  0  0  0  0  0  0  0  0
   -8.7676    0.0281   -0.1113 H   0  0  0  0  0  0  0  0  0  0  0  0
   -8.6447   -1.7575   -0.1070 H   0  0  0  0  0  0  0  0  0  0  0  0
   -5.9118   -1.6740   -1.1910 H   0  0  0  0  0  0  0  0  0  0  0  0
   -5.0554   -1.7800    0.4070 H   0  0  0  0  0  0  0  0  0  0  0  0
   -5.3405    0.7362   -1.3632 H   0  0  0  0  0  0  0  0  0  0  0  0
   -4.3505    0.3348    1.4901 H   0  0  0  0  0  0  0  0  0  0  0  0
   -4.8186    1.8289    0.6173 H   0  0  0  0  0  0  0  0  0  0  0  0
   -2.5345    1.8333    1.0817 H   0  0  0  0  0  0  0  0  0  0  0  0
   -2.7015    1.5860   -0.7144 H   0  0  0  0  0  0  0  0  0  0  0  0
   -0.2921   -0.8810    0.9415 H   0  0  0  0  0  0  0  0  0  0  0  0
   -0.6214    0.7978    1.3893 H   0  0  0  0  0  0  0  0  0  0  0  0
   -0.5728    1.4819   -0.9659 H   0  0  0  0  0  0  0  0  0  0  0  0
   -0.2729   -0.1812   -1.5228 H   0  0  0  0  0  0  0  0  0  0  0  0
    3.7980   -2.0150    1.2224 H   0  0  0  0  0  0  0  0  0  0  0  0
    8.3557   -3.7455    0.2617 H   0  0  0  0  0  0  0  0  0  0  0  0
    9.9050   -2.3791   -1.3075 H   0  0  0  0  0  0  0  0  0  0  0  0
    8.5016   -0.2194   -2.0482 H   0  0  0  0  0  0  0  0  0  0  0  0
    5.8758    0.5987   -1.4075 H   0  0  0  0  0  0  0  0  0  0  0  0
    5.8378    1.7526    1.8076 H   0  0  0  0  0  0  0  0  0  0  0  0
    6.2122    2.6558    0.3199 H   0  0  0  0  0  0  0  0  0  0  0  0
    1.8955    4.9099    1.0813 H   0  0  0  0  0  0  0  0  0  0  0  0
   -1.7559   -1.5170   -1.0808 H   0  0  0  0  0  0  0  0  0  0  0  0
   -3.0726   -1.9846   -0.0060 H   0  0  0  0  0  0  0  0  0  0  0  0
   -4.0501   -1.3719   -2.0491 H   0  0  0  0  0  0  0  0  0  0  0  0
   -3.2365    0.2026   -2.1681 H   0  0  0  0  0  0  0  0  0  0  0  0
  1  2  1  0
  2  3  1  0
  2  4  1  0
  4  5  1  0
  5  6  1  0
  6  7  1  0
  7  8  1  0
  8  9  1  0
  9 10  1  0
 10 11  1  0
 11 12  1  0
 12 13  2  0
 13 14  1  0
 14 15  2  0
 15 16  1  0
 16 17  2  0
 17 18  1  0
 18 19  1  0
 19 20  2  0
 20 21  1  0
 21 22  2  0
 13 23  1  0
 23 24  2  0
 24 25  1  0
 24 26  1  0
 26 27  2  0
 27 28  1  0
 28 29  2  0
  8 30  1  0
 30 31  1  0
 31  5  1  0
 29 11  1  0
 22 14  1  0
 29 23  1  0
 21 17  1  0
  1 32  1  0
  1 33  1  0
  1 34  1  0
  3 35  1  0
  3 36  1  0
  3 37  1  0
  4 38  1  0
  4 39  1  0
  5 40  1  0
  6 41  1  0
  6 42  1  0
  7 43  1  0
  7 44  1  0
  9 45  1  0
  9 46  1  0
 10 47  1  0
 10 48  1  0
 15 49  1  0
 18 50  1  0
 19 51  1  0
 20 52  1  0
 22 53  1  0
 25 54  1  0
 25 55  1  0
 27 56  1  0
 30 57  1  0
 30 58  1  0
 31 59  1  0
 31 60  1  0
M  END
$$$$
[H]c1nc(N([H])[H])c([H])c(-n2c(N([H])c3c([H])c(N([H])C(=O)c4c([H])c([H])c([H])c(C(F)(F)F)c4[H])c([H])c([H])c3C([H])([H])[H])nc3c([H])c([H])c([H])c([H])c32)n1
     RDKit          3D

 57 61  0  0  0  0  0  0  0  0999 V2000
   -1.6432   -2.0416    2.7169 C   0  0  0  0  0  0  0  0  0  0  0  0
   -0.4053   -1.4867    2.0633 C   0  0  0  0  0  0  0  0  0  0  0  0
    0.8342   -1.8560    2.4707 C   0  0  0  0  0  0  0  0  0  0  0  0
    1.9648   -1.3222    1.8953 C   0  0  0  0  0  0  0  0  0  0  0  0
    1.8822   -0.3874    0.8761 C   0  0  0  0  0  0  0  0  0  0  0  0
    3.1468    0.0395    0.2902 N   0  0  0  0  0  0  0  0  0  0  0  0
    4.1825   -0.8981    0.1319 C   0  0  0  0  0  0  0  0  0  0  0  0
    3.9574   -2.1254    0.4591 O   0  0  0  0  0  0  0  0  0  0  0  0
    5.5124   -0.6686   -0.3620 C   0  0  0  0  0  0  0  0  0  0  0  0
    6.2085   -1.7268   -0.9935 C   0  0  0  0  0  0  0  0  0  0  0  0
    7.5029   -1.5976   -1.4178 C   0  0  0  0  0  0  0  0  0  0  0  0
    8.1760   -0.4198   -1.2395 C   0  0  0  0  0  0  0  0  0  0  0  0
    7.5489    0.6476   -0.6304 C   0  0  0  0  0  0  0  0  0  0  0  0
    6.2433    0.5004   -0.2105 C   0  0  0  0  0  0  0  0  0  0  0  0
    8.3554    1.8848   -0.4631 C   0  0  0  0  0  0  0  0  0  0  0  0
    9.1827    1.7204    0.6569 F   0  0  0  0  0  0  0  0  0  0  0  0
    7.6253    3.0175   -0.2734 F   0  0  0  0  0  0  0  0  0  0  0  0
    9.1307    2.1006   -1.6059 F   0  0  0  0  0  0  0  0  0  0  0  0
    0.6387    0.0017    0.4544 C   0  0  0  0  0  0  0  0  0  0  0  0
   -0.5280   -0.5230    1.0190 C   0  0  0  0  0  0  0  0  0  0  0  0
   -1.8358   -0.3085    0.6216 N   0  0  0  0  0  0  0  0  0  0  0  0
   -2.4500    0.8405    0.1121 C   0  0  0  0  0  0  0  0  0  0  0  0
   -2.0584    2.0868   -0.1661 N   0  0  0  0  0  0  0  0  0  0  0  0
   -3.0946    2.8754   -0.5621 C   0  0  0  0  0  0  0  0  0  0  0  0
   -3.2513    4.1921   -0.9126 C   0  0  0  0  0  0  0  0  0  0  0  0
   -4.4890    4.7055   -1.2275 C   0  0  0  0  0  0  0  0  0  0  0  0
   -5.6142    3.9009   -1.2026 C   0  0  0  0  0  0  0  0  0  0  0  0
   -5.4598    2.5754   -0.8527 C   0  0  0  0  0  0  0  0  0  0  0  0
   -4.1912    2.0914   -0.5358 C   0  0  0  0  0  0  0  0  0  0  0  0
   -3.8198    0.8820   -0.1403 N   0  0  0  0  0  0  0  0  0  0  0  0
   -4.6993   -0.2178    0.0100 C   0  0  0  0  0  0  0  0  0  0  0  0
   -4.7485   -1.2047   -0.9499 C   0  0  0  0  0  0  0  0  0  0  0  0
   -5.5854   -2.2820   -0.8318 C   0  0  0  0  0  0  0  0  0  0  0  0
   -5.6390   -3.3228   -1.8083 N   0  0  0  0  0  0  0  0  0  0  0  0
   -6.3867   -2.3688    0.2666 N   0  0  0  0  0  0  0  0  0  0  0  0
   -6.3356   -1.3968    1.2079 C   0  0  0  0  0  0  0  0  0  0  0  0
   -5.5174   -0.3658    1.0689 N   0  0  0  0  0  0  0  0  0  0  0  0
   -2.1040   -2.7528    2.0101 H   0  0  0  0  0  0  0  0  0  0  0  0
   -2.3603   -1.2131    2.9698 H   0  0  0  0  0  0  0  0  0  0  0  0
   -1.3766   -2.5985    3.6355 H   0  0  0  0  0  0  0  0  0  0  0  0
    0.9458   -2.5873    3.2690 H   0  0  0  0  0  0  0  0  0  0  0  0
    2.9552   -1.6055    2.2730 H   0  0  0  0  0  0  0  0  0  0  0  0
    3.2243    1.0157    0.0065 H   0  0  0  0  0  0  0  0  0  0  0  0
    5.6386   -2.6562   -1.1109 H   0  0  0  0  0  0  0  0  0  0  0  0
    8.0121   -2.4455   -1.9029 H   0  0  0  0  0  0  0  0  0  0  0  0
    9.2259   -0.3527   -1.5914 H   0  0  0  0  0  0  0  0  0  0  0  0
    5.7761    1.3585    0.2692 H   0  0  0  0  0  0  0  0  0  0  0  0
    0.5548    0.7297   -0.3343 H   0  0  0  0  0  0  0  0  0  0  0  0
   -2.4657   -1.2163    0.6894 H   0  0  0  0  0  0  0  0  0  0  0  0
   -2.3778    4.8442   -0.9514 H   0  0  0  0  0  0  0  0  0  0  0  0
   -4.6482    5.7667   -1.5019 H   0  0  0  0  0  0  0  0  0  0  0  0
   -6.6089    4.2836   -1.4481 H   0  0  0  0  0  0  0  0  0  0  0  0
   -6.3267    1.9303   -0.8277 H   0  0  0  0  0  0  0  0  0  0  0  0
   -4.1093   -1.1586   -1.8510 H   0  0  0  0  0  0  0  0  0  0  0  0
   -6.4919   -3.9111   -1.8868 H   0  0  0  0  0  0  0  0  0  0  0  0
   -4.8081   -3.4688   -2.4320 H   0  0  0  0  0  0  0  0  0  0  0  0
   -6.9953   -1.5044    2.0761 H   0  0  0  0  0  0  0  0  0  0  0  0
  1  2  1  0
  2  3  2  0
  3  4  1  0
  4  5  2  0
  5  6  1  0
  6  7  1  0
  7  8  2  0
  7  9  1  0
  9 10  2  0
 10 11  1  0
 11 12  2  0
 12 13  1  0
 13 14  2  0
 13 15  1  0
 15 16  1  0
 15 17  1  0
 15 18  1  0
  5 19  1  0
 19 20  2  0
 20 21  1  0
 21 22  1  0
 22 23  2  0
 23 24  1  0
 24 25  2  0
 25 26  1  0
 26 27  2  0
 27 28  1  0
 28 29  2  0
 29 30  1  0
 30 31  1  0
 31 32  2  0
 32 33  1  0
 33 34  1  0
 33 35  2  0
 35 36  1  0
 36 37  2  0
 20  2  1  0
 30 22  1  0
 37 31  1  0
 14  9  1  0
 29 24  1  0
  1 38  1  0
  1 39  1  0
  1 40  1  0
  3 41  1  0
  4 42  1  0
  6 43  1  0
 10 44  1  0
 11 45  1  0
 12 46  1  0
 14 47  1  0
 19 48  1  0
 21 49  1  0
 25 50  1  0
 26 51  1  0
 27 52  1  0
 28 53  1  0
 32 54  1  0
 34 55  1  0
 34 56  1  0
 36 57  1  0
M  END
$$$$
[H]c1c([H])c([H])c(C([H])([H])[H])c(N([H])c2nc3c([H])c(F)c(N([H])C([H])([H])[H])c([H])c3n3c([H])nc([H])c23)c1[H]
     RDKit          3D

 40 43  0  0  0  0  0  0  0  0999 V2000
    6.2405   -0.3312   -0.2556 C   0  0  0  0  0  0  0  0  0  0  0  0
    5.3669   -0.9886    0.6820 N   0  0  0  0  0  0  0  0  0  0  0  0
    3.9648   -0.8584    0.6284 C   0  0  0  0  0  0  0  0  0  0  0  0
    3.3914   -0.0616   -0.3713 C   0  0  0  0  0  0  0  0  0  0  0  0
    2.0253    0.0914   -0.4579 C   0  0  0  0  0  0  0  0  0  0  0  0
    1.2458   -0.5654    0.4711 C   0  0  0  0  0  0  0  0  0  0  0  0
    1.8181   -1.3576    1.4646 C   0  0  0  0  0  0  0  0  0  0  0  0
    3.1800   -1.5126    1.5542 C   0  0  0  0  0  0  0  0  0  0  0  0
    3.7356   -2.2908    2.5309 F   0  0  0  0  0  0  0  0  0  0  0  0
   -0.0750   -0.4006    0.3652 N   0  0  0  0  0  0  0  0  0  0  0  0
   -0.7009    0.3426   -0.5596 C   0  0  0  0  0  0  0  0  0  0  0  0
   -2.0732    0.5380   -0.7013 N   0  0  0  0  0  0  0  0  0  0  0  0
   -3.1444   -0.0046    0.1019 C   0  0  0  0  0  0  0  0  0  0  0  0
   -2.9421   -0.8288    1.1678 C   0  0  0  0  0  0  0  0  0  0  0  0
   -4.0443   -1.3060    1.8875 C   0  0  0  0  0  0  0  0  0  0  0  0
   -5.3348   -0.9701    1.5547 C   0  0  0  0  0  0  0  0  0  0  0  0
   -5.5167   -0.1309    0.4673 C   0  0  0  0  0  0  0  0  0  0  0  0
   -4.4510    0.3342   -0.2335 C   0  0  0  0  0  0  0  0  0  0  0  0
   -4.6676    1.2457   -1.4129 C   0  0  0  0  0  0  0  0  0  0  0  0
    0.1552    0.9859   -1.4771 C   0  0  0  0  0  0  0  0  0  0  0  0
   -0.1264    1.8101   -2.5371 C   0  0  0  0  0  0  0  0  0  0  0  0
    1.0153    2.1900   -3.1324 N   0  0  0  0  0  0  0  0  0  0  0  0
    1.9976    1.5978   -2.4361 C   0  0  0  0  0  0  0  0  0  0  0  0
    1.4851    0.8609   -1.4244 N   0  0  0  0  0  0  0  0  0  0  0  0
    5.8525   -0.4966   -1.2905 H   0  0  0  0  0  0  0  0  0  0  0  0
    7.2543   -0.8117   -0.2492 H   0  0  0  0  0  0  0  0  0  0  0  0
    6.3909    0.7407   -0.0470 H   0  0  0  0  0  0  0  0  0  0  0  0
    5.7922   -1.5762    1.4189 H   0  0  0  0  0  0  0  0  0  0  0  0
    4.0162    0.4479   -1.0935 H   0  0  0  0  0  0  0  0  0  0  0  0
    1.1748   -1.8506    2.1668 H   0  0  0  0  0  0  0  0  0  0  0  0
   -2.3708    1.1760   -1.5153 H   0  0  0  0  0  0  0  0  0  0  0  0
   -1.9461   -1.1378    1.4901 H   0  0  0  0  0  0  0  0  0  0  0  0
   -3.8560   -1.9640    2.7362 H   0  0  0  0  0  0  0  0  0  0  0  0
   -6.1867   -1.3381    2.1099 H   0  0  0  0  0  0  0  0  0  0  0  0
   -6.5569    0.1377    0.2018 H   0  0  0  0  0  0  0  0  0  0  0  0
   -4.1082    2.1934   -1.1888 H   0  0  0  0  0  0  0  0  0  0  0  0
   -4.2269    0.7901   -2.3188 H   0  0  0  0  0  0  0  0  0  0  0  0
   -5.7160    1.5222   -1.5097 H   0  0  0  0  0  0  0  0  0  0  0  0
   -1.1214    2.1140   -2.8533 H   0  0  0  0  0  0  0  0  0  0  0  0
    3.0628    1.6638   -2.6122 H   0  0  0  0  0  0  0  0  0  0  0  0
  1  2  1  0
  2  3  1  0
  3  4  2  0
  4  5  1  0
  5  6  2  0
  6  7  1  0
  7  8  2  0
  8  9  1  0
  6 10  1  0
 10 11  2  0
 11 12  1  0
 12 13  1  0
 13 14  2  0
 14 15  1  0
 15 16  2  0
 16 17  1  0
 17 18  2  0
 18 19  1  0
 11 20  1  0
 20 21  2  0
 21 22  1  0
 22 23  2  0
 23 24  1  0
  8  3  1  0
 18 13  1  0
 24 20  1  0
 24  5  1  0
  1 25  1  0
  1 26  1  0
  1 27  1  0
  2 28  1  0
  4 29  1  0
  7 30  1  0
 12 31  1  0
 14 32  1  0
 15 33  1  0
 16 34  1  0
 17 35  1  0
 19 36  1  0
 19 37  1  0
 19 38  1  0
 21 39  1  0
 23 40  1  0
M  END
$$$$
[H]c1nc2c([H])c(OC([H])([H])[H])c(OC([H])([H])[H])c([H])c2c(Oc2c([H])c([H])c3c(C(=O)N([H])[H])c([H])c([H])c([H])c3c2[H])c1[H]
     RDKit          3D

 46 49  0  0  0  0  0  0  0  0999 V2000
    7.2934    1.3164    0.9879 C   0  0  0  0  0  0  0  0  0  0  0  0
    6.4847    0.7260    0.0154 O   0  0  0  0  0  0  0  0  0  0  0  0
    5.1001    0.6307    0.1186 C   0  0  0  0  0  0  0  0  0  0  0  0
    4.4525    1.1359    1.2285 C   0  0  0  0  0  0  0  0  0  0  0  0
    3.0780    1.0732    1.3925 C   0  0  0  0  0  0  0  0  0  0  0  0
    2.4611    1.5689    2.4777 N   0  0  0  0  0  0  0  0  0  0  0  0
    1.1258    1.5053    2.6318 C   0  0  0  0  0  0  0  0  0  0  0  0
    0.3597    0.9143    1.6493 C   0  0  0  0  0  0  0  0  0  0  0  0
    0.9933    0.4054    0.5352 C   0  0  0  0  0  0  0  0  0  0  0  0
    0.2896   -0.2087   -0.5048 O   0  0  0  0  0  0  0  0  0  0  0  0
   -1.0897   -0.2942   -0.3840 C   0  0  0  0  0  0  0  0  0  0  0  0
   -1.8751    0.7228   -0.8734 C   0  0  0  0  0  0  0  0  0  0  0  0
   -3.2801    0.6975   -0.7826 C   0  0  0  0  0  0  0  0  0  0  0  0
   -3.9140   -0.3488   -0.1989 C   0  0  0  0  0  0  0  0  0  0  0  0
   -5.3012   -0.3711   -0.1183 C   0  0  0  0  0  0  0  0  0  0  0  0
   -5.9215   -1.4815    0.4872 C   0  0  0  0  0  0  0  0  0  0  0  0
   -5.1470   -2.5007    0.9772 C   0  0  0  0  0  0  0  0  0  0  0  0
   -3.7749   -2.4545    0.8861 C   0  0  0  0  0  0  0  0  0  0  0  0
   -3.1397   -1.3777    0.2968 C   0  0  0  0  0  0  0  0  0  0  0  0
   -1.7532   -1.3469    0.2040 C   0  0  0  0  0  0  0  0  0  0  0  0
   -6.1831    0.6651   -0.5722 C   0  0  0  0  0  0  0  0  0  0  0  0
   -7.5939    0.4166   -0.5907 N   0  0  0  0  0  0  0  0  0  0  0  0
   -5.8468    1.7823   -0.9620 O   0  0  0  0  0  0  0  0  0  0  0  0
    2.3690    0.4701    0.3749 C   0  0  0  0  0  0  0  0  0  0  0  0
    3.0028   -0.0389   -0.7396 C   0  0  0  0  0  0  0  0  0  0  0  0
    4.3717    0.0315   -0.8876 C   0  0  0  0  0  0  0  0  0  0  0  0
    5.0186   -0.4754   -2.0005 O   0  0  0  0  0  0  0  0  0  0  0  0
    4.3569   -1.1000   -3.0689 C   0  0  0  0  0  0  0  0  0  0  0  0
    7.0981    2.4006    1.1199 H   0  0  0  0  0  0  0  0  0  0  0  0
    8.3618    1.1332    0.6709 H   0  0  0  0  0  0  0  0  0  0  0  0
    7.1981    0.8306    1.9865 H   0  0  0  0  0  0  0  0  0  0  0  0
    5.0228    1.6115    2.0286 H   0  0  0  0  0  0  0  0  0  0  0  0
    0.6354    1.9173    3.5290 H   0  0  0  0  0  0  0  0  0  0  0  0
   -0.7159    0.8419    1.7324 H   0  0  0  0  0  0  0  0  0  0  0  0
   -1.4150    1.5788   -1.3473 H   0  0  0  0  0  0  0  0  0  0  0  0
   -3.8273    1.5221   -1.1953 H   0  0  0  0  0  0  0  0  0  0  0  0
   -7.0064   -1.5146    0.5586 H   0  0  0  0  0  0  0  0  0  0  0  0
   -5.6328   -3.3644    1.4483 H   0  0  0  0  0  0  0  0  0  0  0  0
   -3.1589   -3.2483    1.2676 H   0  0  0  0  0  0  0  0  0  0  0  0
   -1.1780   -2.1616    0.5989 H   0  0  0  0  0  0  0  0  0  0  0  0
   -8.0549   -0.3098   -1.1713 H   0  0  0  0  0  0  0  0  0  0  0  0
   -8.1885    1.0081    0.0214 H   0  0  0  0  0  0  0  0  0  0  0  0
    2.3779   -0.4971   -1.4952 H   0  0  0  0  0  0  0  0  0  0  0  0
    5.0285   -1.8263   -3.6070 H   0  0  0  0  0  0  0  0  0  0  0  0
    4.0609   -0.3115   -3.7959 H   0  0  0  0  0  0  0  0  0  0  0  0
    3.4571   -1.6744   -2.7606 H   0  0  0  0  0  0  0  0  0  0  0  0
  1  2  1  0
  2  3  1  0
  3  4  2  0
  4  5  1  0
  5  6  2  0
  6  7  1  0
  7  8  2  0
  8  9  1  0
  9 10  1  0
 10 11  1  0
 11 12  2  0
 12 13  1  0
 13 14  2  0
 14 15  1  0
 15 16  2  0
 16 17  1  0
 17 18  2  0
 18 19  1  0
 19 20  2  0
 15 21  1  0
 21 22  1  0
 21 23  2  0
  9 24  2  0
 24 25  1  0
 25 26  2  0
 26 27  1  0
 27 28  1  0
 26  3  1  0
 24  5  1  0
 20 11  1  0
 19 14  1  0
  1 29  1  0
  1 30  1  0
  1 31  1  0
  4 32  1  0
  7 33  1  0
  8 34  1  0
 12 35  1  0
 13 36  1  0
 16 37  1  0
 17 38  1  0
 18 39  1  0
 20 40  1  0
 22 41  1  0
 22 42  1  0
 25 43  1  0
 28 44  1  0
 28 45  1  0
 28 46  1  0
M  END
$$$$
[H]c1nc(N([H])[H])c([H])c(-n2c(N([H])c3c([H])c(C(=O)N([H])c4c([H])c(-n5c([H])nc(C([H])([H])[H])c5[H])c([H])c(C(F)(F)F)c4[H])c([H])c([H])c3C([H])([H])[H])nc3c([H])c([H])c([H])c([H])c32)n1
     RDKit          3D

 67 72  0  0  0  0  0  0  0  0999 V2000
    9.8852   -0.5595    0.3285 C   0  0  0  0  0  0  0  0  0  0  0  0
    8.6816   -0.3330   -0.5116 C   0  0  0  0  0  0  0  0  0  0  0  0
    7.4204   -0.8335   -0.3078 C   0  0  0  0  0  0  0  0  0  0  0  0
    6.5905   -0.3915   -1.3141 N   0  0  0  0  0  0  0  0  0  0  0  0
    7.3488    0.3500   -2.0888 C   0  0  0  0  0  0  0  0  0  0  0  0
    8.6326    0.4068   -1.6244 N   0  0  0  0  0  0  0  0  0  0  0  0
    5.2237   -0.7428   -1.3490 C   0  0  0  0  0  0  0  0  0  0  0  0
    4.2033    0.1160   -0.9442 C   0  0  0  0  0  0  0  0  0  0  0  0
    2.8885   -0.2745   -0.8543 C   0  0  0  0  0  0  0  0  0  0  0  0
    1.8613    0.5159   -0.3322 N   0  0  0  0  0  0  0  0  0  0  0  0
    1.7124    1.9098   -0.1869 C   0  0  0  0  0  0  0  0  0  0  0  0
    2.5785    2.6746   -0.6271 O   0  0  0  0  0  0  0  0  0  0  0  0
    0.5149    2.3978    0.5143 C   0  0  0  0  0  0  0  0  0  0  0  0
    0.6980    3.1792    1.6734 C   0  0  0  0  0  0  0  0  0  0  0  0
   -0.3403    3.4804    2.5246 C   0  0  0  0  0  0  0  0  0  0  0  0
   -1.6170    3.0378    2.2926 C   0  0  0  0  0  0  0  0  0  0  0  0
   -2.7675    3.3799    3.2165 C   0  0  0  0  0  0  0  0  0  0  0  0
   -1.8191    2.2651    1.1454 C   0  0  0  0  0  0  0  0  0  0  0  0
   -3.0206    1.5719    0.9967 N   0  0  0  0  0  0  0  0  0  0  0  0
   -3.7780    1.2701   -0.1556 C   0  0  0  0  0  0  0  0  0  0  0  0
   -3.8910    1.8452   -1.3625 N   0  0  0  0  0  0  0  0  0  0  0  0
   -4.6925    1.1472   -2.2105 C   0  0  0  0  0  0  0  0  0  0  0  0
   -5.1318    1.3188   -3.4969 C   0  0  0  0  0  0  0  0  0  0  0  0
   -5.9780    0.4524   -4.1197 C   0  0  0  0  0  0  0  0  0  0  0  0
   -6.3992   -0.6594   -3.3853 C   0  0  0  0  0  0  0  0  0  0  0  0
   -5.9612   -0.8379   -2.0920 C   0  0  0  0  0  0  0  0  0  0  0  0
   -5.0994    0.0400   -1.4400 C   0  0  0  0  0  0  0  0  0  0  0  0
   -4.5515    0.1339   -0.2447 N   0  0  0  0  0  0  0  0  0  0  0  0
   -4.6400   -0.8105    0.8187 C   0  0  0  0  0  0  0  0  0  0  0  0
   -5.5862   -0.8712    1.8008 C   0  0  0  0  0  0  0  0  0  0  0  0
   -5.5839   -1.8412    2.7841 C   0  0  0  0  0  0  0  0  0  0  0  0
   -6.5775   -1.9110    3.8125 N   0  0  0  0  0  0  0  0  0  0  0  0
   -4.5969   -2.7514    2.7535 N   0  0  0  0  0  0  0  0  0  0  0  0
   -3.6297   -2.7160    1.7843 C   0  0  0  0  0  0  0  0  0  0  0  0
   -3.6522   -1.7749    0.8478 N   0  0  0  0  0  0  0  0  0  0  0  0
   -0.7557    1.9661    0.2824 C   0  0  0  0  0  0  0  0  0  0  0  0
    2.5883   -1.5902   -1.1941 C   0  0  0  0  0  0  0  0  0  0  0  0
    3.5795   -2.4609   -1.6003 C   0  0  0  0  0  0  0  0  0  0  0  0
    4.8778   -2.0440   -1.6781 C   0  0  0  0  0  0  0  0  0  0  0  0
    3.2567   -3.8750   -1.9196 C   0  0  0  0  0  0  0  0  0  0  0  0
    1.9010   -4.0739   -1.9415 F   0  0  0  0  0  0  0  0  0  0  0  0
    3.7839   -4.6578   -0.8895 F   0  0  0  0  0  0  0  0  0  0  0  0
    3.8071   -4.2004   -3.1156 F   0  0  0  0  0  0  0  0  0  0  0  0
   10.7667   -0.8974   -0.2380 H   0  0  0  0  0  0  0  0  0  0  0  0
   10.1687    0.3003    0.9493 H   0  0  0  0  0  0  0  0  0  0  0  0
    9.6635   -1.3886    1.0669 H   0  0  0  0  0  0  0  0  0  0  0  0
    7.1097   -1.4578    0.4860 H   0  0  0  0  0  0  0  0  0  0  0  0
    7.0468    0.8805   -2.9928 H   0  0  0  0  0  0  0  0  0  0  0  0
    4.4795    1.1087   -0.7036 H   0  0  0  0  0  0  0  0  0  0  0  0
    0.9837   -0.0307    0.0457 H   0  0  0  0  0  0  0  0  0  0  0  0
    1.7336    3.5205    1.8520 H   0  0  0  0  0  0  0  0  0  0  0  0
   -0.1465    4.0822    3.4364 H   0  0  0  0  0  0  0  0  0  0  0  0
   -2.3375    3.8210    4.1690 H   0  0  0  0  0  0  0  0  0  0  0  0
   -3.2903    2.4772    3.5365 H   0  0  0  0  0  0  0  0  0  0  0  0
   -3.3917    4.1977    2.8103 H   0  0  0  0  0  0  0  0  0  0  0  0
   -3.4109    1.2163    1.9663 H   0  0  0  0  0  0  0  0  0  0  0  0
   -4.8034    2.1858   -4.0434 H   0  0  0  0  0  0  0  0  0  0  0  0
   -6.3126    0.6164   -5.1447 H   0  0  0  0  0  0  0  0  0  0  0  0
   -7.0773   -1.3628   -3.8814 H   0  0  0  0  0  0  0  0  0  0  0  0
   -6.2596   -1.7011   -1.5015 H   0  0  0  0  0  0  0  0  0  0  0  0
   -6.3623   -0.1225    1.8085 H   0  0  0  0  0  0  0  0  0  0  0  0
   -7.5956   -1.9850    3.5799 H   0  0  0  0  0  0  0  0  0  0  0  0
   -6.3313   -1.8926    4.8325 H   0  0  0  0  0  0  0  0  0  0  0  0
   -2.8579   -3.4997    1.8503 H   0  0  0  0  0  0  0  0  0  0  0  0
   -0.9472    1.3579   -0.6098 H   0  0  0  0  0  0  0  0  0  0  0  0
    1.5646   -1.9433   -1.1603 H   0  0  0  0  0  0  0  0  0  0  0  0
    5.6422   -2.7312   -1.9924 H   0  0  0  0  0  0  0  0  0  0  0  0
  1  2  1  0
  2  3  2  0
  3  4  1  0
  4  5  1  0
  5  6  2  0
  4  7  1  0
  7  8  2  0
  8  9  1  0
  9 10  1  0
 10 11  1  0
 11 12  2  0
 11 13  1  0
 13 14  2  0
 14 15  1  0
 15 16  2  0
 16 17  1  0
 16 18  1  0
 18 19  1  0
 19 20  1  0
 20 21  2  0
 21 22  1  0
 22 23  2  0
 23 24  1  0
 24 25  2  0
 25 26  1  0
 26 27  2  0
 27 28  1  0
 28 29  1  0
 29 30  2  0
 30 31  1  0
 31 32  1  0
 31 33  2  0
 33 34  1  0
 34 35  2  0
 18 36  2  0
  9 37  2  0
 37 38  1  0
 38 39  2  0
 38 40  1  0
 40 41  1  0
 40 42  1  0
 40 43  1  0
  6  2  1  0
 39  7  1  0
 36 13  1  0
 28 20  1  0
 35 29  1  0
 27 22  1  0
  1 44  1  0
  1 45  1  0
  1 46  1  0
  3 47  1  0
  5 48  1  0
  8 49  1  0
 10 50  1  0
 14 51  1  0
 15 52  1  0
 17 53  1  0
 17 54  1  0
 17 55  1  0
 19 56  1  0
 23 57  1  0
 24 58  1  0
 25 59  1  0
 26 60  1  0
 30 61  1  0
 32 62  1  0
 32 63  1  0
 34 64  1  0
 36 65  1  0
 37 66  1  0
 39 67  1  0
M  END
$$$$
[H]c1nc(N([H])[H])c2c(-c3c([H])c([H])c(Oc4c([H])c([H])c([H])c([H])c4[H])c([H])c3[H])c([H])n([C@]3([H])C([H])([H])C([H])([H])[C@]([H])(N4C([H])([H])C([H])([H])N(C([H])([H])[H])C([H])([H])C4([H])[H])C([H])([H])C3([H])[H])c2n1
     RDKit          3D

 70 75  0  0  0  0  0  0  0  0999 V2000
    8.0380    1.6994    0.8606 C   0  0  0  0  0  0  0  0  0  0  0  0
    8.3430    0.6161   -0.0368 N   0  0  0  0  0  0  0  0  0  0  0  0
    7.7378    0.8164   -1.3399 C   0  0  0  0  0  0  0  0  0  0  0  0
    6.2501    0.9242   -1.1227 C   0  0  0  0  0  0  0  0  0  0  0  0
    5.7431   -0.3030   -0.6228 N   0  0  0  0  0  0  0  0  0  0  0  0
    6.4590   -0.8744    0.4750 C   0  0  0  0  0  0  0  0  0  0  0  0
    7.9360   -0.6711    0.4351 C   0  0  0  0  0  0  0  0  0  0  0  0
    4.3404   -0.3749   -0.4171 C   0  0  1  0  0  0  0  0  0  0  0  0
    3.8123    0.5935    0.6096 C   0  0  0  0  0  0  0  0  0  0  0  0
    2.5248    0.0107    1.1557 C   0  0  0  0  0  0  0  0  0  0  0  0
    1.7488   -0.7048    0.0751 C   0  0  2  0  0  0  0  0  0  0  0  0
    2.0445   -0.0447   -1.2296 C   0  0  0  0  0  0  0  0  0  0  0  0
    3.4943   -0.2518   -1.6457 C   0  0  0  0  0  0  0  0  0  0  0  0
    0.3257   -0.6995    0.3287 N   0  0  0  0  0  0  0  0  0  0  0  0
   -0.6628    0.0506   -0.1590 C   0  0  0  0  0  0  0  0  0  0  0  0
   -1.8826   -0.3187    0.3921 C   0  0  0  0  0  0  0  0  0  0  0  0
   -3.1762    0.2947    0.1407 C   0  0  0  0  0  0  0  0  0  0  0  0
   -3.9284    0.9383    1.0985 C   0  0  0  0  0  0  0  0  0  0  0  0
   -5.1656    1.5047    0.8325 C   0  0  0  0  0  0  0  0  0  0  0  0
   -5.7125    1.4492   -0.4308 C   0  0  0  0  0  0  0  0  0  0  0  0
   -6.9376    1.9944   -0.7530 O   0  0  0  0  0  0  0  0  0  0  0  0
   -8.1408    1.3316   -0.6703 C   0  0  0  0  0  0  0  0  0  0  0  0
   -8.2497    0.0325   -0.2542 C   0  0  0  0  0  0  0  0  0  0  0  0
   -9.4918   -0.5547   -0.2003 C   0  0  0  0  0  0  0  0  0  0  0  0
  -10.6527    0.0968   -0.5461 C   0  0  0  0  0  0  0  0  0  0  0  0
  -10.5081    1.4116   -0.9634 C   0  0  0  0  0  0  0  0  0  0  0  0
   -9.2765    2.0169   -1.0243 C   0  0  0  0  0  0  0  0  0  0  0  0
   -4.9773    0.8097   -1.4073 C   0  0  0  0  0  0  0  0  0  0  0  0
   -3.7494    0.2485   -1.1397 C   0  0  0  0  0  0  0  0  0  0  0  0
   -1.6312   -1.3480    1.2606 C   0  0  0  0  0  0  0  0  0  0  0  0
   -2.4265   -2.1310    2.0862 C   0  0  0  0  0  0  0  0  0  0  0  0
   -3.8277   -1.9758    2.1651 N   0  0  0  0  0  0  0  0  0  0  0  0
   -1.8683   -3.0983    2.8346 N   0  0  0  0  0  0  0  0  0  0  0  0
   -0.5368   -3.3006    2.7758 C   0  0  0  0  0  0  0  0  0  0  0  0
    0.2465   -2.5473    1.9763 N   0  0  0  0  0  0  0  0  0  0  0  0
   -0.2498   -1.5646    1.2029 C   0  0  0  0  0  0  0  0  0  0  0  0
    7.8991    2.6663    0.3210 H   0  0  0  0  0  0  0  0  0  0  0  0
    8.8809    1.8947    1.5766 H   0  0  0  0  0  0  0  0  0  0  0  0
    7.0995    1.4369    1.4103 H   0  0  0  0  0  0  0  0  0  0  0  0
    7.9373   -0.1241   -1.9325 H   0  0  0  0  0  0  0  0  0  0  0  0
    8.1447    1.7103   -1.8474 H   0  0  0  0  0  0  0  0  0  0  0  0
    5.7977    1.1105   -2.1205 H   0  0  0  0  0  0  0  0  0  0  0  0
    6.0255    1.7780   -0.4778 H   0  0  0  0  0  0  0  0  0  0  0  0
    6.2631   -1.9675    0.4711 H   0  0  0  0  0  0  0  0  0  0  0  0
    6.0970   -0.5144    1.4713 H   0  0  0  0  0  0  0  0  0  0  0  0
    8.4484   -1.4456   -0.1694 H   0  0  0  0  0  0  0  0  0  0  0  0
    8.3543   -0.7866    1.4749 H   0  0  0  0  0  0  0  0  0  0  0  0
    4.1375   -1.4044    0.0030 H   0  0  0  0  0  0  0  0  0  0  0  0
    4.5351    0.8204    1.4059 H   0  0  0  0  0  0  0  0  0  0  0  0
    3.5413    1.5549    0.1126 H   0  0  0  0  0  0  0  0  0  0  0  0
    2.7566   -0.7390    1.9390 H   0  0  0  0  0  0  0  0  0  0  0  0
    1.9089    0.7990    1.6491 H   0  0  0  0  0  0  0  0  0  0  0  0
    2.1391   -1.7631    0.0002 H   0  0  0  0  0  0  0  0  0  0  0  0
    1.4213   -0.5693   -2.0090 H   0  0  0  0  0  0  0  0  0  0  0  0
    1.7746    1.0158   -1.1663 H   0  0  0  0  0  0  0  0  0  0  0  0
    3.6072   -1.1357   -2.3053 H   0  0  0  0  0  0  0  0  0  0  0  0
    3.7559    0.6317   -2.2706 H   0  0  0  0  0  0  0  0  0  0  0  0
   -0.5389    0.8305   -0.8764 H   0  0  0  0  0  0  0  0  0  0  0  0
   -3.5336    1.0151    2.1098 H   0  0  0  0  0  0  0  0  0  0  0  0
   -5.7523    2.0099    1.5939 H   0  0  0  0  0  0  0  0  0  0  0  0
   -7.3569   -0.5435    0.0363 H   0  0  0  0  0  0  0  0  0  0  0  0
   -9.5868   -1.5936    0.1316 H   0  0  0  0  0  0  0  0  0  0  0  0
  -11.6356   -0.3846   -0.4983 H   0  0  0  0  0  0  0  0  0  0  0  0
  -11.4022    1.9826   -1.2524 H   0  0  0  0  0  0  0  0  0  0  0  0
   -9.2138    3.0701   -1.3646 H   0  0  0  0  0  0  0  0  0  0  0  0
   -5.3959    0.7538   -2.4242 H   0  0  0  0  0  0  0  0  0  0  0  0
   -3.1569   -0.2631   -1.9112 H   0  0  0  0  0  0  0  0  0  0  0  0
   -4.4774   -2.1523    1.3497 H   0  0  0  0  0  0  0  0  0  0  0  0
   -4.3141   -1.6730    3.0476 H   0  0  0  0  0  0  0  0  0  0  0  0
   -0.1527   -4.0974    3.4060 H   0  0  0  0  0  0  0  0  0  0  0  0
  1  2  1  0
  2  3  1  0
  3  4  1  0
  4  5  1  0
  5  6  1  0
  6  7  1  0
  5  8  1  0
  8  9  1  0
  9 10  1  0
 10 11  1  0
 11 12  1  0
 12 13  1  0
 11 14  1  0
 14 15  1  0
 15 16  2  0
 16 17  1  0
 17 18  2  0
 18 19  1  0
 19 20  2  0
 20 21  1  0
 21 22  1  0
 22 23  2  0
 23 24  1  0
 24 25  2  0
 25 26  1  0
 26 27  2  0
 20 28  1  0
 28 29  2  0
 16 30  1  0
 30 31  2  0
 31 32  1  0
 31 33  1  0
 33 34  2  0
 34 35  1  0
 35 36  2  0
  7  2  1  0
 13  8  1  0
 36 14  1  0
 29 17  1  0
 36 30  1  0
 27 22  1  0
  1 37  1  0
  1 38  1  0
  1 39  1  0
  3 40  1  0
  3 41  1  0
  4 42  1  0
  4 43  1  0
  6 44  1  0
  6 45  1  0
  7 46  1  0
  7 47  1  0
  8 48  1  1
  9 49  1  0
  9 50  1  0
 10 51  1  0
 10 52  1  0
 11 53  1  6
 12 54  1  0
 12 55  1  0
 13 56  1  0
 13 57  1  0
 15 58  1  0
 18 59  1  0
 19 60  1  0
 23 61  1  0
 24 62  1  0
 25 63  1  0
 26 64  1  0
 27 65  1  0
 28 66  1  0
 29 67  1  0
 32 68  1  0
 32 69  1  0
 34 70  1  0
M  END
$$$$
[H]/C(C(=O)N(c1c([H])c([H])c2nc(N([H])c3c([H])c(N([H])C(=O)c4c([H])c([H])c([H])c(C(F)(F)F)c4[H])c([H])c([H])c3C([H])([H])[H])c3c([H])nc([H])n3c2c1[H])C([H])([H])[H])=C(/[H])C([H])([H])N(C([H])([H])[H])C([H])([H])[H]
     RDKit          3D

 74 78  0  0  0  0  0  0  0  0999 V2000
    9.3819   -1.9492    0.0042 C   0  0  0  0  0  0  0  0  0  0  0  0
    8.7323   -0.7352   -0.3478 N   0  0  0  0  0  0  0  0  0  0  0  0
    9.5076    0.2282   -1.1008 C   0  0  0  0  0  0  0  0  0  0  0  0
    7.9408   -0.1161    0.6524 C   0  0  0  0  0  0  0  0  0  0  0  0
    6.7044   -0.8381    0.9473 C   0  0  0  0  0  0  0  0  0  0  0  0
    6.2370   -1.9432    0.4211 C   0  0  0  0  0  0  0  0  0  0  0  0
    4.9513   -2.5442    0.8414 C   0  0  0  0  0  0  0  0  0  0  0  0
    4.5891   -3.5879    0.2516 O   0  0  0  0  0  0  0  0  0  0  0  0
    4.2214   -1.9049    1.8632 N   0  0  0  0  0  0  0  0  0  0  0  0
    4.6753   -1.9429    3.2268 C   0  0  0  0  0  0  0  0  0  0  0  0
    3.0198   -1.2585    1.5281 C   0  0  0  0  0  0  0  0  0  0  0  0
    1.8397   -1.2950    2.2249 C   0  0  0  0  0  0  0  0  0  0  0  0
    0.7245   -0.5826    1.8209 C   0  0  0  0  0  0  0  0  0  0  0  0
    0.7480    0.2062    0.6924 C   0  0  0  0  0  0  0  0  0  0  0  0
   -0.3053    0.9474    0.2906 N   0  0  0  0  0  0  0  0  0  0  0  0
   -0.2421    1.7508   -0.8151 C   0  0  0  0  0  0  0  0  0  0  0  0
   -1.2330    2.6558   -1.1961 N   0  0  0  0  0  0  0  0  0  0  0  0
   -2.5618    2.6895   -0.6910 C   0  0  0  0  0  0  0  0  0  0  0  0
   -3.2553    1.5473   -0.3410 C   0  0  0  0  0  0  0  0  0  0  0  0
   -4.5914    1.6583   -0.0270 C   0  0  0  0  0  0  0  0  0  0  0  0
   -5.3024    0.4139    0.2121 N   0  0  0  0  0  0  0  0  0  0  0  0
   -6.5443    0.2665   -0.5272 C   0  0  0  0  0  0  0  0  0  0  0  0
   -6.8649    1.2103   -1.2655 O   0  0  0  0  0  0  0  0  0  0  0  0
   -7.3082   -0.9380   -0.3548 C   0  0  0  0  0  0  0  0  0  0  0  0
   -6.8463   -2.1918   -0.1112 C   0  0  0  0  0  0  0  0  0  0  0  0
   -7.6322   -3.3120    0.0934 C   0  0  0  0  0  0  0  0  0  0  0  0
   -9.0028   -3.1109    0.0404 C   0  0  0  0  0  0  0  0  0  0  0  0
   -9.5608   -1.8723   -0.2029 C   0  0  0  0  0  0  0  0  0  0  0  0
   -8.7139   -0.8024   -0.3969 C   0  0  0  0  0  0  0  0  0  0  0  0
  -11.0260   -1.6321   -0.2404 C   0  0  0  0  0  0  0  0  0  0  0  0
  -11.3061   -0.4711    0.4554 F   0  0  0  0  0  0  0  0  0  0  0  0
  -11.4776   -1.5202   -1.5417 F   0  0  0  0  0  0  0  0  0  0  0  0
  -11.7252   -2.6551    0.3686 F   0  0  0  0  0  0  0  0  0  0  0  0
   -5.2164    2.8715   -0.0504 C   0  0  0  0  0  0  0  0  0  0  0  0
   -4.5200    4.0451   -0.4011 C   0  0  0  0  0  0  0  0  0  0  0  0
   -3.1896    3.9181   -0.7188 C   0  0  0  0  0  0  0  0  0  0  0  0
   -2.4213    5.1446   -1.0949 C   0  0  0  0  0  0  0  0  0  0  0  0
    0.9531    1.7898   -1.5375 C   0  0  0  0  0  0  0  0  0  0  0  0
    1.2797    2.5034   -2.7042 C   0  0  0  0  0  0  0  0  0  0  0  0
    2.5675    2.1574   -2.9720 N   0  0  0  0  0  0  0  0  0  0  0  0
    2.9923    1.2844   -2.0221 C   0  0  0  0  0  0  0  0  0  0  0  0
    1.9851    1.0610   -1.1419 N   0  0  0  0  0  0  0  0  0  0  0  0
    1.9429    0.2701   -0.0595 C   0  0  0  0  0  0  0  0  0  0  0  0
    2.9981   -0.4601    0.4046 C   0  0  0  0  0  0  0  0  0  0  0  0
    8.9968   -2.2380    1.0235 H   0  0  0  0  0  0  0  0  0  0  0  0
    9.1259   -2.7871   -0.6485 H   0  0  0  0  0  0  0  0  0  0  0  0
   10.4755   -1.8183    0.1788 H   0  0  0  0  0  0  0  0  0  0  0  0
    9.0258    0.2850   -2.1072 H   0  0  0  0  0  0  0  0  0  0  0  0
   10.5278   -0.1348   -1.2631 H   0  0  0  0  0  0  0  0  0  0  0  0
    9.4220    1.2546   -0.6770 H   0  0  0  0  0  0  0  0  0  0  0  0
    7.7359    0.9675    0.3956 H   0  0  0  0  0  0  0  0  0  0  0  0
    8.5201   -0.0452    1.6252 H   0  0  0  0  0  0  0  0  0  0  0  0
    6.0777   -0.3740    1.7379 H   0  0  0  0  0  0  0  0  0  0  0  0
    6.8203   -2.4033   -0.3540 H   0  0  0  0  0  0  0  0  0  0  0  0
    5.6970   -2.3986    3.2975 H   0  0  0  0  0  0  0  0  0  0  0  0
    4.6296   -0.9272    3.6664 H   0  0  0  0  0  0  0  0  0  0  0  0
    4.0363   -2.6297    3.8418 H   0  0  0  0  0  0  0  0  0  0  0  0
    1.7804   -1.8892    3.1226 H   0  0  0  0  0  0  0  0  0  0  0  0
   -0.1790   -0.6630    2.4279 H   0  0  0  0  0  0  0  0  0  0  0  0
   -0.9669    3.3956   -1.9362 H   0  0  0  0  0  0  0  0  0  0  0  0
   -2.7427    0.5777   -0.3162 H   0  0  0  0  0  0  0  0  0  0  0  0
   -4.9342   -0.2752    0.8583 H   0  0  0  0  0  0  0  0  0  0  0  0
   -5.7658   -2.3260   -0.0940 H   0  0  0  0  0  0  0  0  0  0  0  0
   -7.2323   -4.2870    0.2739 H   0  0  0  0  0  0  0  0  0  0  0  0
   -9.6791   -3.9371    0.2013 H   0  0  0  0  0  0  0  0  0  0  0  0
   -9.1272    0.1870   -0.5816 H   0  0  0  0  0  0  0  0  0  0  0  0
   -6.2395    2.9379    0.2182 H   0  0  0  0  0  0  0  0  0  0  0  0
   -5.0079    4.9967   -0.4057 H   0  0  0  0  0  0  0  0  0  0  0  0
   -1.4753    5.2526   -0.5331 H   0  0  0  0  0  0  0  0  0  0  0  0
   -2.1756    5.1392   -2.1684 H   0  0  0  0  0  0  0  0  0  0  0  0
   -3.0188    6.0602   -0.8288 H   0  0  0  0  0  0  0  0  0  0  0  0
    0.6178    3.1738   -3.2393 H   0  0  0  0  0  0  0  0  0  0  0  0
    4.0016    0.8142   -1.9618 H   0  0  0  0  0  0  0  0  0  0  0  0
    3.9092   -0.3626   -0.2314 H   0  0  0  0  0  0  0  0  0  0  0  0
  1  2  1  0
  2  3  1  0
  2  4  1  0
  4  5  1  0
  5  6  2  0
  6  7  1  0
  7  8  2  0
  7  9  1  0
  9 10  1  0
  9 11  1  0
 11 12  2  0
 12 13  1  0
 13 14  2  0
 14 15  1  0
 15 16  2  0
 16 17  1  0
 17 18  1  0
 18 19  2  0
 19 20  1  0
 20 21  1  0
 21 22  1  0
 22 23  2  0
 22 24  1  0
 24 25  2  0
 25 26  1  0
 26 27  2  0
 27 28  1  0
 28 29  2  0
 28 30  1  0
 30 31  1  0
 30 32  1  0
 30 33  1  0
 20 34  2  0
 34 35  1  0
 35 36  2  0
 36 37  1  0
 16 38  1  0
 38 39  2  0
 39 40  1  0
 40 41  2  0
 41 42  1  0
 42 43  1  0
 43 44  2  0
 44 11  1  0
 43 14  1  0
 36 18  1  0
 42 38  1  0
 29 24  1  0
  1 45  1  0
  1 46  1  0
  1 47  1  0
  3 48  1  0
  3 49  1  0
  3 50  1  0
  4 51  1  0
  4 52  1  0
  5 53  1  0
  6 54  1  0
 10 55  1  0
 10 56  1  0
 10 57  1  0
 12 58  1  0
 13 59  1  0
 17 60  1  0
 19 61  1  0
 21 62  1  0
 25 63  1  0
 26 64  1  0
 27 65  1  0
 29 66  1  0
 34 67  1  0
 35 68  1  0
 37 69  1  0
 37 70  1  0
 37 71  1  0
 39 72  1  0
 41 73  1  0
 44 74  1  0
M  END
$$$$
[H]Oc1c([H])c([H])c([H])c2c1C(=O)/C(=C(\[H])c1c([H])n(C([H])([H])[H])c3nc([H])c([H])c(-c4c([H])c([H])c(C(=O)N([H])C([H])([H])C([H])([H])O[H])c([H])c4[H])c13)O2
     RDKit          3D

 55 59  0  0  0  0  0  0  0  0999 V2000
   -4.3943    4.5941    0.3428 C   0  0  0  0  0  0  0  0  0  0  0  0
   -3.1704    3.7893    0.2291 N   0  0  0  0  0  0  0  0  0  0  0  0
   -3.0496    2.6555   -0.4517 C   0  0  0  0  0  0  0  0  0  0  0  0
   -1.7472    2.1491   -0.3514 C   0  0  0  0  0  0  0  0  0  0  0  0
   -1.2677    0.9423   -0.9911 C   0  0  0  0  0  0  0  0  0  0  0  0
   -2.0061   -0.1643   -1.0124 C   0  0  0  0  0  0  0  0  0  0  0  0
   -3.2571   -0.3379   -0.4708 O   0  0  0  0  0  0  0  0  0  0  0  0
   -3.7193   -1.6235   -0.6856 C   0  0  0  0  0  0  0  0  0  0  0  0
   -4.8834   -2.2788   -0.3494 C   0  0  0  0  0  0  0  0  0  0  0  0
   -5.1278   -3.6007   -0.6812 C   0  0  0  0  0  0  0  0  0  0  0  0
   -4.1704   -4.3148   -1.3834 C   0  0  0  0  0  0  0  0  0  0  0  0
   -2.9911   -3.6833   -1.7350 C   0  0  0  0  0  0  0  0  0  0  0  0
   -2.0759   -4.4501   -2.4350 O   0  0  0  0  0  0  0  0  0  0  0  0
   -2.7737   -2.3676   -1.3924 C   0  0  0  0  0  0  0  0  0  0  0  0
   -1.6605   -1.4572   -1.6175 C   0  0  0  0  0  0  0  0  0  0  0  0
   -0.5996   -1.7272   -2.2184 O   0  0  0  0  0  0  0  0  0  0  0  0
   -1.0575    3.0400    0.4408 C   0  0  0  0  0  0  0  0  0  0  0  0
    0.2267    3.0957    0.8824 C   0  0  0  0  0  0  0  0  0  0  0  0
    0.6027    4.1845    1.6772 C   0  0  0  0  0  0  0  0  0  0  0  0
   -0.3074    5.1492    1.9907 C   0  0  0  0  0  0  0  0  0  0  0  0
   -1.5584    5.0683    1.5476 N   0  0  0  0  0  0  0  0  0  0  0  0
   -1.9808    4.0504    0.7809 C   0  0  0  0  0  0  0  0  0  0  0  0
    1.1725    2.0280    0.6106 C   0  0  0  0  0  0  0  0  0  0  0  0
    1.0610    0.7850    1.2088 C   0  0  0  0  0  0  0  0  0  0  0  0
    1.9673   -0.2536    0.9581 C   0  0  0  0  0  0  0  0  0  0  0  0
    3.0131   -0.0732    0.0982 C   0  0  0  0  0  0  0  0  0  0  0  0
    3.1280    1.1814   -0.5074 C   0  0  0  0  0  0  0  0  0  0  0  0
    2.2377    2.1986   -0.2599 C   0  0  0  0  0  0  0  0  0  0  0  0
    4.0066   -1.1167   -0.2169 C   0  0  0  0  0  0  0  0  0  0  0  0
    4.9953   -0.8127   -0.9528 O   0  0  0  0  0  0  0  0  0  0  0  0
    3.9133   -2.4378    0.2589 N   0  0  0  0  0  0  0  0  0  0  0  0
    4.8211   -3.5034    0.0239 C   0  0  0  0  0  0  0  0  0  0  0  0
    6.2062   -3.3893    0.5392 C   0  0  0  0  0  0  0  0  0  0  0  0
    6.9717   -2.3431    0.0824 O   0  0  0  0  0  0  0  0  0  0  0  0
   -5.0419    4.3879   -0.5074 H   0  0  0  0  0  0  0  0  0  0  0  0
   -4.1257    5.6449    0.4925 H   0  0  0  0  0  0  0  0  0  0  0  0
   -4.9106    4.1858    1.2577 H   0  0  0  0  0  0  0  0  0  0  0  0
   -3.8046    2.1428   -1.0217 H   0  0  0  0  0  0  0  0  0  0  0  0
   -0.3212    0.8562   -1.4996 H   0  0  0  0  0  0  0  0  0  0  0  0
   -5.6461   -1.7384    0.2001 H   0  0  0  0  0  0  0  0  0  0  0  0
   -6.0411   -4.1122   -0.4162 H   0  0  0  0  0  0  0  0  0  0  0  0
   -4.3780   -5.3443   -1.6335 H   0  0  0  0  0  0  0  0  0  0  0  0
   -1.2067   -4.0284   -2.7092 H   0  0  0  0  0  0  0  0  0  0  0  0
    1.6288    4.1933    2.0051 H   0  0  0  0  0  0  0  0  0  0  0  0
    0.0303    5.9815    2.6136 H   0  0  0  0  0  0  0  0  0  0  0  0
    0.2310    0.6331    1.8947 H   0  0  0  0  0  0  0  0  0  0  0  0
    1.8179   -1.1994    1.4638 H   0  0  0  0  0  0  0  0  0  0  0  0
    3.9634    1.3247   -1.1944 H   0  0  0  0  0  0  0  0  0  0  0  0
    2.3318    3.1738   -0.7340 H   0  0  0  0  0  0  0  0  0  0  0  0
    3.0297   -2.6074    0.8671 H   0  0  0  0  0  0  0  0  0  0  0  0
    4.3539   -4.4474    0.4515 H   0  0  0  0  0  0  0  0  0  0  0  0
    4.8328   -3.6624   -1.1038 H   0  0  0  0  0  0  0  0  0  0  0  0
    6.7762   -4.3215    0.2193 H   0  0  0  0  0  0  0  0  0  0  0  0
    6.2591   -3.4475    1.6567 H   0  0  0  0  0  0  0  0  0  0  0  0
    7.6962   -2.5911   -0.5293 H   0  0  0  0  0  0  0  0  0  0  0  0
  1  2  1  0
  2  3  1  0
  3  4  2  0
  4  5  1  0
  5  6  2  0
  6  7  1  0
  7  8  1  0
  8  9  2  0
  9 10  1  0
 10 11  2  0
 11 12  1  0
 12 13  1  0
 12 14  2  0
 14 15  1  0
 15 16  2  0
  4 17  1  0
 17 18  2  0
 18 19  1  0
 19 20  2  0
 20 21  1  0
 21 22  2  0
 18 23  1  0
 23 24  2  0
 24 25  1  0
 25 26  2  0
 26 27  1  0
 27 28  2  0
 26 29  1  0
 29 30  2  0
 29 31  1  0
 31 32  1  0
 32 33  1  0
 33 34  1  0
 22  2  1  0
 28 23  1  0
 15  6  1  0
 22 17  1  0
 14  8  1  0
  1 35  1  0
  1 36  1  0
  1 37  1  0
  3 38  1  0
  5 39  1  0
  9 40  1  0
 10 41  1  0
 11 42  1  0
 13 43  1  0
 19 44  1  0
 20 45  1  0
 24 46  1  0
 25 47  1  0
 27 48  1  0
 28 49  1  0
 31 50  1  0
 32 51  1  0
 32 52  1  0
 33 53  1  0
 33 54  1  0
 34 55  1  0
M  END
$$$$
[H]O[C@]1([H])C([H])([H])C([H])([H])[C@@]([H])(n2nc(C#Cc3c([H])c(N([H])C(=O)c4c([H])c([H])c(C([H])([H])[H])c(C(F)(F)F)c4[H])c([H])c([H])c3C([H])([H])[H])c3c(N([H])[H])nc([H])nc32)C([H])([H])C1([H])[H]
     RDKit          3D

 67 71  0  0  0  0  0  0  0  0999 V2000
   -0.6331    3.9570    0.4914 C   0  0  0  0  0  0  0  0  0  0  0  0
    0.6761    3.2758    0.3301 C   0  0  0  0  0  0  0  0  0  0  0  0
    1.8403    4.0067    0.3751 C   0  0  0  0  0  0  0  0  0  0  0  0
    3.0469    3.3942    0.2287 C   0  0  0  0  0  0  0  0  0  0  0  0
    3.1203    2.0085    0.0300 C   0  0  0  0  0  0  0  0  0  0  0  0
    4.3790    1.4046   -0.1450 N   0  0  0  0  0  0  0  0  0  0  0  0
    4.6452    0.0531    0.0523 C   0  0  0  0  0  0  0  0  0  0  0  0
    3.8296   -0.8252    0.4182 O   0  0  0  0  0  0  0  0  0  0  0  0
    6.0248   -0.4356   -0.1840 C   0  0  0  0  0  0  0  0  0  0  0  0
    6.4075   -1.6321    0.3722 C   0  0  0  0  0  0  0  0  0  0  0  0
    7.6755   -2.1140    0.1664 C   0  0  0  0  0  0  0  0  0  0  0  0
    8.6240   -1.4483   -0.5913 C   0  0  0  0  0  0  0  0  0  0  0  0
    9.9881   -1.9982   -0.7935 C   0  0  0  0  0  0  0  0  0  0  0  0
    8.2118   -0.2460   -1.1395 C   0  0  0  0  0  0  0  0  0  0  0  0
    6.9319    0.2582   -0.9425 C   0  0  0  0  0  0  0  0  0  0  0  0
    9.1981    0.5107   -1.9649 C   0  0  0  0  0  0  0  0  0  0  0  0
    9.6093   -0.2334   -3.0442 F   0  0  0  0  0  0  0  0  0  0  0  0
   10.2272    0.9943   -1.1983 F   0  0  0  0  0  0  0  0  0  0  0  0
    8.5519    1.6343   -2.4845 F   0  0  0  0  0  0  0  0  0  0  0  0
    1.9437    1.3095   -0.0104 C   0  0  0  0  0  0  0  0  0  0  0  0
    0.6849    1.9155    0.1378 C   0  0  0  0  0  0  0  0  0  0  0  0
   -0.5288    1.1372    0.0873 C   0  0  0  0  0  0  0  0  0  0  0  0
   -1.5627    0.4995    0.0398 C   0  0  0  0  0  0  0  0  0  0  0  0
   -2.7952   -0.2305   -0.0172 C   0  0  0  0  0  0  0  0  0  0  0  0
   -3.9797    0.0657    0.5425 N   0  0  0  0  0  0  0  0  0  0  0  0
   -4.8906   -0.8525    0.2663 N   0  0  0  0  0  0  0  0  0  0  0  0
   -6.2871   -0.8774    0.6950 C   0  0  1  0  0  0  0  0  0  0  0  0
   -6.2941   -0.5393    2.1678 C   0  0  0  0  0  0  0  0  0  0  0  0
   -7.6568   -0.1763    2.6815 C   0  0  0  0  0  0  0  0  0  0  0  0
   -8.7556   -0.3868    1.6803 C   0  0  2  0  0  0  0  0  0  0  0  0
   -9.0703   -1.7439    1.5539 O   0  0  0  0  0  0  0  0  0  0  0  0
   -8.4770    0.2334    0.3414 C   0  0  0  0  0  0  0  0  0  0  0  0
   -7.0167    0.2374   -0.0198 C   0  0  0  0  0  0  0  0  0  0  0  0
   -4.2682   -1.7805   -0.5040 C   0  0  0  0  0  0  0  0  0  0  0  0
   -4.7077   -2.9105   -1.0608 N   0  0  0  0  0  0  0  0  0  0  0  0
   -3.8642   -3.6623   -1.7926 C   0  0  0  0  0  0  0  0  0  0  0  0
   -2.5766   -3.3181   -1.9902 N   0  0  0  0  0  0  0  0  0  0  0  0
   -2.0743   -2.1802   -1.4486 C   0  0  0  0  0  0  0  0  0  0  0  0
   -0.7241   -1.8190   -1.6561 N   0  0  0  0  0  0  0  0  0  0  0  0
   -2.9463   -1.4164   -0.7002 C   0  0  0  0  0  0  0  0  0  0  0  0
   -1.3702    3.5767   -0.2642 H   0  0  0  0  0  0  0  0  0  0  0  0
   -0.9957    3.7949    1.5347 H   0  0  0  0  0  0  0  0  0  0  0  0
   -0.4922    5.0320    0.2891 H   0  0  0  0  0  0  0  0  0  0  0  0
    1.8474    5.0855    0.5267 H   0  0  0  0  0  0  0  0  0  0  0  0
    3.9906    3.9226    0.2567 H   0  0  0  0  0  0  0  0  0  0  0  0
    5.1662    2.0503   -0.4492 H   0  0  0  0  0  0  0  0  0  0  0  0
    5.7123   -2.1965    0.9726 H   0  0  0  0  0  0  0  0  0  0  0  0
    7.9683   -3.0628    0.6117 H   0  0  0  0  0  0  0  0  0  0  0  0
   10.7386   -1.2978   -0.3933 H   0  0  0  0  0  0  0  0  0  0  0  0
   10.0290   -2.9625   -0.2057 H   0  0  0  0  0  0  0  0  0  0  0  0
   10.1850   -2.3196   -1.8377 H   0  0  0  0  0  0  0  0  0  0  0  0
    6.6762    1.2082   -1.4081 H   0  0  0  0  0  0  0  0  0  0  0  0
    1.9123    0.2400   -0.1751 H   0  0  0  0  0  0  0  0  0  0  0  0
   -6.6968   -1.8592    0.4605 H   0  0  0  0  0  0  0  0  0  0  0  0
   -5.6239    0.3401    2.2931 H   0  0  0  0  0  0  0  0  0  0  0  0
   -5.8294   -1.3814    2.7078 H   0  0  0  0  0  0  0  0  0  0  0  0
   -7.6817    0.8685    3.0661 H   0  0  0  0  0  0  0  0  0  0  0  0
   -7.8709   -0.8316    3.5517 H   0  0  0  0  0  0  0  0  0  0  0  0
   -9.6647    0.1052    2.0856 H   0  0  0  0  0  0  0  0  0  0  0  0
   -8.4688   -2.3228    2.0606 H   0  0  0  0  0  0  0  0  0  0  0  0
   -8.8704    1.2654    0.2395 H   0  0  0  0  0  0  0  0  0  0  0  0
   -9.0098   -0.3753   -0.4271 H   0  0  0  0  0  0  0  0  0  0  0  0
   -6.8755    0.1679   -1.1145 H   0  0  0  0  0  0  0  0  0  0  0  0
   -6.5888    1.2097    0.3111 H   0  0  0  0  0  0  0  0  0  0  0  0
   -4.2565   -4.5639   -2.2235 H   0  0  0  0  0  0  0  0  0  0  0  0
   -0.4104   -1.3297   -2.5113 H   0  0  0  0  0  0  0  0  0  0  0  0
   -0.0271   -2.0518   -0.9280 H   0  0  0  0  0  0  0  0  0  0  0  0
  1  2  1  0
  2  3  2  0
  3  4  1  0
  4  5  2  0
  5  6  1  0
  6  7  1  0
  7  8  2  0
  7  9  1  0
  9 10  2  0
 10 11  1  0
 11 12  2  0
 12 13  1  0
 12 14  1  0
 14 15  2  0
 14 16  1  0
 16 17  1  0
 16 18  1  0
 16 19  1  0
  5 20  1  0
 20 21  2  0
 21 22  1  0
 22 23  3  0
 23 24  1  0
 24 25  2  0
 25 26  1  0
 26 27  1  0
 27 28  1  0
 28 29  1  0
 29 30  1  0
 30 31  1  0
 30 32  1  0
 32 33  1  0
 26 34  1  0
 34 35  2  0
 35 36  1  0
 36 37  2  0
 37 38  1  0
 38 39  1  0
 38 40  2  0
 21  2  1  0
 40 24  1  0
 15  9  1  0
 33 27  1  0
 40 34  1  0
  1 41  1  0
  1 42  1  0
  1 43  1  0
  3 44  1  0
  4 45  1  0
  6 46  1  0
 10 47  1  0
 11 48  1  0
 13 49  1  0
 13 50  1  0
 13 51  1  0
 15 52  1  0
 20 53  1  0
 27 54  1  1
 28 55  1  0
 28 56  1  0
 29 57  1  0
 29 58  1  0
 30 59  1  1
 31 60  1  0
 32 61  1  0
 32 62  1  0
 33 63  1  0
 33 64  1  0
 36 65  1  0
 39 66  1  0
 39 67  1  0
M  END
$$$$
[H]c1nc(N([H])c2c([H])c(N([H])C(=O)c3c([H])c([H])c(C([H])([H])N4C([H])([H])C([H])([H])N(C([H])([H])[H])C([H])([H])C4([H])[H])c(Br)c3[H])c([H])c([H])c2C([H])([H])[H])nc(-c2c([H])nc([H])c([H])c2[H])c1[H]
     RDKit          3D

 68 72  0  0  0  0  0  0  0  0999 V2000
   -7.3697    4.1247   -1.1361 C   0  0  0  0  0  0  0  0  0  0  0  0
   -6.8098    2.8114   -1.4415 N   0  0  0  0  0  0  0  0  0  0  0  0
   -7.9282    1.8949   -1.5155 C   0  0  0  0  0  0  0  0  0  0  0  0
   -7.5517    0.4569   -1.6294 C   0  0  0  0  0  0  0  0  0  0  0  0
   -6.2350    0.1784   -1.0134 N   0  0  0  0  0  0  0  0  0  0  0  0
   -6.1904   -1.1940   -0.5748 C   0  0  0  0  0  0  0  0  0  0  0  0
   -4.8432   -1.6182   -0.1507 C   0  0  0  0  0  0  0  0  0  0  0  0
   -3.7167   -0.8417   -0.2320 C   0  0  0  0  0  0  0  0  0  0  0  0
   -2.4606   -1.2884    0.1499 C   0  0  0  0  0  0  0  0  0  0  0  0
   -2.3013   -2.5621    0.6356 C   0  0  0  0  0  0  0  0  0  0  0  0
   -3.4352   -3.3677    0.7255 C   0  0  0  0  0  0  0  0  0  0  0  0
   -4.6457   -2.9165    0.3505 C   0  0  0  0  0  0  0  0  0  0  0  0
   -6.2004   -4.0284    0.4766 Br  0  0  0  0  0  0  0  0  0  0  0  0
   -0.9969   -3.1022    1.0497 C   0  0  0  0  0  0  0  0  0  0  0  0
   -1.0230   -4.1245    1.7595 O   0  0  0  0  0  0  0  0  0  0  0  0
    0.1942   -2.4933    0.6606 N   0  0  0  0  0  0  0  0  0  0  0  0
    1.5185   -2.8997    0.9761 C   0  0  0  0  0  0  0  0  0  0  0  0
    1.8786   -4.1156    1.4814 C   0  0  0  0  0  0  0  0  0  0  0  0
    3.2122   -4.4197    1.7802 C   0  0  0  0  0  0  0  0  0  0  0  0
    4.1901   -3.4909    1.5674 C   0  0  0  0  0  0  0  0  0  0  0  0
    5.5915   -3.8070    1.8808 C   0  0  0  0  0  0  0  0  0  0  0  0
    3.8709   -2.2226    1.0476 C   0  0  0  0  0  0  0  0  0  0  0  0
    4.9436   -1.3411    0.8609 N   0  0  0  0  0  0  0  0  0  0  0  0
    4.9216   -0.0070    0.3782 C   0  0  0  0  0  0  0  0  0  0  0  0
    3.8482    0.6821    0.0025 N   0  0  0  0  0  0  0  0  0  0  0  0
    3.8273    1.9334   -0.4506 C   0  0  0  0  0  0  0  0  0  0  0  0
    5.0570    2.5974   -0.5437 C   0  0  0  0  0  0  0  0  0  0  0  0
    6.1991    1.9356   -0.1698 C   0  0  0  0  0  0  0  0  0  0  0  0
    6.1017    0.6816    0.2703 N   0  0  0  0  0  0  0  0  0  0  0  0
    7.5057    2.6023   -0.2575 C   0  0  0  0  0  0  0  0  0  0  0  0
    7.6800    3.8827   -0.6920 C   0  0  0  0  0  0  0  0  0  0  0  0
    8.9581    4.4597   -0.7539 C   0  0  0  0  0  0  0  0  0  0  0  0
   10.0575    3.7314   -0.3727 C   0  0  0  0  0  0  0  0  0  0  0  0
    9.8665    2.4717    0.0528 N   0  0  0  0  0  0  0  0  0  0  0  0
    8.6399    1.9004    0.1183 C   0  0  0  0  0  0  0  0  0  0  0  0
    2.5489   -1.9609    0.7666 C   0  0  0  0  0  0  0  0  0  0  0  0
   -6.1622    1.0933    0.1358 C   0  0  0  0  0  0  0  0  0  0  0  0
   -5.9039    2.4748   -0.3592 C   0  0  0  0  0  0  0  0  0  0  0  0
   -6.8015    4.8621   -1.7556 H   0  0  0  0  0  0  0  0  0  0  0  0
   -8.4485    4.1746   -1.4222 H   0  0  0  0  0  0  0  0  0  0  0  0
   -7.2074    4.3813   -0.0827 H   0  0  0  0  0  0  0  0  0  0  0  0
   -8.5171    2.1727   -2.4183 H   0  0  0  0  0  0  0  0  0  0  0  0
   -8.6068    2.0958   -0.6430 H   0  0  0  0  0  0  0  0  0  0  0  0
   -8.2695   -0.1501   -1.0409 H   0  0  0  0  0  0  0  0  0  0  0  0
   -7.5596    0.0600   -2.6581 H   0  0  0  0  0  0  0  0  0  0  0  0
   -6.8427   -1.2711    0.3428 H   0  0  0  0  0  0  0  0  0  0  0  0
   -6.5923   -1.9029   -1.2978 H   0  0  0  0  0  0  0  0  0  0  0  0
   -3.7877    0.1844   -0.6292 H   0  0  0  0  0  0  0  0  0  0  0  0
   -1.5926   -0.6160    0.0663 H   0  0  0  0  0  0  0  0  0  0  0  0
   -3.3028   -4.3800    1.1125 H   0  0  0  0  0  0  0  0  0  0  0  0
    0.0990   -1.6247    0.0442 H   0  0  0  0  0  0  0  0  0  0  0  0
    1.1252   -4.8720    1.6485 H   0  0  0  0  0  0  0  0  0  0  0  0
    3.4565   -5.3992    2.1815 H   0  0  0  0  0  0  0  0  0  0  0  0
    5.6624   -4.8149    2.3359 H   0  0  0  0  0  0  0  0  0  0  0  0
    6.2191   -3.8096    0.9560 H   0  0  0  0  0  0  0  0  0  0  0  0
    5.9888   -3.0999    2.6396 H   0  0  0  0  0  0  0  0  0  0  0  0
    5.9213   -1.6975    1.1066 H   0  0  0  0  0  0  0  0  0  0  0  0
    2.9136    2.4313   -0.7382 H   0  0  0  0  0  0  0  0  0  0  0  0
    5.0592    3.6031   -0.9054 H   0  0  0  0  0  0  0  0  0  0  0  0
    6.8246    4.4780   -0.9983 H   0  0  0  0  0  0  0  0  0  0  0  0
    9.0907    5.4721   -1.0981 H   0  0  0  0  0  0  0  0  0  0  0  0
   11.0747    4.1490   -0.4073 H   0  0  0  0  0  0  0  0  0  0  0  0
    8.5075    0.8820    0.4647 H   0  0  0  0  0  0  0  0  0  0  0  0
    2.2665   -1.0143    0.3731 H   0  0  0  0  0  0  0  0  0  0  0  0
   -5.4783    0.7571    0.8910 H   0  0  0  0  0  0  0  0  0  0  0  0
   -7.1881    1.0703    0.5714 H   0  0  0  0  0  0  0  0  0  0  0  0
   -5.9790    3.1806    0.4919 H   0  0  0  0  0  0  0  0  0  0  0  0
   -4.8723    2.5865   -0.7656 H   0  0  0  0  0  0  0  0  0  0  0  0
  1  2  1  0
  2  3  1  0
  3  4  1  0
  4  5  1  0
  5  6  1  0
  6  7  1  0
  7  8  2  0
  8  9  1  0
  9 10  2  0
 10 11  1  0
 11 12  2  0
 12 13  1  0
 10 14  1  0
 14 15  2  0
 14 16  1  0
 16 17  1  0
 17 18  2  0
 18 19  1  0
 19 20  2  0
 20 21  1  0
 20 22  1  0
 22 23  1  0
 23 24  1  0
 24 25  2  0
 25 26  1  0
 26 27  2  0
 27 28  1  0
 28 29  2  0
 28 30  1  0
 30 31  2  0
 31 32  1  0
 32 33  2  0
 33 34  1  0
 34 35  2  0
 22 36  2  0
  5 37  1  0
 37 38  1  0
 38  2  1  0
 12  7  1  0
 36 17  1  0
 29 24  1  0
 35 30  1  0
  1 39  1  0
  1 40  1  0
  1 41  1  0
  3 42  1  0
  3 43  1  0
  4 44  1  0
  4 45  1  0
  6 46  1  0
  6 47  1  0
  8 48  1  0
  9 49  1  0
 11 50  1  0
 16 51  1  0
 18 52  1  0
 19 53  1  0
 21 54  1  0
 21 55  1  0
 21 56  1  0
 23 57  1  0
 26 58  1  0
 27 59  1  0
 31 60  1  0
 32 61  1  0
 33 62  1  0
 35 63  1  0
 36 64  1  0
 37 65  1  0
 37 66  1  0
 38 67  1  0
 38 68  1  0
M  END
$$$$
[H]c1c([H])c(C([H])([H])[H])c(-n2c(=O)c3c([H])nc(N([H])c4c([H])c([H])c(N5C([H])([H])C([H])([H])N(C([H])([H])[H])C([H])([H])C5([H])[H])c([H])c4[H])nc3n3c4c([H])c([H])c([H])c([H])c4nc23)c(C([H])([H])[H])c1[H]
     RDKit          3D

 70 76  0  0  0  0  0  0  0  0999 V2000
    7.7951   -2.6029    0.0727 C   0  0  0  0  0  0  0  0  0  0  0  0
    8.1324   -1.5522    0.9812 N   0  0  0  0  0  0  0  0  0  0  0  0
    7.1885   -1.3270    2.0313 C   0  0  0  0  0  0  0  0  0  0  0  0
    5.8783   -0.7826    1.5760 C   0  0  0  0  0  0  0  0  0  0  0  0
    5.9407   -0.0394    0.3441 N   0  0  0  0  0  0  0  0  0  0  0  0
    7.1586    0.1041   -0.4451 C   0  0  0  0  0  0  0  0  0  0  0  0
    8.3841   -0.3201    0.3030 C   0  0  0  0  0  0  0  0  0  0  0  0
    4.7585    0.5885   -0.1303 C   0  0  0  0  0  0  0  0  0  0  0  0
    4.7405    1.2957   -1.3145 C   0  0  0  0  0  0  0  0  0  0  0  0
    3.5882    1.8980   -1.7581 C   0  0  0  0  0  0  0  0  0  0  0  0
    2.3753    1.8343   -1.0478 C   0  0  0  0  0  0  0  0  0  0  0  0
    1.2593    2.5001   -1.5395 N   0  0  0  0  0  0  0  0  0  0  0  0
   -0.1158    2.2244   -1.3550 C   0  0  0  0  0  0  0  0  0  0  0  0
   -1.0255    3.0781   -1.9268 N   0  0  0  0  0  0  0  0  0  0  0  0
   -2.3375    2.9454   -1.8681 C   0  0  0  0  0  0  0  0  0  0  0  0
   -2.8645    1.8859   -1.1935 C   0  0  0  0  0  0  0  0  0  0  0  0
   -1.9683    1.0054   -0.6061 C   0  0  0  0  0  0  0  0  0  0  0  0
   -0.6400    1.1858   -0.6944 N   0  0  0  0  0  0  0  0  0  0  0  0
   -2.5576   -0.0353    0.0553 N   0  0  0  0  0  0  0  0  0  0  0  0
   -3.8874   -0.1782    0.1254 C   0  0  0  0  0  0  0  0  0  0  0  0
   -4.1513   -1.3246    0.8537 N   0  0  0  0  0  0  0  0  0  0  0  0
   -3.0115   -1.8949    1.2352 C   0  0  0  0  0  0  0  0  0  0  0  0
   -2.6879   -3.0274    1.9558 C   0  0  0  0  0  0  0  0  0  0  0  0
   -1.3631   -3.3329    2.1621 C   0  0  0  0  0  0  0  0  0  0  0  0
   -0.3576   -2.5278    1.6614 C   0  0  0  0  0  0  0  0  0  0  0  0
   -0.6840   -1.3815    0.9324 C   0  0  0  0  0  0  0  0  0  0  0  0
   -2.0062   -1.0800    0.7298 C   0  0  0  0  0  0  0  0  0  0  0  0
   -4.7257    0.6956   -0.4548 N   0  0  0  0  0  0  0  0  0  0  0  0
   -6.1140    0.5064   -0.3551 C   0  0  0  0  0  0  0  0  0  0  0  0
   -6.7470    0.9954    0.7710 C   0  0  0  0  0  0  0  0  0  0  0  0
   -6.0362    1.7013    1.8626 C   0  0  0  0  0  0  0  0  0  0  0  0
   -8.1127    0.7917    0.8369 C   0  0  0  0  0  0  0  0  0  0  0  0
   -8.8127    0.1406   -0.1557 C   0  0  0  0  0  0  0  0  0  0  0  0
   -8.1146   -0.3203   -1.2501 C   0  0  0  0  0  0  0  0  0  0  0  0
   -6.7488   -0.1547   -1.3878 C   0  0  0  0  0  0  0  0  0  0  0  0
   -6.0494   -0.6702   -2.5847 C   0  0  0  0  0  0  0  0  0  0  0  0
   -4.2311    1.7287   -1.1157 C   0  0  0  0  0  0  0  0  0  0  0  0
   -4.9738    2.6140   -1.7028 O   0  0  0  0  0  0  0  0  0  0  0  0
    2.4464    1.1195    0.1242 C   0  0  0  0  0  0  0  0  0  0  0  0
    3.5956    0.5107    0.5796 C   0  0  0  0  0  0  0  0  0  0  0  0
    8.4531   -3.4898    0.2983 H   0  0  0  0  0  0  0  0  0  0  0  0
    6.7529   -2.9775    0.1751 H   0  0  0  0  0  0  0  0  0  0  0  0
    7.9311   -2.3088   -0.9828 H   0  0  0  0  0  0  0  0  0  0  0  0
    7.0086   -2.3172    2.5387 H   0  0  0  0  0  0  0  0  0  0  0  0
    7.6797   -0.6601    2.7818 H   0  0  0  0  0  0  0  0  0  0  0  0
    5.5210   -0.0583    2.3616 H   0  0  0  0  0  0  0  0  0  0  0  0
    5.1608   -1.6198    1.4529 H   0  0  0  0  0  0  0  0  0  0  0  0
    7.3057    1.1991   -0.6818 H   0  0  0  0  0  0  0  0  0  0  0  0
    7.1094   -0.4884   -1.3880 H   0  0  0  0  0  0  0  0  0  0  0  0
    9.1891   -0.4901   -0.4469 H   0  0  0  0  0  0  0  0  0  0  0  0
    8.6787    0.4719    1.0271 H   0  0  0  0  0  0  0  0  0  0  0  0
    5.6635    1.3553   -1.8745 H   0  0  0  0  0  0  0  0  0  0  0  0
    3.5635    2.4539   -2.6840 H   0  0  0  0  0  0  0  0  0  0  0  0
    1.4695    3.3615   -2.1570 H   0  0  0  0  0  0  0  0  0  0  0  0
   -3.0363    3.6474   -2.3367 H   0  0  0  0  0  0  0  0  0  0  0  0
   -3.5055   -3.6336    2.3319 H   0  0  0  0  0  0  0  0  0  0  0  0
   -1.0912   -4.2203    2.7271 H   0  0  0  0  0  0  0  0  0  0  0  0
    0.6849   -2.7734    1.8266 H   0  0  0  0  0  0  0  0  0  0  0  0
    0.1421   -0.8137    0.5673 H   0  0  0  0  0  0  0  0  0  0  0  0
   -6.5276    1.3489    2.8201 H   0  0  0  0  0  0  0  0  0  0  0  0
   -4.9893    1.4579    1.9689 H   0  0  0  0  0  0  0  0  0  0  0  0
   -6.2581    2.8019    1.8577 H   0  0  0  0  0  0  0  0  0  0  0  0
   -8.6345    1.1727    1.7237 H   0  0  0  0  0  0  0  0  0  0  0  0
   -9.8733   -0.0022   -0.0755 H   0  0  0  0  0  0  0  0  0  0  0  0
   -8.6554   -0.8431   -2.0543 H   0  0  0  0  0  0  0  0  0  0  0  0
   -6.8131   -0.6933   -3.4168 H   0  0  0  0  0  0  0  0  0  0  0  0
   -5.2667    0.0188   -2.9652 H   0  0  0  0  0  0  0  0  0  0  0  0
   -5.7096   -1.7102   -2.5015 H   0  0  0  0  0  0  0  0  0  0  0  0
    1.5206    1.0640    0.7070 H   0  0  0  0  0  0  0  0  0  0  0  0
    3.6087   -0.0513    1.5214 H   0  0  0  0  0  0  0  0  0  0  0  0
  1  2  1  0
  2  3  1  0
  3  4  1  0
  4  5  1  0
  5  6  1  0
  6  7  1  0
  5  8  1  0
  8  9  2  0
  9 10  1  0
 10 11  2  0
 11 12  1  0
 12 13  1  0
 13 14  2  0
 14 15  1  0
 15 16  2  0
 16 17  1  0
 17 18  2  0
 17 19  1  0
 19 20  1  0
 20 21  2  0
 21 22  1  0
 22 23  2  0
 23 24  1  0
 24 25  2  0
 25 26  1  0
 26 27  2  0
 20 28  1  0
 28 29  1  0
 29 30  2  0
 30 31  1  0
 30 32  1  0
 32 33  2  0
 33 34  1  0
 34 35  2  0
 35 36  1  0
 28 37  1  0
 37 38  2  0
 11 39  1  0
 39 40  2  0
  7  2  1  0
 40  8  1  0
 18 13  1  0
 27 19  1  0
 35 29  1  0
 37 16  1  0
 27 22  1  0
  1 41  1  0
  1 42  1  0
  1 43  1  0
  3 44  1  0
  3 45  1  0
  4 46  1  0
  4 47  1  0
  6 48  1  0
  6 49  1  0
  7 50  1  0
  7 51  1  0
  9 52  1  0
 10 53  1  0
 12 54  1  0
 15 55  1  0
 23 56  1  0
 24 57  1  0
 25 58  1  0
 26 59  1  0
 31 60  1  0
 31 61  1  0
 31 62  1  0
 32 63  1  0
 33 64  1  0
 34 65  1  0
 36 66  1  0
 36 67  1  0
 36 68  1  0
 39 69  1  0
 40 70  1  0
M  END
$$$$
[H]c1nc(N([H])c2c([H])c([H])c([H])c(OC([H])([H])C(=O)N([H])C([H])([H])[H])c2[H])nc(N([H])c2c([H])c([H])c3c(c2[H])N([H])C(=O)C(F)(F)O3)c1F
     RDKit          3D

 51 54  0  0  0  0  0  0  0  0999 V2000
    7.5237   -0.4418   -1.9842 C   0  0  0  0  0  0  0  0  0  0  0  0
    6.7805    0.1600   -0.8614 N   0  0  0  0  0  0  0  0  0  0  0  0
    7.3843    0.3591    0.3817 C   0  0  0  0  0  0  0  0  0  0  0  0
    8.6086    0.0101    0.5150 O   0  0  0  0  0  0  0  0  0  0  0  0
    6.7024    0.9452    1.5308 C   0  0  0  0  0  0  0  0  0  0  0  0
    5.3361    1.0479    1.3435 O   0  0  0  0  0  0  0  0  0  0  0  0
    4.5016   -0.0248    1.2191 C   0  0  0  0  0  0  0  0  0  0  0  0
    4.9158   -1.3070    1.2935 C   0  0  0  0  0  0  0  0  0  0  0  0
    4.0037   -2.3494    1.1546 C   0  0  0  0  0  0  0  0  0  0  0  0
    2.6915   -2.0449    0.9440 C   0  0  0  0  0  0  0  0  0  0  0  0
    2.2025   -0.7295    0.8583 C   0  0  0  0  0  0  0  0  0  0  0  0
    0.8284   -0.5460    0.6091 N   0  0  0  0  0  0  0  0  0  0  0  0
    0.1113    0.6100    1.0023 C   0  0  0  0  0  0  0  0  0  0  0  0
    0.6108    1.6550    1.6606 N   0  0  0  0  0  0  0  0  0  0  0  0
   -0.0996    2.7422    2.0208 C   0  0  0  0  0  0  0  0  0  0  0  0
   -1.4334    2.7957    1.6956 C   0  0  0  0  0  0  0  0  0  0  0  0
   -2.1860    3.8539    2.0299 F   0  0  0  0  0  0  0  0  0  0  0  0
   -2.0208    1.7231    1.0003 C   0  0  0  0  0  0  0  0  0  0  0  0
   -3.3931    1.7783    0.6859 N   0  0  0  0  0  0  0  0  0  0  0  0
   -4.1909    0.8620   -0.0029 C   0  0  0  0  0  0  0  0  0  0  0  0
   -3.6867   -0.1185   -0.8187 C   0  0  0  0  0  0  0  0  0  0  0  0
   -4.5547   -1.0132   -1.4521 C   0  0  0  0  0  0  0  0  0  0  0  0
   -5.9158   -0.9579   -1.2955 C   0  0  0  0  0  0  0  0  0  0  0  0
   -6.7239   -1.8759   -1.9522 O   0  0  0  0  0  0  0  0  0  0  0  0
   -8.1013   -1.9938   -1.7703 C   0  0  0  0  0  0  0  0  0  0  0  0
   -8.3562   -3.2165   -1.1407 F   0  0  0  0  0  0  0  0  0  0  0  0
   -8.7166   -2.0004   -3.0239 F   0  0  0  0  0  0  0  0  0  0  0  0
   -8.6964   -0.8871   -1.0076 C   0  0  0  0  0  0  0  0  0  0  0  0
   -9.9201   -0.7345   -0.9222 O   0  0  0  0  0  0  0  0  0  0  0  0
   -7.8498    0.0629   -0.3294 N   0  0  0  0  0  0  0  0  0  0  0  0
   -6.4390    0.0192   -0.4816 C   0  0  0  0  0  0  0  0  0  0  0  0
   -5.5942    0.8942    0.1386 C   0  0  0  0  0  0  0  0  0  0  0  0
   -1.2185    0.7022    0.6977 N   0  0  0  0  0  0  0  0  0  0  0  0
    3.1468    0.2495    1.0016 C   0  0  0  0  0  0  0  0  0  0  0  0
    7.5800    0.3430   -2.7534 H   0  0  0  0  0  0  0  0  0  0  0  0
    6.9737   -1.3193   -2.3452 H   0  0  0  0  0  0  0  0  0  0  0  0
    8.5214   -0.7941   -1.6412 H   0  0  0  0  0  0  0  0  0  0  0  0
    5.8075    0.4332   -1.0564 H   0  0  0  0  0  0  0  0  0  0  0  0
    6.9040    0.3251    2.4641 H   0  0  0  0  0  0  0  0  0  0  0  0
    7.1544    1.9519    1.8089 H   0  0  0  0  0  0  0  0  0  0  0  0
    5.9468   -1.5689    1.4685 H   0  0  0  0  0  0  0  0  0  0  0  0
    4.3219   -3.3927    1.2115 H   0  0  0  0  0  0  0  0  0  0  0  0
    1.9485   -2.8519    0.8313 H   0  0  0  0  0  0  0  0  0  0  0  0
    0.3393   -1.3328    0.0963 H   0  0  0  0  0  0  0  0  0  0  0  0
    0.3406    3.5727    2.5554 H   0  0  0  0  0  0  0  0  0  0  0  0
   -3.9090    2.6589    1.0206 H   0  0  0  0  0  0  0  0  0  0  0  0
   -2.6244   -0.2376   -1.0180 H   0  0  0  0  0  0  0  0  0  0  0  0
   -4.1581   -1.7885   -2.0964 H   0  0  0  0  0  0  0  0  0  0  0  0
   -8.2707    0.7940    0.2821 H   0  0  0  0  0  0  0  0  0  0  0  0
   -5.9804    1.6771    0.7895 H   0  0  0  0  0  0  0  0  0  0  0  0
    2.8540    1.3002    0.9272 H   0  0  0  0  0  0  0  0  0  0  0  0
  1  2  1  0
  2  3  1  0
  3  4  2  0
  3  5  1  0
  5  6  1  0
  6  7  1  0
  7  8  2  0
  8  9  1  0
  9 10  2  0
 10 11  1  0
 11 12  1  0
 12 13  1  0
 13 14  2  0
 14 15  1  0
 15 16  2  0
 16 17  1  0
 16 18  1  0
 18 19  1  0
 19 20  1  0
 20 21  2  0
 21 22  1  0
 22 23  2  0
 23 24  1  0
 24 25  1  0
 25 26  1  0
 25 27  1  0
 25 28  1  0
 28 29  2  0
 28 30  1  0
 30 31  1  0
 31 32  2  0
 18 33  2  0
 11 34  2  0
 34  7  1  0
 33 13  1  0
 32 20  1  0
 31 23  1  0
  1 35  1  0
  1 36  1  0
  1 37  1  0
  2 38  1  0
  5 39  1  0
  5 40  1  0
  8 41  1  0
  9 42  1  0
 10 43  1  0
 12 44  1  0
 15 45  1  0
 19 46  1  0
 21 47  1  0
 22 48  1  0
 30 49  1  0
 32 50  1  0
 34 51  1  0
M  END
$$$$
[H]c1nc(N([H])c2c([H])c(N([H])C(=O)c3c([H])c([H])c(C([H])([H])N4C([H])([H])C([H])([H])N(C([H])([H])[H])C([H])([H])C4([H])[H])c(F)c3[H])c([H])c([H])c2C([H])([H])[H])nc(-c2c([H])nc([H])c([H])c2[H])c1[H]
     RDKit          3D

 68 72  0  0  0  0  0  0  0  0999 V2000
   -7.2458    4.2283   -1.0543 C   0  0  0  0  0  0  0  0  0  0  0  0
   -6.7265    2.8999   -1.3517 N   0  0  0  0  0  0  0  0  0  0  0  0
   -7.8783    2.0298   -1.4951 C   0  0  0  0  0  0  0  0  0  0  0  0
   -7.5422    0.5801   -1.6219 C   0  0  0  0  0  0  0  0  0  0  0  0
   -6.2365    0.2665   -0.9780 N   0  0  0  0  0  0  0  0  0  0  0  0
   -6.2324   -1.1298   -0.5975 C   0  0  0  0  0  0  0  0  0  0  0  0
   -4.8779   -1.5755   -0.1903 C   0  0  0  0  0  0  0  0  0  0  0  0
   -3.7421   -0.8146   -0.2475 C   0  0  0  0  0  0  0  0  0  0  0  0
   -2.4910   -1.2835    0.1121 C   0  0  0  0  0  0  0  0  0  0  0  0
   -2.3465   -2.5757    0.5531 C   0  0  0  0  0  0  0  0  0  0  0  0
   -3.4809   -3.3797    0.6237 C   0  0  0  0  0  0  0  0  0  0  0  0
   -4.7043   -2.8947    0.2638 C   0  0  0  0  0  0  0  0  0  0  0  0
   -5.8220   -3.6653    0.3266 F   0  0  0  0  0  0  0  0  0  0  0  0
   -1.0459   -3.1302    0.9413 C   0  0  0  0  0  0  0  0  0  0  0  0
   -1.0745   -4.1918    1.5992 O   0  0  0  0  0  0  0  0  0  0  0  0
    0.1530   -2.5163    0.6001 N   0  0  0  0  0  0  0  0  0  0  0  0
    1.4797   -2.9271    0.8954 C   0  0  0  0  0  0  0  0  0  0  0  0
    1.8405   -4.1615    1.3670 C   0  0  0  0  0  0  0  0  0  0  0  0
    3.1551   -4.4916    1.6525 C   0  0  0  0  0  0  0  0  0  0  0  0
    4.1440   -3.5646    1.4629 C   0  0  0  0  0  0  0  0  0  0  0  0
    5.5445   -3.9173    1.7681 C   0  0  0  0  0  0  0  0  0  0  0  0
    3.8392   -2.2753    0.9793 C   0  0  0  0  0  0  0  0  0  0  0  0
    4.9271   -1.4118    0.8185 N   0  0  0  0  0  0  0  0  0  0  0  0
    4.9019   -0.0650    0.3819 C   0  0  0  0  0  0  0  0  0  0  0  0
    3.8353    0.6473    0.0408 N   0  0  0  0  0  0  0  0  0  0  0  0
    3.8153    1.9108   -0.3690 C   0  0  0  0  0  0  0  0  0  0  0  0
    5.0484    2.5697   -0.4528 C   0  0  0  0  0  0  0  0  0  0  0  0
    6.1943    1.8909   -0.1141 C   0  0  0  0  0  0  0  0  0  0  0  0
    6.0919    0.6186    0.2857 N   0  0  0  0  0  0  0  0  0  0  0  0
    7.5053    2.5459   -0.1919 C   0  0  0  0  0  0  0  0  0  0  0  0
    7.6974    3.8384   -0.5820 C   0  0  0  0  0  0  0  0  0  0  0  0
    8.9909    4.3871   -0.6317 C   0  0  0  0  0  0  0  0  0  0  0  0
   10.0792    3.6233   -0.2865 C   0  0  0  0  0  0  0  0  0  0  0  0
    9.8655    2.3538    0.0942 N   0  0  0  0  0  0  0  0  0  0  0  0
    8.6359    1.8131    0.1477 C   0  0  0  0  0  0  0  0  0  0  0  0
    2.5224   -1.9983    0.7120 C   0  0  0  0  0  0  0  0  0  0  0  0
   -6.1917    1.1152    0.2304 C   0  0  0  0  0  0  0  0  0  0  0  0
   -5.9045    2.5069   -0.2162 C   0  0  0  0  0  0  0  0  0  0  0  0
   -6.5593    4.9791   -1.5152 H   0  0  0  0  0  0  0  0  0  0  0  0
   -8.2366    4.3964   -1.5264 H   0  0  0  0  0  0  0  0  0  0  0  0
   -7.2512    4.3896    0.0296 H   0  0  0  0  0  0  0  0  0  0  0  0
   -8.4109    2.3464   -2.4181 H   0  0  0  0  0  0  0  0  0  0  0  0
   -8.5673    2.2357   -0.6485 H   0  0  0  0  0  0  0  0  0  0  0  0
   -8.2932   -0.0063   -1.0542 H   0  0  0  0  0  0  0  0  0  0  0  0
   -7.5681    0.2367   -2.6635 H   0  0  0  0  0  0  0  0  0  0  0  0
   -6.8865   -1.1963    0.3132 H   0  0  0  0  0  0  0  0  0  0  0  0
   -6.6131   -1.7926   -1.3723 H   0  0  0  0  0  0  0  0  0  0  0  0
   -3.8126    0.2179   -0.6093 H   0  0  0  0  0  0  0  0  0  0  0  0
   -1.6173   -0.6081    0.0444 H   0  0  0  0  0  0  0  0  0  0  0  0
   -3.3626   -4.4136    0.9766 H   0  0  0  0  0  0  0  0  0  0  0  0
    0.0734   -1.6181    0.0302 H   0  0  0  0  0  0  0  0  0  0  0  0
    1.0933   -4.9234    1.5218 H   0  0  0  0  0  0  0  0  0  0  0  0
    3.4201   -5.4817    2.0281 H   0  0  0  0  0  0  0  0  0  0  0  0
    5.6088   -4.9737    2.0947 H   0  0  0  0  0  0  0  0  0  0  0  0
    6.1913   -3.8012    0.8741 H   0  0  0  0  0  0  0  0  0  0  0  0
    5.9138   -3.3046    2.6189 H   0  0  0  0  0  0  0  0  0  0  0  0
    5.8989   -1.7898    1.0438 H   0  0  0  0  0  0  0  0  0  0  0  0
    2.9173    2.4412   -0.6341 H   0  0  0  0  0  0  0  0  0  0  0  0
    5.0808    3.5804   -0.7754 H   0  0  0  0  0  0  0  0  0  0  0  0
    6.8499    4.4430   -0.8534 H   0  0  0  0  0  0  0  0  0  0  0  0
    9.1204    5.4051   -0.9404 H   0  0  0  0  0  0  0  0  0  0  0  0
   11.1017    4.0265   -0.3172 H   0  0  0  0  0  0  0  0  0  0  0  0
    8.4892    0.7811    0.4599 H   0  0  0  0  0  0  0  0  0  0  0  0
    2.2511   -1.0409    0.3468 H   0  0  0  0  0  0  0  0  0  0  0  0
   -5.4791    0.7416    0.9274 H   0  0  0  0  0  0  0  0  0  0  0  0
   -7.2203    1.0745    0.6570 H   0  0  0  0  0  0  0  0  0  0  0  0
   -6.0072    3.1986    0.6425 H   0  0  0  0  0  0  0  0  0  0  0  0
   -4.8485    2.6005   -0.5577 H   0  0  0  0  0  0  0  0  0  0  0  0
  1  2  1  0
  2  3  1  0
  3  4  1  0
  4  5  1  0
  5  6  1  0
  6  7  1  0
  7  8  2  0
  8  9  1  0
  9 10  2  0
 10 11  1  0
 11 12  2  0
 12 13  1  0
 10 14  1  0
 14 15  2  0
 14 16  1  0
 16 17  1  0
 17 18  2  0
 18 19  1  0
 19 20  2  0
 20 21  1  0
 20 22  1  0
 22 23  1  0
 23 24  1  0
 24 25  2  0
 25 26  1  0
 26 27  2  0
 27 28  1  0
 28 29  2  0
 28 30  1  0
 30 31  2  0
 31 32  1  0
 32 33  2  0
 33 34  1  0
 34 35  2  0
 22 36  2  0
  5 37  1  0
 37 38  1  0
 38  2  1  0
 12  7  1  0
 36 17  1  0
 29 24  1  0
 35 30  1  0
  1 39  1  0
  1 40  1  0
  1 41  1  0
  3 42  1  0
  3 43  1  0
  4 44  1  0
  4 45  1  0
  6 46  1  0
  6 47  1  0
  8 48  1  0
  9 49  1  0
 11 50  1  0
 16 51  1  0
 18 52  1  0
 19 53  1  0
 21 54  1  0
 21 55  1  0
 21 56  1  0
 23 57  1  0
 26 58  1  0
 27 59  1  0
 31 60  1  0
 32 61  1  0
 33 62  1  0
 35 63  1  0
 36 64  1  0
 37 65  1  0
 37 66  1  0
 38 67  1  0
 38 68  1  0
M  END
$$$$
[H]OC([H])([H])C([H])([H])N1C([H])([H])C([H])([H])N(c2nc(C([H])([H])[H])nc(N([H])c3nc([H])nc(-n4c(N([H])c5c(Cl)c([H])c([H])c([H])c5C([H])([H])[H])nc5c([H])c([H])c([H])c([H])c54)c3[H])c2[H])C([H])([H])C1([H])[H]
     RDKit          3D

 72 77  0  0  0  0  0  0  0  0999 V2000
    1.9671   -3.1997   -2.6946 C   0  0  0  0  0  0  0  0  0  0  0  0
    1.9683   -2.1128   -1.6885 C   0  0  0  0  0  0  0  0  0  0  0  0
    0.8966   -1.3427   -1.4409 N   0  0  0  0  0  0  0  0  0  0  0  0
    0.9007   -0.3584   -0.5266 C   0  0  0  0  0  0  0  0  0  0  0  0
   -0.2381    0.4495   -0.2775 N   0  0  0  0  0  0  0  0  0  0  0  0
   -1.4502    0.2272   -1.0285 C   0  0  0  0  0  0  0  0  0  0  0  0
   -2.5752    0.9857   -0.8034 C   0  0  0  0  0  0  0  0  0  0  0  0
   -3.7467    0.7815   -1.5218 C   0  0  0  0  0  0  0  0  0  0  0  0
   -3.7337   -0.1895   -2.4471 N   0  0  0  0  0  0  0  0  0  0  0  0
   -2.6579   -0.9199   -2.6671 C   0  0  0  0  0  0  0  0  0  0  0  0
   -1.5400   -0.7178   -1.9747 N   0  0  0  0  0  0  0  0  0  0  0  0
   -4.8873    1.6057   -1.2950 N   0  0  0  0  0  0  0  0  0  0  0  0
   -5.9551    1.4752   -0.5275 C   0  0  0  0  0  0  0  0  0  0  0  0
   -6.2857    0.4166    0.3440 N   0  0  0  0  0  0  0  0  0  0  0  0
   -5.6178   -0.7641    0.6624 C   0  0  0  0  0  0  0  0  0  0  0  0
   -4.7193   -0.8398    1.7231 C   0  0  0  0  0  0  0  0  0  0  0  0
   -4.4029    0.3582    2.5538 C   0  0  0  0  0  0  0  0  0  0  0  0
   -4.1264   -2.0520    2.0024 C   0  0  0  0  0  0  0  0  0  0  0  0
   -4.3829   -3.1957    1.2785 C   0  0  0  0  0  0  0  0  0  0  0  0
   -5.2638   -3.1384    0.2329 C   0  0  0  0  0  0  0  0  0  0  0  0
   -5.8579   -1.9315   -0.0500 C   0  0  0  0  0  0  0  0  0  0  0  0
   -6.9847   -1.8806   -1.3976 Cl  0  0  0  0  0  0  0  0  0  0  0  0
   -6.7655    2.5911   -0.6958 N   0  0  0  0  0  0  0  0  0  0  0  0
   -6.1565    3.3814   -1.5754 C   0  0  0  0  0  0  0  0  0  0  0  0
   -6.5201    4.6243   -2.1098 C   0  0  0  0  0  0  0  0  0  0  0  0
   -5.7270    5.2752   -3.0217 C   0  0  0  0  0  0  0  0  0  0  0  0
   -4.5451    4.6847   -3.4169 C   0  0  0  0  0  0  0  0  0  0  0  0
   -4.1754    3.4416   -2.8869 C   0  0  0  0  0  0  0  0  0  0  0  0
   -4.9841    2.8052   -1.9736 C   0  0  0  0  0  0  0  0  0  0  0  0
    2.0752   -0.1541    0.1743 C   0  0  0  0  0  0  0  0  0  0  0  0
    3.1998   -0.9192   -0.0460 C   0  0  0  0  0  0  0  0  0  0  0  0
    3.0695   -1.8804   -0.9942 N   0  0  0  0  0  0  0  0  0  0  0  0
    4.4197   -0.7247    0.6543 N   0  0  0  0  0  0  0  0  0  0  0  0
    4.5412    0.3196    1.6000 C   0  0  0  0  0  0  0  0  0  0  0  0
    5.9389    0.7708    1.8915 C   0  0  0  0  0  0  0  0  0  0  0  0
    6.9468   -0.2117    1.6201 N   0  0  0  0  0  0  0  0  0  0  0  0
    8.1226   -0.0099    2.3984 C   0  0  0  0  0  0  0  0  0  0  0  0
    9.2155   -1.0106    2.1405 C   0  0  0  0  0  0  0  0  0  0  0  0
    9.6367   -0.9999    0.8230 O   0  0  0  0  0  0  0  0  0  0  0  0
    6.4517   -1.5535    1.5569 C   0  0  0  0  0  0  0  0  0  0  0  0
    5.5166   -1.6175    0.3674 C   0  0  0  0  0  0  0  0  0  0  0  0
    0.9209   -3.5550   -2.7900 H   0  0  0  0  0  0  0  0  0  0  0  0
    2.3996   -2.8867   -3.6683 H   0  0  0  0  0  0  0  0  0  0  0  0
    2.5772   -4.0644   -2.3266 H   0  0  0  0  0  0  0  0  0  0  0  0
   -0.1825    1.1852    0.4373 H   0  0  0  0  0  0  0  0  0  0  0  0
   -2.5381    1.7601   -0.0448 H   0  0  0  0  0  0  0  0  0  0  0  0
   -2.7041   -1.6914   -3.4269 H   0  0  0  0  0  0  0  0  0  0  0  0
   -7.2400    0.5526    0.8617 H   0  0  0  0  0  0  0  0  0  0  0  0
   -4.5385    1.3022    1.9703 H   0  0  0  0  0  0  0  0  0  0  0  0
   -5.1204    0.4302    3.3997 H   0  0  0  0  0  0  0  0  0  0  0  0
   -3.3950    0.2781    3.0109 H   0  0  0  0  0  0  0  0  0  0  0  0
   -3.4307   -2.0672    2.8388 H   0  0  0  0  0  0  0  0  0  0  0  0
   -3.8997   -4.1404    1.5222 H   0  0  0  0  0  0  0  0  0  0  0  0
   -5.4606   -4.0435   -0.3327 H   0  0  0  0  0  0  0  0  0  0  0  0
   -7.4554    5.0380   -1.7644 H   0  0  0  0  0  0  0  0  0  0  0  0
   -6.0510    6.2491   -3.4168 H   0  0  0  0  0  0  0  0  0  0  0  0
   -3.9105    5.1689   -4.1236 H   0  0  0  0  0  0  0  0  0  0  0  0
   -3.2390    2.9745   -3.2025 H   0  0  0  0  0  0  0  0  0  0  0  0
    2.0876    0.6346    0.9113 H   0  0  0  0  0  0  0  0  0  0  0  0
    3.9899    0.1161    2.5513 H   0  0  0  0  0  0  0  0  0  0  0  0
    4.0083    1.2207    1.1707 H   0  0  0  0  0  0  0  0  0  0  0  0
    6.0031    1.0469    2.9638 H   0  0  0  0  0  0  0  0  0  0  0  0
    6.2023    1.6780    1.3087 H   0  0  0  0  0  0  0  0  0  0  0  0
    8.5498    0.9866    2.0779 H   0  0  0  0  0  0  0  0  0  0  0  0
    7.8558    0.0564    3.4722 H   0  0  0  0  0  0  0  0  0  0  0  0
    9.0101   -2.0293    2.4603 H   0  0  0  0  0  0  0  0  0  0  0  0
   10.1023   -0.6447    2.7411 H   0  0  0  0  0  0  0  0  0  0  0  0
    9.6081   -0.1095    0.4048 H   0  0  0  0  0  0  0  0  0  0  0  0
    5.8319   -1.7669    2.4623 H   0  0  0  0  0  0  0  0  0  0  0  0
    7.2848   -2.2487    1.4249 H   0  0  0  0  0  0  0  0  0  0  0  0
    5.1562   -2.6605    0.1844 H   0  0  0  0  0  0  0  0  0  0  0  0
    6.0098   -1.2390   -0.5627 H   0  0  0  0  0  0  0  0  0  0  0  0
  1  2  1  0
  2  3  2  0
  3  4  1  0
  4  5  1  0
  5  6  1  0
  6  7  2  0
  7  8  1  0
  8  9  2  0
  9 10  1  0
 10 11  2  0
  8 12  1  0
 12 13  1  0
 13 14  1  0
 14 15  1  0
 15 16  2  0
 16 17  1  0
 16 18  1  0
 18 19  2  0
 19 20  1  0
 20 21  2  0
 21 22  1  0
 13 23  2  0
 23 24  1  0
 24 25  2  0
 25 26  1  0
 26 27  2  0
 27 28  1  0
 28 29  2  0
  4 30  2  0
 30 31  1  0
 31 32  2  0
 31 33  1  0
 33 34  1  0
 34 35  1  0
 35 36  1  0
 36 37  1  0
 37 38  1  0
 38 39  1  0
 36 40  1  0
 40 41  1  0
 32  2  1  0
 41 33  1  0
 11  6  1  0
 29 12  1  0
 21 15  1  0
 29 24  1  0
  1 42  1  0
  1 43  1  0
  1 44  1  0
  5 45  1  0
  7 46  1  0
 10 47  1  0
 14 48  1  0
 17 49  1  0
 17 50  1  0
 17 51  1  0
 18 52  1  0
 19 53  1  0
 20 54  1  0
 25 55  1  0
 26 56  1  0
 27 57  1  0
 28 58  1  0
 30 59  1  0
 34 60  1  0
 34 61  1  0
 35 62  1  0
 35 63  1  0
 37 64  1  0
 37 65  1  0
 38 66  1  0
 38 67  1  0
 39 68  1  0
 40 69  1  0
 40 70  1  0
 41 71  1  0
 41 72  1  0
M  END
$$$$
[H]c1c([H])c([H])c2c(c1[H])c1c3c(c4c5c([H])c([H])c([H])c([H])c5n5c4c1n2[C@@]1([H])O[C@]5(C([H])([H])[H])[C@@]([H])(OC([H])([H])[H])[C@@]([H])(N([H])C([H])([H])[H])C1([H])[H])C([H])([H])N([H])C3=O
     RDKit          3D

 61 68  0  0  0  0  0  0  0  0999 V2000
   -2.5900    1.1246    2.6909 C   0  0  0  0  0  0  0  0  0  0  0  0
   -2.2701    0.1494    1.6691 N   0  0  0  0  0  0  0  0  0  0  0  0
   -2.7037    0.7256    0.3894 C   0  0  1  0  0  0  0  0  0  0  0  0
   -1.9693    1.9591    0.0600 C   0  0  0  0  0  0  0  0  0  0  0  0
   -1.0374    1.8542   -1.1025 C   0  0  2  0  0  0  0  0  0  0  0  0
   -1.1108    0.8211   -1.8978 O   0  0  0  0  0  0  0  0  0  0  0  0
   -1.4719   -0.4453   -1.4993 C   0  0  2  0  0  0  0  0  0  0  0  0
   -1.8587   -1.0747   -2.8537 C   0  0  0  0  0  0  0  0  0  0  0  0
   -2.6627   -0.3659   -0.6565 C   0  0  1  0  0  0  0  0  0  0  0  0
   -3.0555   -1.5061    0.0270 O   0  0  0  0  0  0  0  0  0  0  0  0
   -4.3079   -1.9695   -0.2639 C   0  0  0  0  0  0  0  0  0  0  0  0
   -0.3020   -1.1026   -0.9411 N   0  0  0  0  0  0  0  0  0  0  0  0
   -0.0368   -2.4107   -0.8661 C   0  0  0  0  0  0  0  0  0  0  0  0
   -0.7505   -3.5118   -1.2342 C   0  0  0  0  0  0  0  0  0  0  0  0
   -0.2313   -4.7829   -1.0386 C   0  0  0  0  0  0  0  0  0  0  0  0
    1.0025   -5.0019   -0.4761 C   0  0  0  0  0  0  0  0  0  0  0  0
    1.7444   -3.8826   -0.0939 C   0  0  0  0  0  0  0  0  0  0  0  0
    1.2038   -2.6348   -0.3003 C   0  0  0  0  0  0  0  0  0  0  0  0
    1.7282   -1.3877   -0.0109 C   0  0  0  0  0  0  0  0  0  0  0  0
    2.9250   -0.9637    0.5498 C   0  0  0  0  0  0  0  0  0  0  0  0
    4.0703   -1.7821    1.0519 C   0  0  0  0  0  0  0  0  0  0  0  0
    5.0490   -0.8360    1.5052 N   0  0  0  0  0  0  0  0  0  0  0  0
    4.5511    0.4878    1.3292 C   0  0  0  0  0  0  0  0  0  0  0  0
    5.2116    1.4752    1.6612 O   0  0  0  0  0  0  0  0  0  0  0  0
    3.2325    0.3685    0.7340 C   0  0  0  0  0  0  0  0  0  0  0  0
    2.2736    1.2731    0.3281 C   0  0  0  0  0  0  0  0  0  0  0  0
    2.1943    2.6494    0.3519 C   0  0  0  0  0  0  0  0  0  0  0  0
    3.0346    3.6410    0.7719 C   0  0  0  0  0  0  0  0  0  0  0  0
    2.6237    4.9672    0.6424 C   0  0  0  0  0  0  0  0  0  0  0  0
    1.4040    5.3207    0.1079 C   0  0  0  0  0  0  0  0  0  0  0  0
    0.5569    4.3176   -0.3154 C   0  0  0  0  0  0  0  0  0  0  0  0
    0.9564    3.0255   -0.1896 C   0  0  0  0  0  0  0  0  0  0  0  0
    0.3179    1.9031   -0.5262 N   0  0  0  0  0  0  0  0  0  0  0  0
    1.0813    0.8475   -0.2300 C   0  0  0  0  0  0  0  0  0  0  0  0
    0.8029   -0.4946   -0.4048 C   0  0  0  0  0  0  0  0  0  0  0  0
   -1.7275    1.7656    2.9459 H   0  0  0  0  0  0  0  0  0  0  0  0
   -3.4000    1.7830    2.2910 H   0  0  0  0  0  0  0  0  0  0  0  0
   -3.0290    0.6437    3.5924 H   0  0  0  0  0  0  0  0  0  0  0  0
   -2.7602   -0.7186    1.9035 H   0  0  0  0  0  0  0  0  0  0  0  0
   -3.7998    0.9480    0.5957 H   0  0  0  0  0  0  0  0  0  0  0  0
   -1.4594    2.3204    1.0029 H   0  0  0  0  0  0  0  0  0  0  0  0
   -2.7065    2.7776   -0.1658 H   0  0  0  0  0  0  0  0  0  0  0  0
   -1.0912    2.7965   -1.7221 H   0  0  0  0  0  0  0  0  0  0  0  0
   -2.0056   -0.3257   -3.6573 H   0  0  0  0  0  0  0  0  0  0  0  0
   -1.0068   -1.6950   -3.1940 H   0  0  0  0  0  0  0  0  0  0  0  0
   -2.8277   -1.6039   -2.8044 H   0  0  0  0  0  0  0  0  0  0  0  0
   -3.5358   -0.1252   -1.3381 H   0  0  0  0  0  0  0  0  0  0  0  0
   -4.4650   -2.8889    0.3782 H   0  0  0  0  0  0  0  0  0  0  0  0
   -4.4865   -2.3125   -1.2897 H   0  0  0  0  0  0  0  0  0  0  0  0
   -5.1216   -1.2643    0.0633 H   0  0  0  0  0  0  0  0  0  0  0  0
   -1.7208   -3.3825   -1.6725 H   0  0  0  0  0  0  0  0  0  0  0  0
   -0.8491   -5.6109   -1.3524 H   0  0  0  0  0  0  0  0  0  0  0  0
    1.4213   -5.9802   -0.3168 H   0  0  0  0  0  0  0  0  0  0  0  0
    2.7206   -4.0420    0.3513 H   0  0  0  0  0  0  0  0  0  0  0  0
    3.7648   -2.4865    1.8473 H   0  0  0  0  0  0  0  0  0  0  0  0
    4.5351   -2.3717    0.2322 H   0  0  0  0  0  0  0  0  0  0  0  0
    5.9960   -1.0989    1.9084 H   0  0  0  0  0  0  0  0  0  0  0  0
    3.9823    3.4684    1.1903 H   0  0  0  0  0  0  0  0  0  0  0  0
    3.2909    5.7541    0.9750 H   0  0  0  0  0  0  0  0  0  0  0  0
    1.0902    6.3566    0.0099 H   0  0  0  0  0  0  0  0  0  0  0  0
   -0.4140    4.5350   -0.7434 H   0  0  0  0  0  0  0  0  0  0  0  0
  1  2  1  0
  2  3  1  0
  3  4  1  0
  4  5  1  0
  5  6  1  0
  6  7  1  0
  7  8  1  6
  7  9  1  0
  9 10  1  0
 10 11  1  0
  7 12  1  0
 12 13  1  0
 13 14  2  0
 14 15  1  0
 15 16  2  0
 16 17  1  0
 17 18  2  0
 18 19  1  0
 19 20  2  0
 20 21  1  0
 21 22  1  0
 22 23  1  0
 23 24  2  0
 23 25  1  0
 25 26  2  0
 26 27  1  0
 27 28  2  0
 28 29  1  0
 29 30  2  0
 30 31  1  0
 31 32  2  0
 32 33  1  0
 33 34  1  0
 34 35  2  0
  9  3  1  0
 35 12  1  0
 33  5  1  0
 18 13  1  0
 35 19  1  0
 25 20  1  0
 34 26  1  0
 32 27  1  0
  1 36  1  0
  1 37  1  0
  1 38  1  0
  2 39  1  0
  3 40  1  1
  4 41  1  0
  4 42  1  0
  5 43  1  6
  8 44  1  0
  8 45  1  0
  8 46  1  0
  9 47  1  6
 11 48  1  0
 11 49  1  0
 11 50  1  0
 14 51  1  0
 15 52  1  0
 16 53  1  0
 17 54  1  0
 21 55  1  0
 21 56  1  0
 22 57  1  0
 28 58  1  0
 29 59  1  0
 30 60  1  0
 31 61  1  0
M  END
$$$$
[H]c1nc([H])c(-c2nc(N([H])c3c([H])c(N([H])C(=O)c4c([H])c([H])c(C([H])([H])N5C([H])([H])C([H])([H])[C@]([H])(N(C([H])([H])[H])C([H])([H])[H])C5([H])[H])c(C(F)(F)F)c4[H])c([H])c([H])c3C([H])([H])[H])nc([H])c2[H])c([H])n1
     RDKit          3D

 73 77  0  0  0  0  0  0  0  0999 V2000
   -8.5269    0.0176   -1.0809 C   0  0  0  0  0  0  0  0  0  0  0  0
   -8.3511    1.3705   -0.7057 N   0  0  0  0  0  0  0  0  0  0  0  0
   -9.4254    2.0228   -0.0508 C   0  0  0  0  0  0  0  0  0  0  0  0
   -7.0453    1.8187   -0.4115 C   0  0  1  0  0  0  0  0  0  0  0  0
   -6.4119    1.1008    0.7641 C   0  0  0  0  0  0  0  0  0  0  0  0
   -5.4403    0.1575    0.0606 C   0  0  0  0  0  0  0  0  0  0  0  0
   -4.8795    1.0564   -0.9137 N   0  0  0  0  0  0  0  0  0  0  0  0
   -3.9615    0.3986   -1.7684 C   0  0  0  0  0  0  0  0  0  0  0  0
   -2.6526    0.0527   -1.2122 C   0  0  0  0  0  0  0  0  0  0  0  0
   -2.2302    0.3997    0.0717 C   0  0  0  0  0  0  0  0  0  0  0  0
   -0.9768    0.0947    0.5637 C   0  0  0  0  0  0  0  0  0  0  0  0
   -0.0673   -0.5812   -0.2129 C   0  0  0  0  0  0  0  0  0  0  0  0
   -0.4632   -0.9279   -1.4724 C   0  0  0  0  0  0  0  0  0  0  0  0
   -1.7356   -0.6252   -1.9885 C   0  0  0  0  0  0  0  0  0  0  0  0
   -2.0486   -1.0368   -3.3612 C   0  0  0  0  0  0  0  0  0  0  0  0
   -3.1028   -1.8831   -3.5115 F   0  0  0  0  0  0  0  0  0  0  0  0
   -2.0967    0.0672   -4.2277 F   0  0  0  0  0  0  0  0  0  0  0  0
   -0.9499   -1.7613   -3.8711 F   0  0  0  0  0  0  0  0  0  0  0  0
    1.2843   -0.9153    0.2975 C   0  0  0  0  0  0  0  0  0  0  0  0
    2.2428   -0.8828   -0.4755 O   0  0  0  0  0  0  0  0  0  0  0  0
    1.4615   -1.2639    1.6579 N   0  0  0  0  0  0  0  0  0  0  0  0
    2.6213   -1.5800    2.3534 C   0  0  0  0  0  0  0  0  0  0  0  0
    2.4666   -2.1709    3.6166 C   0  0  0  0  0  0  0  0  0  0  0  0
    3.5292   -2.5272    4.3971 C   0  0  0  0  0  0  0  0  0  0  0  0
    4.8094   -2.3045    3.9407 C   0  0  0  0  0  0  0  0  0  0  0  0
    5.9786   -2.6706    4.7636 C   0  0  0  0  0  0  0  0  0  0  0  0
    5.0438   -1.7167    2.6862 C   0  0  0  0  0  0  0  0  0  0  0  0
    6.3667   -1.5755    2.2795 N   0  0  0  0  0  0  0  0  0  0  0  0
    6.9639   -0.8758    1.2061 C   0  0  0  0  0  0  0  0  0  0  0  0
    8.3160   -0.9625    1.0328 N   0  0  0  0  0  0  0  0  0  0  0  0
    8.9147   -0.2961    0.0621 C   0  0  0  0  0  0  0  0  0  0  0  0
    8.1647    0.5043   -0.7948 C   0  0  0  0  0  0  0  0  0  0  0  0
    6.8201    0.5911   -0.6215 C   0  0  0  0  0  0  0  0  0  0  0  0
    6.2657   -0.1131    0.3865 N   0  0  0  0  0  0  0  0  0  0  0  0
    6.0411    1.4565   -1.4950 C   0  0  0  0  0  0  0  0  0  0  0  0
    6.5358    2.1194   -2.5876 C   0  0  0  0  0  0  0  0  0  0  0  0
    5.6967    2.9080   -3.2924 N   0  0  0  0  0  0  0  0  0  0  0  0
    4.4062    3.0810   -2.9855 C   0  0  0  0  0  0  0  0  0  0  0  0
    3.9080    2.4344   -1.9127 N   0  0  0  0  0  0  0  0  0  0  0  0
    4.6925    1.6406   -1.1782 C   0  0  0  0  0  0  0  0  0  0  0  0
    3.9279   -1.3773    1.9423 C   0  0  0  0  0  0  0  0  0  0  0  0
   -6.0274    1.6462   -1.5238 C   0  0  0  0  0  0  0  0  0  0  0  0
   -7.9124   -0.3226   -1.9246 H   0  0  0  0  0  0  0  0  0  0  0  0
   -8.4264   -0.6621   -0.1825 H   0  0  0  0  0  0  0  0  0  0  0  0
   -9.6092   -0.1009   -1.3773 H   0  0  0  0  0  0  0  0  0  0  0  0
   -9.0684    2.7552    0.7217 H   0  0  0  0  0  0  0  0  0  0  0  0
  -10.1096    2.5830   -0.7230 H   0  0  0  0  0  0  0  0  0  0  0  0
  -10.0629    1.2734    0.4643 H   0  0  0  0  0  0  0  0  0  0  0  0
   -7.0890    2.9124   -0.1442 H   0  0  0  0  0  0  0  0  0  0  0  0
   -7.1083    0.4923    1.3333 H   0  0  0  0  0  0  0  0  0  0  0  0
   -5.8262    1.8200    1.3626 H   0  0  0  0  0  0  0  0  0  0  0  0
   -6.0368   -0.6640   -0.4559 H   0  0  0  0  0  0  0  0  0  0  0  0
   -4.7180   -0.3154    0.6829 H   0  0  0  0  0  0  0  0  0  0  0  0
   -3.8877    0.9134   -2.7624 H   0  0  0  0  0  0  0  0  0  0  0  0
   -4.4870   -0.5735   -2.0542 H   0  0  0  0  0  0  0  0  0  0  0  0
   -2.8965    0.9561    0.7045 H   0  0  0  0  0  0  0  0  0  0  0  0
   -0.6749    0.3777    1.5761 H   0  0  0  0  0  0  0  0  0  0  0  0
    0.2655   -1.4699   -2.0941 H   0  0  0  0  0  0  0  0  0  0  0  0
    0.5393   -1.2724    2.2232 H   0  0  0  0  0  0  0  0  0  0  0  0
    1.4768   -2.3539    3.9870 H   0  0  0  0  0  0  0  0  0  0  0  0
    3.4003   -2.9858    5.3790 H   0  0  0  0  0  0  0  0  0  0  0  0
    6.4970   -3.5730    4.3679 H   0  0  0  0  0  0  0  0  0  0  0  0
    5.6302   -2.9391    5.7926 H   0  0  0  0  0  0  0  0  0  0  0  0
    6.7033   -1.8381    4.8972 H   0  0  0  0  0  0  0  0  0  0  0  0
    7.1020   -2.1123    2.8988 H   0  0  0  0  0  0  0  0  0  0  0  0
    9.9983   -0.3513   -0.0954 H   0  0  0  0  0  0  0  0  0  0  0  0
    8.6909    1.0376   -1.5793 H   0  0  0  0  0  0  0  0  0  0  0  0
    7.5715    1.9983   -2.8632 H   0  0  0  0  0  0  0  0  0  0  0  0
    3.7334    3.7175   -3.5559 H   0  0  0  0  0  0  0  0  0  0  0  0
    4.2995    1.1244   -0.3203 H   0  0  0  0  0  0  0  0  0  0  0  0
    4.0565   -0.9320    0.9887 H   0  0  0  0  0  0  0  0  0  0  0  0
   -6.3773    0.9680   -2.3253 H   0  0  0  0  0  0  0  0  0  0  0  0
   -5.7383    2.6463   -1.9174 H   0  0  0  0  0  0  0  0  0  0  0  0
  1  2  1  0
  2  3  1  0
  2  4  1  0
  4  5  1  0
  5  6  1  0
  6  7  1  0
  7  8  1  0
  8  9  1  0
  9 10  2  0
 10 11  1  0
 11 12  2  0
 12 13  1  0
 13 14  2  0
 14 15  1  0
 15 16  1  0
 15 17  1  0
 15 18  1  0
 12 19  1  0
 19 20  2  0
 19 21  1  0
 21 22  1  0
 22 23  2  0
 23 24  1  0
 24 25  2  0
 25 26  1  0
 25 27  1  0
 27 28  1  0
 28 29  1  0
 29 30  2  0
 30 31  1  0
 31 32  2  0
 32 33  1  0
 33 34  2  0
 33 35  1  0
 35 36  2  0
 36 37  1  0
 37 38  2  0
 38 39  1  0
 39 40  2  0
 27 41  2  0
  7 42  1  0
 42  4  1  0
 14  9  1  0
 41 22  1  0
 34 29  1  0
 40 35  1  0
  1 43  1  0
  1 44  1  0
  1 45  1  0
  3 46  1  0
  3 47  1  0
  3 48  1  0
  4 49  1  1
  5 50  1  0
  5 51  1  0
  6 52  1  0
  6 53  1  0
  8 54  1  0
  8 55  1  0
 10 56  1  0
 11 57  1  0
 13 58  1  0
 21 59  1  0
 23 60  1  0
 24 61  1  0
 26 62  1  0
 26 63  1  0
 26 64  1  0
 28 65  1  0
 31 66  1  0
 32 67  1  0
 36 68  1  0
 38 69  1  0
 40 70  1  0
 41 71  1  0
 42 72  1  0
 42 73  1  0
M  END
$$$$
[H]c1nc(N([H])[H])c2c(-c3c([H])nc4c(c3[H])c([H])c([H])n4[H])nn(C([H])([H])C([H])([H])N3C([H])([H])C([H])([H])C([H])(N(C([H])([H])[H])C([H])([H])[H])C([H])([H])C3([H])[H])c2n1
     RDKit          3D

 57 61  0  0  0  0  0  0  0  0999 V2000
    7.3923   -0.6939   -0.5596 C   0  0  0  0  0  0  0  0  0  0  0  0
    6.6493    0.4215   -0.0296 N   0  0  0  0  0  0  0  0  0  0  0  0
    7.4073    1.1123    0.9785 C   0  0  0  0  0  0  0  0  0  0  0  0
    5.3696   -0.0663    0.4415 C   0  0  0  0  0  0  0  0  0  0  0  0
    4.6263   -0.6208   -0.7501 C   0  0  0  0  0  0  0  0  0  0  0  0
    3.2661    0.0244   -0.9164 C   0  0  0  0  0  0  0  0  0  0  0  0
    2.5313    0.0862    0.2933 N   0  0  0  0  0  0  0  0  0  0  0  0
    1.1387    0.3314    0.1601 C   0  0  0  0  0  0  0  0  0  0  0  0
    0.3525   -0.7705   -0.4652 C   0  0  0  0  0  0  0  0  0  0  0  0
   -1.0403   -0.4506   -0.5719 N   0  0  0  0  0  0  0  0  0  0  0  0
   -1.9600   -0.7126    0.3276 N   0  0  0  0  0  0  0  0  0  0  0  0
   -3.1827   -0.2754   -0.0984 C   0  0  0  0  0  0  0  0  0  0  0  0
   -4.4363   -0.3738    0.6481 C   0  0  0  0  0  0  0  0  0  0  0  0
   -4.5119    0.1858    1.9329 C   0  0  0  0  0  0  0  0  0  0  0  0
   -5.5849    0.1004    2.6966 N   0  0  0  0  0  0  0  0  0  0  0  0
   -6.6668   -0.5423    2.2546 C   0  0  0  0  0  0  0  0  0  0  0  0
   -7.8707   -0.7519    2.8608 N   0  0  0  0  0  0  0  0  0  0  0  0
   -8.6486   -1.4512    2.0269 C   0  0  0  0  0  0  0  0  0  0  0  0
   -7.9334   -1.6877    0.8817 C   0  0  0  0  0  0  0  0  0  0  0  0
   -6.6731   -1.1240    0.9956 C   0  0  0  0  0  0  0  0  0  0  0  0
   -5.5540   -1.0314    0.2083 C   0  0  0  0  0  0  0  0  0  0  0  0
   -2.9631    0.2817   -1.3287 C   0  0  0  0  0  0  0  0  0  0  0  0
   -3.7274    0.9135   -2.2924 C   0  0  0  0  0  0  0  0  0  0  0  0
   -5.1121    1.0957   -2.0254 N   0  0  0  0  0  0  0  0  0  0  0  0
   -3.1961    1.3814   -3.4393 N   0  0  0  0  0  0  0  0  0  0  0  0
   -1.8908    1.2531   -3.6939 C   0  0  0  0  0  0  0  0  0  0  0  0
   -1.1202    0.6481   -2.7804 N   0  0  0  0  0  0  0  0  0  0  0  0
   -1.6033    0.1774   -1.6463 C   0  0  0  0  0  0  0  0  0  0  0  0
    3.1684    0.6140    1.4323 C   0  0  0  0  0  0  0  0  0  0  0  0
    4.5536    1.0799    1.0487 C   0  0  0  0  0  0  0  0  0  0  0  0
    7.0543   -1.6052   -0.0043 H   0  0  0  0  0  0  0  0  0  0  0  0
    7.1558   -0.8777   -1.6314 H   0  0  0  0  0  0  0  0  0  0  0  0
    8.4764   -0.5128   -0.4029 H   0  0  0  0  0  0  0  0  0  0  0  0
    7.0523    0.8342    1.9894 H   0  0  0  0  0  0  0  0  0  0  0  0
    8.4616    0.7531    0.9176 H   0  0  0  0  0  0  0  0  0  0  0  0
    7.3663    2.1940    0.7741 H   0  0  0  0  0  0  0  0  0  0  0  0
    5.4811   -0.8548    1.2120 H   0  0  0  0  0  0  0  0  0  0  0  0
    5.1783   -0.4124   -1.6989 H   0  0  0  0  0  0  0  0  0  0  0  0
    4.4959   -1.7123   -0.6105 H   0  0  0  0  0  0  0  0  0  0  0  0
    2.7205   -0.5868   -1.6682 H   0  0  0  0  0  0  0  0  0  0  0  0
    3.4021    1.0546   -1.3112 H   0  0  0  0  0  0  0  0  0  0  0  0
    0.7158    0.5093    1.1765 H   0  0  0  0  0  0  0  0  0  0  0  0
    1.0213    1.2432   -0.4862 H   0  0  0  0  0  0  0  0  0  0  0  0
    0.7529   -1.0558   -1.4712 H   0  0  0  0  0  0  0  0  0  0  0  0
    0.4301   -1.7072    0.1435 H   0  0  0  0  0  0  0  0  0  0  0  0
   -3.6058    0.7069    2.2650 H   0  0  0  0  0  0  0  0  0  0  0  0
   -8.1098   -0.4078    3.8204 H   0  0  0  0  0  0  0  0  0  0  0  0
   -9.6511   -1.7629    2.2333 H   0  0  0  0  0  0  0  0  0  0  0  0
   -8.2914   -2.2322    0.0142 H   0  0  0  0  0  0  0  0  0  0  0  0
   -5.5874   -1.5125   -0.7571 H   0  0  0  0  0  0  0  0  0  0  0  0
   -5.3971    1.7758   -1.3033 H   0  0  0  0  0  0  0  0  0  0  0  0
   -5.8094    0.5571   -2.5448 H   0  0  0  0  0  0  0  0  0  0  0  0
   -1.4620    1.6376   -4.6347 H   0  0  0  0  0  0  0  0  0  0  0  0
    3.2158   -0.0680    2.3083 H   0  0  0  0  0  0  0  0  0  0  0  0
    2.6255    1.5310    1.7931 H   0  0  0  0  0  0  0  0  0  0  0  0
    4.4383    1.8324    0.2434 H   0  0  0  0  0  0  0  0  0  0  0  0
    5.0903    1.5248    1.9111 H   0  0  0  0  0  0  0  0  0  0  0  0
  1  2  1  0
  2  3  1  0
  2  4  1  0
  4  5  1  0
  5  6  1  0
  6  7  1  0
  7  8  1  0
  8  9  1  0
  9 10  1  0
 10 11  1  0
 11 12  2  0
 12 13  1  0
 13 14  2  0
 14 15  1  0
 15 16  2  0
 16 17  1  0
 17 18  1  0
 18 19  2  0
 19 20  1  0
 20 21  2  0
 12 22  1  0
 22 23  2  0
 23 24  1  0
 23 25  1  0
 25 26  2  0
 26 27  1  0
 27 28  2  0
  7 29  1  0
 29 30  1  0
 30  4  1  0
 28 10  1  0
 21 13  1  0
 28 22  1  0
 20 16  1  0
  1 31  1  0
  1 32  1  0
  1 33  1  0
  3 34  1  0
  3 35  1  0
  3 36  1  0
  4 37  1  0
  5 38  1  0
  5 39  1  0
  6 40  1  0
  6 41  1  0
  8 42  1  0
  8 43  1  0
  9 44  1  0
  9 45  1  0
 14 46  1  0
 17 47  1  0
 18 48  1  0
 19 49  1  0
 21 50  1  0
 24 51  1  0
 24 52  1  0
 26 53  1  0
 29 54  1  0
 29 55  1  0
 30 56  1  0
 30 57  1  0
M  END
$$$$
[H]C(=C([H])C([H])([H])N(C([H])([H])C([H])([H])[H])C([H])([H])C([H])([H])[H])c1c(C([H])([H])[H])c2c([H])c([H])c3nc(N([H])c4c(Cl)c([H])c([H])c([H])c4Cl)n(C([H])([H])[H])c3c2c(=O)n1[H]
     RDKit          3D

 60 63  0  0  0  0  0  0  0  0999 V2000
   -6.0025    1.6403    1.5696 C   0  0  0  0  0  0  0  0  0  0  0  0
   -5.8225    1.1130    0.1476 C   0  0  0  0  0  0  0  0  0  0  0  0
   -5.8544   -0.3129    0.1191 N   0  0  0  0  0  0  0  0  0  0  0  0
   -7.1556   -0.8536    0.4380 C   0  0  0  0  0  0  0  0  0  0  0  0
   -8.1535   -0.5371   -0.6352 C   0  0  0  0  0  0  0  0  0  0  0  0
   -5.2672   -0.8862   -1.0353 C   0  0  0  0  0  0  0  0  0  0  0  0
   -3.7955   -0.8280   -1.0573 C   0  0  0  0  0  0  0  0  0  0  0  0
   -3.0640   -0.3781   -0.0742 C   0  0  0  0  0  0  0  0  0  0  0  0
   -1.6116   -0.3343   -0.1369 C   0  0  0  0  0  0  0  0  0  0  0  0
   -0.9354   -0.7220   -1.2116 N   0  0  0  0  0  0  0  0  0  0  0  0
    0.4361   -0.6774   -1.2691 C   0  0  0  0  0  0  0  0  0  0  0  0
    0.8566   -1.0650   -2.3204 O   0  0  0  0  0  0  0  0  0  0  0  0
    1.1083   -0.2229   -0.1897 C   0  0  0  0  0  0  0  0  0  0  0  0
    2.4879   -0.1467   -0.1947 C   0  0  0  0  0  0  0  0  0  0  0  0
    3.3916   -0.4718   -1.1126 N   0  0  0  0  0  0  0  0  0  0  0  0
    3.3272   -1.0412   -2.4218 C   0  0  0  0  0  0  0  0  0  0  0  0
    4.6114   -0.1774   -0.5495 C   0  0  0  0  0  0  0  0  0  0  0  0
    5.9186   -0.3242   -1.1233 N   0  0  0  0  0  0  0  0  0  0  0  0
    7.0788    0.0196   -0.3871 C   0  0  0  0  0  0  0  0  0  0  0  0
    7.7020   -0.9260    0.3935 C   0  0  0  0  0  0  0  0  0  0  0  0
    7.0893   -2.5677    0.4965 Cl  0  0  0  0  0  0  0  0  0  0  0  0
    8.8373   -0.6352    1.1338 C   0  0  0  0  0  0  0  0  0  0  0  0
    9.3546    0.6193    1.0910 C   0  0  0  0  0  0  0  0  0  0  0  0
    8.7463    1.5824    0.3154 C   0  0  0  0  0  0  0  0  0  0  0  0
    7.5980    1.2918   -0.4346 C   0  0  0  0  0  0  0  0  0  0  0  0
    6.8651    2.5519   -1.4037 Cl  0  0  0  0  0  0  0  0  0  0  0  0
    4.4438    0.3082    0.6729 N   0  0  0  0  0  0  0  0  0  0  0  0
    3.1504    0.3473    0.9411 C   0  0  0  0  0  0  0  0  0  0  0  0
    2.4338    0.7466    2.0436 C   0  0  0  0  0  0  0  0  0  0  0  0
    1.0654    0.6818    2.0837 C   0  0  0  0  0  0  0  0  0  0  0  0
    0.4299    0.1968    0.9640 C   0  0  0  0  0  0  0  0  0  0  0  0
   -0.9354    0.1418    0.9952 C   0  0  0  0  0  0  0  0  0  0  0  0
   -1.7446    0.5368    2.1490 C   0  0  0  0  0  0  0  0  0  0  0  0
   -5.1089    1.3677    2.1777 H   0  0  0  0  0  0  0  0  0  0  0  0
   -6.9588    1.3744    2.0181 H   0  0  0  0  0  0  0  0  0  0  0  0
   -6.0026    2.7722    1.5272 H   0  0  0  0  0  0  0  0  0  0  0  0
   -6.7091    1.5105   -0.4513 H   0  0  0  0  0  0  0  0  0  0  0  0
   -4.8912    1.5078   -0.2772 H   0  0  0  0  0  0  0  0  0  0  0  0
   -7.0631   -1.9563    0.5372 H   0  0  0  0  0  0  0  0  0  0  0  0
   -7.4826   -0.4741    1.4010 H   0  0  0  0  0  0  0  0  0  0  0  0
   -7.7733   -0.7116   -1.6534 H   0  0  0  0  0  0  0  0  0  0  0  0
   -9.0278   -1.2225   -0.4825 H   0  0  0  0  0  0  0  0  0  0  0  0
   -8.5631    0.4834   -0.5284 H   0  0  0  0  0  0  0  0  0  0  0  0
   -5.5557   -1.9822   -1.1313 H   0  0  0  0  0  0  0  0  0  0  0  0
   -5.6478   -0.3787   -1.9599 H   0  0  0  0  0  0  0  0  0  0  0  0
   -3.2951   -1.1921   -1.9680 H   0  0  0  0  0  0  0  0  0  0  0  0
   -3.5429   -0.0376    0.8316 H   0  0  0  0  0  0  0  0  0  0  0  0
   -1.4569   -1.0734   -2.0468 H   0  0  0  0  0  0  0  0  0  0  0  0
    2.9454   -2.1091   -2.4479 H   0  0  0  0  0  0  0  0  0  0  0  0
    3.0136   -0.4175   -3.2482 H   0  0  0  0  0  0  0  0  0  0  0  0
    4.4019   -1.3013   -2.7695 H   0  0  0  0  0  0  0  0  0  0  0  0
    6.0248   -0.6780   -2.0787 H   0  0  0  0  0  0  0  0  0  0  0  0
    9.3142   -1.3903    1.7421 H   0  0  0  0  0  0  0  0  0  0  0  0
   10.2553    0.8408    1.6815 H   0  0  0  0  0  0  0  0  0  0  0  0
    9.1985    2.5645    0.3175 H   0  0  0  0  0  0  0  0  0  0  0  0
    2.9785    1.1181    2.8913 H   0  0  0  0  0  0  0  0  0  0  0  0
    0.5007    0.9915    2.9297 H   0  0  0  0  0  0  0  0  0  0  0  0
   -2.4095   -0.3648    2.3833 H   0  0  0  0  0  0  0  0  0  0  0  0
   -1.2661    0.7574    3.0848 H   0  0  0  0  0  0  0  0  0  0  0  0
   -2.4685    1.3313    1.8239 H   0  0  0  0  0  0  0  0  0  0  0  0
  1  2  1  0
  2  3  1  0
  3  4  1  0
  4  5  1  0
  3  6  1  0
  6  7  1  0
  7  8  2  3
  8  9  1  0
  9 10  1  0
 10 11  1  0
 11 12  2  0
 11 13  1  0
 13 14  2  0
 14 15  1  0
 15 16  1  0
 15 17  1  0
 17 18  1  0
 18 19  1  0
 19 20  2  0
 20 21  1  0
 20 22  1  0
 22 23  2  0
 23 24  1  0
 24 25  2  0
 25 26  1  0
 17 27  2  0
 27 28  1  0
 28 29  2  0
 29 30  1  0
 30 31  2  0
 31 32  1  0
 32 33  1  0
 32  9  2  0
 31 13  1  0
 28 14  1  0
 25 19  1  0
  1 34  1  0
  1 35  1  0
  1 36  1  0
  2 37  1  0
  2 38  1  0
  4 39  1  0
  4 40  1  0
  5 41  1  0
  5 42  1  0
  5 43  1  0
  6 44  1  0
  6 45  1  0
  7 46  1  0
  8 47  1  0
 10 48  1  0
 16 49  1  0
 16 50  1  0
 16 51  1  0
 18 52  1  0
 22 53  1  0
 23 54  1  0
 24 55  1  0
 29 56  1  0
 30 57  1  0
 33 58  1  0
 33 59  1  0
 33 60  1  0
M  END
$$$$
[H]c1nc(N([H])[H])c([H])c(-n2c(N([H])c3c([H])c(C(=O)N([H])c4c([H])c([H])c([H])c(C([H])(C([H])([H])[H])C([H])([H])[H])c4[H])c([H])c([H])c3C([H])([H])[H])nc3c([H])c([H])c([H])c([H])c32)n1
     RDKit          3D

 63 67  0  0  0  0  0  0  0  0999 V2000
    8.2189   -1.0238    0.4138 C   0  0  0  0  0  0  0  0  0  0  0  0
    7.2763   -0.3138   -0.5471 C   0  0  0  0  0  0  0  0  0  0  0  0
    7.8891   -0.4111   -1.9277 C   0  0  0  0  0  0  0  0  0  0  0  0
    5.9237   -0.9366   -0.5152 C   0  0  0  0  0  0  0  0  0  0  0  0
    5.7095   -2.2606   -0.7950 C   0  0  0  0  0  0  0  0  0  0  0  0
    4.4166   -2.7705   -0.7442 C   0  0  0  0  0  0  0  0  0  0  0  0
    3.3470   -1.9828   -0.4213 C   0  0  0  0  0  0  0  0  0  0  0  0
    3.5403   -0.6151   -0.1291 C   0  0  0  0  0  0  0  0  0  0  0  0
    2.4041    0.1415    0.2188 N   0  0  0  0  0  0  0  0  0  0  0  0
    2.3227    1.5399    0.1506 C   0  0  0  0  0  0  0  0  0  0  0  0
    3.2478    2.3069   -0.2325 O   0  0  0  0  0  0  0  0  0  0  0  0
    1.0469    2.1760    0.5629 C   0  0  0  0  0  0  0  0  0  0  0  0
    1.0505    3.4051    1.1446 C   0  0  0  0  0  0  0  0  0  0  0  0
   -0.1736    3.9359    1.4868 C   0  0  0  0  0  0  0  0  0  0  0  0
   -1.3324    3.2354    1.2412 C   0  0  0  0  0  0  0  0  0  0  0  0
   -2.6594    3.8159    1.6143 C   0  0  0  0  0  0  0  0  0  0  0  0
   -1.3295    1.9690    0.6412 C   0  0  0  0  0  0  0  0  0  0  0  0
   -2.5507    1.3239    0.4263 N   0  0  0  0  0  0  0  0  0  0  0  0
   -2.7771    0.0614   -0.1496 C   0  0  0  0  0  0  0  0  0  0  0  0
   -1.9488   -0.8693   -0.6443 N   0  0  0  0  0  0  0  0  0  0  0  0
   -2.6098   -1.9448   -1.1015 C   0  0  0  0  0  0  0  0  0  0  0  0
   -2.2392   -3.1387   -1.6868 C   0  0  0  0  0  0  0  0  0  0  0  0
   -3.1884   -4.0643   -2.0531 C   0  0  0  0  0  0  0  0  0  0  0  0
   -4.5313   -3.8012   -1.8350 C   0  0  0  0  0  0  0  0  0  0  0  0
   -4.9198   -2.6224   -1.2555 C   0  0  0  0  0  0  0  0  0  0  0  0
   -3.9507   -1.6915   -0.8880 C   0  0  0  0  0  0  0  0  0  0  0  0
   -4.0182   -0.4826   -0.3168 N   0  0  0  0  0  0  0  0  0  0  0  0
   -5.2861    0.0939    0.0432 C   0  0  0  0  0  0  0  0  0  0  0  0
   -5.5664    0.3115    1.3557 C   0  0  0  0  0  0  0  0  0  0  0  0
   -6.8018    0.8703    1.6757 C   0  0  0  0  0  0  0  0  0  0  0  0
   -7.1155    1.1047    3.0224 N   0  0  0  0  0  0  0  0  0  0  0  0
   -7.6665    1.1720    0.6781 N   0  0  0  0  0  0  0  0  0  0  0  0
   -7.3433    0.9386   -0.5970 C   0  0  0  0  0  0  0  0  0  0  0  0
   -6.1682    0.4067   -0.9061 N   0  0  0  0  0  0  0  0  0  0  0  0
   -0.1161    1.4429    0.3017 C   0  0  0  0  0  0  0  0  0  0  0  0
    4.8188   -0.1372   -0.1847 C   0  0  0  0  0  0  0  0  0  0  0  0
    8.8866   -0.2529    0.8969 H   0  0  0  0  0  0  0  0  0  0  0  0
    8.8906   -1.7182   -0.0953 H   0  0  0  0  0  0  0  0  0  0  0  0
    7.6037   -1.4581    1.2118 H   0  0  0  0  0  0  0  0  0  0  0  0
    7.2005    0.7507   -0.2862 H   0  0  0  0  0  0  0  0  0  0  0  0
    7.4589   -1.3119   -2.4178 H   0  0  0  0  0  0  0  0  0  0  0  0
    7.7009    0.5122   -2.5249 H   0  0  0  0  0  0  0  0  0  0  0  0
    8.9881   -0.4691   -1.8052 H   0  0  0  0  0  0  0  0  0  0  0  0
    6.5471   -2.8953   -1.0523 H   0  0  0  0  0  0  0  0  0  0  0  0
    4.3005   -3.8226   -0.9735 H   0  0  0  0  0  0  0  0  0  0  0  0
    2.3245   -2.3891   -0.3827 H   0  0  0  0  0  0  0  0  0  0  0  0
    1.5635   -0.4077    0.5661 H   0  0  0  0  0  0  0  0  0  0  0  0
    1.9496    3.9588    1.3397 H   0  0  0  0  0  0  0  0  0  0  0  0
   -0.2180    4.9096    1.9511 H   0  0  0  0  0  0  0  0  0  0  0  0
   -2.4913    4.7853    2.1311 H   0  0  0  0  0  0  0  0  0  0  0  0
   -3.1558    3.1519    2.3671 H   0  0  0  0  0  0  0  0  0  0  0  0
   -3.3477    3.8832    0.7616 H   0  0  0  0  0  0  0  0  0  0  0  0
   -3.4415    1.8461    0.7351 H   0  0  0  0  0  0  0  0  0  0  0  0
   -1.1709   -3.3053   -1.8406 H   0  0  0  0  0  0  0  0  0  0  0  0
   -2.8843   -5.0126   -2.5185 H   0  0  0  0  0  0  0  0  0  0  0  0
   -5.2875   -4.5265   -2.1211 H   0  0  0  0  0  0  0  0  0  0  0  0
   -5.9612   -2.4290   -1.0916 H   0  0  0  0  0  0  0  0  0  0  0  0
   -4.8412    0.0523    2.1026 H   0  0  0  0  0  0  0  0  0  0  0  0
   -7.8050    1.8128    3.3051 H   0  0  0  0  0  0  0  0  0  0  0  0
   -6.6501    0.5582    3.7789 H   0  0  0  0  0  0  0  0  0  0  0  0
   -8.0577    1.1919   -1.3637 H   0  0  0  0  0  0  0  0  0  0  0  0
   -0.0376    0.4784   -0.1700 H   0  0  0  0  0  0  0  0  0  0  0  0
    5.0161    0.9218    0.0527 H   0  0  0  0  0  0  0  0  0  0  0  0
  1  2  1  0
  2  3  1  0
  2  4  1  0
  4  5  2  0
  5  6  1  0
  6  7  2  0
  7  8  1  0
  8  9  1  0
  9 10  1  0
 10 11  2  0
 10 12  1  0
 12 13  2  0
 13 14  1  0
 14 15  2  0
 15 16  1  0
 15 17  1  0
 17 18  1  0
 18 19  1  0
 19 20  2  0
 20 21  1  0
 21 22  2  0
 22 23  1  0
 23 24  2  0
 24 25  1  0
 25 26  2  0
 26 27  1  0
 27 28  1  0
 28 29  2  0
 29 30  1  0
 30 31  1  0
 30 32  2  0
 32 33  1  0
 33 34  2  0
 17 35  2  0
  8 36  2  0
 36  4  1  0
 35 12  1  0
 27 19  1  0
 34 28  1  0
 26 21  1  0
  1 37  1  0
  1 38  1  0
  1 39  1  0
  2 40  1  0
  3 41  1  0
  3 42  1  0
  3 43  1  0
  5 44  1  0
  6 45  1  0
  7 46  1  0
  9 47  1  0
 13 48  1  0
 14 49  1  0
 16 50  1  0
 16 51  1  0
 16 52  1  0
 18 53  1  0
 22 54  1  0
 23 55  1  0
 24 56  1  0
 25 57  1  0
 29 58  1  0
 31 59  1  0
 31 60  1  0
 33 61  1  0
 35 62  1  0
 36 63  1  0
M  END
$$$$
[H]C1=C([H])C([H])(F)C([H])([H])C([H])=C1N([H])C(=O)C1(C(=O)N([H])c2c([H])c([H])c(Oc3c([H])c([H])nc4c([H])c(OC([H])([H])C([H])([H])C([H])([H])N5C([H])([H])C([H])([H])OC([H])([H])C5([H])[H])c(OC([H])([H])[H])c([H])c34)c(F)c2[H])C([H])([H])C1([H])[H]
     RDKit          3D

 82 87  0  0  0  0  0  0  0  0999 V2000
    3.9666    3.0495   -1.7322 C   0  0  0  0  0  0  0  0  0  0  0  0
    4.8184    1.9472   -1.5191 O   0  0  0  0  0  0  0  0  0  0  0  0
    4.2779    0.7150   -1.2054 C   0  0  0  0  0  0  0  0  0  0  0  0
    2.9355    0.4830   -1.0834 C   0  0  0  0  0  0  0  0  0  0  0  0
    2.5057   -0.7878   -0.7673 C   0  0  0  0  0  0  0  0  0  0  0  0
    1.1302   -1.0757   -0.6337 C   0  0  0  0  0  0  0  0  0  0  0  0
    0.2693   -0.0306   -0.8259 O   0  0  0  0  0  0  0  0  0  0  0  0
   -1.0898   -0.1642   -0.6451 C   0  0  0  0  0  0  0  0  0  0  0  0
   -1.9847   -0.0120   -1.6950 C   0  0  0  0  0  0  0  0  0  0  0  0
   -3.3381   -0.1282   -1.5809 C   0  0  0  0  0  0  0  0  0  0  0  0
   -3.8905   -0.4214   -0.3289 C   0  0  0  0  0  0  0  0  0  0  0  0
   -5.3238   -0.4986   -0.2135 N   0  0  0  0  0  0  0  0  0  0  0  0
   -5.9613   -1.3830    0.6262 C   0  0  0  0  0  0  0  0  0  0  0  0
   -5.1921   -2.1849    1.2964 O   0  0  0  0  0  0  0  0  0  0  0  0
   -7.4011   -1.5958    0.9101 C   0  0  0  0  0  0  0  0  0  0  0  0
   -7.6820   -2.4618    2.1265 C   0  0  0  0  0  0  0  0  0  0  0  0
   -7.8126   -3.1190    0.8294 C   0  0  0  0  0  0  0  0  0  0  0  0
   -8.4706   -0.6963    0.4763 C   0  0  0  0  0  0  0  0  0  0  0  0
   -9.6747   -1.1656    0.7176 O   0  0  0  0  0  0  0  0  0  0  0  0
   -8.4814    0.5528   -0.1324 N   0  0  0  0  0  0  0  0  0  0  0  0
   -9.7446    1.2195   -0.4499 C   0  0  0  0  0  0  0  0  0  0  0  0
   -9.9496    2.4040    0.0799 C   0  0  0  0  0  0  0  0  0  0  0  0
  -11.1350    3.2347   -0.1097 C   0  0  0  0  0  0  0  0  0  0  0  0
  -12.2008    2.6387   -0.9439 C   0  0  0  0  0  0  0  0  0  0  0  0
  -12.4721    3.4850   -2.0494 F   0  0  0  0  0  0  0  0  0  0  0  0
  -11.8730    1.3187   -1.4859 C   0  0  0  0  0  0  0  0  0  0  0  0
  -10.7586    0.6480   -1.2759 C   0  0  0  0  0  0  0  0  0  0  0  0
   -3.0432   -0.5784    0.7341 C   0  0  0  0  0  0  0  0  0  0  0  0
   -1.6522   -0.4525    0.5863 C   0  0  0  0  0  0  0  0  0  0  0  0
   -0.8827   -0.5957    1.6903 F   0  0  0  0  0  0  0  0  0  0  0  0
    0.7223   -2.3515   -0.3227 C   0  0  0  0  0  0  0  0  0  0  0  0
    1.6378   -3.3635   -0.1352 C   0  0  0  0  0  0  0  0  0  0  0  0
    2.9451   -3.0865   -0.2619 N   0  0  0  0  0  0  0  0  0  0  0  0
    3.3732   -1.8309   -0.5703 C   0  0  0  0  0  0  0  0  0  0  0  0
    4.7330   -1.5901   -0.6954 C   0  0  0  0  0  0  0  0  0  0  0  0
    5.1920   -0.3333   -1.0085 C   0  0  0  0  0  0  0  0  0  0  0  0
    6.5206   -0.0853   -1.1253 O   0  0  0  0  0  0  0  0  0  0  0  0
    7.5310   -0.9938   -0.8772 C   0  0  0  0  0  0  0  0  0  0  0  0
    7.6262   -1.3701    0.5948 C   0  0  0  0  0  0  0  0  0  0  0  0
    7.9359   -0.0985    1.3961 C   0  0  0  0  0  0  0  0  0  0  0  0
    9.1945    0.4265    0.9288 N   0  0  0  0  0  0  0  0  0  0  0  0
    9.4053    1.7864    1.4776 C   0  0  0  0  0  0  0  0  0  0  0  0
   10.8161    2.1639    1.0165 C   0  0  0  0  0  0  0  0  0  0  0  0
   11.2632    1.3549   -0.0281 O   0  0  0  0  0  0  0  0  0  0  0  0
   11.4615    0.0232    0.3872 C   0  0  0  0  0  0  0  0  0  0  0  0
   10.3466   -0.3576    1.3702 C   0  0  0  0  0  0  0  0  0  0  0  0
    4.5770    3.9509   -1.9692 H   0  0  0  0  0  0  0  0  0  0  0  0
    3.3066    3.2216   -0.8582 H   0  0  0  0  0  0  0  0  0  0  0  0
    3.3086    2.7911   -2.5987 H   0  0  0  0  0  0  0  0  0  0  0  0
    2.2243    1.2761   -1.2311 H   0  0  0  0  0  0  0  0  0  0  0  0
   -1.5528    0.2161   -2.6750 H   0  0  0  0  0  0  0  0  0  0  0  0
   -4.0246   -0.0039   -2.4200 H   0  0  0  0  0  0  0  0  0  0  0  0
   -5.8260    0.1518   -0.8369 H   0  0  0  0  0  0  0  0  0  0  0  0
   -6.8106   -2.7138    2.7607 H   0  0  0  0  0  0  0  0  0  0  0  0
   -8.5985   -2.2800    2.7131 H   0  0  0  0  0  0  0  0  0  0  0  0
   -7.0275   -3.7752    0.4011 H   0  0  0  0  0  0  0  0  0  0  0  0
   -8.7992   -3.3162    0.3639 H   0  0  0  0  0  0  0  0  0  0  0  0
   -7.6334    1.0911   -0.3743 H   0  0  0  0  0  0  0  0  0  0  0  0
   -9.1652    2.8388    0.7401 H   0  0  0  0  0  0  0  0  0  0  0  0
  -11.5358    3.5321    0.9159 H   0  0  0  0  0  0  0  0  0  0  0  0
  -10.8538    4.2484   -0.5572 H   0  0  0  0  0  0  0  0  0  0  0  0
  -13.1586    2.5647   -0.3407 H   0  0  0  0  0  0  0  0  0  0  0  0
  -12.6648    0.8691   -2.1323 H   0  0  0  0  0  0  0  0  0  0  0  0
  -10.6018   -0.3227   -1.7168 H   0  0  0  0  0  0  0  0  0  0  0  0
   -3.4037   -0.7893    1.7394 H   0  0  0  0  0  0  0  0  0  0  0  0
   -0.3200   -2.5956   -0.2356 H   0  0  0  0  0  0  0  0  0  0  0  0
    1.2680   -4.3480    0.1079 H   0  0  0  0  0  0  0  0  0  0  0  0
    5.3620   -2.4538   -0.5623 H   0  0  0  0  0  0  0  0  0  0  0  0
    7.4424   -1.9223   -1.5038 H   0  0  0  0  0  0  0  0  0  0  0  0
    8.4920   -0.5348   -1.2249 H   0  0  0  0  0  0  0  0  0  0  0  0
    6.7751   -1.8921    1.0071 H   0  0  0  0  0  0  0  0  0  0  0  0
    8.4922   -2.0400    0.6815 H   0  0  0  0  0  0  0  0  0  0  0  0
    7.1233    0.6400    1.3255 H   0  0  0  0  0  0  0  0  0  0  0  0
    8.0487   -0.4301    2.4644 H   0  0  0  0  0  0  0  0  0  0  0  0
    9.4079    1.7624    2.5778 H   0  0  0  0  0  0  0  0  0  0  0  0
    8.6320    2.4413    1.0296 H   0  0  0  0  0  0  0  0  0  0  0  0
   11.5508    2.0414    1.8480 H   0  0  0  0  0  0  0  0  0  0  0  0
   10.8264    3.2054    0.6080 H   0  0  0  0  0  0  0  0  0  0  0  0
   11.3001   -0.6008   -0.5146 H   0  0  0  0  0  0  0  0  0  0  0  0
   12.4569   -0.1361    0.8078 H   0  0  0  0  0  0  0  0  0  0  0  0
   10.1090   -1.3943    1.4038 H   0  0  0  0  0  0  0  0  0  0  0  0
   10.6797    0.0679    2.3647 H   0  0  0  0  0  0  0  0  0  0  0  0
  1  2  1  0
  2  3  1  0
  3  4  2  0
  4  5  1  0
  5  6  2  0
  6  7  1  0
  7  8  1  0
  8  9  2  0
  9 10  1  0
 10 11  2  0
 11 12  1  0
 12 13  1  0
 13 14  2  0
 13 15  1  0
 15 16  1  0
 16 17  1  0
 15 18  1  0
 18 19  2  0
 18 20  1  0
 20 21  1  0
 21 22  2  0
 22 23  1  0
 23 24  1  0
 24 25  1  0
 24 26  1  0
 26 27  2  0
 11 28  1  0
 28 29  2  0
 29 30  1  0
  6 31  1  0
 31 32  2  0
 32 33  1  0
 33 34  2  0
 34 35  1  0
 35 36  2  0
 36 37  1  0
 37 38  1  0
 38 39  1  0
 39 40  1  0
 40 41  1  0
 41 42  1  0
 42 43  1  0
 43 44  1  0
 44 45  1  0
 45 46  1  0
 36  3  1  0
 46 41  1  0
 34  5  1  0
 29  8  1  0
 17 15  1  0
 27 21  1  0
  1 47  1  0
  1 48  1  0
  1 49  1  0
  4 50  1  0
  9 51  1  0
 10 52  1  0
 12 53  1  0
 16 54  1  0
 16 55  1  0
 17 56  1  0
 17 57  1  0
 20 58  1  0
 22 59  1  0
 23 60  1  0
 23 61  1  0
 24 62  1  0
 26 63  1  0
 27 64  1  0
 28 65  1  0
 31 66  1  0
 32 67  1  0
 35 68  1  0
 38 69  1  0
 38 70  1  0
 39 71  1  0
 39 72  1  0
 40 73  1  0
 40 74  1  0
 42 75  1  0
 42 76  1  0
 43 77  1  0
 43 78  1  0
 45 79  1  0
 45 80  1  0
 46 81  1  0
 46 82  1  0
M  END
$$$$
[H]c1nc(N([H])C([H])([H])C([H])([H])C([H])([H])N2C([H])([H])C([H])([H])N(C([H])([H])[H])C([H])([H])C2([H])[H])nc(-n2c(N([H])c3c([H])c(C(=O)N([H])c4c([H])c([H])c([H])c(C(F)(F)F)c4[H])c([H])c([H])c3C([H])([H])[H])nc3c([H])c([H])c([H])c([H])c32)n1
     RDKit          3D

 82 87  0  0  0  0  0  0  0  0999 V2000
  -11.6629   -1.3990    1.3259 C   0  0  0  0  0  0  0  0  0  0  0  0
  -10.7743   -1.0831    0.2146 N   0  0  0  0  0  0  0  0  0  0  0  0
  -10.2270    0.2699    0.3852 C   0  0  0  0  0  0  0  0  0  0  0  0
   -8.8551    0.1837    0.9994 C   0  0  0  0  0  0  0  0  0  0  0  0
   -7.8667   -0.2957    0.0344 N   0  0  0  0  0  0  0  0  0  0  0  0
   -6.7509   -0.7336    0.7812 C   0  0  0  0  0  0  0  0  0  0  0  0
   -5.4254   -0.7970    0.0255 C   0  0  0  0  0  0  0  0  0  0  0  0
   -5.0517    0.5510   -0.4499 C   0  0  0  0  0  0  0  0  0  0  0  0
   -3.8018    0.6794   -1.0954 N   0  0  0  0  0  0  0  0  0  0  0  0
   -2.5709    0.4549   -0.4434 C   0  0  0  0  0  0  0  0  0  0  0  0
   -2.5721    0.0094    0.8149 N   0  0  0  0  0  0  0  0  0  0  0  0
   -1.4764   -0.1156    1.5781 C   0  0  0  0  0  0  0  0  0  0  0  0
   -0.3154    0.2372    1.0180 N   0  0  0  0  0  0  0  0  0  0  0  0
   -0.2270    0.7089   -0.2719 C   0  0  0  0  0  0  0  0  0  0  0  0
   -1.3567    0.8003   -0.9641 N   0  0  0  0  0  0  0  0  0  0  0  0
    1.0483    1.1835   -0.6465 N   0  0  0  0  0  0  0  0  0  0  0  0
    2.1113    0.5992   -1.1133 C   0  0  0  0  0  0  0  0  0  0  0  0
    2.2668   -0.7466   -1.5246 N   0  0  0  0  0  0  0  0  0  0  0  0
    3.5269   -1.3492   -1.7851 C   0  0  0  0  0  0  0  0  0  0  0  0
    4.6835   -0.8818   -1.2236 C   0  0  0  0  0  0  0  0  0  0  0  0
    5.8871   -1.5235   -1.4229 C   0  0  0  0  0  0  0  0  0  0  0  0
    5.9780   -2.6516   -2.1814 C   0  0  0  0  0  0  0  0  0  0  0  0
    4.8097   -3.1275   -2.7500 C   0  0  0  0  0  0  0  0  0  0  0  0
    3.5799   -2.5113   -2.5772 C   0  0  0  0  0  0  0  0  0  0  0  0
    2.3237   -3.0503   -3.2088 C   0  0  0  0  0  0  0  0  0  0  0  0
    7.0889   -0.9460   -0.7705 C   0  0  0  0  0  0  0  0  0  0  0  0
    8.0969   -0.8644   -1.5248 O   0  0  0  0  0  0  0  0  0  0  0  0
    7.0244   -0.5495    0.5694 N   0  0  0  0  0  0  0  0  0  0  0  0
    8.0157    0.0291    1.3773 C   0  0  0  0  0  0  0  0  0  0  0  0
    7.7937    0.2213    2.7527 C   0  0  0  0  0  0  0  0  0  0  0  0
    8.7536    0.8015    3.5537 C   0  0  0  0  0  0  0  0  0  0  0  0
    9.9657    1.2203    3.0649 C   0  0  0  0  0  0  0  0  0  0  0  0
   10.1859    1.0329    1.7255 C   0  0  0  0  0  0  0  0  0  0  0  0
    9.2270    0.4481    0.9071 C   0  0  0  0  0  0  0  0  0  0  0  0
   11.5008    1.4840    1.1842 C   0  0  0  0  0  0  0  0  0  0  0  0
   12.4831    1.2536    2.1384 F   0  0  0  0  0  0  0  0  0  0  0  0
   11.4038    2.8488    0.9484 F   0  0  0  0  0  0  0  0  0  0  0  0
   11.8221    0.8528    0.0001 F   0  0  0  0  0  0  0  0  0  0  0  0
    3.1256    1.5052   -1.2704 N   0  0  0  0  0  0  0  0  0  0  0  0
    2.6879    2.7054   -0.8899 C   0  0  0  0  0  0  0  0  0  0  0  0
    3.2705    3.9684   -0.8233 C   0  0  0  0  0  0  0  0  0  0  0  0
    2.5152    5.0092   -0.3594 C   0  0  0  0  0  0  0  0  0  0  0  0
    1.1936    4.8396    0.0427 C   0  0  0  0  0  0  0  0  0  0  0  0
    0.6429    3.5867   -0.0334 C   0  0  0  0  0  0  0  0  0  0  0  0
    1.3729    2.5163   -0.4937 C   0  0  0  0  0  0  0  0  0  0  0  0
   -8.5321   -1.3991   -0.6743 C   0  0  0  0  0  0  0  0  0  0  0  0
   -9.6487   -2.0185    0.1194 C   0  0  0  0  0  0  0  0  0  0  0  0
  -12.6250   -1.7380    0.9059 H   0  0  0  0  0  0  0  0  0  0  0  0
  -11.2071   -2.2366    1.8808 H   0  0  0  0  0  0  0  0  0  0  0  0
  -11.7563   -0.5421    2.0349 H   0  0  0  0  0  0  0  0  0  0  0  0
  -10.8886    0.8005    1.0847 H   0  0  0  0  0  0  0  0  0  0  0  0
  -10.2429    0.7586   -0.5916 H   0  0  0  0  0  0  0  0  0  0  0  0
   -8.8782   -0.4675    1.8916 H   0  0  0  0  0  0  0  0  0  0  0  0
   -8.5479    1.1964    1.3102 H   0  0  0  0  0  0  0  0  0  0  0  0
   -6.9211   -1.7100    1.2851 H   0  0  0  0  0  0  0  0  0  0  0  0
   -6.5763    0.0107    1.6119 H   0  0  0  0  0  0  0  0  0  0  0  0
   -5.4625   -1.4833   -0.8287 H   0  0  0  0  0  0  0  0  0  0  0  0
   -4.7027   -1.1788    0.7597 H   0  0  0  0  0  0  0  0  0  0  0  0
   -5.8857    1.0162   -1.0755 H   0  0  0  0  0  0  0  0  0  0  0  0
   -5.1050    1.2335    0.4846 H   0  0  0  0  0  0  0  0  0  0  0  0
   -3.8240    0.9608   -2.1242 H   0  0  0  0  0  0  0  0  0  0  0  0
   -1.5375   -0.4856    2.5974 H   0  0  0  0  0  0  0  0  0  0  0  0
    1.3964   -1.3629   -1.6593 H   0  0  0  0  0  0  0  0  0  0  0  0
    4.6901   -0.0284   -0.5955 H   0  0  0  0  0  0  0  0  0  0  0  0
    6.9400   -3.1273   -2.3062 H   0  0  0  0  0  0  0  0  0  0  0  0
    4.8489   -4.0358   -3.3630 H   0  0  0  0  0  0  0  0  0  0  0  0
    1.7924   -2.2557   -3.7924 H   0  0  0  0  0  0  0  0  0  0  0  0
    1.6652   -3.4899   -2.4487 H   0  0  0  0  0  0  0  0  0  0  0  0
    2.6604   -3.8643   -3.8984 H   0  0  0  0  0  0  0  0  0  0  0  0
    6.0866   -0.7075    1.0669 H   0  0  0  0  0  0  0  0  0  0  0  0
    6.8416   -0.0959    3.1758 H   0  0  0  0  0  0  0  0  0  0  0  0
    8.5870    0.9524    4.6192 H   0  0  0  0  0  0  0  0  0  0  0  0
   10.7211    1.6758    3.6862 H   0  0  0  0  0  0  0  0  0  0  0  0
    9.4964    0.3475   -0.1183 H   0  0  0  0  0  0  0  0  0  0  0  0
    4.2786    4.0771   -1.1401 H   0  0  0  0  0  0  0  0  0  0  0  0
    2.9107    6.0205   -0.2729 H   0  0  0  0  0  0  0  0  0  0  0  0
    0.5904    5.6482    0.4087 H   0  0  0  0  0  0  0  0  0  0  0  0
   -0.3886    3.4076    0.2734 H   0  0  0  0  0  0  0  0  0  0  0  0
   -8.9843   -0.9549   -1.5857 H   0  0  0  0  0  0  0  0  0  0  0  0
   -7.8170   -2.1620   -1.0066 H   0  0  0  0  0  0  0  0  0  0  0  0
   -9.3876   -2.3382    1.1269 H   0  0  0  0  0  0  0  0  0  0  0  0
  -10.0379   -2.8870   -0.4600 H   0  0  0  0  0  0  0  0  0  0  0  0
  1  2  1  0
  2  3  1  0
  3  4  1  0
  4  5  1  0
  5  6  1  0
  6  7  1  0
  7  8  1  0
  8  9  1  0
  9 10  1  0
 10 11  2  0
 11 12  1  0
 12 13  2  0
 13 14  1  0
 14 15  2  0
 14 16  1  0
 16 17  1  0
 17 18  1  0
 18 19  1  0
 19 20  2  0
 20 21  1  0
 21 22  2  0
 22 23  1  0
 23 24  2  0
 24 25  1  0
 21 26  1  0
 26 27  2  0
 26 28  1  0
 28 29  1  0
 29 30  2  0
 30 31  1  0
 31 32  2  0
 32 33  1  0
 33 34  2  0
 33 35  1  0
 35 36  1  0
 35 37  1  0
 35 38  1  0
 17 39  2  0
 39 40  1  0
 40 41  2  0
 41 42  1  0
 42 43  2  0
 43 44  1  0
 44 45  2  0
  5 46  1  0
 46 47  1  0
 47  2  1  0
 15 10  1  0
 45 16  1  0
 24 19  1  0
 34 29  1  0
 45 40  1  0
  1 48  1  0
  1 49  1  0
  1 50  1  0
  3 51  1  0
  3 52  1  0
  4 53  1  0
  4 54  1  0
  6 55  1  0
  6 56  1  0
  7 57  1  0
  7 58  1  0
  8 59  1  0
  8 60  1  0
  9 61  1  0
 12 62  1  0
 18 63  1  0
 20 64  1  0
 22 65  1  0
 23 66  1  0
 25 67  1  0
 25 68  1  0
 25 69  1  0
 28 70  1  0
 30 71  1  0
 31 72  1  0
 32 73  1  0
 34 74  1  0
 41 75  1  0
 42 76  1  0
 43 77  1  0
 44 78  1  0
 46 79  1  0
 46 80  1  0
 47 81  1  0
 47 82  1  0
M  END
$$$$
[H]c1nc(N([H])[H])c([H])c(-n2c(N([H])c3c([H])c(C(=O)N([H])c4c([H])c([H])c([H])c(C(C([H])([H])[H])(C([H])([H])[H])C([H])([H])[H])c4[H])c([H])c([H])c3C([H])([H])[H])nc3c([H])c([H])c([H])c([H])c32)n1
     RDKit          3D

 66 70  0  0  0  0  0  0  0  0999 V2000
   -2.7318    3.3660   -1.4174 C   0  0  0  0  0  0  0  0  0  0  0  0
   -1.5770    2.4892   -1.0976 C   0  0  0  0  0  0  0  0  0  0  0  0
   -0.3205    3.0140   -1.3078 C   0  0  0  0  0  0  0  0  0  0  0  0
    0.8039    2.2802   -1.0538 C   0  0  0  0  0  0  0  0  0  0  0  0
    0.6496    0.9773   -0.5724 C   0  0  0  0  0  0  0  0  0  0  0  0
   -0.5982    0.4497   -0.3622 C   0  0  0  0  0  0  0  0  0  0  0  0
   -1.7583    1.1762   -0.6113 C   0  0  0  0  0  0  0  0  0  0  0  0
   -3.0587    0.7738   -0.3888 N   0  0  0  0  0  0  0  0  0  0  0  0
   -3.5880   -0.5148   -0.1527 C   0  0  0  0  0  0  0  0  0  0  0  0
   -2.9655   -1.7120   -0.1218 N   0  0  0  0  0  0  0  0  0  0  0  0
   -3.8513   -2.7076    0.1162 C   0  0  0  0  0  0  0  0  0  0  0  0
   -3.7204   -4.0820    0.2202 C   0  0  0  0  0  0  0  0  0  0  0  0
   -4.8587   -4.8613    0.4534 C   0  0  0  0  0  0  0  0  0  0  0  0
   -6.0605   -4.1913    0.5677 C   0  0  0  0  0  0  0  0  0  0  0  0
   -6.2168   -2.8485    0.4702 C   0  0  0  0  0  0  0  0  0  0  0  0
   -5.0595   -2.0711    0.2343 C   0  0  0  0  0  0  0  0  0  0  0  0
   -4.9225   -0.7475    0.0768 N   0  0  0  0  0  0  0  0  0  0  0  0
   -5.9851    0.1948    0.1399 C   0  0  0  0  0  0  0  0  0  0  0  0
   -6.2855    1.0120   -0.9205 C   0  0  0  0  0  0  0  0  0  0  0  0
   -7.3310    1.9162   -0.8031 C   0  0  0  0  0  0  0  0  0  0  0  0
   -7.6391    2.7647   -1.8841 N   0  0  0  0  0  0  0  0  0  0  0  0
   -8.0540    1.9914    0.3553 N   0  0  0  0  0  0  0  0  0  0  0  0
   -7.7406    1.1761    1.3840 C   0  0  0  0  0  0  0  0  0  0  0  0
   -6.7276    0.3184    1.2342 N   0  0  0  0  0  0  0  0  0  0  0  0
    1.9341    0.3125   -0.3066 C   0  0  0  0  0  0  0  0  0  0  0  0
    2.4797   -0.4050   -1.1720 O   0  0  0  0  0  0  0  0  0  0  0  0
    2.6013    0.4739    0.9316 N   0  0  0  0  0  0  0  0  0  0  0  0
    3.8590   -0.0483    1.2980 C   0  0  0  0  0  0  0  0  0  0  0  0
    4.0508   -0.5175    2.5688 C   0  0  0  0  0  0  0  0  0  0  0  0
    5.2853   -0.9489    2.9770 C   0  0  0  0  0  0  0  0  0  0  0  0
    6.3444   -0.9120    2.1124 C   0  0  0  0  0  0  0  0  0  0  0  0
    6.1976   -0.4383    0.8006 C   0  0  0  0  0  0  0  0  0  0  0  0
    4.9559   -0.0198    0.4257 C   0  0  0  0  0  0  0  0  0  0  0  0
    7.3456   -0.3733   -0.0992 C   0  0  0  0  0  0  0  0  0  0  0  0
    7.6634   -1.7784   -0.6353 C   0  0  0  0  0  0  0  0  0  0  0  0
    7.2263    0.6121   -1.2262 C   0  0  0  0  0  0  0  0  0  0  0  0
    8.5804   -0.0152    0.7595 C   0  0  0  0  0  0  0  0  0  0  0  0
   -2.3903    4.3630   -1.7804 H   0  0  0  0  0  0  0  0  0  0  0  0
   -3.4328    2.8758   -2.1602 H   0  0  0  0  0  0  0  0  0  0  0  0
   -3.3312    3.4789   -0.4793 H   0  0  0  0  0  0  0  0  0  0  0  0
   -0.2547    4.0417   -1.6844 H   0  0  0  0  0  0  0  0  0  0  0  0
    1.7814    2.7053   -1.2177 H   0  0  0  0  0  0  0  0  0  0  0  0
   -0.6569   -0.5552    0.0120 H   0  0  0  0  0  0  0  0  0  0  0  0
   -3.7941    1.5573   -0.3747 H   0  0  0  0  0  0  0  0  0  0  0  0
   -2.7717   -4.5729    0.1240 H   0  0  0  0  0  0  0  0  0  0  0  0
   -4.7848   -5.9606    0.5368 H   0  0  0  0  0  0  0  0  0  0  0  0
   -6.9636   -4.7933    0.7464 H   0  0  0  0  0  0  0  0  0  0  0  0
   -7.1309   -2.3139    0.5530 H   0  0  0  0  0  0  0  0  0  0  0  0
   -5.7427    1.0055   -1.8660 H   0  0  0  0  0  0  0  0  0  0  0  0
   -8.0847    2.3683   -2.7263 H   0  0  0  0  0  0  0  0  0  0  0  0
   -7.4200    3.7731   -1.8426 H   0  0  0  0  0  0  0  0  0  0  0  0
   -8.3349    1.2516    2.3043 H   0  0  0  0  0  0  0  0  0  0  0  0
    2.0872    1.0626    1.6601 H   0  0  0  0  0  0  0  0  0  0  0  0
    3.2530   -0.5693    3.2962 H   0  0  0  0  0  0  0  0  0  0  0  0
    5.4245   -1.3175    3.9653 H   0  0  0  0  0  0  0  0  0  0  0  0
    7.3006   -1.2406    2.4164 H   0  0  0  0  0  0  0  0  0  0  0  0
    4.7139    0.3508   -0.5559 H   0  0  0  0  0  0  0  0  0  0  0  0
    8.3116   -2.3077    0.0949 H   0  0  0  0  0  0  0  0  0  0  0  0
    8.2594   -1.6491   -1.5812 H   0  0  0  0  0  0  0  0  0  0  0  0
    6.7511   -2.3319   -0.8956 H   0  0  0  0  0  0  0  0  0  0  0  0
    7.2504    0.0862   -2.2340 H   0  0  0  0  0  0  0  0  0  0  0  0
    6.3099    1.1821   -1.1859 H   0  0  0  0  0  0  0  0  0  0  0  0
    8.1382    1.2752   -1.2813 H   0  0  0  0  0  0  0  0  0  0  0  0
    9.4075    0.3345    0.0908 H   0  0  0  0  0  0  0  0  0  0  0  0
    8.9220   -0.9517    1.2282 H   0  0  0  0  0  0  0  0  0  0  0  0
    8.2558    0.7460    1.4629 H   0  0  0  0  0  0  0  0  0  0  0  0
  1  2  1  0
  2  3  2  0
  3  4  1  0
  4  5  2  0
  5  6  1  0
  6  7  2  0
  7  8  1  0
  8  9  1  0
  9 10  2  0
 10 11  1  0
 11 12  2  0
 12 13  1  0
 13 14  2  0
 14 15  1  0
 15 16  2  0
 16 17  1  0
 17 18  1  0
 18 19  2  0
 19 20  1  0
 20 21  1  0
 20 22  2  0
 22 23  1  0
 23 24  2  0
  5 25  1  0
 25 26  2  0
 25 27  1  0
 27 28  1  0
 28 29  2  0
 29 30  1  0
 30 31  2  0
 31 32  1  0
 32 33  2  0
 32 34  1  0
 34 35  1  0
 34 36  1  0
 34 37  1  0
  7  2  1  0
 17  9  1  0
 24 18  1  0
 33 28  1  0
 16 11  1  0
  1 38  1  0
  1 39  1  0
  1 40  1  0
  3 41  1  0
  4 42  1  0
  6 43  1  0
  8 44  1  0
 12 45  1  0
 13 46  1  0
 14 47  1  0
 15 48  1  0
 19 49  1  0
 21 50  1  0
 21 51  1  0
 23 52  1  0
 27 53  1  0
 29 54  1  0
 30 55  1  0
 31 56  1  0
 33 57  1  0
 35 58  1  0
 35 59  1  0
 35 60  1  0
 36 61  1  0
 36 62  1  0
 36 63  1  0
 37 64  1  0
 37 65  1  0
 37 66  1  0
M  END
$$$$
[H]c1nc(N([H])[H])c([H])c(-n2c(N([H])c3c([H])c(N([H])C(=O)c4sc(C(C([H])([H])[H])(C([H])([H])[H])C([H])([H])[H])c([H])c4[H])c([H])c([H])c3C([H])([H])[H])nc3c([H])c([H])c([H])c([H])c32)n1
     RDKit          3D

 63 67  0  0  0  0  0  0  0  0999 V2000
   -2.9680   -2.8474    3.2841 C   0  0  0  0  0  0  0  0  0  0  0  0
   -1.6809   -2.1987    2.9211 C   0  0  0  0  0  0  0  0  0  0  0  0
   -0.5322   -2.6485    3.4821 C   0  0  0  0  0  0  0  0  0  0  0  0
    0.6870   -2.0412    3.1463 C   0  0  0  0  0  0  0  0  0  0  0  0
    0.7048   -1.0012    2.2563 C   0  0  0  0  0  0  0  0  0  0  0  0
    1.9295   -0.3913    1.9112 N   0  0  0  0  0  0  0  0  0  0  0  0
    2.6646   -0.8890    0.8189 C   0  0  0  0  0  0  0  0  0  0  0  0
    2.2248   -1.8641    0.1696 O   0  0  0  0  0  0  0  0  0  0  0  0
    3.9462   -0.3127    0.3918 C   0  0  0  0  0  0  0  0  0  0  0  0
    4.6132    0.7435    0.9398 C   0  0  0  0  0  0  0  0  0  0  0  0
    5.7791    1.1029    0.3811 C   0  0  0  0  0  0  0  0  0  0  0  0
    6.2048    0.3755   -0.6980 C   0  0  0  0  0  0  0  0  0  0  0  0
    4.9620   -0.7810   -0.8917 S   0  0  0  0  0  0  0  0  0  0  0  0
    7.4677    0.5712   -1.4981 C   0  0  0  0  0  0  0  0  0  0  0  0
    7.8167   -0.7333   -2.1977 C   0  0  0  0  0  0  0  0  0  0  0  0
    8.5904    1.0531   -0.6284 C   0  0  0  0  0  0  0  0  0  0  0  0
    7.1786    1.6399   -2.5310 C   0  0  0  0  0  0  0  0  0  0  0  0
   -0.5058   -0.5714    1.7039 C   0  0  0  0  0  0  0  0  0  0  0  0
   -1.7209   -1.1387    2.0059 C   0  0  0  0  0  0  0  0  0  0  0  0
   -2.9401   -0.7367    1.4522 N   0  0  0  0  0  0  0  0  0  0  0  0
   -3.1779    0.3372    0.5972 C   0  0  0  0  0  0  0  0  0  0  0  0
   -2.3085    1.2582    0.1198 N   0  0  0  0  0  0  0  0  0  0  0  0
   -2.9136    2.1284   -0.6659 C   0  0  0  0  0  0  0  0  0  0  0  0
   -2.4423    3.2241   -1.3652 C   0  0  0  0  0  0  0  0  0  0  0  0
   -3.3311    3.9614   -2.1213 C   0  0  0  0  0  0  0  0  0  0  0  0
   -4.6611    3.5863   -2.1579 C   0  0  0  0  0  0  0  0  0  0  0  0
   -5.1193    2.4901   -1.4535 C   0  0  0  0  0  0  0  0  0  0  0  0
   -4.2364    1.7394   -0.6891 C   0  0  0  0  0  0  0  0  0  0  0  0
   -4.4154    0.6535    0.0726 N   0  0  0  0  0  0  0  0  0  0  0  0
   -5.6113   -0.0514    0.3114 C   0  0  0  0  0  0  0  0  0  0  0  0
   -6.0108   -1.0234   -0.6076 C   0  0  0  0  0  0  0  0  0  0  0  0
   -7.1757   -1.7335   -0.4146 C   0  0  0  0  0  0  0  0  0  0  0  0
   -7.6240   -2.7286   -1.3197 N   0  0  0  0  0  0  0  0  0  0  0  0
   -7.9205   -1.4703    0.6801 N   0  0  0  0  0  0  0  0  0  0  0  0
   -7.5521   -0.5419    1.5689 C   0  0  0  0  0  0  0  0  0  0  0  0
   -6.4242    0.1308    1.3619 N   0  0  0  0  0  0  0  0  0  0  0  0
   -3.6774   -2.0471    3.6178 H   0  0  0  0  0  0  0  0  0  0  0  0
   -2.8014   -3.5480    4.1130 H   0  0  0  0  0  0  0  0  0  0  0  0
   -3.3611   -3.4124    2.4222 H   0  0  0  0  0  0  0  0  0  0  0  0
   -0.5543   -3.4872    4.1938 H   0  0  0  0  0  0  0  0  0  0  0  0
    1.5552   -2.4543    3.6304 H   0  0  0  0  0  0  0  0  0  0  0  0
    2.2848    0.4398    2.4766 H   0  0  0  0  0  0  0  0  0  0  0  0
    4.1842    1.2763    1.8214 H   0  0  0  0  0  0  0  0  0  0  0  0
    6.4131    1.9433    0.7358 H   0  0  0  0  0  0  0  0  0  0  0  0
    6.8847   -1.3330   -2.3701 H   0  0  0  0  0  0  0  0  0  0  0  0
    8.3155   -0.5465   -3.1741 H   0  0  0  0  0  0  0  0  0  0  0  0
    8.5500   -1.2654   -1.5760 H   0  0  0  0  0  0  0  0  0  0  0  0
    8.6008    2.1716   -0.6198 H   0  0  0  0  0  0  0  0  0  0  0  0
    8.5086    0.7005    0.4163 H   0  0  0  0  0  0  0  0  0  0  0  0
    9.5449    0.7262   -1.0999 H   0  0  0  0  0  0  0  0  0  0  0  0
    6.8686    1.1991   -3.5095 H   0  0  0  0  0  0  0  0  0  0  0  0
    6.3589    2.3065   -2.2167 H   0  0  0  0  0  0  0  0  0  0  0  0
    8.1350    2.1970   -2.7278 H   0  0  0  0  0  0  0  0  0  0  0  0
   -0.4047    0.2521    1.0015 H   0  0  0  0  0  0  0  0  0  0  0  0
   -3.7853   -1.3305    1.7203 H   0  0  0  0  0  0  0  0  0  0  0  0
   -1.4250    3.5512   -1.3632 H   0  0  0  0  0  0  0  0  0  0  0  0
   -2.9921    4.8342   -2.6855 H   0  0  0  0  0  0  0  0  0  0  0  0
   -5.3498    4.1777   -2.7653 H   0  0  0  0  0  0  0  0  0  0  0  0
   -6.1481    2.1817   -1.4642 H   0  0  0  0  0  0  0  0  0  0  0  0
   -5.4099   -1.2227   -1.4709 H   0  0  0  0  0  0  0  0  0  0  0  0
   -7.5938   -2.5793   -2.3484 H   0  0  0  0  0  0  0  0  0  0  0  0
   -7.9922   -3.6362   -0.9630 H   0  0  0  0  0  0  0  0  0  0  0  0
   -8.2067   -0.3860    2.4240 H   0  0  0  0  0  0  0  0  0  0  0  0
  1  2  1  0
  2  3  2  0
  3  4  1  0
  4  5  2  0
  5  6  1  0
  6  7  1  0
  7  8  2  0
  7  9  1  0
  9 10  2  0
 10 11  1  0
 11 12  2  0
 12 13  1  0
 12 14  1  0
 14 15  1  0
 14 16  1  0
 14 17  1  0
  5 18  1  0
 18 19  2  0
 19 20  1  0
 20 21  1  0
 21 22  2  0
 22 23  1  0
 23 24  2  0
 24 25  1  0
 25 26  2  0
 26 27  1  0
 27 28  2  0
 28 29  1  0
 29 30  1  0
 30 31  2  0
 31 32  1  0
 32 33  1  0
 32 34  2  0
 34 35  1  0
 35 36  2  0
 19  2  1  0
 29 21  1  0
 36 30  1  0
 13  9  1  0
 28 23  1  0
  1 37  1  0
  1 38  1  0
  1 39  1  0
  3 40  1  0
  4 41  1  0
  6 42  1  0
 10 43  1  0
 11 44  1  0
 15 45  1  0
 15 46  1  0
 15 47  1  0
 16 48  1  0
 16 49  1  0
 16 50  1  0
 17 51  1  0
 17 52  1  0
 17 53  1  0
 18 54  1  0
 20 55  1  0
 24 56  1  0
 25 57  1  0
 26 58  1  0
 27 59  1  0
 31 60  1  0
 33 61  1  0
 33 62  1  0
 35 63  1  0
M  END
$$$$
[H]/C(C(=O)N([H])c1c(OC([H])([H])[H])c([H])c2nc(N([H])c3c([H])c([H])c([H])c([H])c3C([H])([H])[H])c3c([H])nc([H])n3c2c1[H])=C(/[H])C([H])([H])N(C([H])([H])[H])C([H])([H])[H]
     RDKit          3D

 58 61  0  0  0  0  0  0  0  0999 V2000
    1.6617    1.3240    3.6108 C   0  0  0  0  0  0  0  0  0  0  0  0
    1.9865    0.6174    2.4326 O   0  0  0  0  0  0  0  0  0  0  0  0
    1.0338    0.5358    1.4308 C   0  0  0  0  0  0  0  0  0  0  0  0
   -0.1980    1.1386    1.6013 C   0  0  0  0  0  0  0  0  0  0  0  0
   -1.1655    1.0779    0.6300 C   0  0  0  0  0  0  0  0  0  0  0  0
   -2.3737    1.6496    0.7569 N   0  0  0  0  0  0  0  0  0  0  0  0
   -3.3377    1.6082   -0.1714 C   0  0  0  0  0  0  0  0  0  0  0  0
   -4.6131    2.1859   -0.0904 N   0  0  0  0  0  0  0  0  0  0  0  0
   -5.2085    2.9258    0.9199 C   0  0  0  0  0  0  0  0  0  0  0  0
   -4.6185    3.2476    2.0994 C   0  0  0  0  0  0  0  0  0  0  0  0
   -5.2645    3.9972    3.0853 C   0  0  0  0  0  0  0  0  0  0  0  0
   -6.5385    4.4391    2.8877 C   0  0  0  0  0  0  0  0  0  0  0  0
   -7.1649    4.1379    1.7191 C   0  0  0  0  0  0  0  0  0  0  0  0
   -6.5126    3.3966    0.7558 C   0  0  0  0  0  0  0  0  0  0  0  0
   -7.2125    3.0760   -0.5170 C   0  0  0  0  0  0  0  0  0  0  0  0
   -2.9894    0.9000   -1.3322 C   0  0  0  0  0  0  0  0  0  0  0  0
   -3.6873    0.6402   -2.4799 C   0  0  0  0  0  0  0  0  0  0  0  0
   -2.8969   -0.0843   -3.2882 N   0  0  0  0  0  0  0  0  0  0  0  0
   -1.7148   -0.2943   -2.6893 C   0  0  0  0  0  0  0  0  0  0  0  0
   -1.7890    0.3182   -1.4869 N   0  0  0  0  0  0  0  0  0  0  0  0
   -0.8514    0.3921   -0.5145 C   0  0  0  0  0  0  0  0  0  0  0  0
    0.3840   -0.2191   -0.6991 C   0  0  0  0  0  0  0  0  0  0  0  0
    1.3685   -0.1686    0.2660 C   0  0  0  0  0  0  0  0  0  0  0  0
    2.6375   -0.7499    0.1727 N   0  0  0  0  0  0  0  0  0  0  0  0
    3.1955   -1.4932   -0.8778 C   0  0  0  0  0  0  0  0  0  0  0  0
    2.6124   -1.7575   -1.9353 O   0  0  0  0  0  0  0  0  0  0  0  0
    4.5838   -1.9953   -0.7027 C   0  0  0  0  0  0  0  0  0  0  0  0
    5.1629   -2.7019   -1.6587 C   0  0  0  0  0  0  0  0  0  0  0  0
    6.5486   -3.2070   -1.4920 C   0  0  0  0  0  0  0  0  0  0  0  0
    6.5822   -4.6677   -1.5722 N   0  0  0  0  0  0  0  0  0  0  0  0
    7.9169   -5.1674   -1.4123 C   0  0  0  0  0  0  0  0  0  0  0  0
    5.6792   -5.1984   -0.5654 C   0  0  0  0  0  0  0  0  0  0  0  0
    2.4201    1.1741    4.4110 H   0  0  0  0  0  0  0  0  0  0  0  0
    0.6957    0.9602    4.0644 H   0  0  0  0  0  0  0  0  0  0  0  0
    1.4928    2.4114    3.4133 H   0  0  0  0  0  0  0  0  0  0  0  0
   -0.4288    1.6815    2.5229 H   0  0  0  0  0  0  0  0  0  0  0  0
   -5.2245    2.0211   -0.9655 H   0  0  0  0  0  0  0  0  0  0  0  0
   -3.6102    2.9223    2.3062 H   0  0  0  0  0  0  0  0  0  0  0  0
   -4.7127    4.2111    4.0085 H   0  0  0  0  0  0  0  0  0  0  0  0
   -7.0266    5.0296    3.6825 H   0  0  0  0  0  0  0  0  0  0  0  0
   -8.1773    4.4893    1.5625 H   0  0  0  0  0  0  0  0  0  0  0  0
   -6.6815    3.4827   -1.4043 H   0  0  0  0  0  0  0  0  0  0  0  0
   -7.2376    1.9572   -0.6224 H   0  0  0  0  0  0  0  0  0  0  0  0
   -8.2375    3.4465   -0.5204 H   0  0  0  0  0  0  0  0  0  0  0  0
   -4.6993    0.9797   -2.6619 H   0  0  0  0  0  0  0  0  0  0  0  0
   -0.8627   -0.8456   -3.0854 H   0  0  0  0  0  0  0  0  0  0  0  0
    0.5767   -0.7528   -1.6351 H   0  0  0  0  0  0  0  0  0  0  0  0
    3.2738   -0.6055    1.0285 H   0  0  0  0  0  0  0  0  0  0  0  0
    5.1313   -1.7886    0.2042 H   0  0  0  0  0  0  0  0  0  0  0  0
    4.6312   -2.9221   -2.5797 H   0  0  0  0  0  0  0  0  0  0  0  0
    6.9342   -2.9549   -0.4830 H   0  0  0  0  0  0  0  0  0  0  0  0
    7.2593   -2.7767   -2.2160 H   0  0  0  0  0  0  0  0  0  0  0  0
    8.2804   -5.0679   -0.3738 H   0  0  0  0  0  0  0  0  0  0  0  0
    8.5921   -4.5752   -2.0684 H   0  0  0  0  0  0  0  0  0  0  0  0
    7.9703   -6.2110   -1.7891 H   0  0  0  0  0  0  0  0  0  0  0  0
    4.7222   -5.4303   -1.0649 H   0  0  0  0  0  0  0  0  0  0  0  0
    5.5933   -4.5667    0.3190 H   0  0  0  0  0  0  0  0  0  0  0  0
    6.1088   -6.1728   -0.2441 H   0  0  0  0  0  0  0  0  0  0  0  0
  1  2  1  0
  2  3  1  0
  3  4  2  0
  4  5  1  0
  5  6  1  0
  6  7  2  0
  7  8  1  0
  8  9  1  0
  9 10  2  0
 10 11  1  0
 11 12  2  0
 12 13  1  0
 13 14  2  0
 14 15  1  0
  7 16  1  0
 16 17  2  0
 17 18  1  0
 18 19  2  0
 19 20  1  0
 20 21  1  0
 21 22  1  0
 22 23  2  0
 23 24  1  0
 24 25  1  0
 25 26  2  0
 25 27  1  0
 27 28  2  0
 28 29  1  0
 29 30  1  0
 30 31  1  0
 30 32  1  0
 23  3  1  0
 21  5  2  0
 14  9  1  0
 20 16  1  0
  1 33  1  0
  1 34  1  0
  1 35  1  0
  4 36  1  0
  8 37  1  0
 10 38  1  0
 11 39  1  0
 12 40  1  0
 13 41  1  0
 15 42  1  0
 15 43  1  0
 15 44  1  0
 17 45  1  0
 19 46  1  0
 22 47  1  0
 24 48  1  0
 27 49  1  0
 28 50  1  0
 29 51  1  0
 29 52  1  0
 31 53  1  0
 31 54  1  0
 31 55  1  0
 32 56  1  0
 32 57  1  0
 32 58  1  0
M  END
$$$$
[H]c1nc2sc(-c3c([H])c(C([H])([H])N(C([H])([H])[H])C([H])([H])[H])c([H])c([H])c3OC([H])([H])[H])c([H])c2c(N([H])c2c([H])c([H])c3c(c([H])c([H])n3[H])c2C([H])([H])[H])c1C#N
     RDKit          3D

 59 63  0  0  0  0  0  0  0  0999 V2000
    5.1244   -2.6586    2.8853 C   0  0  0  0  0  0  0  0  0  0  0  0
    3.8271   -2.3535    2.4037 O   0  0  0  0  0  0  0  0  0  0  0  0
    3.7258   -1.8250    1.1111 C   0  0  0  0  0  0  0  0  0  0  0  0
    4.8394   -1.6057    0.3271 C   0  0  0  0  0  0  0  0  0  0  0  0
    4.7659   -1.0862   -0.9487 C   0  0  0  0  0  0  0  0  0  0  0  0
    3.5430   -0.7581   -1.5019 C   0  0  0  0  0  0  0  0  0  0  0  0
    3.4119   -0.1982   -2.8703 C   0  0  0  0  0  0  0  0  0  0  0  0
    3.5555    1.2421   -2.8806 N   0  0  0  0  0  0  0  0  0  0  0  0
    2.5755    1.9087   -2.0761 C   0  0  0  0  0  0  0  0  0  0  0  0
    3.6926    1.7812   -4.1973 C   0  0  0  0  0  0  0  0  0  0  0  0
    2.4300   -0.9785   -0.7154 C   0  0  0  0  0  0  0  0  0  0  0  0
    2.5036   -1.4964    0.5558 C   0  0  0  0  0  0  0  0  0  0  0  0
    1.3008   -1.7231    1.3745 C   0  0  0  0  0  0  0  0  0  0  0  0
   -0.0018   -1.4782    1.0686 C   0  0  0  0  0  0  0  0  0  0  0  0
   -0.9340   -1.7730    1.9990 C   0  0  0  0  0  0  0  0  0  0  0  0
   -2.3428   -1.6228    1.9501 C   0  0  0  0  0  0  0  0  0  0  0  0
   -2.9662   -1.0882    0.7877 N   0  0  0  0  0  0  0  0  0  0  0  0
   -3.1938    0.3009    0.6166 C   0  0  0  0  0  0  0  0  0  0  0  0
   -2.7982    1.1778    1.5917 C   0  0  0  0  0  0  0  0  0  0  0  0
   -3.0167    2.5195    1.4220 C   0  0  0  0  0  0  0  0  0  0  0  0
   -3.6250    3.0337    0.2986 C   0  0  0  0  0  0  0  0  0  0  0  0
   -3.9507    4.2834   -0.1064 N   0  0  0  0  0  0  0  0  0  0  0  0
   -4.5443    4.2464   -1.3111 C   0  0  0  0  0  0  0  0  0  0  0  0
   -4.5853    2.9075   -1.6638 C   0  0  0  0  0  0  0  0  0  0  0  0
   -4.0184    2.1373   -0.6755 C   0  0  0  0  0  0  0  0  0  0  0  0
   -3.8034    0.7793   -0.5162 C   0  0  0  0  0  0  0  0  0  0  0  0
   -4.2572   -0.1298   -1.6143 C   0  0  0  0  0  0  0  0  0  0  0  0
   -3.1489   -1.9759    2.9953 C   0  0  0  0  0  0  0  0  0  0  0  0
   -2.6276   -2.5051    4.1713 C   0  0  0  0  0  0  0  0  0  0  0  0
   -1.2916   -2.6482    4.2194 N   0  0  0  0  0  0  0  0  0  0  0  0
   -0.4796   -2.2975    3.1786 C   0  0  0  0  0  0  0  0  0  0  0  0
    1.2166   -2.3589    2.9477 S   0  0  0  0  0  0  0  0  0  0  0  0
   -4.5854   -1.7875    2.8587 C   0  0  0  0  0  0  0  0  0  0  0  0
   -5.7316   -1.6447    2.7696 N   0  0  0  0  0  0  0  0  0  0  0  0
    5.1226   -3.0157    3.9182 H   0  0  0  0  0  0  0  0  0  0  0  0
    5.5744   -3.3768    2.1685 H   0  0  0  0  0  0  0  0  0  0  0  0
    5.7666   -1.7412    2.8237 H   0  0  0  0  0  0  0  0  0  0  0  0
    5.7954   -1.8663    0.7694 H   0  0  0  0  0  0  0  0  0  0  0  0
    5.6453   -0.9166   -1.5605 H   0  0  0  0  0  0  0  0  0  0  0  0
    2.4037   -0.4331   -3.2501 H   0  0  0  0  0  0  0  0  0  0  0  0
    4.2093   -0.6323   -3.5066 H   0  0  0  0  0  0  0  0  0  0  0  0
    1.5436    1.6529   -2.3178 H   0  0  0  0  0  0  0  0  0  0  0  0
    2.8071    1.7764   -0.9804 H   0  0  0  0  0  0  0  0  0  0  0  0
    2.7033    3.0065   -2.2504 H   0  0  0  0  0  0  0  0  0  0  0  0
    3.5116    2.8688   -4.2189 H   0  0  0  0  0  0  0  0  0  0  0  0
    4.6982    1.5205   -4.5772 H   0  0  0  0  0  0  0  0  0  0  0  0
    2.9436    1.2456   -4.8485 H   0  0  0  0  0  0  0  0  0  0  0  0
    1.4595   -0.7285   -1.1287 H   0  0  0  0  0  0  0  0  0  0  0  0
   -0.2694   -1.0473    0.0761 H   0  0  0  0  0  0  0  0  0  0  0  0
   -3.2708   -1.7272    0.0276 H   0  0  0  0  0  0  0  0  0  0  0  0
   -2.3127    0.8503    2.5051 H   0  0  0  0  0  0  0  0  0  0  0  0
   -2.7082    3.2276    2.1886 H   0  0  0  0  0  0  0  0  0  0  0  0
   -3.7582    5.1514    0.4569 H   0  0  0  0  0  0  0  0  0  0  0  0
   -4.9029    5.1084   -1.8616 H   0  0  0  0  0  0  0  0  0  0  0  0
   -4.9965    2.5179   -2.5714 H   0  0  0  0  0  0  0  0  0  0  0  0
   -3.4567   -0.3260   -2.3226 H   0  0  0  0  0  0  0  0  0  0  0  0
   -5.0820    0.3871   -2.1441 H   0  0  0  0  0  0  0  0  0  0  0  0
   -4.7416   -1.0606   -1.2008 H   0  0  0  0  0  0  0  0  0  0  0  0
   -3.2949   -2.7668    4.9625 H   0  0  0  0  0  0  0  0  0  0  0  0
  1  2  1  0
  2  3  1  0
  3  4  2  0
  4  5  1  0
  5  6  2  0
  6  7  1  0
  7  8  1  0
  8  9  1  0
  8 10  1  0
  6 11  1  0
 11 12  2  0
 12 13  1  0
 13 14  2  0
 14 15  1  0
 15 16  2  0
 16 17  1  0
 17 18  1  0
 18 19  2  0
 19 20  1  0
 20 21  2  0
 21 22  1  0
 22 23  1  0
 23 24  2  0
 24 25  1  0
 25 26  2  0
 26 27  1  0
 16 28  1  0
 28 29  2  0
 29 30  1  0
 30 31  2  0
 31 32  1  0
 28 33  1  0
 33 34  3  0
 12  3  1  0
 32 13  1  0
 31 15  1  0
 26 18  1  0
 25 21  1  0
  1 35  1  0
  1 36  1  0
  1 37  1  0
  4 38  1  0
  5 39  1  0
  7 40  1  0
  7 41  1  0
  9 42  1  0
  9 43  1  0
  9 44  1  0
 10 45  1  0
 10 46  1  0
 10 47  1  0
 11 48  1  0
 14 49  1  0
 17 50  1  0
 19 51  1  0
 20 52  1  0
 22 53  1  0
 23 54  1  0
 24 55  1  0
 27 56  1  0
 27 57  1  0
 27 58  1  0
 29 59  1  0
M  END
$$$$
[H]c1nc2c([H])c(OC([H])([H])C([H])([H])C([H])([H])N3C([H])([H])C([H])([H])N(C([H])([H])[H])C([H])([H])C3([H])[H])c(OC([H])([H])[H])c([H])c2c(N([H])c2c([H])c(OC([H])([H])[H])c(Cl)c([H])c2Cl)c1C#N
     RDKit          3D

 65 68  0  0  0  0  0  0  0  0999 V2000
   -5.2946    0.1799   -2.9709 C   0  0  0  0  0  0  0  0  0  0  0  0
   -6.0951   -0.9158   -2.5530 O   0  0  0  0  0  0  0  0  0  0  0  0
   -6.1608   -1.1576   -1.1778 C   0  0  0  0  0  0  0  0  0  0  0  0
   -5.4971   -0.3938   -0.2509 C   0  0  0  0  0  0  0  0  0  0  0  0
   -5.5371   -0.6002    1.1107 C   0  0  0  0  0  0  0  0  0  0  0  0
   -4.8166    0.2382    2.0340 N   0  0  0  0  0  0  0  0  0  0  0  0
   -4.0248    1.3195    1.6049 C   0  0  0  0  0  0  0  0  0  0  0  0
   -4.6352    2.5531    1.4917 C   0  0  0  0  0  0  0  0  0  0  0  0
   -3.8290    3.6094    1.0643 C   0  0  0  0  0  0  0  0  0  0  0  0
   -2.5270    3.4300    0.7791 N   0  0  0  0  0  0  0  0  0  0  0  0
   -1.9535    2.2186    0.8968 C   0  0  0  0  0  0  0  0  0  0  0  0
   -0.6053    1.9975    0.6091 C   0  0  0  0  0  0  0  0  0  0  0  0
   -0.0254    0.7512    0.7328 C   0  0  0  0  0  0  0  0  0  0  0  0
    1.3282    0.5594    0.4376 O   0  0  0  0  0  0  0  0  0  0  0  0
    2.1607    1.6065    0.0051 C   0  0  0  0  0  0  0  0  0  0  0  0
    3.5417    1.0243   -0.2125 C   0  0  0  0  0  0  0  0  0  0  0  0
    3.4226   -0.0554   -1.2622 C   0  0  0  0  0  0  0  0  0  0  0  0
    4.6627   -0.6900   -1.5641 N   0  0  0  0  0  0  0  0  0  0  0  0
    5.1982   -1.4923   -0.4904 C   0  0  0  0  0  0  0  0  0  0  0  0
    6.5388   -0.9813   -0.0123 C   0  0  0  0  0  0  0  0  0  0  0  0
    7.5161   -0.9508   -1.0794 N   0  0  0  0  0  0  0  0  0  0  0  0
    8.4297    0.1509   -0.7994 C   0  0  0  0  0  0  0  0  0  0  0  0
    6.9128   -0.6710   -2.3660 C   0  0  0  0  0  0  0  0  0  0  0  0
    5.6339    0.1418   -2.1961 C   0  0  0  0  0  0  0  0  0  0  0  0
   -0.7837   -0.3247    1.1524 C   0  0  0  0  0  0  0  0  0  0  0  0
   -0.1660   -1.5451    1.2609 O   0  0  0  0  0  0  0  0  0  0  0  0
   -0.8182   -2.7273    1.6769 C   0  0  0  0  0  0  0  0  0  0  0  0
   -2.1295   -0.1321    1.4455 C   0  0  0  0  0  0  0  0  0  0  0  0
   -2.6832    1.1246    1.3132 C   0  0  0  0  0  0  0  0  0  0  0  0
   -6.0331    2.7467    1.7978 C   0  0  0  0  0  0  0  0  0  0  0  0
   -7.1560    2.8867    2.0549 N   0  0  0  0  0  0  0  0  0  0  0  0
   -6.3055   -1.6561    1.5519 C   0  0  0  0  0  0  0  0  0  0  0  0
   -6.4410   -2.0259    3.2478 Cl  0  0  0  0  0  0  0  0  0  0  0  0
   -7.0004   -2.4646    0.6587 C   0  0  0  0  0  0  0  0  0  0  0  0
   -6.9278   -2.2166   -0.6919 C   0  0  0  0  0  0  0  0  0  0  0  0
   -7.7733   -3.1886   -1.8765 Cl  0  0  0  0  0  0  0  0  0  0  0  0
   -5.4136    0.3597   -4.0746 H   0  0  0  0  0  0  0  0  0  0  0  0
   -4.2180   -0.0377   -2.8166 H   0  0  0  0  0  0  0  0  0  0  0  0
   -5.5182    1.1093   -2.4102 H   0  0  0  0  0  0  0  0  0  0  0  0
   -4.8824    0.4495   -0.5886 H   0  0  0  0  0  0  0  0  0  0  0  0
   -4.9019    0.0142    3.0487 H   0  0  0  0  0  0  0  0  0  0  0  0
   -4.3295    4.5717    0.9823 H   0  0  0  0  0  0  0  0  0  0  0  0
   -0.0170    2.8280    0.2846 H   0  0  0  0  0  0  0  0  0  0  0  0
    1.7778    1.9385   -1.0008 H   0  0  0  0  0  0  0  0  0  0  0  0
    2.1821    2.4558    0.7154 H   0  0  0  0  0  0  0  0  0  0  0  0
    4.2210    1.8377   -0.5139 H   0  0  0  0  0  0  0  0  0  0  0  0
    3.9285    0.6049    0.7361 H   0  0  0  0  0  0  0  0  0  0  0  0
    2.9821    0.3266   -2.1992 H   0  0  0  0  0  0  0  0  0  0  0  0
    2.7315   -0.8214   -0.8541 H   0  0  0  0  0  0  0  0  0  0  0  0
    5.2338   -2.5366   -0.8312 H   0  0  0  0  0  0  0  0  0  0  0  0
    4.5037   -1.4099    0.3697 H   0  0  0  0  0  0  0  0  0  0  0  0
    6.3881   -0.0055    0.4627 H   0  0  0  0  0  0  0  0  0  0  0  0
    6.9097   -1.6815    0.7631 H   0  0  0  0  0  0  0  0  0  0  0  0
    7.9186    0.8915   -0.1786 H   0  0  0  0  0  0  0  0  0  0  0  0
    9.2446   -0.2873   -0.1540 H   0  0  0  0  0  0  0  0  0  0  0  0
    8.8635    0.5756   -1.7319 H   0  0  0  0  0  0  0  0  0  0  0  0
    7.6268   -0.0558   -2.9818 H   0  0  0  0  0  0  0  0  0  0  0  0
    6.6852   -1.5665   -2.9435 H   0  0  0  0  0  0  0  0  0  0  0  0
    5.9066    1.0433   -1.6186 H   0  0  0  0  0  0  0  0  0  0  0  0
    5.2600    0.4179   -3.1952 H   0  0  0  0  0  0  0  0  0  0  0  0
   -1.6281   -3.0342    0.9852 H   0  0  0  0  0  0  0  0  0  0  0  0
   -0.0534   -3.5288    1.7326 H   0  0  0  0  0  0  0  0  0  0  0  0
   -1.1857   -2.5572    2.7031 H   0  0  0  0  0  0  0  0  0  0  0  0
   -2.7370   -0.9576    1.7739 H   0  0  0  0  0  0  0  0  0  0  0  0
   -7.6050   -3.2933    0.9881 H   0  0  0  0  0  0  0  0  0  0  0  0
  1  2  1  0
  2  3  1  0
  3  4  2  0
  4  5  1  0
  5  6  1  0
  6  7  1  0
  7  8  2  0
  8  9  1  0
  9 10  2  0
 10 11  1  0
 11 12  2  0
 12 13  1  0
 13 14  1  0
 14 15  1  0
 15 16  1  0
 16 17  1  0
 17 18  1  0
 18 19  1  0
 19 20  1  0
 20 21  1  0
 21 22  1  0
 21 23  1  0
 23 24  1  0
 13 25  2  0
 25 26  1  0
 26 27  1  0
 25 28  1  0
 28 29  2  0
  8 30  1  0
 30 31  3  0
  5 32  2  0
 32 33  1  0
 32 34  1  0
 34 35  2  0
 35 36  1  0
 35  3  1  0
 29  7  1  0
 29 11  1  0
 24 18  1  0
  1 37  1  0
  1 38  1  0
  1 39  1  0
  4 40  1  0
  6 41  1  0
  9 42  1  0
 12 43  1  0
 15 44  1  0
 15 45  1  0
 16 46  1  0
 16 47  1  0
 17 48  1  0
 17 49  1  0
 19 50  1  0
 19 51  1  0
 20 52  1  0
 20 53  1  0
 22 54  1  0
 22 55  1  0
 22 56  1  0
 23 57  1  0
 23 58  1  0
 24 59  1  0
 24 60  1  0
 27 61  1  0
 27 62  1  0
 27 63  1  0
 28 64  1  0
 34 65  1  0
M  END
$$$$
[H]C([H])=C([H])C(=O)N1C([H])([H])C([H])([H])C([H])([H])[C@@]([H])(n2nc(-c3c([H])c([H])c(Oc4c([H])c([H])c([H])c([H])c4[H])c([H])c3[H])c3c(N([H])[H])nc([H])nc32)C1([H])[H]
     RDKit          3D

 57 61  0  0  0  0  0  0  0  0999 V2000
    1.5630   -1.3930    2.7239 N   0  0  0  0  0  0  0  0  0  0  0  0
    0.1702   -1.6193    2.5726 C   0  0  0  0  0  0  0  0  0  0  0  0
   -0.5930   -2.0071    3.6025 N   0  0  0  0  0  0  0  0  0  0  0  0
   -1.9155   -2.1806    3.4515 C   0  0  0  0  0  0  0  0  0  0  0  0
   -2.5291   -1.9771    2.2805 N   0  0  0  0  0  0  0  0  0  0  0  0
   -1.8148   -1.5831    1.1948 C   0  0  0  0  0  0  0  0  0  0  0  0
   -2.1273   -1.2972   -0.0601 N   0  0  0  0  0  0  0  0  0  0  0  0
   -1.0498   -0.9517   -0.7108 N   0  0  0  0  0  0  0  0  0  0  0  0
    0.0200   -1.0010    0.1072 C   0  0  0  0  0  0  0  0  0  0  0  0
    1.3974   -0.6530   -0.2620 C   0  0  0  0  0  0  0  0  0  0  0  0
    1.6738    0.6273   -0.7489 C   0  0  0  0  0  0  0  0  0  0  0  0
    2.9370    0.9532   -1.1605 C   0  0  0  0  0  0  0  0  0  0  0  0
    3.9918    0.0665   -1.1238 C   0  0  0  0  0  0  0  0  0  0  0  0
    5.2666    0.4202   -1.5469 O   0  0  0  0  0  0  0  0  0  0  0  0
    6.2303    0.9622   -0.7307 C   0  0  0  0  0  0  0  0  0  0  0  0
    7.1369    0.1916   -0.0282 C   0  0  0  0  0  0  0  0  0  0  0  0
    8.0944    0.7650    0.7845 C   0  0  0  0  0  0  0  0  0  0  0  0
    8.1631    2.1440    0.9111 C   0  0  0  0  0  0  0  0  0  0  0  0
    7.2750    2.9161    0.2239 C   0  0  0  0  0  0  0  0  0  0  0  0
    6.3274    2.3357   -0.5811 C   0  0  0  0  0  0  0  0  0  0  0  0
    3.7076   -1.2003   -0.6399 C   0  0  0  0  0  0  0  0  0  0  0  0
    2.4458   -1.5381   -0.2252 C   0  0  0  0  0  0  0  0  0  0  0  0
   -0.4271   -1.3985    1.3371 C   0  0  0  0  0  0  0  0  0  0  0  0
   -3.4390   -1.3495   -0.6761 C   0  0  2  0  0  0  0  0  0  0  0  0
   -3.4236   -1.1362   -2.1473 C   0  0  0  0  0  0  0  0  0  0  0  0
   -3.8424    0.2532   -2.5565 C   0  0  0  0  0  0  0  0  0  0  0  0
   -3.8245    1.2279   -1.4431 C   0  0  0  0  0  0  0  0  0  0  0  0
   -4.7552    0.7416   -0.3902 N   0  0  0  0  0  0  0  0  0  0  0  0
   -4.5012   -0.5948    0.0738 C   0  0  0  0  0  0  0  0  0  0  0  0
   -5.7853    1.6059    0.0523 C   0  0  0  0  0  0  0  0  0  0  0  0
   -5.8273    2.7802   -0.5438 O   0  0  0  0  0  0  0  0  0  0  0  0
   -6.7919    1.4263    1.0375 C   0  0  0  0  0  0  0  0  0  0  0  0
   -7.0389    0.4252    1.8044 C   0  0  0  0  0  0  0  0  0  0  0  0
    1.9262   -0.4062    2.6762 H   0  0  0  0  0  0  0  0  0  0  0  0
    2.2641   -2.1435    2.8813 H   0  0  0  0  0  0  0  0  0  0  0  0
   -2.5045   -2.4994    4.3210 H   0  0  0  0  0  0  0  0  0  0  0  0
    0.8382    1.3188   -0.7744 H   0  0  0  0  0  0  0  0  0  0  0  0
    3.1365    1.9654   -1.5409 H   0  0  0  0  0  0  0  0  0  0  0  0
    7.1129   -0.8951   -0.1033 H   0  0  0  0  0  0  0  0  0  0  0  0
    8.8156    0.1827    1.3449 H   0  0  0  0  0  0  0  0  0  0  0  0
    8.9001    2.6377    1.5394 H   0  0  0  0  0  0  0  0  0  0  0  0
    7.3288    4.0023    0.3233 H   0  0  0  0  0  0  0  0  0  0  0  0
    5.6111    2.9321   -1.1367 H   0  0  0  0  0  0  0  0  0  0  0  0
    4.5427   -1.8942   -0.6135 H   0  0  0  0  0  0  0  0  0  0  0  0
    2.3016   -2.5493    0.1196 H   0  0  0  0  0  0  0  0  0  0  0  0
   -3.7339   -2.4468   -0.5451 H   0  0  0  0  0  0  0  0  0  0  0  0
   -3.9915   -1.9138   -2.6968 H   0  0  0  0  0  0  0  0  0  0  0  0
   -2.3553   -1.2496   -2.4904 H   0  0  0  0  0  0  0  0  0  0  0  0
   -3.2210    0.6399   -3.4011 H   0  0  0  0  0  0  0  0  0  0  0  0
   -4.8798    0.1880   -2.9434 H   0  0  0  0  0  0  0  0  0  0  0  0
   -4.2451    2.1944   -1.8594 H   0  0  0  0  0  0  0  0  0  0  0  0
   -2.8783    1.4166   -0.9446 H   0  0  0  0  0  0  0  0  0  0  0  0
   -5.4853   -1.1411   -0.0822 H   0  0  0  0  0  0  0  0  0  0  0  0
   -4.3111   -0.5352    1.1439 H   0  0  0  0  0  0  0  0  0  0  0  0
   -7.5033    2.2912    1.1893 H   0  0  0  0  0  0  0  0  0  0  0  0
   -7.8838    0.4369    2.5416 H   0  0  0  0  0  0  0  0  0  0  0  0
   -6.4993   -0.4934    1.8389 H   0  0  0  0  0  0  0  0  0  0  0  0
  1  2  1  0
  2  3  2  0
  3  4  1  0
  4  5  2  0
  5  6  1  0
  6  7  1  0
  7  8  1  0
  8  9  2  0
  9 10  1  0
 10 11  2  0
 11 12  1  0
 12 13  2  0
 13 14  1  0
 14 15  1  0
 15 16  2  0
 16 17  1  0
 17 18  2  0
 18 19  1  0
 19 20  2  0
 13 21  1  0
 21 22  2  0
  9 23  1  0
  7 24  1  0
 24 25  1  0
 25 26  1  0
 26 27  1  0
 27 28  1  0
 28 29  1  0
 28 30  1  0
 30 31  2  0
 30 32  1  0
 32 33  2  3
 23  2  1  0
 29 24  1  0
 23  6  2  0
 22 10  1  0
 20 15  1  0
  1 34  1  0
  1 35  1  0
  4 36  1  0
 11 37  1  0
 12 38  1  0
 16 39  1  0
 17 40  1  0
 18 41  1  0
 19 42  1  0
 20 43  1  0
 21 44  1  0
 22 45  1  0
 24 46  1  6
 25 47  1  0
 25 48  1  0
 26 49  1  0
 26 50  1  0
 27 51  1  0
 27 52  1  0
 29 53  1  0
 29 54  1  0
 32 55  1  0
 33 56  1  0
 33 57  1  0
M  END
$$$$
[H]c1c([H])c([H])c(C([H])([H])[H])c(N([H])c2nc3c([H])c(OC([H])([H])[H])c(N([H])C(=O)C#CC([H])([H])N4C([H])([H])C([H])([H])C([H])([H])C([H])([H])C4([H])[H])c([H])c3n3c([H])nc([H])c23)c1[H]
     RDKit          3D

 63 67  0  0  0  0  0  0  0  0999 V2000
   -0.2498    0.3260   -3.9689 C   0  0  0  0  0  0  0  0  0  0  0  0
    0.3046   -0.0416   -2.7294 O   0  0  0  0  0  0  0  0  0  0  0  0
   -0.4593   -0.1406   -1.5688 C   0  0  0  0  0  0  0  0  0  0  0  0
   -1.8057    0.1117   -1.5586 C   0  0  0  0  0  0  0  0  0  0  0  0
   -2.5765    0.0176   -0.4193 C   0  0  0  0  0  0  0  0  0  0  0  0
   -3.8926    0.2605   -0.4073 N   0  0  0  0  0  0  0  0  0  0  0  0
   -4.6920    0.1821    0.6699 C   0  0  0  0  0  0  0  0  0  0  0  0
   -6.0751    0.4297    0.6916 N   0  0  0  0  0  0  0  0  0  0  0  0
   -6.9334    0.8117   -0.3532 C   0  0  0  0  0  0  0  0  0  0  0  0
   -6.5549    1.0484   -1.6531 C   0  0  0  0  0  0  0  0  0  0  0  0
   -7.4576    1.4338   -2.6553 C   0  0  0  0  0  0  0  0  0  0  0  0
   -8.7837    1.5869   -2.3441 C   0  0  0  0  0  0  0  0  0  0  0  0
   -9.1874    1.3578   -1.0591 C   0  0  0  0  0  0  0  0  0  0  0  0
   -8.3043    0.9803   -0.0762 C   0  0  0  0  0  0  0  0  0  0  0  0
   -8.7508    0.7302    1.3187 C   0  0  0  0  0  0  0  0  0  0  0  0
   -4.0612   -0.1890    1.8712 C   0  0  0  0  0  0  0  0  0  0  0  0
   -4.5850   -0.3560    3.1302 C   0  0  0  0  0  0  0  0  0  0  0  0
   -3.5331   -0.7187    3.9215 N   0  0  0  0  0  0  0  0  0  0  0  0
   -2.4276   -0.7667    3.1684 C   0  0  0  0  0  0  0  0  0  0  0  0
   -2.7387   -0.4430    1.9053 N   0  0  0  0  0  0  0  0  0  0  0  0
   -2.0023   -0.3440    0.7852 C   0  0  0  0  0  0  0  0  0  0  0  0
   -0.6272   -0.5994    0.7655 C   0  0  0  0  0  0  0  0  0  0  0  0
    0.1509   -0.5104   -0.3589 C   0  0  0  0  0  0  0  0  0  0  0  0
    1.5284   -0.7659   -0.3905 N   0  0  0  0  0  0  0  0  0  0  0  0
    2.3853   -1.1570    0.6461 C   0  0  0  0  0  0  0  0  0  0  0  0
    1.9985   -1.3371    1.8050 O   0  0  0  0  0  0  0  0  0  0  0  0
    3.8106   -1.3818    0.4262 C   0  0  0  0  0  0  0  0  0  0  0  0
    4.9833   -1.5848    0.2308 C   0  0  0  0  0  0  0  0  0  0  0  0
    6.3958   -1.8544   -0.0182 C   0  0  0  0  0  0  0  0  0  0  0  0
    7.1987   -0.9763    0.7404 N   0  0  0  0  0  0  0  0  0  0  0  0
    7.1629    0.3717    0.3774 C   0  0  0  0  0  0  0  0  0  0  0  0
    8.1727    1.2832    0.9286 C   0  0  0  0  0  0  0  0  0  0  0  0
    9.1087    0.7006    1.9505 C   0  0  0  0  0  0  0  0  0  0  0  0
    9.5498   -0.6565    1.3908 C   0  0  0  0  0  0  0  0  0  0  0  0
    8.3425   -1.5200    1.3485 C   0  0  0  0  0  0  0  0  0  0  0  0
   -0.6767   -0.6017   -4.4482 H   0  0  0  0  0  0  0  0  0  0  0  0
   -0.9960    1.1383   -3.9095 H   0  0  0  0  0  0  0  0  0  0  0  0
    0.5297    0.6809   -4.6855 H   0  0  0  0  0  0  0  0  0  0  0  0
   -2.2679    0.3968   -2.5030 H   0  0  0  0  0  0  0  0  0  0  0  0
   -6.5409    0.3117    1.6400 H   0  0  0  0  0  0  0  0  0  0  0  0
   -5.5221    0.9427   -1.9477 H   0  0  0  0  0  0  0  0  0  0  0  0
   -7.0747    1.5986   -3.6469 H   0  0  0  0  0  0  0  0  0  0  0  0
   -9.5316    1.8801   -3.0633 H   0  0  0  0  0  0  0  0  0  0  0  0
  -10.2478    1.4787   -0.8045 H   0  0  0  0  0  0  0  0  0  0  0  0
   -8.4949   -0.2894    1.6603 H   0  0  0  0  0  0  0  0  0  0  0  0
   -9.8502    0.9391    1.3636 H   0  0  0  0  0  0  0  0  0  0  0  0
   -8.2738    1.4478    2.0186 H   0  0  0  0  0  0  0  0  0  0  0  0
   -5.6065   -0.2268    3.4225 H   0  0  0  0  0  0  0  0  0  0  0  0
   -1.4489   -1.0236    3.5216 H   0  0  0  0  0  0  0  0  0  0  0  0
   -0.2322   -0.8761    1.7285 H   0  0  0  0  0  0  0  0  0  0  0  0
    2.0440   -0.6543   -1.3372 H   0  0  0  0  0  0  0  0  0  0  0  0
    6.6386   -2.9270    0.0943 H   0  0  0  0  0  0  0  0  0  0  0  0
    6.5797   -1.6285   -1.1089 H   0  0  0  0  0  0  0  0  0  0  0  0
    6.1353    0.7786    0.6156 H   0  0  0  0  0  0  0  0  0  0  0  0
    7.1982    0.4319   -0.7517 H   0  0  0  0  0  0  0  0  0  0  0  0
    8.8296    1.7150    0.1169 H   0  0  0  0  0  0  0  0  0  0  0  0
    7.6999    2.1978    1.3897 H   0  0  0  0  0  0  0  0  0  0  0  0
    9.9904    1.3781    2.0202 H   0  0  0  0  0  0  0  0  0  0  0  0
    8.6555    0.5594    2.9363 H   0  0  0  0  0  0  0  0  0  0  0  0
   10.0562   -0.5278    0.4301 H   0  0  0  0  0  0  0  0  0  0  0  0
   10.2758   -1.0585    2.1307 H   0  0  0  0  0  0  0  0  0  0  0  0
    8.1118   -1.8927    2.3791 H   0  0  0  0  0  0  0  0  0  0  0  0
    8.6252   -2.4579    0.7828 H   0  0  0  0  0  0  0  0  0  0  0  0
  1  2  1  0
  2  3  1  0
  3  4  2  0
  4  5  1  0
  5  6  1  0
  6  7  2  0
  7  8  1  0
  8  9  1  0
  9 10  2  0
 10 11  1  0
 11 12  2  0
 12 13  1  0
 13 14  2  0
 14 15  1  0
  7 16  1  0
 16 17  2  0
 17 18  1  0
 18 19  2  0
 19 20  1  0
 20 21  1  0
 21 22  1  0
 22 23  2  0
 23 24  1  0
 24 25  1  0
 25 26  2  0
 25 27  1  0
 27 28  3  0
 28 29  1  0
 29 30  1  0
 30 31  1  0
 31 32  1  0
 32 33  1  0
 33 34  1  0
 34 35  1  0
 23  3  1  0
 35 30  1  0
 21  5  2  0
 14  9  1  0
 20 16  1  0
  1 36  1  0
  1 37  1  0
  1 38  1  0
  4 39  1  0
  8 40  1  0
 10 41  1  0
 11 42  1  0
 12 43  1  0
 13 44  1  0
 15 45  1  0
 15 46  1  0
 15 47  1  0
 17 48  1  0
 19 49  1  0
 22 50  1  0
 24 51  1  0
 29 52  1  0
 29 53  1  0
 31 54  1  0
 31 55  1  0
 32 56  1  0
 32 57  1  0
 33 58  1  0
 33 59  1  0
 34 60  1  0
 34 61  1  0
 35 62  1  0
 35 63  1  0
M  END
$$$$
[H]c1c([H])c([H])c2c(c1[H])c1c3c(c4c5c([H])c([H])c([H])c([H])c5n5c4c1n2[C@@]1(C([H])([H])[H])O[C@]5([H])C([H])([H])[C@@]([H])(N([H])C([H])([H])[H])[C@@]1([H])OC([H])([H])[H])C(=O)N([H])C3([H])[H]
     RDKit          3D

 61 68  0  0  0  0  0  0  0  0999 V2000
   -3.3415   -2.0929    0.8927 C   0  0  0  0  0  0  0  0  0  0  0  0
   -2.7520   -0.8244    0.5060 N   0  0  0  0  0  0  0  0  0  0  0  0
   -2.5947   -0.7699   -0.9652 C   0  0  2  0  0  0  0  0  0  0  0  0
   -1.6635   -1.8336   -1.3456 C   0  0  0  0  0  0  0  0  0  0  0  0
   -0.4098   -1.3263   -1.9401 C   0  0  1  0  0  0  0  0  0  0  0  0
   -0.2904   -0.0961   -2.3609 O   0  0  0  0  0  0  0  0  0  0  0  0
   -0.9141    0.9817   -1.7381 C   0  0  1  0  0  0  0  0  0  0  0  0
   -0.8729    2.0231   -2.8643 C   0  0  0  0  0  0  0  0  0  0  0  0
   -2.2914    0.6326   -1.4119 C   0  0  2  0  0  0  0  0  0  0  0  0
   -2.9229    1.4324   -0.4622 O   0  0  0  0  0  0  0  0  0  0  0  0
   -4.0664    2.0564   -0.9455 C   0  0  0  0  0  0  0  0  0  0  0  0
   -0.0747    1.3904   -0.5981 N   0  0  0  0  0  0  0  0  0  0  0  0
    0.0066    2.5943   -0.0347 C   0  0  0  0  0  0  0  0  0  0  0  0
   -0.6403    3.7755   -0.2701 C   0  0  0  0  0  0  0  0  0  0  0  0
   -0.3753    4.9057    0.4704 C   0  0  0  0  0  0  0  0  0  0  0  0
    0.5715    4.8915    1.4994 C   0  0  0  0  0  0  0  0  0  0  0  0
    1.2169    3.7192    1.7374 C   0  0  0  0  0  0  0  0  0  0  0  0
    0.9447    2.6014    0.9941 C   0  0  0  0  0  0  0  0  0  0  0  0
    1.4533    1.3308    1.0530 C   0  0  0  0  0  0  0  0  0  0  0  0
    2.4134    0.7192    1.8621 C   0  0  0  0  0  0  0  0  0  0  0  0
    3.2252    1.2814    2.9656 C   0  0  0  0  0  0  0  0  0  0  0  0
    4.0513    0.2282    3.4563 N   0  0  0  0  0  0  0  0  0  0  0  0
    3.7725   -0.9500    2.6928 C   0  0  0  0  0  0  0  0  0  0  0  0
    4.3602   -2.0093    2.9202 O   0  0  0  0  0  0  0  0  0  0  0  0
    2.7553   -0.6238    1.7110 C   0  0  0  0  0  0  0  0  0  0  0  0
    2.1006   -1.3257    0.7242 C   0  0  0  0  0  0  0  0  0  0  0  0
    2.1422   -2.6347    0.2794 C   0  0  0  0  0  0  0  0  0  0  0  0
    2.8759   -3.7217    0.6638 C   0  0  0  0  0  0  0  0  0  0  0  0
    2.6892   -4.9254    0.0128 C   0  0  0  0  0  0  0  0  0  0  0  0
    1.7808   -5.0386   -1.0084 C   0  0  0  0  0  0  0  0  0  0  0  0
    1.0343   -3.9515   -1.4066 C   0  0  0  0  0  0  0  0  0  0  0  0
    1.2263   -2.7646   -0.7562 C   0  0  0  0  0  0  0  0  0  0  0  0
    0.6469   -1.5975   -0.9447 N   0  0  0  0  0  0  0  0  0  0  0  0
    1.1358   -0.7009   -0.0851 C   0  0  0  0  0  0  0  0  0  0  0  0
    0.8119    0.6350    0.0794 C   0  0  0  0  0  0  0  0  0  0  0  0
   -3.9345   -1.8764    1.8249 H   0  0  0  0  0  0  0  0  0  0  0  0
   -2.5804   -2.8202    1.1896 H   0  0  0  0  0  0  0  0  0  0  0  0
   -4.0376   -2.4413    0.1071 H   0  0  0  0  0  0  0  0  0  0  0  0
   -1.8252   -0.7857    0.9817 H   0  0  0  0  0  0  0  0  0  0  0  0
   -3.6418   -1.0758   -1.3069 H   0  0  0  0  0  0  0  0  0  0  0  0
   -1.4743   -2.5407   -0.4944 H   0  0  0  0  0  0  0  0  0  0  0  0
   -2.1827   -2.5069   -2.1019 H   0  0  0  0  0  0  0  0  0  0  0  0
   -0.1764   -2.0147   -2.8352 H   0  0  0  0  0  0  0  0  0  0  0  0
   -1.8561    2.5173   -2.9808 H   0  0  0  0  0  0  0  0  0  0  0  0
   -0.0367    2.7359   -2.7018 H   0  0  0  0  0  0  0  0  0  0  0  0
   -0.6761    1.5932   -3.8662 H   0  0  0  0  0  0  0  0  0  0  0  0
   -2.9127    0.7625   -2.3525 H   0  0  0  0  0  0  0  0  0  0  0  0
   -4.5472    2.6842   -0.1440 H   0  0  0  0  0  0  0  0  0  0  0  0
   -3.8494    2.7776   -1.7563 H   0  0  0  0  0  0  0  0  0  0  0  0
   -4.7942    1.3294   -1.3803 H   0  0  0  0  0  0  0  0  0  0  0  0
   -1.3647    3.8112   -1.0348 H   0  0  0  0  0  0  0  0  0  0  0  0
   -0.8845    5.8355    0.2847 H   0  0  0  0  0  0  0  0  0  0  0  0
    0.7949    5.7654    2.0918 H   0  0  0  0  0  0  0  0  0  0  0  0
    1.9682    3.6487    2.5304 H   0  0  0  0  0  0  0  0  0  0  0  0
    3.8868    2.0907    2.5395 H   0  0  0  0  0  0  0  0  0  0  0  0
    2.5967    1.6993    3.7873 H   0  0  0  0  0  0  0  0  0  0  0  0
    4.7363    0.3270    4.2421 H   0  0  0  0  0  0  0  0  0  0  0  0
    3.5871   -3.7061    1.4353 H   0  0  0  0  0  0  0  0  0  0  0  0
    3.2659   -5.8106    0.3031 H   0  0  0  0  0  0  0  0  0  0  0  0
    1.6292   -5.9934   -1.5280 H   0  0  0  0  0  0  0  0  0  0  0  0
    0.3048   -4.0175   -2.2172 H   0  0  0  0  0  0  0  0  0  0  0  0
  1  2  1  0
  2  3  1  0
  3  4  1  0
  4  5  1  0
  5  6  1  0
  6  7  1  0
  7  8  1  6
  7  9  1  0
  9 10  1  0
 10 11  1  0
  7 12  1  0
 12 13  1  0
 13 14  2  0
 14 15  1  0
 15 16  2  0
 16 17  1  0
 17 18  2  0
 18 19  1  0
 19 20  2  0
 20 21  1  0
 21 22  1  0
 22 23  1  0
 23 24  2  0
 23 25  1  0
 25 26  2  0
 26 27  1  0
 27 28  2  0
 28 29  1  0
 29 30  2  0
 30 31  1  0
 31 32  2  0
 32 33  1  0
 33 34  1  0
 34 35  2  0
  9  3  1  0
 35 12  1  0
 33  5  1  0
 18 13  1  0
 35 19  1  0
 25 20  1  0
 34 26  1  0
 32 27  1  0
  1 36  1  0
  1 37  1  0
  1 38  1  0
  2 39  1  0
  3 40  1  6
  4 41  1  0
  4 42  1  0
  5 43  1  6
  8 44  1  0
  8 45  1  0
  8 46  1  0
  9 47  1  6
 11 48  1  0
 11 49  1  0
 11 50  1  0
 14 51  1  0
 15 52  1  0
 16 53  1  0
 17 54  1  0
 21 55  1  0
 21 56  1  0
 22 57  1  0
 28 58  1  0
 29 59  1  0
 30 60  1  0
 31 61  1  0
M  END
$$$$
[H]c1nc(N([H])[H])c([H])c(-n2c(N([H])c3c([H])c(N([H])C(=O)c4c([H])c([H])c(C([H])([H])N5C([H])([H])C([H])([H])N(C([H])([H])C([H])([H])[H])C([H])([H])C5([H])[H])c(Cl)c4[H])c([H])c([H])c3C([H])([H])[H])nc3c([H])c([H])c([H])c([H])c32)n1
     RDKit          3D

 77 82  0  0  0  0  0  0  0  0999 V2000
   10.6086    1.2738    0.8161 C   0  0  0  0  0  0  0  0  0  0  0  0
    9.9461    0.5490   -0.3536 C   0  0  0  0  0  0  0  0  0  0  0  0
    8.9481   -0.3819    0.1324 N   0  0  0  0  0  0  0  0  0  0  0  0
    7.8505    0.3742    0.7030 C   0  0  0  0  0  0  0  0  0  0  0  0
    6.9721   -0.6492    1.4048 C   0  0  0  0  0  0  0  0  0  0  0  0
    6.5661   -1.7076    0.5729 N   0  0  0  0  0  0  0  0  0  0  0  0
    5.4603   -2.4881    0.9031 C   0  0  0  0  0  0  0  0  0  0  0  0
    4.1734   -1.7693    0.7712 C   0  0  0  0  0  0  0  0  0  0  0  0
    4.0030   -0.5018    0.2815 C   0  0  0  0  0  0  0  0  0  0  0  0
    2.7385    0.1016    0.1552 C   0  0  0  0  0  0  0  0  0  0  0  0
    1.6229   -0.5571    0.5168 C   0  0  0  0  0  0  0  0  0  0  0  0
    1.7601   -1.8345    1.0123 C   0  0  0  0  0  0  0  0  0  0  0  0
    2.9836   -2.4324    1.1409 C   0  0  0  0  0  0  0  0  0  0  0  0
    3.1468   -4.0670    1.7770 Cl  0  0  0  0  0  0  0  0  0  0  0  0
    0.2766    0.0363    0.3960 C   0  0  0  0  0  0  0  0  0  0  0  0
   -0.6463   -0.5383    1.0329 O   0  0  0  0  0  0  0  0  0  0  0  0
    0.0547    1.1681   -0.3831 N   0  0  0  0  0  0  0  0  0  0  0  0
   -1.1687    1.8402   -0.6002 C   0  0  0  0  0  0  0  0  0  0  0  0
   -1.1538    3.1835   -0.9858 C   0  0  0  0  0  0  0  0  0  0  0  0
   -2.3149    3.8302   -1.2192 C   0  0  0  0  0  0  0  0  0  0  0  0
   -3.5214    3.2166   -1.0922 C   0  0  0  0  0  0  0  0  0  0  0  0
   -4.7901    3.9818   -1.3625 C   0  0  0  0  0  0  0  0  0  0  0  0
   -3.5787    1.8816   -0.7113 C   0  0  0  0  0  0  0  0  0  0  0  0
   -4.8253    1.2808   -0.5846 N   0  0  0  0  0  0  0  0  0  0  0  0
   -5.1286   -0.0660   -0.2105 C   0  0  0  0  0  0  0  0  0  0  0  0
   -4.3331   -1.0921    0.1038 N   0  0  0  0  0  0  0  0  0  0  0  0
   -5.0135   -2.2044    0.4031 C   0  0  0  0  0  0  0  0  0  0  0  0
   -4.6593   -3.4939    0.7818 C   0  0  0  0  0  0  0  0  0  0  0  0
   -5.6006   -4.4642    1.0347 C   0  0  0  0  0  0  0  0  0  0  0  0
   -6.9203   -4.1139    0.8993 C   0  0  0  0  0  0  0  0  0  0  0  0
   -7.2785   -2.8373    0.5240 C   0  0  0  0  0  0  0  0  0  0  0  0
   -6.3453   -1.8528    0.2669 C   0  0  0  0  0  0  0  0  0  0  0  0
   -6.3910   -0.5697   -0.1006 N   0  0  0  0  0  0  0  0  0  0  0  0
   -7.5659    0.1746   -0.3423 C   0  0  0  0  0  0  0  0  0  0  0  0
   -8.0269    1.0316    0.6469 C   0  0  0  0  0  0  0  0  0  0  0  0
   -9.1803    1.8022    0.4890 C   0  0  0  0  0  0  0  0  0  0  0  0
   -9.6315    2.6721    1.5153 N   0  0  0  0  0  0  0  0  0  0  0  0
   -9.8259    1.6695   -0.6812 N   0  0  0  0  0  0  0  0  0  0  0  0
   -9.3779    0.8386   -1.6388 C   0  0  0  0  0  0  0  0  0  0  0  0
   -8.2667    0.0951   -1.4883 N   0  0  0  0  0  0  0  0  0  0  0  0
   -2.3972    1.2176   -0.4726 C   0  0  0  0  0  0  0  0  0  0  0  0
    7.0845   -1.7459   -0.7389 C   0  0  0  0  0  0  0  0  0  0  0  0
    8.4438   -1.1803   -0.9399 C   0  0  0  0  0  0  0  0  0  0  0  0
   11.7114    1.0989    0.7822 H   0  0  0  0  0  0  0  0  0  0  0  0
   10.4861    2.3864    0.7089 H   0  0  0  0  0  0  0  0  0  0  0  0
   10.2417    0.9154    1.7915 H   0  0  0  0  0  0  0  0  0  0  0  0
   10.7093   -0.0483   -0.8977 H   0  0  0  0  0  0  0  0  0  0  0  0
    9.4525    1.3037   -1.0224 H   0  0  0  0  0  0  0  0  0  0  0  0
    8.2226    1.0455    1.5315 H   0  0  0  0  0  0  0  0  0  0  0  0
    7.2963    0.9247   -0.0681 H   0  0  0  0  0  0  0  0  0  0  0  0
    6.1276   -0.1132    1.8550 H   0  0  0  0  0  0  0  0  0  0  0  0
    7.5517   -1.0313    2.3129 H   0  0  0  0  0  0  0  0  0  0  0  0
    5.4276   -3.4682    0.3500 H   0  0  0  0  0  0  0  0  0  0  0  0
    5.5318   -2.8357    1.9870 H   0  0  0  0  0  0  0  0  0  0  0  0
    4.8678    0.0651   -0.0473 H   0  0  0  0  0  0  0  0  0  0  0  0
    2.7165    1.0996   -0.2356 H   0  0  0  0  0  0  0  0  0  0  0  0
    0.8560   -2.3716    1.3068 H   0  0  0  0  0  0  0  0  0  0  0  0
    0.9114    1.5745   -0.8804 H   0  0  0  0  0  0  0  0  0  0  0  0
   -0.2098    3.6615   -1.0847 H   0  0  0  0  0  0  0  0  0  0  0  0
   -2.3274    4.8999   -1.5276 H   0  0  0  0  0  0  0  0  0  0  0  0
   -5.3221    4.0952   -0.4002 H   0  0  0  0  0  0  0  0  0  0  0  0
   -5.3715    3.4388   -2.1350 H   0  0  0  0  0  0  0  0  0  0  0  0
   -4.5652    4.9716   -1.7562 H   0  0  0  0  0  0  0  0  0  0  0  0
   -5.6772    1.9134   -0.7968 H   0  0  0  0  0  0  0  0  0  0  0  0
   -3.6277   -3.7318    0.8760 H   0  0  0  0  0  0  0  0  0  0  0  0
   -5.3346   -5.4789    1.3331 H   0  0  0  0  0  0  0  0  0  0  0  0
   -7.6933   -4.8457    1.0881 H   0  0  0  0  0  0  0  0  0  0  0  0
   -8.3267   -2.5383    0.4105 H   0  0  0  0  0  0  0  0  0  0  0  0
   -7.4876    1.1165    1.5736 H   0  0  0  0  0  0  0  0  0  0  0  0
   -8.9445    3.1568    2.1210 H   0  0  0  0  0  0  0  0  0  0  0  0
  -10.6449    2.8346    1.6734 H   0  0  0  0  0  0  0  0  0  0  0  0
   -9.8970    0.7244   -2.5939 H   0  0  0  0  0  0  0  0  0  0  0  0
   -2.3719    0.1792   -0.1944 H   0  0  0  0  0  0  0  0  0  0  0  0
    6.3732   -1.1875   -1.4202 H   0  0  0  0  0  0  0  0  0  0  0  0
    7.0066   -2.8035   -1.1077 H   0  0  0  0  0  0  0  0  0  0  0  0
    8.4877   -0.5712   -1.8923 H   0  0  0  0  0  0  0  0  0  0  0  0
    9.1256   -2.0520   -1.1773 H   0  0  0  0  0  0  0  0  0  0  0  0
  1  2  1  0
  2  3  1  0
  3  4  1  0
  4  5  1  0
  5  6  1  0
  6  7  1  0
  7  8  1  0
  8  9  2  0
  9 10  1  0
 10 11  2  0
 11 12  1  0
 12 13  2  0
 13 14  1  0
 11 15  1  0
 15 16  2  0
 15 17  1  0
 17 18  1  0
 18 19  2  0
 19 20  1  0
 20 21  2  0
 21 22  1  0
 21 23  1  0
 23 24  1  0
 24 25  1  0
 25 26  2  0
 26 27  1  0
 27 28  2  0
 28 29  1  0
 29 30  2  0
 30 31  1  0
 31 32  2  0
 32 33  1  0
 33 34  1  0
 34 35  2  0
 35 36  1  0
 36 37  1  0
 36 38  2  0
 38 39  1  0
 39 40  2  0
 23 41  2  0
  6 42  1  0
 42 43  1  0
 43  3  1  0
 13  8  1  0
 41 18  1  0
 33 25  1  0
 40 34  1  0
 32 27  1  0
  1 44  1  0
  1 45  1  0
  1 46  1  0
  2 47  1  0
  2 48  1  0
  4 49  1  0
  4 50  1  0
  5 51  1  0
  5 52  1  0
  7 53  1  0
  7 54  1  0
  9 55  1  0
 10 56  1  0
 12 57  1  0
 17 58  1  0
 19 59  1  0
 20 60  1  0
 22 61  1  0
 22 62  1  0
 22 63  1  0
 24 64  1  0
 28 65  1  0
 29 66  1  0
 30 67  1  0
 31 68  1  0
 35 69  1  0
 37 70  1  0
 37 71  1  0
 39 72  1  0
 41 73  1  0
 42 74  1  0
 42 75  1  0
 43 76  1  0
 43 77  1  0
M  END
$$$$
[H]c1c([H])c(N([H])c2nc(N([H])[C@]3([H])C([H])([H])C([H])([H])OC([H])([H])[C@]3([H])N([H])[H])c([H])c3nc([H])n([H])c(=O)c23)c2c(c1[H])c(C([H])([H])[H])c([H])n2[H]
     RDKit          3D

 53 57  0  0  0  0  0  0  0  0999 V2000
    7.0813   -1.1280    2.3877 C   0  0  0  0  0  0  0  0  0  0  0  0
    6.0109   -0.9308    1.4004 C   0  0  0  0  0  0  0  0  0  0  0  0
    6.0880   -1.2731    0.0498 C   0  0  0  0  0  0  0  0  0  0  0  0
    4.9061   -0.9373   -0.5290 N   0  0  0  0  0  0  0  0  0  0  0  0
    4.0805   -0.4053    0.3554 C   0  0  0  0  0  0  0  0  0  0  0  0
    2.7692    0.0932    0.2619 C   0  0  0  0  0  0  0  0  0  0  0  0
    2.1292    0.1001   -1.0259 N   0  0  0  0  0  0  0  0  0  0  0  0
    0.7854    0.3372   -1.2617 C   0  0  0  0  0  0  0  0  0  0  0  0
   -0.1205    0.3854   -0.2414 N   0  0  0  0  0  0  0  0  0  0  0  0
   -1.4274    0.5136   -0.3841 C   0  0  0  0  0  0  0  0  0  0  0  0
   -2.2922    0.5714    0.7700 N   0  0  0  0  0  0  0  0  0  0  0  0
   -3.7093    0.6504    0.6775 C   0  0  2  0  0  0  0  0  0  0  0  0
   -4.2765    0.9261    2.0776 C   0  0  0  0  0  0  0  0  0  0  0  0
   -5.8031    1.0008    1.9364 C   0  0  0  0  0  0  0  0  0  0  0  0
   -6.3379   -0.1868    1.4543 O   0  0  0  0  0  0  0  0  0  0  0  0
   -5.8174   -0.4309    0.1664 C   0  0  0  0  0  0  0  0  0  0  0  0
   -4.3393   -0.6847    0.2818 C   0  0  2  0  0  0  0  0  0  0  0  0
   -4.1648   -1.6641    1.3428 N   0  0  0  0  0  0  0  0  0  0  0  0
   -1.9581    0.6101   -1.6483 C   0  0  0  0  0  0  0  0  0  0  0  0
   -1.0939    0.5690   -2.7222 C   0  0  0  0  0  0  0  0  0  0  0  0
   -1.5662    0.6760   -3.9835 N   0  0  0  0  0  0  0  0  0  0  0  0
   -0.7659    0.6581   -5.0587 C   0  0  0  0  0  0  0  0  0  0  0  0
    0.5532    0.5303   -4.8844 N   0  0  0  0  0  0  0  0  0  0  0  0
    1.1259    0.4148   -3.6406 C   0  0  0  0  0  0  0  0  0  0  0  0
    2.3765    0.3032   -3.5806 O   0  0  0  0  0  0  0  0  0  0  0  0
    0.2826    0.4342   -2.5603 C   0  0  0  0  0  0  0  0  0  0  0  0
    2.2254    0.5756    1.4137 C   0  0  0  0  0  0  0  0  0  0  0  0
    2.8964    0.5940    2.6499 C   0  0  0  0  0  0  0  0  0  0  0  0
    4.1637    0.1047    2.7110 C   0  0  0  0  0  0  0  0  0  0  0  0
    4.7434   -0.3929    1.5502 C   0  0  0  0  0  0  0  0  0  0  0  0
    6.9002   -0.5701    3.3129 H   0  0  0  0  0  0  0  0  0  0  0  0
    7.2042   -2.2163    2.6456 H   0  0  0  0  0  0  0  0  0  0  0  0
    8.0829   -0.8087    1.9994 H   0  0  0  0  0  0  0  0  0  0  0  0
    6.9615   -1.7244   -0.4024 H   0  0  0  0  0  0  0  0  0  0  0  0
    4.7134   -1.0942   -1.5403 H   0  0  0  0  0  0  0  0  0  0  0  0
    2.7874   -0.1234   -1.7916 H   0  0  0  0  0  0  0  0  0  0  0  0
   -1.8244    0.5523    1.7124 H   0  0  0  0  0  0  0  0  0  0  0  0
   -4.1170    1.4103   -0.0041 H   0  0  0  0  0  0  0  0  0  0  0  0
   -4.0589    0.1016    2.7589 H   0  0  0  0  0  0  0  0  0  0  0  0
   -3.9426    1.9140    2.4037 H   0  0  0  0  0  0  0  0  0  0  0  0
   -6.1891    1.1505    2.9686 H   0  0  0  0  0  0  0  0  0  0  0  0
   -6.1072    1.8258    1.2700 H   0  0  0  0  0  0  0  0  0  0  0  0
   -6.0691    0.4001   -0.5092 H   0  0  0  0  0  0  0  0  0  0  0  0
   -6.3023   -1.3604   -0.1902 H   0  0  0  0  0  0  0  0  0  0  0  0
   -3.9542   -1.0390   -0.6625 H   0  0  0  0  0  0  0  0  0  0  0  0
   -3.1930   -2.0460    1.2874 H   0  0  0  0  0  0  0  0  0  0  0  0
   -4.7964   -2.4731    1.0973 H   0  0  0  0  0  0  0  0  0  0  0  0
   -3.0087    0.7261   -1.8544 H   0  0  0  0  0  0  0  0  0  0  0  0
   -1.1980    0.7481   -6.0660 H   0  0  0  0  0  0  0  0  0  0  0  0
    1.2226    0.5115   -5.6919 H   0  0  0  0  0  0  0  0  0  0  0  0
    1.2276    1.0046    1.4351 H   0  0  0  0  0  0  0  0  0  0  0  0
    2.4167    0.9872    3.5267 H   0  0  0  0  0  0  0  0  0  0  0  0
    4.6993    0.1094    3.6544 H   0  0  0  0  0  0  0  0  0  0  0  0
  1  2  1  0
  2  3  2  0
  3  4  1  0
  4  5  1  0
  5  6  2  0
  6  7  1  0
  7  8  1  0
  8  9  2  0
  9 10  1  0
 10 11  1  0
 11 12  1  0
 12 13  1  0
 13 14  1  0
 14 15  1  0
 15 16  1  0
 16 17  1  0
 17 18  1  0
 10 19  2  0
 19 20  1  0
 20 21  1  0
 21 22  2  0
 22 23  1  0
 23 24  1  0
 24 25  2  0
 24 26  1  0
  6 27  1  0
 27 28  2  0
 28 29  1  0
 29 30  2  0
 30  2  1  0
 30  5  1  0
 26  8  1  0
 17 12  1  0
 26 20  2  0
  1 31  1  0
  1 32  1  0
  1 33  1  0
  3 34  1  0
  4 35  1  0
  7 36  1  0
 11 37  1  0
 12 38  1  6
 13 39  1  0
 13 40  1  0
 14 41  1  0
 14 42  1  0
 16 43  1  0
 16 44  1  0
 17 45  1  6
 18 46  1  0
 18 47  1  0
 19 48  1  0
 22 49  1  0
 23 50  1  0
 27 51  1  0
 28 52  1  0
 29 53  1  0
M  END
$$$$
[H]c1nn2c(C#Cc3c([H])c(C(=O)N([H])c4c([H])c([H])c(C([H])([H])N5C([H])([H])C([H])([H])N(C([H])([H])[H])C([H])([H])C5([H])[H])c(C(F)(F)F)c4[H])c([H])c([H])c3C([H])([H])[H])c([H])nc2c([H])c1[H]
     RDKit          3D

 66 70  0  0  0  0  0  0  0  0999 V2000
   -9.0141    0.5418    1.2184 C   0  0  0  0  0  0  0  0  0  0  0  0
   -8.8477   -0.5373    0.2497 N   0  0  0  0  0  0  0  0  0  0  0  0
   -8.5827    0.0899   -1.0334 C   0  0  0  0  0  0  0  0  0  0  0  0
   -7.2552    0.7645   -0.9438 C   0  0  0  0  0  0  0  0  0  0  0  0
   -6.2118   -0.1531   -0.5341 N   0  0  0  0  0  0  0  0  0  0  0  0
   -5.0784    0.5515   -0.2211 C   0  0  0  0  0  0  0  0  0  0  0  0
   -3.8319    0.0140    0.2644 C   0  0  0  0  0  0  0  0  0  0  0  0
   -3.5518   -0.6040    1.4571 C   0  0  0  0  0  0  0  0  0  0  0  0
   -2.2394   -0.9318    1.8952 C   0  0  0  0  0  0  0  0  0  0  0  0
   -1.2224   -0.6514    1.1434 C   0  0  0  0  0  0  0  0  0  0  0  0
    0.1776   -0.9147    1.0432 N   0  0  0  0  0  0  0  0  0  0  0  0
    0.9252    0.3673    0.9712 C   0  0  0  0  0  0  0  0  0  0  0  0
    0.3900    1.4501    1.2745 O   0  0  0  0  0  0  0  0  0  0  0  0
    2.2559    0.2272    0.4429 C   0  0  0  0  0  0  0  0  0  0  0  0
    2.2723    0.7699   -0.8934 C   0  0  0  0  0  0  0  0  0  0  0  0
    3.3216    0.5540   -1.7049 C   0  0  0  0  0  0  0  0  0  0  0  0
    4.3564   -0.1799   -1.2160 C   0  0  0  0  0  0  0  0  0  0  0  0
    5.4628   -0.6335   -2.1215 C   0  0  0  0  0  0  0  0  0  0  0  0
    4.3807   -0.7203    0.0965 C   0  0  0  0  0  0  0  0  0  0  0  0
    3.2907   -0.4872    0.8836 C   0  0  0  0  0  0  0  0  0  0  0  0
    5.6656   -1.1744    0.4682 C   0  0  0  0  0  0  0  0  0  0  0  0
    6.8054   -1.3674    0.6644 C   0  0  0  0  0  0  0  0  0  0  0  0
    8.2411   -1.2901    0.7197 C   0  0  0  0  0  0  0  0  0  0  0  0
    9.2492   -2.1485    0.6677 C   0  0  0  0  0  0  0  0  0  0  0  0
   10.4396   -1.4267    0.6587 N   0  0  0  0  0  0  0  0  0  0  0  0
   10.1682   -0.1244    0.7099 C   0  0  0  0  0  0  0  0  0  0  0  0
   10.9607    1.0611    0.7342 C   0  0  0  0  0  0  0  0  0  0  0  0
   10.3443    2.2758    0.7914 C   0  0  0  0  0  0  0  0  0  0  0  0
    8.9568    2.3238    0.8309 C   0  0  0  0  0  0  0  0  0  0  0  0
    8.2433    1.1733    0.8123 N   0  0  0  0  0  0  0  0  0  0  0  0
    8.8461   -0.0136    0.7488 N   0  0  0  0  0  0  0  0  0  0  0  0
   -1.4856    0.0127   -0.1275 C   0  0  0  0  0  0  0  0  0  0  0  0
   -2.7267    0.3329   -0.5464 C   0  0  0  0  0  0  0  0  0  0  0  0
   -2.8951    0.8514   -1.9142 C   0  0  0  0  0  0  0  0  0  0  0  0
   -3.4853    1.9980   -2.1589 F   0  0  0  0  0  0  0  0  0  0  0  0
   -1.5739    0.9910   -2.4785 F   0  0  0  0  0  0  0  0  0  0  0  0
   -3.4174   -0.1983   -2.7307 F   0  0  0  0  0  0  0  0  0  0  0  0
   -6.5996   -1.4045   -0.2114 C   0  0  0  0  0  0  0  0  0  0  0  0
   -7.8275   -1.3914    0.7322 C   0  0  0  0  0  0  0  0  0  0  0  0
   -8.9944    1.5421    0.7561 H   0  0  0  0  0  0  0  0  0  0  0  0
   -9.9404    0.4070    1.7763 H   0  0  0  0  0  0  0  0  0  0  0  0
   -8.1456    0.5266    1.9416 H   0  0  0  0  0  0  0  0  0  0  0  0
   -9.3429    0.9146   -1.1504 H   0  0  0  0  0  0  0  0  0  0  0  0
   -8.5824   -0.5940   -1.8738 H   0  0  0  0  0  0  0  0  0  0  0  0
   -6.9842    1.2855   -1.8653 H   0  0  0  0  0  0  0  0  0  0  0  0
   -7.3084    1.6045   -0.1677 H   0  0  0  0  0  0  0  0  0  0  0  0
   -5.0019    1.5750   -0.6965 H   0  0  0  0  0  0  0  0  0  0  0  0
   -5.4877    1.0414    0.8917 H   0  0  0  0  0  0  0  0  0  0  0  0
   -4.3664   -0.8563    2.1240 H   0  0  0  0  0  0  0  0  0  0  0  0
   -2.1533   -1.4176    2.8772 H   0  0  0  0  0  0  0  0  0  0  0  0
    0.5883   -1.7873    1.0131 H   0  0  0  0  0  0  0  0  0  0  0  0
    1.4249    1.3704   -1.1553 H   0  0  0  0  0  0  0  0  0  0  0  0
    3.3639    1.0029   -2.6930 H   0  0  0  0  0  0  0  0  0  0  0  0
    5.7303   -1.7156   -1.7572 H   0  0  0  0  0  0  0  0  0  0  0  0
    6.3688   -0.0484   -1.9681 H   0  0  0  0  0  0  0  0  0  0  0  0
    5.1536   -0.7782   -3.1765 H   0  0  0  0  0  0  0  0  0  0  0  0
    3.3252   -0.8897    1.9055 H   0  0  0  0  0  0  0  0  0  0  0  0
    9.0998   -3.2243    0.6154 H   0  0  0  0  0  0  0  0  0  0  0  0
   12.0368    1.0199    0.6456 H   0  0  0  0  0  0  0  0  0  0  0  0
   10.9167    3.2214    0.8053 H   0  0  0  0  0  0  0  0  0  0  0  0
    8.3858    3.2423    0.8728 H   0  0  0  0  0  0  0  0  0  0  0  0
   -0.6206    0.2114   -0.7285 H   0  0  0  0  0  0  0  0  0  0  0  0
   -5.8347   -2.0618    0.3018 H   0  0  0  0  0  0  0  0  0  0  0  0
   -6.9602   -2.0806   -1.0664 H   0  0  0  0  0  0  0  0  0  0  0  0
   -8.1424   -2.4295    0.8356 H   0  0  0  0  0  0  0  0  0  0  0  0
   -7.4357   -1.0792    1.7405 H   0  0  0  0  0  0  0  0  0  0  0  0
  1  2  1  0
  2  3  1  0
  3  4  1  0
  4  5  1  0
  5  6  1  0
  6  7  1  0
  7  8  2  0
  8  9  1  0
  9 10  2  0
 10 11  1  0
 11 12  1  0
 12 13  2  0
 12 14  1  0
 14 15  2  0
 15 16  1  0
 16 17  2  0
 17 18  1  0
 17 19  1  0
 19 20  2  0
 19 21  1  0
 21 22  3  0
 22 23  1  0
 23 24  2  0
 24 25  1  0
 25 26  2  0
 26 27  1  0
 27 28  2  0
 28 29  1  0
 29 30  2  0
 30 31  1  0
 10 32  1  0
 32 33  2  0
 33 34  1  0
 34 35  1  0
 34 36  1  0
 34 37  1  0
  5 38  1  0
 38 39  1  0
 39  2  1  0
 33  7  1  0
 20 14  1  0
 31 23  1  0
 31 26  1  0
  1 40  1  0
  1 41  1  0
  1 42  1  0
  3 43  1  0
  3 44  1  0
  4 45  1  0
  4 46  1  0
  6 47  1  0
  6 48  1  0
  8 49  1  0
  9 50  1  0
 11 51  1  0
 15 52  1  0
 16 53  1  0
 18 54  1  0
 18 55  1  0
 18 56  1  0
 20 57  1  0
 24 58  1  0
 27 59  1  0
 28 60  1  0
 29 61  1  0
 32 62  1  0
 38 63  1  0
 38 64  1  0
 39 65  1  0
 39 66  1  0
M  END
$$$$
[H]/C(C(=O)N1C([H])([H])C([H])([H])C([H])([H])C1([H])[H])=C(/[H])c1sc2nc([H])c(C#N)c(N([H])c3c([H])c([H])c4c(c([H])c([H])n4[H])c3C([H])([H])[H])c2c1[H]
     RDKit          3D

 52 56  0  0  0  0  0  0  0  0999 V2000
    3.5296    2.7202   -0.7824 C   0  0  0  0  0  0  0  0  0  0  0  0
    3.6904    1.4211   -0.0600 C   0  0  0  0  0  0  0  0  0  0  0  0
    3.1996    0.2464   -0.5821 C   0  0  0  0  0  0  0  0  0  0  0  0
    2.5262    0.2909   -1.8427 N   0  0  0  0  0  0  0  0  0  0  0  0
    1.9913   -0.8978   -2.4406 C   0  0  0  0  0  0  0  0  0  0  0  0
    2.7966   -1.6196   -3.2754 C   0  0  0  0  0  0  0  0  0  0  0  0
    2.3784   -2.7845   -3.9054 C   0  0  0  0  0  0  0  0  0  0  0  0
    1.1133   -3.1712   -3.6443 N   0  0  0  0  0  0  0  0  0  0  0  0
    0.3076   -2.4605   -2.8169 C   0  0  0  0  0  0  0  0  0  0  0  0
   -1.3039   -2.6982   -2.3082 S   0  0  0  0  0  0  0  0  0  0  0  0
   -1.4725   -1.3347   -1.2959 C   0  0  0  0  0  0  0  0  0  0  0  0
   -2.6489   -0.8964   -0.5020 C   0  0  0  0  0  0  0  0  0  0  0  0
   -3.7585   -1.5987   -0.5238 C   0  0  0  0  0  0  0  0  0  0  0  0
   -4.9887   -1.3578    0.1563 C   0  0  0  0  0  0  0  0  0  0  0  0
   -5.9102   -2.2471   -0.0715 O   0  0  0  0  0  0  0  0  0  0  0  0
   -5.3578   -0.3166    1.0279 N   0  0  0  0  0  0  0  0  0  0  0  0
   -6.7081   -0.2577    1.6374 C   0  0  0  0  0  0  0  0  0  0  0  0
   -6.5603    0.6777    2.8062 C   0  0  0  0  0  0  0  0  0  0  0  0
   -5.5136    1.6714    2.3557 C   0  0  0  0  0  0  0  0  0  0  0  0
   -4.6076    0.8207    1.4926 C   0  0  0  0  0  0  0  0  0  0  0  0
   -0.2549   -0.7324   -1.3884 C   0  0  0  0  0  0  0  0  0  0  0  0
    0.6688   -1.3071   -2.1710 C   0  0  0  0  0  0  0  0  0  0  0  0
    4.1517   -1.1249   -3.4996 C   0  0  0  0  0  0  0  0  0  0  0  0
    5.2350   -0.7473   -3.6916 N   0  0  0  0  0  0  0  0  0  0  0  0
    3.3560   -0.9470    0.0985 C   0  0  0  0  0  0  0  0  0  0  0  0
    4.0002   -0.9506    1.2908 C   0  0  0  0  0  0  0  0  0  0  0  0
    4.5069    0.2061    1.8483 C   0  0  0  0  0  0  0  0  0  0  0  0
    5.1666    0.4560    2.9859 N   0  0  0  0  0  0  0  0  0  0  0  0
    5.4371    1.7908    3.0482 C   0  0  0  0  0  0  0  0  0  0  0  0
    4.9347    2.3991    1.9198 C   0  0  0  0  0  0  0  0  0  0  0  0
    4.3449    1.4111    1.1536 C   0  0  0  0  0  0  0  0  0  0  0  0
    4.2651    2.7315   -1.6005 H   0  0  0  0  0  0  0  0  0  0  0  0
    2.4886    2.8576   -1.1393 H   0  0  0  0  0  0  0  0  0  0  0  0
    3.7499    3.5795   -0.1230 H   0  0  0  0  0  0  0  0  0  0  0  0
    2.4269    1.2025   -2.3272 H   0  0  0  0  0  0  0  0  0  0  0  0
    3.0531   -3.3123   -4.5518 H   0  0  0  0  0  0  0  0  0  0  0  0
   -2.6036   -0.0125    0.0906 H   0  0  0  0  0  0  0  0  0  0  0  0
   -3.6984   -2.5014   -1.1723 H   0  0  0  0  0  0  0  0  0  0  0  0
   -6.9991   -1.2498    2.0126 H   0  0  0  0  0  0  0  0  0  0  0  0
   -7.4381    0.1709    0.9209 H   0  0  0  0  0  0  0  0  0  0  0  0
   -6.3081    0.1649    3.7408 H   0  0  0  0  0  0  0  0  0  0  0  0
   -7.5093    1.2603    2.9441 H   0  0  0  0  0  0  0  0  0  0  0  0
   -6.0088    2.4671    1.7717 H   0  0  0  0  0  0  0  0  0  0  0  0
   -4.9467    2.1009    3.2308 H   0  0  0  0  0  0  0  0  0  0  0  0
   -4.3310    1.4877    0.6295 H   0  0  0  0  0  0  0  0  0  0  0  0
   -3.7288    0.5075    2.0950 H   0  0  0  0  0  0  0  0  0  0  0  0
   -0.0772    0.2044   -0.8154 H   0  0  0  0  0  0  0  0  0  0  0  0
    2.9420   -1.8490   -0.3709 H   0  0  0  0  0  0  0  0  0  0  0  0
    4.1277   -1.8949    1.8363 H   0  0  0  0  0  0  0  0  0  0  0  0
    5.4142   -0.2761    3.6839 H   0  0  0  0  0  0  0  0  0  0  0  0
    5.9642    2.2620    3.8683 H   0  0  0  0  0  0  0  0  0  0  0  0
    4.9675    3.4379    1.6398 H   0  0  0  0  0  0  0  0  0  0  0  0
  1  2  1  0
  2  3  2  0
  3  4  1  0
  4  5  1  0
  5  6  2  0
  6  7  1  0
  7  8  2  0
  8  9  1  0
  9 10  1  0
 10 11  1  0
 11 12  1  0
 12 13  2  0
 13 14  1  0
 14 15  2  0
 14 16  1  0
 16 17  1  0
 17 18  1  0
 18 19  1  0
 19 20  1  0
 11 21  2  0
 21 22  1  0
  6 23  1  0
 23 24  3  0
  3 25  1  0
 25 26  2  0
 26 27  1  0
 27 28  1  0
 28 29  1  0
 29 30  2  0
 30 31  1  0
 31  2  1  0
 22  5  1  0
 31 27  2  0
 22  9  2  0
 20 16  1  0
  1 32  1  0
  1 33  1  0
  1 34  1  0
  4 35  1  0
  7 36  1  0
 12 37  1  0
 13 38  1  0
 17 39  1  0
 17 40  1  0
 18 41  1  0
 18 42  1  0
 19 43  1  0
 19 44  1  0
 20 45  1  0
 20 46  1  0
 21 47  1  0
 25 48  1  0
 26 49  1  0
 28 50  1  0
 29 51  1  0
 30 52  1  0
M  END
$$$$
[H]c1nc(N([H])c2c([H])nc(N3C([H])([H])C([H])([H])OC([H])([H])C3([H])[H])c([H])c2[H])nc(-c2sc(C([H])(C([H])([H])[H])C([H])([H])[H])nc2-c2c([H])c([H])c(F)c(N([H])S(=O)(=O)c3c(F)c([H])c([H])c([H])c3F)c2[H])c1[H]
     RDKit          3D

 74 79  0  0  0  0  0  0  0  0999 V2000
   -4.8417   -4.5975   -1.6195 C   0  0  0  0  0  0  0  0  0  0  0  0
   -3.5501   -3.9803   -2.1615 C   0  0  0  0  0  0  0  0  0  0  0  0
   -3.9530   -2.8113   -3.0294 C   0  0  0  0  0  0  0  0  0  0  0  0
   -2.7735   -3.4951   -0.9560 C   0  0  0  0  0  0  0  0  0  0  0  0
   -3.0823   -2.5170   -0.1265 N   0  0  0  0  0  0  0  0  0  0  0  0
   -2.2983   -2.2313    0.8683 C   0  0  0  0  0  0  0  0  0  0  0  0
   -1.1554   -2.9869    1.0061 C   0  0  0  0  0  0  0  0  0  0  0  0
   -1.2950   -4.0647   -0.3213 S   0  0  0  0  0  0  0  0  0  0  0  0
   -0.0975   -2.8945    2.0239 C   0  0  0  0  0  0  0  0  0  0  0  0
   -0.2595   -3.5662    3.2177 C   0  0  0  0  0  0  0  0  0  0  0  0
    0.7127   -3.5111    4.2112 C   0  0  0  0  0  0  0  0  0  0  0  0
    1.8055   -2.7835    3.9621 N   0  0  0  0  0  0  0  0  0  0  0  0
    2.0014   -2.1020    2.7870 C   0  0  0  0  0  0  0  0  0  0  0  0
    3.1936   -1.3893    2.6437 N   0  0  0  0  0  0  0  0  0  0  0  0
    3.6359   -0.6027    1.5561 C   0  0  0  0  0  0  0  0  0  0  0  0
    4.9842   -0.2118    1.4891 C   0  0  0  0  0  0  0  0  0  0  0  0
    5.4132    0.5653    0.4500 C   0  0  0  0  0  0  0  0  0  0  0  0
    4.5853    1.0007   -0.5623 C   0  0  0  0  0  0  0  0  0  0  0  0
    3.3057    0.6191   -0.4819 N   0  0  0  0  0  0  0  0  0  0  0  0
    2.8393   -0.1594    0.5449 C   0  0  0  0  0  0  0  0  0  0  0  0
    5.0728    1.8157   -1.6320 N   0  0  0  0  0  0  0  0  0  0  0  0
    4.1334    2.1916   -2.6668 C   0  0  0  0  0  0  0  0  0  0  0  0
    4.6298    3.3517   -3.5055 C   0  0  0  0  0  0  0  0  0  0  0  0
    5.5612    4.1081   -2.7585 O   0  0  0  0  0  0  0  0  0  0  0  0
    6.7082    3.2922   -2.6844 C   0  0  0  0  0  0  0  0  0  0  0  0
    6.4613    2.2347   -1.6488 C   0  0  0  0  0  0  0  0  0  0  0  0
    1.0263   -2.2004    1.8790 N   0  0  0  0  0  0  0  0  0  0  0  0
   -2.5768   -1.1426    1.8440 C   0  0  0  0  0  0  0  0  0  0  0  0
   -3.0172   -1.4587    3.1013 C   0  0  0  0  0  0  0  0  0  0  0  0
   -3.2789   -0.4442    4.0398 C   0  0  0  0  0  0  0  0  0  0  0  0
   -3.1012    0.8795    3.7204 C   0  0  0  0  0  0  0  0  0  0  0  0
   -3.3589    1.8472    4.6394 F   0  0  0  0  0  0  0  0  0  0  0  0
   -2.6547    1.1927    2.4423 C   0  0  0  0  0  0  0  0  0  0  0  0
   -2.4536    2.5400    2.1328 N   0  0  0  0  0  0  0  0  0  0  0  0
   -3.2393    3.4862    0.9598 S   0  0  0  0  0  0  0  0  0  0  0  0
   -4.7119    3.6490    1.2568 O   0  0  0  0  0  0  0  0  0  0  0  0
   -2.6934    4.9095    0.9600 O   0  0  0  0  0  0  0  0  0  0  0  0
   -2.9753    2.8585   -0.6315 C   0  0  0  0  0  0  0  0  0  0  0  0
   -1.8389    3.2349   -1.2888 C   0  0  0  0  0  0  0  0  0  0  0  0
   -0.9238    4.0675   -0.6829 F   0  0  0  0  0  0  0  0  0  0  0  0
   -1.5772    2.7966   -2.5667 C   0  0  0  0  0  0  0  0  0  0  0  0
   -2.4685    1.9555   -3.2225 C   0  0  0  0  0  0  0  0  0  0  0  0
   -3.6098    1.5928   -2.5294 C   0  0  0  0  0  0  0  0  0  0  0  0
   -3.8970    2.0146   -1.2541 C   0  0  0  0  0  0  0  0  0  0  0  0
   -5.0247    1.6441   -0.5966 F   0  0  0  0  0  0  0  0  0  0  0  0
   -2.4013    0.1904    1.5336 C   0  0  0  0  0  0  0  0  0  0  0  0
   -5.7202   -3.9568   -1.8376 H   0  0  0  0  0  0  0  0  0  0  0  0
   -5.0211   -5.5691   -2.1355 H   0  0  0  0  0  0  0  0  0  0  0  0
   -4.7976   -4.7166   -0.5092 H   0  0  0  0  0  0  0  0  0  0  0  0
   -2.9937   -4.7504   -2.6939 H   0  0  0  0  0  0  0  0  0  0  0  0
   -4.8091   -3.1480   -3.6789 H   0  0  0  0  0  0  0  0  0  0  0  0
   -3.1709   -2.4749   -3.7201 H   0  0  0  0  0  0  0  0  0  0  0  0
   -4.3825   -2.0073   -2.3963 H   0  0  0  0  0  0  0  0  0  0  0  0
   -1.1590   -4.1493    3.3904 H   0  0  0  0  0  0  0  0  0  0  0  0
    0.5853   -4.0404    5.1521 H   0  0  0  0  0  0  0  0  0  0  0  0
    3.8646   -1.4555    3.4948 H   0  0  0  0  0  0  0  0  0  0  0  0
    5.6351   -0.5485    2.2754 H   0  0  0  0  0  0  0  0  0  0  0  0
    6.4611    0.8764    0.3866 H   0  0  0  0  0  0  0  0  0  0  0  0
    1.7900   -0.3957    0.5130 H   0  0  0  0  0  0  0  0  0  0  0  0
    3.9446    1.2838   -3.2688 H   0  0  0  0  0  0  0  0  0  0  0  0
    3.1859    2.5541   -2.1709 H   0  0  0  0  0  0  0  0  0  0  0  0
    3.8102    3.9808   -3.8655 H   0  0  0  0  0  0  0  0  0  0  0  0
    5.2085    2.9235   -4.3531 H   0  0  0  0  0  0  0  0  0  0  0  0
    6.8445    2.8591   -3.6951 H   0  0  0  0  0  0  0  0  0  0  0  0
    7.6031    3.9133   -2.4283 H   0  0  0  0  0  0  0  0  0  0  0  0
    6.7564    2.6367   -0.6383 H   0  0  0  0  0  0  0  0  0  0  0  0
    7.1374    1.3773   -1.8416 H   0  0  0  0  0  0  0  0  0  0  0  0
   -3.1772   -2.4895    3.3932 H   0  0  0  0  0  0  0  0  0  0  0  0
   -3.6272   -0.7110    5.0328 H   0  0  0  0  0  0  0  0  0  0  0  0
   -1.7082    3.0483    2.7070 H   0  0  0  0  0  0  0  0  0  0  0  0
   -0.6484    3.1247   -3.0609 H   0  0  0  0  0  0  0  0  0  0  0  0
   -2.2370    1.6312   -4.2169 H   0  0  0  0  0  0  0  0  0  0  0  0
   -4.2983    0.9358   -3.0516 H   0  0  0  0  0  0  0  0  0  0  0  0
   -2.0372    0.3805    0.5326 H   0  0  0  0  0  0  0  0  0  0  0  0
  1  2  1  0
  2  3  1  0
  2  4  1  0
  4  5  2  0
  5  6  1  0
  6  7  2  0
  7  8  1  0
  7  9  1  0
  9 10  2  0
 10 11  1  0
 11 12  2  0
 12 13  1  0
 13 14  1  0
 14 15  1  0
 15 16  2  0
 16 17  1  0
 17 18  2  0
 18 19  1  0
 19 20  2  0
 18 21  1  0
 21 22  1  0
 22 23  1  0
 23 24  1  0
 24 25  1  0
 25 26  1  0
 13 27  2  0
  6 28  1  0
 28 29  2  0
 29 30  1  0
 30 31  2  0
 31 32  1  0
 31 33  1  0
 33 34  1  0
 34 35  1  0
 35 36  2  0
 35 37  2  0
 35 38  1  0
 38 39  2  0
 39 40  1  0
 39 41  1  0
 41 42  2  0
 42 43  1  0
 43 44  2  0
 44 45  1  0
 33 46  2  0
  8  4  1  0
 27  9  1  0
 46 28  1  0
 20 15  1  0
 26 21  1  0
 44 38  1  0
  1 47  1  0
  1 48  1  0
  1 49  1  0
  2 50  1  0
  3 51  1  0
  3 52  1  0
  3 53  1  0
 10 54  1  0
 11 55  1  0
 14 56  1  0
 16 57  1  0
 17 58  1  0
 20 59  1  0
 22 60  1  0
 22 61  1  0
 23 62  1  0
 23 63  1  0
 25 64  1  0
 25 65  1  0
 26 66  1  0
 26 67  1  0
 29 68  1  0
 30 69  1  0
 34 70  1  0
 41 71  1  0
 42 72  1  0
 43 73  1  0
 46 74  1  0
M  END
$$$$
[H]c1c([H])c([H])c(-c2c([H])c([H])c(C(=O)N([H])[H])c3c2c2c([H])c([H])c(C(=O)N4C([H])([H])C([H])([H])N(C([H])([H])[H])C([H])([H])C4([H])[H])c([H])c2n3[H])c(F)c1[H]
     RDKit          3D

 55 59  0  0  0  0  0  0  0  0999 V2000
   -6.8984    0.6804    0.5792 C   0  0  0  0  0  0  0  0  0  0  0  0
   -6.5192   -0.0559   -0.5793 N   0  0  0  0  0  0  0  0  0  0  0  0
   -6.2886   -1.4561   -0.3364 C   0  0  0  0  0  0  0  0  0  0  0  0
   -4.9605   -1.8729    0.0516 C   0  0  0  0  0  0  0  0  0  0  0  0
   -3.8322   -0.9688   -0.2243 N   0  0  0  0  0  0  0  0  0  0  0  0
   -4.1034    0.2854   -0.8313 C   0  0  0  0  0  0  0  0  0  0  0  0
   -5.4732    0.5268   -1.3635 C   0  0  0  0  0  0  0  0  0  0  0  0
   -2.5849   -1.5034    0.1476 C   0  0  0  0  0  0  0  0  0  0  0  0
   -2.7042   -2.7290    0.6403 O   0  0  0  0  0  0  0  0  0  0  0  0
   -1.2545   -0.9750    0.0880 C   0  0  0  0  0  0  0  0  0  0  0  0
   -0.1700   -1.8098    0.4323 C   0  0  0  0  0  0  0  0  0  0  0  0
    1.1334   -1.3800    0.4253 C   0  0  0  0  0  0  0  0  0  0  0  0
    1.4288   -0.0856    0.0700 C   0  0  0  0  0  0  0  0  0  0  0  0
    0.3973    0.7519   -0.2675 C   0  0  0  0  0  0  0  0  0  0  0  0
   -0.9382    0.2925   -0.2540 C   0  0  0  0  0  0  0  0  0  0  0  0
    0.9506    1.9452   -0.5358 N   0  0  0  0  0  0  0  0  0  0  0  0
    2.2679    1.9408   -0.3981 C   0  0  0  0  0  0  0  0  0  0  0  0
    3.2101    2.9273   -0.5394 C   0  0  0  0  0  0  0  0  0  0  0  0
    4.5401    2.6081   -0.2878 C   0  0  0  0  0  0  0  0  0  0  0  0
    4.9076    1.3411    0.0894 C   0  0  0  0  0  0  0  0  0  0  0  0
    3.9207    0.3432    0.2256 C   0  0  0  0  0  0  0  0  0  0  0  0
    4.3576   -1.0169    0.4538 C   0  0  0  0  0  0  0  0  0  0  0  0
    4.2913   -1.9316   -0.5898 C   0  0  0  0  0  0  0  0  0  0  0  0
    4.8188   -3.1969   -0.4258 C   0  0  0  0  0  0  0  0  0  0  0  0
    5.4139   -3.5778    0.7561 C   0  0  0  0  0  0  0  0  0  0  0  0
    5.4692   -2.6577    1.7758 C   0  0  0  0  0  0  0  0  0  0  0  0
    4.9449   -1.3797    1.6327 C   0  0  0  0  0  0  0  0  0  0  0  0
    5.0282   -0.4999    2.6880 F   0  0  0  0  0  0  0  0  0  0  0  0
    2.6035    0.6315   -0.0091 C   0  0  0  0  0  0  0  0  0  0  0  0
    2.9271    4.2909   -0.9359 C   0  0  0  0  0  0  0  0  0  0  0  0
    3.9639    5.2711   -1.0489 N   0  0  0  0  0  0  0  0  0  0  0  0
    1.7505    4.6427   -1.1905 O   0  0  0  0  0  0  0  0  0  0  0  0
   -6.4901    1.6970    0.6479 H   0  0  0  0  0  0  0  0  0  0  0  0
   -6.7035    0.0525    1.4716 H   0  0  0  0  0  0  0  0  0  0  0  0
   -8.0151    0.8023    0.5478 H   0  0  0  0  0  0  0  0  0  0  0  0
   -6.6265   -1.9751   -1.2852 H   0  0  0  0  0  0  0  0  0  0  0  0
   -7.0769   -1.7583    0.4086 H   0  0  0  0  0  0  0  0  0  0  0  0
   -4.6394   -2.8471   -0.4357 H   0  0  0  0  0  0  0  0  0  0  0  0
   -4.9550   -2.1386    1.1487 H   0  0  0  0  0  0  0  0  0  0  0  0
   -3.4208    0.4634   -1.7257 H   0  0  0  0  0  0  0  0  0  0  0  0
   -3.8755    1.1263   -0.1258 H   0  0  0  0  0  0  0  0  0  0  0  0
   -5.6770    1.6377   -1.3901 H   0  0  0  0  0  0  0  0  0  0  0  0
   -5.6103    0.1880   -2.4235 H   0  0  0  0  0  0  0  0  0  0  0  0
   -0.3851   -2.8266    0.7107 H   0  0  0  0  0  0  0  0  0  0  0  0
    1.8953   -2.0896    0.7501 H   0  0  0  0  0  0  0  0  0  0  0  0
   -1.6494    1.0323   -0.5193 H   0  0  0  0  0  0  0  0  0  0  0  0
    0.3504    2.7719   -0.8230 H   0  0  0  0  0  0  0  0  0  0  0  0
    5.3064    3.3723   -0.3902 H   0  0  0  0  0  0  0  0  0  0  0  0
    5.9182    1.0265    0.2994 H   0  0  0  0  0  0  0  0  0  0  0  0
    3.8396   -1.7016   -1.5457 H   0  0  0  0  0  0  0  0  0  0  0  0
    4.7759   -3.9337   -1.2408 H   0  0  0  0  0  0  0  0  0  0  0  0
    5.8320   -4.5799    0.8876 H   0  0  0  0  0  0  0  0  0  0  0  0
    5.9341   -2.9499    2.7049 H   0  0  0  0  0  0  0  0  0  0  0  0
    4.0042    5.8796   -1.8745 H   0  0  0  0  0  0  0  0  0  0  0  0
    4.6701    5.3683   -0.3035 H   0  0  0  0  0  0  0  0  0  0  0  0
  1  2  1  0
  2  3  1  0
  3  4  1  0
  4  5  1  0
  5  6  1  0
  6  7  1  0
  5  8  1  0
  8  9  2  0
  8 10  1  0
 10 11  2  0
 11 12  1  0
 12 13  2  0
 13 14  1  0
 14 15  2  0
 14 16  1  0
 16 17  1  0
 17 18  2  0
 18 19  1  0
 19 20  2  0
 20 21  1  0
 21 22  1  0
 22 23  2  0
 23 24  1  0
 24 25  2  0
 25 26  1  0
 26 27  2  0
 27 28  1  0
 21 29  2  0
 18 30  1  0
 30 31  1  0
 30 32  2  0
  7  2  1  0
 15 10  1  0
 29 17  1  0
 29 13  1  0
 27 22  1  0
  1 33  1  0
  1 34  1  0
  1 35  1  0
  3 36  1  0
  3 37  1  0
  4 38  1  0
  4 39  1  0
  6 40  1  0
  6 41  1  0
  7 42  1  0
  7 43  1  0
 11 44  1  0
 12 45  1  0
 15 46  1  0
 16 47  1  0
 19 48  1  0
 20 49  1  0
 23 50  1  0
 24 51  1  0
 25 52  1  0
 26 53  1  0
 31 54  1  0
 31 55  1  0
M  END
$$$$
[H]c1nc(N([H])[H])c([H])c(-n2c(N([H])c3c([H])c(N([H])C(=O)c4c([H])c(N5C([H])([H])C([H])([H])N(C([H])([H])[H])C([H])([H])C5([H])[H])c([H])c(C(F)(F)F)c4[H])c([H])c([H])c3C([H])([H])[H])nc3c([H])c([H])c([H])c([H])c32)n1
     RDKit          3D

 74 79  0  0  0  0  0  0  0  0999 V2000
    9.1090    1.9846    1.3037 C   0  0  0  0  0  0  0  0  0  0  0  0
    7.7367    1.8826    1.7958 N   0  0  0  0  0  0  0  0  0  0  0  0
    6.7876    2.3752    0.8740 C   0  0  0  0  0  0  0  0  0  0  0  0
    5.3520    2.0367    1.1163 C   0  0  0  0  0  0  0  0  0  0  0  0
    5.3287    0.5978    1.4106 N   0  0  0  0  0  0  0  0  0  0  0  0
    6.0790    0.1926    2.5582 C   0  0  0  0  0  0  0  0  0  0  0  0
    7.5021    0.6776    2.4915 C   0  0  0  0  0  0  0  0  0  0  0  0
    4.6013   -0.2529    0.5654 C   0  0  0  0  0  0  0  0  0  0  0  0
    3.2755   -0.0336    0.2219 C   0  0  0  0  0  0  0  0  0  0  0  0
    2.6282   -0.8784   -0.6458 C   0  0  0  0  0  0  0  0  0  0  0  0
    3.3216   -1.9408   -1.1638 C   0  0  0  0  0  0  0  0  0  0  0  0
    4.6402   -2.2081   -0.8588 C   0  0  0  0  0  0  0  0  0  0  0  0
    5.2714   -1.3497    0.0140 C   0  0  0  0  0  0  0  0  0  0  0  0
    5.3875   -3.3609   -1.4320 C   0  0  0  0  0  0  0  0  0  0  0  0
    4.6602   -3.9148   -2.4888 F   0  0  0  0  0  0  0  0  0  0  0  0
    5.4021   -4.3522   -0.4451 F   0  0  0  0  0  0  0  0  0  0  0  0
    6.6687   -3.0479   -1.8082 F   0  0  0  0  0  0  0  0  0  0  0  0
    1.1927   -0.6284   -0.9640 C   0  0  0  0  0  0  0  0  0  0  0  0
    0.4715   -0.2634   -0.0098 O   0  0  0  0  0  0  0  0  0  0  0  0
    0.6896   -0.7927   -2.2453 N   0  0  0  0  0  0  0  0  0  0  0  0
   -0.6345   -0.6138   -2.7211 C   0  0  0  0  0  0  0  0  0  0  0  0
   -0.8655   -0.5970   -4.1213 C   0  0  0  0  0  0  0  0  0  0  0  0
   -2.1294   -0.4342   -4.6140 C   0  0  0  0  0  0  0  0  0  0  0  0
   -3.2079   -0.2817   -3.7883 C   0  0  0  0  0  0  0  0  0  0  0  0
   -4.5568   -0.1064   -4.3805 C   0  0  0  0  0  0  0  0  0  0  0  0
   -3.0272   -0.2923   -2.3980 C   0  0  0  0  0  0  0  0  0  0  0  0
   -4.1691   -0.0843   -1.5972 N   0  0  0  0  0  0  0  0  0  0  0  0
   -4.2164   -0.4527   -0.2276 C   0  0  0  0  0  0  0  0  0  0  0  0
   -3.3496   -1.0803    0.5657 N   0  0  0  0  0  0  0  0  0  0  0  0
   -3.8036   -1.2459    1.8081 C   0  0  0  0  0  0  0  0  0  0  0  0
   -3.2969   -1.8161    2.9432 C   0  0  0  0  0  0  0  0  0  0  0  0
   -4.0310   -1.8425    4.1358 C   0  0  0  0  0  0  0  0  0  0  0  0
   -5.2854   -1.2857    4.1656 C   0  0  0  0  0  0  0  0  0  0  0  0
   -5.8041   -0.7074    3.0194 C   0  0  0  0  0  0  0  0  0  0  0  0
   -5.0632   -0.6856    1.8362 C   0  0  0  0  0  0  0  0  0  0  0  0
   -5.2902   -0.2121    0.5974 N   0  0  0  0  0  0  0  0  0  0  0  0
   -6.4506    0.4646    0.1948 C   0  0  0  0  0  0  0  0  0  0  0  0
   -6.8573    1.6167    0.8698 C   0  0  0  0  0  0  0  0  0  0  0  0
   -8.0010    2.2834    0.4297 C   0  0  0  0  0  0  0  0  0  0  0  0
   -8.4518    3.4635    1.0831 N   0  0  0  0  0  0  0  0  0  0  0  0
   -8.7180    1.8444   -0.6269 N   0  0  0  0  0  0  0  0  0  0  0  0
   -8.3004    0.7345   -1.2531 C   0  0  0  0  0  0  0  0  0  0  0  0
   -7.2179    0.1162   -0.8239 N   0  0  0  0  0  0  0  0  0  0  0  0
   -1.7302   -0.4590   -1.9110 C   0  0  0  0  0  0  0  0  0  0  0  0
    9.7983    1.5030    2.0330 H   0  0  0  0  0  0  0  0  0  0  0  0
    9.3326    3.0395    1.1105 H   0  0  0  0  0  0  0  0  0  0  0  0
    9.1749    1.4435    0.3363 H   0  0  0  0  0  0  0  0  0  0  0  0
    6.8924    3.4906    0.8472 H   0  0  0  0  0  0  0  0  0  0  0  0
    7.0498    2.0063   -0.1523 H   0  0  0  0  0  0  0  0  0  0  0  0
    4.8090    2.2400    0.1688 H   0  0  0  0  0  0  0  0  0  0  0  0
    4.8494    2.5921    1.8978 H   0  0  0  0  0  0  0  0  0  0  0  0
    5.5561    0.5933    3.4621 H   0  0  0  0  0  0  0  0  0  0  0  0
    6.0900   -0.9093    2.6577 H   0  0  0  0  0  0  0  0  0  0  0  0
    7.8406    0.8150    3.5659 H   0  0  0  0  0  0  0  0  0  0  0  0
    8.1712   -0.1376    2.1106 H   0  0  0  0  0  0  0  0  0  0  0  0
    2.7506    0.8218    0.6483 H   0  0  0  0  0  0  0  0  0  0  0  0
    2.8114   -2.6035   -1.8429 H   0  0  0  0  0  0  0  0  0  0  0  0
    6.3040   -1.5070    0.2888 H   0  0  0  0  0  0  0  0  0  0  0  0
    1.4179   -1.1018   -2.9769 H   0  0  0  0  0  0  0  0  0  0  0  0
    0.0079   -0.7225   -4.7295 H   0  0  0  0  0  0  0  0  0  0  0  0
   -2.3022   -0.4225   -5.6806 H   0  0  0  0  0  0  0  0  0  0  0  0
   -4.5593   -0.6567   -5.3759 H   0  0  0  0  0  0  0  0  0  0  0  0
   -4.7011    0.9503   -4.6753 H   0  0  0  0  0  0  0  0  0  0  0  0
   -5.3805   -0.4679   -3.7646 H   0  0  0  0  0  0  0  0  0  0  0  0
   -4.9938    0.3722   -2.0436 H   0  0  0  0  0  0  0  0  0  0  0  0
   -2.3104   -2.2624    2.9617 H   0  0  0  0  0  0  0  0  0  0  0  0
   -3.5685   -2.3078    4.9998 H   0  0  0  0  0  0  0  0  0  0  0  0
   -5.8202   -1.3216    5.1103 H   0  0  0  0  0  0  0  0  0  0  0  0
   -6.7933   -0.2721    3.0241 H   0  0  0  0  0  0  0  0  0  0  0  0
   -6.3442    2.0237    1.7056 H   0  0  0  0  0  0  0  0  0  0  0  0
   -8.0977    3.7565    2.0173 H   0  0  0  0  0  0  0  0  0  0  0  0
   -9.1578    4.0663    0.6185 H   0  0  0  0  0  0  0  0  0  0  0  0
   -8.8662    0.3739   -2.0891 H   0  0  0  0  0  0  0  0  0  0  0  0
   -1.6086   -0.4453   -0.8465 H   0  0  0  0  0  0  0  0  0  0  0  0
  1  2  1  0
  2  3  1  0
  3  4  1  0
  4  5  1  0
  5  6  1  0
  6  7  1  0
  5  8  1  0
  8  9  2  0
  9 10  1  0
 10 11  2  0
 11 12  1  0
 12 13  2  0
 12 14  1  0
 14 15  1  0
 14 16  1  0
 14 17  1  0
 10 18  1  0
 18 19  2  0
 18 20  1  0
 20 21  1  0
 21 22  2  0
 22 23  1  0
 23 24  2  0
 24 25  1  0
 24 26  1  0
 26 27  1  0
 27 28  1  0
 28 29  2  0
 29 30  1  0
 30 31  2  0
 31 32  1  0
 32 33  2  0
 33 34  1  0
 34 35  2  0
 35 36  1  0
 36 37  1  0
 37 38  2  0
 38 39  1  0
 39 40  1  0
 39 41  2  0
 41 42  1  0
 42 43  2  0
 26 44  2  0
  7  2  1  0
 13  8  1  0
 44 21  1  0
 36 28  1  0
 43 37  1  0
 35 30  1  0
  1 45  1  0
  1 46  1  0
  1 47  1  0
  3 48  1  0
  3 49  1  0
  4 50  1  0
  4 51  1  0
  6 52  1  0
  6 53  1  0
  7 54  1  0
  7 55  1  0
  9 56  1  0
 11 57  1  0
 13 58  1  0
 20 59  1  0
 22 60  1  0
 23 61  1  0
 25 62  1  0
 25 63  1  0
 25 64  1  0
 27 65  1  0
 31 66  1  0
 32 67  1  0
 33 68  1  0
 34 69  1  0
 38 70  1  0
 40 71  1  0
 40 72  1  0
 42 73  1  0
 44 74  1  0
M  END
$$$$
[H]/C(C(=O)N(c1c([H])c([H])c2nc(N([H])c3c(Cl)c([H])c([H])c([H])c3C([H])([H])[H])c3c([H])nc([H])n3c2c1[H])C([H])([H])[H])=C(/[H])C([H])([H])N(C([H])([H])[H])C([H])([H])[H]
     RDKit          3D

 57 60  0  0  0  0  0  0  0  0999 V2000
    7.0983   -1.6487   -1.6326 C   0  0  0  0  0  0  0  0  0  0  0  0
    7.3289   -0.7651   -0.5481 N   0  0  0  0  0  0  0  0  0  0  0  0
    7.3729    0.6256   -0.8420 C   0  0  0  0  0  0  0  0  0  0  0  0
    6.8627   -1.1319    0.7267 C   0  0  0  0  0  0  0  0  0  0  0  0
    5.4044   -1.1374    0.9572 C   0  0  0  0  0  0  0  0  0  0  0  0
    4.5250   -0.7860    0.0730 C   0  0  0  0  0  0  0  0  0  0  0  0
    3.0845   -0.7495    0.1766 C   0  0  0  0  0  0  0  0  0  0  0  0
    2.5203   -0.3182   -0.9308 O   0  0  0  0  0  0  0  0  0  0  0  0
    2.2166   -1.0754    1.2021 N   0  0  0  0  0  0  0  0  0  0  0  0
    2.5727   -1.6554    2.4493 C   0  0  0  0  0  0  0  0  0  0  0  0
    0.8095   -0.8208    0.9993 C   0  0  0  0  0  0  0  0  0  0  0  0
   -0.0988   -1.8471    0.9692 C   0  0  0  0  0  0  0  0  0  0  0  0
   -1.4374   -1.5285    0.7814 C   0  0  0  0  0  0  0  0  0  0  0  0
   -1.8027   -0.2004    0.6328 C   0  0  0  0  0  0  0  0  0  0  0  0
   -3.0950    0.1498    0.4531 N   0  0  0  0  0  0  0  0  0  0  0  0
   -3.4966    1.4199    0.3091 C   0  0  0  0  0  0  0  0  0  0  0  0
   -4.8588    1.7338    0.1452 N   0  0  0  0  0  0  0  0  0  0  0  0
   -5.8664    0.7267    0.0902 C   0  0  0  0  0  0  0  0  0  0  0  0
   -6.2198    0.2732   -1.1617 C   0  0  0  0  0  0  0  0  0  0  0  0
   -5.5704    0.8412   -2.3986 C   0  0  0  0  0  0  0  0  0  0  0  0
   -7.1713   -0.7009   -1.3285 C   0  0  0  0  0  0  0  0  0  0  0  0
   -7.7901   -1.2390   -0.1996 C   0  0  0  0  0  0  0  0  0  0  0  0
   -7.4304   -0.7803    1.0365 C   0  0  0  0  0  0  0  0  0  0  0  0
   -6.4732    0.1983    1.1851 C   0  0  0  0  0  0  0  0  0  0  0  0
   -6.0004    0.7962    2.7752 Cl  0  0  0  0  0  0  0  0  0  0  0  0
   -2.5727    2.4577    0.3394 C   0  0  0  0  0  0  0  0  0  0  0  0
   -2.7115    3.8212    0.2171 C   0  0  0  0  0  0  0  0  0  0  0  0
   -1.4534    4.3161    0.3266 N   0  0  0  0  0  0  0  0  0  0  0  0
   -0.6030    3.2874    0.5067 C   0  0  0  0  0  0  0  0  0  0  0  0
   -1.2854    2.1148    0.5177 N   0  0  0  0  0  0  0  0  0  0  0  0
   -0.8944    0.8393    0.6612 C   0  0  0  0  0  0  0  0  0  0  0  0
    0.4312    0.4986    0.8494 C   0  0  0  0  0  0  0  0  0  0  0  0
    6.3385   -2.4305   -1.3719 H   0  0  0  0  0  0  0  0  0  0  0  0
    8.0410   -2.2454   -1.8103 H   0  0  0  0  0  0  0  0  0  0  0  0
    6.8177   -1.1076   -2.5722 H   0  0  0  0  0  0  0  0  0  0  0  0
    6.6074    1.1375   -0.1877 H   0  0  0  0  0  0  0  0  0  0  0  0
    8.3984    1.0276   -0.6417 H   0  0  0  0  0  0  0  0  0  0  0  0
    7.1234    0.8978   -1.8913 H   0  0  0  0  0  0  0  0  0  0  0  0
    7.3837   -0.5156    1.5361 H   0  0  0  0  0  0  0  0  0  0  0  0
    7.2762   -2.1677    0.9455 H   0  0  0  0  0  0  0  0  0  0  0  0
    5.0689   -1.4512    1.9269 H   0  0  0  0  0  0  0  0  0  0  0  0
    4.9421   -0.4523   -0.9159 H   0  0  0  0  0  0  0  0  0  0  0  0
    3.1142   -2.6397    2.3196 H   0  0  0  0  0  0  0  0  0  0  0  0
    3.1291   -0.9405    3.0922 H   0  0  0  0  0  0  0  0  0  0  0  0
    1.6396   -1.8982    3.0359 H   0  0  0  0  0  0  0  0  0  0  0  0
    0.2535   -2.8591    1.0915 H   0  0  0  0  0  0  0  0  0  0  0  0
   -2.1614   -2.3274    0.7549 H   0  0  0  0  0  0  0  0  0  0  0  0
   -5.1883    2.7196    0.0564 H   0  0  0  0  0  0  0  0  0  0  0  0
   -4.8460    0.1161   -2.8216 H   0  0  0  0  0  0  0  0  0  0  0  0
   -6.3738    0.9764   -3.1421 H   0  0  0  0  0  0  0  0  0  0  0  0
   -5.0416    1.7817   -2.1604 H   0  0  0  0  0  0  0  0  0  0  0  0
   -7.4674   -1.0752   -2.3171 H   0  0  0  0  0  0  0  0  0  0  0  0
   -8.5455   -2.0151   -0.3757 H   0  0  0  0  0  0  0  0  0  0  0  0
   -7.9046   -1.1945    1.9080 H   0  0  0  0  0  0  0  0  0  0  0  0
   -3.6352    4.3450    0.0670 H   0  0  0  0  0  0  0  0  0  0  0  0
    0.4820    3.3013    0.6322 H   0  0  0  0  0  0  0  0  0  0  0  0
    1.1531    1.3019    0.8736 H   0  0  0  0  0  0  0  0  0  0  0  0
  1  2  1  0
  2  3  1  0
  2  4  1  0
  4  5  1  0
  5  6  2  0
  6  7  1  0
  7  8  2  0
  7  9  1  0
  9 10  1  0
  9 11  1  0
 11 12  2  0
 12 13  1  0
 13 14  2  0
 14 15  1  0
 15 16  2  0
 16 17  1  0
 17 18  1  0
 18 19  2  0
 19 20  1  0
 19 21  1  0
 21 22  2  0
 22 23  1  0
 23 24  2  0
 24 25  1  0
 16 26  1  0
 26 27  2  0
 27 28  1  0
 28 29  2  0
 29 30  1  0
 30 31  1  0
 31 32  2  0
 32 11  1  0
 31 14  1  0
 24 18  1  0
 30 26  1  0
  1 33  1  0
  1 34  1  0
  1 35  1  0
  3 36  1  0
  3 37  1  0
  3 38  1  0
  4 39  1  0
  4 40  1  0
  5 41  1  0
  6 42  1  0
 10 43  1  0
 10 44  1  0
 10 45  1  0
 12 46  1  0
 13 47  1  0
 17 48  1  0
 20 49  1  0
 20 50  1  0
 20 51  1  0
 21 52  1  0
 22 53  1  0
 23 54  1  0
 27 55  1  0
 29 56  1  0
 32 57  1  0
M  END
$$$$
[H]c1c([H])c([H])c(C([H])([H])[H])c(N([H])c2nc3c([H])c(OC([H])([H])[H])c(N([H])C(=O)C#CC([H])([H])N4C([H])([H])C([H])([H])OC([H])([H])C4([H])[H])c([H])c3n3c([H])nc([H])c23)c1[H]
     RDKit          3D

 61 65  0  0  0  0  0  0  0  0999 V2000
    0.2550   -0.8976   -3.1792 C   0  0  0  0  0  0  0  0  0  0  0  0
    0.8305   -0.7720   -1.8995 O   0  0  0  0  0  0  0  0  0  0  0  0
   -0.0014   -0.4778   -0.8252 C   0  0  0  0  0  0  0  0  0  0  0  0
   -1.3467   -0.3172   -1.0323 C   0  0  0  0  0  0  0  0  0  0  0  0
   -2.1960   -0.0243    0.0215 C   0  0  0  0  0  0  0  0  0  0  0  0
   -3.4961    0.1263   -0.1934 N   0  0  0  0  0  0  0  0  0  0  0  0
   -4.3418    0.4084    0.8048 C   0  0  0  0  0  0  0  0  0  0  0  0
   -5.7129    0.5617    0.6101 N   0  0  0  0  0  0  0  0  0  0  0  0
   -6.4308    0.4772   -0.5824 C   0  0  0  0  0  0  0  0  0  0  0  0
   -5.9179    0.2777   -1.8247 C   0  0  0  0  0  0  0  0  0  0  0  0
   -6.7229    0.2171   -2.9701 C   0  0  0  0  0  0  0  0  0  0  0  0
   -8.0851    0.3603   -2.8704 C   0  0  0  0  0  0  0  0  0  0  0  0
   -8.6199    0.5623   -1.6256 C   0  0  0  0  0  0  0  0  0  0  0  0
   -7.8407    0.6226   -0.5026 C   0  0  0  0  0  0  0  0  0  0  0  0
   -8.4799    0.8423    0.8169 C   0  0  0  0  0  0  0  0  0  0  0  0
   -3.8201    0.5447    2.1086 C   0  0  0  0  0  0  0  0  0  0  0  0
   -4.4589    0.8280    3.2901 C   0  0  0  0  0  0  0  0  0  0  0  0
   -3.4919    0.8425    4.2316 N   0  0  0  0  0  0  0  0  0  0  0  0
   -2.3061    0.5787    3.6523 C   0  0  0  0  0  0  0  0  0  0  0  0
   -2.5128    0.3906    2.3102 N   0  0  0  0  0  0  0  0  0  0  0  0
   -1.6885    0.1090    1.2955 C   0  0  0  0  0  0  0  0  0  0  0  0
   -0.3315   -0.0487    1.5299 C   0  0  0  0  0  0  0  0  0  0  0  0
    0.5121   -0.3397    0.4857 C   0  0  0  0  0  0  0  0  0  0  0  0
    1.8855   -0.5150    0.6286 N   0  0  0  0  0  0  0  0  0  0  0  0
    2.6132   -0.4482    1.8182 C   0  0  0  0  0  0  0  0  0  0  0  0
    2.1147   -0.2190    2.9229 O   0  0  0  0  0  0  0  0  0  0  0  0
    4.0703   -0.6687    1.7335 C   0  0  0  0  0  0  0  0  0  0  0  0
    5.2556   -0.8694    1.6676 C   0  0  0  0  0  0  0  0  0  0  0  0
    6.6938   -1.1397    1.5927 C   0  0  0  0  0  0  0  0  0  0  0  0
    7.3126   -0.5706    0.4498 N   0  0  0  0  0  0  0  0  0  0  0  0
    7.4084    0.8367    0.3830 C   0  0  0  0  0  0  0  0  0  0  0  0
    8.3194    1.2406   -0.7395 C   0  0  0  0  0  0  0  0  0  0  0  0
    9.5694    0.6663   -0.5936 O   0  0  0  0  0  0  0  0  0  0  0  0
    9.5543   -0.7038   -0.5952 C   0  0  0  0  0  0  0  0  0  0  0  0
    8.2618   -1.3507   -0.2453 C   0  0  0  0  0  0  0  0  0  0  0  0
   -0.1347    0.0651   -3.5476 H   0  0  0  0  0  0  0  0  0  0  0  0
    0.9890   -1.2961   -3.9242 H   0  0  0  0  0  0  0  0  0  0  0  0
   -0.5760   -1.6579   -3.1841 H   0  0  0  0  0  0  0  0  0  0  0  0
   -1.7354   -0.4240   -2.0493 H   0  0  0  0  0  0  0  0  0  0  0  0
   -6.2735    0.7738    1.4987 H   0  0  0  0  0  0  0  0  0  0  0  0
   -4.8694    0.1576   -2.0182 H   0  0  0  0  0  0  0  0  0  0  0  0
   -6.2764    0.0571   -3.9568 H   0  0  0  0  0  0  0  0  0  0  0  0
   -8.7231    0.3141   -3.7507 H   0  0  0  0  0  0  0  0  0  0  0  0
   -9.6974    0.6799   -1.5285 H   0  0  0  0  0  0  0  0  0  0  0  0
   -9.5674    0.8360    0.6886 H   0  0  0  0  0  0  0  0  0  0  0  0
   -8.1323    1.8103    1.2376 H   0  0  0  0  0  0  0  0  0  0  0  0
   -8.2432    0.0100    1.5310 H   0  0  0  0  0  0  0  0  0  0  0  0
   -5.5288    1.0048    3.4381 H   0  0  0  0  0  0  0  0  0  0  0  0
   -1.3791    0.5295    4.1656 H   0  0  0  0  0  0  0  0  0  0  0  0
   -0.0110    0.0729    2.5544 H   0  0  0  0  0  0  0  0  0  0  0  0
    2.4391   -0.7235   -0.2828 H   0  0  0  0  0  0  0  0  0  0  0  0
    6.7987   -2.2555    1.5098 H   0  0  0  0  0  0  0  0  0  0  0  0
    7.1704   -0.8654    2.5551 H   0  0  0  0  0  0  0  0  0  0  0  0
    7.6897    1.2999    1.3506 H   0  0  0  0  0  0  0  0  0  0  0  0
    6.3891    1.2552    0.1407 H   0  0  0  0  0  0  0  0  0  0  0  0
    7.8400    1.0040   -1.7035 H   0  0  0  0  0  0  0  0  0  0  0  0
    8.4579    2.3448   -0.6713 H   0  0  0  0  0  0  0  0  0  0  0  0
    9.8506   -1.0681   -1.6244 H   0  0  0  0  0  0  0  0  0  0  0  0
   10.3874   -1.0411    0.0739 H   0  0  0  0  0  0  0  0  0  0  0  0
    8.5109   -2.2438    0.4022 H   0  0  0  0  0  0  0  0  0  0  0  0
    7.7703   -1.7699   -1.1469 H   0  0  0  0  0  0  0  0  0  0  0  0
  1  2  1  0
  2  3  1  0
  3  4  2  0
  4  5  1  0
  5  6  1  0
  6  7  2  0
  7  8  1  0
  8  9  1  0
  9 10  2  0
 10 11  1  0
 11 12  2  0
 12 13  1  0
 13 14  2  0
 14 15  1  0
  7 16  1  0
 16 17  2  0
 17 18  1  0
 18 19  2  0
 19 20  1  0
 20 21  1  0
 21 22  1  0
 22 23  2  0
 23 24  1  0
 24 25  1  0
 25 26  2  0
 25 27  1  0
 27 28  3  0
 28 29  1  0
 29 30  1  0
 30 31  1  0
 31 32  1  0
 32 33  1  0
 33 34  1  0
 34 35  1  0
 23  3  1  0
 35 30  1  0
 21  5  2  0
 14  9  1  0
 20 16  1  0
  1 36  1  0
  1 37  1  0
  1 38  1  0
  4 39  1  0
  8 40  1  0
 10 41  1  0
 11 42  1  0
 12 43  1  0
 13 44  1  0
 15 45  1  0
 15 46  1  0
 15 47  1  0
 17 48  1  0
 19 49  1  0
 22 50  1  0
 24 51  1  0
 29 52  1  0
 29 53  1  0
 31 54  1  0
 31 55  1  0
 32 56  1  0
 32 57  1  0
 34 58  1  0
 34 59  1  0
 35 60  1  0
 35 61  1  0
M  END
$$$$
[H]c1nc(N([H])c2c([H])c(N([H])C(=O)c3c([H])c([H])c(C([H])([H])N4C([H])([H])C([H])([H])N(C([H])([H])[H])C([H])([H])C4([H])[H])c(C(F)(F)F)c3[H])c([H])c([H])c2C([H])([H])[H])nc(-c2c([H])nc([H])c([H])c2[H])c1[H]
     RDKit          3D

 71 75  0  0  0  0  0  0  0  0999 V2000
   -9.9347    0.2361   -1.3530 C   0  0  0  0  0  0  0  0  0  0  0  0
   -8.7315   -0.2431   -2.0052 N   0  0  0  0  0  0  0  0  0  0  0  0
   -8.3643   -1.4998   -1.3435 C   0  0  0  0  0  0  0  0  0  0  0  0
   -7.7519   -1.1751   -0.0144 C   0  0  0  0  0  0  0  0  0  0  0  0
   -6.3847   -0.6145   -0.1490 N   0  0  0  0  0  0  0  0  0  0  0  0
   -5.4582   -1.7716   -0.2410 C   0  0  0  0  0  0  0  0  0  0  0  0
   -4.0923   -1.3053   -0.0157 C   0  0  0  0  0  0  0  0  0  0  0  0
   -3.8574   -0.0110    0.3758 C   0  0  0  0  0  0  0  0  0  0  0  0
   -2.5723    0.4484    0.6525 C   0  0  0  0  0  0  0  0  0  0  0  0
   -1.4841   -0.3764    0.5464 C   0  0  0  0  0  0  0  0  0  0  0  0
   -1.7408   -1.6721    0.1532 C   0  0  0  0  0  0  0  0  0  0  0  0
   -2.9957   -2.1554   -0.1275 C   0  0  0  0  0  0  0  0  0  0  0  0
   -3.2301   -3.5575   -0.5510 C   0  0  0  0  0  0  0  0  0  0  0  0
   -3.7929   -3.6608   -1.8005 F   0  0  0  0  0  0  0  0  0  0  0  0
   -1.9900   -4.1845   -0.5944 F   0  0  0  0  0  0  0  0  0  0  0  0
   -3.9703   -4.2573    0.3945 F   0  0  0  0  0  0  0  0  0  0  0  0
   -0.1205    0.0746    0.8363 C   0  0  0  0  0  0  0  0  0  0  0  0
    0.7874   -0.7156    0.5100 O   0  0  0  0  0  0  0  0  0  0  0  0
    0.1496    1.3030    1.4367 N   0  0  0  0  0  0  0  0  0  0  0  0
    1.3829    1.8862    1.7753 C   0  0  0  0  0  0  0  0  0  0  0  0
    1.3784    2.9682    2.6655 C   0  0  0  0  0  0  0  0  0  0  0  0
    2.5562    3.5802    3.0131 C   0  0  0  0  0  0  0  0  0  0  0  0
    3.7559    3.1427    2.4950 C   0  0  0  0  0  0  0  0  0  0  0  0
    5.0213    3.8036    2.8736 C   0  0  0  0  0  0  0  0  0  0  0  0
    3.8205    2.0721    1.6058 C   0  0  0  0  0  0  0  0  0  0  0  0
    5.0640    1.6812    1.1133 N   0  0  0  0  0  0  0  0  0  0  0  0
    5.4168    0.6392    0.2403 C   0  0  0  0  0  0  0  0  0  0  0  0
    4.5806   -0.2402   -0.3245 N   0  0  0  0  0  0  0  0  0  0  0  0
    4.9838   -1.2125   -1.1507 C   0  0  0  0  0  0  0  0  0  0  0  0
    6.3432   -1.3501   -1.4657 C   0  0  0  0  0  0  0  0  0  0  0  0
    7.2134   -0.4546   -0.8935 C   0  0  0  0  0  0  0  0  0  0  0  0
    6.7169    0.4847   -0.0790 N   0  0  0  0  0  0  0  0  0  0  0  0
    8.6702   -0.5095   -1.1601 C   0  0  0  0  0  0  0  0  0  0  0  0
    9.1974   -1.4582   -1.9850 C   0  0  0  0  0  0  0  0  0  0  0  0
   10.5790   -1.4717   -2.2091 C   0  0  0  0  0  0  0  0  0  0  0  0
   11.4031   -0.5478   -1.6125 C   0  0  0  0  0  0  0  0  0  0  0  0
   10.8420    0.3687   -0.8075 N   0  0  0  0  0  0  0  0  0  0  0  0
    9.5195    0.4071   -0.5731 C   0  0  0  0  0  0  0  0  0  0  0  0
    2.6286    1.4802    1.2763 C   0  0  0  0  0  0  0  0  0  0  0  0
   -6.3661    0.0487   -1.4754 C   0  0  0  0  0  0  0  0  0  0  0  0
   -7.6847    0.7475   -1.7423 C   0  0  0  0  0  0  0  0  0  0  0  0
  -10.8400    0.0820   -1.9782 H   0  0  0  0  0  0  0  0  0  0  0  0
  -10.1219   -0.3026   -0.4045 H   0  0  0  0  0  0  0  0  0  0  0  0
   -9.8649    1.3283   -1.1812 H   0  0  0  0  0  0  0  0  0  0  0  0
   -7.6639   -2.0729   -1.9562 H   0  0  0  0  0  0  0  0  0  0  0  0
   -9.2658   -2.1094   -1.1456 H   0  0  0  0  0  0  0  0  0  0  0  0
   -7.6343   -2.1192    0.5481 H   0  0  0  0  0  0  0  0  0  0  0  0
   -8.3505   -0.4856    0.5888 H   0  0  0  0  0  0  0  0  0  0  0  0
   -5.7781   -2.5230    0.4961 H   0  0  0  0  0  0  0  0  0  0  0  0
   -5.6613   -2.1828   -1.2517 H   0  0  0  0  0  0  0  0  0  0  0  0
   -4.6678    0.6957    0.5168 H   0  0  0  0  0  0  0  0  0  0  0  0
   -2.4771    1.4610    0.9446 H   0  0  0  0  0  0  0  0  0  0  0  0
   -0.9071   -2.3603    0.0566 H   0  0  0  0  0  0  0  0  0  0  0  0
   -0.7059    1.9212    1.6860 H   0  0  0  0  0  0  0  0  0  0  0  0
    0.4539    3.3373    3.0924 H   0  0  0  0  0  0  0  0  0  0  0  0
    2.5407    4.4303    3.7141 H   0  0  0  0  0  0  0  0  0  0  0  0
    5.7606    3.0867    3.2981 H   0  0  0  0  0  0  0  0  0  0  0  0
    4.8047    4.5194    3.6921 H   0  0  0  0  0  0  0  0  0  0  0  0
    5.4494    4.4108    2.0471 H   0  0  0  0  0  0  0  0  0  0  0  0
    5.9212    2.2641    1.4427 H   0  0  0  0  0  0  0  0  0  0  0  0
    4.2947   -1.9013   -1.5878 H   0  0  0  0  0  0  0  0  0  0  0  0
    6.6728   -2.1241   -2.1247 H   0  0  0  0  0  0  0  0  0  0  0  0
    8.6112   -2.2088   -2.4823 H   0  0  0  0  0  0  0  0  0  0  0  0
   11.0325   -2.2048   -2.8536 H   0  0  0  0  0  0  0  0  0  0  0  0
   12.4912   -0.5498   -1.7822 H   0  0  0  0  0  0  0  0  0  0  0  0
    9.0900    1.1545    0.0789 H   0  0  0  0  0  0  0  0  0  0  0  0
    2.6027    0.6574    0.5857 H   0  0  0  0  0  0  0  0  0  0  0  0
   -6.1870   -0.7063   -2.2777 H   0  0  0  0  0  0  0  0  0  0  0  0
   -5.5974    0.8055   -1.4807 H   0  0  0  0  0  0  0  0  0  0  0  0
   -7.5458    1.3496   -2.6604 H   0  0  0  0  0  0  0  0  0  0  0  0
   -7.9450    1.4195   -0.9167 H   0  0  0  0  0  0  0  0  0  0  0  0
  1  2  1  0
  2  3  1  0
  3  4  1  0
  4  5  1  0
  5  6  1  0
  6  7  1  0
  7  8  2  0
  8  9  1  0
  9 10  2  0
 10 11  1  0
 11 12  2  0
 12 13  1  0
 13 14  1  0
 13 15  1  0
 13 16  1  0
 10 17  1  0
 17 18  2  0
 17 19  1  0
 19 20  1  0
 20 21  2  0
 21 22  1  0
 22 23  2  0
 23 24  1  0
 23 25  1  0
 25 26  1  0
 26 27  1  0
 27 28  2  0
 28 29  1  0
 29 30  2  0
 30 31  1  0
 31 32  2  0
 31 33  1  0
 33 34  2  0
 34 35  1  0
 35 36  2  0
 36 37  1  0
 37 38  2  0
 25 39  2  0
  5 40  1  0
 40 41  1  0
 41  2  1  0
 12  7  1  0
 39 20  1  0
 32 27  1  0
 38 33  1  0
  1 42  1  0
  1 43  1  0
  1 44  1  0
  3 45  1  0
  3 46  1  0
  4 47  1  0
  4 48  1  0
  6 49  1  0
  6 50  1  0
  8 51  1  0
  9 52  1  0
 11 53  1  0
 19 54  1  0
 21 55  1  0
 22 56  1  0
 24 57  1  0
 24 58  1  0
 24 59  1  0
 26 60  1  0
 29 61  1  0
 30 62  1  0
 34 63  1  0
 35 64  1  0
 36 65  1  0
 38 66  1  0
 39 67  1  0
 40 68  1  0
 40 69  1  0
 41 70  1  0
 41 71  1  0
M  END
$$$$
[H]OC([H])(c1c([H])c([H])c(C([H])([H])N2C([H])([H])C([H])(N(C([H])([H])[H])C([H])([H])[H])C2([H])[H])c(C(F)(F)F)c1[H])N([H])c1c([H])c([H])c(C([H])([H])[H])c(N([H])c2nc([H])c([H])c(-c3c([H])nc([H])nc3[H])n2)c1[H]
     RDKit          3D

 72 76  0  0  0  0  0  0  0  0999 V2000
   -7.9597    2.4609    0.0343 C   0  0  0  0  0  0  0  0  0  0  0  0
   -8.5374    1.2256   -0.3845 N   0  0  0  0  0  0  0  0  0  0  0  0
   -9.8306    0.9561    0.1562 C   0  0  0  0  0  0  0  0  0  0  0  0
   -7.6437    0.1120   -0.3593 C   0  0  0  0  0  0  0  0  0  0  0  0
   -7.0844   -0.2821    0.9884 C   0  0  0  0  0  0  0  0  0  0  0  0
   -5.8664   -0.6861    0.2511 N   0  0  0  0  0  0  0  0  0  0  0  0
   -4.6597   -0.5011    1.0246 C   0  0  0  0  0  0  0  0  0  0  0  0
   -3.5101   -0.9807    0.2655 C   0  0  0  0  0  0  0  0  0  0  0  0
   -3.7058   -1.5354   -0.9791 C   0  0  0  0  0  0  0  0  0  0  0  0
   -2.6869   -2.0281   -1.7718 C   0  0  0  0  0  0  0  0  0  0  0  0
   -1.3892   -1.9758   -1.3187 C   0  0  0  0  0  0  0  0  0  0  0  0
   -1.1931   -1.4196   -0.0689 C   0  0  0  0  0  0  0  0  0  0  0  0
   -2.2072   -0.9270    0.7244 C   0  0  0  0  0  0  0  0  0  0  0  0
   -1.9614   -0.3383    2.0571 C   0  0  0  0  0  0  0  0  0  0  0  0
   -0.5763   -0.4020    2.2744 F   0  0  0  0  0  0  0  0  0  0  0  0
   -2.5058   -1.0925    3.0890 F   0  0  0  0  0  0  0  0  0  0  0  0
   -2.2931    0.9928    2.1383 F   0  0  0  0  0  0  0  0  0  0  0  0
   -0.3031   -2.5164   -2.1652 C   0  0  0  0  0  0  0  0  0  0  0  0
   -0.4931   -2.1330   -3.4987 O   0  0  0  0  0  0  0  0  0  0  0  0
    1.0149   -2.1745   -1.7009 N   0  0  0  0  0  0  0  0  0  0  0  0
    1.5460   -0.8533   -1.6575 C   0  0  0  0  0  0  0  0  0  0  0  0
    0.8446    0.2146   -2.1516 C   0  0  0  0  0  0  0  0  0  0  0  0
    1.4346    1.4549   -2.0684 C   0  0  0  0  0  0  0  0  0  0  0  0
    2.6796    1.6203   -1.5118 C   0  0  0  0  0  0  0  0  0  0  0  0
    3.2684    2.9813   -1.4485 C   0  0  0  0  0  0  0  0  0  0  0  0
    3.4212    0.5380   -0.9966 C   0  0  0  0  0  0  0  0  0  0  0  0
    4.6816    0.8257   -0.4521 N   0  0  0  0  0  0  0  0  0  0  0  0
    5.6050   -0.0464    0.1188 C   0  0  0  0  0  0  0  0  0  0  0  0
    5.4393   -1.3456    0.2477 N   0  0  0  0  0  0  0  0  0  0  0  0
    6.3034   -2.1986    0.7880 C   0  0  0  0  0  0  0  0  0  0  0  0
    7.5116   -1.6993    1.2742 C   0  0  0  0  0  0  0  0  0  0  0  0
    7.7278   -0.3520    1.1613 C   0  0  0  0  0  0  0  0  0  0  0  0
    6.7838    0.4472    0.5922 N   0  0  0  0  0  0  0  0  0  0  0  0
    8.9676    0.2317    1.6483 C   0  0  0  0  0  0  0  0  0  0  0  0
    9.9463   -0.5233    2.2291 C   0  0  0  0  0  0  0  0  0  0  0  0
   11.1007    0.0656    2.6744 N   0  0  0  0  0  0  0  0  0  0  0  0
   11.3150    1.3836    2.5612 C   0  0  0  0  0  0  0  0  0  0  0  0
   10.3519    2.1381    1.9878 N   0  0  0  0  0  0  0  0  0  0  0  0
    9.2101    1.5970    1.5406 C   0  0  0  0  0  0  0  0  0  0  0  0
    2.8223   -0.6858   -1.0865 C   0  0  0  0  0  0  0  0  0  0  0  0
   -6.1745    0.4750   -0.6112 C   0  0  0  0  0  0  0  0  0  0  0  0
   -8.7774    3.2376   -0.0312 H   0  0  0  0  0  0  0  0  0  0  0  0
   -7.2189    2.7828   -0.7390 H   0  0  0  0  0  0  0  0  0  0  0  0
   -7.5245    2.4448    1.0487 H   0  0  0  0  0  0  0  0  0  0  0  0
  -10.0759   -0.1179    0.0239 H   0  0  0  0  0  0  0  0  0  0  0  0
   -9.9905    1.3106    1.1818 H   0  0  0  0  0  0  0  0  0  0  0  0
  -10.5863    1.4989   -0.4844 H   0  0  0  0  0  0  0  0  0  0  0  0
   -7.9061   -0.7551   -0.9631 H   0  0  0  0  0  0  0  0  0  0  0  0
   -6.8630    0.5430    1.6699 H   0  0  0  0  0  0  0  0  0  0  0  0
   -7.5214   -1.1950    1.4382 H   0  0  0  0  0  0  0  0  0  0  0  0
   -4.7506   -0.8884    2.0518 H   0  0  0  0  0  0  0  0  0  0  0  0
   -4.5399    0.6167    1.1336 H   0  0  0  0  0  0  0  0  0  0  0  0
   -4.7024   -1.6189   -1.4044 H   0  0  0  0  0  0  0  0  0  0  0  0
   -2.9356   -2.4635   -2.7561 H   0  0  0  0  0  0  0  0  0  0  0  0
   -0.1640   -1.3758    0.3198 H   0  0  0  0  0  0  0  0  0  0  0  0
   -0.3671   -3.6466   -2.2002 H   0  0  0  0  0  0  0  0  0  0  0  0
   -1.3369   -1.6687   -3.6189 H   0  0  0  0  0  0  0  0  0  0  0  0
    1.6300   -2.9792   -1.3675 H   0  0  0  0  0  0  0  0  0  0  0  0
   -0.1389    0.0882   -2.5910 H   0  0  0  0  0  0  0  0  0  0  0  0
    0.8894    2.3139   -2.4570 H   0  0  0  0  0  0  0  0  0  0  0  0
    2.5112    3.7050   -1.7992 H   0  0  0  0  0  0  0  0  0  0  0  0
    3.5034    3.2640   -0.4018 H   0  0  0  0  0  0  0  0  0  0  0  0
    4.1387    3.0814   -2.1315 H   0  0  0  0  0  0  0  0  0  0  0  0
    4.9807    1.8583   -0.4761 H   0  0  0  0  0  0  0  0  0  0  0  0
    6.1309   -3.2581    0.8756 H   0  0  0  0  0  0  0  0  0  0  0  0
    8.1888   -2.4107    1.7041 H   0  0  0  0  0  0  0  0  0  0  0  0
    9.8397   -1.5973    2.3533 H   0  0  0  0  0  0  0  0  0  0  0  0
   12.2353    1.8067    2.9236 H   0  0  0  0  0  0  0  0  0  0  0  0
    8.4354    2.1896    1.0817 H   0  0  0  0  0  0  0  0  0  0  0  0
    3.3268   -1.5519   -0.7157 H   0  0  0  0  0  0  0  0  0  0  0  0
   -5.8462    1.4031   -0.1197 H   0  0  0  0  0  0  0  0  0  0  0  0
   -5.9594    0.3594   -1.6675 H   0  0  0  0  0  0  0  0  0  0  0  0
  1  2  1  0
  2  3  1  0
  2  4  1  0
  4  5  1  0
  5  6  1  0
  6  7  1  0
  7  8  1  0
  8  9  2  0
  9 10  1  0
 10 11  2  0
 11 12  1  0
 12 13  2  0
 13 14  1  0
 14 15  1  0
 14 16  1  0
 14 17  1  0
 11 18  1  0
 18 19  1  0
 18 20  1  0
 20 21  1  0
 21 22  2  0
 22 23  1  0
 23 24  2  0
 24 25  1  0
 24 26  1  0
 26 27  1  0
 27 28  1  0
 28 29  2  0
 29 30  1  0
 30 31  2  0
 31 32  1  0
 32 33  2  0
 32 34  1  0
 34 35  2  0
 35 36  1  0
 36 37  2  0
 37 38  1  0
 38 39  2  0
 26 40  2  0
  6 41  1  0
 41  4  1  0
 13  8  1  0
 40 21  1  0
 33 28  1  0
 39 34  1  0
  1 42  1  0
  1 43  1  0
  1 44  1  0
  3 45  1  0
  3 46  1  0
  3 47  1  0
  4 48  1  0
  5 49  1  0
  5 50  1  0
  7 51  1  0
  7 52  1  0
  9 53  1  0
 10 54  1  0
 12 55  1  0
 18 56  1  0
 19 57  1  0
 20 58  1  0
 22 59  1  0
 23 60  1  0
 25 61  1  0
 25 62  1  0
 25 63  1  0
 27 64  1  0
 30 65  1  0
 31 66  1  0
 35 67  1  0
 37 68  1  0
 39 69  1  0
 40 70  1  0
 41 71  1  0
 41 72  1  0
M  END
$$$$
[H]c1noc(C([H])([H])[H])c1C(=O)N([H])c1c([H])c(N([H])C(=O)c2c([H])c(N3C([H])([H])C([H])([H])N(C([H])([H])[H])C([H])([H])C3([H])[H])c([H])c(C(F)(F)F)c2[H])c([H])c([H])c1C([H])([H])[H]
     RDKit          3D

 62 65  0  0  0  0  0  0  0  0999 V2000
   -8.0785    1.6282   -0.3998 C   0  0  0  0  0  0  0  0  0  0  0  0
   -7.8479    0.2021   -0.5713 N   0  0  0  0  0  0  0  0  0  0  0  0
   -7.3850   -0.4412    0.6461 C   0  0  0  0  0  0  0  0  0  0  0  0
   -5.9983    0.0330    1.0138 C   0  0  0  0  0  0  0  0  0  0  0  0
   -5.1284   -0.1688   -0.1269 N   0  0  0  0  0  0  0  0  0  0  0  0
   -5.6758   -0.7368   -1.3160 C   0  0  0  0  0  0  0  0  0  0  0  0
   -6.9646   -0.0810   -1.6910 C   0  0  0  0  0  0  0  0  0  0  0  0
   -3.7460    0.2174   -0.0088 C   0  0  0  0  0  0  0  0  0  0  0  0
   -2.7642   -0.3193   -0.8340 C   0  0  0  0  0  0  0  0  0  0  0  0
   -1.4622    0.0491   -0.6561 C   0  0  0  0  0  0  0  0  0  0  0  0
   -1.0887    0.9444    0.3123 C   0  0  0  0  0  0  0  0  0  0  0  0
   -2.0392    1.4974    1.1518 C   0  0  0  0  0  0  0  0  0  0  0  0
   -3.3423    1.1101    0.9559 C   0  0  0  0  0  0  0  0  0  0  0  0
   -1.6193    2.4483    2.2430 C   0  0  0  0  0  0  0  0  0  0  0  0
   -0.3168    2.7996    2.0348 F   0  0  0  0  0  0  0  0  0  0  0  0
   -2.4622    3.5234    2.2106 F   0  0  0  0  0  0  0  0  0  0  0  0
   -1.8161    1.7424    3.4325 F   0  0  0  0  0  0  0  0  0  0  0  0
   -0.3341   -0.5905   -1.3913 C   0  0  0  0  0  0  0  0  0  0  0  0
   -0.4041   -0.7843   -2.6422 O   0  0  0  0  0  0  0  0  0  0  0  0
    0.7475   -0.9435   -0.6046 N   0  0  0  0  0  0  0  0  0  0  0  0
    1.9923   -1.5528   -0.7491 C   0  0  0  0  0  0  0  0  0  0  0  0
    2.1999   -2.8246   -1.1960 C   0  0  0  0  0  0  0  0  0  0  0  0
    3.4512   -3.3992   -1.2054 C   0  0  0  0  0  0  0  0  0  0  0  0
    4.5527   -2.7008   -0.7582 C   0  0  0  0  0  0  0  0  0  0  0  0
    5.8749   -3.3525   -0.7830 C   0  0  0  0  0  0  0  0  0  0  0  0
    4.3937   -1.3891   -0.2969 C   0  0  0  0  0  0  0  0  0  0  0  0
    5.4993   -0.7390    0.2768 N   0  0  0  0  0  0  0  0  0  0  0  0
    5.6006    0.7125    0.3282 C   0  0  0  0  0  0  0  0  0  0  0  0
    4.7344    1.4305   -0.1867 O   0  0  0  0  0  0  0  0  0  0  0  0
    6.7251    1.3323    1.0094 C   0  0  0  0  0  0  0  0  0  0  0  0
    6.8533    1.3595    2.4018 C   0  0  0  0  0  0  0  0  0  0  0  0
    8.0159    1.9675    2.6445 N   0  0  0  0  0  0  0  0  0  0  0  0
    8.5851    2.3002    1.5027 O   0  0  0  0  0  0  0  0  0  0  0  0
    7.8500    1.9394    0.5043 C   0  0  0  0  0  0  0  0  0  0  0  0
    8.1468    2.1434   -0.9366 C   0  0  0  0  0  0  0  0  0  0  0  0
    3.1232   -0.8358   -0.2987 C   0  0  0  0  0  0  0  0  0  0  0  0
   -7.9416    2.0947   -1.4008 H   0  0  0  0  0  0  0  0  0  0  0  0
   -7.3270    2.0661    0.2719 H   0  0  0  0  0  0  0  0  0  0  0  0
   -9.1280    1.7884   -0.0997 H   0  0  0  0  0  0  0  0  0  0  0  0
   -8.0586   -0.1216    1.4599 H   0  0  0  0  0  0  0  0  0  0  0  0
   -7.4402   -1.5297    0.5448 H   0  0  0  0  0  0  0  0  0  0  0  0
   -5.6862   -0.6063    1.8898 H   0  0  0  0  0  0  0  0  0  0  0  0
   -6.0065    1.0643    1.3957 H   0  0  0  0  0  0  0  0  0  0  0  0
   -4.9945   -0.6556   -2.1890 H   0  0  0  0  0  0  0  0  0  0  0  0
   -5.9117   -1.7953   -1.0826 H   0  0  0  0  0  0  0  0  0  0  0  0
   -6.7835    0.8746   -2.2294 H   0  0  0  0  0  0  0  0  0  0  0  0
   -7.5122   -0.8072   -2.3551 H   0  0  0  0  0  0  0  0  0  0  0  0
   -3.0544   -1.0215   -1.6135 H   0  0  0  0  0  0  0  0  0  0  0  0
   -0.0469    1.2235    0.4083 H   0  0  0  0  0  0  0  0  0  0  0  0
   -4.0872    1.5376    1.5919 H   0  0  0  0  0  0  0  0  0  0  0  0
    0.5593   -0.6617    0.4753 H   0  0  0  0  0  0  0  0  0  0  0  0
    1.3411   -3.3920   -1.5573 H   0  0  0  0  0  0  0  0  0  0  0  0
    3.5733   -4.4362   -1.5631 H   0  0  0  0  0  0  0  0  0  0  0  0
    6.1837   -3.6138   -1.8343 H   0  0  0  0  0  0  0  0  0  0  0  0
    6.6424   -2.8249   -0.2473 H   0  0  0  0  0  0  0  0  0  0  0  0
    5.7749   -4.3705   -0.2889 H   0  0  0  0  0  0  0  0  0  0  0  0
    6.2986   -1.2714    0.7378 H   0  0  0  0  0  0  0  0  0  0  0  0
    6.1405    0.9616    3.1379 H   0  0  0  0  0  0  0  0  0  0  0  0
    8.1386    3.2684   -1.0856 H   0  0  0  0  0  0  0  0  0  0  0  0
    9.1633    1.8136   -1.1850 H   0  0  0  0  0  0  0  0  0  0  0  0
    7.3429    1.7272   -1.5866 H   0  0  0  0  0  0  0  0  0  0  0  0
    2.9472    0.1662    0.0568 H   0  0  0  0  0  0  0  0  0  0  0  0
  1  2  1  0
  2  3  1  0
  3  4  1  0
  4  5  1  0
  5  6  1  0
  6  7  1  0
  5  8  1  0
  8  9  2  0
  9 10  1  0
 10 11  2  0
 11 12  1  0
 12 13  2  0
 12 14  1  0
 14 15  1  0
 14 16  1  0
 14 17  1  0
 10 18  1  0
 18 19  2  0
 18 20  1  0
 20 21  1  0
 21 22  2  0
 22 23  1  0
 23 24  2  0
 24 25  1  0
 24 26  1  0
 26 27  1  0
 27 28  1  0
 28 29  2  0
 28 30  1  0
 30 31  1  0
 31 32  2  0
 32 33  1  0
 33 34  1  0
 34 35  1  0
 26 36  2  0
  7  2  1  0
 13  8  1  0
 36 21  1  0
 34 30  2  0
  1 37  1  0
  1 38  1  0
  1 39  1  0
  3 40  1  0
  3 41  1  0
  4 42  1  0
  4 43  1  0
  6 44  1  0
  6 45  1  0
  7 46  1  0
  7 47  1  0
  9 48  1  0
 11 49  1  0
 13 50  1  0
 20 51  1  0
 22 52  1  0
 23 53  1  0
 25 54  1  0
 25 55  1  0
 25 56  1  0
 27 57  1  0
 31 58  1  0
 35 59  1  0
 35 60  1  0
 35 61  1  0
 36 62  1  0
M  END
$$$$
[H]c1c([H])c([H])c2c(c1[H])c1c3c(c4c5c([H])c([H])c([H])c([H])c5n5c4c1n2C1([H])O[C@@]5(C([H])([H])[H])[C@]([H])(OC([H])([H])[H])[C@]([H])(N([H])C([H])([H])[H])C1([H])[H])C([H])([H])N([H])C3=O
     RDKit          3D

 61 68  0  0  0  0  0  0  0  0999 V2000
   -3.5629   -2.3714    1.6152 C   0  0  0  0  0  0  0  0  0  0  0  0
   -3.1396   -1.0595    1.2056 N   0  0  0  0  0  0  0  0  0  0  0  0
   -2.8076   -1.0224   -0.2351 C   0  0  2  0  0  0  0  0  0  0  0  0
   -1.6773   -1.9365   -0.4513 C   0  0  0  0  0  0  0  0  0  0  0  0
   -0.7677   -1.5182   -1.5686 C   0  0  0  0  0  0  0  0  0  0  0  0
   -0.9038   -0.3292   -2.0847 O   0  0  0  0  0  0  0  0  0  0  0  0
   -1.3936    0.7614   -1.3814 C   0  0  1  0  0  0  0  0  0  0  0  0
   -1.7100    1.7309   -2.5420 C   0  0  0  0  0  0  0  0  0  0  0  0
   -2.6358    0.3964   -0.7147 C   0  0  2  0  0  0  0  0  0  0  0  0
   -3.0629    1.1796    0.3486 O   0  0  0  0  0  0  0  0  0  0  0  0
   -4.3099    1.7627    0.1433 C   0  0  0  0  0  0  0  0  0  0  0  0
   -0.3125    1.3098   -0.5645 N   0  0  0  0  0  0  0  0  0  0  0  0
   -0.1806    2.5601   -0.1074 C   0  0  0  0  0  0  0  0  0  0  0  0
   -0.9672    3.6618   -0.1931 C   0  0  0  0  0  0  0  0  0  0  0  0
   -0.6027    4.8625    0.3735 C   0  0  0  0  0  0  0  0  0  0  0  0
    0.5973    5.0088    1.0667 C   0  0  0  0  0  0  0  0  0  0  0  0
    1.3975    3.8931    1.1556 C   0  0  0  0  0  0  0  0  0  0  0  0
    1.0186    2.7048    0.5850 C   0  0  0  0  0  0  0  0  0  0  0  0
    1.6312    1.4891    0.5421 C   0  0  0  0  0  0  0  0  0  0  0  0
    2.8523    1.0149    1.0364 C   0  0  0  0  0  0  0  0  0  0  0  0
    3.8949    1.7270    1.8147 C   0  0  0  0  0  0  0  0  0  0  0  0
    4.9399    0.7979    2.0710 N   0  0  0  0  0  0  0  0  0  0  0  0
    4.5686   -0.4517    1.4778 C   0  0  0  0  0  0  0  0  0  0  0  0
    5.3153   -1.4363    1.5596 O   0  0  0  0  0  0  0  0  0  0  0  0
    3.2722   -0.2937    0.8429 C   0  0  0  0  0  0  0  0  0  0  0  0
    2.4330   -1.1272    0.1374 C   0  0  0  0  0  0  0  0  0  0  0  0
    2.4790   -2.4409   -0.2391 C   0  0  0  0  0  0  0  0  0  0  0  0
    3.4159   -3.4238   -0.0540 C   0  0  0  0  0  0  0  0  0  0  0  0
    3.1740   -4.6949   -0.5674 C   0  0  0  0  0  0  0  0  0  0  0  0
    2.0071   -4.9543   -1.2509 C   0  0  0  0  0  0  0  0  0  0  0  0
    1.0540   -3.9579   -1.4403 C   0  0  0  0  0  0  0  0  0  0  0  0
    1.3076   -2.7178   -0.9303 C   0  0  0  0  0  0  0  0  0  0  0  0
    0.5730   -1.6276   -0.9793 N   0  0  0  0  0  0  0  0  0  0  0  0
    1.2104   -0.6426   -0.3533 C   0  0  0  0  0  0  0  0  0  0  0  0
    0.8101    0.6716   -0.1516 C   0  0  0  0  0  0  0  0  0  0  0  0
   -3.5833   -2.3414    2.7438 H   0  0  0  0  0  0  0  0  0  0  0  0
   -2.8352   -3.1650    1.3285 H   0  0  0  0  0  0  0  0  0  0  0  0
   -4.5467   -2.6640    1.2307 H   0  0  0  0  0  0  0  0  0  0  0  0
   -2.2889   -0.8047    1.7574 H   0  0  0  0  0  0  0  0  0  0  0  0
   -3.7214   -1.5209   -0.6901 H   0  0  0  0  0  0  0  0  0  0  0  0
   -1.1293   -2.0677    0.5302 H   0  0  0  0  0  0  0  0  0  0  0  0
   -2.0392   -2.9909   -0.6539 H   0  0  0  0  0  0  0  0  0  0  0  0
   -0.8410   -2.2945   -2.3858 H   0  0  0  0  0  0  0  0  0  0  0  0
   -2.7231    2.1691   -2.4397 H   0  0  0  0  0  0  0  0  0  0  0  0
   -0.9169    2.5159   -2.6094 H   0  0  0  0  0  0  0  0  0  0  0  0
   -1.7183    1.2455   -3.5348 H   0  0  0  0  0  0  0  0  0  0  0  0
   -3.4752    0.5154   -1.4808 H   0  0  0  0  0  0  0  0  0  0  0  0
   -4.6178    2.3777    1.0230 H   0  0  0  0  0  0  0  0  0  0  0  0
   -4.3226    2.4677   -0.7119 H   0  0  0  0  0  0  0  0  0  0  0  0
   -5.1049    1.0109   -0.0327 H   0  0  0  0  0  0  0  0  0  0  0  0
   -1.8874    3.5945   -0.7062 H   0  0  0  0  0  0  0  0  0  0  0  0
   -1.2336    5.7169    0.2959 H   0  0  0  0  0  0  0  0  0  0  0  0
    0.8847    5.9552    1.5129 H   0  0  0  0  0  0  0  0  0  0  0  0
    2.3494    3.9840    1.6980 H   0  0  0  0  0  0  0  0  0  0  0  0
    4.3147    2.5577    1.1784 H   0  0  0  0  0  0  0  0  0  0  0  0
    3.4970    2.1160    2.7794 H   0  0  0  0  0  0  0  0  0  0  0  0
    5.8250    1.0065    2.6048 H   0  0  0  0  0  0  0  0  0  0  0  0
    4.3272   -3.3128    0.4510 H   0  0  0  0  0  0  0  0  0  0  0  0
    3.9089   -5.5018   -0.4324 H   0  0  0  0  0  0  0  0  0  0  0  0
    1.8255   -5.9467   -1.6475 H   0  0  0  0  0  0  0  0  0  0  0  0
    0.1345   -4.1490   -1.9752 H   0  0  0  0  0  0  0  0  0  0  0  0
  1  2  1  0
  2  3  1  0
  3  4  1  0
  4  5  1  0
  5  6  1  0
  6  7  1  0
  7  8  1  6
  7  9  1  0
  9 10  1  0
 10 11  1  0
  7 12  1  0
 12 13  1  0
 13 14  2  0
 14 15  1  0
 15 16  2  0
 16 17  1  0
 17 18  2  0
 18 19  1  0
 19 20  2  0
 20 21  1  0
 21 22  1  0
 22 23  1  0
 23 24  2  0
 23 25  1  0
 25 26  2  0
 26 27  1  0
 27 28  2  0
 28 29  1  0
 29 30  2  0
 30 31  1  0
 31 32  2  0
 32 33  1  0
 33 34  1  0
 34 35  2  0
  9  3  1  0
 35 12  1  0
 33  5  1  0
 18 13  1  0
 35 19  1  0
 25 20  1  0
 34 26  1  0
 32 27  1  0
  1 36  1  0
  1 37  1  0
  1 38  1  0
  2 39  1  0
  3 40  1  6
  4 41  1  0
  4 42  1  0
  5 43  1  0
  8 44  1  0
  8 45  1  0
  8 46  1  0
  9 47  1  6
 11 48  1  0
 11 49  1  0
 11 50  1  0
 14 51  1  0
 15 52  1  0
 16 53  1  0
 17 54  1  0
 21 55  1  0
 21 56  1  0
 22 57  1  0
 28 58  1  0
 29 59  1  0
 30 60  1  0
 31 61  1  0
M  END
$$$$
[H]c1nc2sc(-c3c([H])c(C([H])([H])N(C([H])([H])[H])C([H])([H])[H])c([H])c([H])c3OC([H])([H])C([H])([H])[H])c([H])c2c(N([H])c2c([H])c([H])c3c(c([H])c([H])n3[H])c2C([H])([H])[H])c1C#N
     RDKit          3D

 62 66  0  0  0  0  0  0  0  0999 V2000
    0.8219    2.8313    2.4923 C   0  0  0  0  0  0  0  0  0  0  0  0
    0.5245    1.3542    2.6305 C   0  0  0  0  0  0  0  0  0  0  0  0
    0.7992    0.5851    1.5200 O   0  0  0  0  0  0  0  0  0  0  0  0
    1.9890    0.3582    0.8864 C   0  0  0  0  0  0  0  0  0  0  0  0
    3.1321    0.9758    1.4259 C   0  0  0  0  0  0  0  0  0  0  0  0
    4.3816    0.7963    0.8433 C   0  0  0  0  0  0  0  0  0  0  0  0
    4.5078    0.0014   -0.2805 C   0  0  0  0  0  0  0  0  0  0  0  0
    5.8630   -0.1602   -0.8661 C   0  0  0  0  0  0  0  0  0  0  0  0
    6.5749   -1.3058   -0.4027 N   0  0  0  0  0  0  0  0  0  0  0  0
    6.7410   -1.2082    1.0330 C   0  0  0  0  0  0  0  0  0  0  0  0
    7.9018   -1.2694   -0.9891 C   0  0  0  0  0  0  0  0  0  0  0  0
    3.3882   -0.5810   -0.7773 C   0  0  0  0  0  0  0  0  0  0  0  0
    2.1222   -0.4272   -0.2258 C   0  0  0  0  0  0  0  0  0  0  0  0
    0.9729   -1.0948   -0.8319 C   0  0  0  0  0  0  0  0  0  0  0  0
   -0.3450   -1.1514   -0.5571 C   0  0  0  0  0  0  0  0  0  0  0  0
   -1.1553   -1.8830   -1.3418 C   0  0  0  0  0  0  0  0  0  0  0  0
   -2.5475   -2.0859   -1.2471 C   0  0  0  0  0  0  0  0  0  0  0  0
   -3.3173   -1.4687   -0.1966 N   0  0  0  0  0  0  0  0  0  0  0  0
   -3.9125   -0.1957   -0.3244 C   0  0  0  0  0  0  0  0  0  0  0  0
   -3.7666    0.5281   -1.5157 C   0  0  0  0  0  0  0  0  0  0  0  0
   -4.3527    1.7646   -1.6212 C   0  0  0  0  0  0  0  0  0  0  0  0
   -5.0760    2.2868   -0.5668 C   0  0  0  0  0  0  0  0  0  0  0  0
   -5.7284    3.4526   -0.4359 N   0  0  0  0  0  0  0  0  0  0  0  0
   -6.2911    3.5089    0.7974 C   0  0  0  0  0  0  0  0  0  0  0  0
   -5.9668    2.3344    1.4345 C   0  0  0  0  0  0  0  0  0  0  0  0
   -5.2044    1.5549    0.5934 C   0  0  0  0  0  0  0  0  0  0  0  0
   -4.6307    0.3126    0.7345 C   0  0  0  0  0  0  0  0  0  0  0  0
   -4.7994   -0.4403    2.0125 C   0  0  0  0  0  0  0  0  0  0  0  0
   -3.2009   -2.8755   -2.1530 C   0  0  0  0  0  0  0  0  0  0  0  0
   -2.5584   -3.5182   -3.2042 C   0  0  0  0  0  0  0  0  0  0  0  0
   -1.2308   -3.3182   -3.2854 N   0  0  0  0  0  0  0  0  0  0  0  0
   -0.5724   -2.5380   -2.3939 C   0  0  0  0  0  0  0  0  0  0  0  0
    1.0668   -2.1126   -2.2498 S   0  0  0  0  0  0  0  0  0  0  0  0
   -4.6377   -3.0311   -1.9818 C   0  0  0  0  0  0  0  0  0  0  0  0
   -5.7945   -3.1694   -1.8620 N   0  0  0  0  0  0  0  0  0  0  0  0
    1.5239    3.2039    3.2648 H   0  0  0  0  0  0  0  0  0  0  0  0
    1.3037    2.9917    1.4926 H   0  0  0  0  0  0  0  0  0  0  0  0
   -0.1013    3.4500    2.5317 H   0  0  0  0  0  0  0  0  0  0  0  0
   -0.5461    1.2192    2.9540 H   0  0  0  0  0  0  0  0  0  0  0  0
    1.1473    0.9946    3.5047 H   0  0  0  0  0  0  0  0  0  0  0  0
    3.0777    1.5892    2.2972 H   0  0  0  0  0  0  0  0  0  0  0  0
    5.2303    1.2926    1.2942 H   0  0  0  0  0  0  0  0  0  0  0  0
    5.7648   -0.2371   -1.9810 H   0  0  0  0  0  0  0  0  0  0  0  0
    6.4921    0.7465   -0.6980 H   0  0  0  0  0  0  0  0  0  0  0  0
    7.1016   -0.2033    1.3232 H   0  0  0  0  0  0  0  0  0  0  0  0
    7.5032   -1.9225    1.4110 H   0  0  0  0  0  0  0  0  0  0  0  0
    5.7628   -1.3903    1.5195 H   0  0  0  0  0  0  0  0  0  0  0  0
    8.2488   -2.3022   -1.2284 H   0  0  0  0  0  0  0  0  0  0  0  0
    7.9056   -0.7147   -1.9618 H   0  0  0  0  0  0  0  0  0  0  0  0
    8.6195   -0.7210   -0.3390 H   0  0  0  0  0  0  0  0  0  0  0  0
    3.4648   -1.2019   -1.6488 H   0  0  0  0  0  0  0  0  0  0  0  0
   -0.7446   -0.5922    0.3147 H   0  0  0  0  0  0  0  0  0  0  0  0
   -3.4301   -1.9965    0.6876 H   0  0  0  0  0  0  0  0  0  0  0  0
   -3.1815    0.0733   -2.3303 H   0  0  0  0  0  0  0  0  0  0  0  0
   -4.2290    2.3108   -2.5516 H   0  0  0  0  0  0  0  0  0  0  0  0
   -5.8007    4.2048   -1.1566 H   0  0  0  0  0  0  0  0  0  0  0  0
   -6.8817    4.3106    1.2154 H   0  0  0  0  0  0  0  0  0  0  0  0
   -6.2489    2.0434    2.4296 H   0  0  0  0  0  0  0  0  0  0  0  0
   -3.8356   -0.8237    2.3909 H   0  0  0  0  0  0  0  0  0  0  0  0
   -5.2012    0.2488    2.7829 H   0  0  0  0  0  0  0  0  0  0  0  0
   -5.5128   -1.2636    1.8432 H   0  0  0  0  0  0  0  0  0  0  0  0
   -3.1311   -4.1211   -3.8761 H   0  0  0  0  0  0  0  0  0  0  0  0
  1  2  1  0
  2  3  1  0
  3  4  1  0
  4  5  2  0
  5  6  1  0
  6  7  2  0
  7  8  1  0
  8  9  1  0
  9 10  1  0
  9 11  1  0
  7 12  1  0
 12 13  2  0
 13 14  1  0
 14 15  2  0
 15 16  1  0
 16 17  2  0
 17 18  1  0
 18 19  1  0
 19 20  2  0
 20 21  1  0
 21 22  2  0
 22 23  1  0
 23 24  1  0
 24 25  2  0
 25 26  1  0
 26 27  2  0
 27 28  1  0
 17 29  1  0
 29 30  2  0
 30 31  1  0
 31 32  2  0
 32 33  1  0
 29 34  1  0
 34 35  3  0
 13  4  1  0
 33 14  1  0
 32 16  1  0
 27 19  1  0
 26 22  1  0
  1 36  1  0
  1 37  1  0
  1 38  1  0
  2 39  1  0
  2 40  1  0
  5 41  1  0
  6 42  1  0
  8 43  1  0
  8 44  1  0
 10 45  1  0
 10 46  1  0
 10 47  1  0
 11 48  1  0
 11 49  1  0
 11 50  1  0
 12 51  1  0
 15 52  1  0
 18 53  1  0
 20 54  1  0
 21 55  1  0
 23 56  1  0
 24 57  1  0
 25 58  1  0
 28 59  1  0
 28 60  1  0
 28 61  1  0
 30 62  1  0
M  END
$$$$
[H]c1nc2c(c([H])c1N([H])C([H])([H])c1c([H])c(N([H])C(=O)c3c([H])c(-n4c([H])nc(C([H])([H])[H])c4[H])c([H])c(C(F)(F)F)c3[H])c([H])c([H])c1C([H])([H])[H])c([H])c(C(=O)OC([H])([H])[H])n2[H]
     RDKit          3D

 66 70  0  0  0  0  0  0  0  0999 V2000
   11.8475   -0.9189   -0.8091 C   0  0  0  0  0  0  0  0  0  0  0  0
   10.4940   -0.6110   -0.9503 O   0  0  0  0  0  0  0  0  0  0  0  0
    9.9806    0.4213   -1.6914 C   0  0  0  0  0  0  0  0  0  0  0  0
   10.7402    1.1725   -2.3360 O   0  0  0  0  0  0  0  0  0  0  0  0
    8.5238    0.6784   -1.7307 C   0  0  0  0  0  0  0  0  0  0  0  0
    7.5697   -0.0623   -1.0429 C   0  0  0  0  0  0  0  0  0  0  0  0
    6.3547    0.5085   -1.3142 C   0  0  0  0  0  0  0  0  0  0  0  0
    5.0544    0.2161   -0.8851 C   0  0  0  0  0  0  0  0  0  0  0  0
    3.9682    0.9414   -1.2661 C   0  0  0  0  0  0  0  0  0  0  0  0
    2.6255    0.6057   -0.7406 N   0  0  0  0  0  0  0  0  0  0  0  0
    2.6637   -0.3620    0.2798 C   0  0  0  0  0  0  0  0  0  0  0  0
    1.5286   -0.8391    1.0001 C   0  0  0  0  0  0  0  0  0  0  0  0
    0.2147   -0.5099    0.8089 C   0  0  0  0  0  0  0  0  0  0  0  0
   -0.8041   -1.0443    1.5626 C   0  0  0  0  0  0  0  0  0  0  0  0
   -2.1429   -0.7217    1.4354 N   0  0  0  0  0  0  0  0  0  0  0  0
   -2.8865   -0.0605    0.4411 C   0  0  0  0  0  0  0  0  0  0  0  0
   -2.4030    0.3908   -0.6285 O   0  0  0  0  0  0  0  0  0  0  0  0
   -4.3492    0.1387    0.6337 C   0  0  0  0  0  0  0  0  0  0  0  0
   -5.2075    0.1517   -0.4200 C   0  0  0  0  0  0  0  0  0  0  0  0
   -6.5529    0.3449   -0.2214 C   0  0  0  0  0  0  0  0  0  0  0  0
   -6.9804    0.5238    1.0999 C   0  0  0  0  0  0  0  0  0  0  0  0
   -6.1431    0.5185    2.1728 C   0  0  0  0  0  0  0  0  0  0  0  0
   -4.7992    0.3212    1.9340 C   0  0  0  0  0  0  0  0  0  0  0  0
   -6.5838    0.7262    3.5733 C   0  0  0  0  0  0  0  0  0  0  0  0
   -7.6873   -0.0584    3.8368 F   0  0  0  0  0  0  0  0  0  0  0  0
   -6.9587    2.0655    3.7681 F   0  0  0  0  0  0  0  0  0  0  0  0
   -5.5784    0.4221    4.4815 F   0  0  0  0  0  0  0  0  0  0  0  0
   -7.5355    0.4405   -1.2344 N   0  0  0  0  0  0  0  0  0  0  0  0
   -7.3593    0.6161   -2.5299 C   0  0  0  0  0  0  0  0  0  0  0  0
   -8.5622    0.7186   -3.1654 N   0  0  0  0  0  0  0  0  0  0  0  0
   -9.5453    0.6007   -2.2405 C   0  0  0  0  0  0  0  0  0  0  0  0
  -11.0219    0.6601   -2.5100 C   0  0  0  0  0  0  0  0  0  0  0  0
   -8.8761    0.4292   -1.0530 C   0  0  0  0  0  0  0  0  0  0  0  0
   -0.4151   -1.9758    2.5610 C   0  0  0  0  0  0  0  0  0  0  0  0
    0.8638   -2.3248    2.7742 C   0  0  0  0  0  0  0  0  0  0  0  0
    1.8449   -1.7903    2.0339 C   0  0  0  0  0  0  0  0  0  0  0  0
    3.2775   -2.1199    2.2619 C   0  0  0  0  0  0  0  0  0  0  0  0
    4.1828    1.9974   -2.1089 C   0  0  0  0  0  0  0  0  0  0  0  0
    5.4389    2.3248   -2.5605 N   0  0  0  0  0  0  0  0  0  0  0  0
    6.5154    1.5826   -2.1589 C   0  0  0  0  0  0  0  0  0  0  0  0
    7.8552    1.6422   -2.3780 N   0  0  0  0  0  0  0  0  0  0  0  0
   11.9800   -1.2732    0.2592 H   0  0  0  0  0  0  0  0  0  0  0  0
   12.5412   -0.0595   -0.9175 H   0  0  0  0  0  0  0  0  0  0  0  0
   12.1566   -1.8029   -1.4200 H   0  0  0  0  0  0  0  0  0  0  0  0
    7.7659   -0.9116   -0.4156 H   0  0  0  0  0  0  0  0  0  0  0  0
    4.9716   -0.6327   -0.2268 H   0  0  0  0  0  0  0  0  0  0  0  0
    1.8064    1.0769   -1.1283 H   0  0  0  0  0  0  0  0  0  0  0  0
    3.1297   -1.2997   -0.2582 H   0  0  0  0  0  0  0  0  0  0  0  0
    3.4970   -0.1348    1.0338 H   0  0  0  0  0  0  0  0  0  0  0  0
   -0.0599    0.2177    0.0332 H   0  0  0  0  0  0  0  0  0  0  0  0
   -2.7554   -1.0629    2.2853 H   0  0  0  0  0  0  0  0  0  0  0  0
   -4.8393   -0.0097   -1.4258 H   0  0  0  0  0  0  0  0  0  0  0  0
   -8.0413    0.6665    1.2684 H   0  0  0  0  0  0  0  0  0  0  0  0
   -4.0886    0.3086    2.7347 H   0  0  0  0  0  0  0  0  0  0  0  0
   -6.3697    0.6682   -3.0086 H   0  0  0  0  0  0  0  0  0  0  0  0
  -11.3950   -0.3811   -2.6816 H   0  0  0  0  0  0  0  0  0  0  0  0
  -11.1379    1.2887   -3.3864 H   0  0  0  0  0  0  0  0  0  0  0  0
  -11.4923    1.1573   -1.6281 H   0  0  0  0  0  0  0  0  0  0  0  0
   -9.3690    0.3044   -0.1079 H   0  0  0  0  0  0  0  0  0  0  0  0
   -1.1779   -2.4148    3.1731 H   0  0  0  0  0  0  0  0  0  0  0  0
    1.1503   -3.0559    3.5578 H   0  0  0  0  0  0  0  0  0  0  0  0
    3.8431   -1.2605    2.6773 H   0  0  0  0  0  0  0  0  0  0  0  0
    3.7483   -2.5086    1.3265 H   0  0  0  0  0  0  0  0  0  0  0  0
    3.3233   -2.9349    2.9906 H   0  0  0  0  0  0  0  0  0  0  0  0
    3.3308    2.5909   -2.4320 H   0  0  0  0  0  0  0  0  0  0  0  0
    8.3305    2.3548   -2.9862 H   0  0  0  0  0  0  0  0  0  0  0  0
  1  2  1  0
  2  3  1  0
  3  4  2  0
  3  5  1  0
  5  6  2  0
  6  7  1  0
  7  8  2  0
  8  9  1  0
  9 10  1  0
 10 11  1  0
 11 12  1  0
 12 13  2  0
 13 14  1  0
 14 15  1  0
 15 16  1  0
 16 17  2  0
 16 18  1  0
 18 19  2  0
 19 20  1  0
 20 21  2  0
 21 22  1  0
 22 23  2  0
 22 24  1  0
 24 25  1  0
 24 26  1  0
 24 27  1  0
 20 28  1  0
 28 29  1  0
 29 30  2  0
 30 31  1  0
 31 32  1  0
 31 33  2  0
 14 34  2  0
 34 35  1  0
 35 36  2  0
 36 37  1  0
  9 38  2  0
 38 39  1  0
 39 40  2  0
 40 41  1  0
 41  5  1  0
 40  7  1  0
 36 12  1  0
 23 18  1  0
 33 28  1  0
  1 42  1  0
  1 43  1  0
  1 44  1  0
  6 45  1  0
  8 46  1  0
 10 47  1  0
 11 48  1  0
 11 49  1  0
 13 50  1  0
 15 51  1  0
 19 52  1  0
 21 53  1  0
 23 54  1  0
 29 55  1  0
 32 56  1  0
 32 57  1  0
 32 58  1  0
 33 59  1  0
 34 60  1  0
 35 61  1  0
 37 62  1  0
 37 63  1  0
 37 64  1  0
 38 65  1  0
 41 66  1  0
M  END
$$$$
[H]c1nc(N([H])[H])c([H])c(-n2c(N([H])c3c([H])c(N([H])C(=O)c4c([H])c(N5C([H])([H])C([H])([H])N(C([H])([H])C([H])([H])[H])C([H])([H])C5([H])[H])c([H])c(C(F)(F)F)c4[H])c([H])c([H])c3C([H])([H])[H])nc3c([H])c([H])c([H])c([H])c32)n1
     RDKit          3D

 77 82  0  0  0  0  0  0  0  0999 V2000
   10.0424   -2.7966    0.8709 C   0  0  0  0  0  0  0  0  0  0  0  0
    8.8446   -2.1405    1.5495 C   0  0  0  0  0  0  0  0  0  0  0  0
    8.5230   -0.9069    0.8852 N   0  0  0  0  0  0  0  0  0  0  0  0
    8.0080   -1.1112   -0.4380 C   0  0  0  0  0  0  0  0  0  0  0  0
    6.5611   -1.6465   -0.4208 C   0  0  0  0  0  0  0  0  0  0  0  0
    5.8183   -0.6215    0.3202 N   0  0  0  0  0  0  0  0  0  0  0  0
    6.2646   -0.3718    1.6837 C   0  0  0  0  0  0  0  0  0  0  0  0
    7.7383   -0.0289    1.6881 C   0  0  0  0  0  0  0  0  0  0  0  0
    4.7771    0.1014   -0.2970 C   0  0  0  0  0  0  0  0  0  0  0  0
    3.4179   -0.1594   -0.1524 C   0  0  0  0  0  0  0  0  0  0  0  0
    2.4758    0.5883   -0.7905 C   0  0  0  0  0  0  0  0  0  0  0  0
    2.9195    1.6426   -1.6093 C   0  0  0  0  0  0  0  0  0  0  0  0
    4.2341    1.9319   -1.7779 C   0  0  0  0  0  0  0  0  0  0  0  0
    5.1543    1.1548   -1.1187 C   0  0  0  0  0  0  0  0  0  0  0  0
    4.6839    3.0842   -2.6552 C   0  0  0  0  0  0  0  0  0  0  0  0
    4.4919    2.8309   -3.9707 F   0  0  0  0  0  0  0  0  0  0  0  0
    3.9258    4.1595   -2.2748 F   0  0  0  0  0  0  0  0  0  0  0  0
    6.0048    3.3496   -2.3300 F   0  0  0  0  0  0  0  0  0  0  0  0
    0.9848    0.4095   -0.6932 C   0  0  0  0  0  0  0  0  0  0  0  0
    0.5109   -0.7134   -0.6039 O   0  0  0  0  0  0  0  0  0  0  0  0
    0.2297    1.5889   -0.7259 N   0  0  0  0  0  0  0  0  0  0  0  0
   -1.1156    1.9331   -0.7177 C   0  0  0  0  0  0  0  0  0  0  0  0
   -1.4052    3.2892   -1.0002 C   0  0  0  0  0  0  0  0  0  0  0  0
   -2.6718    3.7546   -1.0400 C   0  0  0  0  0  0  0  0  0  0  0  0
   -3.7051    2.9214   -0.8074 C   0  0  0  0  0  0  0  0  0  0  0  0
   -5.0986    3.4659   -0.8987 C   0  0  0  0  0  0  0  0  0  0  0  0
   -3.5217    1.5381   -0.5134 C   0  0  0  0  0  0  0  0  0  0  0  0
   -4.6813    0.8166   -0.2841 N   0  0  0  0  0  0  0  0  0  0  0  0
   -4.9039   -0.5490   -0.0518 C   0  0  0  0  0  0  0  0  0  0  0  0
   -4.0561   -1.5941    0.0409 N   0  0  0  0  0  0  0  0  0  0  0  0
   -4.7282   -2.7409    0.2642 C   0  0  0  0  0  0  0  0  0  0  0  0
   -4.4092   -4.0781    0.4491 C   0  0  0  0  0  0  0  0  0  0  0  0
   -5.3851   -5.0487    0.6787 C   0  0  0  0  0  0  0  0  0  0  0  0
   -6.7185   -4.7123    0.7279 C   0  0  0  0  0  0  0  0  0  0  0  0
   -7.0432   -3.3972    0.5418 C   0  0  0  0  0  0  0  0  0  0  0  0
   -6.0612   -2.4299    0.3150 C   0  0  0  0  0  0  0  0  0  0  0  0
   -6.1561   -1.0948    0.1228 N   0  0  0  0  0  0  0  0  0  0  0  0
   -7.3865   -0.4252    0.1000 C   0  0  0  0  0  0  0  0  0  0  0  0
   -7.7443    0.5968    0.9515 C   0  0  0  0  0  0  0  0  0  0  0  0
   -8.9635    1.2016    0.8984 C   0  0  0  0  0  0  0  0  0  0  0  0
   -9.4179    2.2524    1.7262 N   0  0  0  0  0  0  0  0  0  0  0  0
   -9.8959    0.7818   -0.0359 N   0  0  0  0  0  0  0  0  0  0  0  0
   -9.5412   -0.2025   -0.8540 C   0  0  0  0  0  0  0  0  0  0  0  0
   -8.3542   -0.7747   -0.7924 N   0  0  0  0  0  0  0  0  0  0  0  0
   -2.2062    1.1208   -0.4858 C   0  0  0  0  0  0  0  0  0  0  0  0
    9.6945   -3.3210   -0.0677 H   0  0  0  0  0  0  0  0  0  0  0  0
   10.8506   -2.1096    0.6939 H   0  0  0  0  0  0  0  0  0  0  0  0
   10.3811   -3.6121    1.5377 H   0  0  0  0  0  0  0  0  0  0  0  0
    8.0086   -2.8375    1.5355 H   0  0  0  0  0  0  0  0  0  0  0  0
    9.1438   -1.9004    2.5949 H   0  0  0  0  0  0  0  0  0  0  0  0
    8.6232   -1.8569   -0.9817 H   0  0  0  0  0  0  0  0  0  0  0  0
    7.9984   -0.1452   -0.9607 H   0  0  0  0  0  0  0  0  0  0  0  0
    6.2378   -1.6672   -1.4837 H   0  0  0  0  0  0  0  0  0  0  0  0
    6.5358   -2.6282    0.0602 H   0  0  0  0  0  0  0  0  0  0  0  0
    5.7015    0.4876    2.0914 H   0  0  0  0  0  0  0  0  0  0  0  0
    6.1132   -1.2345    2.3526 H   0  0  0  0  0  0  0  0  0  0  0  0
    7.8795    1.0224    1.3562 H   0  0  0  0  0  0  0  0  0  0  0  0
    8.0732   -0.1002    2.7581 H   0  0  0  0  0  0  0  0  0  0  0  0
    3.1044   -0.9752    0.4789 H   0  0  0  0  0  0  0  0  0  0  0  0
    2.1755    2.2202   -2.1361 H   0  0  0  0  0  0  0  0  0  0  0  0
    6.1880    1.3928   -1.2473 H   0  0  0  0  0  0  0  0  0  0  0  0
    0.8942    2.4896   -0.7133 H   0  0  0  0  0  0  0  0  0  0  0  0
   -0.5720    3.9971   -1.1934 H   0  0  0  0  0  0  0  0  0  0  0  0
   -2.8764    4.8246   -1.2482 H   0  0  0  0  0  0  0  0  0  0  0  0
   -5.5777    3.4922    0.0785 H   0  0  0  0  0  0  0  0  0  0  0  0
   -5.6572    2.8712   -1.6686 H   0  0  0  0  0  0  0  0  0  0  0  0
   -5.0670    4.4943   -1.3364 H   0  0  0  0  0  0  0  0  0  0  0  0
   -5.5973    1.4016   -0.2612 H   0  0  0  0  0  0  0  0  0  0  0  0
   -3.3848   -4.3869    0.4152 H   0  0  0  0  0  0  0  0  0  0  0  0
   -5.1336   -6.0942    0.8242 H   0  0  0  0  0  0  0  0  0  0  0  0
   -7.5100   -5.4621    0.9193 H   0  0  0  0  0  0  0  0  0  0  0  0
   -8.0745   -3.1036    0.5480 H   0  0  0  0  0  0  0  0  0  0  0  0
   -7.0311    0.9583    1.7130 H   0  0  0  0  0  0  0  0  0  0  0  0
   -8.8300    3.0140    2.0878 H   0  0  0  0  0  0  0  0  0  0  0  0
  -10.4242    2.2576    2.0050 H   0  0  0  0  0  0  0  0  0  0  0  0
  -10.2927   -0.5239   -1.5834 H   0  0  0  0  0  0  0  0  0  0  0  0
   -2.0146    0.0655   -0.2619 H   0  0  0  0  0  0  0  0  0  0  0  0
  1  2  1  0
  2  3  1  0
  3  4  1  0
  4  5  1  0
  5  6  1  0
  6  7  1  0
  7  8  1  0
  6  9  1  0
  9 10  2  0
 10 11  1  0
 11 12  2  0
 12 13  1  0
 13 14  2  0
 13 15  1  0
 15 16  1  0
 15 17  1  0
 15 18  1  0
 11 19  1  0
 19 20  2  0
 19 21  1  0
 21 22  1  0
 22 23  2  0
 23 24  1  0
 24 25  2  0
 25 26  1  0
 25 27  1  0
 27 28  1  0
 28 29  1  0
 29 30  2  0
 30 31  1  0
 31 32  2  0
 32 33  1  0
 33 34  2  0
 34 35  1  0
 35 36  2  0
 36 37  1  0
 37 38  1  0
 38 39  2  0
 39 40  1  0
 40 41  1  0
 40 42  2  0
 42 43  1  0
 43 44  2  0
 27 45  2  0
  8  3  1  0
 14  9  1  0
 45 22  1  0
 37 29  1  0
 44 38  1  0
 36 31  1  0
  1 46  1  0
  1 47  1  0
  1 48  1  0
  2 49  1  0
  2 50  1  0
  4 51  1  0
  4 52  1  0
  5 53  1  0
  5 54  1  0
  7 55  1  0
  7 56  1  0
  8 57  1  0
  8 58  1  0
 10 59  1  0
 12 60  1  0
 14 61  1  0
 21 62  1  0
 23 63  1  0
 24 64  1  0
 26 65  1  0
 26 66  1  0
 26 67  1  0
 28 68  1  0
 32 69  1  0
 33 70  1  0
 34 71  1  0
 35 72  1  0
 39 73  1  0
 41 74  1  0
 41 75  1  0
 43 76  1  0
 45 77  1  0
M  END
$$$$
[H]Oc1c([H])c([H])c(C([H])([H])[H])c(N([H])c2nc3c([H])c([H])c(N(C(=O)/C([H])=C(\[H])C([H])([H])N(C([H])([H])[H])C([H])([H])[H])C([H])([H])[H])c([H])c3n3c([H])nc([H])c23)c1[H]
     RDKit          3D

 58 61  0  0  0  0  0  0  0  0999 V2000
    7.4105   -1.9023    0.0530 C   0  0  0  0  0  0  0  0  0  0  0  0
    5.9865   -2.1735   -0.1791 N   0  0  0  0  0  0  0  0  0  0  0  0
    5.3674   -2.4550    1.0782 C   0  0  0  0  0  0  0  0  0  0  0  0
    5.3874   -1.1130   -0.9286 C   0  0  0  0  0  0  0  0  0  0  0  0
    5.3023    0.1488   -0.1698 C   0  0  0  0  0  0  0  0  0  0  0  0
    4.1034    0.7033    0.0517 C   0  0  0  0  0  0  0  0  0  0  0  0
    4.0018    1.9453    0.7952 C   0  0  0  0  0  0  0  0  0  0  0  0
    5.0703    2.4982    1.2355 O   0  0  0  0  0  0  0  0  0  0  0  0
    2.7935    2.5809    1.0614 N   0  0  0  0  0  0  0  0  0  0  0  0
    2.7010    3.8384    1.8036 C   0  0  0  0  0  0  0  0  0  0  0  0
    1.5490    2.0496    0.6242 C   0  0  0  0  0  0  0  0  0  0  0  0
    1.2251    1.8928   -0.7274 C   0  0  0  0  0  0  0  0  0  0  0  0
    0.0004    1.3874   -1.1063 C   0  0  0  0  0  0  0  0  0  0  0  0
   -0.9499    1.0181   -0.1817 C   0  0  0  0  0  0  0  0  0  0  0  0
   -2.1526    0.5312   -0.4699 N   0  0  0  0  0  0  0  0  0  0  0  0
   -3.0978    0.1709    0.3954 C   0  0  0  0  0  0  0  0  0  0  0  0
   -4.3362   -0.3090    0.0023 N   0  0  0  0  0  0  0  0  0  0  0  0
   -4.8872   -0.5719   -1.2559 C   0  0  0  0  0  0  0  0  0  0  0  0
   -4.1996   -0.5288   -2.4285 C   0  0  0  0  0  0  0  0  0  0  0  0
   -4.7507   -0.8193   -3.6880 C   0  0  0  0  0  0  0  0  0  0  0  0
   -3.9513   -0.7431   -4.8288 O   0  0  0  0  0  0  0  0  0  0  0  0
   -6.0792   -1.1693   -3.7126 C   0  0  0  0  0  0  0  0  0  0  0  0
   -6.8269   -1.2303   -2.5586 C   0  0  0  0  0  0  0  0  0  0  0  0
   -6.2466   -0.9373   -1.3477 C   0  0  0  0  0  0  0  0  0  0  0  0
   -7.0763   -0.9906   -0.1103 C   0  0  0  0  0  0  0  0  0  0  0  0
   -2.7956    0.3190    1.7616 C   0  0  0  0  0  0  0  0  0  0  0  0
   -3.5312    0.0475    2.9184 C   0  0  0  0  0  0  0  0  0  0  0  0
   -2.7155    0.3935    3.9273 N   0  0  0  0  0  0  0  0  0  0  0  0
   -1.5519    0.8491    3.4371 C   0  0  0  0  0  0  0  0  0  0  0  0
   -1.5921    0.8063    2.0743 N   0  0  0  0  0  0  0  0  0  0  0  0
   -0.6580    1.1621    1.1766 C   0  0  0  0  0  0  0  0  0  0  0  0
    0.5688    1.6674    1.5283 C   0  0  0  0  0  0  0  0  0  0  0  0
    7.9218   -1.9059   -0.9402 H   0  0  0  0  0  0  0  0  0  0  0  0
    7.4469   -0.8995    0.5253 H   0  0  0  0  0  0  0  0  0  0  0  0
    7.8201   -2.7062    0.6966 H   0  0  0  0  0  0  0  0  0  0  0  0
    5.7135   -1.6858    1.8250 H   0  0  0  0  0  0  0  0  0  0  0  0
    5.7248   -3.4630    1.4282 H   0  0  0  0  0  0  0  0  0  0  0  0
    4.2614   -2.4254    1.0293 H   0  0  0  0  0  0  0  0  0  0  0  0
    5.9998   -0.9727   -1.8663 H   0  0  0  0  0  0  0  0  0  0  0  0
    4.3861   -1.4635   -1.2575 H   0  0  0  0  0  0  0  0  0  0  0  0
    6.1406    0.6759    0.2323 H   0  0  0  0  0  0  0  0  0  0  0  0
    3.2341    0.2291   -0.3154 H   0  0  0  0  0  0  0  0  0  0  0  0
    2.2807    3.5835    2.8025 H   0  0  0  0  0  0  0  0  0  0  0  0
    3.6587    4.3679    1.8604 H   0  0  0  0  0  0  0  0  0  0  0  0
    1.9706    4.5008    1.2708 H   0  0  0  0  0  0  0  0  0  0  0  0
    1.9611    2.1793   -1.4667 H   0  0  0  0  0  0  0  0  0  0  0  0
   -0.2591    1.2624   -2.1493 H   0  0  0  0  0  0  0  0  0  0  0  0
   -5.0063   -0.5292    0.8293 H   0  0  0  0  0  0  0  0  0  0  0  0
   -3.1489   -0.2648   -2.4488 H   0  0  0  0  0  0  0  0  0  0  0  0
   -3.4771   -1.6317   -5.0603 H   0  0  0  0  0  0  0  0  0  0  0  0
   -6.5242   -1.3978   -4.6724 H   0  0  0  0  0  0  0  0  0  0  0  0
   -7.8908   -1.5126   -2.5871 H   0  0  0  0  0  0  0  0  0  0  0  0
   -6.9236   -0.0166    0.4209 H   0  0  0  0  0  0  0  0  0  0  0  0
   -8.1401   -1.0558   -0.3867 H   0  0  0  0  0  0  0  0  0  0  0  0
   -6.7597   -1.8608    0.4887 H   0  0  0  0  0  0  0  0  0  0  0  0
   -4.5377   -0.3545    2.9342 H   0  0  0  0  0  0  0  0  0  0  0  0
   -0.6976    1.2016    3.9964 H   0  0  0  0  0  0  0  0  0  0  0  0
    0.7761    1.7708    2.5797 H   0  0  0  0  0  0  0  0  0  0  0  0
  1  2  1  0
  2  3  1  0
  2  4  1  0
  4  5  1  0
  5  6  2  0
  6  7  1  0
  7  8  2  0
  7  9  1  0
  9 10  1  0
  9 11  1  0
 11 12  2  0
 12 13  1  0
 13 14  2  0
 14 15  1  0
 15 16  2  0
 16 17  1  0
 17 18  1  0
 18 19  2  0
 19 20  1  0
 20 21  1  0
 20 22  2  0
 22 23  1  0
 23 24  2  0
 24 25  1  0
 16 26  1  0
 26 27  2  0
 27 28  1  0
 28 29  2  0
 29 30  1  0
 30 31  1  0
 31 32  2  0
 32 11  1  0
 31 14  1  0
 24 18  1  0
 30 26  1  0
  1 33  1  0
  1 34  1  0
  1 35  1  0
  3 36  1  0
  3 37  1  0
  3 38  1  0
  4 39  1  0
  4 40  1  0
  5 41  1  0
  6 42  1  0
 10 43  1  0
 10 44  1  0
 10 45  1  0
 12 46  1  0
 13 47  1  0
 17 48  1  0
 19 49  1  0
 21 50  1  0
 22 51  1  0
 23 52  1  0
 25 53  1  0
 25 54  1  0
 25 55  1  0
 27 56  1  0
 29 57  1  0
 32 58  1  0
M  END
$$$$
[H]OC([H])([H])c1c([H])c([H])c(C([H])([H])[H])c(N(c2nc(N([H])c3c([H])c([H])c(N4C([H])([H])C([H])([H])N(C([H])([H])[H])C([H])([H])C4([H])[H])c(S(=O)(=O)C([H])([H])C([H])([H])[H])c3[H])nc([H])c2F)C([H])([H])c2c([H])c([H])c([H])c([H])c2C#N)c1[H]
     RDKit          3D

 81 85  0  0  0  0  0  0  0  0999 V2000
   -6.9408   -3.5148   -2.4647 C   0  0  0  0  0  0  0  0  0  0  0  0
   -6.2464   -2.7005   -1.3599 C   0  0  0  0  0  0  0  0  0  0  0  0
   -5.0430   -1.7068   -2.1675 S   0  0  0  0  0  0  0  0  0  0  0  0
   -5.5753   -0.9851   -3.3891 O   0  0  0  0  0  0  0  0  0  0  0  0
   -4.0572   -2.7257   -2.7850 O   0  0  0  0  0  0  0  0  0  0  0  0
   -4.1133   -0.6920   -1.1233 C   0  0  0  0  0  0  0  0  0  0  0  0
   -2.7225   -0.8058   -1.0777 C   0  0  0  0  0  0  0  0  0  0  0  0
   -1.8918   -0.0353   -0.2724 C   0  0  0  0  0  0  0  0  0  0  0  0
   -0.5221   -0.2794   -0.3784 N   0  0  0  0  0  0  0  0  0  0  0  0
    0.4756    0.0705    0.5492 C   0  0  0  0  0  0  0  0  0  0  0  0
    0.2482    0.7000    1.7133 N   0  0  0  0  0  0  0  0  0  0  0  0
    1.2194    1.0098    2.5626 C   0  0  0  0  0  0  0  0  0  0  0  0
    2.5369    0.6649    2.2290 C   0  0  0  0  0  0  0  0  0  0  0  0
    3.4839    0.9610    3.1099 F   0  0  0  0  0  0  0  0  0  0  0  0
    2.8113    0.0270    1.0577 C   0  0  0  0  0  0  0  0  0  0  0  0
    1.7794   -0.2494    0.2589 N   0  0  0  0  0  0  0  0  0  0  0  0
    4.1750   -0.3314    0.6370 N   0  0  0  0  0  0  0  0  0  0  0  0
    4.2176   -1.3897   -0.2804 C   0  0  0  0  0  0  0  0  0  0  0  0
    5.3060   -1.7593   -1.1219 C   0  0  0  0  0  0  0  0  0  0  0  0
    6.4821   -1.1397   -1.3011 C   0  0  0  0  0  0  0  0  0  0  0  0
    7.4274   -1.6176   -2.1962 C   0  0  0  0  0  0  0  0  0  0  0  0
    7.2309   -2.7330   -2.9463 C   0  0  0  0  0  0  0  0  0  0  0  0
    6.0134   -3.3850   -2.7697 C   0  0  0  0  0  0  0  0  0  0  0  0
    5.0797   -2.9324   -1.9001 C   0  0  0  0  0  0  0  0  0  0  0  0
    3.8326   -3.6636   -1.7676 C   0  0  0  0  0  0  0  0  0  0  0  0
    2.8407   -4.2528   -1.6768 N   0  0  0  0  0  0  0  0  0  0  0  0
    5.2032    0.3900    1.2191 C   0  0  0  0  0  0  0  0  0  0  0  0
    5.3573    1.7518    0.9138 C   0  0  0  0  0  0  0  0  0  0  0  0
    6.3499    2.5256    1.4541 C   0  0  0  0  0  0  0  0  0  0  0  0
    6.4623    3.9523    1.0954 C   0  0  0  0  0  0  0  0  0  0  0  0
    7.5478    4.5478    1.7454 O   0  0  0  0  0  0  0  0  0  0  0  0
    7.2529    1.9862    2.3359 C   0  0  0  0  0  0  0  0  0  0  0  0
    7.1458    0.6653    2.6660 C   0  0  0  0  0  0  0  0  0  0  0  0
    6.1441   -0.1171    2.1211 C   0  0  0  0  0  0  0  0  0  0  0  0
    6.0983   -1.5236    2.5339 C   0  0  0  0  0  0  0  0  0  0  0  0
   -2.4993    0.8902    0.5197 C   0  0  0  0  0  0  0  0  0  0  0  0
   -3.8622    1.0303    0.5021 C   0  0  0  0  0  0  0  0  0  0  0  0
   -4.6949    0.2350   -0.3261 C   0  0  0  0  0  0  0  0  0  0  0  0
   -6.0683    0.4706   -0.2491 N   0  0  0  0  0  0  0  0  0  0  0  0
   -6.9665    0.9291   -1.2594 C   0  0  0  0  0  0  0  0  0  0  0  0
   -8.0734    1.7534   -0.6129 C   0  0  0  0  0  0  0  0  0  0  0  0
   -7.5869    2.4530    0.5073 N   0  0  0  0  0  0  0  0  0  0  0  0
   -6.7512    3.5466    0.1466 C   0  0  0  0  0  0  0  0  0  0  0  0
   -7.1723    1.6296    1.5841 C   0  0  0  0  0  0  0  0  0  0  0  0
   -6.6893    0.2512    1.0790 C   0  0  0  0  0  0  0  0  0  0  0  0
   -6.3479   -4.4443   -2.6548 H   0  0  0  0  0  0  0  0  0  0  0  0
   -7.0023   -2.8758   -3.3680 H   0  0  0  0  0  0  0  0  0  0  0  0
   -7.9846   -3.7529   -2.1803 H   0  0  0  0  0  0  0  0  0  0  0  0
   -5.7021   -3.3671   -0.6578 H   0  0  0  0  0  0  0  0  0  0  0  0
   -7.0485   -2.1716   -0.8544 H   0  0  0  0  0  0  0  0  0  0  0  0
   -2.2945   -1.5561   -1.7263 H   0  0  0  0  0  0  0  0  0  0  0  0
   -0.1760   -0.7799   -1.2585 H   0  0  0  0  0  0  0  0  0  0  0  0
    1.0371    1.5088    3.4856 H   0  0  0  0  0  0  0  0  0  0  0  0
    3.3066   -1.2909   -1.0229 H   0  0  0  0  0  0  0  0  0  0  0  0
    3.8234   -2.3576    0.2578 H   0  0  0  0  0  0  0  0  0  0  0  0
    6.7621   -0.2203   -0.7778 H   0  0  0  0  0  0  0  0  0  0  0  0
    8.3660   -1.0569   -2.2882 H   0  0  0  0  0  0  0  0  0  0  0  0
    7.9603   -3.1173   -3.6490 H   0  0  0  0  0  0  0  0  0  0  0  0
    5.8719   -4.2828   -3.3826 H   0  0  0  0  0  0  0  0  0  0  0  0
    4.6434    2.1687    0.2202 H   0  0  0  0  0  0  0  0  0  0  0  0
    5.5675    4.5492    1.3709 H   0  0  0  0  0  0  0  0  0  0  0  0
    6.5808    4.0129   -0.0067 H   0  0  0  0  0  0  0  0  0  0  0  0
    8.1184    4.9592    1.0524 H   0  0  0  0  0  0  0  0  0  0  0  0
    8.0527    2.6025    2.7735 H   0  0  0  0  0  0  0  0  0  0  0  0
    7.8753    0.2655    3.3670 H   0  0  0  0  0  0  0  0  0  0  0  0
    7.1239   -1.9570    2.3411 H   0  0  0  0  0  0  0  0  0  0  0  0
    5.9865   -1.5862    3.6441 H   0  0  0  0  0  0  0  0  0  0  0  0
    5.4018   -2.1619    2.0001 H   0  0  0  0  0  0  0  0  0  0  0  0
   -1.9409    1.5395    1.1651 H   0  0  0  0  0  0  0  0  0  0  0  0
   -4.3247    1.7684    1.1361 H   0  0  0  0  0  0  0  0  0  0  0  0
   -7.5395    0.0837   -1.7504 H   0  0  0  0  0  0  0  0  0  0  0  0
   -6.4688    1.5055   -2.0664 H   0  0  0  0  0  0  0  0  0  0  0  0
   -8.9314    1.0775   -0.3898 H   0  0  0  0  0  0  0  0  0  0  0  0
   -8.4542    2.4539   -1.4014 H   0  0  0  0  0  0  0  0  0  0  0  0
   -6.1414    3.3456   -0.7831 H   0  0  0  0  0  0  0  0  0  0  0  0
   -6.0781    3.8372    1.0025 H   0  0  0  0  0  0  0  0  0  0  0  0
   -7.3243    4.4887   -0.0809 H   0  0  0  0  0  0  0  0  0  0  0  0
   -6.4296    2.0783    2.2671 H   0  0  0  0  0  0  0  0  0  0  0  0
   -8.0626    1.3864    2.2341 H   0  0  0  0  0  0  0  0  0  0  0  0
   -7.5146   -0.4551    1.0403 H   0  0  0  0  0  0  0  0  0  0  0  0
   -5.9565   -0.0988    1.8255 H   0  0  0  0  0  0  0  0  0  0  0  0
  1  2  1  0
  2  3  1  0
  3  4  2  0
  3  5  2  0
  3  6  1  0
  6  7  2  0
  7  8  1  0
  8  9  1  0
  9 10  1  0
 10 11  2  0
 11 12  1  0
 12 13  2  0
 13 14  1  0
 13 15  1  0
 15 16  2  0
 15 17  1  0
 17 18  1  0
 18 19  1  0
 19 20  2  0
 20 21  1  0
 21 22  2  0
 22 23  1  0
 23 24  2  0
 24 25  1  0
 25 26  3  0
 17 27  1  0
 27 28  2  0
 28 29  1  0
 29 30  1  0
 30 31  1  0
 29 32  2  0
 32 33  1  0
 33 34  2  0
 34 35  1  0
  8 36  2  0
 36 37  1  0
 37 38  2  0
 38 39  1  0
 39 40  1  0
 40 41  1  0
 41 42  1  0
 42 43  1  0
 42 44  1  0
 44 45  1  0
 38  6  1  0
 45 39  1  0
 16 10  1  0
 24 19  1  0
 34 27  1  0
  1 46  1  0
  1 47  1  0
  1 48  1  0
  2 49  1  0
  2 50  1  0
  7 51  1  0
  9 52  1  0
 12 53  1  0
 18 54  1  0
 18 55  1  0
 20 56  1  0
 21 57  1  0
 22 58  1  0
 23 59  1  0
 28 60  1  0
 30 61  1  0
 30 62  1  0
 31 63  1  0
 32 64  1  0
 33 65  1  0
 35 66  1  0
 35 67  1  0
 35 68  1  0
 36 69  1  0
 37 70  1  0
 40 71  1  0
 40 72  1  0
 41 73  1  0
 41 74  1  0
 43 75  1  0
 43 76  1  0
 43 77  1  0
 44 78  1  0
 44 79  1  0
 45 80  1  0
 45 81  1  0
M  END
$$$$
[H]c1c([H])c(C([H])([H])[H])c(N([H])c2nc3c([H])c([H])c(N([H])C([H])([H])[H])c([H])c3n3c([H])nc([H])c23)c([H])c1F
     RDKit          3D

 40 43  0  0  0  0  0  0  0  0999 V2000
    6.2187    0.8278    1.8758 C   0  0  0  0  0  0  0  0  0  0  0  0
    5.4932   -0.0466    0.9555 N   0  0  0  0  0  0  0  0  0  0  0  0
    4.0800    0.0428    0.8149 C   0  0  0  0  0  0  0  0  0  0  0  0
    3.3274    0.9463    1.5290 C   0  0  0  0  0  0  0  0  0  0  0  0
    1.9679    1.0535    1.4132 C   0  0  0  0  0  0  0  0  0  0  0  0
    1.2880    0.2093    0.5279 C   0  0  0  0  0  0  0  0  0  0  0  0
   -0.0345    0.2738    0.3786 N   0  0  0  0  0  0  0  0  0  0  0  0
   -0.7591   -0.4923   -0.4418 C   0  0  0  0  0  0  0  0  0  0  0  0
   -2.1560   -0.4430   -0.6161 N   0  0  0  0  0  0  0  0  0  0  0  0
   -3.0418    0.4166    0.0359 C   0  0  0  0  0  0  0  0  0  0  0  0
   -2.7449    1.3686    0.9522 C   0  0  0  0  0  0  0  0  0  0  0  0
   -3.6861    2.1986    1.5667 C   0  0  0  0  0  0  0  0  0  0  0  0
   -3.3254    3.1342    2.4780 F   0  0  0  0  0  0  0  0  0  0  0  0
   -5.0002    2.0462    1.2255 C   0  0  0  0  0  0  0  0  0  0  0  0
   -5.3514    1.0919    0.2987 C   0  0  0  0  0  0  0  0  0  0  0  0
   -4.4105    0.2888   -0.2913 C   0  0  0  0  0  0  0  0  0  0  0  0
   -4.8575   -0.7252   -1.2865 C   0  0  0  0  0  0  0  0  0  0  0  0
    0.0115   -1.4210   -1.1762 C   0  0  0  0  0  0  0  0  0  0  0  0
   -0.4233   -2.3425   -2.0940 C   0  0  0  0  0  0  0  0  0  0  0  0
    0.6824   -2.9936   -2.5197 N   0  0  0  0  0  0  0  0  0  0  0  0
    1.7511   -2.4693   -1.8678 C   0  0  0  0  0  0  0  0  0  0  0  0
    1.3385   -1.4950   -1.0350 N   0  0  0  0  0  0  0  0  0  0  0  0
    2.0267   -0.7047   -0.1980 C   0  0  0  0  0  0  0  0  0  0  0  0
    3.3911   -0.7780   -0.0503 C   0  0  0  0  0  0  0  0  0  0  0  0
    6.1232    0.4705    2.9234 H   0  0  0  0  0  0  0  0  0  0  0  0
    7.2787    0.8994    1.6039 H   0  0  0  0  0  0  0  0  0  0  0  0
    5.7954    1.8591    1.7437 H   0  0  0  0  0  0  0  0  0  0  0  0
    5.9956   -0.7621    0.3753 H   0  0  0  0  0  0  0  0  0  0  0  0
    3.8257    1.6092    2.2186 H   0  0  0  0  0  0  0  0  0  0  0  0
    1.3748    1.7657    1.9761 H   0  0  0  0  0  0  0  0  0  0  0  0
   -2.5342   -1.1482   -1.3256 H   0  0  0  0  0  0  0  0  0  0  0  0
   -1.7390    1.5510    1.2733 H   0  0  0  0  0  0  0  0  0  0  0  0
   -5.7818    2.6525    1.6599 H   0  0  0  0  0  0  0  0  0  0  0  0
   -6.3946    0.9823    0.0382 H   0  0  0  0  0  0  0  0  0  0  0  0
   -4.5292   -0.4322   -2.3128 H   0  0  0  0  0  0  0  0  0  0  0  0
   -5.9616   -0.8080   -1.2529 H   0  0  0  0  0  0  0  0  0  0  0  0
   -4.4622   -1.7368   -1.0434 H   0  0  0  0  0  0  0  0  0  0  0  0
   -1.4443   -2.5368   -2.4342 H   0  0  0  0  0  0  0  0  0  0  0  0
    2.7570   -2.8271   -2.0390 H   0  0  0  0  0  0  0  0  0  0  0  0
    3.9109   -1.5257   -0.6574 H   0  0  0  0  0  0  0  0  0  0  0  0
  1  2  1  0
  2  3  1  0
  3  4  2  0
  4  5  1  0
  5  6  2  0
  6  7  1  0
  7  8  2  0
  8  9  1  0
  9 10  1  0
 10 11  2  0
 11 12  1  0
 12 13  1  0
 12 14  2  0
 14 15  1  0
 15 16  2  0
 16 17  1  0
  8 18  1  0
 18 19  2  0
 19 20  1  0
 20 21  2  0
 21 22  1  0
 22 23  1  0
 23 24  2  0
 24  3  1  0
 23  6  1  0
 16 10  1  0
 22 18  1  0
  1 25  1  0
  1 26  1  0
  1 27  1  0
  2 28  1  0
  4 29  1  0
  5 30  1  0
  9 31  1  0
 11 32  1  0
 14 33  1  0
 15 34  1  0
 17 35  1  0
 17 36  1  0
 17 37  1  0
 19 38  1  0
 21 39  1  0
 24 40  1  0
M  END
$$$$
[H]c1nc(N([H])[H])c([H])c(-n2c(N([H])c3c([H])c(N([H])C(=O)c4c([H])c([H])c([H])c(C([H])([H])[H])c4[H])c([H])c([H])c3C([H])([H])[H])nc3c([H])c([H])c([H])c([H])c32)n1
     RDKit          3D

 57 61  0  0  0  0  0  0  0  0999 V2000
    8.0025   -2.5914    0.4810 C   0  0  0  0  0  0  0  0  0  0  0  0
    6.5951   -2.1996    0.0943 C   0  0  0  0  0  0  0  0  0  0  0  0
    5.7240   -3.0610   -0.5399 C   0  0  0  0  0  0  0  0  0  0  0  0
    4.4354   -2.6402   -0.8815 C   0  0  0  0  0  0  0  0  0  0  0  0
    4.0246   -1.3656   -0.5893 C   0  0  0  0  0  0  0  0  0  0  0  0
    4.8855   -0.5312    0.0309 C   0  0  0  0  0  0  0  0  0  0  0  0
    6.1615   -0.9185    0.3801 C   0  0  0  0  0  0  0  0  0  0  0  0
    4.4436    0.8701    0.3554 C   0  0  0  0  0  0  0  0  0  0  0  0
    5.4097    1.7036    0.0948 O   0  0  0  0  0  0  0  0  0  0  0  0
    3.2818    1.1336    0.8195 N   0  0  0  0  0  0  0  0  0  0  0  0
    1.9779    1.4301    1.3404 C   0  0  0  0  0  0  0  0  0  0  0  0
    1.8714    2.1528    2.5199 C   0  0  0  0  0  0  0  0  0  0  0  0
    0.6270    2.4623    3.0691 C   0  0  0  0  0  0  0  0  0  0  0  0
   -0.5066    2.0426    2.4273 C   0  0  0  0  0  0  0  0  0  0  0  0
   -1.8261    2.3830    3.0619 C   0  0  0  0  0  0  0  0  0  0  0  0
   -0.4378    1.3196    1.2454 C   0  0  0  0  0  0  0  0  0  0  0  0
   -1.6610    0.9504    0.6658 N   0  0  0  0  0  0  0  0  0  0  0  0
   -1.9213    0.1467   -0.4687 C   0  0  0  0  0  0  0  0  0  0  0  0
   -1.0603   -0.4602   -1.2894 N   0  0  0  0  0  0  0  0  0  0  0  0
   -1.6873   -1.1658   -2.2752 C   0  0  0  0  0  0  0  0  0  0  0  0
   -1.2420   -1.9388   -3.3268 C   0  0  0  0  0  0  0  0  0  0  0  0
   -2.1661   -2.5503   -4.1801 C   0  0  0  0  0  0  0  0  0  0  0  0
   -3.4905   -2.3361   -3.9127 C   0  0  0  0  0  0  0  0  0  0  0  0
   -3.9453   -1.5604   -2.8582 C   0  0  0  0  0  0  0  0  0  0  0  0
   -3.0205   -0.9540   -2.0085 C   0  0  0  0  0  0  0  0  0  0  0  0
   -3.1752   -0.1689   -0.9294 N   0  0  0  0  0  0  0  0  0  0  0  0
   -4.3980    0.2536   -0.3523 C   0  0  0  0  0  0  0  0  0  0  0  0
   -4.7922    1.5583   -0.1849 C   0  0  0  0  0  0  0  0  0  0  0  0
   -5.9951    1.9333    0.3862 C   0  0  0  0  0  0  0  0  0  0  0  0
   -6.3903    3.2736    0.5571 N   0  0  0  0  0  0  0  0  0  0  0  0
   -6.8175    0.9509    0.7989 N   0  0  0  0  0  0  0  0  0  0  0  0
   -6.4733   -0.3359    0.6545 C   0  0  0  0  0  0  0  0  0  0  0  0
   -5.3061   -0.6804    0.0979 N   0  0  0  0  0  0  0  0  0  0  0  0
    0.8171    1.0277    0.7259 C   0  0  0  0  0  0  0  0  0  0  0  0
    8.0436   -2.8337    1.5739 H   0  0  0  0  0  0  0  0  0  0  0  0
    8.6290   -1.6943    0.3098 H   0  0  0  0  0  0  0  0  0  0  0  0
    8.3547   -3.3823   -0.1722 H   0  0  0  0  0  0  0  0  0  0  0  0
    6.0187   -4.0518   -0.7804 H   0  0  0  0  0  0  0  0  0  0  0  0
    3.7994   -3.3738   -1.3848 H   0  0  0  0  0  0  0  0  0  0  0  0
    3.0140   -1.0850   -0.8720 H   0  0  0  0  0  0  0  0  0  0  0  0
    6.8419   -0.2258    0.8793 H   0  0  0  0  0  0  0  0  0  0  0  0
    3.5372    2.4941    0.7418 H   0  0  0  0  0  0  0  0  0  0  0  0
    2.8023    2.4614    2.9799 H   0  0  0  0  0  0  0  0  0  0  0  0
    0.6160    3.0360    3.9927 H   0  0  0  0  0  0  0  0  0  0  0  0
   -2.2555    3.2372    2.5494 H   0  0  0  0  0  0  0  0  0  0  0  0
   -2.4442    1.4778    3.1314 H   0  0  0  0  0  0  0  0  0  0  0  0
   -1.6550    2.6829    4.1384 H   0  0  0  0  0  0  0  0  0  0  0  0
   -2.5379    1.3421    1.1388 H   0  0  0  0  0  0  0  0  0  0  0  0
   -0.2062   -2.0975   -3.5313 H   0  0  0  0  0  0  0  0  0  0  0  0
   -1.8437   -3.1696   -5.0250 H   0  0  0  0  0  0  0  0  0  0  0  0
   -4.2265   -2.8058   -4.5633 H   0  0  0  0  0  0  0  0  0  0  0  0
   -4.9996   -1.3907   -2.6496 H   0  0  0  0  0  0  0  0  0  0  0  0
   -4.1377    2.3407   -0.5093 H   0  0  0  0  0  0  0  0  0  0  0  0
   -5.6906    4.0365    0.4588 H   0  0  0  0  0  0  0  0  0  0  0  0
   -7.3652    3.5241    0.7830 H   0  0  0  0  0  0  0  0  0  0  0  0
   -7.1506   -1.1239    0.9929 H   0  0  0  0  0  0  0  0  0  0  0  0
    0.9114    0.4678   -0.1916 H   0  0  0  0  0  0  0  0  0  0  0  0
  1  2  1  0
  2  3  2  0
  3  4  1  0
  4  5  2  0
  5  6  1  0
  6  7  2  0
  6  8  1  0
  8  9  2  0
  8 10  1  0
 10 11  1  0
 11 12  2  0
 12 13  1  0
 13 14  2  0
 14 15  1  0
 14 16  1  0
 16 17  1  0
 17 18  1  0
 18 19  2  0
 19 20  1  0
 20 21  2  0
 21 22  1  0
 22 23  2  0
 23 24  1  0
 24 25  2  0
 25 26  1  0
 26 27  1  0
 27 28  2  0
 28 29  1  0
 29 30  1  0
 29 31  2  0
 31 32  1  0
 32 33  2  0
 16 34  2  0
  7  2  1  0
 34 11  1  0
 26 18  1  0
 33 27  1  0
 25 20  1  0
  1 35  1  0
  1 36  1  0
  1 37  1  0
  3 38  1  0
  4 39  1  0
  5 40  1  0
  7 41  1  0
 10 42  1  0
 12 43  1  0
 13 44  1  0
 15 45  1  0
 15 46  1  0
 15 47  1  0
 17 48  1  0
 21 49  1  0
 22 50  1  0
 23 51  1  0
 24 52  1  0
 28 53  1  0
 30 54  1  0
 30 55  1  0
 32 56  1  0
 34 57  1  0
M  END
$$$$
[H]c1nc(N([H])[H])c([H])c(-n2c(N([H])c3c([H])c(N([H])C(=O)c4nn(C(C([H])([H])[H])(C([H])([H])[H])C([H])([H])[H])c(C([H])([H])N5C([H])([H])C([H])([H])N(C([H])([H])[H])C([H])([H])C5([H])[H])c4[H])c([H])c([H])c3C([H])([H])[H])nc3c([H])c([H])c([H])c([H])c32)n1
     RDKit          3D

 83 88  0  0  0  0  0  0  0  0999 V2000
   -9.2720   -1.1644   -1.8075 C   0  0  0  0  0  0  0  0  0  0  0  0
   -8.8758   -0.8415   -0.4753 N   0  0  0  0  0  0  0  0  0  0  0  0
   -8.8493    0.5351   -0.1322 C   0  0  0  0  0  0  0  0  0  0  0  0
   -7.8490    0.7726    0.9701 C   0  0  0  0  0  0  0  0  0  0  0  0
   -6.5496    0.3212    0.4832 N   0  0  0  0  0  0  0  0  0  0  0  0
   -5.5715    0.7592    1.4534 C   0  0  0  0  0  0  0  0  0  0  0  0
   -4.1702    0.4453    1.0736 C   0  0  0  0  0  0  0  0  0  0  0  0
   -3.4982   -0.7423    1.2472 C   0  0  0  0  0  0  0  0  0  0  0  0
   -2.2284   -0.5765    0.7510 C   0  0  0  0  0  0  0  0  0  0  0  0
   -2.1883    0.6838    0.3065 N   0  0  0  0  0  0  0  0  0  0  0  0
   -3.3271    1.3171    0.4842 N   0  0  0  0  0  0  0  0  0  0  0  0
   -3.6226    2.7097    0.1146 C   0  0  0  0  0  0  0  0  0  0  0  0
   -3.7890    3.5885    1.3201 C   0  0  0  0  0  0  0  0  0  0  0  0
   -4.7728    2.8123   -0.8527 C   0  0  0  0  0  0  0  0  0  0  0  0
   -2.3913    3.2421   -0.6333 C   0  0  0  0  0  0  0  0  0  0  0  0
   -1.1287   -1.5757    0.7005 C   0  0  0  0  0  0  0  0  0  0  0  0
   -1.3618   -2.7307    1.1377 O   0  0  0  0  0  0  0  0  0  0  0  0
    0.1272   -1.2352    0.1807 N   0  0  0  0  0  0  0  0  0  0  0  0
    1.2847   -2.0157    0.0296 C   0  0  0  0  0  0  0  0  0  0  0  0
    1.2528   -3.3823    0.0069 C   0  0  0  0  0  0  0  0  0  0  0  0
    2.4253   -4.1467   -0.1237 C   0  0  0  0  0  0  0  0  0  0  0  0
    3.6173   -3.5003   -0.2298 C   0  0  0  0  0  0  0  0  0  0  0  0
    4.8709   -4.2624   -0.3674 C   0  0  0  0  0  0  0  0  0  0  0  0
    3.6885   -2.0965   -0.2105 C   0  0  0  0  0  0  0  0  0  0  0  0
    4.9695   -1.5422   -0.3290 N   0  0  0  0  0  0  0  0  0  0  0  0
    5.3062   -0.1673   -0.3101 C   0  0  0  0  0  0  0  0  0  0  0  0
    4.5460    0.9294   -0.1779 N   0  0  0  0  0  0  0  0  0  0  0  0
    5.2275    2.0600   -0.2047 C   0  0  0  0  0  0  0  0  0  0  0  0
    4.9286    3.4132   -0.1116 C   0  0  0  0  0  0  0  0  0  0  0  0
    5.9100    4.3840   -0.1774 C   0  0  0  0  0  0  0  0  0  0  0  0
    7.2114    4.0128   -0.3388 C   0  0  0  0  0  0  0  0  0  0  0  0
    7.5091    2.6718   -0.4314 C   0  0  0  0  0  0  0  0  0  0  0  0
    6.5466    1.6878   -0.3675 C   0  0  0  0  0  0  0  0  0  0  0  0
    6.5723    0.3527   -0.4286 N   0  0  0  0  0  0  0  0  0  0  0  0
    7.7651   -0.3951   -0.5934 C   0  0  0  0  0  0  0  0  0  0  0  0
    8.2975   -1.0319    0.5112 C   0  0  0  0  0  0  0  0  0  0  0  0
    9.4500   -1.7605    0.3778 C   0  0  0  0  0  0  0  0  0  0  0  0
    9.9977   -2.4124    1.5045 N   0  0  0  0  0  0  0  0  0  0  0  0
   10.0203   -1.8233   -0.8448 N   0  0  0  0  0  0  0  0  0  0  0  0
    9.4935   -1.2002   -1.9102 C   0  0  0  0  0  0  0  0  0  0  0  0
    8.3665   -0.4818   -1.8018 N   0  0  0  0  0  0  0  0  0  0  0  0
    2.5402   -1.3621   -0.0830 C   0  0  0  0  0  0  0  0  0  0  0  0
   -6.5490   -1.1249    0.3253 C   0  0  0  0  0  0  0  0  0  0  0  0
   -7.9119   -1.6900    0.1235 C   0  0  0  0  0  0  0  0  0  0  0  0
  -10.2746   -0.7389   -2.0502 H   0  0  0  0  0  0  0  0  0  0  0  0
   -8.5775   -0.8269   -2.5985 H   0  0  0  0  0  0  0  0  0  0  0  0
   -9.4051   -2.2714   -1.8750 H   0  0  0  0  0  0  0  0  0  0  0  0
   -9.8586    0.8108    0.2822 H   0  0  0  0  0  0  0  0  0  0  0  0
   -8.6633    1.1825   -1.0182 H   0  0  0  0  0  0  0  0  0  0  0  0
   -8.1910    0.2641    1.8726 H   0  0  0  0  0  0  0  0  0  0  0  0
   -7.7542    1.8875    1.1017 H   0  0  0  0  0  0  0  0  0  0  0  0
   -5.7538    1.8164    1.6729 H   0  0  0  0  0  0  0  0  0  0  0  0
   -5.7912    0.2034    2.4126 H   0  0  0  0  0  0  0  0  0  0  0  0
   -3.8674   -1.6802    1.6992 H   0  0  0  0  0  0  0  0  0  0  0  0
   -4.7996    4.0691    1.3479 H   0  0  0  0  0  0  0  0  0  0  0  0
   -3.6146    2.9909    2.2601 H   0  0  0  0  0  0  0  0  0  0  0  0
   -3.0568    4.4195    1.3752 H   0  0  0  0  0  0  0  0  0  0  0  0
   -5.7341    3.1079   -0.3566 H   0  0  0  0  0  0  0  0  0  0  0  0
   -4.8624    1.9258   -1.4881 H   0  0  0  0  0  0  0  0  0  0  0  0
   -4.5762    3.6665   -1.5667 H   0  0  0  0  0  0  0  0  0  0  0  0
   -1.9713    2.4507   -1.2928 H   0  0  0  0  0  0  0  0  0  0  0  0
   -2.6632    4.1545   -1.2156 H   0  0  0  0  0  0  0  0  0  0  0  0
   -1.6253    3.4701    0.1367 H   0  0  0  0  0  0  0  0  0  0  0  0
    0.2141   -0.2235   -0.1584 H   0  0  0  0  0  0  0  0  0  0  0  0
    0.3097   -3.9038    0.0764 H   0  0  0  0  0  0  0  0  0  0  0  0
    2.3525   -5.2176   -0.1358 H   0  0  0  0  0  0  0  0  0  0  0  0
    5.5299   -4.1853    0.5224 H   0  0  0  0  0  0  0  0  0  0  0  0
    5.3889   -3.9749   -1.3023 H   0  0  0  0  0  0  0  0  0  0  0  0
    4.6129   -5.3439   -0.4778 H   0  0  0  0  0  0  0  0  0  0  0  0
    5.8241   -2.1806   -0.4489 H   0  0  0  0  0  0  0  0  0  0  0  0
    3.8959    3.6837    0.0136 H   0  0  0  0  0  0  0  0  0  0  0  0
    5.6939    5.4522   -0.1052 H   0  0  0  0  0  0  0  0  0  0  0  0
    8.0427    4.7182   -0.4009 H   0  0  0  0  0  0  0  0  0  0  0  0
    8.5445    2.3273   -0.5627 H   0  0  0  0  0  0  0  0  0  0  0  0
    7.7925   -0.9421    1.4599 H   0  0  0  0  0  0  0  0  0  0  0  0
   10.4990   -1.8639    2.2207 H   0  0  0  0  0  0  0  0  0  0  0  0
    9.8936   -3.4319    1.6039 H   0  0  0  0  0  0  0  0  0  0  0  0
   10.0234   -1.3084   -2.8577 H   0  0  0  0  0  0  0  0  0  0  0  0
    2.5281   -0.3060   -0.0616 H   0  0  0  0  0  0  0  0  0  0  0  0
   -6.1927   -1.5166    1.3276 H   0  0  0  0  0  0  0  0  0  0  0  0
   -5.7962   -1.4533   -0.4103 H   0  0  0  0  0  0  0  0  0  0  0  0
   -8.3413   -2.0791    1.0740 H   0  0  0  0  0  0  0  0  0  0  0  0
   -7.7935   -2.5892   -0.5417 H   0  0  0  0  0  0  0  0  0  0  0  0
  1  2  1  0
  2  3  1  0
  3  4  1  0
  4  5  1  0
  5  6  1  0
  6  7  1  0
  7  8  2  0
  8  9  1  0
  9 10  2  0
 10 11  1  0
 11 12  1  0
 12 13  1  0
 12 14  1  0
 12 15  1  0
  9 16  1  0
 16 17  2  0
 16 18  1  0
 18 19  1  0
 19 20  2  0
 20 21  1  0
 21 22  2  0
 22 23  1  0
 22 24  1  0
 24 25  1  0
 25 26  1  0
 26 27  2  0
 27 28  1  0
 28 29  2  0
 29 30  1  0
 30 31  2  0
 31 32  1  0
 32 33  2  0
 33 34  1  0
 34 35  1  0
 35 36  2  0
 36 37  1  0
 37 38  1  0
 37 39  2  0
 39 40  1  0
 40 41  2  0
 24 42  2  0
  5 43  1  0
 43 44  1  0
 44  2  1  0
 11  7  1  0
 42 19  1  0
 34 26  1  0
 41 35  1  0
 33 28  1  0
  1 45  1  0
  1 46  1  0
  1 47  1  0
  3 48  1  0
  3 49  1  0
  4 50  1  0
  4 51  1  0
  6 52  1  0
  6 53  1  0
  8 54  1  0
 13 55  1  0
 13 56  1  0
 13 57  1  0
 14 58  1  0
 14 59  1  0
 14 60  1  0
 15 61  1  0
 15 62  1  0
 15 63  1  0
 18 64  1  0
 20 65  1  0
 21 66  1  0
 23 67  1  0
 23 68  1  0
 23 69  1  0
 25 70  1  0
 29 71  1  0
 30 72  1  0
 31 73  1  0
 32 74  1  0
 36 75  1  0
 38 76  1  0
 38 77  1  0
 40 78  1  0
 42 79  1  0
 43 80  1  0
 43 81  1  0
 44 82  1  0
 44 83  1  0
M  END
$$$$
[H]c1nc([H])c(-c2nc(N([H])c3c([H])c(N([H])C(=O)c4c([H])c([H])c(C([H])([H])N5C([H])([H])C([H])([H])[C@@]([H])(N(C([H])([H])[H])C([H])([H])[H])C5([H])[H])c(C(F)(F)F)c4[H])c([H])c([H])c3C([H])([H])[H])nc([H])c2[H])c([H])n1
     RDKit          3D

 73 77  0  0  0  0  0  0  0  0999 V2000
   -9.2861    1.4338   -0.1542 C   0  0  0  0  0  0  0  0  0  0  0  0
   -8.1256    2.2975   -0.2554 N   0  0  0  0  0  0  0  0  0  0  0  0
   -8.4360    3.3527   -1.1897 C   0  0  0  0  0  0  0  0  0  0  0  0
   -7.0084    1.4885   -0.6852 C   0  0  2  0  0  0  0  0  0  0  0  0
   -6.7216    0.4416    0.3456 C   0  0  0  0  0  0  0  0  0  0  0  0
   -5.2415    0.5884    0.6424 C   0  0  0  0  0  0  0  0  0  0  0  0
   -4.6764    1.4496   -0.3453 N   0  0  0  0  0  0  0  0  0  0  0  0
   -3.8570    0.8414   -1.3338 C   0  0  0  0  0  0  0  0  0  0  0  0
   -2.6006    0.3367   -0.8224 C   0  0  0  0  0  0  0  0  0  0  0  0
   -2.2251    0.5075    0.4791 C   0  0  0  0  0  0  0  0  0  0  0  0
   -0.9970    0.0515    0.9845 C   0  0  0  0  0  0  0  0  0  0  0  0
   -0.1108   -0.5955    0.1703 C   0  0  0  0  0  0  0  0  0  0  0  0
   -0.4591   -0.7808   -1.1400 C   0  0  0  0  0  0  0  0  0  0  0  0
   -1.6801   -0.3271   -1.6393 C   0  0  0  0  0  0  0  0  0  0  0  0
   -2.0060   -0.5487   -3.0449 C   0  0  0  0  0  0  0  0  0  0  0  0
   -3.1250   -1.3099   -3.2808 F   0  0  0  0  0  0  0  0  0  0  0  0
   -0.9541   -1.2852   -3.6181 F   0  0  0  0  0  0  0  0  0  0  0  0
   -2.0198    0.6256   -3.7917 F   0  0  0  0  0  0  0  0  0  0  0  0
    1.1831   -1.1051    0.6303 C   0  0  0  0  0  0  0  0  0  0  0  0
    2.0228   -1.3644   -0.2660 O   0  0  0  0  0  0  0  0  0  0  0  0
    1.4844   -1.2988    1.9864 N   0  0  0  0  0  0  0  0  0  0  0  0
    2.6882   -1.7688    2.5583 C   0  0  0  0  0  0  0  0  0  0  0  0
    2.6378   -2.3629    3.8335 C   0  0  0  0  0  0  0  0  0  0  0  0
    3.7585   -2.8300    4.4654 C   0  0  0  0  0  0  0  0  0  0  0  0
    4.9819   -2.7190    3.8403 C   0  0  0  0  0  0  0  0  0  0  0  0
    6.2200   -3.2111    4.4955 C   0  0  0  0  0  0  0  0  0  0  0  0
    5.1047   -2.1370    2.5698 C   0  0  0  0  0  0  0  0  0  0  0  0
    6.3741   -2.0854    1.9831 N   0  0  0  0  0  0  0  0  0  0  0  0
    6.8192   -1.4281    0.8293 C   0  0  0  0  0  0  0  0  0  0  0  0
    8.1398   -1.6048    0.5045 N   0  0  0  0  0  0  0  0  0  0  0  0
    8.7067   -1.0211   -0.5493 C   0  0  0  0  0  0  0  0  0  0  0  0
    7.9549   -0.2019   -1.3599 C   0  0  0  0  0  0  0  0  0  0  0  0
    6.6275   -0.0075   -1.0557 C   0  0  0  0  0  0  0  0  0  0  0  0
    6.1346   -0.6303    0.0193 N   0  0  0  0  0  0  0  0  0  0  0  0
    5.7716    0.8682   -1.8592 C   0  0  0  0  0  0  0  0  0  0  0  0
    6.1922    1.4913   -2.9869 C   0  0  0  0  0  0  0  0  0  0  0  0
    5.3334    2.2903   -3.6556 N   0  0  0  0  0  0  0  0  0  0  0  0
    4.0794    2.4965   -3.2542 C   0  0  0  0  0  0  0  0  0  0  0  0
    3.6602    1.8846   -2.1434 N   0  0  0  0  0  0  0  0  0  0  0  0
    4.4561    1.0759   -1.4256 C   0  0  0  0  0  0  0  0  0  0  0  0
    3.9403   -1.6843    1.9820 C   0  0  0  0  0  0  0  0  0  0  0  0
   -5.7423    2.2661   -0.8333 C   0  0  0  0  0  0  0  0  0  0  0  0
   -9.1086    0.4837   -0.6943 H   0  0  0  0  0  0  0  0  0  0  0  0
   -9.4615    1.1362    0.9141 H   0  0  0  0  0  0  0  0  0  0  0  0
  -10.2003    1.9002   -0.5992 H   0  0  0  0  0  0  0  0  0  0  0  0
   -7.5943    4.0263   -1.4022 H   0  0  0  0  0  0  0  0  0  0  0  0
   -8.7719    2.9155   -2.1542 H   0  0  0  0  0  0  0  0  0  0  0  0
   -9.2631    3.9497   -0.7246 H   0  0  0  0  0  0  0  0  0  0  0  0
   -7.2855    1.0268   -1.6545 H   0  0  0  0  0  0  0  0  0  0  0  0
   -7.3515    0.5157    1.2474 H   0  0  0  0  0  0  0  0  0  0  0  0
   -6.8656   -0.5691   -0.0818 H   0  0  0  0  0  0  0  0  0  0  0  0
   -4.7279   -0.4047    0.6188 H   0  0  0  0  0  0  0  0  0  0  0  0
   -5.1869    1.0549    1.6621 H   0  0  0  0  0  0  0  0  0  0  0  0
   -3.7678    1.4515   -2.2594 H   0  0  0  0  0  0  0  0  0  0  0  0
   -4.4477   -0.0682   -1.6862 H   0  0  0  0  0  0  0  0  0  0  0  0
   -2.8339    1.0182    1.2064 H   0  0  0  0  0  0  0  0  0  0  0  0
   -0.7336    0.2053    2.0163 H   0  0  0  0  0  0  0  0  0  0  0  0
    0.2402   -1.3004   -1.8141 H   0  0  0  0  0  0  0  0  0  0  0  0
    0.6852   -1.0546    2.6610 H   0  0  0  0  0  0  0  0  0  0  0  0
    1.6619   -2.4392    4.3070 H   0  0  0  0  0  0  0  0  0  0  0  0
    3.7178   -3.2926    5.4582 H   0  0  0  0  0  0  0  0  0  0  0  0
    6.6317   -4.1210    3.9962 H   0  0  0  0  0  0  0  0  0  0  0  0
    5.9726   -3.5072    5.5516 H   0  0  0  0  0  0  0  0  0  0  0  0
    7.0031   -2.4422    4.5788 H   0  0  0  0  0  0  0  0  0  0  0  0
    7.1489   -2.6484    2.4945 H   0  0  0  0  0  0  0  0  0  0  0  0
    9.7670   -1.1877   -0.7765 H   0  0  0  0  0  0  0  0  0  0  0  0
    8.3944    0.2807   -2.2174 H   0  0  0  0  0  0  0  0  0  0  0  0
    7.1906    1.3544   -3.3472 H   0  0  0  0  0  0  0  0  0  0  0  0
    3.3859    3.1457   -3.7992 H   0  0  0  0  0  0  0  0  0  0  0  0
    4.1001    0.5958   -0.5293 H   0  0  0  0  0  0  0  0  0  0  0  0
    3.9940   -1.2268    1.0038 H   0  0  0  0  0  0  0  0  0  0  0  0
   -5.5481    2.4990   -1.9025 H   0  0  0  0  0  0  0  0  0  0  0  0
   -5.7441    3.2224   -0.2715 H   0  0  0  0  0  0  0  0  0  0  0  0
  1  2  1  0
  2  3  1  0
  2  4  1  0
  4  5  1  0
  5  6  1  0
  6  7  1  0
  7  8  1  0
  8  9  1  0
  9 10  2  0
 10 11  1  0
 11 12  2  0
 12 13  1  0
 13 14  2  0
 14 15  1  0
 15 16  1  0
 15 17  1  0
 15 18  1  0
 12 19  1  0
 19 20  2  0
 19 21  1  0
 21 22  1  0
 22 23  2  0
 23 24  1  0
 24 25  2  0
 25 26  1  0
 25 27  1  0
 27 28  1  0
 28 29  1  0
 29 30  2  0
 30 31  1  0
 31 32  2  0
 32 33  1  0
 33 34  2  0
 33 35  1  0
 35 36  2  0
 36 37  1  0
 37 38  2  0
 38 39  1  0
 39 40  2  0
 27 41  2  0
  7 42  1  0
 42  4  1  0
 14  9  1  0
 41 22  1  0
 34 29  1  0
 40 35  1  0
  1 43  1  0
  1 44  1  0
  1 45  1  0
  3 46  1  0
  3 47  1  0
  3 48  1  0
  4 49  1  6
  5 50  1  0
  5 51  1  0
  6 52  1  0
  6 53  1  0
  8 54  1  0
  8 55  1  0
 10 56  1  0
 11 57  1  0
 13 58  1  0
 21 59  1  0
 23 60  1  0
 24 61  1  0
 26 62  1  0
 26 63  1  0
 26 64  1  0
 28 65  1  0
 31 66  1  0
 32 67  1  0
 36 68  1  0
 38 69  1  0
 40 70  1  0
 41 71  1  0
 42 72  1  0
 42 73  1  0
M  END
$$$$
[H]c1nc2c(c([H])c1-c1c([H])c([H])c(C([H])([H])N([H])[H])c([H])c1[H])c(-c1c([H])c([H])c([H])c(N([H])C(=O)N([H])c3c([H])c([H])c(C(F)(F)F)c([H])c3F)c1[H])c([H])n2[H]
     RDKit          3D

 59 63  0  0  0  0  0  0  0  0999 V2000
   10.6246    0.0307    0.9054 N   0  0  0  0  0  0  0  0  0  0  0  0
    9.5201   -0.3647    1.7914 C   0  0  0  0  0  0  0  0  0  0  0  0
    8.2126   -0.1878    1.0635 C   0  0  0  0  0  0  0  0  0  0  0  0
    8.1006   -0.0701   -0.3020 C   0  0  0  0  0  0  0  0  0  0  0  0
    6.9138    0.1286   -0.9486 C   0  0  0  0  0  0  0  0  0  0  0  0
    5.7068    0.2263   -0.2182 C   0  0  0  0  0  0  0  0  0  0  0  0
    5.8168    0.1068    1.1363 C   0  0  0  0  0  0  0  0  0  0  0  0
    7.0406   -0.0945    1.7991 C   0  0  0  0  0  0  0  0  0  0  0  0
    4.4940    0.5091   -0.9712 C   0  0  0  0  0  0  0  0  0  0  0  0
    4.6160    1.3351   -2.1231 C   0  0  0  0  0  0  0  0  0  0  0  0
    3.5895    1.6367   -2.8878 N   0  0  0  0  0  0  0  0  0  0  0  0
    2.3500    1.1720   -2.6076 C   0  0  0  0  0  0  0  0  0  0  0  0
    1.1398    1.3206   -3.2153 N   0  0  0  0  0  0  0  0  0  0  0  0
    0.2142    0.6469   -2.5430 C   0  0  0  0  0  0  0  0  0  0  0  0
    0.8520    0.0177   -1.4167 C   0  0  0  0  0  0  0  0  0  0  0  0
    0.1014   -0.7780   -0.4834 C   0  0  0  0  0  0  0  0  0  0  0  0
    0.4241   -1.9920    0.0498 C   0  0  0  0  0  0  0  0  0  0  0  0
   -0.4602   -2.7184    0.8647 C   0  0  0  0  0  0  0  0  0  0  0  0
   -1.7124   -2.2251    1.1538 C   0  0  0  0  0  0  0  0  0  0  0  0
   -2.0541   -1.0017    0.6291 C   0  0  0  0  0  0  0  0  0  0  0  0
   -3.3611   -0.4543    0.8204 N   0  0  0  0  0  0  0  0  0  0  0  0
   -4.4740   -1.1131    0.1510 C   0  0  0  0  0  0  0  0  0  0  0  0
   -4.1241   -2.1133   -0.4945 O   0  0  0  0  0  0  0  0  0  0  0  0
   -5.7845   -0.6157    0.2575 N   0  0  0  0  0  0  0  0  0  0  0  0
   -7.0123   -0.1841    0.3323 C   0  0  0  0  0  0  0  0  0  0  0  0
   -8.0749   -0.3463   -0.5869 C   0  0  0  0  0  0  0  0  0  0  0  0
   -9.2912    0.2797   -0.4195 C   0  0  0  0  0  0  0  0  0  0  0  0
   -9.5113    1.0818    0.6523 C   0  0  0  0  0  0  0  0  0  0  0  0
   -8.5016    1.2946    1.6093 C   0  0  0  0  0  0  0  0  0  0  0  0
   -7.3291    0.6849    1.4409 C   0  0  0  0  0  0  0  0  0  0  0  0
   -6.3156    0.8721    2.3743 F   0  0  0  0  0  0  0  0  0  0  0  0
  -10.8509    1.7105    0.8223 C   0  0  0  0  0  0  0  0  0  0  0  0
  -10.7372    2.7941    1.7118 F   0  0  0  0  0  0  0  0  0  0  0  0
  -11.2640    2.1851   -0.4260 F   0  0  0  0  0  0  0  0  0  0  0  0
  -11.7166    0.8122    1.3752 F   0  0  0  0  0  0  0  0  0  0  0  0
   -1.1759   -0.2885   -0.1602 C   0  0  0  0  0  0  0  0  0  0  0  0
    2.1621    0.3583   -1.4910 C   0  0  0  0  0  0  0  0  0  0  0  0
    3.2683    0.0365   -0.6803 C   0  0  0  0  0  0  0  0  0  0  0  0
   10.2651    0.8547    0.3400 H   0  0  0  0  0  0  0  0  0  0  0  0
   11.3823    0.4553    1.5073 H   0  0  0  0  0  0  0  0  0  0  0  0
    9.5934    0.3739    2.6514 H   0  0  0  0  0  0  0  0  0  0  0  0
    9.6337   -1.3529    2.2265 H   0  0  0  0  0  0  0  0  0  0  0  0
    9.0582   -0.1514   -0.8516 H   0  0  0  0  0  0  0  0  0  0  0  0
    6.8928    0.2243   -2.0185 H   0  0  0  0  0  0  0  0  0  0  0  0
    4.9132    0.1662    1.7464 H   0  0  0  0  0  0  0  0  0  0  0  0
    7.0435   -0.1979    2.8607 H   0  0  0  0  0  0  0  0  0  0  0  0
    5.5766    1.7023   -2.4043 H   0  0  0  0  0  0  0  0  0  0  0  0
    1.0271    1.9135   -4.0892 H   0  0  0  0  0  0  0  0  0  0  0  0
   -0.8552    0.5510   -2.7296 H   0  0  0  0  0  0  0  0  0  0  0  0
    1.3942   -2.4073   -0.1896 H   0  0  0  0  0  0  0  0  0  0  0  0
   -0.1719   -3.7091    1.2735 H   0  0  0  0  0  0  0  0  0  0  0  0
   -2.3934   -2.8131    1.7767 H   0  0  0  0  0  0  0  0  0  0  0  0
   -3.4668    0.3745    1.4242 H   0  0  0  0  0  0  0  0  0  0  0  0
   -6.2591   -1.7957   -0.3085 H   0  0  0  0  0  0  0  0  0  0  0  0
   -7.8721   -0.9905   -1.4487 H   0  0  0  0  0  0  0  0  0  0  0  0
  -10.0721    0.0819   -1.1876 H   0  0  0  0  0  0  0  0  0  0  0  0
   -8.7269    1.9215    2.4417 H   0  0  0  0  0  0  0  0  0  0  0  0
   -1.4344    0.7005   -0.5636 H   0  0  0  0  0  0  0  0  0  0  0  0
    3.0753   -0.5944    0.1899 H   0  0  0  0  0  0  0  0  0  0  0  0
  1  2  1  0
  2  3  1  0
  3  4  2  0
  4  5  1  0
  5  6  2  0
  6  7  1  0
  7  8  2  0
  6  9  1  0
  9 10  2  0
 10 11  1  0
 11 12  2  0
 12 13  1  0
 13 14  1  0
 14 15  2  0
 15 16  1  0
 16 17  2  0
 17 18  1  0
 18 19  2  0
 19 20  1  0
 20 21  1  0
 21 22  1  0
 22 23  2  0
 22 24  1  0
 24 25  1  0
 25 26  2  0
 26 27  1  0
 27 28  2  0
 28 29  1  0
 29 30  2  0
 30 31  1  0
 28 32  1  0
 32 33  1  0
 32 34  1  0
 32 35  1  0
 20 36  2  0
 15 37  1  0
 37 38  2  0
  8  3  1  0
 38  9  1  0
 37 12  1  0
 36 16  1  0
 30 25  1  0
  1 39  1  0
  1 40  1  0
  2 41  1  0
  2 42  1  0
  4 43  1  0
  5 44  1  0
  7 45  1  0
  8 46  1  0
 10 47  1  0
 13 48  1  0
 14 49  1  0
 17 50  1  0
 18 51  1  0
 19 52  1  0
 21 53  1  0
 24 54  1  0
 26 55  1  0
 27 56  1  0
 29 57  1  0
 36 58  1  0
 38 59  1  0
M  END
$$$$
[H]c1nc(N([H])[H])c([H])c(-n2c(N([H])c3c([H])c(N([H])C(=O)c4c([H])c([H])nc([H])c4C(C([H])([H])[H])(C([H])([H])[H])C([H])([H])[H])c([H])c([H])c3C([H])([H])[H])nc3c([H])c([H])c([H])c([H])c32)n1
     RDKit          3D

 65 69  0  0  0  0  0  0  0  0999 V2000
    2.0753   -3.6382   -0.7900 C   0  0  0  0  0  0  0  0  0  0  0  0
    0.8954   -2.7129   -0.8588 C   0  0  0  0  0  0  0  0  0  0  0  0
   -0.3445   -3.1744   -1.2130 C   0  0  0  0  0  0  0  0  0  0  0  0
   -1.4198   -2.2701   -1.2678 C   0  0  0  0  0  0  0  0  0  0  0  0
   -1.2521   -0.9556   -0.9774 C   0  0  0  0  0  0  0  0  0  0  0  0
   -2.3125   -0.0173   -1.0565 N   0  0  0  0  0  0  0  0  0  0  0  0
   -3.4928   -0.1021   -1.7931 C   0  0  0  0  0  0  0  0  0  0  0  0
   -3.7275   -1.0908   -2.5273 O   0  0  0  0  0  0  0  0  0  0  0  0
   -4.4980    0.9192   -1.7697 C   0  0  0  0  0  0  0  0  0  0  0  0
   -4.4651    1.8293   -2.8347 C   0  0  0  0  0  0  0  0  0  0  0  0
   -5.3951    2.8384   -2.8653 C   0  0  0  0  0  0  0  0  0  0  0  0
   -6.3111    2.9352   -1.8833 N   0  0  0  0  0  0  0  0  0  0  0  0
   -6.3252    2.0426   -0.8603 C   0  0  0  0  0  0  0  0  0  0  0  0
   -5.4095    0.9927   -0.7679 C   0  0  0  0  0  0  0  0  0  0  0  0
   -5.4885    0.0884    0.3349 C   0  0  0  0  0  0  0  0  0  0  0  0
   -5.6605   -1.3671    0.0066 C   0  0  0  0  0  0  0  0  0  0  0  0
   -6.8294    0.4196    1.0812 C   0  0  0  0  0  0  0  0  0  0  0  0
   -4.4428    0.2565    1.3787 C   0  0  0  0  0  0  0  0  0  0  0  0
    0.0365   -0.5286   -0.6189 C   0  0  0  0  0  0  0  0  0  0  0  0
    1.1270   -1.3612   -0.5474 C   0  0  0  0  0  0  0  0  0  0  0  0
    2.4282   -0.9654   -0.1937 N   0  0  0  0  0  0  0  0  0  0  0  0
    2.9098    0.3063    0.1268 C   0  0  0  0  0  0  0  0  0  0  0  0
    2.2292    1.4761    0.1746 N   0  0  0  0  0  0  0  0  0  0  0  0
    3.0305    2.4940    0.5180 C   0  0  0  0  0  0  0  0  0  0  0  0
    2.8177    3.8432    0.6961 C   0  0  0  0  0  0  0  0  0  0  0  0
    3.8858    4.6333    1.0587 C   0  0  0  0  0  0  0  0  0  0  0  0
    5.1453    4.0486    1.2348 C   0  0  0  0  0  0  0  0  0  0  0  0
    5.3346    2.7024    1.0517 C   0  0  0  0  0  0  0  0  0  0  0  0
    4.2832    1.9127    0.6927 C   0  0  0  0  0  0  0  0  0  0  0  0
    4.2027    0.5987    0.4558 N   0  0  0  0  0  0  0  0  0  0  0  0
    5.2580   -0.3413    0.5261 C   0  0  0  0  0  0  0  0  0  0  0  0
    5.5211   -1.0384    1.6829 C   0  0  0  0  0  0  0  0  0  0  0  0
    6.5474   -1.9442    1.7311 C   0  0  0  0  0  0  0  0  0  0  0  0
    6.8478   -2.6830    2.9107 N   0  0  0  0  0  0  0  0  0  0  0  0
    7.2971   -2.1475    0.6372 N   0  0  0  0  0  0  0  0  0  0  0  0
    7.0612   -1.4829   -0.4991 C   0  0  0  0  0  0  0  0  0  0  0  0
    6.0577   -0.6027   -0.5317 N   0  0  0  0  0  0  0  0  0  0  0  0
    2.4599   -3.6176    0.2312 H   0  0  0  0  0  0  0  0  0  0  0  0
    1.7413   -4.6488   -1.1031 H   0  0  0  0  0  0  0  0  0  0  0  0
    2.8687   -3.3397   -1.5052 H   0  0  0  0  0  0  0  0  0  0  0  0
   -0.5227   -4.2187   -1.4538 H   0  0  0  0  0  0  0  0  0  0  0  0
   -2.3856   -2.6684   -1.5356 H   0  0  0  0  0  0  0  0  0  0  0  0
   -2.1700    0.8881   -0.4884 H   0  0  0  0  0  0  0  0  0  0  0  0
   -3.7202    1.7335   -3.6132 H   0  0  0  0  0  0  0  0  0  0  0  0
   -5.3982    3.5692   -3.6864 H   0  0  0  0  0  0  0  0  0  0  0  0
   -7.0981    2.2130   -0.1285 H   0  0  0  0  0  0  0  0  0  0  0  0
   -6.3072   -1.8115    0.7835 H   0  0  0  0  0  0  0  0  0  0  0  0
   -4.6837   -1.9285    0.1400 H   0  0  0  0  0  0  0  0  0  0  0  0
   -6.1434   -1.5751   -0.9577 H   0  0  0  0  0  0  0  0  0  0  0  0
   -7.6440    0.3434    0.3409 H   0  0  0  0  0  0  0  0  0  0  0  0
   -7.0129   -0.4124    1.8164 H   0  0  0  0  0  0  0  0  0  0  0  0
   -6.7563    1.3411    1.6419 H   0  0  0  0  0  0  0  0  0  0  0  0
   -4.8998    0.4124    2.4014 H   0  0  0  0  0  0  0  0  0  0  0  0
   -3.7707   -0.6203    1.5046 H   0  0  0  0  0  0  0  0  0  0  0  0
   -3.8947    1.2124    1.1937 H   0  0  0  0  0  0  0  0  0  0  0  0
    0.1279    0.5082   -0.3971 H   0  0  0  0  0  0  0  0  0  0  0  0
    3.1576   -1.7463   -0.1626 H   0  0  0  0  0  0  0  0  0  0  0  0
    1.8595    4.3164    0.5666 H   0  0  0  0  0  0  0  0  0  0  0  0
    3.8002    5.7024    1.2180 H   0  0  0  0  0  0  0  0  0  0  0  0
    5.9657    4.6862    1.5180 H   0  0  0  0  0  0  0  0  0  0  0  0
    6.3179    2.2268    1.1861 H   0  0  0  0  0  0  0  0  0  0  0  0
    4.9303   -0.8929    2.5796 H   0  0  0  0  0  0  0  0  0  0  0  0
    6.6961   -3.7051    2.8982 H   0  0  0  0  0  0  0  0  0  0  0  0
    7.2082   -2.2349    3.7683 H   0  0  0  0  0  0  0  0  0  0  0  0
    7.6572   -1.6463   -1.3648 H   0  0  0  0  0  0  0  0  0  0  0  0
  1  2  1  0
  2  3  2  0
  3  4  1  0
  4  5  2  0
  5  6  1  0
  6  7  1  0
  7  8  2  0
  7  9  1  0
  9 10  2  0
 10 11  1  0
 11 12  2  0
 12 13  1  0
 13 14  2  0
 14 15  1  0
 15 16  1  0
 15 17  1  0
 15 18  1  0
  5 19  1  0
 19 20  2  0
 20 21  1  0
 21 22  1  0
 22 23  2  0
 23 24  1  0
 24 25  2  0
 25 26  1  0
 26 27  2  0
 27 28  1  0
 28 29  2  0
 29 30  1  0
 30 31  1  0
 31 32  2  0
 32 33  1  0
 33 34  1  0
 33 35  2  0
 35 36  1  0
 36 37  2  0
 20  2  1  0
 30 22  1  0
 37 31  1  0
 14  9  1  0
 29 24  1  0
  1 38  1  0
  1 39  1  0
  1 40  1  0
  3 41  1  0
  4 42  1  0
  6 43  1  0
 10 44  1  0
 11 45  1  0
 13 46  1  0
 16 47  1  0
 16 48  1  0
 16 49  1  0
 17 50  1  0
 17 51  1  0
 17 52  1  0
 18 53  1  0
 18 54  1  0
 18 55  1  0
 19 56  1  0
 21 57  1  0
 25 58  1  0
 26 59  1  0
 27 60  1  0
 28 61  1  0
 32 62  1  0
 34 63  1  0
 34 64  1  0
 36 65  1  0
M  END
$$$$
