[H]c1nc2c(nc([H])c(=O)n2[H])c(Oc2c([H])c([H])c(N([H])C(=O)N([H])c3c([H])c(C(C([H])([H])[H])(C([H])([H])[H])C([H])([H])[H])nn3-c3c([H])c([H])c(C([H])([H])[H])c([H])c3[H])c3c([H])c([H])c([H])c([H])c23)c1[H]
     RDKit          3D

 71 76  0  0  0  0  0  0  0  0999 V2000
   -1.7713    3.3527    3.7236 C   0  0  0  0  0  0  0  0  0  0  0  0
   -2.3047    2.2767    2.8331 C   0  0  0  0  0  0  0  0  0  0  0  0
   -2.8534    2.5775    1.5837 C   0  0  0  0  0  0  0  0  0  0  0  0
   -3.3340    1.5671    0.7858 C   0  0  0  0  0  0  0  0  0  0  0  0
   -3.2957    0.2244    1.1780 C   0  0  0  0  0  0  0  0  0  0  0  0
   -2.7466   -0.0306    2.4147 C   0  0  0  0  0  0  0  0  0  0  0  0
   -2.2601    0.9624    3.2310 C   0  0  0  0  0  0  0  0  0  0  0  0
   -3.8598   -0.7513    0.3203 N   0  0  0  0  0  0  0  0  0  0  0  0
   -5.1106   -0.5257   -0.1397 N   0  0  0  0  0  0  0  0  0  0  0  0
   -5.5595   -1.5367   -0.8389 C   0  0  0  0  0  0  0  0  0  0  0  0
   -4.5750   -2.4794   -0.8528 C   0  0  0  0  0  0  0  0  0  0  0  0
   -3.4754   -1.9287   -0.0855 C   0  0  0  0  0  0  0  0  0  0  0  0
   -2.2787   -2.6374   -0.0407 N   0  0  0  0  0  0  0  0  0  0  0  0
   -0.9397   -2.3461    0.0627 C   0  0  0  0  0  0  0  0  0  0  0  0
   -0.2030   -3.4050    0.2999 O   0  0  0  0  0  0  0  0  0  0  0  0
   -0.2861   -1.1128   -0.0617 N   0  0  0  0  0  0  0  0  0  0  0  0
    1.1288   -0.9182    0.0456 C   0  0  0  0  0  0  0  0  0  0  0  0
    2.0248   -1.9561   -0.0618 C   0  0  0  0  0  0  0  0  0  0  0  0
    3.4048   -1.7222   -0.0113 C   0  0  0  0  0  0  0  0  0  0  0  0
    3.9222   -0.4599    0.1450 C   0  0  0  0  0  0  0  0  0  0  0  0
    5.2697   -0.3305    0.1791 O   0  0  0  0  0  0  0  0  0  0  0  0
    6.1416    0.2443   -0.6887 C   0  0  0  0  0  0  0  0  0  0  0  0
    5.7859    0.7878   -1.8941 C   0  0  0  0  0  0  0  0  0  0  0  0
    6.6849    1.3662   -2.7561 C   0  0  0  0  0  0  0  0  0  0  0  0
    7.9788    1.4206   -2.4396 N   0  0  0  0  0  0  0  0  0  0  0  0
    8.3891    0.9004   -1.2617 C   0  0  0  0  0  0  0  0  0  0  0  0
    9.7170    0.9831   -0.9915 N   0  0  0  0  0  0  0  0  0  0  0  0
   10.1604    0.4732    0.1757 C   0  0  0  0  0  0  0  0  0  0  0  0
   11.3944    0.5617    0.4076 O   0  0  0  0  0  0  0  0  0  0  0  0
    9.2810   -0.1118    1.0588 C   0  0  0  0  0  0  0  0  0  0  0  0
    7.9440   -0.1880    0.7734 N   0  0  0  0  0  0  0  0  0  0  0  0
    7.5085    0.3153   -0.3801 C   0  0  0  0  0  0  0  0  0  0  0  0
    3.0314    0.5728    0.2535 C   0  0  0  0  0  0  0  0  0  0  0  0
    3.5015    1.8448    0.4459 C   0  0  0  0  0  0  0  0  0  0  0  0
    2.6208    2.9118    0.5870 C   0  0  0  0  0  0  0  0  0  0  0  0
    1.2617    2.7061    0.5370 C   0  0  0  0  0  0  0  0  0  0  0  0
    0.7668    1.4194    0.3447 C   0  0  0  0  0  0  0  0  0  0  0  0
    1.6495    0.3796    0.2076 C   0  0  0  0  0  0  0  0  0  0  0  0
   -6.9068   -1.6819   -1.5229 C   0  0  0  0  0  0  0  0  0  0  0  0
   -6.8171   -2.7590   -2.5822 C   0  0  0  0  0  0  0  0  0  0  0  0
   -7.2161   -0.3728   -2.1855 C   0  0  0  0  0  0  0  0  0  0  0  0
   -7.8961   -2.0457   -0.4470 C   0  0  0  0  0  0  0  0  0  0  0  0
   -2.4018    3.3600    4.6448 H   0  0  0  0  0  0  0  0  0  0  0  0
   -1.8447    4.3415    3.2372 H   0  0  0  0  0  0  0  0  0  0  0  0
   -0.7181    3.0645    3.9616 H   0  0  0  0  0  0  0  0  0  0  0  0
   -2.8691    3.6132    1.3093 H   0  0  0  0  0  0  0  0  0  0  0  0
   -3.7643    1.7736   -0.1796 H   0  0  0  0  0  0  0  0  0  0  0  0
   -2.7036   -1.0521    2.7429 H   0  0  0  0  0  0  0  0  0  0  0  0
   -1.8262    0.7388    4.2205 H   0  0  0  0  0  0  0  0  0  0  0  0
   -4.5926   -3.4441   -1.3336 H   0  0  0  0  0  0  0  0  0  0  0  0
   -2.5055   -3.7597    0.0730 H   0  0  0  0  0  0  0  0  0  0  0  0
   -0.8244   -0.2414   -0.3007 H   0  0  0  0  0  0  0  0  0  0  0  0
    1.7431   -2.9845   -0.2124 H   0  0  0  0  0  0  0  0  0  0  0  0
    4.0515   -2.5987   -0.1006 H   0  0  0  0  0  0  0  0  0  0  0  0
    4.7499    0.7674   -2.1996 H   0  0  0  0  0  0  0  0  0  0  0  0
    6.3640    1.7847   -3.6931 H   0  0  0  0  0  0  0  0  0  0  0  0
   10.3842    1.4276   -1.6595 H   0  0  0  0  0  0  0  0  0  0  0  0
    9.6815   -0.5060    1.9798 H   0  0  0  0  0  0  0  0  0  0  0  0
    4.5718    2.0165    0.5169 H   0  0  0  0  0  0  0  0  0  0  0  0
    3.0467    3.8934    0.7352 H   0  0  0  0  0  0  0  0  0  0  0  0
    0.5763    3.5282    0.6462 H   0  0  0  0  0  0  0  0  0  0  0  0
   -0.2991    1.3577    0.3245 H   0  0  0  0  0  0  0  0  0  0  0  0
   -6.4847   -3.7340   -2.1599 H   0  0  0  0  0  0  0  0  0  0  0  0
   -6.0819   -2.4478   -3.3217 H   0  0  0  0  0  0  0  0  0  0  0  0
   -7.8129   -2.8054   -3.0705 H   0  0  0  0  0  0  0  0  0  0  0  0
   -6.4081   -0.1444   -2.9120 H   0  0  0  0  0  0  0  0  0  0  0  0
   -7.3573    0.4533   -1.4712 H   0  0  0  0  0  0  0  0  0  0  0  0
   -8.1330   -0.5198   -2.8128 H   0  0  0  0  0  0  0  0  0  0  0  0
   -8.3790   -1.1397   -0.0421 H   0  0  0  0  0  0  0  0  0  0  0  0
   -7.3655   -2.5395    0.4099 H   0  0  0  0  0  0  0  0  0  0  0  0
   -8.6752   -2.7512   -0.8188 H   0  0  0  0  0  0  0  0  0  0  0  0
  1  2  1  0
  2  3  2  0
  3  4  1  0
  4  5  2  0
  5  6  1  0
  6  7  2  0
  5  8  1  0
  8  9  1  0
  9 10  2  0
 10 11  1  0
 11 12  2  0
 12 13  1  0
 13 14  1  0
 14 15  2  0
 14 16  1  0
 16 17  1  0
 17 18  2  0
 18 19  1  0
 19 20  2  0
 20 21  1  0
 21 22  1  0
 22 23  2  0
 23 24  1  0
 24 25  2  0
 25 26  1  0
 26 27  1  0
 27 28  1  0
 28 29  2  0
 28 30  1  0
 30 31  2  0
 31 32  1  0
 20 33  1  0
 33 34  2  0
 34 35  1  0
 35 36  2  0
 36 37  1  0
 37 38  2  0
 10 39  1  0
 39 40  1  0
 39 41  1  0
 39 42  1  0
  7  2  1  0
 12  8  1  0
 38 17  1  0
 32 22  1  0
 38 33  1  0
 32 26  2  0
  1 43  1  0
  1 44  1  0
  1 45  1  0
  3 46  1  0
  4 47  1  0
  6 48  1  0
  7 49  1  0
 11 50  1  0
 13 51  1  0
 16 52  1  0
 18 53  1  0
 19 54  1  0
 23 55  1  0
 24 56  1  0
 27 57  1  0
 30 58  1  0
 34 59  1  0
 35 60  1  0
 36 61  1  0
 37 62  1  0
 40 63  1  0
 40 64  1  0
 40 65  1  0
 41 66  1  0
 41 67  1  0
 41 68  1  0
 42 69  1  0
 42 70  1  0
 42 71  1  0
M  END
$$$$
[H]c1nc(N([H])c2c([H])c([H])c(N3C([H])([H])C([H])([H])N(C([H])([H])[H])C([H])([H])C3([H])[H])c([H])c2[H])nc([H])c1N([H])C(=O)c1c([H])c(N([H])C(=O)c2c([H])c([H])c([H])c(C(F)(F)F)c2[H])c([H])c([H])c1C([H])([H])[H]
     RDKit          3D

 73 77  0  0  0  0  0  0  0  0999 V2000
   11.1626   -1.4295   -0.2901 C   0  0  0  0  0  0  0  0  0  0  0  0
   10.8066   -1.1520   -1.6725 N   0  0  0  0  0  0  0  0  0  0  0  0
   10.4159    0.1876   -1.8989 C   0  0  0  0  0  0  0  0  0  0  0  0
    9.0068    0.3313   -2.4400 C   0  0  0  0  0  0  0  0  0  0  0  0
    8.1717   -0.5294   -1.6086 N   0  0  0  0  0  0  0  0  0  0  0  0
    8.5007   -1.9673   -1.7161 C   0  0  0  0  0  0  0  0  0  0  0  0
    9.9119   -2.1440   -2.1967 C   0  0  0  0  0  0  0  0  0  0  0  0
    7.1297   -0.0633   -0.7731 C   0  0  0  0  0  0  0  0  0  0  0  0
    6.2840    0.9745   -1.1097 C   0  0  0  0  0  0  0  0  0  0  0  0
    5.2833    1.4252   -0.2729 C   0  0  0  0  0  0  0  0  0  0  0  0
    5.0750    0.8551    0.9607 C   0  0  0  0  0  0  0  0  0  0  0  0
    4.0727    1.2666    1.8554 N   0  0  0  0  0  0  0  0  0  0  0  0
    2.7010    1.4154    1.6495 C   0  0  0  0  0  0  0  0  0  0  0  0
    2.0640    1.1508    0.5212 N   0  0  0  0  0  0  0  0  0  0  0  0
    0.7045    1.2644    0.3632 C   0  0  0  0  0  0  0  0  0  0  0  0
   -0.0701    1.6664    1.3890 C   0  0  0  0  0  0  0  0  0  0  0  0
   -1.4860    1.7401    1.4642 N   0  0  0  0  0  0  0  0  0  0  0  0
   -2.4284    1.0827    0.7153 C   0  0  0  0  0  0  0  0  0  0  0  0
   -2.0837    0.3640   -0.2539 O   0  0  0  0  0  0  0  0  0  0  0  0
   -3.8748    1.1632    1.0101 C   0  0  0  0  0  0  0  0  0  0  0  0
   -4.8233    1.0463   -0.0402 C   0  0  0  0  0  0  0  0  0  0  0  0
   -6.1401    1.1096    0.1741 C   0  0  0  0  0  0  0  0  0  0  0  0
   -7.1975    0.8936   -0.7958 N   0  0  0  0  0  0  0  0  0  0  0  0
   -8.1468   -0.1045   -0.4596 C   0  0  0  0  0  0  0  0  0  0  0  0
   -7.8757   -0.7207    0.6821 O   0  0  0  0  0  0  0  0  0  0  0  0
   -9.3264   -0.5507   -1.1186 C   0  0  0  0  0  0  0  0  0  0  0  0
   -9.9814    0.1544   -2.0771 C   0  0  0  0  0  0  0  0  0  0  0  0
  -11.1622   -0.3133   -2.6274 C   0  0  0  0  0  0  0  0  0  0  0  0
  -11.7323   -1.5005   -2.2409 C   0  0  0  0  0  0  0  0  0  0  0  0
  -11.0947   -2.2428   -1.2745 C   0  0  0  0  0  0  0  0  0  0  0  0
   -9.9266   -1.7682   -0.7404 C   0  0  0  0  0  0  0  0  0  0  0  0
  -11.6644   -3.5222   -0.8140 C   0  0  0  0  0  0  0  0  0  0  0  0
  -12.7917   -3.2654   -0.0486 F   0  0  0  0  0  0  0  0  0  0  0  0
  -11.9253   -4.4025   -1.8601 F   0  0  0  0  0  0  0  0  0  0  0  0
  -10.7612   -4.1640    0.0259 F   0  0  0  0  0  0  0  0  0  0  0  0
   -6.6025    1.3075    1.4993 C   0  0  0  0  0  0  0  0  0  0  0  0
   -5.6979    1.4181    2.5023 C   0  0  0  0  0  0  0  0  0  0  0  0
   -4.3071    1.3475    2.3005 C   0  0  0  0  0  0  0  0  0  0  0  0
   -3.4568    1.3682    3.5224 C   0  0  0  0  0  0  0  0  0  0  0  0
    0.6065    1.9579    2.6074 C   0  0  0  0  0  0  0  0  0  0  0  0
    1.9026    1.8263    2.6842 N   0  0  0  0  0  0  0  0  0  0  0  0
    5.9322   -0.2082    1.3194 C   0  0  0  0  0  0  0  0  0  0  0  0
    6.9250   -0.6545    0.4876 C   0  0  0  0  0  0  0  0  0  0  0  0
   11.0028   -2.4892   -0.1086 H   0  0  0  0  0  0  0  0  0  0  0  0
   12.2320   -1.2035   -0.1608 H   0  0  0  0  0  0  0  0  0  0  0  0
   10.5559   -0.8453    0.4460 H   0  0  0  0  0  0  0  0  0  0  0  0
   10.4807    0.7587   -0.9317 H   0  0  0  0  0  0  0  0  0  0  0  0
   11.1376    0.6785   -2.5712 H   0  0  0  0  0  0  0  0  0  0  0  0
    8.6993    1.3874   -2.3241 H   0  0  0  0  0  0  0  0  0  0  0  0
    8.9493   -0.0226   -3.4739 H   0  0  0  0  0  0  0  0  0  0  0  0
    8.2939   -2.4781   -0.7843 H   0  0  0  0  0  0  0  0  0  0  0  0
    7.8182   -2.3492   -2.5036 H   0  0  0  0  0  0  0  0  0  0  0  0
   10.0159   -2.2026   -3.2872 H   0  0  0  0  0  0  0  0  0  0  0  0
   10.2623   -3.1415   -1.7933 H   0  0  0  0  0  0  0  0  0  0  0  0
    6.3766    1.4861   -2.0566 H   0  0  0  0  0  0  0  0  0  0  0  0
    4.6281    2.2472   -0.5569 H   0  0  0  0  0  0  0  0  0  0  0  0
    4.4192    1.4847    2.8598 H   0  0  0  0  0  0  0  0  0  0  0  0
    0.2446    1.0282   -0.6036 H   0  0  0  0  0  0  0  0  0  0  0  0
   -1.8616    2.4790    2.1563 H   0  0  0  0  0  0  0  0  0  0  0  0
   -4.4587    0.9050   -1.0588 H   0  0  0  0  0  0  0  0  0  0  0  0
   -7.2179    1.4473   -1.6332 H   0  0  0  0  0  0  0  0  0  0  0  0
   -9.5830    1.0984   -2.4225 H   0  0  0  0  0  0  0  0  0  0  0  0
  -11.7002    0.2519   -3.3961 H   0  0  0  0  0  0  0  0  0  0  0  0
  -12.6727   -1.8372   -2.6929 H   0  0  0  0  0  0  0  0  0  0  0  0
   -9.3932   -2.3435    0.0247 H   0  0  0  0  0  0  0  0  0  0  0  0
   -7.6706    1.3801    1.6361 H   0  0  0  0  0  0  0  0  0  0  0  0
   -6.0166    1.5663    3.5297 H   0  0  0  0  0  0  0  0  0  0  0  0
   -3.2707    2.3812    3.8991 H   0  0  0  0  0  0  0  0  0  0  0  0
   -2.6120    0.7004    3.4318 H   0  0  0  0  0  0  0  0  0  0  0  0
   -4.0929    0.8304    4.3335 H   0  0  0  0  0  0  0  0  0  0  0  0
   -0.0160    2.2938    3.4484 H   0  0  0  0  0  0  0  0  0  0  0  0
    5.7611   -0.6407    2.2843 H   0  0  0  0  0  0  0  0  0  0  0  0
    7.5890   -1.4651    0.7519 H   0  0  0  0  0  0  0  0  0  0  0  0
  1  2  1  0
  2  3  1  0
  3  4  1  0
  4  5  1  0
  5  6  1  0
  6  7  1  0
  5  8  1  0
  8  9  2  0
  9 10  1  0
 10 11  2  0
 11 12  1  0
 12 13  1  0
 13 14  2  0
 14 15  1  0
 15 16  2  0
 16 17  1  0
 17 18  1  0
 18 19  2  0
 18 20  1  0
 20 21  2  0
 21 22  1  0
 22 23  1  0
 23 24  1  0
 24 25  2  0
 24 26  1  0
 26 27  2  0
 27 28  1  0
 28 29  2  0
 29 30  1  0
 30 31  2  0
 30 32  1  0
 32 33  1  0
 32 34  1  0
 32 35  1  0
 22 36  2  0
 36 37  1  0
 37 38  2  0
 38 39  1  0
 16 40  1  0
 40 41  2  0
 11 42  1  0
 42 43  2  0
  7  2  1  0
 43  8  1  0
 41 13  1  0
 38 20  1  0
 31 26  1  0
  1 44  1  0
  1 45  1  0
  1 46  1  0
  3 47  1  0
  3 48  1  0
  4 49  1  0
  4 50  1  0
  6 51  1  0
  6 52  1  0
  7 53  1  0
  7 54  1  0
  9 55  1  0
 10 56  1  0
 12 57  1  0
 15 58  1  0
 17 59  1  0
 21 60  1  0
 23 61  1  0
 27 62  1  0
 28 63  1  0
 29 64  1  0
 31 65  1  0
 36 66  1  0
 37 67  1  0
 39 68  1  0
 39 69  1  0
 39 70  1  0
 40 71  1  0
 42 72  1  0
 43 73  1  0
M  END
$$$$
[H]c1nc(N([H])[H])c([H])c(-n2c(N([H])c3c([H])c(N([H])C(=O)c4c([H])c([H])c([H])c(C(F)(F)F)c4[H])c([H])c([H])c3C([H])([H])[H])nc3c([H])c([H])c([H])c([H])c32)n1
     RDKit          3D

 57 61  0  0  0  0  0  0  0  0999 V2000
   -1.6432   -2.0416    2.7169 C   0  0  0  0  0  0  0  0  0  0  0  0
   -0.4053   -1.4867    2.0633 C   0  0  0  0  0  0  0  0  0  0  0  0
    0.8342   -1.8560    2.4707 C   0  0  0  0  0  0  0  0  0  0  0  0
    1.9648   -1.3222    1.8953 C   0  0  0  0  0  0  0  0  0  0  0  0
    1.8822   -0.3874    0.8761 C   0  0  0  0  0  0  0  0  0  0  0  0
    3.1468    0.0395    0.2902 N   0  0  0  0  0  0  0  0  0  0  0  0
    4.1825   -0.8981    0.1319 C   0  0  0  0  0  0  0  0  0  0  0  0
    3.9574   -2.1254    0.4591 O   0  0  0  0  0  0  0  0  0  0  0  0
    5.5124   -0.6686   -0.3620 C   0  0  0  0  0  0  0  0  0  0  0  0
    6.2085   -1.7268   -0.9935 C   0  0  0  0  0  0  0  0  0  0  0  0
    7.5029   -1.5976   -1.4178 C   0  0  0  0  0  0  0  0  0  0  0  0
    8.1760   -0.4198   -1.2395 C   0  0  0  0  0  0  0  0  0  0  0  0
    7.5489    0.6476   -0.6304 C   0  0  0  0  0  0  0  0  0  0  0  0
    6.2433    0.5004   -0.2105 C   0  0  0  0  0  0  0  0  0  0  0  0
    8.3554    1.8848   -0.4631 C   0  0  0  0  0  0  0  0  0  0  0  0
    9.1827    1.7204    0.6569 F   0  0  0  0  0  0  0  0  0  0  0  0
    7.6253    3.0175   -0.2734 F   0  0  0  0  0  0  0  0  0  0  0  0
    9.1307    2.1006   -1.6059 F   0  0  0  0  0  0  0  0  0  0  0  0
    0.6387    0.0017    0.4544 C   0  0  0  0  0  0  0  0  0  0  0  0
   -0.5280   -0.5230    1.0190 C   0  0  0  0  0  0  0  0  0  0  0  0
   -1.8358   -0.3085    0.6216 N   0  0  0  0  0  0  0  0  0  0  0  0
   -2.4500    0.8405    0.1121 C   0  0  0  0  0  0  0  0  0  0  0  0
   -2.0584    2.0868   -0.1661 N   0  0  0  0  0  0  0  0  0  0  0  0
   -3.0946    2.8754   -0.5621 C   0  0  0  0  0  0  0  0  0  0  0  0
   -3.2513    4.1921   -0.9126 C   0  0  0  0  0  0  0  0  0  0  0  0
   -4.4890    4.7055   -1.2275 C   0  0  0  0  0  0  0  0  0  0  0  0
   -5.6142    3.9009   -1.2026 C   0  0  0  0  0  0  0  0  0  0  0  0
   -5.4598    2.5754   -0.8527 C   0  0  0  0  0  0  0  0  0  0  0  0
   -4.1912    2.0914   -0.5358 C   0  0  0  0  0  0  0  0  0  0  0  0
   -3.8198    0.8820   -0.1403 N   0  0  0  0  0  0  0  0  0  0  0  0
   -4.6993   -0.2178    0.0100 C   0  0  0  0  0  0  0  0  0  0  0  0
   -4.7485   -1.2047   -0.9499 C   0  0  0  0  0  0  0  0  0  0  0  0
   -5.5854   -2.2820   -0.8318 C   0  0  0  0  0  0  0  0  0  0  0  0
   -5.6390   -3.3228   -1.8083 N   0  0  0  0  0  0  0  0  0  0  0  0
   -6.3867   -2.3688    0.2666 N   0  0  0  0  0  0  0  0  0  0  0  0
   -6.3356   -1.3968    1.2079 C   0  0  0  0  0  0  0  0  0  0  0  0
   -5.5174   -0.3658    1.0689 N   0  0  0  0  0  0  0  0  0  0  0  0
   -2.1040   -2.7528    2.0101 H   0  0  0  0  0  0  0  0  0  0  0  0
   -2.3603   -1.2131    2.9698 H   0  0  0  0  0  0  0  0  0  0  0  0
   -1.3766   -2.5985    3.6355 H   0  0  0  0  0  0  0  0  0  0  0  0
    0.9458   -2.5873    3.2690 H   0  0  0  0  0  0  0  0  0  0  0  0
    2.9552   -1.6055    2.2730 H   0  0  0  0  0  0  0  0  0  0  0  0
    3.2243    1.0157    0.0065 H   0  0  0  0  0  0  0  0  0  0  0  0
    5.6386   -2.6562   -1.1109 H   0  0  0  0  0  0  0  0  0  0  0  0
    8.0121   -2.4455   -1.9029 H   0  0  0  0  0  0  0  0  0  0  0  0
    9.2259   -0.3527   -1.5914 H   0  0  0  0  0  0  0  0  0  0  0  0
    5.7761    1.3585    0.2692 H   0  0  0  0  0  0  0  0  0  0  0  0
    0.5548    0.7297   -0.3343 H   0  0  0  0  0  0  0  0  0  0  0  0
   -2.4657   -1.2163    0.6894 H   0  0  0  0  0  0  0  0  0  0  0  0
   -2.3778    4.8442   -0.9514 H   0  0  0  0  0  0  0  0  0  0  0  0
   -4.6482    5.7667   -1.5019 H   0  0  0  0  0  0  0  0  0  0  0  0
   -6.6089    4.2836   -1.4481 H   0  0  0  0  0  0  0  0  0  0  0  0
   -6.3267    1.9303   -0.8277 H   0  0  0  0  0  0  0  0  0  0  0  0
   -4.1093   -1.1586   -1.8510 H   0  0  0  0  0  0  0  0  0  0  0  0
   -6.4919   -3.9111   -1.8868 H   0  0  0  0  0  0  0  0  0  0  0  0
   -4.8081   -3.4688   -2.4320 H   0  0  0  0  0  0  0  0  0  0  0  0
   -6.9953   -1.5044    2.0761 H   0  0  0  0  0  0  0  0  0  0  0  0
  1  2  1  0
  2  3  2  0
  3  4  1  0
  4  5  2  0
  5  6  1  0
  6  7  1  0
  7  8  2  0
  7  9  1  0
  9 10  2  0
 10 11  1  0
 11 12  2  0
 12 13  1  0
 13 14  2  0
 13 15  1  0
 15 16  1  0
 15 17  1  0
 15 18  1  0
  5 19  1  0
 19 20  2  0
 20 21  1  0
 21 22  1  0
 22 23  2  0
 23 24  1  0
 24 25  2  0
 25 26  1  0
 26 27  2  0
 27 28  1  0
 28 29  2  0
 29 30  1  0
 30 31  1  0
 31 32  2  0
 32 33  1  0
 33 34  1  0
 33 35  2  0
 35 36  1  0
 36 37  2  0
 20  2  1  0
 30 22  1  0
 37 31  1  0
 14  9  1  0
 29 24  1  0
  1 38  1  0
  1 39  1  0
  1 40  1  0
  3 41  1  0
  4 42  1  0
  6 43  1  0
 10 44  1  0
 11 45  1  0
 12 46  1  0
 14 47  1  0
 19 48  1  0
 21 49  1  0
 25 50  1  0
 26 51  1  0
 27 52  1  0
 28 53  1  0
 32 54  1  0
 34 55  1  0
 34 56  1  0
 36 57  1  0
M  END
$$$$
[H]C([H])=C([H])C(=O)N1C([H])([H])C([H])([H])C([H])([H])[C@@]([H])(n2c([H])c(-c3c([H])c([H])c(Oc4c([H])c([H])c([H])c([H])c4[H])c([H])c3[H])c3c(N([H])[H])nc([H])nc32)C1([H])[H]
     RDKit          3D

 58 62  0  0  0  0  0  0  0  0999 V2000
    2.0021    3.0683   -0.5502 N   0  0  0  0  0  0  0  0  0  0  0  0
    0.5912    3.0303   -0.3929 C   0  0  0  0  0  0  0  0  0  0  0  0
   -0.1453    4.1552   -0.3381 N   0  0  0  0  0  0  0  0  0  0  0  0
   -1.4789    4.1697   -0.1685 C   0  0  0  0  0  0  0  0  0  0  0  0
   -2.1083    2.9879   -0.0471 N   0  0  0  0  0  0  0  0  0  0  0  0
   -1.4811    1.8102   -0.0864 C   0  0  0  0  0  0  0  0  0  0  0  0
   -1.9092    0.5243    0.0230 N   0  0  0  0  0  0  0  0  0  0  0  0
   -0.8382   -0.2552   -0.0821 C   0  0  0  0  0  0  0  0  0  0  0  0
    0.3146    0.5268   -0.2642 C   0  0  0  0  0  0  0  0  0  0  0  0
    1.6324   -0.0097   -0.4542 C   0  0  0  0  0  0  0  0  0  0  0  0
    2.4203    0.1525   -1.5672 C   0  0  0  0  0  0  0  0  0  0  0  0
    3.6784   -0.3937   -1.6458 C   0  0  0  0  0  0  0  0  0  0  0  0
    4.2043   -1.1261   -0.6160 C   0  0  0  0  0  0  0  0  0  0  0  0
    5.4796   -1.6932   -0.6674 O   0  0  0  0  0  0  0  0  0  0  0  0
    6.5608   -0.9495   -0.2102 C   0  0  0  0  0  0  0  0  0  0  0  0
    7.1975   -0.1546   -1.1549 C   0  0  0  0  0  0  0  0  0  0  0  0
    8.2750    0.5950   -0.7275 C   0  0  0  0  0  0  0  0  0  0  0  0
    8.7317    0.5832    0.5742 C   0  0  0  0  0  0  0  0  0  0  0  0
    8.0784   -0.2172    1.4919 C   0  0  0  0  0  0  0  0  0  0  0  0
    6.9896   -0.9840    1.0921 C   0  0  0  0  0  0  0  0  0  0  0  0
    3.4316   -1.3026    0.5112 C   0  0  0  0  0  0  0  0  0  0  0  0
    2.1753   -0.7583    0.5923 C   0  0  0  0  0  0  0  0  0  0  0  0
   -0.0932    1.8168   -0.2645 C   0  0  0  0  0  0  0  0  0  0  0  0
   -3.2674    0.1106    0.2154 C   0  0  2  0  0  0  0  0  0  0  0  0
   -3.3743   -0.7049    1.5168 C   0  0  0  0  0  0  0  0  0  0  0  0
   -4.8056   -0.6762    1.8982 C   0  0  0  0  0  0  0  0  0  0  0  0
   -5.7326   -0.9973    0.7774 C   0  0  0  0  0  0  0  0  0  0  0  0
   -5.2038   -1.0945   -0.5294 N   0  0  0  0  0  0  0  0  0  0  0  0
   -3.7855   -0.7868   -0.8503 C   0  0  0  0  0  0  0  0  0  0  0  0
   -5.9741   -1.4912   -1.6369 C   0  0  0  0  0  0  0  0  0  0  0  0
   -5.3658   -1.5424   -2.8030 O   0  0  0  0  0  0  0  0  0  0  0  0
   -7.3572   -1.8657   -1.7333 C   0  0  0  0  0  0  0  0  0  0  0  0
   -8.2917   -1.9472   -0.8380 C   0  0  0  0  0  0  0  0  0  0  0  0
    2.6874    2.8010    0.1889 H   0  0  0  0  0  0  0  0  0  0  0  0
    2.3976    3.3833   -1.4627 H   0  0  0  0  0  0  0  0  0  0  0  0
   -2.0193    5.1279   -0.1331 H   0  0  0  0  0  0  0  0  0  0  0  0
   -0.8013   -1.3499   -0.0403 H   0  0  0  0  0  0  0  0  0  0  0  0
    2.0375    0.7160   -2.4059 H   0  0  0  0  0  0  0  0  0  0  0  0
    4.2902   -0.2501   -2.5465 H   0  0  0  0  0  0  0  0  0  0  0  0
    6.8714   -0.1158   -2.1877 H   0  0  0  0  0  0  0  0  0  0  0  0
    8.8129    1.2406   -1.4373 H   0  0  0  0  0  0  0  0  0  0  0  0
    9.5968    1.2032    0.8557 H   0  0  0  0  0  0  0  0  0  0  0  0
    8.4122   -0.2493    2.5233 H   0  0  0  0  0  0  0  0  0  0  0  0
    6.4822   -1.6107    1.8218 H   0  0  0  0  0  0  0  0  0  0  0  0
    3.8291   -1.8895    1.3590 H   0  0  0  0  0  0  0  0  0  0  0  0
    1.5953   -0.9220    1.5043 H   0  0  0  0  0  0  0  0  0  0  0  0
   -3.9711    0.9603    0.3250 H   0  0  0  0  0  0  0  0  0  0  0  0
   -2.6907   -0.2399    2.2247 H   0  0  0  0  0  0  0  0  0  0  0  0
   -3.0851   -1.7533    1.2572 H   0  0  0  0  0  0  0  0  0  0  0  0
   -5.0436    0.3719    2.2561 H   0  0  0  0  0  0  0  0  0  0  0  0
   -4.9691   -1.3048    2.8014 H   0  0  0  0  0  0  0  0  0  0  0  0
   -6.6185   -0.2938    0.8083 H   0  0  0  0  0  0  0  0  0  0  0  0
   -6.1476   -2.0219    1.0318 H   0  0  0  0  0  0  0  0  0  0  0  0
   -3.6786   -0.4266   -1.8729 H   0  0  0  0  0  0  0  0  0  0  0  0
   -3.2774   -1.7912   -0.8056 H   0  0  0  0  0  0  0  0  0  0  0  0
   -7.7311   -2.1471   -2.7690 H   0  0  0  0  0  0  0  0  0  0  0  0
   -8.2287   -1.7481    0.1868 H   0  0  0  0  0  0  0  0  0  0  0  0
   -9.3011   -2.2706   -1.1891 H   0  0  0  0  0  0  0  0  0  0  0  0
  1  2  1  0
  2  3  2  0
  3  4  1  0
  4  5  2  0
  5  6  1  0
  6  7  1  0
  7  8  1  0
  8  9  2  0
  9 10  1  0
 10 11  2  0
 11 12  1  0
 12 13  2  0
 13 14  1  0
 14 15  1  0
 15 16  2  0
 16 17  1  0
 17 18  2  0
 18 19  1  0
 19 20  2  0
 13 21  1  0
 21 22  2  0
  9 23  1  0
  7 24  1  0
 24 25  1  0
 25 26  1  0
 26 27  1  0
 27 28  1  0
 28 29  1  0
 28 30  1  0
 30 31  2  0
 30 32  1  0
 32 33  2  3
 23  2  1  0
 29 24  1  0
 23  6  2  0
 22 10  1  0
 20 15  1  0
  1 34  1  0
  1 35  1  0
  4 36  1  0
  8 37  1  0
 11 38  1  0
 12 39  1  0
 16 40  1  0
 17 41  1  0
 18 42  1  0
 19 43  1  0
 20 44  1  0
 21 45  1  0
 22 46  1  0
 24 47  1  1
 25 48  1  0
 25 49  1  0
 26 50  1  0
 26 51  1  0
 27 52  1  0
 27 53  1  0
 29 54  1  0
 29 55  1  0
 32 56  1  0
 33 57  1  0
 33 58  1  0
M  END
$$$$
[H]C([H])=C([H])C(=O)N([H])c1c([H])c([H])c([H])c(N([H])c2nc([H])c(N([H])C(=O)c3c([H])c(N([H])C(=O)c4c([H])c([H])c([H])c(C(F)(F)F)c4[H])c([H])c([H])c3C([H])([H])[H])c([H])n2)c1[H]
     RDKit          3D

 64 67  0  0  0  0  0  0  0  0999 V2000
   -0.4360    0.5962   -2.2039 C   0  0  0  0  0  0  0  0  0  0  0  0
   -1.7889    0.3207   -1.6848 C   0  0  0  0  0  0  0  0  0  0  0  0
   -2.8295    0.5081   -2.6122 C   0  0  0  0  0  0  0  0  0  0  0  0
   -4.1182    0.4218   -2.1845 C   0  0  0  0  0  0  0  0  0  0  0  0
   -4.4199    0.1493   -0.8350 C   0  0  0  0  0  0  0  0  0  0  0  0
   -5.7613    0.1765   -0.4758 N   0  0  0  0  0  0  0  0  0  0  0  0
   -6.4827   -0.3662    0.5926 C   0  0  0  0  0  0  0  0  0  0  0  0
   -5.9998   -1.0516    1.4859 O   0  0  0  0  0  0  0  0  0  0  0  0
   -7.9396   -0.0689    0.6106 C   0  0  0  0  0  0  0  0  0  0  0  0
   -8.8997   -1.0082    0.7064 C   0  0  0  0  0  0  0  0  0  0  0  0
  -10.2380   -0.6375    0.6685 C   0  0  0  0  0  0  0  0  0  0  0  0
  -10.5822    0.7059    0.5367 C   0  0  0  0  0  0  0  0  0  0  0  0
   -9.6108    1.6743    0.4396 C   0  0  0  0  0  0  0  0  0  0  0  0
   -8.3052    1.2779    0.4776 C   0  0  0  0  0  0  0  0  0  0  0  0
  -10.0037    3.1037    0.3010 C   0  0  0  0  0  0  0  0  0  0  0  0
  -11.3603    3.2069    0.5368 F   0  0  0  0  0  0  0  0  0  0  0  0
   -9.2795    3.9030    1.1428 F   0  0  0  0  0  0  0  0  0  0  0  0
   -9.7402    3.5061   -1.0073 F   0  0  0  0  0  0  0  0  0  0  0  0
   -3.3806   -0.0418    0.0697 C   0  0  0  0  0  0  0  0  0  0  0  0
   -2.0553    0.0451   -0.3654 C   0  0  0  0  0  0  0  0  0  0  0  0
   -0.9107   -0.1999    0.5521 C   0  0  0  0  0  0  0  0  0  0  0  0
   -0.8835    0.2386    1.7273 O   0  0  0  0  0  0  0  0  0  0  0  0
    0.1949   -0.9424    0.0808 N   0  0  0  0  0  0  0  0  0  0  0  0
    1.4250   -1.2226    0.6836 C   0  0  0  0  0  0  0  0  0  0  0  0
    1.7108   -1.1439    2.0276 C   0  0  0  0  0  0  0  0  0  0  0  0
    3.0085   -1.3210    2.4041 N   0  0  0  0  0  0  0  0  0  0  0  0
    3.9886   -1.5589    1.5765 C   0  0  0  0  0  0  0  0  0  0  0  0
    5.3342   -1.6768    1.9578 N   0  0  0  0  0  0  0  0  0  0  0  0
    6.3519   -1.9230    0.9542 C   0  0  0  0  0  0  0  0  0  0  0  0
    6.3351   -2.9170    0.0321 C   0  0  0  0  0  0  0  0  0  0  0  0
    7.2921   -3.0265   -0.9597 C   0  0  0  0  0  0  0  0  0  0  0  0
    8.3085   -2.0839   -1.0154 C   0  0  0  0  0  0  0  0  0  0  0  0
    8.3485   -1.0568   -0.0838 C   0  0  0  0  0  0  0  0  0  0  0  0
    9.4078   -0.1125   -0.2100 N   0  0  0  0  0  0  0  0  0  0  0  0
    9.1186    1.2474    0.0020 C   0  0  0  0  0  0  0  0  0  0  0  0
    7.9519    1.6021    0.2863 O   0  0  0  0  0  0  0  0  0  0  0  0
   10.1817    2.2475   -0.1101 C   0  0  0  0  0  0  0  0  0  0  0  0
    9.8881    3.5387    0.0873 C   0  0  0  0  0  0  0  0  0  0  0  0
    7.3723   -0.9899    0.8930 C   0  0  0  0  0  0  0  0  0  0  0  0
    3.7088   -1.6434    0.2484 N   0  0  0  0  0  0  0  0  0  0  0  0
    2.4758   -1.4852   -0.2197 C   0  0  0  0  0  0  0  0  0  0  0  0
   -0.0791   -0.2382   -2.8061 H   0  0  0  0  0  0  0  0  0  0  0  0
    0.2856    0.9308   -1.4666 H   0  0  0  0  0  0  0  0  0  0  0  0
   -0.5219    1.5340   -2.8975 H   0  0  0  0  0  0  0  0  0  0  0  0
   -2.5767    0.7298   -3.6621 H   0  0  0  0  0  0  0  0  0  0  0  0
   -4.9613    0.5518   -2.8482 H   0  0  0  0  0  0  0  0  0  0  0  0
   -6.3920    0.7570   -1.1575 H   0  0  0  0  0  0  0  0  0  0  0  0
   -8.6741   -2.0575    0.8078 H   0  0  0  0  0  0  0  0  0  0  0  0
  -11.0335   -1.3695    0.7420 H   0  0  0  0  0  0  0  0  0  0  0  0
  -11.6285    1.0180    0.5101 H   0  0  0  0  0  0  0  0  0  0  0  0
   -7.5280    2.0420    0.4045 H   0  0  0  0  0  0  0  0  0  0  0  0
   -3.5638   -0.2553    1.1057 H   0  0  0  0  0  0  0  0  0  0  0  0
    0.0318   -1.4330   -0.8636 H   0  0  0  0  0  0  0  0  0  0  0  0
    0.9388   -0.9505    2.7492 H   0  0  0  0  0  0  0  0  0  0  0  0
    5.6718   -1.5964    2.9303 H   0  0  0  0  0  0  0  0  0  0  0  0
    5.5341   -3.6434    0.0883 H   0  0  0  0  0  0  0  0  0  0  0  0
    7.2892   -3.8033   -1.6957 H   0  0  0  0  0  0  0  0  0  0  0  0
    9.0558   -2.1524   -1.7717 H   0  0  0  0  0  0  0  0  0  0  0  0
   10.3724   -0.3968   -0.4471 H   0  0  0  0  0  0  0  0  0  0  0  0
   11.2049    1.9904   -0.3525 H   0  0  0  0  0  0  0  0  0  0  0  0
   10.6579    4.2911    0.0093 H   0  0  0  0  0  0  0  0  0  0  0  0
    8.8677    3.8063    0.3191 H   0  0  0  0  0  0  0  0  0  0  0  0
    7.4252   -0.1983    1.6258 H   0  0  0  0  0  0  0  0  0  0  0  0
    2.2465   -1.5485   -1.2730 H   0  0  0  0  0  0  0  0  0  0  0  0
  1  2  1  0
  2  3  2  0
  3  4  1  0
  4  5  2  0
  5  6  1  0
  6  7  1  0
  7  8  2  0
  7  9  1  0
  9 10  2  0
 10 11  1  0
 11 12  2  0
 12 13  1  0
 13 14  2  0
 13 15  1  0
 15 16  1  0
 15 17  1  0
 15 18  1  0
  5 19  1  0
 19 20  2  0
 20 21  1  0
 21 22  2  0
 21 23  1  0
 23 24  1  0
 24 25  2  0
 25 26  1  0
 26 27  2  0
 27 28  1  0
 28 29  1  0
 29 30  2  0
 30 31  1  0
 31 32  2  0
 32 33  1  0
 33 34  1  0
 34 35  1  0
 35 36  2  0
 35 37  1  0
 37 38  2  3
 33 39  2  0
 27 40  1  0
 40 41  2  0
 20  2  1  0
 41 24  1  0
 14  9  1  0
 39 29  1  0
  1 42  1  0
  1 43  1  0
  1 44  1  0
  3 45  1  0
  4 46  1  0
  6 47  1  0
 10 48  1  0
 11 49  1  0
 12 50  1  0
 14 51  1  0
 19 52  1  0
 23 53  1  0
 25 54  1  0
 28 55  1  0
 30 56  1  0
 31 57  1  0
 32 58  1  0
 34 59  1  0
 37 60  1  0
 38 61  1  0
 38 62  1  0
 39 63  1  0
 41 64  1  0
M  END
$$$$
[H]c1nc(N([H])[H])c2c(-c3c([H])c([H])c(Oc4c([H])c([H])c([H])c([H])c4[H])c([H])c3[H])c([H])n([C@@]3([H])C([H])([H])N(C(=O)N([H])c4c([H])c([H])c([H])c(C(F)(F)F)c4[H])C([H])([H])C([H])([H])C3([H])[H])c2n1
     RDKit          3D

 69 74  0  0  0  0  0  0  0  0999 V2000
    4.1339   -3.4937    1.2595 N   0  0  0  0  0  0  0  0  0  0  0  0
    2.7422   -3.6306    1.2092 C   0  0  0  0  0  0  0  0  0  0  0  0
    2.2138   -4.7763    1.6411 N   0  0  0  0  0  0  0  0  0  0  0  0
    0.8912   -4.9674    1.5588 C   0  0  0  0  0  0  0  0  0  0  0  0
    0.0897   -4.0268    1.0474 N   0  0  0  0  0  0  0  0  0  0  0  0
    0.5597   -2.8562    0.5943 C   0  0  0  0  0  0  0  0  0  0  0  0
   -0.0515   -1.8026    0.0459 N   0  0  0  0  0  0  0  0  0  0  0  0
    0.8998   -0.9139   -0.2192 C   0  0  0  0  0  0  0  0  0  0  0  0
    2.1501   -1.4142    0.1688 C   0  0  0  0  0  0  0  0  0  0  0  0
    3.3889   -0.6463    0.0485 C   0  0  0  0  0  0  0  0  0  0  0  0
    4.2695   -0.3603    1.0459 C   0  0  0  0  0  0  0  0  0  0  0  0
    5.4058    0.4217    0.8202 C   0  0  0  0  0  0  0  0  0  0  0  0
    5.7062    0.9460   -0.4130 C   0  0  0  0  0  0  0  0  0  0  0  0
    6.7668    1.7043   -0.7167 O   0  0  0  0  0  0  0  0  0  0  0  0
    7.9436    2.1049   -0.3437 C   0  0  0  0  0  0  0  0  0  0  0  0
    8.6656    1.6508    0.7323 C   0  0  0  0  0  0  0  0  0  0  0  0
    9.9129    2.1435    1.0526 C   0  0  0  0  0  0  0  0  0  0  0  0
   10.4765    3.1198    0.2943 C   0  0  0  0  0  0  0  0  0  0  0  0
    9.8055    3.6011   -0.7796 C   0  0  0  0  0  0  0  0  0  0  0  0
    8.5605    3.1202   -1.1187 C   0  0  0  0  0  0  0  0  0  0  0  0
    4.7889    0.6408   -1.4419 C   0  0  0  0  0  0  0  0  0  0  0  0
    3.6842   -0.1167   -1.2222 C   0  0  0  0  0  0  0  0  0  0  0  0
    1.9425   -2.6434    0.6809 C   0  0  0  0  0  0  0  0  0  0  0  0
   -1.4894   -1.6946   -0.2086 C   0  0  2  0  0  0  0  0  0  0  0  0
   -1.7514   -1.0226   -1.5465 C   0  0  0  0  0  0  0  0  0  0  0  0
   -3.1671   -1.3155   -1.9193 C   0  0  0  0  0  0  0  0  0  0  0  0
   -4.0928   -1.3159   -0.6978 C   0  0  0  0  0  0  0  0  0  0  0  0
   -3.5138   -0.6043    0.3947 N   0  0  0  0  0  0  0  0  0  0  0  0
   -2.1718   -0.8667    0.8235 C   0  0  0  0  0  0  0  0  0  0  0  0
   -4.3011    0.3850    1.0921 C   0  0  0  0  0  0  0  0  0  0  0  0
   -3.6481    0.9548    2.0116 O   0  0  0  0  0  0  0  0  0  0  0  0
   -5.6106    0.6630    0.7865 N   0  0  0  0  0  0  0  0  0  0  0  0
   -6.8790    0.9343    0.4925 C   0  0  0  0  0  0  0  0  0  0  0  0
   -7.7249   -0.1511    0.1665 C   0  0  0  0  0  0  0  0  0  0  0  0
   -9.0212   -0.0157   -0.2039 C   0  0  0  0  0  0  0  0  0  0  0  0
   -9.5786    1.2315   -0.2771 C   0  0  0  0  0  0  0  0  0  0  0  0
   -8.7996    2.3359    0.0292 C   0  0  0  0  0  0  0  0  0  0  0  0
   -7.4809    2.1949    0.4039 C   0  0  0  0  0  0  0  0  0  0  0  0
   -9.4379    3.6867   -0.0557 C   0  0  0  0  0  0  0  0  0  0  0  0
   -9.0811    4.4607    1.0386 F   0  0  0  0  0  0  0  0  0  0  0  0
   -9.1329    4.3186   -1.2366 F   0  0  0  0  0  0  0  0  0  0  0  0
  -10.8055    3.5265    0.0126 F   0  0  0  0  0  0  0  0  0  0  0  0
    4.7705   -3.5570    0.4518 H   0  0  0  0  0  0  0  0  0  0  0  0
    4.5798   -3.3212    2.1766 H   0  0  0  0  0  0  0  0  0  0  0  0
    0.4825   -5.9027    1.9160 H   0  0  0  0  0  0  0  0  0  0  0  0
    0.7708    0.0399   -0.6660 H   0  0  0  0  0  0  0  0  0  0  0  0
    4.0922   -0.7221    2.0716 H   0  0  0  0  0  0  0  0  0  0  0  0
    6.0635    0.6252    1.6534 H   0  0  0  0  0  0  0  0  0  0  0  0
    8.3074    0.8660    1.3835 H   0  0  0  0  0  0  0  0  0  0  0  0
   10.4655    1.7558    1.9330 H   0  0  0  0  0  0  0  0  0  0  0  0
   11.4770    3.4747    0.5851 H   0  0  0  0  0  0  0  0  0  0  0  0
   10.2563    4.3797   -1.3849 H   0  0  0  0  0  0  0  0  0  0  0  0
    8.0692    3.5345   -1.9764 H   0  0  0  0  0  0  0  0  0  0  0  0
    5.0196    1.0501   -2.4233 H   0  0  0  0  0  0  0  0  0  0  0  0
    2.9661   -0.3485   -2.0264 H   0  0  0  0  0  0  0  0  0  0  0  0
   -1.9092   -2.7111   -0.1708 H   0  0  0  0  0  0  0  0  0  0  0  0
   -1.0234   -1.2901   -2.3057 H   0  0  0  0  0  0  0  0  0  0  0  0
   -1.6586    0.0478   -1.3564 H   0  0  0  0  0  0  0  0  0  0  0  0
   -3.5969   -0.6100   -2.6540 H   0  0  0  0  0  0  0  0  0  0  0  0
   -3.2063   -2.3530   -2.3398 H   0  0  0  0  0  0  0  0  0  0  0  0
   -5.0467   -0.8911   -1.0620 H   0  0  0  0  0  0  0  0  0  0  0  0
   -4.3510   -2.3800   -0.4108 H   0  0  0  0  0  0  0  0  0  0  0  0
   -1.6087    0.1312    0.8342 H   0  0  0  0  0  0  0  0  0  0  0  0
   -2.1082   -1.2763    1.8586 H   0  0  0  0  0  0  0  0  0  0  0  0
   -5.6371    1.5786    1.8004 H   0  0  0  0  0  0  0  0  0  0  0  0
   -7.2944   -1.1712    0.2174 H   0  0  0  0  0  0  0  0  0  0  0  0
   -9.5982   -0.9094   -0.4570 H   0  0  0  0  0  0  0  0  0  0  0  0
  -10.6044    1.3546   -0.5651 H   0  0  0  0  0  0  0  0  0  0  0  0
   -6.9359    3.0951    0.6150 H   0  0  0  0  0  0  0  0  0  0  0  0
  1  2  1  0
  2  3  2  0
  3  4  1  0
  4  5  2  0
  5  6  1  0
  6  7  1  0
  7  8  1  0
  8  9  2  0
  9 10  1  0
 10 11  2  0
 11 12  1  0
 12 13  2  0
 13 14  1  0
 14 15  1  0
 15 16  2  0
 16 17  1  0
 17 18  2  0
 18 19  1  0
 19 20  2  0
 13 21  1  0
 21 22  2  0
  9 23  1  0
  7 24  1  0
 24 25  1  0
 25 26  1  0
 26 27  1  0
 27 28  1  0
 28 29  1  0
 28 30  1  0
 30 31  2  0
 30 32  1  0
 32 33  1  0
 33 34  2  0
 34 35  1  0
 35 36  2  0
 36 37  1  0
 37 38  2  0
 37 39  1  0
 39 40  1  0
 39 41  1  0
 39 42  1  0
 23  2  1  0
 29 24  1  0
 38 33  1  0
 23  6  2  0
 22 10  1  0
 20 15  1  0
  1 43  1  0
  1 44  1  0
  4 45  1  0
  8 46  1  0
 11 47  1  0
 12 48  1  0
 16 49  1  0
 17 50  1  0
 18 51  1  0
 19 52  1  0
 20 53  1  0
 21 54  1  0
 22 55  1  0
 24 56  1  6
 25 57  1  0
 25 58  1  0
 26 59  1  0
 26 60  1  0
 27 61  1  0
 27 62  1  0
 29 63  1  0
 29 64  1  0
 32 65  1  0
 34 66  1  0
 35 67  1  0
 36 68  1  0
 38 69  1  0
M  END
$$$$
[H]c1c([H])c(Cl)c(-c2c([H])c3c([H])nc(N([H])c4c([H])c([H])c(N5C([H])([H])C([H])([H])N(C([H])([H])[H])C([H])([H])C5([H])[H])c([H])c4[H])nc3n(C([H])([H])[H])c2=O)c(Cl)c1[H]
     RDKit          3D

 58 62  0  0  0  0  0  0  0  0999 V2000
    8.7224   -0.7038   -1.0744 C   0  0  0  0  0  0  0  0  0  0  0  0
    7.4397   -0.3590   -1.6865 N   0  0  0  0  0  0  0  0  0  0  0  0
    7.0422    0.9098   -1.1085 C   0  0  0  0  0  0  0  0  0  0  0  0
    6.3179    0.6491    0.1968 C   0  0  0  0  0  0  0  0  0  0  0  0
    5.0438    0.0436   -0.1284 N   0  0  0  0  0  0  0  0  0  0  0  0
    5.0923   -0.9153   -1.2399 C   0  0  0  0  0  0  0  0  0  0  0  0
    6.5145   -1.4160   -1.3667 C   0  0  0  0  0  0  0  0  0  0  0  0
    3.8252    0.3062    0.5286 C   0  0  0  0  0  0  0  0  0  0  0  0
    3.7214    1.1243    1.6305 C   0  0  0  0  0  0  0  0  0  0  0  0
    2.5219    1.3736    2.2571 C   0  0  0  0  0  0  0  0  0  0  0  0
    1.3265    0.7971    1.7969 C   0  0  0  0  0  0  0  0  0  0  0  0
    0.1469    1.0923    2.4998 N   0  0  0  0  0  0  0  0  0  0  0  0
   -1.1899    0.8532    2.1110 C   0  0  0  0  0  0  0  0  0  0  0  0
   -2.2165    1.2108    2.9512 N   0  0  0  0  0  0  0  0  0  0  0  0
   -3.5029    1.0306    2.6538 C   0  0  0  0  0  0  0  0  0  0  0  0
   -3.8747    0.4675    1.4698 C   0  0  0  0  0  0  0  0  0  0  0  0
   -5.2097    0.2655    1.1275 C   0  0  0  0  0  0  0  0  0  0  0  0
   -5.5448   -0.3068   -0.0798 C   0  0  0  0  0  0  0  0  0  0  0  0
   -6.9463   -0.5110   -0.4233 C   0  0  0  0  0  0  0  0  0  0  0  0
   -7.5727   -1.6909   -0.0816 C   0  0  0  0  0  0  0  0  0  0  0  0
   -6.7254   -2.9692    0.7637 Cl  0  0  0  0  0  0  0  0  0  0  0  0
   -8.9062   -1.9121   -0.3963 C   0  0  0  0  0  0  0  0  0  0  0  0
   -9.6532   -0.9477   -1.0678 C   0  0  0  0  0  0  0  0  0  0  0  0
   -9.0241    0.2360   -1.4104 C   0  0  0  0  0  0  0  0  0  0  0  0
   -7.7010    0.4264   -1.0849 C   0  0  0  0  0  0  0  0  0  0  0  0
   -6.9498    1.9389   -1.5390 Cl  0  0  0  0  0  0  0  0  0  0  0  0
   -4.5000   -0.6566   -0.9040 C   0  0  0  0  0  0  0  0  0  0  0  0
   -4.7838   -1.1819   -2.0136 O   0  0  0  0  0  0  0  0  0  0  0  0
   -3.2127   -0.4601   -0.5703 N   0  0  0  0  0  0  0  0  0  0  0  0
   -2.1231   -0.8424   -1.4667 C   0  0  0  0  0  0  0  0  0  0  0  0
   -2.8626    0.0985    0.6064 C   0  0  0  0  0  0  0  0  0  0  0  0
   -1.5959    0.3058    0.9635 N   0  0  0  0  0  0  0  0  0  0  0  0
    1.4499   -0.0143    0.6998 C   0  0  0  0  0  0  0  0  0  0  0  0
    2.6757   -0.2660    0.0631 C   0  0  0  0  0  0  0  0  0  0  0  0
    8.4600   -1.1949   -0.0924 H   0  0  0  0  0  0  0  0  0  0  0  0
    9.2266   -1.4433   -1.7258 H   0  0  0  0  0  0  0  0  0  0  0  0
    9.3445    0.2028   -0.8899 H   0  0  0  0  0  0  0  0  0  0  0  0
    7.8706    1.5909   -0.9005 H   0  0  0  0  0  0  0  0  0  0  0  0
    6.3455    1.3995   -1.8075 H   0  0  0  0  0  0  0  0  0  0  0  0
    6.2737    1.5522    0.7954 H   0  0  0  0  0  0  0  0  0  0  0  0
    6.9057   -0.1203    0.7570 H   0  0  0  0  0  0  0  0  0  0  0  0
    4.7414   -0.4993   -2.1814 H   0  0  0  0  0  0  0  0  0  0  0  0
    4.5014   -1.8035   -0.8821 H   0  0  0  0  0  0  0  0  0  0  0  0
    6.5452   -2.1425   -2.2209 H   0  0  0  0  0  0  0  0  0  0  0  0
    6.8537   -1.9325   -0.4561 H   0  0  0  0  0  0  0  0  0  0  0  0
    4.6486    1.5712    1.9890 H   0  0  0  0  0  0  0  0  0  0  0  0
    2.4849    2.0217    3.1179 H   0  0  0  0  0  0  0  0  0  0  0  0
    0.2484    1.5552    3.4589 H   0  0  0  0  0  0  0  0  0  0  0  0
   -4.2586    1.3336    3.3571 H   0  0  0  0  0  0  0  0  0  0  0  0
   -5.9798    0.5697    1.8346 H   0  0  0  0  0  0  0  0  0  0  0  0
   -9.4125   -2.8283   -0.1374 H   0  0  0  0  0  0  0  0  0  0  0  0
  -10.7017   -1.1457   -1.3040 H   0  0  0  0  0  0  0  0  0  0  0  0
   -9.6092    0.9884   -1.9349 H   0  0  0  0  0  0  0  0  0  0  0  0
   -1.4230   -1.4968   -0.8848 H   0  0  0  0  0  0  0  0  0  0  0  0
   -2.4850   -1.4366   -2.3206 H   0  0  0  0  0  0  0  0  0  0  0  0
   -1.5780    0.0677   -1.7368 H   0  0  0  0  0  0  0  0  0  0  0  0
    0.5779   -0.5003    0.2943 H   0  0  0  0  0  0  0  0  0  0  0  0
    2.6748   -0.9267   -0.8068 H   0  0  0  0  0  0  0  0  0  0  0  0
  1  2  1  0
  2  3  1  0
  3  4  1  0
  4  5  1  0
  5  6  1  0
  6  7  1  0
  5  8  1  0
  8  9  2  0
  9 10  1  0
 10 11  2  0
 11 12  1  0
 12 13  1  0
 13 14  2  0
 14 15  1  0
 15 16  2  0
 16 17  1  0
 17 18  2  0
 18 19  1  0
 19 20  2  0
 20 21  1  0
 20 22  1  0
 22 23  2  0
 23 24  1  0
 24 25  2  0
 25 26  1  0
 18 27  1  0
 27 28  2  0
 27 29  1  0
 29 30  1  0
 29 31  1  0
 31 32  2  0
 11 33  1  0
 33 34  2  0
  7  2  1  0
 34  8  1  0
 32 13  1  0
 31 16  1  0
 25 19  1  0
  1 35  1  0
  1 36  1  0
  1 37  1  0
  3 38  1  0
  3 39  1  0
  4 40  1  0
  4 41  1  0
  6 42  1  0
  6 43  1  0
  7 44  1  0
  7 45  1  0
  9 46  1  0
 10 47  1  0
 12 48  1  0
 15 49  1  0
 17 50  1  0
 22 51  1  0
 23 52  1  0
 24 53  1  0
 30 54  1  0
 30 55  1  0
 30 56  1  0
 33 57  1  0
 34 58  1  0
M  END
$$$$
[H]C([H])=C([H])C(=O)N([H])[C@]1([H])C([H])([H])C([H])([H])[C@]([H])(n2c([H])c(-c3c([H])c([H])c(Oc4c([H])c([H])c([H])c([H])c4[H])c([H])c3[H])c3c(N([H])[H])nc([H])nc32)C([H])([H])C1([H])[H]
     RDKit          3D

 61 65  0  0  0  0  0  0  0  0999 V2000
   -1.7303   -2.7669    2.9173 N   0  0  0  0  0  0  0  0  0  0  0  0
   -0.4512   -2.6989    2.3109 C   0  0  0  0  0  0  0  0  0  0  0  0
    0.5515   -3.5148    2.6689 N   0  0  0  0  0  0  0  0  0  0  0  0
    1.7587   -3.4149    2.0998 C   0  0  0  0  0  0  0  0  0  0  0  0
    2.0387   -2.5091    1.1524 N   0  0  0  0  0  0  0  0  0  0  0  0
    1.0534   -1.6804    0.7753 C   0  0  0  0  0  0  0  0  0  0  0  0
    1.0393   -0.6834   -0.1254 N   0  0  0  0  0  0  0  0  0  0  0  0
   -0.1601   -0.1282   -0.1579 C   0  0  0  0  0  0  0  0  0  0  0  0
   -1.0045   -0.7701    0.7568 C   0  0  0  0  0  0  0  0  0  0  0  0
   -2.4071   -0.4865    0.9880 C   0  0  0  0  0  0  0  0  0  0  0  0
   -3.4404   -1.3678    0.7492 C   0  0  0  0  0  0  0  0  0  0  0  0
   -4.7674   -1.0910    0.9820 C   0  0  0  0  0  0  0  0  0  0  0  0
   -5.1270    0.1396    1.4873 C   0  0  0  0  0  0  0  0  0  0  0  0
   -6.4754    0.4391    1.7307 O   0  0  0  0  0  0  0  0  0  0  0  0
   -7.2223    1.0150    0.7131 C   0  0  0  0  0  0  0  0  0  0  0  0
   -7.9266    0.2701   -0.2124 C   0  0  0  0  0  0  0  0  0  0  0  0
   -8.6588    0.8882   -1.2116 C   0  0  0  0  0  0  0  0  0  0  0  0
   -8.7139    2.2634   -1.3218 C   0  0  0  0  0  0  0  0  0  0  0  0
   -8.0157    3.0069   -0.4044 C   0  0  0  0  0  0  0  0  0  0  0  0
   -7.2766    2.3891    0.6040 C   0  0  0  0  0  0  0  0  0  0  0  0
   -4.1286    1.0481    1.7395 C   0  0  0  0  0  0  0  0  0  0  0  0
   -2.8096    0.7554    1.5016 C   0  0  0  0  0  0  0  0  0  0  0  0
   -0.2364   -1.7428    1.3410 C   0  0  0  0  0  0  0  0  0  0  0  0
    2.1554   -0.2712   -0.9403 C   0  0  2  0  0  0  0  0  0  0  0  0
    3.3631   -1.1304   -0.8388 C   0  0  0  0  0  0  0  0  0  0  0  0
    4.3734   -0.5511   -1.8487 C   0  0  0  0  0  0  0  0  0  0  0  0
    5.0097    0.6575   -1.2017 C   0  0  1  0  0  0  0  0  0  0  0  0
    4.0347    1.2481   -0.2291 C   0  0  0  0  0  0  0  0  0  0  0  0
    2.5918    1.1574   -0.6764 C   0  0  0  0  0  0  0  0  0  0  0  0
    6.2326    0.3228   -0.5244 N   0  0  0  0  0  0  0  0  0  0  0  0
    7.4899    0.8978   -0.8423 C   0  0  0  0  0  0  0  0  0  0  0  0
    7.5336    1.7444   -1.7651 O   0  0  0  0  0  0  0  0  0  0  0  0
    8.7187    0.5548   -0.1551 C   0  0  0  0  0  0  0  0  0  0  0  0
    9.8601    1.1206   -0.4913 C   0  0  0  0  0  0  0  0  0  0  0  0
   -2.3987   -3.5414    2.8380 H   0  0  0  0  0  0  0  0  0  0  0  0
   -2.0247   -1.9444    3.5062 H   0  0  0  0  0  0  0  0  0  0  0  0
    2.5915   -4.0783    2.3838 H   0  0  0  0  0  0  0  0  0  0  0  0
   -0.5094    0.6963   -0.7692 H   0  0  0  0  0  0  0  0  0  0  0  0
   -3.2142   -2.3600    0.3377 H   0  0  0  0  0  0  0  0  0  0  0  0
   -5.5573   -1.7996    0.7865 H   0  0  0  0  0  0  0  0  0  0  0  0
   -7.8774   -0.8031   -0.1182 H   0  0  0  0  0  0  0  0  0  0  0  0
   -9.2044    0.2950   -1.9282 H   0  0  0  0  0  0  0  0  0  0  0  0
   -9.2882    2.7487   -2.1056 H   0  0  0  0  0  0  0  0  0  0  0  0
   -8.0479    4.0803   -0.4759 H   0  0  0  0  0  0  0  0  0  0  0  0
   -6.7314    2.9736    1.3203 H   0  0  0  0  0  0  0  0  0  0  0  0
   -4.4161    2.0213    2.1392 H   0  0  0  0  0  0  0  0  0  0  0  0
   -2.0070    1.4699    1.6982 H   0  0  0  0  0  0  0  0  0  0  0  0
    1.8187   -0.3083   -2.0086 H   0  0  0  0  0  0  0  0  0  0  0  0
    3.8713   -1.0461    0.1244 H   0  0  0  0  0  0  0  0  0  0  0  0
    3.1167   -2.1636   -1.1605 H   0  0  0  0  0  0  0  0  0  0  0  0
    5.0890   -1.3116   -2.1589 H   0  0  0  0  0  0  0  0  0  0  0  0
    3.8017   -0.1827   -2.7389 H   0  0  0  0  0  0  0  0  0  0  0  0
    5.2688    1.4168   -1.9774 H   0  0  0  0  0  0  0  0  0  0  0  0
    4.2297    2.3489   -0.1008 H   0  0  0  0  0  0  0  0  0  0  0  0
    4.1550    0.8443    0.8153 H   0  0  0  0  0  0  0  0  0  0  0  0
    1.9791    1.5627    0.1526 H   0  0  0  0  0  0  0  0  0  0  0  0
    2.4937    1.8014   -1.5820 H   0  0  0  0  0  0  0  0  0  0  0  0
    6.1989   -0.3755    0.2378 H   0  0  0  0  0  0  0  0  0  0  0  0
    8.6930   -0.1685    0.6353 H   0  0  0  0  0  0  0  0  0  0  0  0
   10.7770    0.8605    0.0263 H   0  0  0  0  0  0  0  0  0  0  0  0
    9.9397    1.8526   -1.2778 H   0  0  0  0  0  0  0  0  0  0  0  0
  1  2  1  0
  2  3  2  0
  3  4  1  0
  4  5  2  0
  5  6  1  0
  6  7  1  0
  7  8  1  0
  8  9  2  0
  9 10  1  0
 10 11  2  0
 11 12  1  0
 12 13  2  0
 13 14  1  0
 14 15  1  0
 15 16  2  0
 16 17  1  0
 17 18  2  0
 18 19  1  0
 19 20  2  0
 13 21  1  0
 21 22  2  0
  9 23  1  0
  7 24  1  0
 24 25  1  0
 25 26  1  0
 26 27  1  0
 27 28  1  0
 28 29  1  0
 27 30  1  0
 30 31  1  0
 31 32  2  0
 31 33  1  0
 33 34  2  3
 23  2  1  0
 29 24  1  0
 23  6  2  0
 22 10  1  0
 20 15  1  0
  1 35  1  0
  1 36  1  0
  4 37  1  0
  8 38  1  0
 11 39  1  0
 12 40  1  0
 16 41  1  0
 17 42  1  0
 18 43  1  0
 19 44  1  0
 20 45  1  0
 21 46  1  0
 22 47  1  0
 24 48  1  6
 25 49  1  0
 25 50  1  0
 26 51  1  0
 26 52  1  0
 27 53  1  6
 28 54  1  0
 28 55  1  0
 29 56  1  0
 29 57  1  0
 30 58  1  0
 33 59  1  0
 34 60  1  0
 34 61  1  0
M  END
$$$$
[H]C([H])=C([H])C(=O)N1C([H])([H])C([H])([H])C([H])([H])[C@@]([H])(n2nc(-c3c([H])c([H])c(Oc4c([H])c([H])c([H])c([H])c4[H])c([H])c3[H])c3c(N([H])[H])nc([H])nc32)C1([H])[H]
     RDKit          3D

 57 61  0  0  0  0  0  0  0  0999 V2000
    1.5630   -1.3930    2.7239 N   0  0  0  0  0  0  0  0  0  0  0  0
    0.1702   -1.6193    2.5726 C   0  0  0  0  0  0  0  0  0  0  0  0
   -0.5930   -2.0071    3.6025 N   0  0  0  0  0  0  0  0  0  0  0  0
   -1.9155   -2.1806    3.4515 C   0  0  0  0  0  0  0  0  0  0  0  0
   -2.5291   -1.9771    2.2805 N   0  0  0  0  0  0  0  0  0  0  0  0
   -1.8148   -1.5831    1.1948 C   0  0  0  0  0  0  0  0  0  0  0  0
   -2.1273   -1.2972   -0.0601 N   0  0  0  0  0  0  0  0  0  0  0  0
   -1.0498   -0.9517   -0.7108 N   0  0  0  0  0  0  0  0  0  0  0  0
    0.0200   -1.0010    0.1072 C   0  0  0  0  0  0  0  0  0  0  0  0
    1.3974   -0.6530   -0.2620 C   0  0  0  0  0  0  0  0  0  0  0  0
    1.6738    0.6273   -0.7489 C   0  0  0  0  0  0  0  0  0  0  0  0
    2.9370    0.9532   -1.1605 C   0  0  0  0  0  0  0  0  0  0  0  0
    3.9918    0.0665   -1.1238 C   0  0  0  0  0  0  0  0  0  0  0  0
    5.2666    0.4202   -1.5469 O   0  0  0  0  0  0  0  0  0  0  0  0
    6.2303    0.9622   -0.7307 C   0  0  0  0  0  0  0  0  0  0  0  0
    7.1369    0.1916   -0.0282 C   0  0  0  0  0  0  0  0  0  0  0  0
    8.0944    0.7650    0.7845 C   0  0  0  0  0  0  0  0  0  0  0  0
    8.1631    2.1440    0.9111 C   0  0  0  0  0  0  0  0  0  0  0  0
    7.2750    2.9161    0.2239 C   0  0  0  0  0  0  0  0  0  0  0  0
    6.3274    2.3357   -0.5811 C   0  0  0  0  0  0  0  0  0  0  0  0
    3.7076   -1.2003   -0.6399 C   0  0  0  0  0  0  0  0  0  0  0  0
    2.4458   -1.5381   -0.2252 C   0  0  0  0  0  0  0  0  0  0  0  0
   -0.4271   -1.3985    1.3371 C   0  0  0  0  0  0  0  0  0  0  0  0
   -3.4390   -1.3495   -0.6761 C   0  0  2  0  0  0  0  0  0  0  0  0
   -3.4236   -1.1362   -2.1473 C   0  0  0  0  0  0  0  0  0  0  0  0
   -3.8424    0.2532   -2.5565 C   0  0  0  0  0  0  0  0  0  0  0  0
   -3.8245    1.2279   -1.4431 C   0  0  0  0  0  0  0  0  0  0  0  0
   -4.7552    0.7416   -0.3902 N   0  0  0  0  0  0  0  0  0  0  0  0
   -4.5012   -0.5948    0.0738 C   0  0  0  0  0  0  0  0  0  0  0  0
   -5.7853    1.6059    0.0523 C   0  0  0  0  0  0  0  0  0  0  0  0
   -5.8273    2.7802   -0.5438 O   0  0  0  0  0  0  0  0  0  0  0  0
   -6.7919    1.4263    1.0375 C   0  0  0  0  0  0  0  0  0  0  0  0
   -7.0389    0.4252    1.8044 C   0  0  0  0  0  0  0  0  0  0  0  0
    1.9262   -0.4062    2.6762 H   0  0  0  0  0  0  0  0  0  0  0  0
    2.2641   -2.1435    2.8813 H   0  0  0  0  0  0  0  0  0  0  0  0
   -2.5045   -2.4994    4.3210 H   0  0  0  0  0  0  0  0  0  0  0  0
    0.8382    1.3188   -0.7744 H   0  0  0  0  0  0  0  0  0  0  0  0
    3.1365    1.9654   -1.5409 H   0  0  0  0  0  0  0  0  0  0  0  0
    7.1129   -0.8951   -0.1033 H   0  0  0  0  0  0  0  0  0  0  0  0
    8.8156    0.1827    1.3449 H   0  0  0  0  0  0  0  0  0  0  0  0
    8.9001    2.6377    1.5394 H   0  0  0  0  0  0  0  0  0  0  0  0
    7.3288    4.0023    0.3233 H   0  0  0  0  0  0  0  0  0  0  0  0
    5.6111    2.9321   -1.1367 H   0  0  0  0  0  0  0  0  0  0  0  0
    4.5427   -1.8942   -0.6135 H   0  0  0  0  0  0  0  0  0  0  0  0
    2.3016   -2.5493    0.1196 H   0  0  0  0  0  0  0  0  0  0  0  0
   -3.7339   -2.4468   -0.5451 H   0  0  0  0  0  0  0  0  0  0  0  0
   -3.9915   -1.9138   -2.6968 H   0  0  0  0  0  0  0  0  0  0  0  0
   -2.3553   -1.2496   -2.4904 H   0  0  0  0  0  0  0  0  0  0  0  0
   -3.2210    0.6399   -3.4011 H   0  0  0  0  0  0  0  0  0  0  0  0
   -4.8798    0.1880   -2.9434 H   0  0  0  0  0  0  0  0  0  0  0  0
   -4.2451    2.1944   -1.8594 H   0  0  0  0  0  0  0  0  0  0  0  0
   -2.8783    1.4166   -0.9446 H   0  0  0  0  0  0  0  0  0  0  0  0
   -5.4853   -1.1411   -0.0822 H   0  0  0  0  0  0  0  0  0  0  0  0
   -4.3111   -0.5352    1.1439 H   0  0  0  0  0  0  0  0  0  0  0  0
   -7.5033    2.2912    1.1893 H   0  0  0  0  0  0  0  0  0  0  0  0
   -7.8838    0.4369    2.5416 H   0  0  0  0  0  0  0  0  0  0  0  0
   -6.4993   -0.4934    1.8389 H   0  0  0  0  0  0  0  0  0  0  0  0
  1  2  1  0
  2  3  2  0
  3  4  1  0
  4  5  2  0
  5  6  1  0
  6  7  1  0
  7  8  1  0
  8  9  2  0
  9 10  1  0
 10 11  2  0
 11 12  1  0
 12 13  2  0
 13 14  1  0
 14 15  1  0
 15 16  2  0
 16 17  1  0
 17 18  2  0
 18 19  1  0
 19 20  2  0
 13 21  1  0
 21 22  2  0
  9 23  1  0
  7 24  1  0
 24 25  1  0
 25 26  1  0
 26 27  1  0
 27 28  1  0
 28 29  1  0
 28 30  1  0
 30 31  2  0
 30 32  1  0
 32 33  2  3
 23  2  1  0
 29 24  1  0
 23  6  2  0
 22 10  1  0
 20 15  1  0
  1 34  1  0
  1 35  1  0
  4 36  1  0
 11 37  1  0
 12 38  1  0
 16 39  1  0
 17 40  1  0
 18 41  1  0
 19 42  1  0
 20 43  1  0
 21 44  1  0
 22 45  1  0
 24 46  1  6
 25 47  1  0
 25 48  1  0
 26 49  1  0
 26 50  1  0
 27 51  1  0
 27 52  1  0
 29 53  1  0
 29 54  1  0
 32 55  1  0
 33 56  1  0
 33 57  1  0
M  END
$$$$
[H]Oc1c([H])c([H])c(-n2nc(C(C([H])([H])[H])(C([H])([H])[H])C([H])([H])[H])c([H])c2N([H])C(=O)N([H])c2c([H])c([H])c(Oc3c([H])c([H])nc4c3nc([H])c(=O)n4[H])c3c([H])c([H])c([H])c([H])c23)c([H])c1[H]
     RDKit          3D

 69 74  0  0  0  0  0  0  0  0999 V2000
   -7.4111   -2.6343   -1.1499 C   0  0  0  0  0  0  0  0  0  0  0  0
   -5.9255   -2.7798   -1.3816 C   0  0  0  0  0  0  0  0  0  0  0  0
   -5.3612   -4.0002   -0.6935 C   0  0  0  0  0  0  0  0  0  0  0  0
   -5.5851   -2.8658   -2.8539 C   0  0  0  0  0  0  0  0  0  0  0  0
   -5.2708   -1.5789   -0.8086 C   0  0  0  0  0  0  0  0  0  0  0  0
   -3.8923   -1.4381   -0.7096 C   0  0  0  0  0  0  0  0  0  0  0  0
   -3.6809   -0.2269   -0.1301 C   0  0  0  0  0  0  0  0  0  0  0  0
   -2.4631    0.3775    0.2184 N   0  0  0  0  0  0  0  0  0  0  0  0
   -1.1835   -0.2251    0.0886 C   0  0  0  0  0  0  0  0  0  0  0  0
   -1.1313   -1.3805   -0.3432 O   0  0  0  0  0  0  0  0  0  0  0  0
   -0.0716    0.5676    0.4738 N   0  0  0  0  0  0  0  0  0  0  0  0
    1.2934    0.2033    0.4724 C   0  0  0  0  0  0  0  0  0  0  0  0
    1.6997   -1.1126    0.3845 C   0  0  0  0  0  0  0  0  0  0  0  0
    3.0326   -1.5118    0.4690 C   0  0  0  0  0  0  0  0  0  0  0  0
    3.9907   -0.5351    0.6504 C   0  0  0  0  0  0  0  0  0  0  0  0
    5.3187   -0.9213    0.7377 O   0  0  0  0  0  0  0  0  0  0  0  0
    6.2853   -0.6819   -0.2225 C   0  0  0  0  0  0  0  0  0  0  0  0
    5.9560   -0.1123   -1.4501 C   0  0  0  0  0  0  0  0  0  0  0  0
    6.8769    0.1483   -2.4400 C   0  0  0  0  0  0  0  0  0  0  0  0
    8.1532   -0.1833   -2.1601 N   0  0  0  0  0  0  0  0  0  0  0  0
    8.5054   -0.7386   -0.9761 C   0  0  0  0  0  0  0  0  0  0  0  0
    9.8110   -1.0354   -0.7875 N   0  0  0  0  0  0  0  0  0  0  0  0
   10.2052   -1.5799    0.3579 C   0  0  0  0  0  0  0  0  0  0  0  0
   11.4218   -1.8763    0.5805 O   0  0  0  0  0  0  0  0  0  0  0  0
    9.3136   -1.8561    1.3758 C   0  0  0  0  0  0  0  0  0  0  0  0
    8.0124   -1.5552    1.1737 N   0  0  0  0  0  0  0  0  0  0  0  0
    7.5896   -1.0054    0.0271 C   0  0  0  0  0  0  0  0  0  0  0  0
    3.6542    0.8024    0.7480 C   0  0  0  0  0  0  0  0  0  0  0  0
    4.6082    1.7872    0.9506 C   0  0  0  0  0  0  0  0  0  0  0  0
    4.2442    3.1191    1.0595 C   0  0  0  0  0  0  0  0  0  0  0  0
    2.9296    3.4567    0.9649 C   0  0  0  0  0  0  0  0  0  0  0  0
    1.9771    2.4639    0.7633 C   0  0  0  0  0  0  0  0  0  0  0  0
    2.2906    1.1376    0.6532 C   0  0  0  0  0  0  0  0  0  0  0  0
   -4.9034    0.3569    0.1184 N   0  0  0  0  0  0  0  0  0  0  0  0
   -5.8211   -0.4715   -0.2972 N   0  0  0  0  0  0  0  0  0  0  0  0
   -5.0876    1.6239    0.7295 C   0  0  0  0  0  0  0  0  0  0  0  0
   -5.3798    1.7666    2.0722 C   0  0  0  0  0  0  0  0  0  0  0  0
   -5.5365    3.0082    2.6798 C   0  0  0  0  0  0  0  0  0  0  0  0
   -5.3958    4.1493    1.9333 C   0  0  0  0  0  0  0  0  0  0  0  0
   -5.5492    5.3833    2.5204 O   0  0  0  0  0  0  0  0  0  0  0  0
   -5.1026    4.0301    0.5915 C   0  0  0  0  0  0  0  0  0  0  0  0
   -4.9510    2.7932    0.0002 C   0  0  0  0  0  0  0  0  0  0  0  0
   -7.5460   -2.6702   -0.0385 H   0  0  0  0  0  0  0  0  0  0  0  0
   -7.6778   -1.6119   -1.4654 H   0  0  0  0  0  0  0  0  0  0  0  0
   -7.9542   -3.4203   -1.6722 H   0  0  0  0  0  0  0  0  0  0  0  0
   -5.6910   -4.0749    0.3448 H   0  0  0  0  0  0  0  0  0  0  0  0
   -4.2350   -3.9107   -0.7530 H   0  0  0  0  0  0  0  0  0  0  0  0
   -5.6231   -4.9434   -1.2169 H   0  0  0  0  0  0  0  0  0  0  0  0
   -5.3681   -3.9329   -3.1558 H   0  0  0  0  0  0  0  0  0  0  0  0
   -4.6619   -2.3127   -3.1187 H   0  0  0  0  0  0  0  0  0  0  0  0
   -6.4467   -2.5243   -3.4481 H   0  0  0  0  0  0  0  0  0  0  0  0
   -3.1883   -2.1904   -1.0575 H   0  0  0  0  0  0  0  0  0  0  0  0
   -2.4596    1.3702    0.5989 H   0  0  0  0  0  0  0  0  0  0  0  0
   -0.3475    1.5435    0.8110 H   0  0  0  0  0  0  0  0  0  0  0  0
    0.9982   -1.9102    0.2498 H   0  0  0  0  0  0  0  0  0  0  0  0
    3.3533   -2.5304    0.3998 H   0  0  0  0  0  0  0  0  0  0  0  0
    4.9092    0.1544   -1.6909 H   0  0  0  0  0  0  0  0  0  0  0  0
    6.5849    0.5945   -3.3898 H   0  0  0  0  0  0  0  0  0  0  0  0
   10.4926   -0.8294   -1.5510 H   0  0  0  0  0  0  0  0  0  0  0  0
    9.6542   -2.3055    2.3173 H   0  0  0  0  0  0  0  0  0  0  0  0
    5.6468    1.5239    1.0542 H   0  0  0  0  0  0  0  0  0  0  0  0
    4.9710    3.9091    1.2207 H   0  0  0  0  0  0  0  0  0  0  0  0
    2.5984    4.4703    1.0426 H   0  0  0  0  0  0  0  0  0  0  0  0
    0.9711    2.7879    0.6863 H   0  0  0  0  0  0  0  0  0  0  0  0
   -5.4893    0.8836    2.6630 H   0  0  0  0  0  0  0  0  0  0  0  0
   -5.7687    3.1156    3.7367 H   0  0  0  0  0  0  0  0  0  0  0  0
   -5.4672    6.2702    2.0709 H   0  0  0  0  0  0  0  0  0  0  0  0
   -5.0027    4.9584    0.0305 H   0  0  0  0  0  0  0  0  0  0  0  0
   -4.7188    2.7169   -1.0595 H   0  0  0  0  0  0  0  0  0  0  0  0
  1  2  1  0
  2  3  1  0
  2  4  1  0
  2  5  1  0
  5  6  1  0
  6  7  2  0
  7  8  1  0
  8  9  1  0
  9 10  2  0
  9 11  1  0
 11 12  1  0
 12 13  2  0
 13 14  1  0
 14 15  2  0
 15 16  1  0
 16 17  1  0
 17 18  2  0
 18 19  1  0
 19 20  2  0
 20 21  1  0
 21 22  1  0
 22 23  1  0
 23 24  2  0
 23 25  1  0
 25 26  2  0
 26 27  1  0
 15 28  1  0
 28 29  2  0
 29 30  1  0
 30 31  2  0
 31 32  1  0
 32 33  2  0
  7 34  1  0
 34 35  1  0
 34 36  1  0
 36 37  2  0
 37 38  1  0
 38 39  2  0
 39 40  1  0
 39 41  1  0
 41 42  2  0
 35  5  2  0
 42 36  1  0
 33 12  1  0
 27 17  1  0
 33 28  1  0
 27 21  2  0
  1 43  1  0
  1 44  1  0
  1 45  1  0
  3 46  1  0
  3 47  1  0
  3 48  1  0
  4 49  1  0
  4 50  1  0
  4 51  1  0
  6 52  1  0
  8 53  1  0
 11 54  1  0
 13 55  1  0
 14 56  1  0
 18 57  1  0
 19 58  1  0
 22 59  1  0
 25 60  1  0
 29 61  1  0
 30 62  1  0
 31 63  1  0
 32 64  1  0
 37 65  1  0
 38 66  1  0
 40 67  1  0
 41 68  1  0
 42 69  1  0
M  END
$$$$
[H]C([H])=C([H])C(=O)N([H])[C@]1([H])C([H])([H])C([H])([H])[C@]([H])(n2nc(-c3c([H])c([H])c(Oc4c([H])c([H])c([H])c([H])c4[H])c([H])c3[H])c3c(N([H])[H])nc([H])nc32)C([H])([H])C1([H])[H]
     RDKit          3D

 60 64  0  0  0  0  0  0  0  0999 V2000
    2.9239    0.0653   -3.0844 N   0  0  0  0  0  0  0  0  0  0  0  0
    1.5595    0.2939   -3.3566 C   0  0  0  0  0  0  0  0  0  0  0  0
    1.0978    0.2626   -4.6251 N   0  0  0  0  0  0  0  0  0  0  0  0
   -0.2060    0.4434   -4.9031 C   0  0  0  0  0  0  0  0  0  0  0  0
   -1.0999    0.6624   -3.9244 N   0  0  0  0  0  0  0  0  0  0  0  0
   -0.7030    0.7065   -2.6296 C   0  0  0  0  0  0  0  0  0  0  0  0
   -1.3922    0.8927   -1.4878 N   0  0  0  0  0  0  0  0  0  0  0  0
   -0.5424    0.8333   -0.5167 N   0  0  0  0  0  0  0  0  0  0  0  0
    0.7240    0.6095   -0.9692 C   0  0  0  0  0  0  0  0  0  0  0  0
    1.9056    0.4612   -0.1365 C   0  0  0  0  0  0  0  0  0  0  0  0
    3.0417    1.2270   -0.2099 C   0  0  0  0  0  0  0  0  0  0  0  0
    4.1418    1.0003    0.6101 C   0  0  0  0  0  0  0  0  0  0  0  0
    4.1462   -0.0107    1.5444 C   0  0  0  0  0  0  0  0  0  0  0  0
    5.2600   -0.2287    2.3642 O   0  0  0  0  0  0  0  0  0  0  0  0
    6.2460   -1.0828    1.9536 C   0  0  0  0  0  0  0  0  0  0  0  0
    6.1767   -1.7394    0.7428 C   0  0  0  0  0  0  0  0  0  0  0  0
    7.1778   -2.5953    0.3457 C   0  0  0  0  0  0  0  0  0  0  0  0
    8.2493   -2.7845    1.1778 C   0  0  0  0  0  0  0  0  0  0  0  0
    8.3253   -2.1396    2.3757 C   0  0  0  0  0  0  0  0  0  0  0  0
    7.3288   -1.2821    2.7805 C   0  0  0  0  0  0  0  0  0  0  0  0
    3.0172   -0.7928    1.6382 C   0  0  0  0  0  0  0  0  0  0  0  0
    1.9338   -0.5651    0.8258 C   0  0  0  0  0  0  0  0  0  0  0  0
    0.6532    0.5201   -2.3354 C   0  0  0  0  0  0  0  0  0  0  0  0
   -2.8240    1.1151   -1.4022 C   0  0  2  0  0  0  0  0  0  0  0  0
   -3.0738    2.0729   -0.2950 C   0  0  0  0  0  0  0  0  0  0  0  0
   -4.5034    2.3329    0.0409 C   0  0  0  0  0  0  0  0  0  0  0  0
   -5.4054    1.1466   -0.0613 C   0  0  1  0  0  0  0  0  0  0  0  0
   -5.0448    0.1982   -1.1712 C   0  0  0  0  0  0  0  0  0  0  0  0
   -3.5589   -0.1741   -1.0828 C   0  0  0  0  0  0  0  0  0  0  0  0
   -5.4602    0.3729    1.1619 N   0  0  0  0  0  0  0  0  0  0  0  0
   -6.6125    0.1551    1.9161 C   0  0  0  0  0  0  0  0  0  0  0  0
   -7.7067    0.6410    1.5557 O   0  0  0  0  0  0  0  0  0  0  0  0
   -6.5745   -0.6387    3.1359 C   0  0  0  0  0  0  0  0  0  0  0  0
   -7.6482   -0.8570    3.8627 C   0  0  0  0  0  0  0  0  0  0  0  0
    3.6225    0.7894   -3.3235 H   0  0  0  0  0  0  0  0  0  0  0  0
    3.2299   -0.8195   -2.6484 H   0  0  0  0  0  0  0  0  0  0  0  0
   -0.5755    0.4184   -5.9171 H   0  0  0  0  0  0  0  0  0  0  0  0
    3.0552    2.0545   -0.9320 H   0  0  0  0  0  0  0  0  0  0  0  0
    4.9871    1.6329    0.4961 H   0  0  0  0  0  0  0  0  0  0  0  0
    5.3206   -1.5879    0.0786 H   0  0  0  0  0  0  0  0  0  0  0  0
    7.1322   -3.1170   -0.6064 H   0  0  0  0  0  0  0  0  0  0  0  0
    9.0522   -3.4470    0.9016 H   0  0  0  0  0  0  0  0  0  0  0  0
    9.1675   -2.2835    3.0387 H   0  0  0  0  0  0  0  0  0  0  0  0
    7.3690   -0.7604    3.7270 H   0  0  0  0  0  0  0  0  0  0  0  0
    3.0287   -1.5873    2.3772 H   0  0  0  0  0  0  0  0  0  0  0  0
    1.0448   -1.1794    0.8986 H   0  0  0  0  0  0  0  0  0  0  0  0
   -3.2054    1.4683   -2.3716 H   0  0  0  0  0  0  0  0  0  0  0  0
   -2.4801    1.7438    0.5968 H   0  0  0  0  0  0  0  0  0  0  0  0
   -2.6025    3.0580   -0.5860 H   0  0  0  0  0  0  0  0  0  0  0  0
   -4.5396    2.6837    1.1054 H   0  0  0  0  0  0  0  0  0  0  0  0
   -4.8683    3.1910   -0.5610 H   0  0  0  0  0  0  0  0  0  0  0  0
   -6.4355    1.5091   -0.2558 H   0  0  0  0  0  0  0  0  0  0  0  0
   -5.1670    0.7345   -2.1337 H   0  0  0  0  0  0  0  0  0  0  0  0
   -5.6918   -0.6924   -1.0804 H   0  0  0  0  0  0  0  0  0  0  0  0
   -3.2969   -0.5436   -0.0830 H   0  0  0  0  0  0  0  0  0  0  0  0
   -3.3591   -0.9700   -1.8207 H   0  0  0  0  0  0  0  0  0  0  0  0
   -4.5323   -0.0403    1.4721 H   0  0  0  0  0  0  0  0  0  0  0  0
   -5.6257   -1.0804    3.4798 H   0  0  0  0  0  0  0  0  0  0  0  0
   -8.5879   -0.4404    3.5543 H   0  0  0  0  0  0  0  0  0  0  0  0
   -7.5947   -1.4414    4.7526 H   0  0  0  0  0  0  0  0  0  0  0  0
  1  2  1  0
  2  3  2  0
  3  4  1  0
  4  5  2  0
  5  6  1  0
  6  7  1  0
  7  8  1  0
  8  9  2  0
  9 10  1  0
 10 11  2  0
 11 12  1  0
 12 13  2  0
 13 14  1  0
 14 15  1  0
 15 16  2  0
 16 17  1  0
 17 18  2  0
 18 19  1  0
 19 20  2  0
 13 21  1  0
 21 22  2  0
  9 23  1  0
  7 24  1  0
 24 25  1  0
 25 26  1  0
 26 27  1  0
 27 28  1  0
 28 29  1  0
 27 30  1  0
 30 31  1  0
 31 32  2  0
 31 33  1  0
 33 34  2  3
 23  2  1  0
 29 24  1  0
 23  6  2  0
 22 10  1  0
 20 15  1  0
  1 35  1  0
  1 36  1  0
  4 37  1  0
 11 38  1  0
 12 39  1  0
 16 40  1  0
 17 41  1  0
 18 42  1  0
 19 43  1  0
 20 44  1  0
 21 45  1  0
 22 46  1  0
 24 47  1  6
 25 48  1  0
 25 49  1  0
 26 50  1  0
 26 51  1  0
 27 52  1  6
 28 53  1  0
 28 54  1  0
 29 55  1  0
 29 56  1  0
 30 57  1  0
 33 58  1  0
 34 59  1  0
 34 60  1  0
M  END
$$$$
[H]O[C@]1([H])C([H])([H])C([H])([H])[C@]([H])(n2c([H])c(-c3c([H])c([H])c(Oc4c([H])c([H])c([H])c([H])c4[H])c([H])c3[H])c3c(N([H])[H])nc([H])nc32)C([H])([H])C1([H])[H]
     RDKit          3D

 54 58  0  0  0  0  0  0  0  0999 V2000
   -0.7038   -3.3822    1.7456 N   0  0  0  0  0  0  0  0  0  0  0  0
    0.6800   -3.0884    1.6856 C   0  0  0  0  0  0  0  0  0  0  0  0
    1.5586   -3.9893    2.1490 N   0  0  0  0  0  0  0  0  0  0  0  0
    2.8919   -3.7244    2.1237 C   0  0  0  0  0  0  0  0  0  0  0  0
    3.3599   -2.5702    1.6414 N   0  0  0  0  0  0  0  0  0  0  0  0
    2.5296   -1.6248    1.1614 C   0  0  0  0  0  0  0  0  0  0  0  0
    2.7528   -0.3955    0.6386 N   0  0  0  0  0  0  0  0  0  0  0  0
    1.5591    0.1068    0.3359 C   0  0  0  0  0  0  0  0  0  0  0  0
    0.5632   -0.8070    0.6663 C   0  0  0  0  0  0  0  0  0  0  0  0
   -0.8334   -0.5439    0.4082 C   0  0  0  0  0  0  0  0  0  0  0  0
   -1.4585    0.5386    1.0155 C   0  0  0  0  0  0  0  0  0  0  0  0
   -2.7591    0.8269    0.7597 C   0  0  0  0  0  0  0  0  0  0  0  0
   -3.5530    0.0660   -0.1213 C   0  0  0  0  0  0  0  0  0  0  0  0
   -4.7770    0.3818   -0.3276 O   0  0  0  0  0  0  0  0  0  0  0  0
   -5.9895    0.7002   -0.5388 C   0  0  0  0  0  0  0  0  0  0  0  0
   -6.5684    1.8019    0.0939 C   0  0  0  0  0  0  0  0  0  0  0  0
   -7.8608    2.1305   -0.1399 C   0  0  0  0  0  0  0  0  0  0  0  0
   -8.6430    1.3964   -1.0020 C   0  0  0  0  0  0  0  0  0  0  0  0
   -8.0702    0.3104   -1.6248 C   0  0  0  0  0  0  0  0  0  0  0  0
   -6.7753   -0.0463   -1.4118 C   0  0  0  0  0  0  0  0  0  0  0  0
   -2.8836   -1.0216   -0.7164 C   0  0  0  0  0  0  0  0  0  0  0  0
   -1.5764   -1.3104   -0.4589 C   0  0  0  0  0  0  0  0  0  0  0  0
    1.1575   -1.8999    1.1876 C   0  0  0  0  0  0  0  0  0  0  0  0
    4.0598    0.1831    0.4761 C   0  0  2  0  0  0  0  0  0  0  0  0
    4.0614    1.6790    0.6913 C   0  0  0  0  0  0  0  0  0  0  0  0
    4.6450    2.4224   -0.4795 C   0  0  0  0  0  0  0  0  0  0  0  0
    5.9578    1.8474   -0.9465 C   0  0  2  0  0  0  0  0  0  0  0  0
    6.2057    2.3563   -2.2216 O   0  0  0  0  0  0  0  0  0  0  0  0
    5.9745    0.3586   -1.0167 C   0  0  0  0  0  0  0  0  0  0  0  0
    4.5314   -0.1348   -0.9353 C   0  0  0  0  0  0  0  0  0  0  0  0
   -1.1354   -4.0615    1.0929 H   0  0  0  0  0  0  0  0  0  0  0  0
   -1.3261   -2.9198    2.4519 H   0  0  0  0  0  0  0  0  0  0  0  0
    3.5759   -4.4711    2.5045 H   0  0  0  0  0  0  0  0  0  0  0  0
    1.4163    1.0879   -0.1032 H   0  0  0  0  0  0  0  0  0  0  0  0
   -0.8422    1.1377    1.7059 H   0  0  0  0  0  0  0  0  0  0  0  0
   -3.2407    1.6801    1.2425 H   0  0  0  0  0  0  0  0  0  0  0  0
   -5.9541    2.4056    0.7920 H   0  0  0  0  0  0  0  0  0  0  0  0
   -8.3033    2.9993    0.3644 H   0  0  0  0  0  0  0  0  0  0  0  0
   -9.6827    1.6642   -1.1876 H   0  0  0  0  0  0  0  0  0  0  0  0
   -8.7194   -0.2421   -2.2965 H   0  0  0  0  0  0  0  0  0  0  0  0
   -6.3448   -0.9207   -1.9249 H   0  0  0  0  0  0  0  0  0  0  0  0
   -3.5010   -1.6072   -1.3967 H   0  0  0  0  0  0  0  0  0  0  0  0
   -1.0872   -2.1623   -0.9539 H   0  0  0  0  0  0  0  0  0  0  0  0
    4.8092   -0.2401    1.1710 H   0  0  0  0  0  0  0  0  0  0  0  0
    4.5770    1.9605    1.6324 H   0  0  0  0  0  0  0  0  0  0  0  0
    3.0023    2.0002    0.7994 H   0  0  0  0  0  0  0  0  0  0  0  0
    4.8628    3.4605   -0.1290 H   0  0  0  0  0  0  0  0  0  0  0  0
    3.9268    2.5283   -1.3189 H   0  0  0  0  0  0  0  0  0  0  0  0
    6.8087    2.1688   -0.3094 H   0  0  0  0  0  0  0  0  0  0  0  0
    5.8199    1.7707   -2.9389 H   0  0  0  0  0  0  0  0  0  0  0  0
    6.4885   -0.1132   -0.1330 H   0  0  0  0  0  0  0  0  0  0  0  0
    6.4126    0.0158   -1.9534 H   0  0  0  0  0  0  0  0  0  0  0  0
    3.9588    0.4947   -1.6576 H   0  0  0  0  0  0  0  0  0  0  0  0
    4.4417   -1.2035   -1.1314 H   0  0  0  0  0  0  0  0  0  0  0  0
  1  2  1  0
  2  3  2  0
  3  4  1  0
  4  5  2  0
  5  6  1  0
  6  7  1  0
  7  8  1  0
  8  9  2  0
  9 10  1  0
 10 11  2  0
 11 12  1  0
 12 13  2  0
 13 14  1  0
 14 15  1  0
 15 16  2  0
 16 17  1  0
 17 18  2  0
 18 19  1  0
 19 20  2  0
 13 21  1  0
 21 22  2  0
  9 23  1  0
  7 24  1  0
 24 25  1  0
 25 26  1  0
 26 27  1  0
 27 28  1  0
 27 29  1  0
 29 30  1  0
 23  2  1  0
 30 24  1  0
 23  6  2  0
 22 10  1  0
 20 15  1  0
  1 31  1  0
  1 32  1  0
  4 33  1  0
  8 34  1  0
 11 35  1  0
 12 36  1  0
 16 37  1  0
 17 38  1  0
 18 39  1  0
 19 40  1  0
 20 41  1  0
 21 42  1  0
 22 43  1  0
 24 44  1  1
 25 45  1  0
 25 46  1  0
 26 47  1  0
 26 48  1  0
 27 49  1  1
 28 50  1  0
 29 51  1  0
 29 52  1  0
 30 53  1  0
 30 54  1  0
M  END
$$$$
[H]c1c([H])c(Cl)c(N([H])c2nc3c([H])c([H])c4c(C([H])([H])[H])c(C([H])([H])[H])n([H])c(=O)c4c3n2C([H])([H])[H])c(Cl)c1[H]
     RDKit          3D

 42 45  0  0  0  0  0  0  0  0999 V2000
   -5.5470    1.5568   -0.0422 C   0  0  0  0  0  0  0  0  0  0  0  0
   -4.1665    0.9571    0.0032 C   0  0  0  0  0  0  0  0  0  0  0  0
   -3.1133    1.7450   -0.0900 N   0  0  0  0  0  0  0  0  0  0  0  0
   -1.8240    1.2579   -0.0513 C   0  0  0  0  0  0  0  0  0  0  0  0
   -0.9594    2.0932   -0.1579 O   0  0  0  0  0  0  0  0  0  0  0  0
   -1.6476   -0.0786    0.0908 C   0  0  0  0  0  0  0  0  0  0  0  0
   -0.3584   -0.6313    0.1114 C   0  0  0  0  0  0  0  0  0  0  0  0
    0.8853   -0.1007    0.0601 N   0  0  0  0  0  0  0  0  0  0  0  0
    1.3224    1.2649    0.0466 C   0  0  0  0  0  0  0  0  0  0  0  0
    1.7552   -1.1205    0.1192 C   0  0  0  0  0  0  0  0  0  0  0  0
    3.1628   -1.2114    0.0601 N   0  0  0  0  0  0  0  0  0  0  0  0
    4.2119   -0.3258   -0.0650 C   0  0  0  0  0  0  0  0  0  0  0  0
    4.8918    0.0691    1.0914 C   0  0  0  0  0  0  0  0  0  0  0  0
    4.3478   -0.5536    2.6541 Cl  0  0  0  0  0  0  0  0  0  0  0  0
    5.9653    0.9224    1.0531 C   0  0  0  0  0  0  0  0  0  0  0  0
    6.3770    1.4000   -0.1802 C   0  0  0  0  0  0  0  0  0  0  0  0
    5.7056    1.0113   -1.3321 C   0  0  0  0  0  0  0  0  0  0  0  0
    4.6483    0.1713   -1.2979 C   0  0  0  0  0  0  0  0  0  0  0  0
    3.7623   -0.3535   -2.7217 Cl  0  0  0  0  0  0  0  0  0  0  0  0
    1.0269   -2.2959    0.2168 N   0  0  0  0  0  0  0  0  0  0  0  0
   -0.2516   -2.0083    0.2141 C   0  0  0  0  0  0  0  0  0  0  0  0
   -1.3715   -2.8244    0.3047 C   0  0  0  0  0  0  0  0  0  0  0  0
   -2.6023   -2.2728    0.2913 C   0  0  0  0  0  0  0  0  0  0  0  0
   -2.7805   -0.9132    0.1865 C   0  0  0  0  0  0  0  0  0  0  0  0
   -4.0569   -0.3973    0.1439 C   0  0  0  0  0  0  0  0  0  0  0  0
   -5.2275   -1.3009    0.2491 C   0  0  0  0  0  0  0  0  0  0  0  0
   -5.4839    2.6578   -0.0946 H   0  0  0  0  0  0  0  0  0  0  0  0
   -6.1156    1.3074    0.8777 H   0  0  0  0  0  0  0  0  0  0  0  0
   -6.0265    1.1536   -0.9644 H   0  0  0  0  0  0  0  0  0  0  0  0
   -3.2014    2.7726   -0.1974 H   0  0  0  0  0  0  0  0  0  0  0  0
    2.4172    1.3295    0.3793 H   0  0  0  0  0  0  0  0  0  0  0  0
    1.3848    1.6966   -0.9542 H   0  0  0  0  0  0  0  0  0  0  0  0
    0.9379    1.9043    0.8826 H   0  0  0  0  0  0  0  0  0  0  0  0
    3.5512   -2.2619    0.1318 H   0  0  0  0  0  0  0  0  0  0  0  0
    6.4731    1.2090    1.9836 H   0  0  0  0  0  0  0  0  0  0  0  0
    7.2157    2.0732   -0.2635 H   0  0  0  0  0  0  0  0  0  0  0  0
    6.0379    1.3916   -2.2859 H   0  0  0  0  0  0  0  0  0  0  0  0
   -1.2232   -3.8717    0.3827 H   0  0  0  0  0  0  0  0  0  0  0  0
   -3.5170   -2.8953    0.3644 H   0  0  0  0  0  0  0  0  0  0  0  0
   -6.1501   -0.6702    0.1884 H   0  0  0  0  0  0  0  0  0  0  0  0
   -5.2339   -1.8355    1.2447 H   0  0  0  0  0  0  0  0  0  0  0  0
   -5.2223   -2.0220   -0.5750 H   0  0  0  0  0  0  0  0  0  0  0  0
  1  2  1  0
  2  3  1  0
  3  4  1  0
  4  5  2  0
  4  6  1  0
  6  7  2  0
  7  8  1  0
  8  9  1  0
  8 10  1  0
 10 11  1  0
 11 12  1  0
 12 13  2  0
 13 14  1  0
 13 15  1  0
 15 16  2  0
 16 17  1  0
 17 18  2  0
 18 19  1  0
 10 20  2  0
 20 21  1  0
 21 22  2  0
 22 23  1  0
 23 24  2  0
 24 25  1  0
 25 26  1  0
 25  2  2  0
 24  6  1  0
 21  7  1  0
 18 12  1  0
  1 27  1  0
  1 28  1  0
  1 29  1  0
  3 30  1  0
  9 31  1  0
  9 32  1  0
  9 33  1  0
 11 34  1  0
 15 35  1  0
 16 36  1  0
 17 37  1  0
 22 38  1  0
 23 39  1  0
 26 40  1  0
 26 41  1  0
 26 42  1  0
M  END
$$$$
[H]C([H])=C([H])C(=O)N([H])[C@]1([H])C([H])([H])C([H])([H])[C@@]([H])(n2c([H])c(-c3c([H])c([H])c(Oc4c([H])c([H])c([H])c([H])c4[H])c([H])c3[H])c3c(N([H])[H])nc([H])nc32)C([H])([H])C1([H])[H]
     RDKit          3D

 61 65  0  0  0  0  0  0  0  0999 V2000
   -2.5738   -1.7781    2.4609 N   0  0  0  0  0  0  0  0  0  0  0  0
   -1.1524   -1.7199    2.4791 C   0  0  0  0  0  0  0  0  0  0  0  0
   -0.4481   -2.3230    3.4617 N   0  0  0  0  0  0  0  0  0  0  0  0
    0.8916   -2.2471    3.4935 C   0  0  0  0  0  0  0  0  0  0  0  0
    1.5718   -1.5711    2.5524 N   0  0  0  0  0  0  0  0  0  0  0  0
    0.9373   -0.9467    1.5448 C   0  0  0  0  0  0  0  0  0  0  0  0
    1.3915   -0.2050    0.4994 N   0  0  0  0  0  0  0  0  0  0  0  0
    0.3228    0.1838   -0.1925 C   0  0  0  0  0  0  0  0  0  0  0  0
   -0.8372   -0.3003    0.3936 C   0  0  0  0  0  0  0  0  0  0  0  0
   -2.2019   -0.1225   -0.1006 C   0  0  0  0  0  0  0  0  0  0  0  0
   -3.0049   -1.1556   -0.5364 C   0  0  0  0  0  0  0  0  0  0  0  0
   -4.2926   -0.9647   -0.9872 C   0  0  0  0  0  0  0  0  0  0  0  0
   -4.8546    0.2921   -1.0269 C   0  0  0  0  0  0  0  0  0  0  0  0
   -6.1515    0.5155   -1.4766 O   0  0  0  0  0  0  0  0  0  0  0  0
   -7.2488    0.4915   -0.6281 C   0  0  0  0  0  0  0  0  0  0  0  0
   -8.5265    0.7079   -1.0532 C   0  0  0  0  0  0  0  0  0  0  0  0
   -9.5532    0.6672   -0.1530 C   0  0  0  0  0  0  0  0  0  0  0  0
   -9.3519    0.4116    1.1951 C   0  0  0  0  0  0  0  0  0  0  0  0
   -8.0502    0.1960    1.6005 C   0  0  0  0  0  0  0  0  0  0  0  0
   -7.0066    0.2345    0.7019 C   0  0  0  0  0  0  0  0  0  0  0  0
   -4.0473    1.3301   -0.5894 C   0  0  0  0  0  0  0  0  0  0  0  0
   -2.7662    1.1528   -0.1390 C   0  0  0  0  0  0  0  0  0  0  0  0
   -0.4643   -1.0180    1.4976 C   0  0  0  0  0  0  0  0  0  0  0  0
    2.8044    0.0750    0.2418 C   0  0  1  0  0  0  0  0  0  0  0  0
    3.3801   -0.8289   -0.8091 C   0  0  0  0  0  0  0  0  0  0  0  0
    4.3874   -0.1853   -1.6972 C   0  0  0  0  0  0  0  0  0  0  0  0
    5.2511    0.8403   -1.0420 C   0  0  1  0  0  0  0  0  0  0  0  0
    4.4623    1.8054   -0.1676 C   0  0  0  0  0  0  0  0  0  0  0  0
    2.9712    1.5109   -0.2629 C   0  0  0  0  0  0  0  0  0  0  0  0
    6.3751    0.2976   -0.3451 N   0  0  0  0  0  0  0  0  0  0  0  0
    7.7228    0.5398   -0.6661 C   0  0  0  0  0  0  0  0  0  0  0  0
    7.9815    1.2902   -1.6397 O   0  0  0  0  0  0  0  0  0  0  0  0
    8.8278   -0.0374    0.0758 C   0  0  0  0  0  0  0  0  0  0  0  0
   10.0767    0.2170   -0.2611 C   0  0  0  0  0  0  0  0  0  0  0  0
   -3.2028   -0.9719    2.6627 H   0  0  0  0  0  0  0  0  0  0  0  0
   -3.0293   -2.6872    2.2306 H   0  0  0  0  0  0  0  0  0  0  0  0
    1.4486   -2.7401    4.2944 H   0  0  0  0  0  0  0  0  0  0  0  0
    0.3088    0.7889   -1.0869 H   0  0  0  0  0  0  0  0  0  0  0  0
   -2.5606   -2.1692   -0.5179 H   0  0  0  0  0  0  0  0  0  0  0  0
   -4.8679   -1.8048   -1.3124 H   0  0  0  0  0  0  0  0  0  0  0  0
   -8.6683    0.9088   -2.1242 H   0  0  0  0  0  0  0  0  0  0  0  0
  -10.5801    0.8394   -0.4847 H   0  0  0  0  0  0  0  0  0  0  0  0
  -10.1592    0.3795    1.9030 H   0  0  0  0  0  0  0  0  0  0  0  0
   -7.8246   -0.0086    2.6387 H   0  0  0  0  0  0  0  0  0  0  0  0
   -5.9908    0.0590    1.0600 H   0  0  0  0  0  0  0  0  0  0  0  0
   -4.5044    2.3251   -0.6253 H   0  0  0  0  0  0  0  0  0  0  0  0
   -2.1542    1.9773    0.1976 H   0  0  0  0  0  0  0  0  0  0  0  0
    3.4001    0.0100    1.1757 H   0  0  0  0  0  0  0  0  0  0  0  0
    3.7265   -1.7733   -0.3373 H   0  0  0  0  0  0  0  0  0  0  0  0
    2.5140   -1.1379   -1.4658 H   0  0  0  0  0  0  0  0  0  0  0  0
    5.0618   -0.9921   -2.0798 H   0  0  0  0  0  0  0  0  0  0  0  0
    3.9187    0.2580   -2.6093 H   0  0  0  0  0  0  0  0  0  0  0  0
    5.6709    1.4828   -1.8719 H   0  0  0  0  0  0  0  0  0  0  0  0
    4.7926    1.6177    0.8886 H   0  0  0  0  0  0  0  0  0  0  0  0
    4.6737    2.8518   -0.3781 H   0  0  0  0  0  0  0  0  0  0  0  0
    2.4457    2.2316    0.3672 H   0  0  0  0  0  0  0  0  0  0  0  0
    2.6800    1.5412   -1.3243 H   0  0  0  0  0  0  0  0  0  0  0  0
    6.1787   -0.3330    0.4727 H   0  0  0  0  0  0  0  0  0  0  0  0
    8.6865   -0.6932    0.9271 H   0  0  0  0  0  0  0  0  0  0  0  0
   10.9301   -0.1883    0.2594 H   0  0  0  0  0  0  0  0  0  0  0  0
   10.2822    0.8727   -1.1127 H   0  0  0  0  0  0  0  0  0  0  0  0
  1  2  1  0
  2  3  2  0
  3  4  1  0
  4  5  2  0
  5  6  1  0
  6  7  1  0
  7  8  1  0
  8  9  2  0
  9 10  1  0
 10 11  2  0
 11 12  1  0
 12 13  2  0
 13 14  1  0
 14 15  1  0
 15 16  2  0
 16 17  1  0
 17 18  2  0
 18 19  1  0
 19 20  2  0
 13 21  1  0
 21 22  2  0
  9 23  1  0
  7 24  1  0
 24 25  1  0
 25 26  1  0
 26 27  1  0
 27 28  1  0
 28 29  1  0
 27 30  1  0
 30 31  1  0
 31 32  2  0
 31 33  1  0
 33 34  2  3
 23  2  1  0
 29 24  1  0
 23  6  2  0
 22 10  1  0
 20 15  1  0
  1 35  1  0
  1 36  1  0
  4 37  1  0
  8 38  1  0
 11 39  1  0
 12 40  1  0
 16 41  1  0
 17 42  1  0
 18 43  1  0
 19 44  1  0
 20 45  1  0
 21 46  1  0
 22 47  1  0
 24 48  1  1
 25 49  1  0
 25 50  1  0
 26 51  1  0
 26 52  1  0
 27 53  1  6
 28 54  1  0
 28 55  1  0
 29 56  1  0
 29 57  1  0
 30 58  1  0
 33 59  1  0
 34 60  1  0
 34 61  1  0
M  END
$$$$
[H]c1c(N([H])c2nc3c([H])c([H])c(C(=O)N([H])c4c(Cl)c([H])c([H])c([H])c4C([H])([H])[H])c([H])c3s2)nc(N([H])[H])nc1C([H])([H])[H]
     RDKit          3D

 46 49  0  0  0  0  0  0  0  0999 V2000
    6.3672   -2.1666   -2.8603 C   0  0  0  0  0  0  0  0  0  0  0  0
    6.3468   -0.8061   -2.2644 C   0  0  0  0  0  0  0  0  0  0  0  0
    5.2031   -0.2964   -1.6449 C   0  0  0  0  0  0  0  0  0  0  0  0
    5.1865    0.9549   -1.0980 C   0  0  0  0  0  0  0  0  0  0  0  0
    4.1304    1.5574   -0.4469 N   0  0  0  0  0  0  0  0  0  0  0  0
    2.8794    0.9669   -0.1750 C   0  0  0  0  0  0  0  0  0  0  0  0
    1.8702    1.5803    0.4280 N   0  0  0  0  0  0  0  0  0  0  0  0
    0.7561    0.9640    0.6612 C   0  0  0  0  0  0  0  0  0  0  0  0
   -0.3814    1.5176    1.3006 C   0  0  0  0  0  0  0  0  0  0  0  0
   -1.4728    0.7319    1.4768 C   0  0  0  0  0  0  0  0  0  0  0  0
   -1.5820   -0.5679    1.0891 C   0  0  0  0  0  0  0  0  0  0  0  0
   -0.4851   -1.1147    0.4664 C   0  0  0  0  0  0  0  0  0  0  0  0
    0.6647   -0.3514    0.2592 C   0  0  0  0  0  0  0  0  0  0  0  0
    2.2066   -0.5810   -0.4266 S   0  0  0  0  0  0  0  0  0  0  0  0
   -2.7916   -1.3990    1.3174 C   0  0  0  0  0  0  0  0  0  0  0  0
   -2.5194   -2.6565    1.3397 O   0  0  0  0  0  0  0  0  0  0  0  0
   -4.0278   -0.8994    1.4832 N   0  0  0  0  0  0  0  0  0  0  0  0
   -5.2734   -0.3979    1.6503 C   0  0  0  0  0  0  0  0  0  0  0  0
   -6.1290   -0.2434    0.5522 C   0  0  0  0  0  0  0  0  0  0  0  0
   -5.6849   -0.6521   -0.7803 C   0  0  0  0  0  0  0  0  0  0  0  0
   -7.3714    0.2962    0.8118 C   0  0  0  0  0  0  0  0  0  0  0  0
   -7.7618    0.6659    2.0708 C   0  0  0  0  0  0  0  0  0  0  0  0
   -6.9229    0.5171    3.1602 C   0  0  0  0  0  0  0  0  0  0  0  0
   -5.6863   -0.0135    2.9409 C   0  0  0  0  0  0  0  0  0  0  0  0
   -4.6152   -0.2044    4.3142 Cl  0  0  0  0  0  0  0  0  0  0  0  0
    6.3713    1.6616   -1.2062 N   0  0  0  0  0  0  0  0  0  0  0  0
    7.4476    1.1774   -1.7909 C   0  0  0  0  0  0  0  0  0  0  0  0
    8.6706    1.9247   -1.8911 N   0  0  0  0  0  0  0  0  0  0  0  0
    7.4592   -0.0488   -2.3244 N   0  0  0  0  0  0  0  0  0  0  0  0
    6.8770   -2.8808   -2.1903 H   0  0  0  0  0  0  0  0  0  0  0  0
    6.8401   -2.1740   -3.8530 H   0  0  0  0  0  0  0  0  0  0  0  0
    5.3071   -2.5039   -2.9044 H   0  0  0  0  0  0  0  0  0  0  0  0
    4.3578   -0.9360   -1.6343 H   0  0  0  0  0  0  0  0  0  0  0  0
    4.2469    2.5580   -0.1084 H   0  0  0  0  0  0  0  0  0  0  0  0
   -0.4004    2.5272    1.6405 H   0  0  0  0  0  0  0  0  0  0  0  0
   -2.3538    1.1578    1.9730 H   0  0  0  0  0  0  0  0  0  0  0  0
   -0.4855   -2.1210    0.1311 H   0  0  0  0  0  0  0  0  0  0  0  0
   -4.5464   -2.1466    1.6494 H   0  0  0  0  0  0  0  0  0  0  0  0
   -4.6678   -0.2946   -1.0463 H   0  0  0  0  0  0  0  0  0  0  0  0
   -6.3709   -0.2433   -1.5522 H   0  0  0  0  0  0  0  0  0  0  0  0
   -5.7366   -1.7723   -0.9077 H   0  0  0  0  0  0  0  0  0  0  0  0
   -8.0723    0.4415    0.0162 H   0  0  0  0  0  0  0  0  0  0  0  0
   -8.7404    1.0839    2.2511 H   0  0  0  0  0  0  0  0  0  0  0  0
   -7.2822    0.8287    4.1427 H   0  0  0  0  0  0  0  0  0  0  0  0
    8.6249    2.8684   -2.3153 H   0  0  0  0  0  0  0  0  0  0  0  0
    9.5477    1.4902   -1.5357 H   0  0  0  0  0  0  0  0  0  0  0  0
  1  2  1  0
  2  3  2  0
  3  4  1  0
  4  5  1  0
  5  6  1  0
  6  7  2  0
  7  8  1  0
  8  9  2  0
  9 10  1  0
 10 11  2  0
 11 12  1  0
 12 13  2  0
 13 14  1  0
 11 15  1  0
 15 16  2  0
 15 17  1  0
 17 18  1  0
 18 19  2  0
 19 20  1  0
 19 21  1  0
 21 22  2  0
 22 23  1  0
 23 24  2  0
 24 25  1  0
  4 26  2  0
 26 27  1  0
 27 28  1  0
 27 29  2  0
 29  2  1  0
 14  6  1  0
 24 18  1  0
 13  8  1  0
  1 30  1  0
  1 31  1  0
  1 32  1  0
  3 33  1  0
  5 34  1  0
  9 35  1  0
 10 36  1  0
 12 37  1  0
 17 38  1  0
 20 39  1  0
 20 40  1  0
 20 41  1  0
 21 42  1  0
 22 43  1  0
 23 44  1  0
 28 45  1  0
 28 46  1  0
M  END
$$$$
[H]c1c([H])c(Cl)c(N([H])C(=O)c2c([H])c([H])c3nc(N([H])C(=O)C4([H])C([H])([H])C4([H])[H])sc3c2[H])c(C([H])([H])[H])c1[H]
     RDKit          3D

 42 45  0  0  0  0  0  0  0  0999 V2000
   -4.9530   -2.0726    0.7072 C   0  0  0  0  0  0  0  0  0  0  0  0
   -5.6229   -0.7553    0.6119 C   0  0  0  0  0  0  0  0  0  0  0  0
   -7.0015   -0.7602    0.4807 C   0  0  0  0  0  0  0  0  0  0  0  0
   -7.6744    0.4280    0.3882 C   0  0  0  0  0  0  0  0  0  0  0  0
   -6.9569    1.6084    0.4284 C   0  0  0  0  0  0  0  0  0  0  0  0
   -5.5637    1.5979    0.5614 C   0  0  0  0  0  0  0  0  0  0  0  0
   -4.6638    3.0802    0.6117 Cl  0  0  0  0  0  0  0  0  0  0  0  0
   -4.8809    0.4042    0.6549 C   0  0  0  0  0  0  0  0  0  0  0  0
   -3.4590    0.3599    0.7915 N   0  0  0  0  0  0  0  0  0  0  0  0
   -2.6047    0.3080   -0.3380 C   0  0  0  0  0  0  0  0  0  0  0  0
   -3.1262    0.3017   -1.4695 O   0  0  0  0  0  0  0  0  0  0  0  0
   -1.1689    0.2635   -0.1846 C   0  0  0  0  0  0  0  0  0  0  0  0
   -0.4935    0.2651    1.0113 C   0  0  0  0  0  0  0  0  0  0  0  0
    0.8689    0.2223    1.1298 C   0  0  0  0  0  0  0  0  0  0  0  0
    1.6707    0.1727   -0.0219 C   0  0  0  0  0  0  0  0  0  0  0  0
    2.9730    0.1291   -0.0482 N   0  0  0  0  0  0  0  0  0  0  0  0
    3.6176    0.0850   -1.1833 C   0  0  0  0  0  0  0  0  0  0  0  0
    5.0399    0.0328   -1.4414 N   0  0  0  0  0  0  0  0  0  0  0  0
    5.9846    0.0221   -0.4091 C   0  0  0  0  0  0  0  0  0  0  0  0
    5.6059    0.0584    0.7789 O   0  0  0  0  0  0  0  0  0  0  0  0
    7.4239   -0.0315   -0.7089 C   0  0  0  0  0  0  0  0  0  0  0  0
    8.3638    0.5650    0.2737 C   0  0  0  0  0  0  0  0  0  0  0  0
    8.3129   -0.9120    0.1281 C   0  0  0  0  0  0  0  0  0  0  0  0
    2.3357    0.1046   -2.3245 S   0  0  0  0  0  0  0  0  0  0  0  0
    1.0199    0.1701   -1.2277 C   0  0  0  0  0  0  0  0  0  0  0  0
   -0.3757    0.2143   -1.3277 C   0  0  0  0  0  0  0  0  0  0  0  0
   -3.9030   -2.0513    0.3740 H   0  0  0  0  0  0  0  0  0  0  0  0
   -4.9589   -2.3738    1.7694 H   0  0  0  0  0  0  0  0  0  0  0  0
   -5.4670   -2.8620    0.1370 H   0  0  0  0  0  0  0  0  0  0  0  0
   -7.5808   -1.6887    0.4476 H   0  0  0  0  0  0  0  0  0  0  0  0
   -8.7496    0.4789    0.2846 H   0  0  0  0  0  0  0  0  0  0  0  0
   -7.4779    2.5346    0.3567 H   0  0  0  0  0  0  0  0  0  0  0  0
   -3.1165    0.3691    1.7801 H   0  0  0  0  0  0  0  0  0  0  0  0
   -1.1043    0.3036    1.9239 H   0  0  0  0  0  0  0  0  0  0  0  0
    1.3317    0.2271    2.1342 H   0  0  0  0  0  0  0  0  0  0  0  0
    5.3473    0.0026   -2.4416 H   0  0  0  0  0  0  0  0  0  0  0  0
    7.6761   -0.0614   -1.7894 H   0  0  0  0  0  0  0  0  0  0  0  0
    7.9031    1.0043    1.1724 H   0  0  0  0  0  0  0  0  0  0  0  0
    9.2804    1.0475   -0.1663 H   0  0  0  0  0  0  0  0  0  0  0  0
    9.1647   -1.4506   -0.3610 H   0  0  0  0  0  0  0  0  0  0  0  0
    7.7861   -1.5507    0.8600 H   0  0  0  0  0  0  0  0  0  0  0  0
   -0.8032    0.2091   -2.2964 H   0  0  0  0  0  0  0  0  0  0  0  0
  1  2  1  0
  2  3  2  0
  3  4  1  0
  4  5  2  0
  5  6  1  0
  6  7  1  0
  6  8  2  0
  8  9  1  0
  9 10  1  0
 10 11  2  0
 10 12  1  0
 12 13  2  0
 13 14  1  0
 14 15  2  0
 15 16  1  0
 16 17  2  0
 17 18  1  0
 18 19  1  0
 19 20  2  0
 19 21  1  0
 21 22  1  0
 22 23  1  0
 17 24  1  0
 24 25  1  0
 25 26  2  0
  8  2  1  0
 26 12  1  0
 25 15  1  0
 23 21  1  0
  1 27  1  0
  1 28  1  0
  1 29  1  0
  3 30  1  0
  4 31  1  0
  5 32  1  0
  9 33  1  0
 13 34  1  0
 14 35  1  0
 18 36  1  0
 21 37  1  0
 22 38  1  0
 22 39  1  0
 23 40  1  0
 23 41  1  0
 26 42  1  0
M  END
$$$$
[H]c1c([H])c(Cl)c(N([H])C(=O)c2c([H])c([H])c3nc(N([H])C(=O)N([H])C4([H])C([H])([H])C4([H])[H])sc3c2[H])c(C([H])([H])[H])c1[H]
     RDKit          3D

 44 47  0  0  0  0  0  0  0  0999 V2000
   -5.4272    0.0249   -1.8661 C   0  0  0  0  0  0  0  0  0  0  0  0
   -6.1235   -0.3820   -0.6253 C   0  0  0  0  0  0  0  0  0  0  0  0
   -7.5206   -0.4032   -0.5300 C   0  0  0  0  0  0  0  0  0  0  0  0
   -8.1433   -0.7869    0.6395 C   0  0  0  0  0  0  0  0  0  0  0  0
   -7.3608   -1.1502    1.7159 C   0  0  0  0  0  0  0  0  0  0  0  0
   -5.9646   -1.1340    1.6359 C   0  0  0  0  0  0  0  0  0  0  0  0
   -4.9663   -1.5940    2.9987 Cl  0  0  0  0  0  0  0  0  0  0  0  0
   -5.3572   -0.7484    0.4610 C   0  0  0  0  0  0  0  0  0  0  0  0
   -3.9281   -0.7215    0.3479 N   0  0  0  0  0  0  0  0  0  0  0  0
   -3.1673    0.4215    0.6633 C   0  0  0  0  0  0  0  0  0  0  0  0
   -3.7564    1.4513    1.0563 O   0  0  0  0  0  0  0  0  0  0  0  0
   -1.7244    0.4217    0.5401 C   0  0  0  0  0  0  0  0  0  0  0  0
   -0.9739    1.5444    0.8502 C   0  0  0  0  0  0  0  0  0  0  0  0
    0.3873    1.6243    0.7605 C   0  0  0  0  0  0  0  0  0  0  0  0
    1.1192    0.5066    0.3254 C   0  0  0  0  0  0  0  0  0  0  0  0
    2.4201    0.4454    0.1939 N   0  0  0  0  0  0  0  0  0  0  0  0
    2.9894   -0.6665   -0.2253 C   0  0  0  0  0  0  0  0  0  0  0  0
    4.3791   -0.9133   -0.4263 N   0  0  0  0  0  0  0  0  0  0  0  0
    5.3183    0.1117   -0.1649 C   0  0  0  0  0  0  0  0  0  0  0  0
    4.9454    1.2348    0.2414 O   0  0  0  0  0  0  0  0  0  0  0  0
    6.7086   -0.1054   -0.3560 N   0  0  0  0  0  0  0  0  0  0  0  0
    7.6837    0.9355   -0.0924 C   0  0  0  0  0  0  0  0  0  0  0  0
    8.9185    0.8825   -0.9308 C   0  0  0  0  0  0  0  0  0  0  0  0
    8.9670    0.5060    0.5286 C   0  0  0  0  0  0  0  0  0  0  0  0
    1.6458   -1.6948   -0.4533 S   0  0  0  0  0  0  0  0  0  0  0  0
    0.4030   -0.6151    0.0128 C   0  0  0  0  0  0  0  0  0  0  0  0
   -0.9957   -0.6685    0.1145 C   0  0  0  0  0  0  0  0  0  0  0  0
   -5.0676    1.0802   -1.8094 H   0  0  0  0  0  0  0  0  0  0  0  0
   -4.5665   -0.6200   -2.1053 H   0  0  0  0  0  0  0  0  0  0  0  0
   -6.1150   -0.0113   -2.7343 H   0  0  0  0  0  0  0  0  0  0  0  0
   -8.1008   -0.1048   -1.4157 H   0  0  0  0  0  0  0  0  0  0  0  0
   -9.2426   -0.7990    0.7008 H   0  0  0  0  0  0  0  0  0  0  0  0
   -7.8342   -1.4517    2.6345 H   0  0  0  0  0  0  0  0  0  0  0  0
   -3.4688   -1.5969    0.0174 H   0  0  0  0  0  0  0  0  0  0  0  0
   -1.5262    2.4353    1.1943 H   0  0  0  0  0  0  0  0  0  0  0  0
    0.8897    2.5649    1.0310 H   0  0  0  0  0  0  0  0  0  0  0  0
    4.6817   -1.8405   -0.7612 H   0  0  0  0  0  0  0  0  0  0  0  0
    7.0273   -1.0253   -0.6899 H   0  0  0  0  0  0  0  0  0  0  0  0
    7.2942    1.9153    0.2676 H   0  0  0  0  0  0  0  0  0  0  0  0
    9.3934    1.8485   -1.2136 H   0  0  0  0  0  0  0  0  0  0  0  0
    9.0010    0.0795   -1.6901 H   0  0  0  0  0  0  0  0  0  0  0  0
    9.5318    1.1615    1.2107 H   0  0  0  0  0  0  0  0  0  0  0  0
    9.0861   -0.5760    0.7371 H   0  0  0  0  0  0  0  0  0  0  0  0
   -1.4594   -1.5866   -0.1519 H   0  0  0  0  0  0  0  0  0  0  0  0
  1  2  1  0
  2  3  2  0
  3  4  1  0
  4  5  2  0
  5  6  1  0
  6  7  1  0
  6  8  2  0
  8  9  1  0
  9 10  1  0
 10 11  2  0
 10 12  1  0
 12 13  2  0
 13 14  1  0
 14 15  2  0
 15 16  1  0
 16 17  2  0
 17 18  1  0
 18 19  1  0
 19 20  2  0
 19 21  1  0
 21 22  1  0
 22 23  1  0
 23 24  1  0
 17 25  1  0
 25 26  1  0
 26 27  2  0
  8  2  1  0
 27 12  1  0
 26 15  1  0
 24 22  1  0
  1 28  1  0
  1 29  1  0
  1 30  1  0
  3 31  1  0
  4 32  1  0
  5 33  1  0
  9 34  1  0
 13 35  1  0
 14 36  1  0
 18 37  1  0
 21 38  1  0
 22 39  1  0
 23 40  1  0
 23 41  1  0
 24 42  1  0
 24 43  1  0
 27 44  1  0
M  END
$$$$
[H]c1nc(N([H])[H])c2c(-c3c([H])c([H])c(Oc4c([H])c([H])c([H])c([H])c4[H])c([H])c3[H])c([H])n(C3([H])C([H])([H])C([H])([H])C([H])([H])C3([H])[H])c2n1
     RDKit          3D

 50 54  0  0  0  0  0  0  0  0999 V2000
   -0.2691   -3.7170    0.7737 N   0  0  0  0  0  0  0  0  0  0  0  0
   -1.5533   -3.1327    0.8918 C   0  0  0  0  0  0  0  0  0  0  0  0
   -2.6298   -3.8922    1.2460 N   0  0  0  0  0  0  0  0  0  0  0  0
   -3.8365   -3.3215    1.3258 C   0  0  0  0  0  0  0  0  0  0  0  0
   -4.0103   -2.0186    1.0648 N   0  0  0  0  0  0  0  0  0  0  0  0
   -2.9569   -1.2419    0.7110 C   0  0  0  0  0  0  0  0  0  0  0  0
   -2.8501    0.0626    0.3909 N   0  0  0  0  0  0  0  0  0  0  0  0
   -1.5794    0.3452    0.1050 C   0  0  0  0  0  0  0  0  0  0  0  0
   -0.7959   -0.8145    0.2377 C   0  0  0  0  0  0  0  0  0  0  0  0
    0.6506   -0.8766    0.0460 C   0  0  0  0  0  0  0  0  0  0  0  0
    1.5540   -1.2099    1.0252 C   0  0  0  0  0  0  0  0  0  0  0  0
    2.8996   -1.2579    0.7630 C   0  0  0  0  0  0  0  0  0  0  0  0
    3.3773   -0.9706   -0.4966 C   0  0  0  0  0  0  0  0  0  0  0  0
    4.7359   -1.0345   -0.7023 O   0  0  0  0  0  0  0  0  0  0  0  0
    5.5443    0.0990   -0.5048 C   0  0  0  0  0  0  0  0  0  0  0  0
    5.0098    1.3005   -0.1028 C   0  0  0  0  0  0  0  0  0  0  0  0
    5.7902    2.4228    0.0955 C   0  0  0  0  0  0  0  0  0  0  0  0
    7.1611    2.3503   -0.1143 C   0  0  0  0  0  0  0  0  0  0  0  0
    7.6941    1.1442   -0.5174 C   0  0  0  0  0  0  0  0  0  0  0  0
    6.8945    0.0366   -0.7090 C   0  0  0  0  0  0  0  0  0  0  0  0
    2.4945   -0.6324   -1.4999 C   0  0  0  0  0  0  0  0  0  0  0  0
    1.1552   -0.5908   -1.2160 C   0  0  0  0  0  0  0  0  0  0  0  0
   -1.6814   -1.7889    0.6150 C   0  0  0  0  0  0  0  0  0  0  0  0
   -4.0129    0.9317    0.3919 C   0  0  0  0  0  0  0  0  0  0  0  0
   -5.0568    0.4581   -0.6004 C   0  0  0  0  0  0  0  0  0  0  0  0
   -5.9758    1.6818   -0.6704 C   0  0  0  0  0  0  0  0  0  0  0  0
   -5.0932    2.8727   -0.3667 C   0  0  0  0  0  0  0  0  0  0  0  0
   -3.7068    2.3152   -0.0947 C   0  0  0  0  0  0  0  0  0  0  0  0
    0.1660   -3.8046   -0.1551 H   0  0  0  0  0  0  0  0  0  0  0  0
    0.2163   -4.0498    1.6297 H   0  0  0  0  0  0  0  0  0  0  0  0
   -4.7284   -3.9048    1.6093 H   0  0  0  0  0  0  0  0  0  0  0  0
   -1.1914    1.2933   -0.1819 H   0  0  0  0  0  0  0  0  0  0  0  0
    1.2067   -1.4341    2.0381 H   0  0  0  0  0  0  0  0  0  0  0  0
    3.6119   -1.5274    1.5594 H   0  0  0  0  0  0  0  0  0  0  0  0
    3.9499    1.4143    0.0751 H   0  0  0  0  0  0  0  0  0  0  0  0
    5.3744    3.3708    0.4119 H   0  0  0  0  0  0  0  0  0  0  0  0
    7.8051    3.2211    0.0342 H   0  0  0  0  0  0  0  0  0  0  0  0
    8.7739    1.1149   -0.6750 H   0  0  0  0  0  0  0  0  0  0  0  0
    7.3331   -0.8968   -1.0245 H   0  0  0  0  0  0  0  0  0  0  0  0
    2.8970   -0.4080   -2.4925 H   0  0  0  0  0  0  0  0  0  0  0  0
    0.4765   -0.3170   -2.0398 H   0  0  0  0  0  0  0  0  0  0  0  0
   -4.4969    0.9949    1.3760 H   0  0  0  0  0  0  0  0  0  0  0  0
   -4.5802    0.2889   -1.5824 H   0  0  0  0  0  0  0  0  0  0  0  0
   -5.6092   -0.4290   -0.2336 H   0  0  0  0  0  0  0  0  0  0  0  0
   -6.4398    1.7420   -1.6780 H   0  0  0  0  0  0  0  0  0  0  0  0
   -6.7949    1.5937    0.0863 H   0  0  0  0  0  0  0  0  0  0  0  0
   -5.0798    3.5510   -1.2626 H   0  0  0  0  0  0  0  0  0  0  0  0
   -5.4892    3.4534    0.4812 H   0  0  0  0  0  0  0  0  0  0  0  0
   -3.1641    2.9288    0.6419 H   0  0  0  0  0  0  0  0  0  0  0  0
   -3.1897    2.2834   -1.0908 H   0  0  0  0  0  0  0  0  0  0  0  0
  1  2  1  0
  2  3  2  0
  3  4  1  0
  4  5  2  0
  5  6  1  0
  6  7  1  0
  7  8  1  0
  8  9  2  0
  9 10  1  0
 10 11  2  0
 11 12  1  0
 12 13  2  0
 13 14  1  0
 14 15  1  0
 15 16  2  0
 16 17  1  0
 17 18  2  0
 18 19  1  0
 19 20  2  0
 13 21  1  0
 21 22  2  0
  9 23  1  0
  7 24  1  0
 24 25  1  0
 25 26  1  0
 26 27  1  0
 27 28  1  0
 23  2  1  0
 28 24  1  0
 23  6  2  0
 22 10  1  0
 20 15  1  0
  1 29  1  0
  1 30  1  0
  4 31  1  0
  8 32  1  0
 11 33  1  0
 12 34  1  0
 16 35  1  0
 17 36  1  0
 18 37  1  0
 19 38  1  0
 20 39  1  0
 21 40  1  0
 22 41  1  0
 24 42  1  0
 25 43  1  0
 25 44  1  0
 26 45  1  0
 26 46  1  0
 27 47  1  0
 27 48  1  0
 28 49  1  0
 28 50  1  0
M  END
$$$$
[H]c1c([H])c([H])c(N([H])c2nc3c([H])c([H])c(C(=O)N([H])c4c(Cl)c([H])c([H])c([H])c4C([H])([H])[H])c([H])c3s2)c([H])c1[H]
     RDKit          3D

 43 46  0  0  0  0  0  0  0  0999 V2000
   -4.8869   -0.5067   -2.3504 C   0  0  0  0  0  0  0  0  0  0  0  0
   -5.6207   -0.5103   -1.0572 C   0  0  0  0  0  0  0  0  0  0  0  0
   -7.0174   -0.4065   -1.0732 C   0  0  0  0  0  0  0  0  0  0  0  0
   -7.7532   -0.4048    0.1044 C   0  0  0  0  0  0  0  0  0  0  0  0
   -7.0732   -0.5085    1.2994 C   0  0  0  0  0  0  0  0  0  0  0  0
   -5.6770   -0.6122    1.3147 C   0  0  0  0  0  0  0  0  0  0  0  0
   -4.8250   -0.7432    2.8373 Cl  0  0  0  0  0  0  0  0  0  0  0  0
   -4.9532   -0.6133    0.1430 C   0  0  0  0  0  0  0  0  0  0  0  0
   -3.5233   -0.7179    0.1229 N   0  0  0  0  0  0  0  0  0  0  0  0
   -2.7223    0.4486    0.1674 C   0  0  0  0  0  0  0  0  0  0  0  0
   -3.3008    1.5733    0.2248 O   0  0  0  0  0  0  0  0  0  0  0  0
   -1.2771    0.3267    0.1464 C   0  0  0  0  0  0  0  0  0  0  0  0
   -0.5688   -0.8444    0.0854 C   0  0  0  0  0  0  0  0  0  0  0  0
    0.7857   -0.9446    0.0663 C   0  0  0  0  0  0  0  0  0  0  0  0
    1.5774    0.2213    0.1109 C   0  0  0  0  0  0  0  0  0  0  0  0
    2.8734    0.2797    0.0997 N   0  0  0  0  0  0  0  0  0  0  0  0
    3.5122    1.4120    0.1444 C   0  0  0  0  0  0  0  0  0  0  0  0
    4.8980    1.7336    0.1440 N   0  0  0  0  0  0  0  0  0  0  0  0
    5.9337    0.8072    0.0719 C   0  0  0  0  0  0  0  0  0  0  0  0
    7.2349    1.2590    0.3395 C   0  0  0  0  0  0  0  0  0  0  0  0
    8.3372    0.4348    0.2849 C   0  0  0  0  0  0  0  0  0  0  0  0
    8.1901   -0.8908   -0.0423 C   0  0  0  0  0  0  0  0  0  0  0  0
    6.9545   -1.3638   -0.3069 C   0  0  0  0  0  0  0  0  0  0  0  0
    5.8394   -0.5176   -0.2491 C   0  0  0  0  0  0  0  0  0  0  0  0
    2.1855    2.5387    0.2099 S   0  0  0  0  0  0  0  0  0  0  0  0
    0.8962    1.4078    0.1723 C   0  0  0  0  0  0  0  0  0  0  0  0
   -0.5037    1.4866    0.1909 C   0  0  0  0  0  0  0  0  0  0  0  0
   -4.5172    0.5283   -2.5723 H   0  0  0  0  0  0  0  0  0  0  0  0
   -3.9793   -1.1359   -2.2690 H   0  0  0  0  0  0  0  0  0  0  0  0
   -5.5199   -0.8136   -3.1946 H   0  0  0  0  0  0  0  0  0  0  0  0
   -7.5787   -0.3240   -1.9914 H   0  0  0  0  0  0  0  0  0  0  0  0
   -8.8389   -0.3230    0.0662 H   0  0  0  0  0  0  0  0  0  0  0  0
   -7.6572   -0.5059    2.2053 H   0  0  0  0  0  0  0  0  0  0  0  0
   -3.1593   -1.6920    0.0747 H   0  0  0  0  0  0  0  0  0  0  0  0
   -1.1655   -1.7690    0.0497 H   0  0  0  0  0  0  0  0  0  0  0  0
    1.2273   -1.9287    0.0168 H   0  0  0  0  0  0  0  0  0  0  0  0
    5.1589    2.7712    0.1997 H   0  0  0  0  0  0  0  0  0  0  0  0
    7.3696    2.3079    0.6019 H   0  0  0  0  0  0  0  0  0  0  0  0
    9.3149    0.8712    0.5086 H   0  0  0  0  0  0  0  0  0  0  0  0
    9.1002   -1.4765   -0.0650 H   0  0  0  0  0  0  0  0  0  0  0  0
    6.7826   -2.3898   -0.5674 H   0  0  0  0  0  0  0  0  0  0  0  0
    4.8624   -0.9303   -0.4771 H   0  0  0  0  0  0  0  0  0  0  0  0
   -0.9154    2.4655    0.2399 H   0  0  0  0  0  0  0  0  0  0  0  0
  1  2  1  0
  2  3  2  0
  3  4  1  0
  4  5  2  0
  5  6  1  0
  6  7  1  0
  6  8  2  0
  8  9  1  0
  9 10  1  0
 10 11  2  0
 10 12  1  0
 12 13  2  0
 13 14  1  0
 14 15  2  0
 15 16  1  0
 16 17  2  0
 17 18  1  0
 18 19  1  0
 19 20  2  0
 20 21  1  0
 21 22  2  0
 22 23  1  0
 23 24  2  0
 17 25  1  0
 25 26  1  0
 26 27  2  0
  8  2  1  0
 27 12  1  0
 26 15  1  0
 24 19  1  0
  1 28  1  0
  1 29  1  0
  1 30  1  0
  3 31  1  0
  4 32  1  0
  5 33  1  0
  9 34  1  0
 13 35  1  0
 14 36  1  0
 18 37  1  0
 20 38  1  0
 21 39  1  0
 22 40  1  0
 23 41  1  0
 24 42  1  0
 27 43  1  0
M  END
$$$$
[H]c1c([H])c(Cl)c(N([H])c2nc3c([H])c([H])c([H])c([H])c3n3c([H])nc([H])c23)c(C([H])([H])[H])c1[H]
     RDKit          3D

 35 38  0  0  0  0  0  0  0  0999 V2000
    2.6130   -0.2046    1.9799 C   0  0  0  0  0  0  0  0  0  0  0  0
    2.9636   -0.4651    0.5720 C   0  0  0  0  0  0  0  0  0  0  0  0
    3.9506   -1.4134    0.3116 C   0  0  0  0  0  0  0  0  0  0  0  0
    4.3096   -1.6893   -0.9739 C   0  0  0  0  0  0  0  0  0  0  0  0
    3.6892   -1.0242   -2.0014 C   0  0  0  0  0  0  0  0  0  0  0  0
    2.7128   -0.0865   -1.7353 C   0  0  0  0  0  0  0  0  0  0  0  0
    1.9713    0.7166   -3.1035 Cl  0  0  0  0  0  0  0  0  0  0  0  0
    2.3241    0.2180   -0.4444 C   0  0  0  0  0  0  0  0  0  0  0  0
    1.3096    1.1926   -0.1755 N   0  0  0  0  0  0  0  0  0  0  0  0
   -0.0551    0.8509   -0.0840 C   0  0  0  0  0  0  0  0  0  0  0  0
   -0.5111   -0.4062   -0.2401 N   0  0  0  0  0  0  0  0  0  0  0  0
   -1.8082   -0.7432   -0.1551 C   0  0  0  0  0  0  0  0  0  0  0  0
   -2.2446   -2.0542   -0.3222 C   0  0  0  0  0  0  0  0  0  0  0  0
   -3.5858   -2.3650   -0.2281 C   0  0  0  0  0  0  0  0  0  0  0  0
   -4.4943   -1.3435    0.0369 C   0  0  0  0  0  0  0  0  0  0  0  0
   -4.0326   -0.0510    0.1983 C   0  0  0  0  0  0  0  0  0  0  0  0
   -2.6909    0.2818    0.1077 C   0  0  0  0  0  0  0  0  0  0  0  0
   -2.2815    1.5647    0.2731 N   0  0  0  0  0  0  0  0  0  0  0  0
   -2.9985    2.6914    0.5347 C   0  0  0  0  0  0  0  0  0  0  0  0
   -2.0972    3.6774    0.5984 N   0  0  0  0  0  0  0  0  0  0  0  0
   -0.8603    3.2056    0.3878 C   0  0  0  0  0  0  0  0  0  0  0  0
   -0.9736    1.8599    0.1801 C   0  0  0  0  0  0  0  0  0  0  0  0
    3.4559   -0.3981    2.6846 H   0  0  0  0  0  0  0  0  0  0  0  0
    2.3104    0.8484    2.1311 H   0  0  0  0  0  0  0  0  0  0  0  0
    1.7523   -0.8579    2.2703 H   0  0  0  0  0  0  0  0  0  0  0  0
    4.4490   -1.9461    1.1089 H   0  0  0  0  0  0  0  0  0  0  0  0
    5.0690   -2.4162   -1.2198 H   0  0  0  0  0  0  0  0  0  0  0  0
    3.9712   -1.2403   -3.0192 H   0  0  0  0  0  0  0  0  0  0  0  0
    1.5988    2.1825   -0.0450 H   0  0  0  0  0  0  0  0  0  0  0  0
   -1.5393   -2.8454   -0.5276 H   0  0  0  0  0  0  0  0  0  0  0  0
   -3.9624   -3.3722   -0.3520 H   0  0  0  0  0  0  0  0  0  0  0  0
   -5.5595   -1.5726    0.1145 H   0  0  0  0  0  0  0  0  0  0  0  0
   -4.7329    0.7631    0.4069 H   0  0  0  0  0  0  0  0  0  0  0  0
   -4.0678    2.6766    0.6478 H   0  0  0  0  0  0  0  0  0  0  0  0
    0.0451    3.7652    0.3814 H   0  0  0  0  0  0  0  0  0  0  0  0
  1  2  1  0
  2  3  2  0
  3  4  1  0
  4  5  2  0
  5  6  1  0
  6  7  1  0
  6  8  2  0
  8  9  1  0
  9 10  1  0
 10 11  2  0
 11 12  1  0
 12 13  2  0
 13 14  1  0
 14 15  2  0
 15 16  1  0
 16 17  2  0
 17 18  1  0
 18 19  1  0
 19 20  2  0
 20 21  1  0
 21 22  2  0
  8  2  1  0
 22 10  1  0
 17 12  1  0
 22 18  1  0
  1 23  1  0
  1 24  1  0
  1 25  1  0
  3 26  1  0
  4 27  1  0
  5 28  1  0
  9 29  1  0
 13 30  1  0
 14 31  1  0
 15 32  1  0
 16 33  1  0
 19 34  1  0
 21 35  1  0
M  END
$$$$
