[H]c1c([H])c([H])c(Oc2c([H])c([H])c(C3(N4C([H])([H])C([H])([H])N(c5c([H])c([H])c(Cl)c(Cl)c5[H])C([H])([H])C4([H])[H])C(=O)N([H])C(=O)N([H])C3=O)c([H])c2[H])c([H])c1[H]
     RDKit          3D

 58 62  0  0  0  0  0  0  0  0999 V2000
   -8.8781    0.2126    0.1624 Cl  0  0  0  0  0  0  0  0  0  0  0  0
   -7.4056    0.2716    1.1115 C   0  0  0  0  0  0  0  0  0  0  0  0
   -6.1600    0.0270    0.5201 C   0  0  0  0  0  0  0  0  0  0  0  0
   -4.9907    0.0652    1.2338 C   0  0  0  0  0  0  0  0  0  0  0  0
   -5.1278    0.3655    2.5955 C   0  0  0  0  0  0  0  0  0  0  0  0
   -6.3285    0.6053    3.1847 C   0  0  0  0  0  0  0  0  0  0  0  0
   -7.4830    0.5588    2.4376 C   0  0  0  0  0  0  0  0  0  0  0  0
   -9.0269    0.8771    3.2426 Cl  0  0  0  0  0  0  0  0  0  0  0  0
   -3.7208   -0.1702    0.6767 N   0  0  0  0  0  0  0  0  0  0  0  0
   -2.5238   -0.2418    1.4905 C   0  0  0  0  0  0  0  0  0  0  0  0
   -1.4372   -0.9791    0.6776 C   0  0  0  0  0  0  0  0  0  0  0  0
   -1.1248   -0.2536   -0.4928 N   0  0  0  0  0  0  0  0  0  0  0  0
   -2.2377    0.3345   -1.1155 C   0  0  0  0  0  0  0  0  0  0  0  0
   -3.5614   -0.3490   -0.7387 C   0  0  0  0  0  0  0  0  0  0  0  0
    0.0141   -0.5862   -1.2419 C   0  0  0  0  0  0  0  0  0  0  0  0
   -0.0814   -2.0084   -1.7018 C   0  0  0  0  0  0  0  0  0  0  0  0
    0.0986   -2.8911   -0.8253 O   0  0  0  0  0  0  0  0  0  0  0  0
   -0.3520   -2.4104   -3.0138 N   0  0  0  0  0  0  0  0  0  0  0  0
   -0.3322   -1.4613   -4.0440 C   0  0  0  0  0  0  0  0  0  0  0  0
   -0.5784   -1.8454   -5.2161 O   0  0  0  0  0  0  0  0  0  0  0  0
   -0.0343   -0.0998   -3.7247 N   0  0  0  0  0  0  0  0  0  0  0  0
    0.2418    0.3248   -2.4037 C   0  0  0  0  0  0  0  0  0  0  0  0
    0.6814    1.4834   -2.2372 O   0  0  0  0  0  0  0  0  0  0  0  0
    1.2373   -0.4799   -0.4221 C   0  0  0  0  0  0  0  0  0  0  0  0
    2.3466   -1.1920   -0.8748 C   0  0  0  0  0  0  0  0  0  0  0  0
    3.5664   -1.1660   -0.2314 C   0  0  0  0  0  0  0  0  0  0  0  0
    3.7126   -0.4143    0.9017 C   0  0  0  0  0  0  0  0  0  0  0  0
    4.9158   -0.3764    1.5538 O   0  0  0  0  0  0  0  0  0  0  0  0
    5.9039    0.5489    1.2623 C   0  0  0  0  0  0  0  0  0  0  0  0
    5.7194    1.5074    0.2742 C   0  0  0  0  0  0  0  0  0  0  0  0
    6.7265    2.4102    0.0140 C   0  0  0  0  0  0  0  0  0  0  0  0
    7.9075    2.3636    0.7274 C   0  0  0  0  0  0  0  0  0  0  0  0
    8.0959    1.4195    1.7043 C   0  0  0  0  0  0  0  0  0  0  0  0
    7.0922    0.5225    1.9611 C   0  0  0  0  0  0  0  0  0  0  0  0
    2.6313    0.2896    1.3565 C   0  0  0  0  0  0  0  0  0  0  0  0
    1.3993    0.2617    0.7041 C   0  0  0  0  0  0  0  0  0  0  0  0
   -6.1677   -0.1951   -0.5239 H   0  0  0  0  0  0  0  0  0  0  0  0
   -4.2121    0.3987    3.1708 H   0  0  0  0  0  0  0  0  0  0  0  0
   -6.4039    0.8389    4.2579 H   0  0  0  0  0  0  0  0  0  0  0  0
   -2.7282   -0.8743    2.3658 H   0  0  0  0  0  0  0  0  0  0  0  0
   -2.1188    0.7292    1.7726 H   0  0  0  0  0  0  0  0  0  0  0  0
   -1.9751   -1.9517    0.4065 H   0  0  0  0  0  0  0  0  0  0  0  0
   -0.6304   -1.1878    1.3919 H   0  0  0  0  0  0  0  0  0  0  0  0
   -2.1914    0.4193   -2.2164 H   0  0  0  0  0  0  0  0  0  0  0  0
   -2.3502    1.3910   -0.7394 H   0  0  0  0  0  0  0  0  0  0  0  0
   -4.3754    0.0290   -1.3639 H   0  0  0  0  0  0  0  0  0  0  0  0
   -3.4170   -1.4505   -0.9474 H   0  0  0  0  0  0  0  0  0  0  0  0
   -0.5731   -3.4217   -3.2496 H   0  0  0  0  0  0  0  0  0  0  0  0
   -0.0314    0.5709   -4.5243 H   0  0  0  0  0  0  0  0  0  0  0  0
    2.2895   -1.8090   -1.7741 H   0  0  0  0  0  0  0  0  0  0  0  0
    4.4240   -1.7335   -0.6057 H   0  0  0  0  0  0  0  0  0  0  0  0
    4.8053    1.5678   -0.3005 H   0  0  0  0  0  0  0  0  0  0  0  0
    6.5631    3.1427   -0.7537 H   0  0  0  0  0  0  0  0  0  0  0  0
    8.6957    3.0952    0.5003 H   0  0  0  0  0  0  0  0  0  0  0  0
    9.0135    1.3866    2.2555 H   0  0  0  0  0  0  0  0  0  0  0  0
    7.2605   -0.2140    2.7346 H   0  0  0  0  0  0  0  0  0  0  0  0
    2.6675    0.9065    2.2449 H   0  0  0  0  0  0  0  0  0  0  0  0
    0.5495    0.8374    1.0815 H   0  0  0  0  0  0  0  0  0  0  0  0
  1  2  1  0
  2  3  2  0
  3  4  1  0
  4  5  2  0
  5  6  1  0
  6  7  2  0
  7  8  1  0
  4  9  1  0
  9 10  1  0
 10 11  1  0
 11 12  1  0
 12 13  1  0
 13 14  1  0
 12 15  1  0
 15 16  1  0
 16 17  2  0
 16 18  1  0
 18 19  1  0
 19 20  2  0
 19 21  1  0
 21 22  1  0
 22 23  2  0
 15 24  1  0
 24 25  2  0
 25 26  1  0
 26 27  2  0
 27 28  1  0
 28 29  1  0
 29 30  2  0
 30 31  1  0
 31 32  2  0
 32 33  1  0
 33 34  2  0
 27 35  1  0
 35 36  2  0
  7  2  1  0
 14  9  1  0
 22 15  1  0
 36 24  1  0
 34 29  1  0
  3 37  1  0
  5 38  1  0
  6 39  1  0
 10 40  1  0
 10 41  1  0
 11 42  1  0
 11 43  1  0
 13 44  1  0
 13 45  1  0
 14 46  1  0
 14 47  1  0
 18 48  1  0
 21 49  1  0
 25 50  1  0
 26 51  1  0
 30 52  1  0
 31 53  1  0
 32 54  1  0
 33 55  1  0
 34 56  1  0
 35 57  1  0
 36 58  1  0
M  END
$$$$
[H]OC(=O)C(Oc1c([H])c2c([H])c([H])c([H])c([H])c2c2c1c(C(=O)C(=O)N([H])[H])c(C([H])([H])C([H])([H])[H])n2C([H])([H])c1c([H])c([H])c([H])c([H])c1[H])(C([H])([H])[H])C([H])([H])[H]
     RDKit          3D

 60 63  0  0  0  0  0  0  0  0999 V2000
    1.5210    3.1322    1.5445 C   0  0  0  0  0  0  0  0  0  0  0  0
    1.4325    2.8898    0.0597 C   0  0  0  0  0  0  0  0  0  0  0  0
    0.8828    1.5482   -0.3018 C   0  0  0  0  0  0  0  0  0  0  0  0
   -0.4631    1.3069   -0.1237 C   0  0  0  0  0  0  0  0  0  0  0  0
   -1.3999    2.3119    0.3716 C   0  0  0  0  0  0  0  0  0  0  0  0
   -1.5909    2.4766    1.5745 O   0  0  0  0  0  0  0  0  0  0  0  0
   -2.1018    3.1146   -0.6254 C   0  0  0  0  0  0  0  0  0  0  0  0
   -3.0310    4.1100   -0.2003 N   0  0  0  0  0  0  0  0  0  0  0  0
   -1.9306    2.9747   -1.8442 O   0  0  0  0  0  0  0  0  0  0  0  0
   -0.7236    0.0435   -0.5737 C   0  0  0  0  0  0  0  0  0  0  0  0
   -1.9067   -0.6963   -0.6870 C   0  0  0  0  0  0  0  0  0  0  0  0
   -3.0727   -0.1242   -0.1868 O   0  0  0  0  0  0  0  0  0  0  0  0
   -3.7297   -0.4002    0.9905 C   0  0  0  0  0  0  0  0  0  0  0  0
   -4.8007    0.7329    1.1591 C   0  0  0  0  0  0  0  0  0  0  0  0
   -3.0225   -0.5979    2.2479 C   0  0  0  0  0  0  0  0  0  0  0  0
   -4.7147   -1.5693    0.7767 C   0  0  0  0  0  0  0  0  0  0  0  0
   -5.0511   -1.9200   -0.4930 O   0  0  0  0  0  0  0  0  0  0  0  0
   -5.1842   -2.1580    1.7881 O   0  0  0  0  0  0  0  0  0  0  0  0
   -1.8532   -1.9213   -1.2578 C   0  0  0  0  0  0  0  0  0  0  0  0
   -0.6366   -2.4165   -1.7102 C   0  0  0  0  0  0  0  0  0  0  0  0
   -0.6016   -3.6736   -2.2982 C   0  0  0  0  0  0  0  0  0  0  0  0
    0.5647   -4.2222   -2.7721 C   0  0  0  0  0  0  0  0  0  0  0  0
    1.7110   -3.4984   -2.6536 C   0  0  0  0  0  0  0  0  0  0  0  0
    1.7329   -2.2107   -2.0620 C   0  0  0  0  0  0  0  0  0  0  0  0
    0.5541   -1.7032   -1.6048 C   0  0  0  0  0  0  0  0  0  0  0  0
    0.5103   -0.4479   -1.0251 C   0  0  0  0  0  0  0  0  0  0  0  0
    1.4881    0.4614   -0.8586 N   0  0  0  0  0  0  0  0  0  0  0  0
    2.8872    0.4934   -1.1160 C   0  0  0  0  0  0  0  0  0  0  0  0
    3.7728   -0.0459   -0.0593 C   0  0  0  0  0  0  0  0  0  0  0  0
    5.0388   -0.4838   -0.3901 C   0  0  0  0  0  0  0  0  0  0  0  0
    5.8862   -1.0264    0.5839 C   0  0  0  0  0  0  0  0  0  0  0  0
    5.4426   -1.1206    1.8865 C   0  0  0  0  0  0  0  0  0  0  0  0
    4.1796   -0.6888    2.2389 C   0  0  0  0  0  0  0  0  0  0  0  0
    3.3808   -0.1587    1.2308 C   0  0  0  0  0  0  0  0  0  0  0  0
    1.2401    2.2214    2.1300 H   0  0  0  0  0  0  0  0  0  0  0  0
    0.9283    3.9880    1.9069 H   0  0  0  0  0  0  0  0  0  0  0  0
    2.5797    3.3587    1.8572 H   0  0  0  0  0  0  0  0  0  0  0  0
    2.3782    3.1518   -0.3819 H   0  0  0  0  0  0  0  0  0  0  0  0
    0.7159    3.6986   -0.3088 H   0  0  0  0  0  0  0  0  0  0  0  0
   -2.7377    5.0423    0.1674 H   0  0  0  0  0  0  0  0  0  0  0  0
   -4.0392    3.8785   -0.2674 H   0  0  0  0  0  0  0  0  0  0  0  0
   -4.3373    1.6258    1.6134 H   0  0  0  0  0  0  0  0  0  0  0  0
   -5.1842    0.8943    0.1427 H   0  0  0  0  0  0  0  0  0  0  0  0
   -5.5879    0.3931    1.8499 H   0  0  0  0  0  0  0  0  0  0  0  0
   -3.0263   -1.6364    2.6465 H   0  0  0  0  0  0  0  0  0  0  0  0
   -1.9435   -0.3425    2.1312 H   0  0  0  0  0  0  0  0  0  0  0  0
   -3.4362    0.0841    3.0423 H   0  0  0  0  0  0  0  0  0  0  0  0
   -5.3988   -1.2482   -1.1960 H   0  0  0  0  0  0  0  0  0  0  0  0
   -2.6916   -2.5404   -1.3898 H   0  0  0  0  0  0  0  0  0  0  0  0
   -1.5480   -4.2090   -2.3673 H   0  0  0  0  0  0  0  0  0  0  0  0
    0.5361   -5.1942   -3.2169 H   0  0  0  0  0  0  0  0  0  0  0  0
    2.6775   -3.8800   -3.0125 H   0  0  0  0  0  0  0  0  0  0  0  0
    2.6603   -1.7439   -2.0233 H   0  0  0  0  0  0  0  0  0  0  0  0
    3.2286    1.5985   -1.1248 H   0  0  0  0  0  0  0  0  0  0  0  0
    3.2154    0.2693   -2.1562 H   0  0  0  0  0  0  0  0  0  0  0  0
    5.3789   -0.4050   -1.4182 H   0  0  0  0  0  0  0  0  0  0  0  0
    6.8835   -1.3719    0.3280 H   0  0  0  0  0  0  0  0  0  0  0  0
    6.0757   -1.5350    2.6586 H   0  0  0  0  0  0  0  0  0  0  0  0
    3.8508   -0.7718    3.2661 H   0  0  0  0  0  0  0  0  0  0  0  0
    2.4112    0.1615    1.5137 H   0  0  0  0  0  0  0  0  0  0  0  0
  1  2  1  0
  2  3  1  0
  3  4  2  0
  4  5  1  0
  5  6  2  0
  5  7  1  0
  7  8  1  0
  7  9  2  0
  4 10  1  0
 10 11  2  0
 11 12  1  0
 12 13  1  0
 13 14  1  0
 13 15  1  0
 13 16  1  0
 16 17  1  0
 16 18  2  0
 11 19  1  0
 19 20  2  0
 20 21  1  0
 21 22  2  0
 22 23  1  0
 23 24  2  0
 24 25  1  0
 25 26  2  0
 26 27  1  0
 27 28  1  0
 28 29  1  0
 29 30  2  0
 30 31  1  0
 31 32  2  0
 32 33  1  0
 33 34  2  0
 27  3  1  0
 34 29  1  0
 26 10  1  0
 25 20  1  0
  1 35  1  0
  1 36  1  0
  1 37  1  0
  2 38  1  0
  2 39  1  0
  8 40  1  0
  8 41  1  0
 14 42  1  0
 14 43  1  0
 14 44  1  0
 15 45  1  0
 15 46  1  0
 15 47  1  0
 17 48  1  0
 19 49  1  0
 21 50  1  0
 22 51  1  0
 23 52  1  0
 24 53  1  0
 28 54  1  0
 28 55  1  0
 30 56  1  0
 31 57  1  0
 32 58  1  0
 33 59  1  0
 34 60  1  0
M  END
$$$$
[H]OC(=O)C([H])([H])C([H])([H])C1([H])C([H])([H])C([H])([H])N(c2c([H])c([H])c(-c3sc(C(=O)N4C([H])([H])C([H])([H])OC([H])([H])C4([H])[H])nc3[H])c([H])c2[H])C([H])([H])C1([H])[H]
     RDKit          3D

 57 60  0  0  0  0  0  0  0  0999 V2000
    7.3032   -2.5386    0.1652 O   0  0  0  0  0  0  0  0  0  0  0  0
    7.9158   -1.4317   -0.4564 C   0  0  0  0  0  0  0  0  0  0  0  0
    8.2767   -1.6690   -1.6547 O   0  0  0  0  0  0  0  0  0  0  0  0
    8.1164   -0.1513    0.2111 C   0  0  0  0  0  0  0  0  0  0  0  0
    7.4269    1.0479   -0.2729 C   0  0  0  0  0  0  0  0  0  0  0  0
    5.9654    1.1622   -0.2481 C   0  0  0  0  0  0  0  0  0  0  0  0
    5.1995    0.1779   -1.0309 C   0  0  0  0  0  0  0  0  0  0  0  0
    4.2492   -0.6542   -0.1865 C   0  0  0  0  0  0  0  0  0  0  0  0
    3.3403    0.2646    0.4676 N   0  0  0  0  0  0  0  0  0  0  0  0
    3.9673    1.2872    1.2889 C   0  0  0  0  0  0  0  0  0  0  0  0
    5.4533    1.3117    1.1807 C   0  0  0  0  0  0  0  0  0  0  0  0
    1.9319    0.2273    0.3544 C   0  0  0  0  0  0  0  0  0  0  0  0
    1.1615    1.0056    1.2111 C   0  0  0  0  0  0  0  0  0  0  0  0
   -0.2215    1.0049    1.1430 C   0  0  0  0  0  0  0  0  0  0  0  0
   -0.8653    0.2229    0.2133 C   0  0  0  0  0  0  0  0  0  0  0  0
   -0.1396   -0.5457   -0.6354 C   0  0  0  0  0  0  0  0  0  0  0  0
    1.2587   -0.5414   -0.5621 C   0  0  0  0  0  0  0  0  0  0  0  0
   -2.3277    0.1890    0.1214 C   0  0  0  0  0  0  0  0  0  0  0  0
   -3.1170   -0.5181   -0.7459 C   0  0  0  0  0  0  0  0  0  0  0  0
   -4.3988   -0.3907   -0.6361 N   0  0  0  0  0  0  0  0  0  0  0  0
   -4.9261    0.3868    0.2716 C   0  0  0  0  0  0  0  0  0  0  0  0
   -3.5151    1.0098    1.0588 S   0  0  0  0  0  0  0  0  0  0  0  0
   -6.3272    0.6625    0.5540 C   0  0  0  0  0  0  0  0  0  0  0  0
   -6.5574    1.4885    1.5333 O   0  0  0  0  0  0  0  0  0  0  0  0
   -7.4556    0.1659   -0.0785 N   0  0  0  0  0  0  0  0  0  0  0  0
   -7.4677   -0.7560   -1.1758 C   0  0  0  0  0  0  0  0  0  0  0  0
   -8.5266   -1.8219   -0.8778 C   0  0  0  0  0  0  0  0  0  0  0  0
   -9.7505   -1.2076   -0.8288 O   0  0  0  0  0  0  0  0  0  0  0  0
   -9.7955   -0.4945    0.3836 C   0  0  0  0  0  0  0  0  0  0  0  0
   -8.7776    0.6170    0.3883 C   0  0  0  0  0  0  0  0  0  0  0  0
    6.4408   -2.9080   -0.2101 H   0  0  0  0  0  0  0  0  0  0  0  0
    7.9931   -0.3280    1.3152 H   0  0  0  0  0  0  0  0  0  0  0  0
    9.2370    0.0626    0.1278 H   0  0  0  0  0  0  0  0  0  0  0  0
    7.7535    1.2240   -1.3605 H   0  0  0  0  0  0  0  0  0  0  0  0
    7.8524    1.9856    0.2282 H   0  0  0  0  0  0  0  0  0  0  0  0
    5.7331    2.1937   -0.7014 H   0  0  0  0  0  0  0  0  0  0  0  0
    4.4845    0.7109   -1.7567 H   0  0  0  0  0  0  0  0  0  0  0  0
    5.7741   -0.4748   -1.6999 H   0  0  0  0  0  0  0  0  0  0  0  0
    4.7803   -1.2418    0.6044 H   0  0  0  0  0  0  0  0  0  0  0  0
    3.7049   -1.3219   -0.8614 H   0  0  0  0  0  0  0  0  0  0  0  0
    3.7045    1.0133    2.3503 H   0  0  0  0  0  0  0  0  0  0  0  0
    3.5034    2.2839    1.1399 H   0  0  0  0  0  0  0  0  0  0  0  0
    5.8047    2.3095    1.5347 H   0  0  0  0  0  0  0  0  0  0  0  0
    5.8843    0.5758    1.8788 H   0  0  0  0  0  0  0  0  0  0  0  0
    1.6781    1.6170    1.9382 H   0  0  0  0  0  0  0  0  0  0  0  0
   -0.8120    1.6121    1.8135 H   0  0  0  0  0  0  0  0  0  0  0  0
   -0.6347   -1.1622   -1.3681 H   0  0  0  0  0  0  0  0  0  0  0  0
    1.7665   -1.1607   -1.2530 H   0  0  0  0  0  0  0  0  0  0  0  0
   -2.6507   -1.1734   -1.5110 H   0  0  0  0  0  0  0  0  0  0  0  0
   -7.8558   -0.2386   -2.0980 H   0  0  0  0  0  0  0  0  0  0  0  0
   -6.5424   -1.2965   -1.3686 H   0  0  0  0  0  0  0  0  0  0  0  0
   -8.5264   -2.5593   -1.7191 H   0  0  0  0  0  0  0  0  0  0  0  0
   -8.2332   -2.3683    0.0161 H   0  0  0  0  0  0  0  0  0  0  0  0
  -10.7946   -0.0255    0.4817 H   0  0  0  0  0  0  0  0  0  0  0  0
   -9.6097   -1.2430    1.1862 H   0  0  0  0  0  0  0  0  0  0  0  0
   -8.7040    0.9743    1.4440 H   0  0  0  0  0  0  0  0  0  0  0  0
   -9.1286    1.4283   -0.2500 H   0  0  0  0  0  0  0  0  0  0  0  0
  1  2  1  0
  2  3  2  0
  2  4  1  0
  4  5  1  0
  5  6  1  0
  6  7  1  0
  7  8  1  0
  8  9  1  0
  9 10  1  0
 10 11  1  0
  9 12  1  0
 12 13  2  0
 13 14  1  0
 14 15  2  0
 15 16  1  0
 16 17  2  0
 15 18  1  0
 18 19  2  0
 19 20  1  0
 20 21  2  0
 21 22  1  0
 21 23  1  0
 23 24  2  0
 23 25  1  0
 25 26  1  0
 26 27  1  0
 27 28  1  0
 28 29  1  0
 29 30  1  0
 11  6  1  0
 17 12  1  0
 22 18  1  0
 30 25  1  0
  1 31  1  0
  4 32  1  0
  4 33  1  0
  5 34  1  0
  5 35  1  0
  6 36  1  0
  7 37  1  0
  7 38  1  0
  8 39  1  0
  8 40  1  0
 10 41  1  0
 10 42  1  0
 11 43  1  0
 11 44  1  0
 13 45  1  0
 14 46  1  0
 16 47  1  0
 17 48  1  0
 19 49  1  0
 26 50  1  0
 26 51  1  0
 27 52  1  0
 27 53  1  0
 29 54  1  0
 29 55  1  0
 30 56  1  0
 30 57  1  0
M  END
$$$$
[H]C1=C2C([H])([H])C([H])([H])[C@@]3([H])[C@]4([H])C([H])([H])[C@]([H])(C([H])([H])[H])C([H])([H])C([H])([H])[C@@]4([H])[C@@]3([H])[C@]2(C([H])([H])[H])C([H])([H])C([H])([H])C1=O
     RDKit          3D

 45 48  0  0  0  0  0  0  0  0999 V2000
    4.2730    1.0815    0.5549 C   0  0  0  0  0  0  0  0  0  0  0  0
    3.5344    0.0995   -0.3266 C   0  0  2  0  0  0  0  0  0  0  0  0
    2.6928    0.7114   -1.3764 C   0  0  0  0  0  0  0  0  0  0  0  0
    1.2955    1.1599   -0.9610 C   0  0  0  0  0  0  0  0  0  0  0  0
    1.0111    0.5254    0.3268 C   0  0  1  0  0  0  0  0  0  0  0  0
   -0.2400    0.0376    0.8605 C   0  0  2  0  0  0  0  0  0  0  0  0
    0.2862   -1.3540    0.8517 C   0  0  1  0  0  0  0  0  0  0  0  0
   -0.5036   -2.3999    0.1335 C   0  0  0  0  0  0  0  0  0  0  0  0
   -1.2394   -1.8702   -1.0867 C   0  0  0  0  0  0  0  0  0  0  0  0
   -2.0980   -0.7569   -0.5854 C   0  0  0  0  0  0  0  0  0  0  0  0
   -3.3676   -0.7414   -0.9240 C   0  0  0  0  0  0  0  0  0  0  0  0
   -4.2731    0.3331   -0.4579 C   0  0  0  0  0  0  0  0  0  0  0  0
   -5.1778    0.7047   -1.1955 O   0  0  0  0  0  0  0  0  0  0  0  0
   -3.9627    0.8533    0.9056 C   0  0  0  0  0  0  0  0  0  0  0  0
   -2.6166    0.4213    1.4109 C   0  0  0  0  0  0  0  0  0  0  0  0
   -1.5728    0.3059    0.2781 C   0  0  1  0  0  0  0  0  0  0  0  0
   -1.5796    1.6851   -0.3459 C   0  0  0  0  0  0  0  0  0  0  0  0
    1.4344   -0.9360    0.0599 C   0  0  2  0  0  0  0  0  0  0  0  0
    2.8401   -0.9973    0.4947 C   0  0  0  0  0  0  0  0  0  0  0  0
    5.3153    1.2381    0.2665 H   0  0  0  0  0  0  0  0  0  0  0  0
    4.2639    0.7043    1.5997 H   0  0  0  0  0  0  0  0  0  0  0  0
    3.7669    2.0814    0.4953 H   0  0  0  0  0  0  0  0  0  0  0  0
    4.3576   -0.4552   -0.8727 H   0  0  0  0  0  0  0  0  0  0  0  0
    3.2454    1.6040   -1.7508 H   0  0  0  0  0  0  0  0  0  0  0  0
    2.6649    0.0205   -2.2671 H   0  0  0  0  0  0  0  0  0  0  0  0
    1.2214    2.2423   -1.0446 H   0  0  0  0  0  0  0  0  0  0  0  0
    0.6119    0.7031   -1.7359 H   0  0  0  0  0  0  0  0  0  0  0  0
    1.6680    1.0335    1.1055 H   0  0  0  0  0  0  0  0  0  0  0  0
   -0.3086    0.3313    1.9694 H   0  0  0  0  0  0  0  0  0  0  0  0
    0.6082   -1.7862    1.8361 H   0  0  0  0  0  0  0  0  0  0  0  0
    0.2210   -3.1511   -0.2550 H   0  0  0  0  0  0  0  0  0  0  0  0
   -1.2162   -2.9512    0.7625 H   0  0  0  0  0  0  0  0  0  0  0  0
   -0.5729   -1.5743   -1.9057 H   0  0  0  0  0  0  0  0  0  0  0  0
   -1.8424   -2.7203   -1.4659 H   0  0  0  0  0  0  0  0  0  0  0  0
   -3.7790   -1.5355   -1.5670 H   0  0  0  0  0  0  0  0  0  0  0  0
   -4.1654    1.9266    1.0217 H   0  0  0  0  0  0  0  0  0  0  0  0
   -4.7173    0.3456    1.5787 H   0  0  0  0  0  0  0  0  0  0  0  0
   -2.6348   -0.4875    2.0222 H   0  0  0  0  0  0  0  0  0  0  0  0
   -2.2299    1.2382    2.0580 H   0  0  0  0  0  0  0  0  0  0  0  0
   -2.5188    2.2735   -0.1129 H   0  0  0  0  0  0  0  0  0  0  0  0
   -1.5153    1.7063   -1.4294 H   0  0  0  0  0  0  0  0  0  0  0  0
   -0.8058    2.3186    0.1837 H   0  0  0  0  0  0  0  0  0  0  0  0
    1.3751   -1.2465   -1.0050 H   0  0  0  0  0  0  0  0  0  0  0  0
    3.0033   -0.7318    1.5661 H   0  0  0  0  0  0  0  0  0  0  0  0
    3.2472   -1.9911    0.3290 H   0  0  0  0  0  0  0  0  0  0  0  0
  1  2  1  0
  2  3  1  0
  3  4  1  0
  4  5  1  0
  5  6  1  0
  6  7  1  0
  7  8  1  0
  8  9  1  0
  9 10  1  0
 10 11  2  0
 11 12  1  0
 12 13  2  0
 12 14  1  0
 14 15  1  0
 15 16  1  0
 16 17  1  6
  7 18  1  0
 18 19  1  0
 19  2  1  0
 18  5  1  0
 16  6  1  0
 16 10  1  0
  1 20  1  0
  1 21  1  0
  1 22  1  0
  2 23  1  6
  3 24  1  0
  3 25  1  0
  4 26  1  0
  4 27  1  0
  5 28  1  1
  6 29  1  1
  7 30  1  1
  8 31  1  0
  8 32  1  0
  9 33  1  0
  9 34  1  0
 11 35  1  0
 14 36  1  0
 14 37  1  0
 15 38  1  0
 15 39  1  0
 17 40  1  0
 17 41  1  0
 17 42  1  0
 18 43  1  6
 19 44  1  0
 19 45  1  0
M  END
$$$$
[H]OC(=O)[C@@]([H])(N([H])C(=O)[C@]([H])(N([H])[H])C([H])([H])[H])C([H])([H])c1c([H])c([H])c(O[H])c([H])c1[H]
     RDKit          3D

 34 34  0  0  0  0  0  0  0  0999 V2000
    4.8368    1.3463   -0.8156 C   0  0  0  0  0  0  0  0  0  0  0  0
    3.9877    0.1356   -0.4815 C   0  0  1  0  0  0  0  0  0  0  0  0
    4.1622   -0.1857    0.9394 N   0  0  0  0  0  0  0  0  0  0  0  0
    2.5578    0.3695   -0.7829 C   0  0  0  0  0  0  0  0  0  0  0  0
    2.2416    0.6538   -1.9652 O   0  0  0  0  0  0  0  0  0  0  0  0
    1.6094    0.2655    0.2596 N   0  0  0  0  0  0  0  0  0  0  0  0
    0.1665    0.4860    0.0295 C   0  0  1  0  0  0  0  0  0  0  0  0
   -0.4945   -0.8202    0.2671 C   0  0  0  0  0  0  0  0  0  0  0  0
   -1.9456   -0.8788    0.1037 C   0  0  0  0  0  0  0  0  0  0  0  0
   -2.5533   -1.1436   -1.1153 C   0  0  0  0  0  0  0  0  0  0  0  0
   -3.9173   -1.1934   -1.1686 C   0  0  0  0  0  0  0  0  0  0  0  0
   -4.7221   -0.9941   -0.0735 C   0  0  0  0  0  0  0  0  0  0  0  0
   -6.1161   -1.0453   -0.1299 O   0  0  0  0  0  0  0  0  0  0  0  0
   -4.1113   -0.7319    1.1320 C   0  0  0  0  0  0  0  0  0  0  0  0
   -2.7453   -0.6762    1.2144 C   0  0  0  0  0  0  0  0  0  0  0  0
   -0.2768    1.6146    0.8423 C   0  0  0  0  0  0  0  0  0  0  0  0
    0.5472    2.1920    1.6060 O   0  0  0  0  0  0  0  0  0  0  0  0
   -1.5856    2.1183    0.8352 O   0  0  0  0  0  0  0  0  0  0  0  0
    4.9478    2.0144    0.0683 H   0  0  0  0  0  0  0  0  0  0  0  0
    5.8123    0.9888   -1.1661 H   0  0  0  0  0  0  0  0  0  0  0  0
    4.3576    1.9401   -1.6058 H   0  0  0  0  0  0  0  0  0  0  0  0
    4.3478   -0.7138   -1.1049 H   0  0  0  0  0  0  0  0  0  0  0  0
    5.1299    0.0718    1.2074 H   0  0  0  0  0  0  0  0  0  0  0  0
    4.0222   -1.2043    1.1132 H   0  0  0  0  0  0  0  0  0  0  0  0
    1.9291    0.0282    1.2146 H   0  0  0  0  0  0  0  0  0  0  0  0
    0.0829    0.7258   -1.0625 H   0  0  0  0  0  0  0  0  0  0  0  0
   -0.0207   -1.5952   -0.3750 H   0  0  0  0  0  0  0  0  0  0  0  0
   -0.2577   -1.1431    1.3249 H   0  0  0  0  0  0  0  0  0  0  0  0
   -1.9095   -1.3000   -1.9766 H   0  0  0  0  0  0  0  0  0  0  0  0
   -4.3841   -1.4009   -2.1255 H   0  0  0  0  0  0  0  0  0  0  0  0
   -6.6199   -1.2303   -0.9705 H   0  0  0  0  0  0  0  0  0  0  0  0
   -4.7386   -0.5690    2.0231 H   0  0  0  0  0  0  0  0  0  0  0  0
   -2.2975   -0.4633    2.2003 H   0  0  0  0  0  0  0  0  0  0  0  0
   -2.0429    2.3383   -0.0609 H   0  0  0  0  0  0  0  0  0  0  0  0
  1  2  1  0
  2  3  1  0
  2  4  1  0
  4  5  2  0
  4  6  1  0
  6  7  1  0
  7  8  1  0
  8  9  1  0
  9 10  2  0
 10 11  1  0
 11 12  2  0
 12 13  1  0
 12 14  1  0
 14 15  2  0
  7 16  1  0
 16 17  2  0
 16 18  1  0
 15  9  1  0
  1 19  1  0
  1 20  1  0
  1 21  1  0
  2 22  1  6
  3 23  1  0
  3 24  1  0
  6 25  1  0
  7 26  1  6
  8 27  1  0
  8 28  1  0
 10 29  1  0
 11 30  1  0
 13 31  1  0
 14 32  1  0
 15 33  1  0
 18 34  1  0
M  END
$$$$
[H]c1nc(C(=O)N([H])c2c([H])c([H])c([H])c([H])c2C([H])([H])N([H])[H])c([H])c(-c2c([H])c([H])nc(N([H])C(=O)C([H])([H])c3c([H])c([H])c(N4C([H])([H])C([H])([H])C([H])([H])C([H])([H])C4([H])[H])c([H])c3[H])c2[H])c1[H]
     RDKit          3D

 71 75  0  0  0  0  0  0  0  0999 V2000
  -11.7383    0.8467    0.1231 N   0  0  0  0  0  0  0  0  0  0  0  0
  -10.3234    0.6169   -0.0176 C   0  0  0  0  0  0  0  0  0  0  0  0
   -9.8601    1.1320   -1.3299 C   0  0  0  0  0  0  0  0  0  0  0  0
  -10.7158    1.7221   -2.2012 C   0  0  0  0  0  0  0  0  0  0  0  0
  -10.2956    2.2105   -3.4261 C   0  0  0  0  0  0  0  0  0  0  0  0
   -8.9699    2.0772   -3.7355 C   0  0  0  0  0  0  0  0  0  0  0  0
   -8.0537    1.4767   -2.8696 C   0  0  0  0  0  0  0  0  0  0  0  0
   -8.4996    1.0055   -1.6699 C   0  0  0  0  0  0  0  0  0  0  0  0
   -7.6237    0.3769   -0.7648 N   0  0  0  0  0  0  0  0  0  0  0  0
   -6.2373    0.1761   -0.8490 C   0  0  0  0  0  0  0  0  0  0  0  0
   -5.5547    0.5640   -1.8071 O   0  0  0  0  0  0  0  0  0  0  0  0
   -5.5697   -0.5450    0.2852 C   0  0  0  0  0  0  0  0  0  0  0  0
   -4.1888   -0.7004    0.2228 C   0  0  0  0  0  0  0  0  0  0  0  0
   -3.5584   -1.3674    1.2445 C   0  0  0  0  0  0  0  0  0  0  0  0
   -4.3121   -1.8517    2.2813 C   0  0  0  0  0  0  0  0  0  0  0  0
   -5.7043   -1.6753    2.3099 C   0  0  0  0  0  0  0  0  0  0  0  0
   -6.2934   -1.0222    1.3032 N   0  0  0  0  0  0  0  0  0  0  0  0
   -2.1252   -1.5402    1.2188 C   0  0  0  0  0  0  0  0  0  0  0  0
   -1.5243   -2.6717    1.7851 C   0  0  0  0  0  0  0  0  0  0  0  0
   -0.1513   -2.8116    1.7701 C   0  0  0  0  0  0  0  0  0  0  0  0
    0.6050   -1.8541    1.2082 N   0  0  0  0  0  0  0  0  0  0  0  0
    0.1144   -0.7488    0.6482 C   0  0  0  0  0  0  0  0  0  0  0  0
    0.9440    0.2605    0.0759 N   0  0  0  0  0  0  0  0  0  0  0  0
    2.3422    0.2363    0.0488 C   0  0  0  0  0  0  0  0  0  0  0  0
    2.9399    1.2218   -0.4993 O   0  0  0  0  0  0  0  0  0  0  0  0
    3.1563   -0.8619    0.6186 C   0  0  0  0  0  0  0  0  0  0  0  0
    4.6052   -0.5559    0.4613 C   0  0  0  0  0  0  0  0  0  0  0  0
    5.2354    0.1223    1.4844 C   0  0  0  0  0  0  0  0  0  0  0  0
    6.5689    0.4017    1.3413 C   0  0  0  0  0  0  0  0  0  0  0  0
    7.3246    0.0411    0.2234 C   0  0  0  0  0  0  0  0  0  0  0  0
    6.6435   -0.6382   -0.7746 C   0  0  0  0  0  0  0  0  0  0  0  0
    5.2970   -0.9354   -0.6606 C   0  0  0  0  0  0  0  0  0  0  0  0
    8.7022    0.3543    0.1284 N   0  0  0  0  0  0  0  0  0  0  0  0
    9.4071    0.0175   -1.0715 C   0  0  0  0  0  0  0  0  0  0  0  0
   10.7372    0.6964   -1.2363 C   0  0  0  0  0  0  0  0  0  0  0  0
   11.5012    0.4343    0.0566 C   0  0  0  0  0  0  0  0  0  0  0  0
   10.8048    1.2095    1.1273 C   0  0  0  0  0  0  0  0  0  0  0  0
    9.3396    0.9936    1.2394 C   0  0  0  0  0  0  0  0  0  0  0  0
   -1.2703   -0.6128    0.6658 C   0  0  0  0  0  0  0  0  0  0  0  0
  -12.2428    0.1188   -0.4189 H   0  0  0  0  0  0  0  0  0  0  0  0
  -12.0129    0.8763    1.1276 H   0  0  0  0  0  0  0  0  0  0  0  0
  -10.0636   -0.4657    0.0887 H   0  0  0  0  0  0  0  0  0  0  0  0
   -9.7830    1.1509    0.8111 H   0  0  0  0  0  0  0  0  0  0  0  0
  -11.7851    1.8381   -1.9669 H   0  0  0  0  0  0  0  0  0  0  0  0
  -10.9920    2.6885   -4.1299 H   0  0  0  0  0  0  0  0  0  0  0  0
   -8.6156    2.4516   -4.6922 H   0  0  0  0  0  0  0  0  0  0  0  0
   -7.0439    1.4302   -3.2279 H   0  0  0  0  0  0  0  0  0  0  0  0
   -8.0797   -0.0109    0.1283 H   0  0  0  0  0  0  0  0  0  0  0  0
   -3.6538   -0.2852   -0.6391 H   0  0  0  0  0  0  0  0  0  0  0  0
   -3.8675   -2.3837    3.1078 H   0  0  0  0  0  0  0  0  0  0  0  0
   -6.2949   -2.0585    3.1296 H   0  0  0  0  0  0  0  0  0  0  0  0
   -2.2038   -3.3841    2.2120 H   0  0  0  0  0  0  0  0  0  0  0  0
    0.2688   -3.7039    2.2208 H   0  0  0  0  0  0  0  0  0  0  0  0
    0.4423    1.1004   -0.3628 H   0  0  0  0  0  0  0  0  0  0  0  0
    2.9245   -0.9425    1.7204 H   0  0  0  0  0  0  0  0  0  0  0  0
    2.9176   -1.8260    0.1545 H   0  0  0  0  0  0  0  0  0  0  0  0
    4.6726    0.4244    2.3821 H   0  0  0  0  0  0  0  0  0  0  0  0
    7.0952    0.9263    2.1114 H   0  0  0  0  0  0  0  0  0  0  0  0
    7.1771   -0.9506   -1.6801 H   0  0  0  0  0  0  0  0  0  0  0  0
    4.8055   -1.4650   -1.4610 H   0  0  0  0  0  0  0  0  0  0  0  0
    9.5376   -1.0879   -1.1297 H   0  0  0  0  0  0  0  0  0  0  0  0
    8.8002    0.3193   -1.9799 H   0  0  0  0  0  0  0  0  0  0  0  0
   10.5803    1.7953   -1.3310 H   0  0  0  0  0  0  0  0  0  0  0  0
   11.2249    0.2690   -2.1170 H   0  0  0  0  0  0  0  0  0  0  0  0
   11.4857   -0.6579    0.2816 H   0  0  0  0  0  0  0  0  0  0  0  0
   12.5263    0.8334   -0.0828 H   0  0  0  0  0  0  0  0  0  0  0  0
   10.9597    2.3024    0.8812 H   0  0  0  0  0  0  0  0  0  0  0  0
   11.3330    1.0975    2.1198 H   0  0  0  0  0  0  0  0  0  0  0  0
    9.0678    0.4101    2.1648 H   0  0  0  0  0  0  0  0  0  0  0  0
    8.7944    1.9732    1.4041 H   0  0  0  0  0  0  0  0  0  0  0  0
   -1.6735    0.2810    0.2152 H   0  0  0  0  0  0  0  0  0  0  0  0
  1  2  1  0
  2  3  1  0
  3  4  2  0
  4  5  1  0
  5  6  2  0
  6  7  1  0
  7  8  2  0
  8  9  1  0
  9 10  1  0
 10 11  2  0
 10 12  1  0
 12 13  2  0
 13 14  1  0
 14 15  2  0
 15 16  1  0
 16 17  2  0
 14 18  1  0
 18 19  2  0
 19 20  1  0
 20 21  2  0
 21 22  1  0
 22 23  1  0
 23 24  1  0
 24 25  2  0
 24 26  1  0
 26 27  1  0
 27 28  2  0
 28 29  1  0
 29 30  2  0
 30 31  1  0
 31 32  2  0
 30 33  1  0
 33 34  1  0
 34 35  1  0
 35 36  1  0
 36 37  1  0
 37 38  1  0
 22 39  2  0
  8  3  1  0
 17 12  1  0
 39 18  1  0
 32 27  1  0
 38 33  1  0
  1 40  1  0
  1 41  1  0
  2 42  1  0
  2 43  1  0
  4 44  1  0
  5 45  1  0
  6 46  1  0
  7 47  1  0
  9 48  1  0
 13 49  1  0
 15 50  1  0
 16 51  1  0
 19 52  1  0
 20 53  1  0
 23 54  1  0
 26 55  1  0
 26 56  1  0
 28 57  1  0
 29 58  1  0
 31 59  1  0
 32 60  1  0
 34 61  1  0
 34 62  1  0
 35 63  1  0
 35 64  1  0
 36 65  1  0
 36 66  1  0
 37 67  1  0
 37 68  1  0
 38 69  1  0
 38 70  1  0
 39 71  1  0
M  END
$$$$
[H]ON([H])C(=O)[C@@]([H])(O[H])[C@]([H])(C(=O)N([H])[C@]([H])(C(=O)N([H])C([H])([H])[H])C([H])([H])c1c([H])n([H])c2c([H])c([H])c([H])c([H])c12)C([H])([H])C([H])(C([H])([H])[H])C([H])([H])[H]
     RDKit          3D

 57 58  0  0  0  0  0  0  0  0999 V2000
    2.8456    0.3056   -4.0864 C   0  0  0  0  0  0  0  0  0  0  0  0
    2.5898    0.1347   -2.6451 N   0  0  0  0  0  0  0  0  0  0  0  0
    1.2942    0.1946   -2.1380 C   0  0  0  0  0  0  0  0  0  0  0  0
    0.3526    0.4109   -2.9759 O   0  0  0  0  0  0  0  0  0  0  0  0
    0.8827    0.0369   -0.7188 C   0  0  2  0  0  0  0  0  0  0  0  0
    1.0733   -1.3411   -0.1747 C   0  0  0  0  0  0  0  0  0  0  0  0
    2.4467   -1.8659   -0.1836 C   0  0  0  0  0  0  0  0  0  0  0  0
    2.9478   -2.8477   -1.0348 C   0  0  0  0  0  0  0  0  0  0  0  0
    4.2551   -3.0686   -0.7059 N   0  0  0  0  0  0  0  0  0  0  0  0
    4.6148   -2.2878    0.3015 C   0  0  0  0  0  0  0  0  0  0  0  0
    5.8137   -2.1578    0.9652 C   0  0  0  0  0  0  0  0  0  0  0  0
    5.9333   -1.2560    1.9997 C   0  0  0  0  0  0  0  0  0  0  0  0
    4.8398   -0.4982    2.3488 C   0  0  0  0  0  0  0  0  0  0  0  0
    3.6344   -0.6251    1.6856 C   0  0  0  0  0  0  0  0  0  0  0  0
    3.4990   -1.5304    0.6405 C   0  0  0  0  0  0  0  0  0  0  0  0
   -0.5568    0.3446   -0.5915 N   0  0  0  0  0  0  0  0  0  0  0  0
   -1.0341    1.4683    0.1123 C   0  0  0  0  0  0  0  0  0  0  0  0
   -0.1792    2.2411    0.6668 O   0  0  0  0  0  0  0  0  0  0  0  0
   -2.4517    1.8330    0.2556 C   0  0  2  0  0  0  0  0  0  0  0  0
   -3.2863    0.8218    0.9263 C   0  0  0  0  0  0  0  0  0  0  0  0
   -2.9715    0.4186    2.3233 C   0  0  0  0  0  0  0  0  0  0  0  0
   -1.6585   -0.2178    2.6055 C   0  0  0  0  0  0  0  0  0  0  0  0
   -4.0385   -0.5976    2.7962 C   0  0  0  0  0  0  0  0  0  0  0  0
   -2.9209    2.0115   -1.2214 C   0  0  2  0  0  0  0  0  0  0  0  0
   -2.0798    3.0663   -1.7277 O   0  0  0  0  0  0  0  0  0  0  0  0
   -4.3150    2.3895   -1.3578 C   0  0  0  0  0  0  0  0  0  0  0  0
   -4.6238    3.6005   -1.5504 O   0  0  0  0  0  0  0  0  0  0  0  0
   -5.3625    1.4523   -1.2905 N   0  0  0  0  0  0  0  0  0  0  0  0
   -6.6675    1.7992   -1.4187 O   0  0  0  0  0  0  0  0  0  0  0  0
    3.7174    0.9695   -4.2557 H   0  0  0  0  0  0  0  0  0  0  0  0
    1.9540    0.8249   -4.4918 H   0  0  0  0  0  0  0  0  0  0  0  0
    2.9183   -0.6683   -4.5941 H   0  0  0  0  0  0  0  0  0  0  0  0
    3.4697   -0.0133   -2.0874 H   0  0  0  0  0  0  0  0  0  0  0  0
    1.4051    0.7820   -0.0944 H   0  0  0  0  0  0  0  0  0  0  0  0
    0.3720   -2.0525   -0.7041 H   0  0  0  0  0  0  0  0  0  0  0  0
    0.6638   -1.3441    0.8805 H   0  0  0  0  0  0  0  0  0  0  0  0
    2.4656   -3.3819   -1.8269 H   0  0  0  0  0  0  0  0  0  0  0  0
    4.8989   -3.7585   -1.1771 H   0  0  0  0  0  0  0  0  0  0  0  0
    6.6869   -2.7631    0.6857 H   0  0  0  0  0  0  0  0  0  0  0  0
    6.8920   -1.1880    2.4915 H   0  0  0  0  0  0  0  0  0  0  0  0
    4.9613    0.1959    3.1584 H   0  0  0  0  0  0  0  0  0  0  0  0
    2.7714   -0.0282    1.9600 H   0  0  0  0  0  0  0  0  0  0  0  0
   -1.2245   -0.3063   -1.0461 H   0  0  0  0  0  0  0  0  0  0  0  0
   -2.5601    2.8461    0.7449 H   0  0  0  0  0  0  0  0  0  0  0  0
   -4.3858    1.1744    0.9516 H   0  0  0  0  0  0  0  0  0  0  0  0
   -3.3795   -0.1337    0.3374 H   0  0  0  0  0  0  0  0  0  0  0  0
   -3.0950    1.3094    3.0131 H   0  0  0  0  0  0  0  0  0  0  0  0
   -1.7216   -0.8245    3.5853 H   0  0  0  0  0  0  0  0  0  0  0  0
   -1.4927   -1.0371    1.8605 H   0  0  0  0  0  0  0  0  0  0  0  0
   -0.7852    0.4227    2.6517 H   0  0  0  0  0  0  0  0  0  0  0  0
   -4.3566   -1.1250    1.8897 H   0  0  0  0  0  0  0  0  0  0  0  0
   -4.8913   -0.0469    3.2016 H   0  0  0  0  0  0  0  0  0  0  0  0
   -3.6029   -1.3347    3.4880 H   0  0  0  0  0  0  0  0  0  0  0  0
   -2.5983    1.1053   -1.7543 H   0  0  0  0  0  0  0  0  0  0  0  0
   -1.7744    3.6323   -0.9767 H   0  0  0  0  0  0  0  0  0  0  0  0
   -5.1687    0.4428   -1.1456 H   0  0  0  0  0  0  0  0  0  0  0  0
   -7.0165    2.0653   -0.5518 H   0  0  0  0  0  0  0  0  0  0  0  0
  1  2  1  0
  2  3  1  0
  3  4  2  0
  3  5  1  0
  5  6  1  0
  6  7  1  0
  7  8  2  0
  8  9  1  0
  9 10  1  0
 10 11  2  0
 11 12  1  0
 12 13  2  0
 13 14  1  0
 14 15  2  0
  5 16  1  0
 16 17  1  0
 17 18  2  0
 17 19  1  0
 19 20  1  0
 20 21  1  0
 21 22  1  0
 21 23  1  0
 19 24  1  0
 24 25  1  0
 24 26  1  0
 26 27  2  0
 26 28  1  0
 28 29  1  0
 15  7  1  0
 15 10  1  0
  1 30  1  0
  1 31  1  0
  1 32  1  0
  2 33  1  0
  5 34  1  1
  6 35  1  0
  6 36  1  0
  8 37  1  0
  9 38  1  0
 11 39  1  0
 12 40  1  0
 13 41  1  0
 14 42  1  0
 16 43  1  0
 19 44  1  1
 20 45  1  0
 20 46  1  0
 21 47  1  0
 22 48  1  0
 22 49  1  0
 22 50  1  0
 23 51  1  0
 23 52  1  0
 23 53  1  0
 24 54  1  6
 25 55  1  0
 28 56  1  0
 29 57  1  0
M  END
$$$$
[H]N=C(N([H])[H])N([H])C([H])([H])C([H])([H])C([H])([H])[C@@]([H])(C(=O)N([H])[C@]([H])(C(=O)O[H])C([H])([H])c1c([H])n([H])c2c([H])c([H])c([H])c([H])c12)N([H])C(=O)[C@@]([H])(N([H])C(=O)[C@@]([H])(N([H])C(=O)[C@@]([H])(N([H])[H])C([H])([H])c1c([H])c([H])c(O[H])c([H])c1[H])[C@@]([H])(C([H])([H])[H])C([H])([H])C([H])([H])[H])C([H])([H])c1c([H])c([H])c([H])c([H])c1[H]
     RDKit          3D

110113  0  0  0  0  0  0  0  0999 V2000
    4.2569   -3.1061    2.0734 C   0  0  0  0  0  0  0  0  0  0  0  0
    4.5058   -1.7976    1.3051 C   0  0  0  0  0  0  0  0  0  0  0  0
    4.4371   -2.0872   -0.1569 C   0  0  2  0  0  0  0  0  0  0  0  0
    5.5125   -3.1219   -0.5119 C   0  0  0  0  0  0  0  0  0  0  0  0
    4.4999   -0.8979   -1.0360 C   0  0  2  0  0  0  0  0  0  0  0  0
    5.6569   -0.1007   -0.9380 N   0  0  0  0  0  0  0  0  0  0  0  0
    6.0055    0.9147   -0.0469 C   0  0  0  0  0  0  0  0  0  0  0  0
    5.2437    1.2617    0.8775 O   0  0  0  0  0  0  0  0  0  0  0  0
    7.3139    1.6622   -0.1330 C   0  0  1  0  0  0  0  0  0  0  0  0
    7.2992    2.7770    0.7999 N   0  0  0  0  0  0  0  0  0  0  0  0
    8.3513    0.6782    0.3678 C   0  0  0  0  0  0  0  0  0  0  0  0
    9.7236    1.2061    0.3717 C   0  0  0  0  0  0  0  0  0  0  0  0
   10.1257    1.8809    1.5255 C   0  0  0  0  0  0  0  0  0  0  0  0
   11.3814    2.4243    1.6770 C   0  0  0  0  0  0  0  0  0  0  0  0
   12.2697    2.2855    0.6291 C   0  0  0  0  0  0  0  0  0  0  0  0
   13.5555    2.8406    0.7795 O   0  0  0  0  0  0  0  0  0  0  0  0
   11.9015    1.6246   -0.5223 C   0  0  0  0  0  0  0  0  0  0  0  0
   10.6159    1.0843   -0.6414 C   0  0  0  0  0  0  0  0  0  0  0  0
    3.2281   -0.1082   -1.0222 C   0  0  0  0  0  0  0  0  0  0  0  0
    3.2895    1.1444   -0.9645 O   0  0  0  0  0  0  0  0  0  0  0  0
    1.9468   -0.7010   -1.0714 N   0  0  0  0  0  0  0  0  0  0  0  0
    0.7692    0.1362   -1.0454 C   0  0  1  0  0  0  0  0  0  0  0  0
    0.2586    0.2560   -2.5106 C   0  0  0  0  0  0  0  0  0  0  0  0
   -0.0458   -1.1053   -3.0235 C   0  0  0  0  0  0  0  0  0  0  0  0
    0.9830   -1.7795   -3.6696 C   0  0  0  0  0  0  0  0  0  0  0  0
    0.7948   -3.0461   -4.1718 C   0  0  0  0  0  0  0  0  0  0  0  0
   -0.4348   -3.6359   -4.0224 C   0  0  0  0  0  0  0  0  0  0  0  0
   -1.4537   -2.9943   -3.3943 C   0  0  0  0  0  0  0  0  0  0  0  0
   -1.2572   -1.7187   -2.8910 C   0  0  0  0  0  0  0  0  0  0  0  0
   -0.3207   -0.3542   -0.1917 C   0  0  0  0  0  0  0  0  0  0  0  0
   -0.2594   -1.4973    0.3038 O   0  0  0  0  0  0  0  0  0  0  0  0
   -1.4360    0.4643    0.0709 N   0  0  0  0  0  0  0  0  0  0  0  0
   -2.5786    0.0033    0.9144 C   0  0  1  0  0  0  0  0  0  0  0  0
   -2.3332    0.2497    2.3382 C   0  0  0  0  0  0  0  0  0  0  0  0
   -3.3624   -0.3255    3.2434 C   0  0  0  0  0  0  0  0  0  0  0  0
   -3.4424   -1.8495    3.0668 C   0  0  0  0  0  0  0  0  0  0  0  0
   -4.4650   -2.3193    3.9766 N   0  0  0  0  0  0  0  0  0  0  0  0
   -5.8375   -2.0499    3.8416 C   0  0  0  0  0  0  0  0  0  0  0  0
   -6.5837   -2.5684    2.7444 N   0  0  0  0  0  0  0  0  0  0  0  0
   -6.4380   -1.3290    4.7119 N   0  0  0  0  0  0  0  0  0  0  0  0
   -3.7814    0.5848    0.3154 C   0  0  0  0  0  0  0  0  0  0  0  0
   -3.9429    0.4600   -0.9716 O   0  0  0  0  0  0  0  0  0  0  0  0
   -4.7956    1.2817    0.9516 N   0  0  0  0  0  0  0  0  0  0  0  0
   -5.9602    1.8178    0.2045 C   0  0  1  0  0  0  0  0  0  0  0  0
   -7.2031    1.1801    0.7609 C   0  0  0  0  0  0  0  0  0  0  0  0
   -8.4335    1.6402    0.1031 C   0  0  0  0  0  0  0  0  0  0  0  0
   -9.3728    2.4840    0.6448 C   0  0  0  0  0  0  0  0  0  0  0  0
  -10.3462    2.6484   -0.2634 N   0  0  0  0  0  0  0  0  0  0  0  0
  -10.0510    1.9257   -1.3814 C   0  0  0  0  0  0  0  0  0  0  0  0
  -10.7414    1.7811   -2.5755 C   0  0  0  0  0  0  0  0  0  0  0  0
  -10.2085    0.9803   -3.5590 C   0  0  0  0  0  0  0  0  0  0  0  0
   -9.0122    0.3486   -3.3314 C   0  0  0  0  0  0  0  0  0  0  0  0
   -8.3241    0.4851   -2.1571 C   0  0  0  0  0  0  0  0  0  0  0  0
   -8.8548    1.2919   -1.1585 C   0  0  0  0  0  0  0  0  0  0  0  0
   -5.9630    3.2723    0.4370 C   0  0  0  0  0  0  0  0  0  0  0  0
   -6.9088    4.0950   -0.1564 O   0  0  0  0  0  0  0  0  0  0  0  0
   -5.1084    3.8499    1.1847 O   0  0  0  0  0  0  0  0  0  0  0  0
    3.3558   -3.6258    1.6796 H   0  0  0  0  0  0  0  0  0  0  0  0
    5.1069   -3.8166    1.9415 H   0  0  0  0  0  0  0  0  0  0  0  0
    4.1753   -2.9075    3.1578 H   0  0  0  0  0  0  0  0  0  0  0  0
    5.5543   -1.5171    1.6160 H   0  0  0  0  0  0  0  0  0  0  0  0
    3.7487   -1.0917    1.6618 H   0  0  0  0  0  0  0  0  0  0  0  0
    3.4796   -2.6219   -0.3410 H   0  0  0  0  0  0  0  0  0  0  0  0
    5.5381   -3.2051   -1.6318 H   0  0  0  0  0  0  0  0  0  0  0  0
    6.4925   -2.7362   -0.2099 H   0  0  0  0  0  0  0  0  0  0  0  0
    5.3022   -4.0985   -0.0730 H   0  0  0  0  0  0  0  0  0  0  0  0
    4.4854   -1.3132   -2.1120 H   0  0  0  0  0  0  0  0  0  0  0  0
    6.4236   -0.3027   -1.6761 H   0  0  0  0  0  0  0  0  0  0  0  0
    7.5044    2.0499   -1.1293 H   0  0  0  0  0  0  0  0  0  0  0  0
    6.3301    3.0466    1.0937 H   0  0  0  0  0  0  0  0  0  0  0  0
    7.7089    3.6401    0.3673 H   0  0  0  0  0  0  0  0  0  0  0  0
    8.2283   -0.2550   -0.2210 H   0  0  0  0  0  0  0  0  0  0  0  0
    8.0657    0.4348    1.4110 H   0  0  0  0  0  0  0  0  0  0  0  0
    9.4373    2.0056    2.3735 H   0  0  0  0  0  0  0  0  0  0  0  0
   11.6441    2.9473    2.6102 H   0  0  0  0  0  0  0  0  0  0  0  0
   13.6721    3.7941    0.4754 H   0  0  0  0  0  0  0  0  0  0  0  0
   12.6016    1.5250   -1.3240 H   0  0  0  0  0  0  0  0  0  0  0  0
   10.3076    0.5597   -1.5373 H   0  0  0  0  0  0  0  0  0  0  0  0
    1.8447   -1.7191   -1.1263 H   0  0  0  0  0  0  0  0  0  0  0  0
    0.9924    1.1954   -0.7824 H   0  0  0  0  0  0  0  0  0  0  0  0
    1.0518    0.7051   -3.1149 H   0  0  0  0  0  0  0  0  0  0  0  0
   -0.6040    0.9138   -2.4707 H   0  0  0  0  0  0  0  0  0  0  0  0
    1.9602   -1.2844   -3.7759 H   0  0  0  0  0  0  0  0  0  0  0  0
    1.6154   -3.5289   -4.6629 H   0  0  0  0  0  0  0  0  0  0  0  0
   -0.5921   -4.6467   -4.4205 H   0  0  0  0  0  0  0  0  0  0  0  0
   -2.4481   -3.4496   -3.2628 H   0  0  0  0  0  0  0  0  0  0  0  0
   -2.0873   -1.2040   -2.3838 H   0  0  0  0  0  0  0  0  0  0  0  0
   -1.5302    1.4261   -0.3004 H   0  0  0  0  0  0  0  0  0  0  0  0
   -2.5456   -1.1169    0.7691 H   0  0  0  0  0  0  0  0  0  0  0  0
   -2.2296    1.3529    2.5423 H   0  0  0  0  0  0  0  0  0  0  0  0
   -1.3424   -0.2078    2.6020 H   0  0  0  0  0  0  0  0  0  0  0  0
   -2.9305   -0.2265    4.2981 H   0  0  0  0  0  0  0  0  0  0  0  0
   -4.3468    0.0471    3.2866 H   0  0  0  0  0  0  0  0  0  0  0  0
   -2.4649   -2.3156    3.2900 H   0  0  0  0  0  0  0  0  0  0  0  0
   -3.7565   -2.1374    2.0522 H   0  0  0  0  0  0  0  0  0  0  0  0
   -4.1654   -2.8980    4.7897 H   0  0  0  0  0  0  0  0  0  0  0  0
   -6.1866   -3.2835    2.0912 H   0  0  0  0  0  0  0  0  0  0  0  0
   -7.5653   -2.2451    2.5559 H   0  0  0  0  0  0  0  0  0  0  0  0
   -5.9097   -0.9478    5.5114 H   0  0  0  0  0  0  0  0  0  0  0  0
   -4.8023    1.5120    1.9498 H   0  0  0  0  0  0  0  0  0  0  0  0
   -5.8179    1.5822   -0.8686 H   0  0  0  0  0  0  0  0  0  0  0  0
   -7.1667    0.0722    0.6510 H   0  0  0  0  0  0  0  0  0  0  0  0
   -7.2244    1.4344    1.8598 H   0  0  0  0  0  0  0  0  0  0  0  0
   -9.3425    2.9478    1.6434 H   0  0  0  0  0  0  0  0  0  0  0  0
  -11.2094    3.2330   -0.1617 H   0  0  0  0  0  0  0  0  0  0  0  0
  -11.6886    2.2940   -2.7315 H   0  0  0  0  0  0  0  0  0  0  0  0
  -10.7594    0.8749   -4.4909 H   0  0  0  0  0  0  0  0  0  0  0  0
   -8.6206   -0.2773   -4.1301 H   0  0  0  0  0  0  0  0  0  0  0  0
   -7.3845   -0.0020   -1.9596 H   0  0  0  0  0  0  0  0  0  0  0  0
   -6.5760    4.8604   -0.7276 H   0  0  0  0  0  0  0  0  0  0  0  0
  1  2  1  0
  2  3  1  0
  3  4  1  0
  3  5  1  0
  5  6  1  0
  6  7  1  0
  7  8  2  0
  7  9  1  0
  9 10  1  0
  9 11  1  0
 11 12  1  0
 12 13  2  0
 13 14  1  0
 14 15  2  0
 15 16  1  0
 15 17  1  0
 17 18  2  0
  5 19  1  0
 19 20  2  0
 19 21  1  0
 21 22  1  0
 22 23  1  0
 23 24  1  0
 24 25  2  0
 25 26  1  0
 26 27  2  0
 27 28  1  0
 28 29  2  0
 22 30  1  0
 30 31  2  0
 30 32  1  0
 32 33  1  0
 33 34  1  0
 34 35  1  0
 35 36  1  0
 36 37  1  0
 37 38  1  0
 38 39  1  0
 38 40  2  3
 33 41  1  0
 41 42  2  0
 41 43  1  0
 43 44  1  0
 44 45  1  0
 45 46  1  0
 46 47  2  0
 47 48  1  0
 48 49  1  0
 49 50  2  0
 50 51  1  0
 51 52  2  0
 52 53  1  0
 53 54  2  0
 44 55  1  0
 55 56  1  0
 55 57  2  0
 18 12  1  0
 29 24  1  0
 54 46  1  0
 54 49  1  0
  1 58  1  0
  1 59  1  0
  1 60  1  0
  2 61  1  0
  2 62  1  0
  3 63  1  1
  4 64  1  0
  4 65  1  0
  4 66  1  0
  5 67  1  6
  6 68  1  0
  9 69  1  6
 10 70  1  0
 10 71  1  0
 11 72  1  0
 11 73  1  0
 13 74  1  0
 14 75  1  0
 16 76  1  0
 17 77  1  0
 18 78  1  0
 21 79  1  0
 22 80  1  1
 23 81  1  0
 23 82  1  0
 25 83  1  0
 26 84  1  0
 27 85  1  0
 28 86  1  0
 29 87  1  0
 32 88  1  0
 33 89  1  1
 34 90  1  0
 34 91  1  0
 35 92  1  0
 35 93  1  0
 36 94  1  0
 36 95  1  0
 37 96  1  0
 39 97  1  0
 39 98  1  0
 40 99  1  0
 43100  1  0
 44101  1  6
 45102  1  0
 45103  1  0
 47104  1  0
 48105  1  0
 50106  1  0
 51107  1  0
 52108  1  0
 53109  1  0
 56110  1  0
M  END
$$$$
[H]OC(=O)c1c([H])c([H])c(C(=O)N2C(=O)c3c([H])c([H])c([H])c([H])c3C2([H])[H])c([H])c1[H]
     RDKit          3D

 32 34  0  0  0  0  0  0  0  0999 V2000
    6.5747    0.0139   -0.8364 O   0  0  0  0  0  0  0  0  0  0  0  0
    5.5229    0.7891   -0.4021 C   0  0  0  0  0  0  0  0  0  0  0  0
    5.7484    1.9472    0.0217 O   0  0  0  0  0  0  0  0  0  0  0  0
    4.1702    0.2928   -0.4263 C   0  0  0  0  0  0  0  0  0  0  0  0
    3.9203   -0.9795   -0.8917 C   0  0  0  0  0  0  0  0  0  0  0  0
    2.6549   -1.4871   -0.9312 C   0  0  0  0  0  0  0  0  0  0  0  0
    1.5615   -0.7073   -0.4897 C   0  0  0  0  0  0  0  0  0  0  0  0
    1.8519    0.5475   -0.0364 C   0  0  0  0  0  0  0  0  0  0  0  0
    3.1404    1.0858    0.0123 C   0  0  0  0  0  0  0  0  0  0  0  0
    0.2690   -1.3084   -0.5689 C   0  0  0  0  0  0  0  0  0  0  0  0
    0.2324   -2.5045   -1.0689 O   0  0  0  0  0  0  0  0  0  0  0  0
   -0.9721   -0.7287   -0.1563 N   0  0  0  0  0  0  0  0  0  0  0  0
   -1.3062    0.5263    0.4273 C   0  0  0  0  0  0  0  0  0  0  0  0
   -2.7737    0.5607    0.5899 C   0  0  0  0  0  0  0  0  0  0  0  0
   -3.5994    1.5821    1.0989 C   0  0  0  0  0  0  0  0  0  0  0  0
   -4.9569    1.4002    1.1730 C   0  0  0  0  0  0  0  0  0  0  0  0
   -5.5155    0.2161    0.7489 C   0  0  0  0  0  0  0  0  0  0  0  0
   -4.6981   -0.7643    0.2574 C   0  0  0  0  0  0  0  0  0  0  0  0
   -3.3092   -0.6132    0.1670 C   0  0  0  0  0  0  0  0  0  0  0  0
   -2.2352   -1.4468   -0.3037 C   0  0  0  0  0  0  0  0  0  0  0  0
   -2.3486   -2.6081   -0.7695 O   0  0  0  0  0  0  0  0  0  0  0  0
    6.7900   -0.0483   -1.8382 H   0  0  0  0  0  0  0  0  0  0  0  0
    4.7352   -1.6261   -1.2464 H   0  0  0  0  0  0  0  0  0  0  0  0
    2.4749   -2.5120   -1.3083 H   0  0  0  0  0  0  0  0  0  0  0  0
    1.0912    1.2346    0.3225 H   0  0  0  0  0  0  0  0  0  0  0  0
    3.3274    2.0950    0.3829 H   0  0  0  0  0  0  0  0  0  0  0  0
   -0.8048    0.6868    1.4206 H   0  0  0  0  0  0  0  0  0  0  0  0
   -1.0893    1.3628   -0.2970 H   0  0  0  0  0  0  0  0  0  0  0  0
   -3.1836    2.5218    1.4384 H   0  0  0  0  0  0  0  0  0  0  0  0
   -5.6105    2.1587    1.5554 H   0  0  0  0  0  0  0  0  0  0  0  0
   -6.5881    0.0382    0.7937 H   0  0  0  0  0  0  0  0  0  0  0  0
   -5.0742   -1.7255   -0.0953 H   0  0  0  0  0  0  0  0  0  0  0  0
  1  2  1  0
  2  3  2  0
  2  4  1  0
  4  5  2  0
  5  6  1  0
  6  7  2  0
  7  8  1  0
  8  9  2  0
  7 10  1  0
 10 11  2  0
 10 12  1  0
 12 13  1  0
 13 14  1  0
 14 15  2  0
 15 16  1  0
 16 17  2  0
 17 18  1  0
 18 19  2  0
 19 20  1  0
 20 21  2  0
  9  4  1  0
 20 12  1  0
 19 14  1  0
  1 22  1  0
  5 23  1  0
  6 24  1  0
  8 25  1  0
  9 26  1  0
 13 27  1  0
 13 28  1  0
 15 29  1  0
 16 30  1  0
 17 31  1  0
 18 32  1  0
M  END
$$$$
[H]c1c([H])c([H])c2c(c1[H])c1c3c(c4c5c([H])c([H])c([H])c([H])c5n5c4c1n2[C@@]1([H])O[C@]5(C([H])([H])[H])[C@@]([H])(OC([H])([H])[H])[C@]([H])(N([H])C([H])([H])[H])C1([H])[H])C([H])([H])N([H])C3=O
     RDKit          3D

 61 68  0  0  0  0  0  0  0  0999 V2000
   -4.5237   -2.6401   -0.7124 C   0  0  0  0  0  0  0  0  0  0  0  0
   -3.9715   -1.4660   -0.0953 N   0  0  0  0  0  0  0  0  0  0  0  0
   -2.9743   -0.8478   -0.8927 C   0  0  2  0  0  0  0  0  0  0  0  0
   -1.7496   -1.6445   -1.1741 C   0  0  0  0  0  0  0  0  0  0  0  0
   -1.0100   -1.8751    0.1170 C   0  0  2  0  0  0  0  0  0  0  0  0
   -1.4148   -1.1188    1.1544 O   0  0  0  0  0  0  0  0  0  0  0  0
   -1.6798    0.2321    0.9242 C   0  0  2  0  0  0  0  0  0  0  0  0
   -2.4838    0.5978    2.1867 C   0  0  0  0  0  0  0  0  0  0  0  0
   -2.5009    0.4887   -0.2853 C   0  0  1  0  0  0  0  0  0  0  0  0
   -1.8081    1.0933   -1.3437 O   0  0  0  0  0  0  0  0  0  0  0  0
   -2.5887    2.1704   -1.8214 C   0  0  0  0  0  0  0  0  0  0  0  0
   -0.4431    0.9971    0.8651 N   0  0  0  0  0  0  0  0  0  0  0  0
   -0.2835    2.3015    1.1901 C   0  0  0  0  0  0  0  0  0  0  0  0
   -1.1602    3.2792    1.5990 C   0  0  0  0  0  0  0  0  0  0  0  0
   -0.7492    4.5626    1.8664 C   0  0  0  0  0  0  0  0  0  0  0  0
    0.5813    4.8928    1.7228 C   0  0  0  0  0  0  0  0  0  0  0  0
    1.5035    3.9489    1.3133 C   0  0  0  0  0  0  0  0  0  0  0  0
    1.0558    2.6757    1.0553 C   0  0  0  0  0  0  0  0  0  0  0  0
    1.7307    1.5669    0.6310 C   0  0  0  0  0  0  0  0  0  0  0  0
    3.0609    1.3049    0.3158 C   0  0  0  0  0  0  0  0  0  0  0  0
    4.2042    2.2315    0.3675 C   0  0  0  0  0  0  0  0  0  0  0  0
    5.3271    1.4528   -0.0575 N   0  0  0  0  0  0  0  0  0  0  0  0
    4.9139    0.1086   -0.3574 C   0  0  0  0  0  0  0  0  0  0  0  0
    5.6987   -0.7584   -0.7430 O   0  0  0  0  0  0  0  0  0  0  0  0
    3.4952    0.0547   -0.1130 C   0  0  0  0  0  0  0  0  0  0  0  0
    2.5242   -0.9343   -0.2138 C   0  0  0  0  0  0  0  0  0  0  0  0
    2.5755   -2.2425   -0.6054 C   0  0  0  0  0  0  0  0  0  0  0  0
    3.5696   -3.0872   -1.0267 C   0  0  0  0  0  0  0  0  0  0  0  0
    3.2676   -4.4032   -1.3567 C   0  0  0  0  0  0  0  0  0  0  0  0
    1.9721   -4.8534   -1.2596 C   0  0  0  0  0  0  0  0  0  0  0  0
    0.9589   -4.0283   -0.8404 C   0  0  0  0  0  0  0  0  0  0  0  0
    1.2711   -2.7222   -0.5149 C   0  0  0  0  0  0  0  0  0  0  0  0
    0.4469   -1.7777   -0.0915 N   0  0  0  0  0  0  0  0  0  0  0  0
    1.1895   -0.6870    0.0984 C   0  0  0  0  0  0  0  0  0  0  0  0
    0.8152    0.5680    0.5202 C   0  0  0  0  0  0  0  0  0  0  0  0
   -5.2957   -3.1021   -0.0591 H   0  0  0  0  0  0  0  0  0  0  0  0
   -3.7814   -3.3932   -1.0283 H   0  0  0  0  0  0  0  0  0  0  0  0
   -5.0923   -2.3122   -1.6236 H   0  0  0  0  0  0  0  0  0  0  0  0
   -3.8222   -1.5094    0.9101 H   0  0  0  0  0  0  0  0  0  0  0  0
   -3.4007   -0.5621   -1.9028 H   0  0  0  0  0  0  0  0  0  0  0  0
   -2.0362   -2.5903   -1.6765 H   0  0  0  0  0  0  0  0  0  0  0  0
   -1.1423   -1.0871   -1.9183 H   0  0  0  0  0  0  0  0  0  0  0  0
   -1.1922   -2.9364    0.3976 H   0  0  0  0  0  0  0  0  0  0  0  0
   -3.4238    1.1022    1.9520 H   0  0  0  0  0  0  0  0  0  0  0  0
   -2.8253   -0.3419    2.7315 H   0  0  0  0  0  0  0  0  0  0  0  0
   -1.8317    1.0906    2.9321 H   0  0  0  0  0  0  0  0  0  0  0  0
   -3.4609    1.0399   -0.0831 H   0  0  0  0  0  0  0  0  0  0  0  0
   -2.7856    2.9275   -1.0617 H   0  0  0  0  0  0  0  0  0  0  0  0
   -1.9992    2.6374   -2.6398 H   0  0  0  0  0  0  0  0  0  0  0  0
   -3.5590    1.7838   -2.2174 H   0  0  0  0  0  0  0  0  0  0  0  0
   -2.1988    3.0594    1.6957 H   0  0  0  0  0  0  0  0  0  0  0  0
   -1.4646    5.3328    2.1944 H   0  0  0  0  0  0  0  0  0  0  0  0
    0.9566    5.9051    1.9248 H   0  0  0  0  0  0  0  0  0  0  0  0
    2.5529    4.1833    1.1938 H   0  0  0  0  0  0  0  0  0  0  0  0
    4.0687    3.1146   -0.3195 H   0  0  0  0  0  0  0  0  0  0  0  0
    4.3326    2.5940    1.4156 H   0  0  0  0  0  0  0  0  0  0  0  0
    6.3219    1.8046   -0.1448 H   0  0  0  0  0  0  0  0  0  0  0  0
    4.5926   -2.8283   -1.1319 H   0  0  0  0  0  0  0  0  0  0  0  0
    4.0368   -5.0913   -1.6920 H   0  0  0  0  0  0  0  0  0  0  0  0
    1.7053   -5.8853   -1.5125 H   0  0  0  0  0  0  0  0  0  0  0  0
   -0.0764   -4.3770   -0.7583 H   0  0  0  0  0  0  0  0  0  0  0  0
  1  2  1  0
  2  3  1  0
  3  4  1  0
  4  5  1  0
  5  6  1  0
  6  7  1  0
  7  8  1  1
  7  9  1  0
  9 10  1  0
 10 11  1  0
  7 12  1  0
 12 13  1  0
 13 14  2  0
 14 15  1  0
 15 16  2  0
 16 17  1  0
 17 18  2  0
 18 19  1  0
 19 20  2  0
 20 21  1  0
 21 22  1  0
 22 23  1  0
 23 24  2  0
 23 25  1  0
 25 26  2  0
 26 27  1  0
 27 28  2  0
 28 29  1  0
 29 30  2  0
 30 31  1  0
 31 32  2  0
 32 33  1  0
 33 34  1  0
 34 35  2  0
  9  3  1  0
 35 12  1  0
 33  5  1  0
 18 13  1  0
 35 19  1  0
 25 20  1  0
 34 26  1  0
 32 27  1  0
  1 36  1  0
  1 37  1  0
  1 38  1  0
  2 39  1  0
  3 40  1  6
  4 41  1  0
  4 42  1  0
  5 43  1  1
  8 44  1  0
  8 45  1  0
  8 46  1  0
  9 47  1  1
 11 48  1  0
 11 49  1  0
 11 50  1  0
 14 51  1  0
 15 52  1  0
 16 53  1  0
 17 54  1  0
 21 55  1  0
 21 56  1  0
 22 57  1  0
 28 58  1  0
 29 59  1  0
 30 60  1  0
 31 61  1  0
M  END
$$$$
[H]/C(=C(/[H])c1c([H])c([H])c(N2C([H])([H])C([H])([H])N(S(=O)(=O)C([H])([H])[H])C([H])([H])C2([H])[H])c([H])c1[H])c1c([H])c([H])c(F)c([H])c1[H]
     RDKit          3D

 46 48  0  0  0  0  0  0  0  0999 V2000
    7.3805   -1.1896    0.2770 C   0  0  0  0  0  0  0  0  0  0  0  0
    5.9822   -0.6184    1.2512 S   0  0  0  0  0  0  0  0  0  0  0  0
    6.5321   -0.0172    2.4884 O   0  0  0  0  0  0  0  0  0  0  0  0
    5.1249   -1.8250    1.5299 O   0  0  0  0  0  0  0  0  0  0  0  0
    5.1120    0.4883    0.3076 N   0  0  0  0  0  0  0  0  0  0  0  0
    4.5961   -0.0935   -0.8818 C   0  0  0  0  0  0  0  0  0  0  0  0
    3.1528    0.1171   -1.1520 C   0  0  0  0  0  0  0  0  0  0  0  0
    2.3171    0.3994   -0.0244 N   0  0  0  0  0  0  0  0  0  0  0  0
    2.8518    0.7598    1.2461 C   0  0  0  0  0  0  0  0  0  0  0  0
    4.2296    1.3427    1.0228 C   0  0  0  0  0  0  0  0  0  0  0  0
    0.9109    0.3151   -0.2042 C   0  0  0  0  0  0  0  0  0  0  0  0
    0.3373    0.0997   -1.4408 C   0  0  0  0  0  0  0  0  0  0  0  0
   -1.0349    0.0150   -1.5959 C   0  0  0  0  0  0  0  0  0  0  0  0
   -1.8798    0.1444   -0.5101 C   0  0  0  0  0  0  0  0  0  0  0  0
   -3.2993    0.0475   -0.7306 C   0  0  0  0  0  0  0  0  0  0  0  0
   -4.1964    0.1542    0.2226 C   0  0  0  0  0  0  0  0  0  0  0  0
   -5.6493    0.0571    0.0100 C   0  0  0  0  0  0  0  0  0  0  0  0
   -6.2251   -0.1563   -1.2129 C   0  0  0  0  0  0  0  0  0  0  0  0
   -7.6085   -0.2413   -1.3668 C   0  0  0  0  0  0  0  0  0  0  0  0
   -8.4105   -0.1064   -0.2562 C   0  0  0  0  0  0  0  0  0  0  0  0
   -9.7630   -0.1865   -0.3870 F   0  0  0  0  0  0  0  0  0  0  0  0
   -7.8507    0.1092    0.9855 C   0  0  0  0  0  0  0  0  0  0  0  0
   -6.4708    0.1889    1.1057 C   0  0  0  0  0  0  0  0  0  0  0  0
   -1.3164    0.3558    0.7034 C   0  0  0  0  0  0  0  0  0  0  0  0
    0.0740    0.4435    0.8731 C   0  0  0  0  0  0  0  0  0  0  0  0
    7.9648   -0.3079   -0.1067 H   0  0  0  0  0  0  0  0  0  0  0  0
    6.9976   -1.7387   -0.6051 H   0  0  0  0  0  0  0  0  0  0  0  0
    8.0366   -1.8521    0.8780 H   0  0  0  0  0  0  0  0  0  0  0  0
    5.2052    0.2766   -1.7403 H   0  0  0  0  0  0  0  0  0  0  0  0
    4.7882   -1.1939   -0.8364 H   0  0  0  0  0  0  0  0  0  0  0  0
    3.0006    0.9233   -1.9002 H   0  0  0  0  0  0  0  0  0  0  0  0
    2.7154   -0.8100   -1.6340 H   0  0  0  0  0  0  0  0  0  0  0  0
    2.2578    1.5360    1.7764 H   0  0  0  0  0  0  0  0  0  0  0  0
    2.9720   -0.1475    1.8615 H   0  0  0  0  0  0  0  0  0  0  0  0
    4.6800    1.5585    2.0169 H   0  0  0  0  0  0  0  0  0  0  0  0
    4.1587    2.3085    0.4794 H   0  0  0  0  0  0  0  0  0  0  0  0
    0.9832   -0.0019   -2.2991 H   0  0  0  0  0  0  0  0  0  0  0  0
   -1.4734   -0.1545   -2.5728 H   0  0  0  0  0  0  0  0  0  0  0  0
   -3.6897   -0.1270   -1.7542 H   0  0  0  0  0  0  0  0  0  0  0  0
   -3.8166    0.3266    1.2353 H   0  0  0  0  0  0  0  0  0  0  0  0
   -5.6240   -0.2676   -2.1111 H   0  0  0  0  0  0  0  0  0  0  0  0
   -8.0281   -0.4107   -2.3480 H   0  0  0  0  0  0  0  0  0  0  0  0
   -8.4974    0.2126    1.8456 H   0  0  0  0  0  0  0  0  0  0  0  0
   -6.0696    0.3611    2.1108 H   0  0  0  0  0  0  0  0  0  0  0  0
   -1.9262    0.4639    1.5834 H   0  0  0  0  0  0  0  0  0  0  0  0
    0.4682    0.6106    1.8602 H   0  0  0  0  0  0  0  0  0  0  0  0
  1  2  1  0
  2  3  2  0
  2  4  2  0
  2  5  1  0
  5  6  1  0
  6  7  1  0
  7  8  1  0
  8  9  1  0
  9 10  1  0
  8 11  1  0
 11 12  2  0
 12 13  1  0
 13 14  2  0
 14 15  1  0
 15 16  2  0
 16 17  1  0
 17 18  2  0
 18 19  1  0
 19 20  2  0
 20 21  1  0
 20 22  1  0
 22 23  2  0
 14 24  1  0
 24 25  2  0
 10  5  1  0
 25 11  1  0
 23 17  1  0
  1 26  1  0
  1 27  1  0
  1 28  1  0
  6 29  1  0
  6 30  1  0
  7 31  1  0
  7 32  1  0
  9 33  1  0
  9 34  1  0
 10 35  1  0
 10 36  1  0
 12 37  1  0
 13 38  1  0
 15 39  1  0
 16 40  1  0
 18 41  1  0
 19 42  1  0
 22 43  1  0
 23 44  1  0
 24 45  1  0
 25 46  1  0
M  END
$$$$
[H]O[C@@]1([H])C([H])([H])C([H])([H])[C@@]2(C([H])([H])[H])C([H])(C([H])([H])C([H])([H])C3([H])C2([H])C([H])([H])C([H])([H])[C@]2(C([H])([H])[H])[C@@]([H])(O[H])C([H])([H])C([H])([H])[C@@]32[H])C1([H])[H]
     RDKit          3D

 53 56  0  0  0  0  0  0  0  0999 V2000
    3.2536   -1.2145   -0.4535 C   0  0  0  0  0  0  0  0  0  0  0  0
    2.6407   -0.1259    0.3555 C   0  0  2  0  0  0  0  0  0  0  0  0
    1.8111   -0.5768    1.4959 C   0  0  0  0  0  0  0  0  0  0  0  0
    0.3307   -0.2708    1.2712 C   0  0  0  0  0  0  0  0  0  0  0  0
   -0.0673   -0.6715   -0.1577 C   0  0  0  0  0  0  0  0  0  0  0  0
    0.6514    0.1846   -1.1495 C   0  0  0  0  0  0  0  0  0  0  0  0
   -0.1990    1.2408   -1.7858 C   0  0  0  0  0  0  0  0  0  0  0  0
   -1.3824    1.6405   -0.9646 C   0  0  0  0  0  0  0  0  0  0  0  0
   -2.2554    0.4087   -0.7940 C   0  0  0  0  0  0  0  0  0  0  0  0
   -3.3895    0.8327    0.1088 C   0  0  0  0  0  0  0  0  0  0  0  0
   -4.3313   -0.2799    0.4468 C   0  0  1  0  0  0  0  0  0  0  0  0
   -5.3299   -0.4045   -0.5185 O   0  0  0  0  0  0  0  0  0  0  0  0
   -3.6407   -1.5877    0.7377 C   0  0  0  0  0  0  0  0  0  0  0  0
   -2.1640   -1.2489    0.9810 C   0  0  0  0  0  0  0  0  0  0  0  0
   -1.5254   -0.7887   -0.3364 C   0  0  2  0  0  0  0  0  0  0  0  0
   -1.7921   -1.9353   -1.3225 C   0  0  0  0  0  0  0  0  0  0  0  0
    1.8080    0.8419   -0.4792 C   0  0  2  0  0  0  0  0  0  0  0  0
    2.8482    1.3870   -1.3947 C   0  0  0  0  0  0  0  0  0  0  0  0
    3.9473    1.7645   -0.3942 C   0  0  0  0  0  0  0  0  0  0  0  0
    3.7744    0.8181    0.7762 C   0  0  2  0  0  0  0  0  0  0  0  0
    4.9569    0.1251    0.9877 O   0  0  0  0  0  0  0  0  0  0  0  0
    2.7234   -1.4434   -1.3992 H   0  0  0  0  0  0  0  0  0  0  0  0
    3.2873   -2.1686    0.1161 H   0  0  0  0  0  0  0  0  0  0  0  0
    4.3092   -0.9653   -0.7696 H   0  0  0  0  0  0  0  0  0  0  0  0
    2.1003   -0.1118    2.4473 H   0  0  0  0  0  0  0  0  0  0  0  0
    1.8855   -1.6826    1.5948 H   0  0  0  0  0  0  0  0  0  0  0  0
   -0.2057   -0.9341    1.9888 H   0  0  0  0  0  0  0  0  0  0  0  0
    0.0688    0.7584    1.5035 H   0  0  0  0  0  0  0  0  0  0  0  0
    0.3743   -1.7092   -0.2613 H   0  0  0  0  0  0  0  0  0  0  0  0
    1.0499   -0.4444   -1.9998 H   0  0  0  0  0  0  0  0  0  0  0  0
   -0.5981    0.9043   -2.7856 H   0  0  0  0  0  0  0  0  0  0  0  0
    0.3964    2.1506   -2.0047 H   0  0  0  0  0  0  0  0  0  0  0  0
   -1.1523    2.1450   -0.0272 H   0  0  0  0  0  0  0  0  0  0  0  0
   -1.9802    2.3591   -1.5784 H   0  0  0  0  0  0  0  0  0  0  0  0
   -2.7238    0.2437   -1.8099 H   0  0  0  0  0  0  0  0  0  0  0  0
   -2.9588    1.3258    1.0075 H   0  0  0  0  0  0  0  0  0  0  0  0
   -3.9617    1.6147   -0.4333 H   0  0  0  0  0  0  0  0  0  0  0  0
   -4.8599    0.0156    1.3942 H   0  0  0  0  0  0  0  0  0  0  0  0
   -5.7100    0.4886   -0.6487 H   0  0  0  0  0  0  0  0  0  0  0  0
   -3.7601   -2.3228   -0.0632 H   0  0  0  0  0  0  0  0  0  0  0  0
   -3.9931   -2.0550    1.6873 H   0  0  0  0  0  0  0  0  0  0  0  0
   -1.6996   -2.1890    1.3317 H   0  0  0  0  0  0  0  0  0  0  0  0
   -2.1675   -0.4413    1.7305 H   0  0  0  0  0  0  0  0  0  0  0  0
   -1.6648   -2.8694   -0.7456 H   0  0  0  0  0  0  0  0  0  0  0  0
   -0.9610   -1.8979   -2.0581 H   0  0  0  0  0  0  0  0  0  0  0  0
   -2.7890   -1.8309   -1.7884 H   0  0  0  0  0  0  0  0  0  0  0  0
    1.4855    1.6440    0.2038 H   0  0  0  0  0  0  0  0  0  0  0  0
    3.2938    0.5985   -2.0413 H   0  0  0  0  0  0  0  0  0  0  0  0
    2.5245    2.2730   -1.9698 H   0  0  0  0  0  0  0  0  0  0  0  0
    3.6679    2.7870   -0.0156 H   0  0  0  0  0  0  0  0  0  0  0  0
    4.9420    1.7397   -0.8380 H   0  0  0  0  0  0  0  0  0  0  0  0
    3.4196    1.3296    1.6891 H   0  0  0  0  0  0  0  0  0  0  0  0
    5.7120    0.5488    0.4942 H   0  0  0  0  0  0  0  0  0  0  0  0
  2  1  1  6
  2  3  1  0
  3  4  1  0
  4  5  1  0
  5  6  1  0
  6  7  1  0
  7  8  1  0
  8  9  1  0
  9 10  1  0
 10 11  1  0
 11 12  1  0
 11 13  1  0
 13 14  1  0
 14 15  1  0
 15 16  1  6
  6 17  1  0
 17 18  1  0
 18 19  1  0
 19 20  1  0
 20 21  1  0
 17  2  1  0
 20  2  1  0
 15  5  1  0
 15  9  1  0
  1 22  1  0
  1 23  1  0
  1 24  1  0
  3 25  1  0
  3 26  1  0
  4 27  1  0
  4 28  1  0
  5 29  1  0
  6 30  1  0
  7 31  1  0
  7 32  1  0
  8 33  1  0
  8 34  1  0
  9 35  1  0
 10 36  1  0
 10 37  1  0
 11 38  1  1
 12 39  1  0
 13 40  1  0
 13 41  1  0
 14 42  1  0
 14 43  1  0
 16 44  1  0
 16 45  1  0
 16 46  1  0
 17 47  1  1
 18 48  1  0
 18 49  1  0
 19 50  1  0
 19 51  1  0
 20 52  1  1
 21 53  1  0
M  END
$$$$
[H]c1c([H])c([H])c(Oc2c([H])c(N3C([H])([H])C([H])([H])N(C([H])([H])C4=C(c5c([H])c([H])c(Cl)c([H])c5[H])C([H])([H])C(C([H])([H])[H])(C([H])([H])[H])C([H])([H])C4([H])[H])C([H])([H])C3([H])[H])c([H])c([H])c2C(=O)N([H])S(=O)(=O)c2c([H])c([H])c(N([H])C([H])([H])C3([H])C([H])([H])C([H])([H])OC([H])([H])C3([H])[H])c([N+](=O)[O-])c2[H])c([H])c1[H]
     RDKit          3D

108114  0  0  0  0  0  0  0  0999 V2000
    9.1143    2.8786   -1.8228 C   0  0  0  0  0  0  0  0  0  0  0  0
    9.1434    2.9873   -0.3093 C   0  0  0  0  0  0  0  0  0  0  0  0
   10.2821    3.9475    0.0327 C   0  0  0  0  0  0  0  0  0  0  0  0
    7.8260    3.5407    0.1443 C   0  0  0  0  0  0  0  0  0  0  0  0
    7.3762    2.9067    1.4369 C   0  0  0  0  0  0  0  0  0  0  0  0
    7.1374    1.4199    1.0681 C   0  0  0  0  0  0  0  0  0  0  0  0
    5.7901    0.9771    1.2950 C   0  0  0  0  0  0  0  0  0  0  0  0
    5.3180   -0.2628    0.7666 N   0  0  0  0  0  0  0  0  0  0  0  0
    4.0568   -0.5450    1.4837 C   0  0  0  0  0  0  0  0  0  0  0  0
    3.1653   -1.4424    0.6302 C   0  0  0  0  0  0  0  0  0  0  0  0
    2.6555   -0.5331   -0.4071 N   0  0  0  0  0  0  0  0  0  0  0  0
    3.6029    0.4498   -0.8838 C   0  0  0  0  0  0  0  0  0  0  0  0
    4.9830   -0.1147   -0.6666 C   0  0  0  0  0  0  0  0  0  0  0  0
    1.3554   -0.5721   -0.9233 C   0  0  0  0  0  0  0  0  0  0  0  0
    0.9179    0.3833   -1.8159 C   0  0  0  0  0  0  0  0  0  0  0  0
   -0.3666    0.3403   -2.3098 C   0  0  0  0  0  0  0  0  0  0  0  0
   -1.2808   -0.6617   -1.9361 C   0  0  0  0  0  0  0  0  0  0  0  0
   -2.6230   -0.6758   -2.4541 C   0  0  0  0  0  0  0  0  0  0  0  0
   -2.8793    0.2956   -3.2854 O   0  0  0  0  0  0  0  0  0  0  0  0
   -3.6730   -1.5465   -2.2117 N   0  0  0  0  0  0  0  0  0  0  0  0
   -5.2270   -1.2944   -3.0021 S   0  0  0  0  0  0  0  0  0  0  0  0
   -5.9047   -2.6026   -3.2583 O   0  0  0  0  0  0  0  0  0  0  0  0
   -5.0571   -0.5807   -4.2974 O   0  0  0  0  0  0  0  0  0  0  0  0
   -6.1752   -0.3406   -1.8517 C   0  0  0  0  0  0  0  0  0  0  0  0
   -6.9160   -0.9435   -0.8695 C   0  0  0  0  0  0  0  0  0  0  0  0
   -7.6535   -0.1883    0.0316 C   0  0  0  0  0  0  0  0  0  0  0  0
   -7.6826    1.2074   -0.0120 C   0  0  0  0  0  0  0  0  0  0  0  0
   -8.4410    1.9417    0.9362 N   0  0  0  0  0  0  0  0  0  0  0  0
   -9.3252    1.2737    1.8910 C   0  0  0  0  0  0  0  0  0  0  0  0
  -10.5698    0.7818    1.2222 C   0  0  0  0  0  0  0  0  0  0  0  0
  -11.2804    1.9964    0.6413 C   0  0  0  0  0  0  0  0  0  0  0  0
  -12.7405    1.7211    0.4307 C   0  0  0  0  0  0  0  0  0  0  0  0
  -13.2918    1.3996    1.6926 O   0  0  0  0  0  0  0  0  0  0  0  0
  -12.8717    0.0991    2.0016 C   0  0  0  0  0  0  0  0  0  0  0  0
  -11.3973    0.0400    2.2315 C   0  0  0  0  0  0  0  0  0  0  0  0
   -6.9381    1.8066   -0.9977 C   0  0  0  0  0  0  0  0  0  0  0  0
   -6.1915    1.0235   -1.9083 C   0  0  0  0  0  0  0  0  0  0  0  0
   -6.8774    3.2091   -1.1726 N   0  0  0  0  0  0  0  0  0  0  0  0
   -6.9958    4.1781   -0.2391 O   0  0  0  0  0  0  0  0  0  0  0  0
   -6.6908    3.6176   -2.3674 O   0  0  0  0  0  0  0  0  0  0  0  0
   -0.8251   -1.5961   -1.0530 C   0  0  0  0  0  0  0  0  0  0  0  0
   -1.6469   -2.6189   -0.6270 O   0  0  0  0  0  0  0  0  0  0  0  0
   -1.1733   -3.5513    0.2676 C   0  0  0  0  0  0  0  0  0  0  0  0
   -0.5531   -4.7011   -0.1602 C   0  0  0  0  0  0  0  0  0  0  0  0
   -0.0698   -5.6514    0.7417 C   0  0  0  0  0  0  0  0  0  0  0  0
   -0.2087   -5.4494    2.0943 C   0  0  0  0  0  0  0  0  0  0  0  0
   -0.8274   -4.3031    2.5371 C   0  0  0  0  0  0  0  0  0  0  0  0
   -1.3016   -3.3701    1.6408 C   0  0  0  0  0  0  0  0  0  0  0  0
    0.4861   -1.5679   -0.5368 C   0  0  0  0  0  0  0  0  0  0  0  0
    8.1735    0.8387    0.5262 C   0  0  0  0  0  0  0  0  0  0  0  0
    9.4321    1.6769    0.3249 C   0  0  0  0  0  0  0  0  0  0  0  0
    8.2733   -0.5586    0.2088 C   0  0  0  0  0  0  0  0  0  0  0  0
    8.6683   -0.9797   -1.0394 C   0  0  0  0  0  0  0  0  0  0  0  0
    8.8463   -2.3174   -1.3451 C   0  0  0  0  0  0  0  0  0  0  0  0
    8.6270   -3.2861   -0.3845 C   0  0  0  0  0  0  0  0  0  0  0  0
    8.8472   -4.9706   -0.7607 Cl  0  0  0  0  0  0  0  0  0  0  0  0
    8.2336   -2.8926    0.8646 C   0  0  0  0  0  0  0  0  0  0  0  0
    8.0595   -1.5337    1.1532 C   0  0  0  0  0  0  0  0  0  0  0  0
    9.8219    2.0736   -2.1485 H   0  0  0  0  0  0  0  0  0  0  0  0
    9.4683    3.8294   -2.2789 H   0  0  0  0  0  0  0  0  0  0  0  0
    8.1027    2.6743   -2.1924 H   0  0  0  0  0  0  0  0  0  0  0  0
   11.1271    3.6865   -0.6037 H   0  0  0  0  0  0  0  0  0  0  0  0
   10.5211    3.7623    1.1065 H   0  0  0  0  0  0  0  0  0  0  0  0
    9.9623    4.9686   -0.1729 H   0  0  0  0  0  0  0  0  0  0  0  0
    7.0597    3.2875   -0.6330 H   0  0  0  0  0  0  0  0  0  0  0  0
    7.8901    4.6443    0.2280 H   0  0  0  0  0  0  0  0  0  0  0  0
    8.1488    2.9575    2.2090 H   0  0  0  0  0  0  0  0  0  0  0  0
    6.4592    3.3744    1.7701 H   0  0  0  0  0  0  0  0  0  0  0  0
    5.5056    1.0497    2.4107 H   0  0  0  0  0  0  0  0  0  0  0  0
    5.0696    1.7597    0.8485 H   0  0  0  0  0  0  0  0  0  0  0  0
    3.5200    0.4007    1.6404 H   0  0  0  0  0  0  0  0  0  0  0  0
    4.2276   -1.0440    2.4403 H   0  0  0  0  0  0  0  0  0  0  0  0
    3.7585   -2.2085    0.1324 H   0  0  0  0  0  0  0  0  0  0  0  0
    2.3754   -1.7994    1.3003 H   0  0  0  0  0  0  0  0  0  0  0  0
    3.5074    0.5629   -2.0022 H   0  0  0  0  0  0  0  0  0  0  0  0
    3.4618    1.4167   -0.3735 H   0  0  0  0  0  0  0  0  0  0  0  0
    5.0620   -1.1071   -1.1118 H   0  0  0  0  0  0  0  0  0  0  0  0
    5.6954    0.5978   -1.0881 H   0  0  0  0  0  0  0  0  0  0  0  0
    1.5784    1.1751   -2.1355 H   0  0  0  0  0  0  0  0  0  0  0  0
   -0.7176    1.0948   -3.0174 H   0  0  0  0  0  0  0  0  0  0  0  0
   -3.6639   -2.3717   -1.5926 H   0  0  0  0  0  0  0  0  0  0  0  0
   -6.9326   -2.0226   -0.7876 H   0  0  0  0  0  0  0  0  0  0  0  0
   -8.2233   -0.6718    0.8170 H   0  0  0  0  0  0  0  0  0  0  0  0
   -8.4304    2.9886    1.0212 H   0  0  0  0  0  0  0  0  0  0  0  0
   -9.5555    1.9611    2.7480 H   0  0  0  0  0  0  0  0  0  0  0  0
   -8.8090    0.4150    2.3620 H   0  0  0  0  0  0  0  0  0  0  0  0
  -10.3197    0.1111    0.4002 H   0  0  0  0  0  0  0  0  0  0  0  0
  -10.7998    2.1825   -0.3468 H   0  0  0  0  0  0  0  0  0  0  0  0
  -11.1031    2.8472    1.3024 H   0  0  0  0  0  0  0  0  0  0  0  0
  -12.8786    0.8622   -0.2253 H   0  0  0  0  0  0  0  0  0  0  0  0
  -13.2169    2.6459    0.0528 H   0  0  0  0  0  0  0  0  0  0  0  0
  -13.1760   -0.6209    1.2103 H   0  0  0  0  0  0  0  0  0  0  0  0
  -13.3917   -0.2156    2.9286 H   0  0  0  0  0  0  0  0  0  0  0  0
  -11.1015   -1.0415    2.1742 H   0  0  0  0  0  0  0  0  0  0  0  0
  -11.1066    0.3672    3.2546 H   0  0  0  0  0  0  0  0  0  0  0  0
   -5.6025    1.5208   -2.6904 H   0  0  0  0  0  0  0  0  0  0  0  0
   -0.4443   -4.8589   -1.2151 H   0  0  0  0  0  0  0  0  0  0  0  0
    0.4127   -6.5448    0.3949 H   0  0  0  0  0  0  0  0  0  0  0  0
    0.1803   -6.2117    2.7548 H   0  0  0  0  0  0  0  0  0  0  0  0
   -0.9314   -4.1543    3.5977 H   0  0  0  0  0  0  0  0  0  0  0  0
   -1.7929   -2.4577    1.9358 H   0  0  0  0  0  0  0  0  0  0  0  0
    0.7988   -2.3331    0.1595 H   0  0  0  0  0  0  0  0  0  0  0  0
   10.1567    1.0985   -0.2524 H   0  0  0  0  0  0  0  0  0  0  0  0
    9.7964    1.8911    1.3676 H   0  0  0  0  0  0  0  0  0  0  0  0
    8.8432   -0.2365   -1.8030 H   0  0  0  0  0  0  0  0  0  0  0  0
    9.1560   -2.6369   -2.3263 H   0  0  0  0  0  0  0  0  0  0  0  0
    8.0590   -3.6356    1.6237 H   0  0  0  0  0  0  0  0  0  0  0  0
    7.7558   -1.3205    2.1688 H   0  0  0  0  0  0  0  0  0  0  0  0
  1  2  1  0
  2  3  1  0
  2  4  1  0
  4  5  1  0
  5  6  1  0
  6  7  1  0
  7  8  1  0
  8  9  1  0
  9 10  1  0
 10 11  1  0
 11 12  1  0
 12 13  1  0
 11 14  1  0
 14 15  2  0
 15 16  1  0
 16 17  2  0
 17 18  1  0
 18 19  2  0
 18 20  1  0
 20 21  1  0
 21 22  2  0
 21 23  2  0
 21 24  1  0
 24 25  2  0
 25 26  1  0
 26 27  2  0
 27 28  1  0
 28 29  1  0
 29 30  1  0
 30 31  1  0
 31 32  1  0
 32 33  1  0
 33 34  1  0
 34 35  1  0
 27 36  1  0
 36 37  2  0
 36 38  1  0
 38 39  1  0
 38 40  2  0
 17 41  1  0
 41 42  1  0
 42 43  1  0
 43 44  2  0
 44 45  1  0
 45 46  2  0
 46 47  1  0
 47 48  2  0
 41 49  2  0
  6 50  2  0
 50 51  1  0
 50 52  1  0
 52 53  2  0
 53 54  1  0
 54 55  2  0
 55 56  1  0
 55 57  1  0
 57 58  2  0
 51  2  1  0
 58 52  1  0
 13  8  1  0
 49 14  1  0
 37 24  1  0
 48 43  1  0
 35 30  1  0
  1 59  1  0
  1 60  1  0
  1 61  1  0
  3 62  1  0
  3 63  1  0
  3 64  1  0
  4 65  1  0
  4 66  1  0
  5 67  1  0
  5 68  1  0
  7 69  1  0
  7 70  1  0
  9 71  1  0
  9 72  1  0
 10 73  1  0
 10 74  1  0
 12 75  1  0
 12 76  1  0
 13 77  1  0
 13 78  1  0
 15 79  1  0
 16 80  1  0
 20 81  1  0
 25 82  1  0
 26 83  1  0
 28 84  1  0
 29 85  1  0
 29 86  1  0
 30 87  1  0
 31 88  1  0
 31 89  1  0
 32 90  1  0
 32 91  1  0
 34 92  1  0
 34 93  1  0
 35 94  1  0
 35 95  1  0
 37 96  1  0
 44 97  1  0
 45 98  1  0
 46 99  1  0
 47100  1  0
 48101  1  0
 49102  1  0
 51103  1  0
 51104  1  0
 53105  1  0
 54106  1  0
 57107  1  0
 58108  1  0
M  CHG  2  38   1  39  -1
M  END
$$$$
[H]O[C@]([H])(c1c([H])c([H])c(Cl)c([H])c1[H])[C@@]1([H])N(C(=O)N([H])c2c([H])c([H])c(Cl)c(C(F)(F)F)c2[H])C([H])([H])[C@]([H])(C([H])([H])[H])C1([H])[H]
     RDKit          3D

 48 50  0  0  0  0  0  0  0  0999 V2000
   -1.4388   -3.6394   -1.2676 C   0  0  0  0  0  0  0  0  0  0  0  0
   -1.7870   -2.5267   -0.2772 C   0  0  2  0  0  0  0  0  0  0  0  0
   -2.2343   -1.2844   -0.9813 C   0  0  0  0  0  0  0  0  0  0  0  0
   -1.4435   -0.1421   -0.4221 C   0  0  2  0  0  0  0  0  0  0  0  0
   -0.2266   -0.7633    0.0372 N   0  0  0  0  0  0  0  0  0  0  0  0
   -0.5304   -2.0927    0.4679 C   0  0  0  0  0  0  0  0  0  0  0  0
    1.1038   -0.1849    0.0765 C   0  0  0  0  0  0  0  0  0  0  0  0
    1.1383    0.9959   -0.3631 O   0  0  0  0  0  0  0  0  0  0  0  0
    2.1912   -0.9107    0.5620 N   0  0  0  0  0  0  0  0  0  0  0  0
    3.5264   -0.5501    0.6834 C   0  0  0  0  0  0  0  0  0  0  0  0
    4.4650   -1.4542    1.2085 C   0  0  0  0  0  0  0  0  0  0  0  0
    5.7830   -1.0905    1.3253 C   0  0  0  0  0  0  0  0  0  0  0  0
    6.2272    0.1358    0.9453 C   0  0  0  0  0  0  0  0  0  0  0  0
    7.9068    0.6325    1.0816 Cl  0  0  0  0  0  0  0  0  0  0  0  0
    5.3365    1.0508    0.4253 C   0  0  0  0  0  0  0  0  0  0  0  0
    4.0070    0.6715    0.3122 C   0  0  0  0  0  0  0  0  0  0  0  0
    5.7542    2.3996   -0.0063 C   0  0  0  0  0  0  0  0  0  0  0  0
    4.6638    3.0882   -0.4789 F   0  0  0  0  0  0  0  0  0  0  0  0
    6.2548    3.0582    1.1060 F   0  0  0  0  0  0  0  0  0  0  0  0
    6.7532    2.3003   -0.9538 F   0  0  0  0  0  0  0  0  0  0  0  0
   -2.0909    0.6230    0.6856 C   0  0  2  0  0  0  0  0  0  0  0  0
   -2.4041   -0.2254    1.7309 O   0  0  0  0  0  0  0  0  0  0  0  0
   -3.2501    1.4339    0.3340 C   0  0  0  0  0  0  0  0  0  0  0  0
   -3.1454    2.7847   -0.0241 C   0  0  0  0  0  0  0  0  0  0  0  0
   -4.2723    3.5210   -0.3379 C   0  0  0  0  0  0  0  0  0  0  0  0
   -5.5245    2.9464   -0.3066 C   0  0  0  0  0  0  0  0  0  0  0  0
   -6.9748    3.8605   -0.7015 Cl  0  0  0  0  0  0  0  0  0  0  0  0
   -5.6639    1.6243    0.0404 C   0  0  0  0  0  0  0  0  0  0  0  0
   -4.5131    0.9058    0.3519 C   0  0  0  0  0  0  0  0  0  0  0  0
   -2.3619   -4.2491   -1.4648 H   0  0  0  0  0  0  0  0  0  0  0  0
   -1.0804   -3.2560   -2.2219 H   0  0  0  0  0  0  0  0  0  0  0  0
   -0.7279   -4.3108   -0.7478 H   0  0  0  0  0  0  0  0  0  0  0  0
   -2.5374   -2.9774    0.3975 H   0  0  0  0  0  0  0  0  0  0  0  0
   -1.8826   -1.4102   -2.0550 H   0  0  0  0  0  0  0  0  0  0  0  0
   -3.3306   -1.1464   -0.9719 H   0  0  0  0  0  0  0  0  0  0  0  0
   -1.1493    0.5400   -1.2712 H   0  0  0  0  0  0  0  0  0  0  0  0
    0.2956   -2.8190    0.2827 H   0  0  0  0  0  0  0  0  0  0  0  0
   -0.7946   -2.0568    1.5501 H   0  0  0  0  0  0  0  0  0  0  0  0
    1.9554   -1.9020    0.8959 H   0  0  0  0  0  0  0  0  0  0  0  0
    4.1366   -2.4228    1.5129 H   0  0  0  0  0  0  0  0  0  0  0  0
    6.5421   -1.7752    1.7323 H   0  0  0  0  0  0  0  0  0  0  0  0
    3.3565    1.4466   -0.1082 H   0  0  0  0  0  0  0  0  0  0  0  0
   -1.2665    1.3182    1.0928 H   0  0  0  0  0  0  0  0  0  0  0  0
   -3.0481   -0.8993    1.4207 H   0  0  0  0  0  0  0  0  0  0  0  0
   -2.1592    3.1986   -0.0383 H   0  0  0  0  0  0  0  0  0  0  0  0
   -4.1999    4.5615   -0.6146 H   0  0  0  0  0  0  0  0  0  0  0  0
   -6.6401    1.1327    0.0768 H   0  0  0  0  0  0  0  0  0  0  0  0
   -4.7192   -0.1409    0.6261 H   0  0  0  0  0  0  0  0  0  0  0  0
  1  2  1  0
  2  3  1  0
  3  4  1  0
  4  5  1  0
  5  6  1  0
  5  7  1  0
  7  8  2  0
  7  9  1  0
  9 10  1  0
 10 11  2  0
 11 12  1  0
 12 13  2  0
 13 14  1  0
 13 15  1  0
 15 16  2  0
 15 17  1  0
 17 18  1  0
 17 19  1  0
 17 20  1  0
  4 21  1  0
 21 22  1  0
 21 23  1  0
 23 24  2  0
 24 25  1  0
 25 26  2  0
 26 27  1  0
 26 28  1  0
 28 29  2  0
  6  2  1  0
 16 10  1  0
 29 23  1  0
  1 30  1  0
  1 31  1  0
  1 32  1  0
  2 33  1  1
  3 34  1  0
  3 35  1  0
  4 36  1  6
  6 37  1  0
  6 38  1  0
  9 39  1  0
 11 40  1  0
 12 41  1  0
 16 42  1  0
 21 43  1  1
 22 44  1  0
 24 45  1  0
 25 46  1  0
 28 47  1  0
 29 48  1  0
M  END
$$$$
[H]c1c([H])c(N([H])C([H])([H])c2c([H])c([H])c3nc(N([H])[H])nc(N([H])[H])c3c2[H])c([H])c2c1N([H])C(=O)C([H])([H])C2([H])[H]
     RDKit          3D

 43 46  0  0  0  0  0  0  0  0999 V2000
   -7.8785    1.4635    0.0768 N   0  0  0  0  0  0  0  0  0  0  0  0
   -6.4944    1.0626    0.1320 C   0  0  0  0  0  0  0  0  0  0  0  0
   -6.1468   -0.2262   -0.0426 N   0  0  0  0  0  0  0  0  0  0  0  0
   -4.8913   -0.6600   -0.0038 C   0  0  0  0  0  0  0  0  0  0  0  0
   -4.5050   -2.0084   -0.1847 N   0  0  0  0  0  0  0  0  0  0  0  0
   -3.8934    0.2653    0.2286 C   0  0  0  0  0  0  0  0  0  0  0  0
   -2.5778   -0.1456    0.2763 C   0  0  0  0  0  0  0  0  0  0  0  0
   -1.5932    0.7930    0.5098 C   0  0  0  0  0  0  0  0  0  0  0  0
   -0.1736    0.3676    0.5641 C   0  0  0  0  0  0  0  0  0  0  0  0
    0.4647    0.4177   -0.7238 N   0  0  0  0  0  0  0  0  0  0  0  0
    1.8141    0.0454   -0.8487 C   0  0  0  0  0  0  0  0  0  0  0  0
    2.4234    0.0938   -2.0768 C   0  0  0  0  0  0  0  0  0  0  0  0
    3.7483   -0.2793   -2.1566 C   0  0  0  0  0  0  0  0  0  0  0  0
    4.4825   -0.6988   -1.0489 C   0  0  0  0  0  0  0  0  0  0  0  0
    5.8621   -1.0572   -1.1787 N   0  0  0  0  0  0  0  0  0  0  0  0
    6.5414   -1.4520    0.0081 C   0  0  0  0  0  0  0  0  0  0  0  0
    7.5030   -2.2289    0.0443 O   0  0  0  0  0  0  0  0  0  0  0  0
    6.0209   -0.8619    1.2644 C   0  0  0  0  0  0  0  0  0  0  0  0
    4.5560   -1.1918    1.3742 C   0  0  0  0  0  0  0  0  0  0  0  0
    3.8522   -0.7389    0.1634 C   0  0  0  0  0  0  0  0  0  0  0  0
    2.5186   -0.3649    0.2541 C   0  0  0  0  0  0  0  0  0  0  0  0
   -1.9570    2.1079    0.6871 C   0  0  0  0  0  0  0  0  0  0  0  0
   -3.2604    2.5534    0.6460 C   0  0  0  0  0  0  0  0  0  0  0  0
   -4.2426    1.5918    0.4091 C   0  0  0  0  0  0  0  0  0  0  0  0
   -5.5199    1.9600    0.3580 N   0  0  0  0  0  0  0  0  0  0  0  0
   -8.5431    1.1076   -0.6209 H   0  0  0  0  0  0  0  0  0  0  0  0
   -8.1850    2.1502    0.7962 H   0  0  0  0  0  0  0  0  0  0  0  0
   -4.7684   -2.7617    0.4749 H   0  0  0  0  0  0  0  0  0  0  0  0
   -3.9334   -2.2514   -1.0138 H   0  0  0  0  0  0  0  0  0  0  0  0
   -2.3447   -1.1874    0.1311 H   0  0  0  0  0  0  0  0  0  0  0  0
   -0.1255   -0.7101    0.8990 H   0  0  0  0  0  0  0  0  0  0  0  0
    0.3297    0.9597    1.3395 H   0  0  0  0  0  0  0  0  0  0  0  0
   -0.0921    0.7324   -1.5466 H   0  0  0  0  0  0  0  0  0  0  0  0
    1.8458    0.4192   -2.9233 H   0  0  0  0  0  0  0  0  0  0  0  0
    4.2633   -0.2556   -3.1012 H   0  0  0  0  0  0  0  0  0  0  0  0
    6.3487   -1.0347   -2.0944 H   0  0  0  0  0  0  0  0  0  0  0  0
    6.5938   -1.2187    2.1455 H   0  0  0  0  0  0  0  0  0  0  0  0
    6.0844    0.2647    1.2340 H   0  0  0  0  0  0  0  0  0  0  0  0
    4.1193   -0.7268    2.2879 H   0  0  0  0  0  0  0  0  0  0  0  0
    4.4166   -2.3099    1.4018 H   0  0  0  0  0  0  0  0  0  0  0  0
    2.0739   -0.4184    1.2486 H   0  0  0  0  0  0  0  0  0  0  0  0
   -1.1896    2.8521    0.8711 H   0  0  0  0  0  0  0  0  0  0  0  0
   -3.5469    3.5806    0.7844 H   0  0  0  0  0  0  0  0  0  0  0  0
  1  2  1  0
  2  3  2  0
  3  4  1  0
  4  5  1  0
  4  6  2  0
  6  7  1  0
  7  8  2  0
  8  9  1  0
  9 10  1  0
 10 11  1  0
 11 12  2  0
 12 13  1  0
 13 14  2  0
 14 15  1  0
 15 16  1  0
 16 17  2  0
 16 18  1  0
 18 19  1  0
 19 20  1  0
 20 21  2  0
  8 22  1  0
 22 23  2  0
 23 24  1  0
 24 25  2  0
 25  2  1  0
 24  6  1  0
 21 11  1  0
 20 14  1  0
  1 26  1  0
  1 27  1  0
  5 28  1  0
  5 29  1  0
  7 30  1  0
  9 31  1  0
  9 32  1  0
 10 33  1  0
 12 34  1  0
 13 35  1  0
 15 36  1  0
 18 37  1  0
 18 38  1  0
 19 39  1  0
 19 40  1  0
 21 41  1  0
 22 42  1  0
 23 43  1  0
M  END
$$$$
[H]c1nc(N([H])c2c([H])c([H])c(N3C([H])([H])C([H])([H])OC([H])([H])C3([H])[H])c([H])c2OC([H])([H])[H])nc(N([H])c2c([H])c([H])c([H])c([H])c2S(=O)(=O)C2([H])C([H])([H])C2([H])[H])c1Cl
     RDKit          3D

 61 65  0  0  0  0  0  0  0  0999 V2000
    2.9059    3.1560    1.6524 C   0  0  0  0  0  0  0  0  0  0  0  0
    2.1378    2.0814    1.1685 O   0  0  0  0  0  0  0  0  0  0  0  0
    2.7718    1.0002    0.5375 C   0  0  0  0  0  0  0  0  0  0  0  0
    4.1375    1.0259    0.4115 C   0  0  0  0  0  0  0  0  0  0  0  0
    4.8379    0.0096   -0.1923 C   0  0  0  0  0  0  0  0  0  0  0  0
    4.0917   -1.0383   -0.6649 C   0  0  0  0  0  0  0  0  0  0  0  0
    2.7098   -1.0859   -0.5486 C   0  0  0  0  0  0  0  0  0  0  0  0
    2.0285   -0.0757    0.0502 C   0  0  0  0  0  0  0  0  0  0  0  0
    0.6379   -0.0173    0.2240 N   0  0  0  0  0  0  0  0  0  0  0  0
   -0.3657   -0.9211   -0.1425 C   0  0  0  0  0  0  0  0  0  0  0  0
   -0.1601   -2.0800   -0.7675 N   0  0  0  0  0  0  0  0  0  0  0  0
   -1.1708   -2.9033   -1.0891 C   0  0  0  0  0  0  0  0  0  0  0  0
   -2.4600   -2.5875   -0.7884 C   0  0  0  0  0  0  0  0  0  0  0  0
   -3.7967   -3.6732   -1.2115 Cl  0  0  0  0  0  0  0  0  0  0  0  0
   -2.7170   -1.3673   -0.1261 C   0  0  0  0  0  0  0  0  0  0  0  0
   -4.0533   -1.0448    0.1684 N   0  0  0  0  0  0  0  0  0  0  0  0
   -4.5207    0.0839    0.8193 C   0  0  0  0  0  0  0  0  0  0  0  0
   -3.7036    1.0107    1.4568 C   0  0  0  0  0  0  0  0  0  0  0  0
   -4.2198    2.1145    2.1386 C   0  0  0  0  0  0  0  0  0  0  0  0
   -5.5863    2.2611    2.1622 C   0  0  0  0  0  0  0  0  0  0  0  0
   -6.4153    1.3566    1.5384 C   0  0  0  0  0  0  0  0  0  0  0  0
   -5.9151    0.2593    0.8591 C   0  0  0  0  0  0  0  0  0  0  0  0
   -6.9805   -0.8332    0.0622 S   0  0  0  0  0  0  0  0  0  0  0  0
   -8.4191   -0.3599    0.3398 O   0  0  0  0  0  0  0  0  0  0  0  0
   -6.9572   -2.2378    0.6265 O   0  0  0  0  0  0  0  0  0  0  0  0
   -6.8113   -0.9202   -1.6794 C   0  0  0  0  0  0  0  0  0  0  0  0
   -7.7226   -0.1601   -2.5760 C   0  0  0  0  0  0  0  0  0  0  0  0
   -7.9950   -1.6407   -2.3633 C   0  0  0  0  0  0  0  0  0  0  0  0
   -1.6396   -0.6362    0.1405 N   0  0  0  0  0  0  0  0  0  0  0  0
    6.2625    0.0390   -0.3218 N   0  0  0  0  0  0  0  0  0  0  0  0
    6.9631    1.1812    0.1958 C   0  0  0  0  0  0  0  0  0  0  0  0
    8.4081    1.2684   -0.1397 C   0  0  0  0  0  0  0  0  0  0  0  0
    8.8411    0.3843   -1.0936 O   0  0  0  0  0  0  0  0  0  0  0  0
    8.4577   -0.9119   -0.7220 C   0  0  0  0  0  0  0  0  0  0  0  0
    6.9810   -1.0361   -0.9479 C   0  0  0  0  0  0  0  0  0  0  0  0
    3.3970    3.7161    0.8086 H   0  0  0  0  0  0  0  0  0  0  0  0
    3.6980    2.8027    2.3576 H   0  0  0  0  0  0  0  0  0  0  0  0
    2.2546    3.8306    2.2304 H   0  0  0  0  0  0  0  0  0  0  0  0
    4.6928    1.8672    0.7956 H   0  0  0  0  0  0  0  0  0  0  0  0
    4.5748   -1.8702   -1.1501 H   0  0  0  0  0  0  0  0  0  0  0  0
    2.1723   -1.9435   -0.9434 H   0  0  0  0  0  0  0  0  0  0  0  0
    0.2627    0.8662    0.7217 H   0  0  0  0  0  0  0  0  0  0  0  0
   -0.9918   -3.8489   -1.6003 H   0  0  0  0  0  0  0  0  0  0  0  0
   -4.7657   -1.7719   -0.1393 H   0  0  0  0  0  0  0  0  0  0  0  0
   -2.6286    0.9306    1.4728 H   0  0  0  0  0  0  0  0  0  0  0  0
   -3.5519    2.8138    2.6218 H   0  0  0  0  0  0  0  0  0  0  0  0
   -5.9644    3.1354    2.7045 H   0  0  0  0  0  0  0  0  0  0  0  0
   -7.5005    1.5011    1.5755 H   0  0  0  0  0  0  0  0  0  0  0  0
   -5.8509   -1.2222   -2.0858 H   0  0  0  0  0  0  0  0  0  0  0  0
   -8.4552    0.5610   -2.1947 H   0  0  0  0  0  0  0  0  0  0  0  0
   -7.3274    0.0966   -3.5868 H   0  0  0  0  0  0  0  0  0  0  0  0
   -7.7628   -2.3246   -3.2074 H   0  0  0  0  0  0  0  0  0  0  0  0
   -8.8994   -1.8466   -1.7598 H   0  0  0  0  0  0  0  0  0  0  0  0
    6.4329    2.0802   -0.2444 H   0  0  0  0  0  0  0  0  0  0  0  0
    6.7544    1.2615    1.2856 H   0  0  0  0  0  0  0  0  0  0  0  0
    9.0472    1.1728    0.7688 H   0  0  0  0  0  0  0  0  0  0  0  0
    8.6470    2.2996   -0.5386 H   0  0  0  0  0  0  0  0  0  0  0  0
    9.0031   -1.6058   -1.4077 H   0  0  0  0  0  0  0  0  0  0  0  0
    8.7700   -1.1737    0.2997 H   0  0  0  0  0  0  0  0  0  0  0  0
    6.8074   -1.0050   -2.0638 H   0  0  0  0  0  0  0  0  0  0  0  0
    6.6216   -2.0244   -0.5850 H   0  0  0  0  0  0  0  0  0  0  0  0
  1  2  1  0
  2  3  1  0
  3  4  2  0
  4  5  1  0
  5  6  2  0
  6  7  1  0
  7  8  2  0
  8  9  1  0
  9 10  1  0
 10 11  2  0
 11 12  1  0
 12 13  2  0
 13 14  1  0
 13 15  1  0
 15 16  1  0
 16 17  1  0
 17 18  2  0
 18 19  1  0
 19 20  2  0
 20 21  1  0
 21 22  2  0
 22 23  1  0
 23 24  2  0
 23 25  2  0
 23 26  1  0
 26 27  1  0
 27 28  1  0
 15 29  2  0
  5 30  1  0
 30 31  1  0
 31 32  1  0
 32 33  1  0
 33 34  1  0
 34 35  1  0
  8  3  1  0
 29 10  1  0
 35 30  1  0
 22 17  1  0
 28 26  1  0
  1 36  1  0
  1 37  1  0
  1 38  1  0
  4 39  1  0
  6 40  1  0
  7 41  1  0
  9 42  1  0
 12 43  1  0
 16 44  1  0
 18 45  1  0
 19 46  1  0
 20 47  1  0
 21 48  1  0
 26 49  1  0
 27 50  1  0
 27 51  1  0
 28 52  1  0
 28 53  1  0
 31 54  1  0
 31 55  1  0
 32 56  1  0
 32 57  1  0
 34 58  1  0
 34 59  1  0
 35 60  1  0
 35 61  1  0
M  END
$$$$
[H]c1c([H])c2c(c([H])c1Cl)C(=O)N([H])C([H])([H])C([H])([H])N(C([H])([H])C([H])([H])OC([H])([H])[H])N2[H]
     RDKit          3D

 34 35  0  0  0  0  0  0  0  0999 V2000
    3.8500   -2.6047    0.0936 C   0  0  0  0  0  0  0  0  0  0  0  0
    2.9483   -2.2835   -0.9036 O   0  0  0  0  0  0  0  0  0  0  0  0
    2.3046   -1.0740   -0.5754 C   0  0  0  0  0  0  0  0  0  0  0  0
    1.3057   -0.6973   -1.6584 C   0  0  0  0  0  0  0  0  0  0  0  0
    0.6800    0.5221   -1.2931 N   0  0  0  0  0  0  0  0  0  0  0  0
   -0.2884    1.0437   -2.1773 C   0  0  0  0  0  0  0  0  0  0  0  0
   -1.4839    0.1921   -2.4335 C   0  0  0  0  0  0  0  0  0  0  0  0
   -2.6411    0.5623   -1.6353 N   0  0  0  0  0  0  0  0  0  0  0  0
   -2.8639    0.7533   -0.2245 C   0  0  0  0  0  0  0  0  0  0  0  0
   -4.0476    0.8944    0.1169 O   0  0  0  0  0  0  0  0  0  0  0  0
   -1.9439    0.8157    0.9196 C   0  0  0  0  0  0  0  0  0  0  0  0
   -2.7165    0.9014    2.0589 C   0  0  0  0  0  0  0  0  0  0  0  0
   -2.1570    0.9763    3.3192 C   0  0  0  0  0  0  0  0  0  0  0  0
   -3.1658    1.0859    4.7699 Cl  0  0  0  0  0  0  0  0  0  0  0  0
   -0.7806    0.9630    3.4100 C   0  0  0  0  0  0  0  0  0  0  0  0
   -0.0004    0.8761    2.2548 C   0  0  0  0  0  0  0  0  0  0  0  0
   -0.5624    0.8026    1.0149 C   0  0  0  0  0  0  0  0  0  0  0  0
    0.4795    0.7245    0.0480 N   0  0  0  0  0  0  0  0  0  0  0  0
    4.3601   -3.5474   -0.1498 H   0  0  0  0  0  0  0  0  0  0  0  0
    3.3507   -2.6320    1.1021 H   0  0  0  0  0  0  0  0  0  0  0  0
    4.6121   -1.7927    0.1469 H   0  0  0  0  0  0  0  0  0  0  0  0
    1.8654   -1.1064    0.4246 H   0  0  0  0  0  0  0  0  0  0  0  0
    3.0959   -0.2937   -0.6032 H   0  0  0  0  0  0  0  0  0  0  0  0
    0.5409   -1.5072   -1.6635 H   0  0  0  0  0  0  0  0  0  0  0  0
    1.8689   -0.6622   -2.6016 H   0  0  0  0  0  0  0  0  0  0  0  0
    0.2270    1.2720   -3.1568 H   0  0  0  0  0  0  0  0  0  0  0  0
   -0.6293    2.0244   -1.8008 H   0  0  0  0  0  0  0  0  0  0  0  0
   -1.2947   -0.9041   -2.3115 H   0  0  0  0  0  0  0  0  0  0  0  0
   -1.8164    0.2905   -3.5084 H   0  0  0  0  0  0  0  0  0  0  0  0
   -3.5231    0.7364   -2.1616 H   0  0  0  0  0  0  0  0  0  0  0  0
   -3.7780    0.9099    1.9600 H   0  0  0  0  0  0  0  0  0  0  0  0
   -0.2894    1.0188    4.3645 H   0  0  0  0  0  0  0  0  0  0  0  0
    1.0884    0.8641    2.3055 H   0  0  0  0  0  0  0  0  0  0  0  0
    1.4048    0.8758    0.5490 H   0  0  0  0  0  0  0  0  0  0  0  0
  1  2  1  0
  2  3  1  0
  3  4  1  0
  4  5  1  0
  5  6  1  0
  6  7  1  0
  7  8  1  0
  8  9  1  0
  9 10  2  0
  9 11  1  0
 11 12  2  0
 12 13  1  0
 13 14  1  0
 13 15  2  0
 15 16  1  0
 16 17  2  0
 17 18  1  0
 18  5  1  0
 17 11  1  0
  1 19  1  0
  1 20  1  0
  1 21  1  0
  3 22  1  0
  3 23  1  0
  4 24  1  0
  4 25  1  0
  6 26  1  0
  6 27  1  0
  7 28  1  0
  7 29  1  0
  8 30  1  0
 12 31  1  0
 15 32  1  0
 16 33  1  0
 18 34  1  0
M  END
$$$$
[H]Oc1c([H])c([H])c(C([H])([H])[C@@]([H])(C(=O)N([H])[C@]2([H])[C@@]3([H])C([H])([H])[C@]([H])(O[H])C([H])([H])[C@@]3([H])[C@@]2([H])C(=O)N([H])c2c([H])c([H])c(F)c([H])c2[H])N([H])[H])c([H])c1[H]
     RDKit          3D

 57 60  0  0  0  0  0  0  0  0999 V2000
    3.1692    0.3182   -1.6736 N   0  0  0  0  0  0  0  0  0  0  0  0
    2.5115   -0.1625   -0.4753 C   0  0  1  0  0  0  0  0  0  0  0  0
    3.4116    0.2301    0.6987 C   0  0  0  0  0  0  0  0  0  0  0  0
    4.7395   -0.3829    0.5610 C   0  0  0  0  0  0  0  0  0  0  0  0
    5.0377   -1.6313    1.0911 C   0  0  0  0  0  0  0  0  0  0  0  0
    6.2936   -2.2069    0.9589 C   0  0  0  0  0  0  0  0  0  0  0  0
    7.2847   -1.5426    0.2896 C   0  0  0  0  0  0  0  0  0  0  0  0
    8.5610   -2.0709    0.1266 O   0  0  0  0  0  0  0  0  0  0  0  0
    7.0048   -0.2894   -0.2491 C   0  0  0  0  0  0  0  0  0  0  0  0
    5.7524    0.2718   -0.1108 C   0  0  0  0  0  0  0  0  0  0  0  0
    1.1881    0.4694   -0.3548 C   0  0  0  0  0  0  0  0  0  0  0  0
    0.8005    1.2787   -1.2166 O   0  0  0  0  0  0  0  0  0  0  0  0
    0.3182    0.1782    0.7398 N   0  0  0  0  0  0  0  0  0  0  0  0
   -0.9793    0.7977    0.8584 C   0  0  2  0  0  0  0  0  0  0  0  0
   -1.2399    1.3517    2.2728 C   0  0  1  0  0  0  0  0  0  0  0  0
   -1.2640    2.8272    2.4036 C   0  0  0  0  0  0  0  0  0  0  0  0
   -2.7031    3.2761    2.2596 C   0  0  2  0  0  0  0  0  0  0  0  0
   -3.3774    3.3939    3.4443 O   0  0  0  0  0  0  0  0  0  0  0  0
   -3.2501    2.1098    1.3927 C   0  0  0  0  0  0  0  0  0  0  0  0
   -2.6966    0.8889    2.0010 C   0  0  1  0  0  0  0  0  0  0  0  0
   -2.0670   -0.1932    1.2372 C   0  0  1  0  0  0  0  0  0  0  0  0
   -2.7197   -0.9623    0.2149 C   0  0  0  0  0  0  0  0  0  0  0  0
   -2.6984   -2.2391    0.3371 O   0  0  0  0  0  0  0  0  0  0  0  0
   -3.3828   -0.4684   -0.9093 N   0  0  0  0  0  0  0  0  0  0  0  0
   -4.0315   -1.1404   -1.9456 C   0  0  0  0  0  0  0  0  0  0  0  0
   -4.9994   -0.4818   -2.7313 C   0  0  0  0  0  0  0  0  0  0  0  0
   -5.6266   -1.1201   -3.7680 C   0  0  0  0  0  0  0  0  0  0  0  0
   -5.3520   -2.4264   -4.0995 C   0  0  0  0  0  0  0  0  0  0  0  0
   -6.0039   -3.0211   -5.1423 F   0  0  0  0  0  0  0  0  0  0  0  0
   -4.4150   -3.0890   -3.3520 C   0  0  0  0  0  0  0  0  0  0  0  0
   -3.7696   -2.4314   -2.2854 C   0  0  0  0  0  0  0  0  0  0  0  0
    3.4362    1.3190   -1.6032 H   0  0  0  0  0  0  0  0  0  0  0  0
    2.6100    0.1018   -2.5312 H   0  0  0  0  0  0  0  0  0  0  0  0
    2.3939   -1.2605   -0.5467 H   0  0  0  0  0  0  0  0  0  0  0  0
    3.5307    1.3212    0.6636 H   0  0  0  0  0  0  0  0  0  0  0  0
    2.8852   -0.0840    1.6159 H   0  0  0  0  0  0  0  0  0  0  0  0
    4.2459   -2.1413    1.6155 H   0  0  0  0  0  0  0  0  0  0  0  0
    6.5087   -3.1704    1.3730 H   0  0  0  0  0  0  0  0  0  0  0  0
    9.2624   -1.8573    0.8527 H   0  0  0  0  0  0  0  0  0  0  0  0
    7.8134    0.2183   -0.7778 H   0  0  0  0  0  0  0  0  0  0  0  0
    5.5923    1.2485   -0.5500 H   0  0  0  0  0  0  0  0  0  0  0  0
    0.6370   -0.4920    1.4552 H   0  0  0  0  0  0  0  0  0  0  0  0
   -1.1799    1.4759    0.0379 H   0  0  0  0  0  0  0  0  0  0  0  0
   -0.7278    0.7587    3.0298 H   0  0  0  0  0  0  0  0  0  0  0  0
   -0.5779    3.3503    1.7153 H   0  0  0  0  0  0  0  0  0  0  0  0
   -0.9427    3.0949    3.4328 H   0  0  0  0  0  0  0  0  0  0  0  0
   -2.6943    4.2214    1.6829 H   0  0  0  0  0  0  0  0  0  0  0  0
   -4.0389    2.6692    3.5263 H   0  0  0  0  0  0  0  0  0  0  0  0
   -4.3601    2.1619    1.5383 H   0  0  0  0  0  0  0  0  0  0  0  0
   -2.9413    2.3882    0.3917 H   0  0  0  0  0  0  0  0  0  0  0  0
   -3.2171    0.6143    2.9475 H   0  0  0  0  0  0  0  0  0  0  0  0
   -1.5649   -0.8922    1.9984 H   0  0  0  0  0  0  0  0  0  0  0  0
   -3.3897    0.6000   -0.9942 H   0  0  0  0  0  0  0  0  0  0  0  0
   -5.1976    0.5422   -2.4503 H   0  0  0  0  0  0  0  0  0  0  0  0
   -6.3661   -0.5894   -4.3549 H   0  0  0  0  0  0  0  0  0  0  0  0
   -4.1827   -4.1164   -3.5939 H   0  0  0  0  0  0  0  0  0  0  0  0
   -3.0314   -3.0141   -1.7533 H   0  0  0  0  0  0  0  0  0  0  0  0
  1  2  1  0
  2  3  1  0
  3  4  1  0
  4  5  2  0
  5  6  1  0
  6  7  2  0
  7  8  1  0
  7  9  1  0
  9 10  2  0
  2 11  1  0
 11 12  2  0
 11 13  1  0
 13 14  1  0
 14 15  1  0
 15 16  1  0
 16 17  1  0
 17 18  1  0
 17 19  1  0
 19 20  1  0
 20 21  1  0
 21 22  1  0
 22 23  2  0
 22 24  1  0
 24 25  1  0
 25 26  2  0
 26 27  1  0
 27 28  2  0
 28 29  1  0
 28 30  1  0
 30 31  2  0
 10  4  1  0
 21 14  1  0
 31 25  1  0
 20 15  1  0
  1 32  1  0
  1 33  1  0
  2 34  1  6
  3 35  1  0
  3 36  1  0
  5 37  1  0
  6 38  1  0
  8 39  1  0
  9 40  1  0
 10 41  1  0
 13 42  1  0
 14 43  1  6
 15 44  1  1
 16 45  1  0
 16 46  1  0
 17 47  1  6
 18 48  1  0
 19 49  1  0
 19 50  1  0
 20 51  1  1
 21 52  1  1
 24 53  1  0
 26 54  1  0
 27 55  1  0
 30 56  1  0
 31 57  1  0
M  END
$$$$
[H]c1nc2c(C([H])([H])[H])c([H])c(-c3c(C([H])(C([H])([H])[H])C([H])([H])[H])c4c([H])c(C5([H])C([H])([H])C([H])([H])N(C([H])([H])C([H])([H])S(=O)(=O)N6C([H])([H])C6([H])[H])C([H])([H])C5([H])[H])c([H])c([H])c4n3[H])c([H])n2n1
     RDKit          3D

 70 75  0  0  0  0  0  0  0  0999 V2000
   -1.7425    2.1857   -0.5666 C   0  0  0  0  0  0  0  0  0  0  0  0
   -2.9814    1.3100   -0.6230 C   0  0  0  0  0  0  0  0  0  0  0  0
   -3.1714    0.8370   -2.0773 C   0  0  0  0  0  0  0  0  0  0  0  0
   -2.9492    0.0990    0.1995 C   0  0  0  0  0  0  0  0  0  0  0  0
   -4.0521   -0.6589    0.5841 C   0  0  0  0  0  0  0  0  0  0  0  0
   -3.5471   -1.7393    1.2701 N   0  0  0  0  0  0  0  0  0  0  0  0
   -2.2376   -1.6773    1.3198 C   0  0  0  0  0  0  0  0  0  0  0  0
   -1.3602   -2.5901    1.9184 C   0  0  0  0  0  0  0  0  0  0  0  0
   -0.0285   -2.3447    1.8457 C   0  0  0  0  0  0  0  0  0  0  0  0
    0.4344   -1.2136    1.1905 C   0  0  0  0  0  0  0  0  0  0  0  0
   -0.4399   -0.3253    0.6076 C   0  0  0  0  0  0  0  0  0  0  0  0
   -1.7915   -0.5412    0.6633 C   0  0  0  0  0  0  0  0  0  0  0  0
    1.9038   -1.0189    1.1501 C   0  0  0  0  0  0  0  0  0  0  0  0
    2.3199   -1.1022   -0.3133 C   0  0  0  0  0  0  0  0  0  0  0  0
    3.8550   -1.1478   -0.2804 C   0  0  0  0  0  0  0  0  0  0  0  0
    4.2965    0.1558    0.1488 N   0  0  0  0  0  0  0  0  0  0  0  0
    5.7441    0.2884    0.2148 C   0  0  0  0  0  0  0  0  0  0  0  0
    6.2927    0.2510   -1.1754 C   0  0  0  0  0  0  0  0  0  0  0  0
    8.0373    0.3702   -1.3027 S   0  0  0  0  0  0  0  0  0  0  0  0
    8.3691    0.3499   -2.7862 O   0  0  0  0  0  0  0  0  0  0  0  0
    8.7157   -0.8682   -0.7374 O   0  0  0  0  0  0  0  0  0  0  0  0
    8.7147    1.7704   -0.6529 N   0  0  0  0  0  0  0  0  0  0  0  0
    8.5675    2.0387    0.8110 C   0  0  0  0  0  0  0  0  0  0  0  0
    9.8493    1.6607    0.2235 C   0  0  0  0  0  0  0  0  0  0  0  0
    3.7888    0.5206    1.4587 C   0  0  0  0  0  0  0  0  0  0  0  0
    2.3171    0.3586    1.6196 C   0  0  0  0  0  0  0  0  0  0  0  0
   -5.4779   -0.5241    0.3318 C   0  0  0  0  0  0  0  0  0  0  0  0
   -6.1333    0.6204    0.0562 C   0  0  0  0  0  0  0  0  0  0  0  0
   -7.5008    0.5830   -0.2376 C   0  0  0  0  0  0  0  0  0  0  0  0
   -8.2320    1.8633   -0.5461 C   0  0  0  0  0  0  0  0  0  0  0  0
   -8.1627   -0.6043   -0.2425 C   0  0  0  0  0  0  0  0  0  0  0  0
   -9.4618   -0.9025   -0.4905 N   0  0  0  0  0  0  0  0  0  0  0  0
   -9.5817   -2.2450   -0.3589 C   0  0  0  0  0  0  0  0  0  0  0  0
   -8.3997   -2.7707   -0.0395 N   0  0  0  0  0  0  0  0  0  0  0  0
   -7.5494   -1.7500    0.0258 N   0  0  0  0  0  0  0  0  0  0  0  0
   -6.2437   -1.7033    0.3040 C   0  0  0  0  0  0  0  0  0  0  0  0
   -0.9924    1.9575   -1.3193 H   0  0  0  0  0  0  0  0  0  0  0  0
   -1.3969    2.2763    0.4695 H   0  0  0  0  0  0  0  0  0  0  0  0
   -2.0511    3.2648   -0.8233 H   0  0  0  0  0  0  0  0  0  0  0  0
   -3.8100    1.9996   -0.4142 H   0  0  0  0  0  0  0  0  0  0  0  0
   -2.8992   -0.2280   -2.1730 H   0  0  0  0  0  0  0  0  0  0  0  0
   -4.2320    0.9564   -2.3279 H   0  0  0  0  0  0  0  0  0  0  0  0
   -2.6025    1.5050   -2.7629 H   0  0  0  0  0  0  0  0  0  0  0  0
   -4.1612   -2.4707    1.6795 H   0  0  0  0  0  0  0  0  0  0  0  0
   -1.7567   -3.4749    2.4286 H   0  0  0  0  0  0  0  0  0  0  0  0
    0.6567   -3.0666    2.3183 H   0  0  0  0  0  0  0  0  0  0  0  0
   -0.0224    0.5055    0.1125 H   0  0  0  0  0  0  0  0  0  0  0  0
    2.4453   -1.7975    1.6811 H   0  0  0  0  0  0  0  0  0  0  0  0
    1.9072   -1.9738   -0.8296 H   0  0  0  0  0  0  0  0  0  0  0  0
    2.0768   -0.1537   -0.8528 H   0  0  0  0  0  0  0  0  0  0  0  0
    4.1833   -1.3660   -1.2928 H   0  0  0  0  0  0  0  0  0  0  0  0
    4.1434   -1.9408    0.4631 H   0  0  0  0  0  0  0  0  0  0  0  0
    6.2263   -0.4300    0.8954 H   0  0  0  0  0  0  0  0  0  0  0  0
    5.9228    1.3079    0.6441 H   0  0  0  0  0  0  0  0  0  0  0  0
    5.9972   -0.6918   -1.7253 H   0  0  0  0  0  0  0  0  0  0  0  0
    5.8629    1.0779   -1.7987 H   0  0  0  0  0  0  0  0  0  0  0  0
    8.2706    3.0789    1.0189 H   0  0  0  0  0  0  0  0  0  0  0  0
    8.0866    1.2842    1.4414 H   0  0  0  0  0  0  0  0  0  0  0  0
   10.6727    2.4202    0.0795 H   0  0  0  0  0  0  0  0  0  0  0  0
   10.2718    0.6717    0.4890 H   0  0  0  0  0  0  0  0  0  0  0  0
    4.0410    1.5900    1.6070 H   0  0  0  0  0  0  0  0  0  0  0  0
    4.3467   -0.0191    2.2717 H   0  0  0  0  0  0  0  0  0  0  0  0
    1.7363    1.1351    1.1210 H   0  0  0  0  0  0  0  0  0  0  0  0
    2.0987    0.3871    2.7146 H   0  0  0  0  0  0  0  0  0  0  0  0
   -5.7055    1.6023    0.0698 H   0  0  0  0  0  0  0  0  0  0  0  0
   -7.7733    2.6425    0.1011 H   0  0  0  0  0  0  0  0  0  0  0  0
   -9.3077    1.7844   -0.2899 H   0  0  0  0  0  0  0  0  0  0  0  0
   -8.1310    2.0774   -1.6286 H   0  0  0  0  0  0  0  0  0  0  0  0
  -10.5120   -2.7928   -0.4972 H   0  0  0  0  0  0  0  0  0  0  0  0
   -5.7536   -2.6545    0.5159 H   0  0  0  0  0  0  0  0  0  0  0  0
  1  2  1  0
  2  3  1  0
  2  4  1  0
  4  5  2  0
  5  6  1  0
  6  7  1  0
  7  8  2  0
  8  9  1  0
  9 10  2  0
 10 11  1  0
 11 12  2  0
 10 13  1  0
 13 14  1  0
 14 15  1  0
 15 16  1  0
 16 17  1  0
 17 18  1  0
 18 19  1  0
 19 20  2  0
 19 21  2  0
 19 22  1  0
 22 23  1  0
 23 24  1  0
 16 25  1  0
 25 26  1  0
  5 27  1  0
 27 28  1  0
 28 29  2  0
 29 30  1  0
 29 31  1  0
 31 32  2  0
 32 33  1  0
 33 34  2  0
 34 35  1  0
 35 36  1  0
 12  4  1  0
 26 13  1  0
 36 27  2  0
 12  7  1  0
 24 22  1  0
 35 31  1  0
  1 37  1  0
  1 38  1  0
  1 39  1  0
  2 40  1  0
  3 41  1  0
  3 42  1  0
  3 43  1  0
  6 44  1  0
  8 45  1  0
  9 46  1  0
 11 47  1  0
 13 48  1  0
 14 49  1  0
 14 50  1  0
 15 51  1  0
 15 52  1  0
 17 53  1  0
 17 54  1  0
 18 55  1  0
 18 56  1  0
 23 57  1  0
 23 58  1  0
 24 59  1  0
 24 60  1  0
 25 61  1  0
 25 62  1  0
 26 63  1  0
 26 64  1  0
 28 65  1  0
 30 66  1  0
 30 67  1  0
 30 68  1  0
 33 69  1  0
 36 70  1  0
M  END
$$$$
[H]c1c([H])c([H])c(C(=O)N([H])c2c([H])c([H])c(C(F)(F)F)c([H])c2[H])c(C(=O)N([H])c2c([H])c([H])c(F)c([H])c2[H])c1[H]
     RDKit          3D

 43 45  0  0  0  0  0  0  0  0999 V2000
   -0.4536   -3.3207   -0.3627 C   0  0  0  0  0  0  0  0  0  0  0  0
    0.0401   -2.0470    0.0950 C   0  0  0  0  0  0  0  0  0  0  0  0
   -0.9908   -1.0803    0.4541 C   0  0  0  0  0  0  0  0  0  0  0  0
   -1.0136   -0.5854    1.5870 O   0  0  0  0  0  0  0  0  0  0  0  0
   -1.9776   -0.7341   -0.5094 N   0  0  0  0  0  0  0  0  0  0  0  0
   -3.0743    0.1043   -0.2336 C   0  0  0  0  0  0  0  0  0  0  0  0
   -3.8024   -0.0943    0.9632 C   0  0  0  0  0  0  0  0  0  0  0  0
   -4.9036    0.6368    1.2804 C   0  0  0  0  0  0  0  0  0  0  0  0
   -5.3675    1.6302    0.4237 C   0  0  0  0  0  0  0  0  0  0  0  0
   -6.5897    2.4133    0.7723 C   0  0  0  0  0  0  0  0  0  0  0  0
   -6.7463    3.4400   -0.1187 F   0  0  0  0  0  0  0  0  0  0  0  0
   -7.6856    1.5510    0.6324 F   0  0  0  0  0  0  0  0  0  0  0  0
   -6.5141    2.9254    2.0488 F   0  0  0  0  0  0  0  0  0  0  0  0
   -4.6708    1.8387   -0.7462 C   0  0  0  0  0  0  0  0  0  0  0  0
   -3.5303    1.0767   -1.0626 C   0  0  0  0  0  0  0  0  0  0  0  0
    1.3702   -1.9672    0.1861 C   0  0  0  0  0  0  0  0  0  0  0  0
    2.1645   -0.7717    0.5930 C   0  0  0  0  0  0  0  0  0  0  0  0
    1.9943   -0.2519    1.7148 O   0  0  0  0  0  0  0  0  0  0  0  0
    3.1063   -0.2803   -0.3395 N   0  0  0  0  0  0  0  0  0  0  0  0
    3.9861    0.7844   -0.2007 C   0  0  0  0  0  0  0  0  0  0  0  0
    4.4602    1.4523   -1.3439 C   0  0  0  0  0  0  0  0  0  0  0  0
    5.3791    2.4762   -1.2779 C   0  0  0  0  0  0  0  0  0  0  0  0
    5.8588    2.8650   -0.0608 C   0  0  0  0  0  0  0  0  0  0  0  0
    6.7623    3.8849    0.0450 F   0  0  0  0  0  0  0  0  0  0  0  0
    5.4339    2.2487    1.1123 C   0  0  0  0  0  0  0  0  0  0  0  0
    4.5202    1.2420    1.0023 C   0  0  0  0  0  0  0  0  0  0  0  0
    2.2058   -3.0689   -0.1476 C   0  0  0  0  0  0  0  0  0  0  0  0
    1.6714   -4.2568   -0.5792 C   0  0  0  0  0  0  0  0  0  0  0  0
    0.3243   -4.3690   -0.6802 C   0  0  0  0  0  0  0  0  0  0  0  0
   -1.5485   -3.3507   -0.4334 H   0  0  0  0  0  0  0  0  0  0  0  0
   -1.8511   -1.1420   -1.4903 H   0  0  0  0  0  0  0  0  0  0  0  0
   -3.4425   -0.8801    1.6222 H   0  0  0  0  0  0  0  0  0  0  0  0
   -5.4246    0.4675    2.1873 H   0  0  0  0  0  0  0  0  0  0  0  0
   -5.0457    2.6187   -1.4049 H   0  0  0  0  0  0  0  0  0  0  0  0
   -3.0370    1.2895   -1.9949 H   0  0  0  0  0  0  0  0  0  0  0  0
    3.1495   -0.7997   -1.2758 H   0  0  0  0  0  0  0  0  0  0  0  0
    4.0915    1.1516   -2.3249 H   0  0  0  0  0  0  0  0  0  0  0  0
    5.7251    2.9756   -2.1812 H   0  0  0  0  0  0  0  0  0  0  0  0
    5.8471    2.5834    2.0605 H   0  0  0  0  0  0  0  0  0  0  0  0
    4.1825    0.7452    1.9137 H   0  0  0  0  0  0  0  0  0  0  0  0
    3.2726   -2.9925   -0.0668 H   0  0  0  0  0  0  0  0  0  0  0  0
    2.2867   -5.1248   -0.8405 H   0  0  0  0  0  0  0  0  0  0  0  0
   -0.1627   -5.2842   -1.0184 H   0  0  0  0  0  0  0  0  0  0  0  0
  1  2  2  0
  2  3  1  0
  3  4  2  0
  3  5  1  0
  5  6  1  0
  6  7  2  0
  7  8  1  0
  8  9  2  0
  9 10  1  0
 10 11  1  0
 10 12  1  0
 10 13  1  0
  9 14  1  0
 14 15  2  0
  2 16  1  0
 16 17  1  0
 17 18  2  0
 17 19  1  0
 19 20  1  0
 20 21  2  0
 21 22  1  0
 22 23  2  0
 23 24  1  0
 23 25  1  0
 25 26  2  0
 16 27  2  0
 27 28  1  0
 28 29  2  0
 29  1  1  0
 15  6  1  0
 26 20  1  0
  1 30  1  0
  5 31  1  0
  7 32  1  0
  8 33  1  0
 14 34  1  0
 15 35  1  0
 19 36  1  0
 21 37  1  0
 22 38  1  0
 25 39  1  0
 26 40  1  0
 27 41  1  0
 28 42  1  0
 29 43  1  0
M  END
$$$$
[H]OC(=O)[C@@]([H])(N([H])C(=O)[C@](c1c([H])c([H])c([H])c([H])c1[H])(C([H])([H])[H])C([H])([H])c1c([H])c([H])c([H])c(O[H])c1[H])C([H])([H])c1c([H])c([H])c([H])c([H])c1[H]
     RDKit          3D

 55 57  0  0  0  0  0  0  0  0999 V2000
    0.1175   -1.9602    0.9389 C   0  0  0  0  0  0  0  0  0  0  0  0
    1.0520   -0.9601    0.2771 C   0  0  2  0  0  0  0  0  0  0  0  0
    1.4472    0.0364    1.4188 C   0  0  0  0  0  0  0  0  0  0  0  0
    2.3110    1.1266    0.9130 C   0  0  0  0  0  0  0  0  0  0  0  0
    1.6980    2.2844    0.4041 C   0  0  0  0  0  0  0  0  0  0  0  0
    2.4707    3.3158   -0.0746 C   0  0  0  0  0  0  0  0  0  0  0  0
    3.8268    3.2507   -0.0714 C   0  0  0  0  0  0  0  0  0  0  0  0
    4.4746    2.1471    0.4105 C   0  0  0  0  0  0  0  0  0  0  0  0
    5.8651    2.0908    0.4115 O   0  0  0  0  0  0  0  0  0  0  0  0
    3.6738    1.1013    0.8949 C   0  0  0  0  0  0  0  0  0  0  0  0
    0.3504   -0.1663   -0.6829 C   0  0  0  0  0  0  0  0  0  0  0  0
    0.7648    0.3084   -1.7722 O   0  0  0  0  0  0  0  0  0  0  0  0
   -1.0374    0.1687   -0.3949 N   0  0  0  0  0  0  0  0  0  0  0  0
   -1.8185    1.0081   -1.2257 C   0  0  1  0  0  0  0  0  0  0  0  0
   -3.0187    0.5404   -1.8809 C   0  0  0  0  0  0  0  0  0  0  0  0
   -4.2212    0.1745   -1.1739 C   0  0  0  0  0  0  0  0  0  0  0  0
   -5.2122    1.1895   -1.0748 C   0  0  0  0  0  0  0  0  0  0  0  0
   -6.4004    0.9868   -0.4550 C   0  0  0  0  0  0  0  0  0  0  0  0
   -6.7062   -0.2478    0.1155 C   0  0  0  0  0  0  0  0  0  0  0  0
   -5.7431   -1.2087    0.0081 C   0  0  0  0  0  0  0  0  0  0  0  0
   -4.5044   -1.0259   -0.6190 C   0  0  0  0  0  0  0  0  0  0  0  0
   -2.2640    2.1441   -0.2679 C   0  0  0  0  0  0  0  0  0  0  0  0
   -3.1434    1.7516    0.7157 O   0  0  0  0  0  0  0  0  0  0  0  0
   -1.8492    3.2814   -0.3747 O   0  0  0  0  0  0  0  0  0  0  0  0
    2.2439   -1.7012   -0.0570 C   0  0  0  0  0  0  0  0  0  0  0  0
    2.8905   -1.8535   -1.2353 C   0  0  0  0  0  0  0  0  0  0  0  0
    3.9991   -2.6474   -1.4270 C   0  0  0  0  0  0  0  0  0  0  0  0
    4.5370   -3.3623   -0.3821 C   0  0  0  0  0  0  0  0  0  0  0  0
    3.9043   -3.2360    0.8409 C   0  0  0  0  0  0  0  0  0  0  0  0
    2.8050   -2.4435    1.0096 C   0  0  0  0  0  0  0  0  0  0  0  0
   -0.4579   -1.5412    1.7688 H   0  0  0  0  0  0  0  0  0  0  0  0
    0.6125   -2.9141    1.2131 H   0  0  0  0  0  0  0  0  0  0  0  0
   -0.6524   -2.2849    0.1711 H   0  0  0  0  0  0  0  0  0  0  0  0
    1.8519   -0.5204    2.2739 H   0  0  0  0  0  0  0  0  0  0  0  0
    0.4730    0.4810    1.6993 H   0  0  0  0  0  0  0  0  0  0  0  0
    0.6322    2.3444    0.4258 H   0  0  0  0  0  0  0  0  0  0  0  0
    1.9554    4.2092   -0.4664 H   0  0  0  0  0  0  0  0  0  0  0  0
    4.3547    4.0978   -0.4696 H   0  0  0  0  0  0  0  0  0  0  0  0
    6.3337    1.2550    0.7749 H   0  0  0  0  0  0  0  0  0  0  0  0
    4.2534    0.2704    1.2734 H   0  0  0  0  0  0  0  0  0  0  0  0
   -1.5026   -0.2213    0.4817 H   0  0  0  0  0  0  0  0  0  0  0  0
   -1.1090    1.5401   -1.9813 H   0  0  0  0  0  0  0  0  0  0  0  0
   -3.3322    1.2492   -2.7392 H   0  0  0  0  0  0  0  0  0  0  0  0
   -2.7163   -0.3759   -2.5518 H   0  0  0  0  0  0  0  0  0  0  0  0
   -4.9851    2.1566   -1.5074 H   0  0  0  0  0  0  0  0  0  0  0  0
   -7.1576    1.7662   -0.3607 H   0  0  0  0  0  0  0  0  0  0  0  0
   -7.6522   -0.3949    0.6068 H   0  0  0  0  0  0  0  0  0  0  0  0
   -5.9252   -2.1990    0.4383 H   0  0  0  0  0  0  0  0  0  0  0  0
   -3.7802   -1.8467   -0.6753 H   0  0  0  0  0  0  0  0  0  0  0  0
   -2.8044    1.1000    1.4670 H   0  0  0  0  0  0  0  0  0  0  0  0
    2.5149   -1.3285   -2.0858 H   0  0  0  0  0  0  0  0  0  0  0  0
    4.4711   -2.7343   -2.4059 H   0  0  0  0  0  0  0  0  0  0  0  0
    5.4158   -3.9847   -0.5056 H   0  0  0  0  0  0  0  0  0  0  0  0
    4.3046   -3.8026    1.6955 H   0  0  0  0  0  0  0  0  0  0  0  0
    2.3889   -2.4151    2.0022 H   0  0  0  0  0  0  0  0  0  0  0  0
  1  2  1  0
  2  3  1  0
  3  4  1  0
  4  5  2  0
  5  6  1  0
  6  7  2  0
  7  8  1  0
  8  9  1  0
  8 10  2  0
  2 11  1  6
 11 12  2  0
 11 13  1  0
 13 14  1  0
 14 15  1  0
 15 16  1  0
 16 17  2  0
 17 18  1  0
 18 19  2  0
 19 20  1  0
 20 21  2  0
 14 22  1  0
 22 23  1  0
 22 24  2  0
  2 25  1  0
 25 26  2  0
 26 27  1  0
 27 28  2  0
 28 29  1  0
 29 30  2  0
 10  4  1  0
 21 16  1  0
 30 25  1  0
  1 31  1  0
  1 32  1  0
  1 33  1  0
  3 34  1  0
  3 35  1  0
  5 36  1  0
  6 37  1  0
  7 38  1  0
  9 39  1  0
 10 40  1  0
 13 41  1  0
 14 42  1  6
 15 43  1  0
 15 44  1  0
 17 45  1  0
 18 46  1  0
 19 47  1  0
 20 48  1  0
 21 49  1  0
 23 50  1  0
 26 51  1  0
 27 52  1  0
 28 53  1  0
 29 54  1  0
 30 55  1  0
M  END
$$$$
[H]c1nc(N2C([H])([H])C([H])([H])N(c3nc([H])c(S(=O)(=O)n4c([H])nc5c([H])c([H])c(F)c([H])c54)c([H])c3[H])C([H])([H])C2([H])[H])c([H])c([H])c1C#N
     RDKit          3D

 51 55  0  0  0  0  0  0  0  0999 V2000
    5.4710    3.2727    0.9920 F   0  0  0  0  0  0  0  0  0  0  0  0
    5.8075    2.2977    0.0844 C   0  0  0  0  0  0  0  0  0  0  0  0
    6.5784    2.5861   -1.0124 C   0  0  0  0  0  0  0  0  0  0  0  0
    6.9016    1.5922   -1.9062 C   0  0  0  0  0  0  0  0  0  0  0  0
    6.4394    0.3022   -1.6839 C   0  0  0  0  0  0  0  0  0  0  0  0
    6.6053   -0.8484   -2.3762 N   0  0  0  0  0  0  0  0  0  0  0  0
    5.9636   -1.8326   -1.7452 C   0  0  0  0  0  0  0  0  0  0  0  0
    5.3817   -1.2899   -0.6335 N   0  0  0  0  0  0  0  0  0  0  0  0
    4.4307   -2.2191    0.4246 S   0  0  0  0  0  0  0  0  0  0  0  0
    4.4847   -3.6626    0.0267 O   0  0  0  0  0  0  0  0  0  0  0  0
    4.9246   -2.1602    1.8490 O   0  0  0  0  0  0  0  0  0  0  0  0
    2.7565   -1.7124    0.4816 C   0  0  0  0  0  0  0  0  0  0  0  0
    2.2608   -0.9235    1.4746 C   0  0  0  0  0  0  0  0  0  0  0  0
    0.9460   -0.5256    1.5198 C   0  0  0  0  0  0  0  0  0  0  0  0
    0.1015   -0.9446    0.5185 C   0  0  0  0  0  0  0  0  0  0  0  0
    0.5775   -1.7222   -0.4657 N   0  0  0  0  0  0  0  0  0  0  0  0
    1.8621   -2.1112   -0.5103 C   0  0  0  0  0  0  0  0  0  0  0  0
   -1.2554   -0.5356    0.5635 N   0  0  0  0  0  0  0  0  0  0  0  0
   -2.1258   -0.9896   -0.5141 C   0  0  0  0  0  0  0  0  0  0  0  0
   -3.4481   -1.3570    0.1781 C   0  0  0  0  0  0  0  0  0  0  0  0
   -3.9591   -0.0986    0.6573 N   0  0  0  0  0  0  0  0  0  0  0  0
   -3.1742    0.5612    1.6843 C   0  0  0  0  0  0  0  0  0  0  0  0
   -1.7214    0.2843    1.6288 C   0  0  0  0  0  0  0  0  0  0  0  0
   -5.1597    0.4723    0.1563 C   0  0  0  0  0  0  0  0  0  0  0  0
   -5.9074   -0.0923   -0.8445 C   0  0  0  0  0  0  0  0  0  0  0  0
   -7.0745    0.5066   -1.2962 C   0  0  0  0  0  0  0  0  0  0  0  0
   -7.4998    1.6827   -0.7423 C   0  0  0  0  0  0  0  0  0  0  0  0
   -6.7412    2.2424    0.2632 C   0  0  0  0  0  0  0  0  0  0  0  0
   -5.6219    1.6415    0.6765 N   0  0  0  0  0  0  0  0  0  0  0  0
   -8.7040    2.2929   -1.2142 C   0  0  0  0  0  0  0  0  0  0  0  0
   -9.6843    2.7899   -1.5831 N   0  0  0  0  0  0  0  0  0  0  0  0
    5.6678    0.0241   -0.5830 C   0  0  0  0  0  0  0  0  0  0  0  0
    5.3369    1.0257    0.3272 C   0  0  0  0  0  0  0  0  0  0  0  0
    6.9201    3.6152   -1.1479 H   0  0  0  0  0  0  0  0  0  0  0  0
    7.5061    1.7913   -2.7764 H   0  0  0  0  0  0  0  0  0  0  0  0
    5.9289   -2.8751   -2.0832 H   0  0  0  0  0  0  0  0  0  0  0  0
    2.9173   -0.5772    2.2843 H   0  0  0  0  0  0  0  0  0  0  0  0
    0.5833    0.1141    2.3414 H   0  0  0  0  0  0  0  0  0  0  0  0
    2.2611   -2.7416   -1.3024 H   0  0  0  0  0  0  0  0  0  0  0  0
   -2.3590   -0.1564   -1.2038 H   0  0  0  0  0  0  0  0  0  0  0  0
   -1.7025   -1.8615   -1.0399 H   0  0  0  0  0  0  0  0  0  0  0  0
   -3.2067   -1.9870    1.0682 H   0  0  0  0  0  0  0  0  0  0  0  0
   -4.1089   -1.9474   -0.4410 H   0  0  0  0  0  0  0  0  0  0  0  0
   -3.6283    0.2821    2.6526 H   0  0  0  0  0  0  0  0  0  0  0  0
   -3.3395    1.6720    1.5951 H   0  0  0  0  0  0  0  0  0  0  0  0
   -1.1316    1.2477    1.5692 H   0  0  0  0  0  0  0  0  0  0  0  0
   -1.4184   -0.1242    2.6397 H   0  0  0  0  0  0  0  0  0  0  0  0
   -5.6335   -1.0046   -1.3193 H   0  0  0  0  0  0  0  0  0  0  0  0
   -7.6498    0.0527   -2.0807 H   0  0  0  0  0  0  0  0  0  0  0  0
   -7.1079    3.1730    0.6780 H   0  0  0  0  0  0  0  0  0  0  0  0
    4.7485    0.7777    1.1759 H   0  0  0  0  0  0  0  0  0  0  0  0
  1  2  1  0
  2  3  2  0
  3  4  1  0
  4  5  2  0
  5  6  1  0
  6  7  2  0
  7  8  1  0
  8  9  1  0
  9 10  2  0
  9 11  2  0
  9 12  1  0
 12 13  2  0
 13 14  1  0
 14 15  2  0
 15 16  1  0
 16 17  2  0
 15 18  1  0
 18 19  1  0
 19 20  1  0
 20 21  1  0
 21 22  1  0
 22 23  1  0
 21 24  1  0
 24 25  2  0
 25 26  1  0
 26 27  2  0
 27 28  1  0
 28 29  2  0
 27 30  1  0
 30 31  3  0
  8 32  1  0
 32 33  2  0
 33  2  1  0
 32  5  1  0
 17 12  1  0
 23 18  1  0
 29 24  1  0
  3 34  1  0
  4 35  1  0
  7 36  1  0
 13 37  1  0
 14 38  1  0
 17 39  1  0
 19 40  1  0
 19 41  1  0
 20 42  1  0
 20 43  1  0
 22 44  1  0
 22 45  1  0
 23 46  1  0
 23 47  1  0
 25 48  1  0
 26 49  1  0
 28 50  1  0
 33 51  1  0
M  END
$$$$
[H]c1nc2c([H])c(C([H])([H])[H])c(-c3c(C([H])(C([H])([H])[H])C([H])([H])[H])c4c([H])c(C5([H])C([H])([H])C([H])([H])N(C([H])([H])c6nc([H])c([H])c([H])n6)C([H])([H])C5([H])[H])c([H])c([H])c4n3[H])c([H])n2n1
     RDKit          3D

 66 71  0  0  0  0  0  0  0  0999 V2000
   -1.0263   -1.8292   -1.8583 C   0  0  0  0  0  0  0  0  0  0  0  0
   -2.3383   -1.4414   -1.2701 C   0  0  0  0  0  0  0  0  0  0  0  0
   -3.2604   -0.8689   -2.3617 C   0  0  0  0  0  0  0  0  0  0  0  0
   -2.3902   -0.5802   -0.1049 C   0  0  0  0  0  0  0  0  0  0  0  0
   -3.5358   -0.2847    0.6567 C   0  0  0  0  0  0  0  0  0  0  0  0
   -3.1179    0.5959    1.5830 N   0  0  0  0  0  0  0  0  0  0  0  0
   -1.8313    0.8745    1.4722 C   0  0  0  0  0  0  0  0  0  0  0  0
   -0.9989    1.7060    2.1886 C   0  0  0  0  0  0  0  0  0  0  0  0
    0.3338    1.8448    1.8851 C   0  0  0  0  0  0  0  0  0  0  0  0
    0.8829    1.1483    0.8432 C   0  0  0  0  0  0  0  0  0  0  0  0
    0.0273    0.3059    0.1219 C   0  0  0  0  0  0  0  0  0  0  0  0
   -1.3115    0.1512    0.4092 C   0  0  0  0  0  0  0  0  0  0  0  0
    2.2969    1.2434    0.4611 C   0  0  0  0  0  0  0  0  0  0  0  0
    3.2450    0.7093    1.5066 C   0  0  0  0  0  0  0  0  0  0  0  0
    4.6466    1.1117    1.0207 C   0  0  0  0  0  0  0  0  0  0  0  0
    4.6755    1.3064   -0.3916 N   0  0  0  0  0  0  0  0  0  0  0  0
    6.0440    1.4046   -0.8358 C   0  0  0  0  0  0  0  0  0  0  0  0
    6.8597    0.2137   -0.6019 C   0  0  0  0  0  0  0  0  0  0  0  0
    8.1909    0.3059   -0.3138 N   0  0  0  0  0  0  0  0  0  0  0  0
    8.9435   -0.7876   -0.1069 C   0  0  0  0  0  0  0  0  0  0  0  0
    8.3891   -2.0460   -0.1801 C   0  0  0  0  0  0  0  0  0  0  0  0
    7.0457   -2.1467   -0.4704 C   0  0  0  0  0  0  0  0  0  0  0  0
    6.3453   -1.0237   -0.6670 N   0  0  0  0  0  0  0  0  0  0  0  0
    3.9961    2.5396   -0.7328 C   0  0  0  0  0  0  0  0  0  0  0  0
    2.7062    2.6488    0.0664 C   0  0  0  0  0  0  0  0  0  0  0  0
   -4.9061   -0.7264    0.4307 C   0  0  0  0  0  0  0  0  0  0  0  0
   -5.2765   -1.9999    0.0665 C   0  0  0  0  0  0  0  0  0  0  0  0
   -6.5322   -2.4021   -0.2295 N   0  0  0  0  0  0  0  0  0  0  0  0
   -7.0207   -3.5825   -0.5920 N   0  0  0  0  0  0  0  0  0  0  0  0
   -8.3330   -3.4887   -0.7767 C   0  0  0  0  0  0  0  0  0  0  0  0
   -8.6724   -2.2038   -0.5200 N   0  0  0  0  0  0  0  0  0  0  0  0
   -7.5485   -1.5344   -0.1806 C   0  0  0  0  0  0  0  0  0  0  0  0
   -7.2483   -0.2450    0.1780 C   0  0  0  0  0  0  0  0  0  0  0  0
   -5.9600    0.1880    0.4848 C   0  0  0  0  0  0  0  0  0  0  0  0
   -5.7640    1.6132    0.8233 C   0  0  0  0  0  0  0  0  0  0  0  0
   -0.6450   -1.0230   -2.5072 H   0  0  0  0  0  0  0  0  0  0  0  0
   -0.3208   -2.2873   -1.1666 H   0  0  0  0  0  0  0  0  0  0  0  0
   -1.2152   -2.6805   -2.6160 H   0  0  0  0  0  0  0  0  0  0  0  0
   -2.8101   -2.4322   -1.0116 H   0  0  0  0  0  0  0  0  0  0  0  0
   -3.8236   -0.0453   -1.8993 H   0  0  0  0  0  0  0  0  0  0  0  0
   -2.6558   -0.5221   -3.2271 H   0  0  0  0  0  0  0  0  0  0  0  0
   -3.9700   -1.6166   -2.7417 H   0  0  0  0  0  0  0  0  0  0  0  0
   -3.7336    1.0045    2.3213 H   0  0  0  0  0  0  0  0  0  0  0  0
   -1.4265    2.2591    3.0130 H   0  0  0  0  0  0  0  0  0  0  0  0
    0.9841    2.4970    2.4480 H   0  0  0  0  0  0  0  0  0  0  0  0
    0.4663   -0.2176   -0.6842 H   0  0  0  0  0  0  0  0  0  0  0  0
    2.4875    0.6019   -0.4466 H   0  0  0  0  0  0  0  0  0  0  0  0
    3.2333   -0.3934    1.4656 H   0  0  0  0  0  0  0  0  0  0  0  0
    3.1234    1.1370    2.4989 H   0  0  0  0  0  0  0  0  0  0  0  0
    4.9905    2.0159    1.5893 H   0  0  0  0  0  0  0  0  0  0  0  0
    5.3622    0.3131    1.2867 H   0  0  0  0  0  0  0  0  0  0  0  0
    6.0095    1.5905   -1.9349 H   0  0  0  0  0  0  0  0  0  0  0  0
    6.4803    2.2957   -0.3007 H   0  0  0  0  0  0  0  0  0  0  0  0
    9.9985   -0.7236    0.1220 H   0  0  0  0  0  0  0  0  0  0  0  0
    8.9740   -2.9412   -0.0177 H   0  0  0  0  0  0  0  0  0  0  0  0
    6.6068   -3.1312   -0.5287 H   0  0  0  0  0  0  0  0  0  0  0  0
    4.6535    3.3692   -0.4200 H   0  0  0  0  0  0  0  0  0  0  0  0
    3.8123    2.5181   -1.8176 H   0  0  0  0  0  0  0  0  0  0  0  0
    1.9263    3.1286   -0.5585 H   0  0  0  0  0  0  0  0  0  0  0  0
    2.8825    3.2600    0.9717 H   0  0  0  0  0  0  0  0  0  0  0  0
   -4.5308   -2.7779    0.0519 H   0  0  0  0  0  0  0  0  0  0  0  0
   -8.9591   -4.3189   -1.0763 H   0  0  0  0  0  0  0  0  0  0  0  0
   -8.0577    0.4776    0.2255 H   0  0  0  0  0  0  0  0  0  0  0  0
   -5.9260    1.7102    1.9366 H   0  0  0  0  0  0  0  0  0  0  0  0
   -6.6450    2.1680    0.3460 H   0  0  0  0  0  0  0  0  0  0  0  0
   -4.8280    2.0444    0.4650 H   0  0  0  0  0  0  0  0  0  0  0  0
  1  2  1  0
  2  3  1  0
  2  4  1  0
  4  5  2  0
  5  6  1  0
  6  7  1  0
  7  8  2  0
  8  9  1  0
  9 10  2  0
 10 11  1  0
 11 12  2  0
 10 13  1  0
 13 14  1  0
 14 15  1  0
 15 16  1  0
 16 17  1  0
 17 18  1  0
 18 19  2  0
 19 20  1  0
 20 21  2  0
 21 22  1  0
 22 23  2  0
 16 24  1  0
 24 25  1  0
  5 26  1  0
 26 27  2  0
 27 28  1  0
 28 29  1  0
 29 30  2  0
 30 31  1  0
 31 32  2  0
 32 33  1  0
 33 34  2  0
 34 35  1  0
 12  4  1  0
 25 13  1  0
 34 26  1  0
 12  7  1  0
 23 18  1  0
 32 28  1  0
  1 36  1  0
  1 37  1  0
  1 38  1  0
  2 39  1  0
  3 40  1  0
  3 41  1  0
  3 42  1  0
  6 43  1  0
  8 44  1  0
  9 45  1  0
 11 46  1  0
 13 47  1  0
 14 48  1  0
 14 49  1  0
 15 50  1  0
 15 51  1  0
 17 52  1  0
 17 53  1  0
 20 54  1  0
 21 55  1  0
 22 56  1  0
 24 57  1  0
 24 58  1  0
 25 59  1  0
 25 60  1  0
 27 61  1  0
 30 62  1  0
 33 63  1  0
 35 64  1  0
 35 65  1  0
 35 66  1  0
M  END
$$$$
[H]ON([H])C(=O)C1([H])c2c([H])c([H])c(S(=O)(=O)c3c([H])c([H])c(OC([H])([H])[H])c([H])c3[H])c([H])c2C([H])([H])C([H])([H])N1S(=O)(=O)c1c([H])c([H])c(OC([H])([H])[H])c([H])c1[H]
     RDKit          3D

 60 63  0  0  0  0  0  0  0  0999 V2000
    9.2567    1.3782   -0.9214 C   0  0  0  0  0  0  0  0  0  0  0  0
    8.3976    0.6170   -1.7237 O   0  0  0  0  0  0  0  0  0  0  0  0
    7.2171    0.0976   -1.2311 C   0  0  0  0  0  0  0  0  0  0  0  0
    6.8818    0.3389    0.0863 C   0  0  0  0  0  0  0  0  0  0  0  0
    5.7218   -0.1615    0.6002 C   0  0  0  0  0  0  0  0  0  0  0  0
    4.8531   -0.9210   -0.1802 C   0  0  0  0  0  0  0  0  0  0  0  0
    5.2087   -1.1478   -1.4886 C   0  0  0  0  0  0  0  0  0  0  0  0
    6.3886   -0.6451   -2.0306 C   0  0  0  0  0  0  0  0  0  0  0  0
    3.3867   -1.5400    0.5432 S   0  0  0  0  0  0  0  0  0  0  0  0
    3.5387   -1.9831    1.9391 O   0  0  0  0  0  0  0  0  0  0  0  0
    2.9846   -2.7388   -0.2849 O   0  0  0  0  0  0  0  0  0  0  0  0
    2.1380   -0.3267    0.4602 N   0  0  0  0  0  0  0  0  0  0  0  0
    1.8965   -0.0563   -0.9114 C   0  0  0  0  0  0  0  0  0  0  0  0
    0.5062   -0.4646   -1.3710 C   0  0  0  0  0  0  0  0  0  0  0  0
   -0.4895    0.2294   -0.4632 C   0  0  0  0  0  0  0  0  0  0  0  0
   -1.5689    0.9146   -0.9070 C   0  0  0  0  0  0  0  0  0  0  0  0
   -2.3769    1.5477    0.0351 C   0  0  0  0  0  0  0  0  0  0  0  0
   -2.0955    1.4856    1.3816 C   0  0  0  0  0  0  0  0  0  0  0  0
   -0.9765    0.7711    1.8057 C   0  0  0  0  0  0  0  0  0  0  0  0
   -0.1694    0.1382    0.8757 C   0  0  0  0  0  0  0  0  0  0  0  0
    1.0121   -0.6679    1.2455 C   0  0  0  0  0  0  0  0  0  0  0  0
    1.2815   -0.5784    2.7100 C   0  0  0  0  0  0  0  0  0  0  0  0
    2.1817    0.0823    3.2427 O   0  0  0  0  0  0  0  0  0  0  0  0
    0.4269   -1.3243    3.5794 N   0  0  0  0  0  0  0  0  0  0  0  0
    0.5721   -1.3266    4.9261 O   0  0  0  0  0  0  0  0  0  0  0  0
   -3.7645    2.4252   -0.5648 S   0  0  0  0  0  0  0  0  0  0  0  0
   -3.4487    2.9551   -1.9340 O   0  0  0  0  0  0  0  0  0  0  0  0
   -4.0159    3.5887    0.3803 O   0  0  0  0  0  0  0  0  0  0  0  0
   -5.1832    1.4051   -0.6584 C   0  0  0  0  0  0  0  0  0  0  0  0
   -5.4878    0.6793   -1.7877 C   0  0  0  0  0  0  0  0  0  0  0  0
   -6.6250   -0.0987   -1.7782 C   0  0  0  0  0  0  0  0  0  0  0  0
   -7.4654   -0.1791   -0.6895 C   0  0  0  0  0  0  0  0  0  0  0  0
   -8.6178   -0.9684   -0.6820 O   0  0  0  0  0  0  0  0  0  0  0  0
   -9.0198   -1.7415   -1.7683 C   0  0  0  0  0  0  0  0  0  0  0  0
   -7.1275    0.5643    0.4283 C   0  0  0  0  0  0  0  0  0  0  0  0
   -5.9988    1.3479    0.4440 C   0  0  0  0  0  0  0  0  0  0  0  0
   10.0587    1.8380   -1.5324 H   0  0  0  0  0  0  0  0  0  0  0  0
    8.6891    2.1814   -0.4015 H   0  0  0  0  0  0  0  0  0  0  0  0
    9.7678    0.7007   -0.1875 H   0  0  0  0  0  0  0  0  0  0  0  0
    7.5324    0.9285    0.7338 H   0  0  0  0  0  0  0  0  0  0  0  0
    5.4244    0.0068    1.6303 H   0  0  0  0  0  0  0  0  0  0  0  0
    4.5441   -1.7446   -2.1147 H   0  0  0  0  0  0  0  0  0  0  0  0
    6.6207   -0.8507   -3.0593 H   0  0  0  0  0  0  0  0  0  0  0  0
    1.9321    1.0636   -1.0510 H   0  0  0  0  0  0  0  0  0  0  0  0
    2.6065   -0.4712   -1.6234 H   0  0  0  0  0  0  0  0  0  0  0  0
    0.4143   -1.5585   -1.2929 H   0  0  0  0  0  0  0  0  0  0  0  0
    0.3162   -0.1331   -2.4036 H   0  0  0  0  0  0  0  0  0  0  0  0
   -1.7892    0.9639   -1.9581 H   0  0  0  0  0  0  0  0  0  0  0  0
   -2.7339    1.9830    2.0877 H   0  0  0  0  0  0  0  0  0  0  0  0
   -0.7826    0.7500    2.8661 H   0  0  0  0  0  0  0  0  0  0  0  0
    0.7502   -1.7380    1.0141 H   0  0  0  0  0  0  0  0  0  0  0  0
   -0.3555   -1.9067    3.2111 H   0  0  0  0  0  0  0  0  0  0  0  0
    0.4296   -2.2656    5.2499 H   0  0  0  0  0  0  0  0  0  0  0  0
   -4.8349    0.7219   -2.6769 H   0  0  0  0  0  0  0  0  0  0  0  0
   -6.8594   -0.6756   -2.6870 H   0  0  0  0  0  0  0  0  0  0  0  0
  -10.1418   -1.8106   -1.7237 H   0  0  0  0  0  0  0  0  0  0  0  0
   -8.7935   -1.3138   -2.7595 H   0  0  0  0  0  0  0  0  0  0  0  0
   -8.6448   -2.7844   -1.7375 H   0  0  0  0  0  0  0  0  0  0  0  0
   -7.7947    0.5030    1.2983 H   0  0  0  0  0  0  0  0  0  0  0  0
   -5.7752    1.9155    1.3495 H   0  0  0  0  0  0  0  0  0  0  0  0
  1  2  1  0
  2  3  1  0
  3  4  2  0
  4  5  1  0
  5  6  2  0
  6  7  1  0
  7  8  2  0
  6  9  1  0
  9 10  2  0
  9 11  2  0
  9 12  1  0
 12 13  1  0
 13 14  1  0
 14 15  1  0
 15 16  2  0
 16 17  1  0
 17 18  2  0
 18 19  1  0
 19 20  2  0
 20 21  1  0
 21 22  1  0
 22 23  2  0
 22 24  1  0
 24 25  1  0
 17 26  1  0
 26 27  2  0
 26 28  2  0
 26 29  1  0
 29 30  2  0
 30 31  1  0
 31 32  2  0
 32 33  1  0
 33 34  1  0
 32 35  1  0
 35 36  2  0
  8  3  1  0
 21 12  1  0
 36 29  1  0
 20 15  1  0
  1 37  1  0
  1 38  1  0
  1 39  1  0
  4 40  1  0
  5 41  1  0
  7 42  1  0
  8 43  1  0
 13 44  1  0
 13 45  1  0
 14 46  1  0
 14 47  1  0
 16 48  1  0
 18 49  1  0
 19 50  1  0
 21 51  1  0
 24 52  1  0
 25 53  1  0
 30 54  1  0
 31 55  1  0
 34 56  1  0
 34 57  1  0
 34 58  1  0
 35 59  1  0
 36 60  1  0
M  END
$$$$
[H]c1c([H])c(S(=O)(=O)N([H])[H])c([H])c([H])c1N([H])c1nc(N([H])C([H])(C([H])([H])[H])C([H])([H])[H])c2c([H])nn([H])c2n1
     RDKit          3D

 41 43  0  0  0  0  0  0  0  0999 V2000
   -3.5550    2.3380    0.7856 C   0  0  0  0  0  0  0  0  0  0  0  0
   -4.2776    1.4248   -0.1592 C   0  0  0  0  0  0  0  0  0  0  0  0
   -5.7534    1.7503   -0.0939 C   0  0  0  0  0  0  0  0  0  0  0  0
   -4.1059    0.0282    0.1442 N   0  0  0  0  0  0  0  0  0  0  0  0
   -2.7878   -0.5570    0.1466 C   0  0  0  0  0  0  0  0  0  0  0  0
   -1.7066    0.1689   -0.1283 N   0  0  0  0  0  0  0  0  0  0  0  0
   -0.4219   -0.2987   -0.1495 C   0  0  0  0  0  0  0  0  0  0  0  0
    0.6395    0.5810   -0.4715 N   0  0  0  0  0  0  0  0  0  0  0  0
    2.0009    0.3199   -0.5411 C   0  0  0  0  0  0  0  0  0  0  0  0
    2.6178   -0.8025   -0.0567 C   0  0  0  0  0  0  0  0  0  0  0  0
    3.9844   -0.9824   -0.1910 C   0  0  0  0  0  0  0  0  0  0  0  0
    4.7848   -0.0623   -0.8061 C   0  0  0  0  0  0  0  0  0  0  0  0
    4.1542    1.0660   -1.2907 C   0  0  0  0  0  0  0  0  0  0  0  0
    2.8136    1.2658   -1.1713 C   0  0  0  0  0  0  0  0  0  0  0  0
    6.5047   -0.2448   -0.9983 S   0  0  0  0  0  0  0  0  0  0  0  0
    7.3480    0.4346    0.3570 N   0  0  0  0  0  0  0  0  0  0  0  0
    7.0010    0.4015   -2.2588 O   0  0  0  0  0  0  0  0  0  0  0  0
    6.9078   -1.7103   -1.0461 O   0  0  0  0  0  0  0  0  0  0  0  0
   -0.2991   -1.5984    0.1366 N   0  0  0  0  0  0  0  0  0  0  0  0
   -1.3343   -2.3941    0.4229 C   0  0  0  0  0  0  0  0  0  0  0  0
   -1.4673   -3.7050    0.7372 N   0  0  0  0  0  0  0  0  0  0  0  0
   -2.7426   -4.0111    0.9351 N   0  0  0  0  0  0  0  0  0  0  0  0
   -3.5069   -2.9089    0.7586 C   0  0  0  0  0  0  0  0  0  0  0  0
   -2.6334   -1.8936    0.4380 C   0  0  0  0  0  0  0  0  0  0  0  0
   -4.2137    3.1864    1.1341 H   0  0  0  0  0  0  0  0  0  0  0  0
   -2.7305    2.8324    0.2315 H   0  0  0  0  0  0  0  0  0  0  0  0
   -3.2208    1.8348    1.7116 H   0  0  0  0  0  0  0  0  0  0  0  0
   -3.9738    1.6166   -1.2297 H   0  0  0  0  0  0  0  0  0  0  0  0
   -6.0537    1.7897    0.9735 H   0  0  0  0  0  0  0  0  0  0  0  0
   -5.8669    2.7828   -0.4833 H   0  0  0  0  0  0  0  0  0  0  0  0
   -6.3687    1.0373   -0.6776 H   0  0  0  0  0  0  0  0  0  0  0  0
   -4.9032   -0.6001    0.3683 H   0  0  0  0  0  0  0  0  0  0  0  0
    0.3255    1.5817   -0.6828 H   0  0  0  0  0  0  0  0  0  0  0  0
    2.0790   -1.5841    0.4546 H   0  0  0  0  0  0  0  0  0  0  0  0
    4.4487   -1.8747    0.1980 H   0  0  0  0  0  0  0  0  0  0  0  0
    4.7860    1.8116   -1.7861 H   0  0  0  0  0  0  0  0  0  0  0  0
    2.3919    2.1898   -1.5843 H   0  0  0  0  0  0  0  0  0  0  0  0
    7.7024    1.3755    0.0624 H   0  0  0  0  0  0  0  0  0  0  0  0
    6.6640    0.6124    1.1359 H   0  0  0  0  0  0  0  0  0  0  0  0
   -0.6386   -4.3558    0.8036 H   0  0  0  0  0  0  0  0  0  0  0  0
   -4.5927   -2.8461    0.8529 H   0  0  0  0  0  0  0  0  0  0  0  0
  1  2  1  0
  2  3  1  0
  2  4  1  0
  4  5  1  0
  5  6  2  0
  6  7  1  0
  7  8  1  0
  8  9  1  0
  9 10  2  0
 10 11  1  0
 11 12  2  0
 12 13  1  0
 13 14  2  0
 12 15  1  0
 15 16  1  0
 15 17  2  0
 15 18  2  0
  7 19  2  0
 19 20  1  0
 20 21  1  0
 21 22  1  0
 22 23  2  0
 23 24  1  0
 24  5  1  0
 14  9  1  0
 24 20  2  0
  1 25  1  0
  1 26  1  0
  1 27  1  0
  2 28  1  0
  3 29  1  0
  3 30  1  0
  3 31  1  0
  4 32  1  0
  8 33  1  0
 10 34  1  0
 11 35  1  0
 13 36  1  0
 14 37  1  0
 16 38  1  0
 16 39  1  0
 21 40  1  0
 23 41  1  0
M  END
$$$$
[H]OC([H])(c1c([H])c([H])c2c(c1[H])OC([H])([H])O2)n1c(C(=O)N([H])[C@@]2([H])C(=O)[C@@]([H])(N([H])C(=O)c3snnc3-c3c([H])c([H])c([H])c([H])c3[H])C([H])([H])C2([H])[H])nc2c([H])c([H])c([H])c([H])c21
     RDKit          3D

 67 73  0  0  0  0  0  0  0  0999 V2000
   -2.9076    0.6131    1.2614 O   0  0  0  0  0  0  0  0  0  0  0  0
   -3.3574   -0.1106    0.1927 C   0  0  0  0  0  0  0  0  0  0  0  0
   -4.7452    0.3704   -0.1078 C   0  0  0  0  0  0  0  0  0  0  0  0
   -5.1221    0.9717   -1.2696 C   0  0  0  0  0  0  0  0  0  0  0  0
   -6.4550    1.3669   -1.4789 C   0  0  0  0  0  0  0  0  0  0  0  0
   -7.4253    1.1624   -0.5184 C   0  0  0  0  0  0  0  0  0  0  0  0
   -8.7881    1.4395   -0.4519 O   0  0  0  0  0  0  0  0  0  0  0  0
   -9.2488    1.2556    0.8854 C   0  0  0  0  0  0  0  0  0  0  0  0
   -8.2082    0.4790    1.4399 O   0  0  0  0  0  0  0  0  0  0  0  0
   -7.0582    0.5549    0.6662 C   0  0  0  0  0  0  0  0  0  0  0  0
   -5.7362    0.1732    0.8509 C   0  0  0  0  0  0  0  0  0  0  0  0
   -2.5168   -0.2450   -0.9419 N   0  0  0  0  0  0  0  0  0  0  0  0
   -1.3756    0.3680   -1.2455 C   0  0  0  0  0  0  0  0  0  0  0  0
   -1.0140   -0.0369   -2.5156 N   0  0  0  0  0  0  0  0  0  0  0  0
   -1.9253   -0.8911   -2.9833 C   0  0  0  0  0  0  0  0  0  0  0  0
   -1.9597   -1.5647   -4.2145 C   0  0  0  0  0  0  0  0  0  0  0  0
   -3.0168   -2.4076   -4.4191 C   0  0  0  0  0  0  0  0  0  0  0  0
   -4.0045   -2.5875   -3.4458 C   0  0  0  0  0  0  0  0  0  0  0  0
   -3.9331   -1.9021   -2.2435 C   0  0  0  0  0  0  0  0  0  0  0  0
   -2.8686   -1.0290   -2.0047 C   0  0  0  0  0  0  0  0  0  0  0  0
   -0.4332    1.1779   -0.4803 C   0  0  0  0  0  0  0  0  0  0  0  0
    0.0141    2.2231   -0.9907 O   0  0  0  0  0  0  0  0  0  0  0  0
   -0.0259    0.7785    0.7992 N   0  0  0  0  0  0  0  0  0  0  0  0
    0.9000    1.4547    1.6313 C   0  0  2  0  0  0  0  0  0  0  0  0
    2.0598    2.0802    0.8318 C   0  0  0  0  0  0  0  0  0  0  0  0
    3.1004    2.1675    1.9897 C   0  0  0  0  0  0  0  0  0  0  0  0
    3.0800    0.7418    2.4568 C   0  0  2  0  0  0  0  0  0  0  0  0
    3.7217   -0.1604    1.5568 N   0  0  0  0  0  0  0  0  0  0  0  0
    3.5885   -1.5336    1.4829 C   0  0  0  0  0  0  0  0  0  0  0  0
    2.7496   -2.1325    2.2414 O   0  0  0  0  0  0  0  0  0  0  0  0
    4.3682   -2.3706    0.5549 C   0  0  0  0  0  0  0  0  0  0  0  0
    3.9789   -4.0056    0.0937 S   0  0  0  0  0  0  0  0  0  0  0  0
    5.3174   -4.3336   -0.8578 N   0  0  0  0  0  0  0  0  0  0  0  0
    6.0006   -3.2274   -0.7912 N   0  0  0  0  0  0  0  0  0  0  0  0
    5.5527   -2.2183   -0.0801 C   0  0  0  0  0  0  0  0  0  0  0  0
    6.4620   -1.0311    0.0836 C   0  0  0  0  0  0  0  0  0  0  0  0
    6.9395   -0.2923   -0.9439 C   0  0  0  0  0  0  0  0  0  0  0  0
    7.8631    0.7289   -0.6998 C   0  0  0  0  0  0  0  0  0  0  0  0
    8.2928    0.9973    0.5678 C   0  0  0  0  0  0  0  0  0  0  0  0
    7.7906    0.2289    1.6250 C   0  0  0  0  0  0  0  0  0  0  0  0
    6.9035   -0.7535    1.3793 C   0  0  0  0  0  0  0  0  0  0  0  0
    1.5707    0.5583    2.5845 C   0  0  0  0  0  0  0  0  0  0  0  0
    1.0669   -0.2197    3.3700 O   0  0  0  0  0  0  0  0  0  0  0  0
   -3.1267    1.5655    1.0813 H   0  0  0  0  0  0  0  0  0  0  0  0
   -3.4903   -1.1715    0.6027 H   0  0  0  0  0  0  0  0  0  0  0  0
   -4.3860    1.1713   -2.0590 H   0  0  0  0  0  0  0  0  0  0  0  0
   -6.7256    1.8343   -2.3990 H   0  0  0  0  0  0  0  0  0  0  0  0
   -9.3822    2.2181    1.4110 H   0  0  0  0  0  0  0  0  0  0  0  0
  -10.2058    0.6622    0.8858 H   0  0  0  0  0  0  0  0  0  0  0  0
   -5.4569   -0.2961    1.7793 H   0  0  0  0  0  0  0  0  0  0  0  0
   -1.1737   -1.4024   -4.9524 H   0  0  0  0  0  0  0  0  0  0  0  0
   -3.1039   -2.9618   -5.3372 H   0  0  0  0  0  0  0  0  0  0  0  0
   -4.8212   -3.2622   -3.6048 H   0  0  0  0  0  0  0  0  0  0  0  0
   -4.6920   -2.0662   -1.4947 H   0  0  0  0  0  0  0  0  0  0  0  0
   -0.3835   -0.1518    1.2128 H   0  0  0  0  0  0  0  0  0  0  0  0
    0.3990    2.3600    2.1416 H   0  0  0  0  0  0  0  0  0  0  0  0
    1.7595    3.1308    0.5649 H   0  0  0  0  0  0  0  0  0  0  0  0
    2.4732    1.4859    0.0623 H   0  0  0  0  0  0  0  0  0  0  0  0
    4.0265    2.4852    1.4965 H   0  0  0  0  0  0  0  0  0  0  0  0
    2.7290    2.8745    2.7597 H   0  0  0  0  0  0  0  0  0  0  0  0
    3.4924    0.6614    3.4946 H   0  0  0  0  0  0  0  0  0  0  0  0
    4.3520    0.3287    0.8270 H   0  0  0  0  0  0  0  0  0  0  0  0
    6.6210   -0.4963   -1.9695 H   0  0  0  0  0  0  0  0  0  0  0  0
    8.2499    1.3206   -1.5405 H   0  0  0  0  0  0  0  0  0  0  0  0
    9.0127    1.7933    0.7829 H   0  0  0  0  0  0  0  0  0  0  0  0
    8.1410    0.4583    2.6217 H   0  0  0  0  0  0  0  0  0  0  0  0
    6.4961   -1.3802    2.1739 H   0  0  0  0  0  0  0  0  0  0  0  0
  1  2  1  0
  2  3  1  0
  3  4  2  0
  4  5  1  0
  5  6  2  0
  6  7  1  0
  7  8  1  0
  8  9  1  0
  9 10  1  0
 10 11  2  0
  2 12  1  0
 12 13  1  0
 13 14  2  0
 14 15  1  0
 15 16  2  0
 16 17  1  0
 17 18  2  0
 18 19  1  0
 19 20  2  0
 13 21  1  0
 21 22  2  0
 21 23  1  0
 23 24  1  0
 24 25  1  0
 25 26  1  0
 26 27  1  0
 27 28  1  0
 28 29  1  0
 29 30  2  0
 29 31  1  0
 31 32  1  0
 32 33  1  0
 33 34  2  0
 34 35  1  0
 35 36  1  0
 36 37  2  0
 37 38  1  0
 38 39  2  0
 39 40  1  0
 40 41  2  0
 27 42  1  0
 42 43  2  0
 11  3  1  0
 20 12  1  0
 42 24  1  0
 10  6  1  0
 20 15  1  0
 35 31  2  0
 41 36  1  0
  1 44  1  0
  2 45  1  0
  4 46  1  0
  5 47  1  0
  8 48  1  0
  8 49  1  0
 11 50  1  0
 16 51  1  0
 17 52  1  0
 18 53  1  0
 19 54  1  0
 23 55  1  0
 24 56  1  1
 25 57  1  0
 25 58  1  0
 26 59  1  0
 26 60  1  0
 27 61  1  1
 28 62  1  0
 37 63  1  0
 38 64  1  0
 39 65  1  0
 40 66  1  0
 41 67  1  0
M  END
$$$$
[H]N=C(N([H])[H])N([H])C([H])([H])C([H])([H])C([H])([H])[C@@]([H])(C(=O)N([H])[C@]([H])(C(=O)N([H])[H])C([H])([H])c1c([H])c([H])c([H])c([H])c1[H])N([H])C(=O)[C@@]([H])(N([H])C(=O)[C@@]([H])(N([H])C(=O)[C@@]([H])(N([H])[H])C([H])([H])c1c([H])c([H])c([H])c([H])c1[H])C([H])([H])C([H])([H])C(=O)N([H])[H])C([H])([H])C([H])(C([H])([H])[H])C([H])([H])[H]
     RDKit          3D

103104  0  0  0  0  0  0  0  0999 V2000
   -0.2020    3.1875   -1.3736 C   0  0  0  0  0  0  0  0  0  0  0  0
    1.0685    3.0822   -0.6263 C   0  0  0  0  0  0  0  0  0  0  0  0
    1.5145    4.5180   -0.2627 C   0  0  0  0  0  0  0  0  0  0  0  0
    1.0944    2.2587    0.6066 C   0  0  0  0  0  0  0  0  0  0  0  0
    0.7483    0.8356    0.3591 C   0  0  2  0  0  0  0  0  0  0  0  0
    1.6492    0.2554   -0.6160 N   0  0  0  0  0  0  0  0  0  0  0  0
    2.7088   -0.6069   -0.2860 C   0  0  0  0  0  0  0  0  0  0  0  0
    2.8858   -0.8741    0.9363 O   0  0  0  0  0  0  0  0  0  0  0  0
    3.6062   -1.1990   -1.2982 C   0  0  2  0  0  0  0  0  0  0  0  0
    3.0668   -2.5630   -1.6889 C   0  0  0  0  0  0  0  0  0  0  0  0
    1.7141   -2.5725   -2.2864 C   0  0  0  0  0  0  0  0  0  0  0  0
    1.5482   -1.8566   -3.5491 C   0  0  0  0  0  0  0  0  0  0  0  0
    0.2850   -1.7064   -4.1557 N   0  0  0  0  0  0  0  0  0  0  0  0
    2.5354   -1.3516   -4.1344 O   0  0  0  0  0  0  0  0  0  0  0  0
    4.8966   -1.4009   -0.5948 N   0  0  0  0  0  0  0  0  0  0  0  0
    6.0907   -0.9145   -1.1807 C   0  0  0  0  0  0  0  0  0  0  0  0
    6.0565   -0.3184   -2.2984 O   0  0  0  0  0  0  0  0  0  0  0  0
    7.3911   -1.0873   -0.5118 C   0  0  1  0  0  0  0  0  0  0  0  0
    8.4805   -0.6018   -1.3794 N   0  0  0  0  0  0  0  0  0  0  0  0
    7.4540   -0.2339    0.7683 C   0  0  0  0  0  0  0  0  0  0  0  0
    8.7825   -0.4574    1.3790 C   0  0  0  0  0  0  0  0  0  0  0  0
    8.9218   -1.4594    2.3127 C   0  0  0  0  0  0  0  0  0  0  0  0
   10.1618   -1.7070    2.9163 C   0  0  0  0  0  0  0  0  0  0  0  0
   11.2603   -0.9367    2.5712 C   0  0  0  0  0  0  0  0  0  0  0  0
   11.1257    0.0650    1.6386 C   0  0  0  0  0  0  0  0  0  0  0  0
    9.8751    0.2911    1.0509 C   0  0  0  0  0  0  0  0  0  0  0  0
   -0.6794    0.5426    0.0979 C   0  0  0  0  0  0  0  0  0  0  0  0
   -0.9159   -0.0741   -0.9644 O   0  0  0  0  0  0  0  0  0  0  0  0
   -1.6696    0.9465    1.0129 N   0  0  0  0  0  0  0  0  0  0  0  0
   -3.0747    0.7631    0.9745 C   0  0  1  0  0  0  0  0  0  0  0  0
   -3.8213    1.9161    0.3584 C   0  0  0  0  0  0  0  0  0  0  0  0
   -3.5111    3.1362    1.2026 C   0  0  0  0  0  0  0  0  0  0  0  0
   -4.1856    4.3727    0.6970 C   0  0  0  0  0  0  0  0  0  0  0  0
   -3.8247    5.4768    1.5642 N   0  0  0  0  0  0  0  0  0  0  0  0
   -4.3049    6.7911    1.3361 C   0  0  0  0  0  0  0  0  0  0  0  0
   -5.5972    6.9853    0.8007 N   0  0  0  0  0  0  0  0  0  0  0  0
   -3.5471    7.7862    1.6231 N   0  0  0  0  0  0  0  0  0  0  0  0
   -3.5484   -0.5683    0.5358 C   0  0  0  0  0  0  0  0  0  0  0  0
   -2.7572   -1.4958    0.3234 O   0  0  0  0  0  0  0  0  0  0  0  0
   -4.9266   -0.8386    0.3382 N   0  0  0  0  0  0  0  0  0  0  0  0
   -5.3909   -2.1615   -0.1072 C   0  0  1  0  0  0  0  0  0  0  0  0
   -6.2840   -2.6413    1.0075 C   0  0  0  0  0  0  0  0  0  0  0  0
   -6.8984   -3.9423    0.8466 C   0  0  0  0  0  0  0  0  0  0  0  0
   -8.1714   -4.0864    0.3497 C   0  0  0  0  0  0  0  0  0  0  0  0
   -8.7598   -5.3459    0.1895 C   0  0  0  0  0  0  0  0  0  0  0  0
   -8.0501   -6.4774    0.5369 C   0  0  0  0  0  0  0  0  0  0  0  0
   -6.7726   -6.3615    1.0371 C   0  0  0  0  0  0  0  0  0  0  0  0
   -6.2096   -5.0972    1.1872 C   0  0  0  0  0  0  0  0  0  0  0  0
   -6.1336   -1.9587   -1.3501 C   0  0  0  0  0  0  0  0  0  0  0  0
   -6.6462   -3.0018   -2.1409 N   0  0  0  0  0  0  0  0  0  0  0  0
   -6.3375   -0.7761   -1.7637 O   0  0  0  0  0  0  0  0  0  0  0  0
   -1.1172    3.2393   -0.7969 H   0  0  0  0  0  0  0  0  0  0  0  0
   -0.2216    2.3982   -2.1717 H   0  0  0  0  0  0  0  0  0  0  0  0
   -0.1616    4.1650   -1.9692 H   0  0  0  0  0  0  0  0  0  0  0  0
    1.8942    2.7458   -1.3269 H   0  0  0  0  0  0  0  0  0  0  0  0
    1.7693    5.0073   -1.2041 H   0  0  0  0  0  0  0  0  0  0  0  0
    0.6014    4.9738    0.1963 H   0  0  0  0  0  0  0  0  0  0  0  0
    2.3159    4.4729    0.4890 H   0  0  0  0  0  0  0  0  0  0  0  0
    2.1433    2.2612    1.0089 H   0  0  0  0  0  0  0  0  0  0  0  0
    0.4041    2.6577    1.4037 H   0  0  0  0  0  0  0  0  0  0  0  0
    1.0553    0.3012    1.3387 H   0  0  0  0  0  0  0  0  0  0  0  0
    1.4912    0.5135   -1.6104 H   0  0  0  0  0  0  0  0  0  0  0  0
    3.7924   -0.5984   -2.1834 H   0  0  0  0  0  0  0  0  0  0  0  0
    3.0948   -3.1759   -0.7630 H   0  0  0  0  0  0  0  0  0  0  0  0
    3.8065   -3.0404   -2.3713 H   0  0  0  0  0  0  0  0  0  0  0  0
    0.9371   -2.2817   -1.5265 H   0  0  0  0  0  0  0  0  0  0  0  0
    1.4597   -3.6526   -2.4993 H   0  0  0  0  0  0  0  0  0  0  0  0
   -0.0455   -0.7873   -4.5021 H   0  0  0  0  0  0  0  0  0  0  0  0
   -0.3471   -2.5261   -4.2675 H   0  0  0  0  0  0  0  0  0  0  0  0
    4.9296   -1.8927    0.3170 H   0  0  0  0  0  0  0  0  0  0  0  0
    7.6391   -2.1387   -0.2765 H   0  0  0  0  0  0  0  0  0  0  0  0
    8.7934   -1.4101   -1.9902 H   0  0  0  0  0  0  0  0  0  0  0  0
    8.1659    0.1903   -1.9787 H   0  0  0  0  0  0  0  0  0  0  0  0
    7.3145    0.8401    0.5010 H   0  0  0  0  0  0  0  0  0  0  0  0
    6.6493   -0.5716    1.4264 H   0  0  0  0  0  0  0  0  0  0  0  0
    8.0988   -2.0878    2.6167 H   0  0  0  0  0  0  0  0  0  0  0  0
   10.2868   -2.4895    3.6517 H   0  0  0  0  0  0  0  0  0  0  0  0
   12.2396   -1.1211    3.0391 H   0  0  0  0  0  0  0  0  0  0  0  0
   11.9962    0.6466    1.3894 H   0  0  0  0  0  0  0  0  0  0  0  0
    9.7770    1.0810    0.3182 H   0  0  0  0  0  0  0  0  0  0  0  0
   -1.3154    1.4879    1.8833 H   0  0  0  0  0  0  0  0  0  0  0  0
   -3.3994    0.8122    2.0926 H   0  0  0  0  0  0  0  0  0  0  0  0
   -4.9093    1.7236    0.4323 H   0  0  0  0  0  0  0  0  0  0  0  0
   -3.5861    2.0671   -0.7063 H   0  0  0  0  0  0  0  0  0  0  0  0
   -2.4221    3.2684    1.2129 H   0  0  0  0  0  0  0  0  0  0  0  0
   -3.8404    2.9270    2.2296 H   0  0  0  0  0  0  0  0  0  0  0  0
   -3.8657    4.6005   -0.3428 H   0  0  0  0  0  0  0  0  0  0  0  0
   -5.3008    4.2209    0.7163 H   0  0  0  0  0  0  0  0  0  0  0  0
   -3.1976    5.3373    2.3859 H   0  0  0  0  0  0  0  0  0  0  0  0
   -6.4129    6.4787    1.1958 H   0  0  0  0  0  0  0  0  0  0  0  0
   -5.7307    7.6415    0.0046 H   0  0  0  0  0  0  0  0  0  0  0  0
   -2.5924    7.6514    2.0178 H   0  0  0  0  0  0  0  0  0  0  0  0
   -5.6698   -0.1328    0.4957 H   0  0  0  0  0  0  0  0  0  0  0  0
   -4.5008   -2.8161   -0.2359 H   0  0  0  0  0  0  0  0  0  0  0  0
   -7.0265   -1.8151    1.1737 H   0  0  0  0  0  0  0  0  0  0  0  0
   -5.6314   -2.5794    1.9374 H   0  0  0  0  0  0  0  0  0  0  0  0
   -8.7275   -3.1822    0.0766 H   0  0  0  0  0  0  0  0  0  0  0  0
   -9.7721   -5.4131   -0.2084 H   0  0  0  0  0  0  0  0  0  0  0  0
   -8.4929   -7.4619    0.4172 H   0  0  0  0  0  0  0  0  0  0  0  0
   -6.1884   -7.2319    1.3198 H   0  0  0  0  0  0  0  0  0  0  0  0
   -5.2067   -5.0290    1.5807 H   0  0  0  0  0  0  0  0  0  0  0  0
   -6.0735   -3.8474   -2.3364 H   0  0  0  0  0  0  0  0  0  0  0  0
   -7.6023   -2.9634   -2.5521 H   0  0  0  0  0  0  0  0  0  0  0  0
  1  2  1  0
  2  3  1  0
  2  4  1  0
  4  5  1  0
  5  6  1  0
  6  7  1  0
  7  8  2  0
  7  9  1  0
  9 10  1  0
 10 11  1  0
 11 12  1  0
 12 13  1  0
 12 14  2  0
  9 15  1  0
 15 16  1  0
 16 17  2  0
 16 18  1  0
 18 19  1  0
 18 20  1  0
 20 21  1  0
 21 22  2  0
 22 23  1  0
 23 24  2  0
 24 25  1  0
 25 26  2  0
  5 27  1  0
 27 28  2  0
 27 29  1  0
 29 30  1  0
 30 31  1  0
 31 32  1  0
 32 33  1  0
 33 34  1  0
 34 35  1  0
 35 36  1  0
 35 37  2  3
 30 38  1  0
 38 39  2  0
 38 40  1  0
 40 41  1  0
 41 42  1  0
 42 43  1  0
 43 44  2  0
 44 45  1  0
 45 46  2  0
 46 47  1  0
 47 48  2  0
 41 49  1  0
 49 50  1  0
 49 51  2  0
 26 21  1  0
 48 43  1  0
  1 52  1  0
  1 53  1  0
  1 54  1  0
  2 55  1  0
  3 56  1  0
  3 57  1  0
  3 58  1  0
  4 59  1  0
  4 60  1  0
  5 61  1  1
  6 62  1  0
  9 63  1  6
 10 64  1  0
 10 65  1  0
 11 66  1  0
 11 67  1  0
 13 68  1  0
 13 69  1  0
 15 70  1  0
 18 71  1  1
 19 72  1  0
 19 73  1  0
 20 74  1  0
 20 75  1  0
 22 76  1  0
 23 77  1  0
 24 78  1  0
 25 79  1  0
 26 80  1  0
 29 81  1  0
 30 82  1  1
 31 83  1  0
 31 84  1  0
 32 85  1  0
 32 86  1  0
 33 87  1  0
 33 88  1  0
 34 89  1  0
 36 90  1  0
 36 91  1  0
 37 92  1  0
 40 93  1  0
 41 94  1  6
 42 95  1  0
 42 96  1  0
 44 97  1  0
 45 98  1  0
 46 99  1  0
 47100  1  0
 48101  1  0
 50102  1  0
 50103  1  0
M  END
$$$$
[H]c1nc2nc(N(C([H])([H])[H])C([H])([H])[H])n([C@]3([H])C([H])([H])[C@@]4([H])N(C(=O)c5c(F)c([H])c(C(F)(F)F)c([H])c5Br)[C@]([H])(C([H])([H])C4([H])[H])C3([H])[H])c2c([H])c1[H]
     RDKit          3D

 56 60  0  0  0  0  0  0  0  0999 V2000
    7.8576    1.4213   -1.2497 F   0  0  0  0  0  0  0  0  0  0  0  0
    7.4357    1.5281    0.0540 C   0  0  0  0  0  0  0  0  0  0  0  0
    7.4555    2.8614    0.3889 F   0  0  0  0  0  0  0  0  0  0  0  0
    8.3543    0.9055    0.8938 F   0  0  0  0  0  0  0  0  0  0  0  0
    6.0791    0.9219    0.2694 C   0  0  0  0  0  0  0  0  0  0  0  0
    5.0829    1.5784    0.9587 C   0  0  0  0  0  0  0  0  0  0  0  0
    3.8296    0.9603    1.1552 C   0  0  0  0  0  0  0  0  0  0  0  0
    2.5652    1.9774    2.1369 Br  0  0  0  0  0  0  0  0  0  0  0  0
    3.5782   -0.2904    0.6733 C   0  0  0  0  0  0  0  0  0  0  0  0
    2.3848   -1.0117    0.9181 C   0  0  0  0  0  0  0  0  0  0  0  0
    1.1586   -1.1137    0.2640 N   0  0  0  0  0  0  0  0  0  0  0  0
    0.0710   -1.9704    0.6930 C   0  0  1  0  0  0  0  0  0  0  0  0
   -1.1695   -1.2649    1.1391 C   0  0  0  0  0  0  0  0  0  0  0  0
   -1.3677    0.0138    0.4821 C   0  0  2  0  0  0  0  0  0  0  0  0
   -2.7017    0.5451    0.3486 N   0  0  0  0  0  0  0  0  0  0  0  0
   -3.8911    0.0541    0.1309 C   0  0  0  0  0  0  0  0  0  0  0  0
   -4.2667   -1.3088   -0.0337 N   0  0  0  0  0  0  0  0  0  0  0  0
   -4.8485   -2.1230    1.0114 C   0  0  0  0  0  0  0  0  0  0  0  0
   -4.1008   -1.8942   -1.3347 C   0  0  0  0  0  0  0  0  0  0  0  0
   -4.8428    1.0559    0.0588 N   0  0  0  0  0  0  0  0  0  0  0  0
   -4.1919    2.1982    0.2393 C   0  0  0  0  0  0  0  0  0  0  0  0
   -2.8775    1.9135    0.4198 C   0  0  0  0  0  0  0  0  0  0  0  0
   -2.0288    2.9848    0.6195 C   0  0  0  0  0  0  0  0  0  0  0  0
   -2.4995    4.2925    0.6360 C   0  0  0  0  0  0  0  0  0  0  0  0
   -3.8401    4.4978    0.4485 C   0  0  0  0  0  0  0  0  0  0  0  0
   -4.6587    3.4719    0.2571 N   0  0  0  0  0  0  0  0  0  0  0  0
   -0.6475    0.1497   -0.8456 C   0  0  0  0  0  0  0  0  0  0  0  0
    0.6591   -0.5213   -0.9368 C   0  0  2  0  0  0  0  0  0  0  0  0
    0.3803   -1.8478   -1.7230 C   0  0  0  0  0  0  0  0  0  0  0  0
   -0.1690   -2.7291   -0.6270 C   0  0  0  0  0  0  0  0  0  0  0  0
    2.4930   -1.7562    2.0254 O   0  0  0  0  0  0  0  0  0  0  0  0
    4.5941   -0.9575   -0.0324 C   0  0  0  0  0  0  0  0  0  0  0  0
    4.4407   -2.1911   -0.5481 F   0  0  0  0  0  0  0  0  0  0  0  0
    5.8101   -0.3421   -0.2162 C   0  0  0  0  0  0  0  0  0  0  0  0
    5.2668    2.5601    1.3479 H   0  0  0  0  0  0  0  0  0  0  0  0
    0.4270   -2.6920    1.4648 H   0  0  0  0  0  0  0  0  0  0  0  0
   -1.0079   -1.0722    2.2548 H   0  0  0  0  0  0  0  0  0  0  0  0
   -1.9760   -2.0194    1.0288 H   0  0  0  0  0  0  0  0  0  0  0  0
   -0.7942    0.7774    1.1409 H   0  0  0  0  0  0  0  0  0  0  0  0
   -5.9415   -2.2455    0.9220 H   0  0  0  0  0  0  0  0  0  0  0  0
   -4.6936   -1.6198    2.0003 H   0  0  0  0  0  0  0  0  0  0  0  0
   -4.3056   -3.1157    1.0213 H   0  0  0  0  0  0  0  0  0  0  0  0
   -5.1012   -2.0338   -1.8461 H   0  0  0  0  0  0  0  0  0  0  0  0
   -3.5171   -1.2422   -1.9998 H   0  0  0  0  0  0  0  0  0  0  0  0
   -3.5706   -2.8764   -1.2368 H   0  0  0  0  0  0  0  0  0  0  0  0
   -0.9794    2.8165    0.7705 H   0  0  0  0  0  0  0  0  0  0  0  0
   -1.8661    5.1422    0.7850 H   0  0  0  0  0  0  0  0  0  0  0  0
   -4.2071    5.5386    0.4665 H   0  0  0  0  0  0  0  0  0  0  0  0
   -1.3839   -0.1919   -1.6110 H   0  0  0  0  0  0  0  0  0  0  0  0
   -0.5596    1.2779   -1.0230 H   0  0  0  0  0  0  0  0  0  0  0  0
    1.4201    0.0853   -1.4904 H   0  0  0  0  0  0  0  0  0  0  0  0
   -0.3583   -1.5517   -2.4792 H   0  0  0  0  0  0  0  0  0  0  0  0
    1.3477   -2.2062   -2.1060 H   0  0  0  0  0  0  0  0  0  0  0  0
   -1.2613   -2.7763   -0.7735 H   0  0  0  0  0  0  0  0  0  0  0  0
    0.2942   -3.7290   -0.5922 H   0  0  0  0  0  0  0  0  0  0  0  0
    6.6397   -0.8351   -0.7588 H   0  0  0  0  0  0  0  0  0  0  0  0
  1  2  1  0
  2  3  1  0
  2  4  1  0
  2  5  1  0
  5  6  2  0
  6  7  1  0
  7  8  1  0
  7  9  2  0
  9 10  1  0
 10 11  1  0
 11 12  1  0
 12 13  1  0
 13 14  1  0
 14 15  1  0
 15 16  1  0
 16 17  1  0
 17 18  1  0
 17 19  1  0
 16 20  2  0
 20 21  1  0
 21 22  2  0
 22 23  1  0
 23 24  2  0
 24 25  1  0
 25 26  2  0
 14 27  1  0
 27 28  1  0
 28 29  1  0
 29 30  1  0
 10 31  2  0
  9 32  1  0
 32 33  1  0
 32 34  2  0
 34  5  1  0
 28 11  1  0
 30 12  1  0
 22 15  1  0
 26 21  1  0
  6 35  1  0
 12 36  1  1
 13 37  1  0
 13 38  1  0
 14 39  1  1
 18 40  1  0
 18 41  1  0
 18 42  1  0
 19 43  1  0
 19 44  1  0
 19 45  1  0
 23 46  1  0
 24 47  1  0
 25 48  1  0
 27 49  1  0
 27 50  1  0
 28 51  1  6
 29 52  1  0
 29 53  1  0
 30 54  1  0
 30 55  1  0
 34 56  1  0
M  END
$$$$
[H]c1nc(N([H])[H])c2c([H])c(C([H])(C([H])([H])[H])C([H])([H])[H])c([H])c([H])c2n1
     RDKit          3D

 27 28  0  0  0  0  0  0  0  0999 V2000
    2.1832    1.9473    1.1965 N   0  0  0  0  0  0  0  0  0  0  0  0
    2.4644    0.7061    0.5613 C   0  0  0  0  0  0  0  0  0  0  0  0
    3.7509    0.3262    0.4781 N   0  0  0  0  0  0  0  0  0  0  0  0
    4.0690   -0.8525   -0.1203 C   0  0  0  0  0  0  0  0  0  0  0  0
    3.0730   -1.5841   -0.6023 N   0  0  0  0  0  0  0  0  0  0  0  0
    1.7710   -1.2660   -0.5535 C   0  0  0  0  0  0  0  0  0  0  0  0
    0.7698   -2.0658   -1.0722 C   0  0  0  0  0  0  0  0  0  0  0  0
   -0.5645   -1.6601   -0.9797 C   0  0  0  0  0  0  0  0  0  0  0  0
   -0.9026   -0.4664   -0.3751 C   0  0  0  0  0  0  0  0  0  0  0  0
   -2.3056   -0.0779   -0.2981 C   0  0  0  0  0  0  0  0  0  0  0  0
   -2.6846   -0.0355    1.1887 C   0  0  0  0  0  0  0  0  0  0  0  0
   -2.6073    1.2835   -0.8544 C   0  0  0  0  0  0  0  0  0  0  0  0
    0.1247    0.2988    0.1276 C   0  0  0  0  0  0  0  0  0  0  0  0
    1.4453   -0.0712    0.0529 C   0  0  0  0  0  0  0  0  0  0  0  0
    2.0834    2.8481    0.6669 H   0  0  0  0  0  0  0  0  0  0  0  0
    2.0777    1.9214    2.2401 H   0  0  0  0  0  0  0  0  0  0  0  0
    5.1149   -1.1188   -0.1653 H   0  0  0  0  0  0  0  0  0  0  0  0
    1.0540   -2.9916   -1.5391 H   0  0  0  0  0  0  0  0  0  0  0  0
   -1.3482   -2.2942   -1.3901 H   0  0  0  0  0  0  0  0  0  0  0  0
   -2.9639   -0.8380   -0.7642 H   0  0  0  0  0  0  0  0  0  0  0  0
   -1.8108    0.3007    1.7947 H   0  0  0  0  0  0  0  0  0  0  0  0
   -3.5509    0.6207    1.2742 H   0  0  0  0  0  0  0  0  0  0  0  0
   -2.9365   -1.0708    1.5071 H   0  0  0  0  0  0  0  0  0  0  0  0
   -1.9241    1.6098   -1.6468 H   0  0  0  0  0  0  0  0  0  0  0  0
   -3.6257    1.2508   -1.2957 H   0  0  0  0  0  0  0  0  0  0  0  0
   -2.6421    2.0542   -0.0308 H   0  0  0  0  0  0  0  0  0  0  0  0
   -0.1145    1.2254    0.5991 H   0  0  0  0  0  0  0  0  0  0  0  0
  1  2  1  0
  2  3  2  0
  3  4  1  0
  4  5  2  0
  5  6  1  0
  6  7  2  0
  7  8  1  0
  8  9  2  0
  9 10  1  0
 10 11  1  0
 10 12  1  0
  9 13  1  0
 13 14  2  0
 14  2  1  0
 14  6  1  0
  1 15  1  0
  1 16  1  0
  4 17  1  0
  7 18  1  0
  8 19  1  0
 10 20  1  0
 11 21  1  0
 11 22  1  0
 11 23  1  0
 12 24  1  0
 12 25  1  0
 12 26  1  0
 13 27  1  0
M  END
$$$$
[H]c1c([H])c([H])c(C([H])([H])[C@@]([H])(C(=O)N([H])[C@]([H])(C(=O)N([H])[C@]([H])(C(=O)N([H])[H])C([H])([H])c2c([H])n([H])c3c([H])c([H])c([H])c([H])c23)C([H])([H])c2c([H])c([H])c([H])c([H])c2[H])N([H])C(=O)[C@@]([H])(N([H])C(=O)[C@]([H])(N([H])C(=O)[C@@]([H])(N([H])[H])C([H])([H])C([H])(C([H])([H])[H])C([H])([H])[H])C([H])([H])c2c([H])c([H])c([H])c([H])c2[H])C([H])([H])c2c([H])c([H])c([H])c([H])c2[H])c([H])c1[H]
     RDKit          3D

127132  0  0  0  0  0  0  0  0999 V2000
   -7.8719   -0.6682    3.0637 C   0  0  0  0  0  0  0  0  0  0  0  0
   -8.3753   -1.9852    2.5873 C   0  0  0  0  0  0  0  0  0  0  0  0
   -8.3244   -2.9950    3.7247 C   0  0  0  0  0  0  0  0  0  0  0  0
   -7.7831   -2.5245    1.3321 C   0  0  0  0  0  0  0  0  0  0  0  0
   -6.3140   -2.7478    1.3394 C   0  0  2  0  0  0  0  0  0  0  0  0
   -5.8725   -3.6417    2.3717 N   0  0  0  0  0  0  0  0  0  0  0  0
   -5.4708   -1.5546    1.1939 C   0  0  0  0  0  0  0  0  0  0  0  0
   -4.6416   -1.2168    2.0774 O   0  0  0  0  0  0  0  0  0  0  0  0
   -5.5562   -0.7359    0.0377 N   0  0  0  0  0  0  0  0  0  0  0  0
   -4.7404    0.4493   -0.1828 C   0  0  2  0  0  0  0  0  0  0  0  0
   -5.4858    1.6234   -0.7059 C   0  0  0  0  0  0  0  0  0  0  0  0
   -6.5853    2.1259    0.0891 C   0  0  0  0  0  0  0  0  0  0  0  0
   -6.4123    3.0423    1.0844 C   0  0  0  0  0  0  0  0  0  0  0  0
   -7.5063    3.5137    1.8193 C   0  0  0  0  0  0  0  0  0  0  0  0
   -8.7779    3.0685    1.5588 C   0  0  0  0  0  0  0  0  0  0  0  0
   -8.9607    2.1427    0.5566 C   0  0  0  0  0  0  0  0  0  0  0  0
   -7.8689    1.6681   -0.1805 C   0  0  0  0  0  0  0  0  0  0  0  0
   -3.6070    0.0860   -1.0973 C   0  0  0  0  0  0  0  0  0  0  0  0
   -3.5263   -1.1152   -1.4434 O   0  0  0  0  0  0  0  0  0  0  0  0
   -2.6358    0.9527   -1.6046 N   0  0  0  0  0  0  0  0  0  0  0  0
   -1.5627    0.4962   -2.4956 C   0  0  1  0  0  0  0  0  0  0  0  0
   -1.8161    0.8355   -3.8968 C   0  0  0  0  0  0  0  0  0  0  0  0
   -2.0102    2.2091   -4.2947 C   0  0  0  0  0  0  0  0  0  0  0  0
   -3.2714    2.7988   -4.1425 C   0  0  0  0  0  0  0  0  0  0  0  0
   -3.4996    4.0996   -4.5311 C   0  0  0  0  0  0  0  0  0  0  0  0
   -2.4976    4.8725   -5.0846 C   0  0  0  0  0  0  0  0  0  0  0  0
   -1.2578    4.3020   -5.2377 C   0  0  0  0  0  0  0  0  0  0  0  0
   -1.0509    2.9971   -4.8416 C   0  0  0  0  0  0  0  0  0  0  0  0
   -0.2390    0.5635   -1.8929 C   0  0  0  0  0  0  0  0  0  0  0  0
   -0.1080    1.2036   -0.8284 O   0  0  0  0  0  0  0  0  0  0  0  0
    0.8820   -0.0809   -2.4533 N   0  0  0  0  0  0  0  0  0  0  0  0
    2.2084   -0.1782   -1.9568 C   0  0  1  0  0  0  0  0  0  0  0  0
    2.9945    1.0731   -1.7514 C   0  0  0  0  0  0  0  0  0  0  0  0
    3.2362    1.9013   -2.9169 C   0  0  0  0  0  0  0  0  0  0  0  0
    2.4368    2.9902   -3.1791 C   0  0  0  0  0  0  0  0  0  0  0  0
    2.6744    3.8055   -4.2710 C   0  0  0  0  0  0  0  0  0  0  0  0
    3.7057    3.5810   -5.1483 C   0  0  0  0  0  0  0  0  0  0  0  0
    4.5127    2.4759   -4.8809 C   0  0  0  0  0  0  0  0  0  0  0  0
    4.2815    1.6592   -3.7925 C   0  0  0  0  0  0  0  0  0  0  0  0
    2.2226   -0.8775   -0.6113 C   0  0  0  0  0  0  0  0  0  0  0  0
    1.1581   -1.1108   -0.0456 O   0  0  0  0  0  0  0  0  0  0  0  0
    3.4371   -1.2602    0.0021 N   0  0  0  0  0  0  0  0  0  0  0  0
    3.4411   -1.8822    1.3148 C   0  0  1  0  0  0  0  0  0  0  0  0
    2.9254   -3.3222    1.2653 C   0  0  0  0  0  0  0  0  0  0  0  0
    3.6824   -4.2328    0.4386 C   0  0  0  0  0  0  0  0  0  0  0  0
    4.7407   -4.9302    0.9818 C   0  0  0  0  0  0  0  0  0  0  0  0
    5.5023   -5.8348    0.2444 C   0  0  0  0  0  0  0  0  0  0  0  0
    5.1785   -6.0394   -1.0882 C   0  0  0  0  0  0  0  0  0  0  0  0
    4.1301   -5.3504   -1.6311 C   0  0  0  0  0  0  0  0  0  0  0  0
    3.4032   -4.4685   -0.8797 C   0  0  0  0  0  0  0  0  0  0  0  0
    4.7184   -1.7832    1.9691 C   0  0  0  0  0  0  0  0  0  0  0  0
    5.7659   -2.0119    1.2589 O   0  0  0  0  0  0  0  0  0  0  0  0
    4.9775   -1.4650    3.3178 N   0  0  0  0  0  0  0  0  0  0  0  0
    6.2323   -1.4138    3.9718 C   0  0  1  0  0  0  0  0  0  0  0  0
    6.8650   -0.0893    4.2053 C   0  0  0  0  0  0  0  0  0  0  0  0
    7.1821    0.6529    2.9716 C   0  0  0  0  0  0  0  0  0  0  0  0
    8.4335    0.5721    2.3052 C   0  0  0  0  0  0  0  0  0  0  0  0
    8.3917    1.3361    1.2125 N   0  0  0  0  0  0  0  0  0  0  0  0
    7.1907    1.9269    1.1023 C   0  0  0  0  0  0  0  0  0  0  0  0
    6.6378    2.8099    0.2014 C   0  0  0  0  0  0  0  0  0  0  0  0
    5.3575    3.3035    0.3308 C   0  0  0  0  0  0  0  0  0  0  0  0
    4.6268    2.8749    1.4167 C   0  0  0  0  0  0  0  0  0  0  0  0
    5.1552    1.9846    2.3419 C   0  0  0  0  0  0  0  0  0  0  0  0
    6.4440    1.5053    2.1867 C   0  0  0  0  0  0  0  0  0  0  0  0
    6.2577   -2.2588    5.2074 C   0  0  0  0  0  0  0  0  0  0  0  0
    7.3952   -2.3877    6.0323 N   0  0  0  0  0  0  0  0  0  0  0  0
    5.2118   -2.8743    5.5092 O   0  0  0  0  0  0  0  0  0  0  0  0
   -8.7477   -0.0357    3.4089 H   0  0  0  0  0  0  0  0  0  0  0  0
   -7.2949   -0.8102    4.0253 H   0  0  0  0  0  0  0  0  0  0  0  0
   -7.3394   -0.0482    2.3553 H   0  0  0  0  0  0  0  0  0  0  0  0
   -9.4832   -1.8678    2.3731 H   0  0  0  0  0  0  0  0  0  0  0  0
   -9.2417   -2.9320    4.3399 H   0  0  0  0  0  0  0  0  0  0  0  0
   -8.2973   -4.0594    3.3478 H   0  0  0  0  0  0  0  0  0  0  0  0
   -7.4686   -2.8016    4.4075 H   0  0  0  0  0  0  0  0  0  0  0  0
   -8.3181   -3.4576    1.0749 H   0  0  0  0  0  0  0  0  0  0  0  0
   -8.0063   -1.7863    0.5235 H   0  0  0  0  0  0  0  0  0  0  0  0
   -6.1151   -3.3404    0.3664 H   0  0  0  0  0  0  0  0  0  0  0  0
   -4.8352   -3.5689    2.4861 H   0  0  0  0  0  0  0  0  0  0  0  0
   -6.1063   -4.6418    2.1777 H   0  0  0  0  0  0  0  0  0  0  0  0
   -6.2472   -1.0061   -0.6923 H   0  0  0  0  0  0  0  0  0  0  0  0
   -4.2596    0.7002    0.7801 H   0  0  0  0  0  0  0  0  0  0  0  0
   -5.8020    1.4072   -1.7656 H   0  0  0  0  0  0  0  0  0  0  0  0
   -4.7167    2.4447   -0.8499 H   0  0  0  0  0  0  0  0  0  0  0  0
   -5.4263    3.4039    1.3026 H   0  0  0  0  0  0  0  0  0  0  0  0
   -7.3119    4.2382    2.5949 H   0  0  0  0  0  0  0  0  0  0  0  0
   -9.6431    3.4403    2.1361 H   0  0  0  0  0  0  0  0  0  0  0  0
   -9.9709    1.8028    0.3690 H   0  0  0  0  0  0  0  0  0  0  0  0
   -8.0073    0.9426   -0.9664 H   0  0  0  0  0  0  0  0  0  0  0  0
   -2.6514    1.9578   -1.3635 H   0  0  0  0  0  0  0  0  0  0  0  0
   -1.7659   -0.6636   -2.4622 H   0  0  0  0  0  0  0  0  0  0  0  0
   -1.0287    0.3720   -4.5748 H   0  0  0  0  0  0  0  0  0  0  0  0
   -2.7434    0.2633   -4.2217 H   0  0  0  0  0  0  0  0  0  0  0  0
   -4.0518    2.2098   -3.7161 H   0  0  0  0  0  0  0  0  0  0  0  0
   -4.4772    4.5890   -4.4276 H   0  0  0  0  0  0  0  0  0  0  0  0
   -2.6992    5.9152   -5.3893 H   0  0  0  0  0  0  0  0  0  0  0  0
   -0.4669    4.8867   -5.6692 H   0  0  0  0  0  0  0  0  0  0  0  0
   -0.0789    2.5826   -4.9825 H   0  0  0  0  0  0  0  0  0  0  0  0
    0.7310   -0.5821   -3.4041 H   0  0  0  0  0  0  0  0  0  0  0  0
    2.8540   -0.8150   -2.6421 H   0  0  0  0  0  0  0  0  0  0  0  0
    3.9864    0.8006   -1.2647 H   0  0  0  0  0  0  0  0  0  0  0  0
    2.4142    1.6782   -0.9687 H   0  0  0  0  0  0  0  0  0  0  0  0
    1.5961    3.2086   -2.5120 H   0  0  0  0  0  0  0  0  0  0  0  0
    2.0437    4.6692   -4.4847 H   0  0  0  0  0  0  0  0  0  0  0  0
    3.8910    4.2141   -5.9944 H   0  0  0  0  0  0  0  0  0  0  0  0
    5.3564    2.2386   -5.5450 H   0  0  0  0  0  0  0  0  0  0  0  0
    4.9019    0.8004   -3.5746 H   0  0  0  0  0  0  0  0  0  0  0  0
    4.3226   -1.0809   -0.5221 H   0  0  0  0  0  0  0  0  0  0  0  0
    2.6379   -1.3571    1.8878 H   0  0  0  0  0  0  0  0  0  0  0  0
    2.8681   -3.6550    2.3183 H   0  0  0  0  0  0  0  0  0  0  0  0
    1.8729   -3.2679    0.8922 H   0  0  0  0  0  0  0  0  0  0  0  0
    5.0446   -4.8132    2.0282 H   0  0  0  0  0  0  0  0  0  0  0  0
    6.3265   -6.3853    0.6441 H   0  0  0  0  0  0  0  0  0  0  0  0
    5.7560   -6.7481   -1.6935 H   0  0  0  0  0  0  0  0  0  0  0  0
    3.8887   -5.5171   -2.6515 H   0  0  0  0  0  0  0  0  0  0  0  0
    2.5857   -3.9464   -1.3397 H   0  0  0  0  0  0  0  0  0  0  0  0
    4.1208   -1.2352    3.8976 H   0  0  0  0  0  0  0  0  0  0  0  0
    6.9547   -1.9220    3.2093 H   0  0  0  0  0  0  0  0  0  0  0  0
    7.8200   -0.2208    4.7887 H   0  0  0  0  0  0  0  0  0  0  0  0
    6.2224    0.5935    4.8216 H   0  0  0  0  0  0  0  0  0  0  0  0
    9.2576   -0.0271    2.6702 H   0  0  0  0  0  0  0  0  0  0  0  0
    9.1588    1.4986    0.4915 H   0  0  0  0  0  0  0  0  0  0  0  0
    7.2096    3.1541   -0.6646 H   0  0  0  0  0  0  0  0  0  0  0  0
    4.9645    4.0058   -0.4191 H   0  0  0  0  0  0  0  0  0  0  0  0
    3.6258    3.2486    1.5421 H   0  0  0  0  0  0  0  0  0  0  0  0
    4.5556    1.6609    3.1941 H   0  0  0  0  0  0  0  0  0  0  0  0
    7.6207   -1.6244    6.7267 H   0  0  0  0  0  0  0  0  0  0  0  0
    8.0469   -3.1758    6.0228 H   0  0  0  0  0  0  0  0  0  0  0  0
  1  2  1  0
  2  3  1  0
  2  4  1  0
  4  5  1  0
  5  6  1  0
  5  7  1  0
  7  8  2  0
  7  9  1  0
  9 10  1  0
 10 11  1  0
 11 12  1  0
 12 13  2  0
 13 14  1  0
 14 15  2  0
 15 16  1  0
 16 17  2  0
 10 18  1  0
 18 19  2  0
 18 20  1  0
 20 21  1  0
 21 22  1  0
 22 23  1  0
 23 24  2  0
 24 25  1  0
 25 26  2  0
 26 27  1  0
 27 28  2  0
 21 29  1  0
 29 30  2  0
 29 31  1  0
 31 32  1  0
 32 33  1  0
 33 34  1  0
 34 35  2  0
 35 36  1  0
 36 37  2  0
 37 38  1  0
 38 39  2  0
 32 40  1  0
 40 41  2  0
 40 42  1  0
 42 43  1  0
 43 44  1  0
 44 45  1  0
 45 46  2  0
 46 47  1  0
 47 48  2  0
 48 49  1  0
 49 50  2  0
 43 51  1  0
 51 52  2  0
 51 53  1  0
 53 54  1  0
 54 55  1  0
 55 56  1  0
 56 57  2  0
 57 58  1  0
 58 59  1  0
 59 60  2  0
 60 61  1  0
 61 62  2  0
 62 63  1  0
 63 64  2  0
 54 65  1  0
 65 66  1  0
 65 67  2  0
 17 12  1  0
 28 23  1  0
 39 34  1  0
 50 45  1  0
 64 56  1  0
 64 59  1  0
  1 68  1  0
  1 69  1  0
  1 70  1  0
  2 71  1  0
  3 72  1  0
  3 73  1  0
  3 74  1  0
  4 75  1  0
  4 76  1  0
  5 77  1  6
  6 78  1  0
  6 79  1  0
  9 80  1  0
 10 81  1  1
 11 82  1  0
 11 83  1  0
 13 84  1  0
 14 85  1  0
 15 86  1  0
 16 87  1  0
 17 88  1  0
 20 89  1  0
 21 90  1  6
 22 91  1  0
 22 92  1  0
 24 93  1  0
 25 94  1  0
 26 95  1  0
 27 96  1  0
 28 97  1  0
 31 98  1  0
 32 99  1  6
 33100  1  0
 33101  1  0
 35102  1  0
 36103  1  0
 37104  1  0
 38105  1  0
 39106  1  0
 42107  1  0
 43108  1  1
 44109  1  0
 44110  1  0
 46111  1  0
 47112  1  0
 48113  1  0
 49114  1  0
 50115  1  0
 53116  1  0
 54117  1  6
 55118  1  0
 55119  1  0
 57120  1  0
 58121  1  0
 60122  1  0
 61123  1  0
 62124  1  0
 63125  1  0
 66126  1  0
 66127  1  0
M  END
$$$$
[H]c1c([H])c(C([H])([H])N2C([H])([H])C([H])([H])N(C(=O)OC([H])([H])[H])C([H])([H])C2([H])[H])c([H])c([H])c1-c1c([H])c2c([H])c([H])c([H])c([H])c2n1[H]
     RDKit          3D

 49 52  0  0  0  0  0  0  0  0999 V2000
    8.2543   -0.2625   -0.0308 C   0  0  0  0  0  0  0  0  0  0  0  0
    6.8582   -0.5477    0.0111 O   0  0  0  0  0  0  0  0  0  0  0  0
    5.9572   -0.0368   -0.9020 C   0  0  0  0  0  0  0  0  0  0  0  0
    6.3981    0.7127   -1.8073 O   0  0  0  0  0  0  0  0  0  0  0  0
    4.5689   -0.3343   -0.8414 N   0  0  0  0  0  0  0  0  0  0  0  0
    3.6308    0.2077   -1.8056 C   0  0  0  0  0  0  0  0  0  0  0  0
    2.5129    0.9240   -1.0887 C   0  0  0  0  0  0  0  0  0  0  0  0
    2.6822    0.8570    0.3258 N   0  0  0  0  0  0  0  0  0  0  0  0
    1.7050    1.5912    1.0613 C   0  0  0  0  0  0  0  0  0  0  0  0
    0.3141    1.1632    0.8471 C   0  0  0  0  0  0  0  0  0  0  0  0
   -0.2807    0.1766    1.6049 C   0  0  0  0  0  0  0  0  0  0  0  0
   -1.5988   -0.2151    1.3884 C   0  0  0  0  0  0  0  0  0  0  0  0
   -2.3269    0.4024    0.3880 C   0  0  0  0  0  0  0  0  0  0  0  0
   -1.7545    1.3869   -0.3783 C   0  0  0  0  0  0  0  0  0  0  0  0
   -0.4318    1.7728   -0.1535 C   0  0  0  0  0  0  0  0  0  0  0  0
   -3.7140   -0.0025    0.1521 C   0  0  0  0  0  0  0  0  0  0  0  0
   -4.4304   -0.9599    0.8198 C   0  0  0  0  0  0  0  0  0  0  0  0
   -5.7030   -1.0368    0.2922 C   0  0  0  0  0  0  0  0  0  0  0  0
   -6.8350   -1.7853    0.5407 C   0  0  0  0  0  0  0  0  0  0  0  0
   -8.0063   -1.6429   -0.1702 C   0  0  0  0  0  0  0  0  0  0  0  0
   -8.0242   -0.6996   -1.1743 C   0  0  0  0  0  0  0  0  0  0  0  0
   -6.9100    0.0639   -1.4470 C   0  0  0  0  0  0  0  0  0  0  0  0
   -5.7421   -0.0923   -0.7233 C   0  0  0  0  0  0  0  0  0  0  0  0
   -4.5354    0.5064   -0.7780 N   0  0  0  0  0  0  0  0  0  0  0  0
    2.8792   -0.4753    0.8364 C   0  0  0  0  0  0  0  0  0  0  0  0
    4.0145   -1.1969    0.1891 C   0  0  0  0  0  0  0  0  0  0  0  0
    8.8089   -1.1265    0.3920 H   0  0  0  0  0  0  0  0  0  0  0  0
    8.4906    0.6484    0.5897 H   0  0  0  0  0  0  0  0  0  0  0  0
    8.6098   -0.0657   -1.0547 H   0  0  0  0  0  0  0  0  0  0  0  0
    3.2217   -0.6624   -2.3626 H   0  0  0  0  0  0  0  0  0  0  0  0
    4.1494    0.8471   -2.5474 H   0  0  0  0  0  0  0  0  0  0  0  0
    1.5585    0.5656   -1.4706 H   0  0  0  0  0  0  0  0  0  0  0  0
    2.5882    2.0058   -1.3806 H   0  0  0  0  0  0  0  0  0  0  0  0
    1.9104    1.4852    2.1563 H   0  0  0  0  0  0  0  0  0  0  0  0
    1.8360    2.6778    0.8502 H   0  0  0  0  0  0  0  0  0  0  0  0
    0.2601   -0.3254    2.3938 H   0  0  0  0  0  0  0  0  0  0  0  0
   -2.0422   -0.9943    1.9995 H   0  0  0  0  0  0  0  0  0  0  0  0
   -2.3516    1.8424   -1.1449 H   0  0  0  0  0  0  0  0  0  0  0  0
   -0.0495    2.5492   -0.7909 H   0  0  0  0  0  0  0  0  0  0  0  0
   -4.0882   -1.5744    1.6322 H   0  0  0  0  0  0  0  0  0  0  0  0
   -6.7785   -2.5099    1.3325 H   0  0  0  0  0  0  0  0  0  0  0  0
   -8.8982   -2.2453    0.0389 H   0  0  0  0  0  0  0  0  0  0  0  0
   -8.9278   -0.5707   -1.7427 H   0  0  0  0  0  0  0  0  0  0  0  0
   -6.9331    0.8089   -2.2442 H   0  0  0  0  0  0  0  0  0  0  0  0
   -4.3119    1.2581   -1.4644 H   0  0  0  0  0  0  0  0  0  0  0  0
    3.0917   -0.3722    1.9312 H   0  0  0  0  0  0  0  0  0  0  0  0
    1.9551   -1.1031    0.7843 H   0  0  0  0  0  0  0  0  0  0  0  0
    3.6447   -2.1204   -0.3259 H   0  0  0  0  0  0  0  0  0  0  0  0
    4.7735   -1.4952    0.9297 H   0  0  0  0  0  0  0  0  0  0  0  0
  1  2  1  0
  2  3  1  0
  3  4  2  0
  3  5  1  0
  5  6  1  0
  6  7  1  0
  7  8  1  0
  8  9  1  0
  9 10  1  0
 10 11  2  0
 11 12  1  0
 12 13  2  0
 13 14  1  0
 14 15  2  0
 13 16  1  0
 16 17  2  0
 17 18  1  0
 18 19  2  0
 19 20  1  0
 20 21  2  0
 21 22  1  0
 22 23  2  0
 23 24  1  0
  8 25  1  0
 25 26  1  0
 26  5  1  0
 15 10  1  0
 24 16  1  0
 23 18  1  0
  1 27  1  0
  1 28  1  0
  1 29  1  0
  6 30  1  0
  6 31  1  0
  7 32  1  0
  7 33  1  0
  9 34  1  0
  9 35  1  0
 11 36  1  0
 12 37  1  0
 14 38  1  0
 15 39  1  0
 17 40  1  0
 19 41  1  0
 20 42  1  0
 21 43  1  0
 22 44  1  0
 24 45  1  0
 25 46  1  0
 25 47  1  0
 26 48  1  0
 26 49  1  0
M  END
$$$$
[H]c1nc(O[C@]2([H])C([H])([H])[C@]([H])(N([H])c3nc4c([H])c([H])c([H])c([H])c4s3)C2([H])[H])c(N2C([H])([H])C([H])([H])OC([H])([H])[C@@]2([H])C([H])([H])C([H])([H])[H])nc1[H]
     RDKit          3D

 54 58  0  0  0  0  0  0  0  0999 V2000
   -4.1801    0.7880    2.4654 C   0  0  0  0  0  0  0  0  0  0  0  0
   -4.1106   -0.2378    1.3540 C   0  0  0  0  0  0  0  0  0  0  0  0
   -3.6591    0.4726    0.1042 C   0  0  2  0  0  0  0  0  0  0  0  0
   -4.6119    1.5752   -0.2990 C   0  0  0  0  0  0  0  0  0  0  0  0
   -5.6397    1.0726   -1.0634 O   0  0  0  0  0  0  0  0  0  0  0  0
   -5.2678    0.5784   -2.2878 C   0  0  0  0  0  0  0  0  0  0  0  0
   -3.8431    0.0608   -2.3238 C   0  0  0  0  0  0  0  0  0  0  0  0
   -3.4932   -0.4085   -1.0136 N   0  0  0  0  0  0  0  0  0  0  0  0
   -2.9948   -1.7132   -0.8282 C   0  0  0  0  0  0  0  0  0  0  0  0
   -3.7430   -2.8148   -1.1345 N   0  0  0  0  0  0  0  0  0  0  0  0
   -3.2348   -4.0346   -0.9407 C   0  0  0  0  0  0  0  0  0  0  0  0
   -1.9695   -4.2225   -0.4373 C   0  0  0  0  0  0  0  0  0  0  0  0
   -1.2613   -3.1171   -0.1469 N   0  0  0  0  0  0  0  0  0  0  0  0
   -1.7185   -1.8649   -0.3203 C   0  0  0  0  0  0  0  0  0  0  0  0
   -0.9524   -0.7445   -0.0072 O   0  0  0  0  0  0  0  0  0  0  0  0
    0.3291   -0.9487    0.5033 C   0  0  2  0  0  0  0  0  0  0  0  0
    0.6452   -0.1646    1.7846 C   0  0  0  0  0  0  0  0  0  0  0  0
    2.0520   -0.0304    1.2540 C   0  0  1  0  0  0  0  0  0  0  0  0
    1.4454   -0.1574   -0.1511 C   0  0  0  0  0  0  0  0  0  0  0  0
    2.7038    1.2066    1.5225 N   0  0  0  0  0  0  0  0  0  0  0  0
    4.0336    1.3970    1.0521 C   0  0  0  0  0  0  0  0  0  0  0  0
    4.7800    0.5475    0.3708 N   0  0  0  0  0  0  0  0  0  0  0  0
    5.9852    0.8725    0.0113 C   0  0  0  0  0  0  0  0  0  0  0  0
    6.8840    0.0670   -0.7141 C   0  0  0  0  0  0  0  0  0  0  0  0
    8.1210    0.5258   -1.0283 C   0  0  0  0  0  0  0  0  0  0  0  0
    8.5887    1.7702   -0.6797 C   0  0  0  0  0  0  0  0  0  0  0  0
    7.7253    2.5738    0.0302 C   0  0  0  0  0  0  0  0  0  0  0  0
    6.4422    2.1138    0.3631 C   0  0  0  0  0  0  0  0  0  0  0  0
    5.0850    2.7448    1.2031 S   0  0  0  0  0  0  0  0  0  0  0  0
   -3.6844    0.4288    3.3974 H   0  0  0  0  0  0  0  0  0  0  0  0
   -3.6846    1.7548    2.1556 H   0  0  0  0  0  0  0  0  0  0  0  0
   -5.2373    1.0411    2.6919 H   0  0  0  0  0  0  0  0  0  0  0  0
   -5.1169   -0.6897    1.2491 H   0  0  0  0  0  0  0  0  0  0  0  0
   -3.3357   -0.9808    1.6188 H   0  0  0  0  0  0  0  0  0  0  0  0
   -2.6872    0.9516    0.3247 H   0  0  0  0  0  0  0  0  0  0  0  0
   -5.0410    2.1079    0.5571 H   0  0  0  0  0  0  0  0  0  0  0  0
   -4.0538    2.3147   -0.9154 H   0  0  0  0  0  0  0  0  0  0  0  0
   -5.4532    1.3556   -3.0564 H   0  0  0  0  0  0  0  0  0  0  0  0
   -5.9901   -0.2519   -2.5329 H   0  0  0  0  0  0  0  0  0  0  0  0
   -3.7015   -0.7069   -3.1085 H   0  0  0  0  0  0  0  0  0  0  0  0
   -3.2051    0.9519   -2.5964 H   0  0  0  0  0  0  0  0  0  0  0  0
   -3.8865   -4.8674   -1.2067 H   0  0  0  0  0  0  0  0  0  0  0  0
   -1.5783   -5.2202   -0.2885 H   0  0  0  0  0  0  0  0  0  0  0  0
    0.6544   -1.9995    0.6266 H   0  0  0  0  0  0  0  0  0  0  0  0
    0.1374    0.8248    1.8341 H   0  0  0  0  0  0  0  0  0  0  0  0
    0.5930   -0.7601    2.7038 H   0  0  0  0  0  0  0  0  0  0  0  0
    2.6596   -0.9107    1.5424 H   0  0  0  0  0  0  0  0  0  0  0  0
    2.0973   -0.7187   -0.8260 H   0  0  0  0  0  0  0  0  0  0  0  0
    1.1502    0.8625   -0.4850 H   0  0  0  0  0  0  0  0  0  0  0  0
    2.2601    1.9840    2.0464 H   0  0  0  0  0  0  0  0  0  0  0  0
    6.6084   -0.9412   -1.0396 H   0  0  0  0  0  0  0  0  0  0  0  0
    8.8256   -0.1042   -1.5965 H   0  0  0  0  0  0  0  0  0  0  0  0
    9.5619    2.0986   -0.9411 H   0  0  0  0  0  0  0  0  0  0  0  0
    7.9671    3.5676    0.3635 H   0  0  0  0  0  0  0  0  0  0  0  0
  1  2  1  0
  2  3  1  0
  3  4  1  0
  4  5  1  0
  5  6  1  0
  6  7  1  0
  7  8  1  0
  8  9  1  0
  9 10  2  0
 10 11  1  0
 11 12  2  0
 12 13  1  0
 13 14  2  0
 14 15  1  0
 15 16  1  0
 16 17  1  0
 17 18  1  0
 18 19  1  0
 18 20  1  0
 20 21  1  0
 21 22  2  0
 22 23  1  0
 23 24  2  0
 24 25  1  0
 25 26  2  0
 26 27  1  0
 27 28  2  0
 28 29  1  0
  8  3  1  0
 14  9  1  0
 19 16  1  0
 29 21  1  0
 28 23  1  0
  1 30  1  0
  1 31  1  0
  1 32  1  0
  2 33  1  0
  2 34  1  0
  3 35  1  1
  4 36  1  0
  4 37  1  0
  6 38  1  0
  6 39  1  0
  7 40  1  0
  7 41  1  0
 11 42  1  0
 12 43  1  0
 16 44  1  1
 17 45  1  0
 17 46  1  0
 18 47  1  1
 19 48  1  0
 19 49  1  0
 20 50  1  0
 24 51  1  0
 25 52  1  0
 26 53  1  0
 27 54  1  0
M  END
$$$$
[H]c1nc2c([H])c(OC([H])([H])[H])c(OC([H])([H])[H])c([H])c2c(Oc2c([H])c([H])c(N([H])C(=O)N([H])c3c([H])c([H])c(N4C([H])([H])C([H])([H])N(C([H])([H])[H])C([H])([H])C4([H])[H])c([H])c3[H])c([H])c2[H])c1[H]
     RDKit          3D

 69 73  0  0  0  0  0  0  0  0999 V2000
   11.2260    0.9505    0.8093 C   0  0  0  0  0  0  0  0  0  0  0  0
   10.1978    0.3992    1.6364 N   0  0  0  0  0  0  0  0  0  0  0  0
    9.7424   -0.8976    1.2425 C   0  0  0  0  0  0  0  0  0  0  0  0
    9.0263   -0.9084   -0.1091 C   0  0  0  0  0  0  0  0  0  0  0  0
    7.9360    0.0522   -0.0156 N   0  0  0  0  0  0  0  0  0  0  0  0
    8.3487    1.3967    0.4065 C   0  0  0  0  0  0  0  0  0  0  0  0
    9.0296    1.2569    1.7552 C   0  0  0  0  0  0  0  0  0  0  0  0
    6.5986   -0.2800   -0.3233 C   0  0  0  0  0  0  0  0  0  0  0  0
    5.5370    0.4804    0.1060 C   0  0  0  0  0  0  0  0  0  0  0  0
    4.2369    0.0999   -0.2504 C   0  0  0  0  0  0  0  0  0  0  0  0
    3.9558   -1.0053   -1.0146 C   0  0  0  0  0  0  0  0  0  0  0  0
    2.6858   -1.4562   -1.3940 N   0  0  0  0  0  0  0  0  0  0  0  0
    1.4304   -1.0461   -0.8772 C   0  0  0  0  0  0  0  0  0  0  0  0
    1.3669   -0.1921    0.0243 O   0  0  0  0  0  0  0  0  0  0  0  0
    0.2322   -1.6126   -1.3904 N   0  0  0  0  0  0  0  0  0  0  0  0
   -1.0815   -1.3448   -1.0102 C   0  0  0  0  0  0  0  0  0  0  0  0
   -2.1161   -1.7771   -1.8520 C   0  0  0  0  0  0  0  0  0  0  0  0
   -3.4348   -1.5784   -1.5596 C   0  0  0  0  0  0  0  0  0  0  0  0
   -3.7663   -0.9379   -0.4104 C   0  0  0  0  0  0  0  0  0  0  0  0
   -5.1232   -0.7274   -0.0993 O   0  0  0  0  0  0  0  0  0  0  0  0
   -5.6817    0.4501   -0.5581 C   0  0  0  0  0  0  0  0  0  0  0  0
   -4.9730    1.3959   -1.2883 C   0  0  0  0  0  0  0  0  0  0  0  0
   -5.6549    2.5232   -1.6816 C   0  0  0  0  0  0  0  0  0  0  0  0
   -6.9526    2.7175   -1.3807 N   0  0  0  0  0  0  0  0  0  0  0  0
   -7.6715    1.8251   -0.6761 C   0  0  0  0  0  0  0  0  0  0  0  0
   -9.0023    2.0222   -0.3665 C   0  0  0  0  0  0  0  0  0  0  0  0
   -9.7372    1.1044    0.3566 C   0  0  0  0  0  0  0  0  0  0  0  0
  -11.0811    1.3234    0.6584 O   0  0  0  0  0  0  0  0  0  0  0  0
  -11.6851    2.5200    0.2034 C   0  0  0  0  0  0  0  0  0  0  0  0
   -9.0908   -0.0416    0.7711 C   0  0  0  0  0  0  0  0  0  0  0  0
   -9.8200   -0.9656    1.4958 O   0  0  0  0  0  0  0  0  0  0  0  0
   -9.3302   -2.1727    1.9923 C   0  0  0  0  0  0  0  0  0  0  0  0
   -7.7513   -0.2375    0.4582 C   0  0  0  0  0  0  0  0  0  0  0  0
   -7.0191    0.6814   -0.2647 C   0  0  0  0  0  0  0  0  0  0  0  0
   -2.7740   -0.5050    0.4310 C   0  0  0  0  0  0  0  0  0  0  0  0
   -1.4326   -0.7084    0.1318 C   0  0  0  0  0  0  0  0  0  0  0  0
    5.0687   -1.7423   -1.4245 C   0  0  0  0  0  0  0  0  0  0  0  0
    6.3554   -1.4128   -1.1039 C   0  0  0  0  0  0  0  0  0  0  0  0
   11.3107    2.0337    1.0561 H   0  0  0  0  0  0  0  0  0  0  0  0
   11.0518    0.8483   -0.2632 H   0  0  0  0  0  0  0  0  0  0  0  0
   12.1968    0.4984    1.1458 H   0  0  0  0  0  0  0  0  0  0  0  0
   10.5849   -1.6332    1.1720 H   0  0  0  0  0  0  0  0  0  0  0  0
    8.9939   -1.2346    1.9867 H   0  0  0  0  0  0  0  0  0  0  0  0
    8.6497   -1.9449   -0.2168 H   0  0  0  0  0  0  0  0  0  0  0  0
    9.7337   -0.6306   -0.9192 H   0  0  0  0  0  0  0  0  0  0  0  0
    7.5402    2.1129    0.4691 H   0  0  0  0  0  0  0  0  0  0  0  0
    9.1022    1.7973   -0.3219 H   0  0  0  0  0  0  0  0  0  0  0  0
    8.3079    0.7145    2.4086 H   0  0  0  0  0  0  0  0  0  0  0  0
    9.2385    2.2157    2.2356 H   0  0  0  0  0  0  0  0  0  0  0  0
    5.7188    1.3508    0.7096 H   0  0  0  0  0  0  0  0  0  0  0  0
    3.4435    0.7405    0.1058 H   0  0  0  0  0  0  0  0  0  0  0  0
    2.6486   -2.1935   -2.1687 H   0  0  0  0  0  0  0  0  0  0  0  0
    0.3882   -2.3450   -2.1742 H   0  0  0  0  0  0  0  0  0  0  0  0
   -1.8856   -2.2992   -2.7910 H   0  0  0  0  0  0  0  0  0  0  0  0
   -4.2465   -1.9148   -2.2152 H   0  0  0  0  0  0  0  0  0  0  0  0
   -3.9382    1.2029   -1.5077 H   0  0  0  0  0  0  0  0  0  0  0  0
   -5.0846    3.2559   -2.2539 H   0  0  0  0  0  0  0  0  0  0  0  0
   -9.5073    2.9143   -0.6887 H   0  0  0  0  0  0  0  0  0  0  0  0
  -12.7454    2.5534    0.4865 H   0  0  0  0  0  0  0  0  0  0  0  0
  -11.5242    2.6691   -0.8936 H   0  0  0  0  0  0  0  0  0  0  0  0
  -11.1322    3.3639    0.7029 H   0  0  0  0  0  0  0  0  0  0  0  0
   -8.5868   -2.6496    1.3381 H   0  0  0  0  0  0  0  0  0  0  0  0
   -8.9114   -2.0223    2.9994 H   0  0  0  0  0  0  0  0  0  0  0  0
  -10.1799   -2.9044    2.0994 H   0  0  0  0  0  0  0  0  0  0  0  0
   -7.2375   -1.1439    0.7852 H   0  0  0  0  0  0  0  0  0  0  0  0
   -3.0376    0.0080    1.3515 H   0  0  0  0  0  0  0  0  0  0  0  0
   -0.7248   -0.3408    0.8633 H   0  0  0  0  0  0  0  0  0  0  0  0
    4.8968   -2.6192   -2.0258 H   0  0  0  0  0  0  0  0  0  0  0  0
    7.1408   -2.0526   -1.4809 H   0  0  0  0  0  0  0  0  0  0  0  0
  1  2  1  0
  2  3  1  0
  3  4  1  0
  4  5  1  0
  5  6  1  0
  6  7  1  0
  5  8  1  0
  8  9  2  0
  9 10  1  0
 10 11  2  0
 11 12  1  0
 12 13  1  0
 13 14  2  0
 13 15  1  0
 15 16  1  0
 16 17  2  0
 17 18  1  0
 18 19  2  0
 19 20  1  0
 20 21  1  0
 21 22  2  0
 22 23  1  0
 23 24  2  0
 24 25  1  0
 25 26  2  0
 26 27  1  0
 27 28  1  0
 28 29  1  0
 27 30  2  0
 30 31  1  0
 31 32  1  0
 30 33  1  0
 33 34  2  0
 19 35  1  0
 35 36  2  0
 11 37  1  0
 37 38  2  0
  7  2  1  0
 38  8  1  0
 36 16  1  0
 34 21  1  0
 34 25  1  0
  1 39  1  0
  1 40  1  0
  1 41  1  0
  3 42  1  0
  3 43  1  0
  4 44  1  0
  4 45  1  0
  6 46  1  0
  6 47  1  0
  7 48  1  0
  7 49  1  0
  9 50  1  0
 10 51  1  0
 12 52  1  0
 15 53  1  0
 17 54  1  0
 18 55  1  0
 22 56  1  0
 23 57  1  0
 26 58  1  0
 29 59  1  0
 29 60  1  0
 29 61  1  0
 32 62  1  0
 32 63  1  0
 32 64  1  0
 33 65  1  0
 35 66  1  0
 36 67  1  0
 37 68  1  0
 38 69  1  0
M  END
$$$$
[H]Oc1nc([H])c(C(=O)C([H])([H])C([H])([H])N2C([H])([H])C([H])([H])C([H])([H])C2([H])[H])c([H])c1[H]
     RDKit          3D

 32 33  0  0  0  0  0  0  0  0999 V2000
    6.2840    1.9853    0.1388 O   0  0  0  0  0  0  0  0  0  0  0  0
    5.0541    1.3158    0.1651 C   0  0  0  0  0  0  0  0  0  0  0  0
    4.9650    0.0606    0.6899 C   0  0  0  0  0  0  0  0  0  0  0  0
    3.7315   -0.5520    0.6909 C   0  0  0  0  0  0  0  0  0  0  0  0
    2.5993    0.0426    0.1904 C   0  0  0  0  0  0  0  0  0  0  0  0
    2.7344    1.3126   -0.3310 C   0  0  0  0  0  0  0  0  0  0  0  0
    3.9531    1.9170   -0.3316 N   0  0  0  0  0  0  0  0  0  0  0  0
    1.2990   -0.6348    0.2051 C   0  0  0  0  0  0  0  0  0  0  0  0
    1.2573   -1.8032    0.7024 O   0  0  0  0  0  0  0  0  0  0  0  0
    0.0834    0.0263   -0.3421 C   0  0  0  0  0  0  0  0  0  0  0  0
   -1.0660   -0.9182   -0.1792 C   0  0  0  0  0  0  0  0  0  0  0  0
   -2.3139   -0.3972   -0.6725 N   0  0  0  0  0  0  0  0  0  0  0  0
   -3.3276   -1.4160   -0.4484 C   0  0  0  0  0  0  0  0  0  0  0  0
   -4.6203   -0.6510   -0.2139 C   0  0  0  0  0  0  0  0  0  0  0  0
   -4.1192    0.5603    0.5400 C   0  0  0  0  0  0  0  0  0  0  0  0
   -2.7452    0.8000   -0.0429 C   0  0  0  0  0  0  0  0  0  0  0  0
    7.1470    1.5494   -0.1267 H   0  0  0  0  0  0  0  0  0  0  0  0
    5.8522   -0.4066    1.0827 H   0  0  0  0  0  0  0  0  0  0  0  0
    3.6528   -1.5464    1.1049 H   0  0  0  0  0  0  0  0  0  0  0  0
    1.9002    1.8515   -0.7434 H   0  0  0  0  0  0  0  0  0  0  0  0
    0.2584    0.1588   -1.4498 H   0  0  0  0  0  0  0  0  0  0  0  0
   -0.0876    1.0170    0.1092 H   0  0  0  0  0  0  0  0  0  0  0  0
   -0.8340   -1.8306   -0.7741 H   0  0  0  0  0  0  0  0  0  0  0  0
   -1.1193   -1.2468    0.8765 H   0  0  0  0  0  0  0  0  0  0  0  0
   -3.0703   -1.9057    0.5209 H   0  0  0  0  0  0  0  0  0  0  0  0
   -3.3994   -2.1225   -1.2837 H   0  0  0  0  0  0  0  0  0  0  0  0
   -5.0800   -0.3866   -1.1836 H   0  0  0  0  0  0  0  0  0  0  0  0
   -5.2913   -1.2882    0.3865 H   0  0  0  0  0  0  0  0  0  0  0  0
   -4.0126    0.2489    1.6011 H   0  0  0  0  0  0  0  0  0  0  0  0
   -4.7608    1.4485    0.4071 H   0  0  0  0  0  0  0  0  0  0  0  0
   -2.0620    1.2011    0.7209 H   0  0  0  0  0  0  0  0  0  0  0  0
   -2.8623    1.6101   -0.8213 H   0  0  0  0  0  0  0  0  0  0  0  0
  1  2  1  0
  2  3  2  0
  3  4  1  0
  4  5  2  0
  5  6  1  0
  6  7  2  0
  5  8  1  0
  8  9  2  0
  8 10  1  0
 10 11  1  0
 11 12  1  0
 12 13  1  0
 13 14  1  0
 14 15  1  0
 15 16  1  0
  7  2  1  0
 16 12  1  0
  1 17  1  0
  3 18  1  0
  4 19  1  0
  6 20  1  0
 10 21  1  0
 10 22  1  0
 11 23  1  0
 11 24  1  0
 13 25  1  0
 13 26  1  0
 14 27  1  0
 14 28  1  0
 15 29  1  0
 15 30  1  0
 16 31  1  0
 16 32  1  0
M  END
$$$$
[H]c1c([H])c(C([H])([H])C([H])([H])N([H])C(=O)C([H])([H])[H])c([H])c([H])c1-c1nc2c([H])c([H])c(C(=O)N([H])C([H])([H])C([H])([H])C([H])(C([H])([H])[H])C([H])([H])[H])c([H])c2o1
     RDKit          3D

 56 58  0  0  0  0  0  0  0  0999 V2000
   -9.6234    0.5033    0.0815 C   0  0  0  0  0  0  0  0  0  0  0  0
   -8.7479   -0.2768   -0.8481 C   0  0  0  0  0  0  0  0  0  0  0  0
   -9.2484   -1.7178   -0.9079 C   0  0  0  0  0  0  0  0  0  0  0  0
   -7.3253   -0.2939   -0.2841 C   0  0  0  0  0  0  0  0  0  0  0  0
   -6.8592    1.1406   -0.1841 C   0  0  0  0  0  0  0  0  0  0  0  0
   -5.5268    1.2144    0.3455 N   0  0  0  0  0  0  0  0  0  0  0  0
   -4.3917    0.6391   -0.2563 C   0  0  0  0  0  0  0  0  0  0  0  0
   -4.4855    0.0054   -1.3417 O   0  0  0  0  0  0  0  0  0  0  0  0
   -3.0711    0.7524    0.3458 C   0  0  0  0  0  0  0  0  0  0  0  0
   -2.9309    1.0835    1.6721 C   0  0  0  0  0  0  0  0  0  0  0  0
   -1.6645    1.1954    2.2285 C   0  0  0  0  0  0  0  0  0  0  0  0
   -0.5562    0.9714    1.4393 C   0  0  0  0  0  0  0  0  0  0  0  0
    0.7799    0.9965    1.6588 N   0  0  0  0  0  0  0  0  0  0  0  0
    1.4353    0.6958    0.5252 C   0  0  0  0  0  0  0  0  0  0  0  0
    0.5257    0.4866   -0.3855 O   0  0  0  0  0  0  0  0  0  0  0  0
   -0.6807    0.6358    0.0981 C   0  0  0  0  0  0  0  0  0  0  0  0
   -1.9332    0.5268   -0.4464 C   0  0  0  0  0  0  0  0  0  0  0  0
    2.8903    0.6197    0.3541 C   0  0  0  0  0  0  0  0  0  0  0  0
    3.4707    0.3020   -0.8533 C   0  0  0  0  0  0  0  0  0  0  0  0
    4.8636    0.2356   -0.9919 C   0  0  0  0  0  0  0  0  0  0  0  0
    5.6773    0.4908    0.0927 C   0  0  0  0  0  0  0  0  0  0  0  0
    7.1489    0.4062   -0.1107 C   0  0  0  0  0  0  0  0  0  0  0  0
    7.6877   -0.9582    0.1466 C   0  0  0  0  0  0  0  0  0  0  0  0
    9.1167   -0.9558   -0.0720 N   0  0  0  0  0  0  0  0  0  0  0  0
    9.9037   -2.1416    0.1030 C   0  0  0  0  0  0  0  0  0  0  0  0
   11.3512   -2.1134   -0.1249 C   0  0  0  0  0  0  0  0  0  0  0  0
    9.3714   -3.2228    0.4533 O   0  0  0  0  0  0  0  0  0  0  0  0
    5.0991    0.8049    1.2860 C   0  0  0  0  0  0  0  0  0  0  0  0
    3.7267    0.8702    1.4220 C   0  0  0  0  0  0  0  0  0  0  0  0
   -9.5249    1.5820   -0.1901 H   0  0  0  0  0  0  0  0  0  0  0  0
   -9.3958    0.3083    1.1337 H   0  0  0  0  0  0  0  0  0  0  0  0
  -10.6960    0.2529   -0.1252 H   0  0  0  0  0  0  0  0  0  0  0  0
   -8.7586    0.1676   -1.8633 H   0  0  0  0  0  0  0  0  0  0  0  0
   -9.7749   -1.9298    0.0435 H   0  0  0  0  0  0  0  0  0  0  0  0
   -8.3746   -2.3879   -0.9501 H   0  0  0  0  0  0  0  0  0  0  0  0
   -9.9511   -1.8446   -1.7390 H   0  0  0  0  0  0  0  0  0  0  0  0
   -6.6942   -0.8979   -0.9626 H   0  0  0  0  0  0  0  0  0  0  0  0
   -7.3373   -0.7778    0.7083 H   0  0  0  0  0  0  0  0  0  0  0  0
   -6.8641    1.6020   -1.2096 H   0  0  0  0  0  0  0  0  0  0  0  0
   -7.5906    1.6940    0.4561 H   0  0  0  0  0  0  0  0  0  0  0  0
   -5.4110    1.7396    1.2371 H   0  0  0  0  0  0  0  0  0  0  0  0
   -3.8226    1.2528    2.2861 H   0  0  0  0  0  0  0  0  0  0  0  0
   -1.5266    1.4534    3.2636 H   0  0  0  0  0  0  0  0  0  0  0  0
   -2.0833    0.2650   -1.4975 H   0  0  0  0  0  0  0  0  0  0  0  0
    2.8174    0.1080   -1.6811 H   0  0  0  0  0  0  0  0  0  0  0  0
    5.2971   -0.0200   -1.9665 H   0  0  0  0  0  0  0  0  0  0  0  0
    7.4148    0.6875   -1.1522 H   0  0  0  0  0  0  0  0  0  0  0  0
    7.6678    1.1262    0.5744 H   0  0  0  0  0  0  0  0  0  0  0  0
    7.2336   -1.6899   -0.5704 H   0  0  0  0  0  0  0  0  0  0  0  0
    7.5184   -1.3238    1.1731 H   0  0  0  0  0  0  0  0  0  0  0  0
    9.5810   -0.0705   -0.3631 H   0  0  0  0  0  0  0  0  0  0  0  0
   11.6422   -2.7521   -0.9958 H   0  0  0  0  0  0  0  0  0  0  0  0
   11.7127   -1.0892   -0.3847 H   0  0  0  0  0  0  0  0  0  0  0  0
   11.9479   -2.4882    0.7406 H   0  0  0  0  0  0  0  0  0  0  0  0
    5.6964    1.0118    2.1598 H   0  0  0  0  0  0  0  0  0  0  0  0
    3.2732    1.1248    2.3907 H   0  0  0  0  0  0  0  0  0  0  0  0
  1  2  1  0
  2  3  1  0
  2  4  1  0
  4  5  1  0
  5  6  1  0
  6  7  1  0
  7  8  2  0
  7  9  1  0
  9 10  2  0
 10 11  1  0
 11 12  2  0
 12 13  1  0
 13 14  2  0
 14 15  1  0
 15 16  1  0
 16 17  2  0
 14 18  1  0
 18 19  2  0
 19 20  1  0
 20 21  2  0
 21 22  1  0
 22 23  1  0
 23 24  1  0
 24 25  1  0
 25 26  1  0
 25 27  2  0
 21 28  1  0
 28 29  2  0
 17  9  1  0
 29 18  1  0
 16 12  1  0
  1 30  1  0
  1 31  1  0
  1 32  1  0
  2 33  1  0
  3 34  1  0
  3 35  1  0
  3 36  1  0
  4 37  1  0
  4 38  1  0
  5 39  1  0
  5 40  1  0
  6 41  1  0
 10 42  1  0
 11 43  1  0
 17 44  1  0
 19 45  1  0
 20 46  1  0
 22 47  1  0
 22 48  1  0
 23 49  1  0
 23 50  1  0
 24 51  1  0
 26 52  1  0
 26 53  1  0
 26 54  1  0
 28 55  1  0
 29 56  1  0
M  END
$$$$
[H]c1c([H])c([H])c(-c2c([H])c([H])c(C([H])([H])[C@@]([H])(C(=O)N([H])[C@]([H])(C(=O)N([H])[C@]([H])(C(=O)N([H])[C@]([H])(C(=O)N([H])[H])C([H])([H])c3c([H])c([H])c([H])c([H])c3[H])C([H])([H])c3c([H])c([H])c([H])c([H])c3[H])C([H])([H])c3c([H])c([H])c([H])c([H])c3[H])N([H])C(=O)C([H])([H])[H])c([H])c2[H])c([H])c1[H]
     RDKit          3D

 99103  0  0  0  0  0  0  0  0999 V2000
    7.6360    1.3355   -2.3875 C   0  0  0  0  0  0  0  0  0  0  0  0
    6.4596    0.5668   -1.8954 C   0  0  0  0  0  0  0  0  0  0  0  0
    6.4711   -0.6673   -1.8707 O   0  0  0  0  0  0  0  0  0  0  0  0
    5.3221    1.2959   -1.4527 N   0  0  0  0  0  0  0  0  0  0  0  0
    4.1460    0.5993   -0.9628 C   0  0  1  0  0  0  0  0  0  0  0  0
    3.9848    0.9882    0.5063 C   0  0  0  0  0  0  0  0  0  0  0  0
    5.2022    0.5650    1.2701 C   0  0  0  0  0  0  0  0  0  0  0  0
    5.1917   -0.7153    1.7931 C   0  0  0  0  0  0  0  0  0  0  0  0
    6.3204   -1.1363    2.4916 C   0  0  0  0  0  0  0  0  0  0  0  0
    7.3930   -0.3131    2.6511 C   0  0  0  0  0  0  0  0  0  0  0  0
    7.3756    0.9597    2.1209 C   0  0  0  0  0  0  0  0  0  0  0  0
    6.2762    1.4061    1.4255 C   0  0  0  0  0  0  0  0  0  0  0  0
    8.5846   -0.7451    3.3575 C   0  0  0  0  0  0  0  0  0  0  0  0
    8.4963   -1.6382    4.4072 C   0  0  0  0  0  0  0  0  0  0  0  0
    9.6611   -2.0194    5.0280 C   0  0  0  0  0  0  0  0  0  0  0  0
   10.9085   -1.5610    4.6611 C   0  0  0  0  0  0  0  0  0  0  0  0
   10.9944   -0.6743    3.6184 C   0  0  0  0  0  0  0  0  0  0  0  0
    9.8446   -0.2703    2.9735 C   0  0  0  0  0  0  0  0  0  0  0  0
    2.9152    1.0063   -1.6668 C   0  0  0  0  0  0  0  0  0  0  0  0
    3.0535    1.9252   -2.5484 O   0  0  0  0  0  0  0  0  0  0  0  0
    1.6573    0.4370   -1.4084 N   0  0  0  0  0  0  0  0  0  0  0  0
    0.4541    0.8238   -2.1008 C   0  0  1  0  0  0  0  0  0  0  0  0
    0.2032   -0.0364   -3.3065 C   0  0  0  0  0  0  0  0  0  0  0  0
    0.0754   -1.4606   -3.0984 C   0  0  0  0  0  0  0  0  0  0  0  0
   -1.1149   -2.1103   -2.9534 C   0  0  0  0  0  0  0  0  0  0  0  0
   -1.2355   -3.4615   -2.7356 C   0  0  0  0  0  0  0  0  0  0  0  0
   -0.0876   -4.2315   -2.6544 C   0  0  0  0  0  0  0  0  0  0  0  0
    1.1514   -3.6045   -2.7982 C   0  0  0  0  0  0  0  0  0  0  0  0
    1.2389   -2.2420   -3.0173 C   0  0  0  0  0  0  0  0  0  0  0  0
   -0.6900    1.1698   -1.2687 C   0  0  0  0  0  0  0  0  0  0  0  0
   -0.6567    1.1668    0.0175 O   0  0  0  0  0  0  0  0  0  0  0  0
   -1.9085    1.5364   -1.8546 N   0  0  0  0  0  0  0  0  0  0  0  0
   -3.1336    1.9444   -1.1516 C   0  0  1  0  0  0  0  0  0  0  0  0
   -3.7926    2.9307   -2.0089 C   0  0  0  0  0  0  0  0  0  0  0  0
   -5.0436    3.5607   -1.6338 C   0  0  0  0  0  0  0  0  0  0  0  0
   -6.2706    3.1322   -2.0917 C   0  0  0  0  0  0  0  0  0  0  0  0
   -7.4536    3.7386   -1.7242 C   0  0  0  0  0  0  0  0  0  0  0  0
   -7.4133    4.8098   -0.8700 C   0  0  0  0  0  0  0  0  0  0  0  0
   -6.2140    5.2689   -0.3892 C   0  0  0  0  0  0  0  0  0  0  0  0
   -5.0329    4.6369   -0.7776 C   0  0  0  0  0  0  0  0  0  0  0  0
   -3.7894    0.8009   -0.6018 C   0  0  0  0  0  0  0  0  0  0  0  0
   -3.1250   -0.3369   -0.6742 O   0  0  0  0  0  0  0  0  0  0  0  0
   -5.0252    0.6156    0.0223 N   0  0  0  0  0  0  0  0  0  0  0  0
   -5.4601   -0.7149    0.5019 C   0  0  1  0  0  0  0  0  0  0  0  0
   -6.5180   -0.4894    1.5124 C   0  0  0  0  0  0  0  0  0  0  0  0
   -7.1232   -1.6405    2.1590 C   0  0  0  0  0  0  0  0  0  0  0  0
   -6.5473   -2.1911    3.2787 C   0  0  0  0  0  0  0  0  0  0  0  0
   -7.1317   -3.2797    3.9389 C   0  0  0  0  0  0  0  0  0  0  0  0
   -8.2976   -3.8054    3.4614 C   0  0  0  0  0  0  0  0  0  0  0  0
   -8.8951   -3.2721    2.3413 C   0  0  0  0  0  0  0  0  0  0  0  0
   -8.2950   -2.1828    1.6942 C   0  0  0  0  0  0  0  0  0  0  0  0
   -5.9852   -1.4811   -0.6913 C   0  0  0  0  0  0  0  0  0  0  0  0
   -6.3004   -2.8516   -0.6428 N   0  0  0  0  0  0  0  0  0  0  0  0
   -6.1368   -0.8555   -1.7766 O   0  0  0  0  0  0  0  0  0  0  0  0
    7.2155    2.1086   -3.0804 H   0  0  0  0  0  0  0  0  0  0  0  0
    8.1102    1.8391   -1.5059 H   0  0  0  0  0  0  0  0  0  0  0  0
    8.3982    0.7270   -2.8712 H   0  0  0  0  0  0  0  0  0  0  0  0
    5.2837    2.3339   -1.4648 H   0  0  0  0  0  0  0  0  0  0  0  0
    4.2823   -0.5040   -1.0123 H   0  0  0  0  0  0  0  0  0  0  0  0
    3.8422    2.0720    0.6369 H   0  0  0  0  0  0  0  0  0  0  0  0
    3.0881    0.4812    0.8774 H   0  0  0  0  0  0  0  0  0  0  0  0
    4.3296   -1.3489    1.6537 H   0  0  0  0  0  0  0  0  0  0  0  0
    6.2787   -2.1392    2.8820 H   0  0  0  0  0  0  0  0  0  0  0  0
    8.2353    1.5959    2.2648 H   0  0  0  0  0  0  0  0  0  0  0  0
    6.2733    2.3991    1.0227 H   0  0  0  0  0  0  0  0  0  0  0  0
    7.5460   -2.0254    4.7308 H   0  0  0  0  0  0  0  0  0  0  0  0
    9.6247   -2.7121    5.8475 H   0  0  0  0  0  0  0  0  0  0  0  0
   11.8042   -1.8963    5.1853 H   0  0  0  0  0  0  0  0  0  0  0  0
   11.9744   -0.3093    3.3238 H   0  0  0  0  0  0  0  0  0  0  0  0
    9.9067    0.4410    2.1380 H   0  0  0  0  0  0  0  0  0  0  0  0
    1.5871   -0.3061   -0.6766 H   0  0  0  0  0  0  0  0  0  0  0  0
    0.7748    1.8306   -2.6017 H   0  0  0  0  0  0  0  0  0  0  0  0
   -0.6536    0.3986   -3.8898 H   0  0  0  0  0  0  0  0  0  0  0  0
    1.0870    0.1465   -3.9992 H   0  0  0  0  0  0  0  0  0  0  0  0
   -2.0334   -1.5012   -3.0269 H   0  0  0  0  0  0  0  0  0  0  0  0
   -2.1941   -3.9579   -2.6233 H   0  0  0  0  0  0  0  0  0  0  0  0
   -0.0711   -5.2817   -2.4847 H   0  0  0  0  0  0  0  0  0  0  0  0
    2.0501   -4.1915   -2.7369 H   0  0  0  0  0  0  0  0  0  0  0  0
    2.1738   -1.7437   -3.1346 H   0  0  0  0  0  0  0  0  0  0  0  0
   -1.9788    1.5314   -2.9062 H   0  0  0  0  0  0  0  0  0  0  0  0
   -2.6936    2.4856   -0.2217 H   0  0  0  0  0  0  0  0  0  0  0  0
   -3.0095    3.7154   -2.3194 H   0  0  0  0  0  0  0  0  0  0  0  0
   -3.9970    2.4587   -3.0363 H   0  0  0  0  0  0  0  0  0  0  0  0
   -6.3444    2.2797   -2.7780 H   0  0  0  0  0  0  0  0  0  0  0  0
   -8.4085    3.4005   -2.0846 H   0  0  0  0  0  0  0  0  0  0  0  0
   -8.3349    5.3299   -0.5482 H   0  0  0  0  0  0  0  0  0  0  0  0
   -6.2091    6.1244    0.2876 H   0  0  0  0  0  0  0  0  0  0  0  0
   -4.0841    5.0181   -0.3859 H   0  0  0  0  0  0  0  0  0  0  0  0
   -5.6642    1.3970    0.1930 H   0  0  0  0  0  0  0  0  0  0  0  0
   -4.5952   -1.2869    0.8200 H   0  0  0  0  0  0  0  0  0  0  0  0
   -6.0713    0.2302    2.2798 H   0  0  0  0  0  0  0  0  0  0  0  0
   -7.3123    0.1665    1.0333 H   0  0  0  0  0  0  0  0  0  0  0  0
   -5.6269   -1.8134    3.6987 H   0  0  0  0  0  0  0  0  0  0  0  0
   -6.6375   -3.6798    4.8267 H   0  0  0  0  0  0  0  0  0  0  0  0
   -8.7570   -4.6574    3.9775 H   0  0  0  0  0  0  0  0  0  0  0  0
   -9.8258   -3.7131    1.9794 H   0  0  0  0  0  0  0  0  0  0  0  0
   -8.8254   -1.8266    0.8284 H   0  0  0  0  0  0  0  0  0  0  0  0
   -6.8663   -3.2578   -1.4305 H   0  0  0  0  0  0  0  0  0  0  0  0
   -6.0117   -3.4956    0.1144 H   0  0  0  0  0  0  0  0  0  0  0  0
  1  2  1  0
  2  3  2  0
  2  4  1  0
  4  5  1  0
  5  6  1  0
  6  7  1  0
  7  8  2  0
  8  9  1  0
  9 10  2  0
 10 11  1  0
 11 12  2  0
 10 13  1  0
 13 14  2  0
 14 15  1  0
 15 16  2  0
 16 17  1  0
 17 18  2  0
  5 19  1  0
 19 20  2  0
 19 21  1  0
 21 22  1  0
 22 23  1  0
 23 24  1  0
 24 25  2  0
 25 26  1  0
 26 27  2  0
 27 28  1  0
 28 29  2  0
 22 30  1  0
 30 31  2  0
 30 32  1  0
 32 33  1  0
 33 34  1  0
 34 35  1  0
 35 36  2  0
 36 37  1  0
 37 38  2  0
 38 39  1  0
 39 40  2  0
 33 41  1  0
 41 42  2  0
 41 43  1  0
 43 44  1  0
 44 45  1  0
 45 46  1  0
 46 47  2  0
 47 48  1  0
 48 49  2  0
 49 50  1  0
 50 51  2  0
 44 52  1  0
 52 53  1  0
 52 54  2  0
 12  7  1  0
 18 13  1  0
 29 24  1  0
 40 35  1  0
 51 46  1  0
  1 55  1  0
  1 56  1  0
  1 57  1  0
  4 58  1  0
  5 59  1  1
  6 60  1  0
  6 61  1  0
  8 62  1  0
  9 63  1  0
 11 64  1  0
 12 65  1  0
 14 66  1  0
 15 67  1  0
 16 68  1  0
 17 69  1  0
 18 70  1  0
 21 71  1  0
 22 72  1  6
 23 73  1  0
 23 74  1  0
 25 75  1  0
 26 76  1  0
 27 77  1  0
 28 78  1  0
 29 79  1  0
 32 80  1  0
 33 81  1  1
 34 82  1  0
 34 83  1  0
 36 84  1  0
 37 85  1  0
 38 86  1  0
 39 87  1  0
 40 88  1  0
 43 89  1  0
 44 90  1  1
 45 91  1  0
 45 92  1  0
 47 93  1  0
 48 94  1  0
 49 95  1  0
 50 96  1  0
 51 97  1  0
 53 98  1  0
 53 99  1  0
M  END
$$$$
[H]c1nc2c([H])c(OC([H])([H])C([H])([H])C([H])([H])N3C([H])([H])C([H])([H])OC([H])([H])C3([H])[H])c(OC([H])([H])[H])c([H])c2c(Oc2c([H])c([H])c(N([H])C(=O)N([H])c3c([H])c([H])c(N4C([H])([H])C([H])([H])N(C([H])([H])[H])C([H])([H])C4([H])[H])c([H])c3[H])c([H])c2[H])c1[H]
     RDKit          3D

 88 93  0  0  0  0  0  0  0  0999 V2000
   14.4022   -0.0653    1.2201 C   0  0  0  0  0  0  0  0  0  0  0  0
   13.2915   -0.0622    2.1790 N   0  0  0  0  0  0  0  0  0  0  0  0
   12.5725   -1.3335    1.9640 C   0  0  0  0  0  0  0  0  0  0  0  0
   11.7994   -1.2794    0.6846 C   0  0  0  0  0  0  0  0  0  0  0  0
   10.6968   -0.3291    0.9534 N   0  0  0  0  0  0  0  0  0  0  0  0
   10.9501    0.6309    2.0033 C   0  0  0  0  0  0  0  0  0  0  0  0
   12.4219    1.0524    1.8416 C   0  0  0  0  0  0  0  0  0  0  0  0
    9.5066   -0.3156    0.2168 C   0  0  0  0  0  0  0  0  0  0  0  0
    9.4262   -0.8354   -0.9943 C   0  0  0  0  0  0  0  0  0  0  0  0
    8.3001   -0.7230   -1.7244 C   0  0  0  0  0  0  0  0  0  0  0  0
    7.1650   -0.1037   -1.3458 C   0  0  0  0  0  0  0  0  0  0  0  0
    6.0836    0.2044   -1.9967 N   0  0  0  0  0  0  0  0  0  0  0  0
    4.9668    0.5569   -2.8465 C   0  0  0  0  0  0  0  0  0  0  0  0
    5.2470    0.6459   -4.0811 O   0  0  0  0  0  0  0  0  0  0  0  0
    3.7817    0.7728   -2.2100 N   0  0  0  0  0  0  0  0  0  0  0  0
    2.6303    0.9836   -1.6021 C   0  0  0  0  0  0  0  0  0  0  0  0
    2.3587    0.1915   -0.4422 C   0  0  0  0  0  0  0  0  0  0  0  0
    1.0226    0.3285    0.0868 C   0  0  0  0  0  0  0  0  0  0  0  0
    0.1219    1.0695   -0.4001 C   0  0  0  0  0  0  0  0  0  0  0  0
   -1.2367    1.2512    0.0044 O   0  0  0  0  0  0  0  0  0  0  0  0
   -2.1137    0.1932   -0.3849 C   0  0  0  0  0  0  0  0  0  0  0  0
   -1.6061   -0.9434   -0.9721 C   0  0  0  0  0  0  0  0  0  0  0  0
   -2.5299   -1.9555   -1.3591 C   0  0  0  0  0  0  0  0  0  0  0  0
   -3.8014   -1.7660   -1.1504 N   0  0  0  0  0  0  0  0  0  0  0  0
   -4.3193   -0.6769   -0.5871 C   0  0  0  0  0  0  0  0  0  0  0  0
   -5.6475   -0.4988   -0.4388 C   0  0  0  0  0  0  0  0  0  0  0  0
   -6.2316    0.5714    0.0888 C   0  0  0  0  0  0  0  0  0  0  0  0
   -7.5925    0.7448    0.2171 O   0  0  0  0  0  0  0  0  0  0  0  0
   -8.6765   -0.0078   -0.1359 C   0  0  0  0  0  0  0  0  0  0  0  0
   -8.9240   -1.2732    0.5625 C   0  0  0  0  0  0  0  0  0  0  0  0
  -10.0549   -2.0897   -0.0481 C   0  0  0  0  0  0  0  0  0  0  0  0
  -11.3356   -1.6595   -0.1520 N   0  0  0  0  0  0  0  0  0  0  0  0
  -11.7732   -0.6523   -1.0368 C   0  0  0  0  0  0  0  0  0  0  0  0
  -12.7204    0.3268   -0.3671 C   0  0  0  0  0  0  0  0  0  0  0  0
  -13.7617   -0.3083    0.3122 O   0  0  0  0  0  0  0  0  0  0  0  0
  -13.1773   -1.0651    1.3345 C   0  0  0  0  0  0  0  0  0  0  0  0
  -12.3888   -2.1845    0.6586 C   0  0  0  0  0  0  0  0  0  0  0  0
   -5.4146    1.6901    0.5673 C   0  0  0  0  0  0  0  0  0  0  0  0
   -6.0846    2.6074    1.0441 O   0  0  0  0  0  0  0  0  0  0  0  0
   -6.7925    3.5968    1.5572 C   0  0  0  0  0  0  0  0  0  0  0  0
   -4.0277    1.5155    0.3999 C   0  0  0  0  0  0  0  0  0  0  0  0
   -3.4837    0.3748   -0.1589 C   0  0  0  0  0  0  0  0  0  0  0  0
    0.4105    1.8348   -1.5093 C   0  0  0  0  0  0  0  0  0  0  0  0
    1.5843    1.8383   -2.1255 C   0  0  0  0  0  0  0  0  0  0  0  0
    7.2730    0.4714    0.0456 C   0  0  0  0  0  0  0  0  0  0  0  0
    8.4053    0.3486    0.7601 C   0  0  0  0  0  0  0  0  0  0  0  0
   14.5996   -1.1331    0.9565 H   0  0  0  0  0  0  0  0  0  0  0  0
   15.3391    0.3669    1.7083 H   0  0  0  0  0  0  0  0  0  0  0  0
   14.1503    0.5863    0.3827 H   0  0  0  0  0  0  0  0  0  0  0  0
   13.2663   -2.2073    1.9777 H   0  0  0  0  0  0  0  0  0  0  0  0
   11.8823   -1.4048    2.7866 H   0  0  0  0  0  0  0  0  0  0  0  0
   12.4247   -0.7688   -0.1058 H   0  0  0  0  0  0  0  0  0  0  0  0
   11.4646   -2.2688    0.3949 H   0  0  0  0  0  0  0  0  0  0  0  0
   10.8245    0.1934    3.0005 H   0  0  0  0  0  0  0  0  0  0  0  0
   10.3562    1.5468    1.7975 H   0  0  0  0  0  0  0  0  0  0  0  0
   12.6236    1.3889    0.8269 H   0  0  0  0  0  0  0  0  0  0  0  0
   12.6477    1.8609    2.5352 H   0  0  0  0  0  0  0  0  0  0  0  0
   10.2873   -1.3483   -1.4356 H   0  0  0  0  0  0  0  0  0  0  0  0
    8.3293   -1.2096   -2.7230 H   0  0  0  0  0  0  0  0  0  0  0  0
    6.8436    0.3753   -3.1593 H   0  0  0  0  0  0  0  0  0  0  0  0
    3.1479    0.6163   -3.4469 H   0  0  0  0  0  0  0  0  0  0  0  0
    3.0575   -0.4075   -0.0308 H   0  0  0  0  0  0  0  0  0  0  0  0
    0.8308   -0.2935    0.9804 H   0  0  0  0  0  0  0  0  0  0  0  0
   -0.5600   -1.1013   -1.1570 H   0  0  0  0  0  0  0  0  0  0  0  0
   -2.1390   -2.8595   -1.7952 H   0  0  0  0  0  0  0  0  0  0  0  0
   -6.2812   -1.3134   -0.8292 H   0  0  0  0  0  0  0  0  0  0  0  0
   -8.6856   -0.1760   -1.2548 H   0  0  0  0  0  0  0  0  0  0  0  0
   -9.5894    0.6715    0.0977 H   0  0  0  0  0  0  0  0  0  0  0  0
   -9.1290   -1.0658    1.6358 H   0  0  0  0  0  0  0  0  0  0  0  0
   -8.0416   -1.9284    0.5400 H   0  0  0  0  0  0  0  0  0  0  0  0
   -9.6762   -2.3079   -1.1362 H   0  0  0  0  0  0  0  0  0  0  0  0
   -9.9679   -3.1427    0.3860 H   0  0  0  0  0  0  0  0  0  0  0  0
  -12.4076   -1.1980   -1.8455 H   0  0  0  0  0  0  0  0  0  0  0  0
  -10.9879   -0.1171   -1.5521 H   0  0  0  0  0  0  0  0  0  0  0  0
  -12.2089    0.9899    0.3653 H   0  0  0  0  0  0  0  0  0  0  0  0
  -13.1651    0.9623   -1.1537 H   0  0  0  0  0  0  0  0  0  0  0  0
  -12.4748   -0.3886    1.8792 H   0  0  0  0  0  0  0  0  0  0  0  0
  -13.9149   -1.5182    2.0047 H   0  0  0  0  0  0  0  0  0  0  0  0
  -13.1218   -2.6487   -0.0321 H   0  0  0  0  0  0  0  0  0  0  0  0
  -12.0654   -2.9861    1.3263 H   0  0  0  0  0  0  0  0  0  0  0  0
   -6.9003    4.5055    0.9186 H   0  0  0  0  0  0  0  0  0  0  0  0
   -6.5624    3.8432    2.6303 H   0  0  0  0  0  0  0  0  0  0  0  0
   -7.9275    3.3032    1.6691 H   0  0  0  0  0  0  0  0  0  0  0  0
   -3.3730    2.3271    0.7106 H   0  0  0  0  0  0  0  0  0  0  0  0
   -0.3811    2.4789   -1.9183 H   0  0  0  0  0  0  0  0  0  0  0  0
    1.8730    2.4182   -2.9776 H   0  0  0  0  0  0  0  0  0  0  0  0
    6.3772    0.9509    0.3741 H   0  0  0  0  0  0  0  0  0  0  0  0
    8.5112    0.7348    1.7744 H   0  0  0  0  0  0  0  0  0  0  0  0
  1  2  1  0
  2  3  1  0
  3  4  1  0
  4  5  1  0
  5  6  1  0
  6  7  1  0
  5  8  1  0
  8  9  2  0
  9 10  1  0
 10 11  2  0
 11 12  1  0
 12 13  1  0
 13 14  2  0
 13 15  1  0
 15 16  1  0
 16 17  2  0
 17 18  1  0
 18 19  2  0
 19 20  1  0
 20 21  1  0
 21 22  2  0
 22 23  1  0
 23 24  2  0
 24 25  1  0
 25 26  2  0
 26 27  1  0
 27 28  1  0
 28 29  1  0
 29 30  1  0
 30 31  1  0
 31 32  1  0
 32 33  1  0
 33 34  1  0
 34 35  1  0
 35 36  1  0
 36 37  1  0
 27 38  2  0
 38 39  1  0
 39 40  1  0
 38 41  1  0
 41 42  2  0
 19 43  1  0
 43 44  2  0
 11 45  1  0
 45 46  2  0
  7  2  1  0
 46  8  1  0
 44 16  1  0
 42 21  1  0
 42 25  1  0
 37 32  1  0
  1 47  1  0
  1 48  1  0
  1 49  1  0
  3 50  1  0
  3 51  1  0
  4 52  1  0
  4 53  1  0
  6 54  1  0
  6 55  1  0
  7 56  1  0
  7 57  1  0
  9 58  1  0
 10 59  1  0
 12 60  1  0
 15 61  1  0
 17 62  1  0
 18 63  1  0
 22 64  1  0
 23 65  1  0
 26 66  1  0
 29 67  1  0
 29 68  1  0
 30 69  1  0
 30 70  1  0
 31 71  1  0
 31 72  1  0
 33 73  1  0
 33 74  1  0
 34 75  1  0
 34 76  1  0
 36 77  1  0
 36 78  1  0
 37 79  1  0
 37 80  1  0
 40 81  1  0
 40 82  1  0
 40 83  1  0
 41 84  1  0
 43 85  1  0
 44 86  1  0
 45 87  1  0
 46 88  1  0
M  END
$$$$
[H]c1nc(N([H])c2c([H])c([H])c(N3C([H])([H])C([H])([H])C([H])(N4C([H])([H])C([H])([H])OC([H])([H])C4([H])[H])C([H])([H])C3([H])[H])c([H])c2OC([H])([H])[H])nc(N([H])c2c([H])c([H])c([H])c([H])c2S(=O)(=O)C([H])(C([H])([H])[H])C([H])([H])[H])c1Cl
     RDKit          3D

 78 82  0  0  0  0  0  0  0  0999 V2000
   -2.7990   -4.7366   -1.3510 C   0  0  0  0  0  0  0  0  0  0  0  0
   -1.4818   -4.2815   -1.0963 O   0  0  0  0  0  0  0  0  0  0  0  0
   -1.2626   -2.9268   -0.9115 C   0  0  0  0  0  0  0  0  0  0  0  0
   -2.2756   -1.9993   -0.9649 C   0  0  0  0  0  0  0  0  0  0  0  0
   -2.0617   -0.6368   -0.7804 C   0  0  0  0  0  0  0  0  0  0  0  0
   -0.7814   -0.2202   -0.5369 C   0  0  0  0  0  0  0  0  0  0  0  0
    0.2811   -1.1355   -0.4738 C   0  0  0  0  0  0  0  0  0  0  0  0
    0.0363   -2.4736   -0.6602 C   0  0  0  0  0  0  0  0  0  0  0  0
    1.0486   -3.4282   -0.5632 N   0  0  0  0  0  0  0  0  0  0  0  0
    2.4501   -3.2971   -0.5441 C   0  0  0  0  0  0  0  0  0  0  0  0
    3.1806   -4.4584   -0.3853 N   0  0  0  0  0  0  0  0  0  0  0  0
    4.4963   -4.5095   -0.3751 C   0  0  0  0  0  0  0  0  0  0  0  0
    5.2173   -3.3469   -0.5311 C   0  0  0  0  0  0  0  0  0  0  0  0
    6.9576   -3.3296   -0.5341 Cl  0  0  0  0  0  0  0  0  0  0  0  0
    4.5356   -2.1282   -0.6989 C   0  0  0  0  0  0  0  0  0  0  0  0
    5.3043   -0.9689   -0.8278 N   0  0  0  0  0  0  0  0  0  0  0  0
    4.9428    0.3708   -1.0715 C   0  0  0  0  0  0  0  0  0  0  0  0
    3.7071    0.7399   -1.5352 C   0  0  0  0  0  0  0  0  0  0  0  0
    3.4274    2.0598   -1.8188 C   0  0  0  0  0  0  0  0  0  0  0  0
    4.3635    3.0489   -1.6512 C   0  0  0  0  0  0  0  0  0  0  0  0
    5.6208    2.6944   -1.1820 C   0  0  0  0  0  0  0  0  0  0  0  0
    5.9101    1.3798   -0.8961 C   0  0  0  0  0  0  0  0  0  0  0  0
    7.5019    1.0371   -0.2945 S   0  0  0  0  0  0  0  0  0  0  0  0
    8.2978    0.1131   -1.1647 O   0  0  0  0  0  0  0  0  0  0  0  0
    8.2966    2.3490   -0.2987 O   0  0  0  0  0  0  0  0  0  0  0  0
    7.4681    0.4327    1.3549 C   0  0  0  0  0  0  0  0  0  0  0  0
    8.8634   -0.1388    1.7159 C   0  0  0  0  0  0  0  0  0  0  0  0
    7.0596    1.4683    2.3670 C   0  0  0  0  0  0  0  0  0  0  0  0
    3.1822   -2.2006   -0.6916 N   0  0  0  0  0  0  0  0  0  0  0  0
   -3.1115    0.3177   -0.8518 N   0  0  0  0  0  0  0  0  0  0  0  0
   -4.3569    0.0033   -1.5564 C   0  0  0  0  0  0  0  0  0  0  0  0
   -5.4456    0.9770   -1.1084 C   0  0  0  0  0  0  0  0  0  0  0  0
   -5.4163    1.0960    0.3875 C   0  0  0  0  0  0  0  0  0  0  0  0
   -4.1724    1.8834    0.7406 C   0  0  0  0  0  0  0  0  0  0  0  0
   -3.0537    1.6221   -0.2518 C   0  0  0  0  0  0  0  0  0  0  0  0
   -6.5566    1.8175    0.8825 N   0  0  0  0  0  0  0  0  0  0  0  0
   -6.4174    2.0469    2.3263 C   0  0  0  0  0  0  0  0  0  0  0  0
   -7.6213    2.8766    2.7374 C   0  0  0  0  0  0  0  0  0  0  0  0
   -8.8104    2.1862    2.5319 O   0  0  0  0  0  0  0  0  0  0  0  0
   -8.9221    1.9916    1.1601 C   0  0  0  0  0  0  0  0  0  0  0  0
   -7.7951    1.0731    0.7374 C   0  0  0  0  0  0  0  0  0  0  0  0
   -2.8361   -5.8616   -1.3099 H   0  0  0  0  0  0  0  0  0  0  0  0
   -3.1900   -4.3824   -2.3292 H   0  0  0  0  0  0  0  0  0  0  0  0
   -3.5377   -4.4041   -0.5867 H   0  0  0  0  0  0  0  0  0  0  0  0
   -3.2912   -2.3704   -1.1607 H   0  0  0  0  0  0  0  0  0  0  0  0
   -0.5304    0.8148   -0.3940 H   0  0  0  0  0  0  0  0  0  0  0  0
    1.2667   -0.7437   -0.2556 H   0  0  0  0  0  0  0  0  0  0  0  0
    0.7052   -4.4618   -0.4798 H   0  0  0  0  0  0  0  0  0  0  0  0
    5.0715   -5.4367   -0.2489 H   0  0  0  0  0  0  0  0  0  0  0  0
    6.3584   -1.1165   -0.7423 H   0  0  0  0  0  0  0  0  0  0  0  0
    2.9114   -0.0041   -1.7193 H   0  0  0  0  0  0  0  0  0  0  0  0
    2.4405    2.3544   -2.1905 H   0  0  0  0  0  0  0  0  0  0  0  0
    4.1803    4.0991   -1.8612 H   0  0  0  0  0  0  0  0  0  0  0  0
    6.3509    3.4879   -1.0554 H   0  0  0  0  0  0  0  0  0  0  0  0
    6.8109   -0.4447    1.4204 H   0  0  0  0  0  0  0  0  0  0  0  0
    8.9078   -1.1290    1.2165 H   0  0  0  0  0  0  0  0  0  0  0  0
    8.8703   -0.2948    2.7926 H   0  0  0  0  0  0  0  0  0  0  0  0
    9.6590    0.5303    1.3215 H   0  0  0  0  0  0  0  0  0  0  0  0
    6.3760    2.2282    1.9706 H   0  0  0  0  0  0  0  0  0  0  0  0
    8.0149    1.9242    2.7543 H   0  0  0  0  0  0  0  0  0  0  0  0
    6.5683    1.0168    3.2596 H   0  0  0  0  0  0  0  0  0  0  0  0
   -4.2295    0.1961   -2.6622 H   0  0  0  0  0  0  0  0  0  0  0  0
   -4.6789   -1.0320   -1.4555 H   0  0  0  0  0  0  0  0  0  0  0  0
   -6.3764    0.6017   -1.5329 H   0  0  0  0  0  0  0  0  0  0  0  0
   -5.2359    1.9773   -1.5346 H   0  0  0  0  0  0  0  0  0  0  0  0
   -5.4040    0.1109    0.8986 H   0  0  0  0  0  0  0  0  0  0  0  0
   -4.4001    2.9747    0.6779 H   0  0  0  0  0  0  0  0  0  0  0  0
   -3.8424    1.6927    1.7865 H   0  0  0  0  0  0  0  0  0  0  0  0
   -3.1634    2.3692   -1.0913 H   0  0  0  0  0  0  0  0  0  0  0  0
   -2.0806    1.8030    0.1914 H   0  0  0  0  0  0  0  0  0  0  0  0
   -6.4486    1.0642    2.8141 H   0  0  0  0  0  0  0  0  0  0  0  0
   -5.5199    2.6190    2.5767 H   0  0  0  0  0  0  0  0  0  0  0  0
   -7.6190    3.7806    2.0982 H   0  0  0  0  0  0  0  0  0  0  0  0
   -7.5723    3.1645    3.7921 H   0  0  0  0  0  0  0  0  0  0  0  0
   -8.6856    2.9938    0.6972 H   0  0  0  0  0  0  0  0  0  0  0  0
   -9.9176    1.6194    0.8580 H   0  0  0  0  0  0  0  0  0  0  0  0
   -7.9512    0.6460   -0.2539 H   0  0  0  0  0  0  0  0  0  0  0  0
   -7.7886    0.2449    1.4991 H   0  0  0  0  0  0  0  0  0  0  0  0
  1  2  1  0
  2  3  1  0
  3  4  2  0
  4  5  1  0
  5  6  2  0
  6  7  1  0
  7  8  2  0
  8  9  1  0
  9 10  1  0
 10 11  2  0
 11 12  1  0
 12 13  2  0
 13 14  1  0
 13 15  1  0
 15 16  1  0
 16 17  1  0
 17 18  2  0
 18 19  1  0
 19 20  2  0
 20 21  1  0
 21 22  2  0
 22 23  1  0
 23 24  2  0
 23 25  2  0
 23 26  1  0
 26 27  1  0
 26 28  1  0
 15 29  2  0
  5 30  1  0
 30 31  1  0
 31 32  1  0
 32 33  1  0
 33 34  1  0
 34 35  1  0
 33 36  1  0
 36 37  1  0
 37 38  1  0
 38 39  1  0
 39 40  1  0
 40 41  1  0
  8  3  1  0
 29 10  1  0
 35 30  1  0
 41 36  1  0
 22 17  1  0
  1 42  1  0
  1 43  1  0
  1 44  1  0
  4 45  1  0
  6 46  1  0
  7 47  1  0
  9 48  1  0
 12 49  1  0
 16 50  1  0
 18 51  1  0
 19 52  1  0
 20 53  1  0
 21 54  1  0
 26 55  1  0
 27 56  1  0
 27 57  1  0
 27 58  1  0
 28 59  1  0
 28 60  1  0
 28 61  1  0
 31 62  1  0
 31 63  1  0
 32 64  1  0
 32 65  1  0
 33 66  1  0
 34 67  1  0
 34 68  1  0
 35 69  1  0
 35 70  1  0
 37 71  1  0
 37 72  1  0
 38 73  1  0
 38 74  1  0
 40 75  1  0
 40 76  1  0
 41 77  1  0
 41 78  1  0
M  END
$$$$
[H]OC1([H])C([H])([H])C([H])([H])N(c2c([H])c3c([H])c(Sc4c([H])c([H])c([H])c([H])c4[H])c([H])nc3n2[H])C([H])([H])C1([H])[H]
     RDKit          3D

 42 45  0  0  0  0  0  0  0  0999 V2000
   -6.9164    0.6287   -0.7940 O   0  0  0  0  0  0  0  0  0  0  0  0
   -6.1325    0.0715    0.2426 C   0  0  0  0  0  0  0  0  0  0  0  0
   -5.1702    1.1434    0.6985 C   0  0  0  0  0  0  0  0  0  0  0  0
   -4.0309    1.1797   -0.2914 C   0  0  0  0  0  0  0  0  0  0  0  0
   -3.2734   -0.0593   -0.0610 N   0  0  0  0  0  0  0  0  0  0  0  0
   -4.0068   -1.2783    0.0223 C   0  0  0  0  0  0  0  0  0  0  0  0
   -5.4562   -1.1482   -0.2845 C   0  0  0  0  0  0  0  0  0  0  0  0
   -1.8610   -0.0630    0.0800 C   0  0  0  0  0  0  0  0  0  0  0  0
   -1.0912    0.0264    1.2193 C   0  0  0  0  0  0  0  0  0  0  0  0
    0.2491   -0.0104    0.9046 C   0  0  0  0  0  0  0  0  0  0  0  0
    1.4430    0.0408    1.6162 C   0  0  0  0  0  0  0  0  0  0  0  0
    2.6662   -0.0204    0.9826 C   0  0  0  0  0  0  0  0  0  0  0  0
    4.2245    0.0367    1.8808 S   0  0  0  0  0  0  0  0  0  0  0  0
    5.5742   -0.0422    0.7200 C   0  0  0  0  0  0  0  0  0  0  0  0
    6.1372   -1.2235    0.2840 C   0  0  0  0  0  0  0  0  0  0  0  0
    7.1908   -1.2158   -0.6252 C   0  0  0  0  0  0  0  0  0  0  0  0
    7.6915   -0.0265   -1.1072 C   0  0  0  0  0  0  0  0  0  0  0  0
    7.1389    1.1600   -0.6805 C   0  0  0  0  0  0  0  0  0  0  0  0
    6.0798    1.1459    0.2339 C   0  0  0  0  0  0  0  0  0  0  0  0
    2.6406   -0.1355   -0.3996 C   0  0  0  0  0  0  0  0  0  0  0  0
    1.4882   -0.1857   -1.0932 N   0  0  0  0  0  0  0  0  0  0  0  0
    0.2884   -0.1255   -0.4688 C   0  0  0  0  0  0  0  0  0  0  0  0
   -0.9767   -0.1556   -0.9448 N   0  0  0  0  0  0  0  0  0  0  0  0
   -6.9862    1.6089   -0.6583 H   0  0  0  0  0  0  0  0  0  0  0  0
   -6.8373   -0.1448    1.0758 H   0  0  0  0  0  0  0  0  0  0  0  0
   -4.8260    0.9128    1.7215 H   0  0  0  0  0  0  0  0  0  0  0  0
   -5.7340    2.1077    0.6790 H   0  0  0  0  0  0  0  0  0  0  0  0
   -3.3829    2.0606   -0.0768 H   0  0  0  0  0  0  0  0  0  0  0  0
   -4.4367    1.1717   -1.3095 H   0  0  0  0  0  0  0  0  0  0  0  0
   -3.8760   -1.8049    0.9846 H   0  0  0  0  0  0  0  0  0  0  0  0
   -3.5621   -1.9751   -0.7480 H   0  0  0  0  0  0  0  0  0  0  0  0
   -5.6461   -1.2749   -1.3821 H   0  0  0  0  0  0  0  0  0  0  0  0
   -5.9850   -2.0324    0.1806 H   0  0  0  0  0  0  0  0  0  0  0  0
   -1.4803    0.1132    2.2227 H   0  0  0  0  0  0  0  0  0  0  0  0
    1.3967    0.1295    2.6729 H   0  0  0  0  0  0  0  0  0  0  0  0
    5.7205   -2.1472    0.6830 H   0  0  0  0  0  0  0  0  0  0  0  0
    7.6227   -2.1336   -0.9598 H   0  0  0  0  0  0  0  0  0  0  0  0
    8.5093   -0.0615   -1.8108 H   0  0  0  0  0  0  0  0  0  0  0  0
    7.5518    2.0726   -1.0741 H   0  0  0  0  0  0  0  0  0  0  0  0
    5.6602    2.0750    0.5570 H   0  0  0  0  0  0  0  0  0  0  0  0
    3.6165   -0.1821   -0.8801 H   0  0  0  0  0  0  0  0  0  0  0  0
   -1.2223   -0.2386   -1.9543 H   0  0  0  0  0  0  0  0  0  0  0  0
  1  2  1  0
  2  3  1  0
  3  4  1  0
  4  5  1  0
  5  6  1  0
  6  7  1  0
  5  8  1  0
  8  9  2  0
  9 10  1  0
 10 11  2  0
 11 12  1  0
 12 13  1  0
 13 14  1  0
 14 15  2  0
 15 16  1  0
 16 17  2  0
 17 18  1  0
 18 19  2  0
 12 20  2  0
 20 21  1  0
 21 22  2  0
 22 23  1  0
  7  2  1  0
 23  8  1  0
 22 10  1  0
 19 14  1  0
  1 24  1  0
  2 25  1  0
  3 26  1  0
  3 27  1  0
  4 28  1  0
  4 29  1  0
  6 30  1  0
  6 31  1  0
  7 32  1  0
  7 33  1  0
  9 34  1  0
 11 35  1  0
 15 36  1  0
 16 37  1  0
 17 38  1  0
 18 39  1  0
 19 40  1  0
 20 41  1  0
 23 42  1  0
M  END
$$$$
[H]c1c([H])c([H])c(C([H])([H])[C@@]2([H])C(=O)N([H])[C@@]([H])(C([H])([H])c3c([H])c([H])c([H])c([H])c3[H])C(=O)N([H])[C@]([H])([C@@]([H])(C([H])([H])[H])C([H])([H])C([H])([H])[H])C(=O)N([H])[C@@]([H])(C([H])([H])c3c([H])c([H])c([H])c([H])c3[H])C(=O)N3C([H])([H])C([H])([H])C([H])([H])[C@]3([H])C(=O)N([H])[C@@]([H])(C([H])([H])c3c([H])c([H])c([H])c([H])c3[H])C(=O)N2[H])c([H])c1[H]
     RDKit          3D

113118  0  0  0  0  0  0  0  0999 V2000
    4.1225   -4.4787    1.0737 C   0  0  0  0  0  0  0  0  0  0  0  0
    4.0516   -3.1003    1.6838 C   0  0  0  0  0  0  0  0  0  0  0  0
    2.6492   -2.6343    1.9138 C   0  0  2  0  0  0  0  0  0  0  0  0
    1.9111   -3.5618    2.8457 C   0  0  0  0  0  0  0  0  0  0  0  0
    1.8885   -2.3513    0.6356 C   0  0  1  0  0  0  0  0  0  0  0  0
    0.5370   -1.9153    0.9217 N   0  0  0  0  0  0  0  0  0  0  0  0
   -0.6729   -2.5450    0.7544 C   0  0  0  0  0  0  0  0  0  0  0  0
   -1.3547   -2.7944    1.8262 O   0  0  0  0  0  0  0  0  0  0  0  0
   -1.3381   -2.9973   -0.5161 C   0  0  2  0  0  0  0  0  0  0  0  0
   -0.6556   -2.4670   -1.7324 C   0  0  0  0  0  0  0  0  0  0  0  0
   -1.2724   -2.8889   -3.0143 C   0  0  0  0  0  0  0  0  0  0  0  0
   -2.2017   -2.1464   -3.6955 C   0  0  0  0  0  0  0  0  0  0  0  0
   -2.7783   -2.5279   -4.8863 C   0  0  0  0  0  0  0  0  0  0  0  0
   -2.4262   -3.7158   -5.4560 C   0  0  0  0  0  0  0  0  0  0  0  0
   -1.4933   -4.4969   -4.8056 C   0  0  0  0  0  0  0  0  0  0  0  0
   -0.9239   -4.1036   -3.6139 C   0  0  0  0  0  0  0  0  0  0  0  0
   -2.7594   -2.8921   -0.4546 N   0  0  0  0  0  0  0  0  0  0  0  0
   -3.6364   -1.8298   -0.4284 C   0  0  0  0  0  0  0  0  0  0  0  0
   -4.6944   -1.9412   -1.1795 O   0  0  0  0  0  0  0  0  0  0  0  0
   -3.6298   -0.5409    0.3004 C   0  0  2  0  0  0  0  0  0  0  0  0
   -4.8714   -0.3997    1.2127 C   0  0  0  0  0  0  0  0  0  0  0  0
   -4.8461   -1.4910    2.2075 C   0  0  0  0  0  0  0  0  0  0  0  0
   -4.1875   -1.3154    3.4368 C   0  0  0  0  0  0  0  0  0  0  0  0
   -4.1574   -2.3008    4.3880 C   0  0  0  0  0  0  0  0  0  0  0  0
   -4.7684   -3.5155    4.1940 C   0  0  0  0  0  0  0  0  0  0  0  0
   -5.4248   -3.7267    3.0018 C   0  0  0  0  0  0  0  0  0  0  0  0
   -5.4473   -2.7143    2.0433 C   0  0  0  0  0  0  0  0  0  0  0  0
   -3.6584    0.5465   -0.6844 N   0  0  0  0  0  0  0  0  0  0  0  0
   -3.1841    1.8390   -0.6039 C   0  0  0  0  0  0  0  0  0  0  0  0
   -4.0692    2.7765   -0.7110 O   0  0  0  0  0  0  0  0  0  0  0  0
   -1.8241    2.3766   -0.4155 C   0  0  2  0  0  0  0  0  0  0  0  0
   -1.1469    2.5690   -1.7582 C   0  0  0  0  0  0  0  0  0  0  0  0
   -1.9121    3.5156   -2.6019 C   0  0  0  0  0  0  0  0  0  0  0  0
   -2.8809    3.1532   -3.5131 C   0  0  0  0  0  0  0  0  0  0  0  0
   -3.5668    4.0889   -4.2653 C   0  0  0  0  0  0  0  0  0  0  0  0
   -3.3047    5.4338   -4.1303 C   0  0  0  0  0  0  0  0  0  0  0  0
   -2.3375    5.8159   -3.2228 C   0  0  0  0  0  0  0  0  0  0  0  0
   -1.6695    4.8872   -2.4889 C   0  0  0  0  0  0  0  0  0  0  0  0
   -0.9970    1.6210    0.4978 N   0  0  0  0  0  0  0  0  0  0  0  0
   -0.3410    2.0995    1.6500 C   0  0  0  0  0  0  0  0  0  0  0  0
   -0.4880    1.4025    2.6823 O   0  0  0  0  0  0  0  0  0  0  0  0
    0.4622    3.2981    1.7159 C   0  0  1  0  0  0  0  0  0  0  0  0
    0.8822    3.7034    3.1132 C   0  0  0  0  0  0  0  0  0  0  0  0
    1.9529    4.7547    2.7862 C   0  0  0  0  0  0  0  0  0  0  0  0
    2.1332    4.6747    1.2815 C   0  0  0  0  0  0  0  0  0  0  0  0
    1.7451    3.2745    1.0583 N   0  0  0  0  0  0  0  0  0  0  0  0
    2.4106    2.2503    0.4097 C   0  0  0  0  0  0  0  0  0  0  0  0
    2.7645    2.4329   -0.8135 O   0  0  0  0  0  0  0  0  0  0  0  0
    2.8048    0.8984    0.9278 C   0  0  2  0  0  0  0  0  0  0  0  0
    4.2268    0.9823    1.5227 C   0  0  0  0  0  0  0  0  0  0  0  0
    5.2531    1.3903    0.5986 C   0  0  0  0  0  0  0  0  0  0  0  0
    5.5647    2.7162    0.4288 C   0  0  0  0  0  0  0  0  0  0  0  0
    6.5432    3.1478   -0.4438 C   0  0  0  0  0  0  0  0  0  0  0  0
    7.2280    2.2162   -1.1665 C   0  0  0  0  0  0  0  0  0  0  0  0
    6.9592    0.8812   -1.0372 C   0  0  0  0  0  0  0  0  0  0  0  0
    5.9580    0.4764   -0.1411 C   0  0  0  0  0  0  0  0  0  0  0  0
    2.7182   -0.0251   -0.1581 N   0  0  0  0  0  0  0  0  0  0  0  0
    2.6728   -1.4169   -0.1741 C   0  0  0  0  0  0  0  0  0  0  0  0
    3.4471   -1.9815   -1.0472 O   0  0  0  0  0  0  0  0  0  0  0  0
    3.4524   -4.5692    0.2200 H   0  0  0  0  0  0  0  0  0  0  0  0
    5.1629   -4.6131    0.7197 H   0  0  0  0  0  0  0  0  0  0  0  0
    3.9707   -5.2780    1.8364 H   0  0  0  0  0  0  0  0  0  0  0  0
    4.6377   -3.1649    2.6297 H   0  0  0  0  0  0  0  0  0  0  0  0
    4.6123   -2.4095    1.0419 H   0  0  0  0  0  0  0  0  0  0  0  0
    2.7472   -1.6703    2.5036 H   0  0  0  0  0  0  0  0  0  0  0  0
    1.1212   -2.9900    3.3738 H   0  0  0  0  0  0  0  0  0  0  0  0
    2.6328   -3.8929    3.6293 H   0  0  0  0  0  0  0  0  0  0  0  0
    1.5445   -4.4681    2.3562 H   0  0  0  0  0  0  0  0  0  0  0  0
    1.8033   -3.3348    0.1184 H   0  0  0  0  0  0  0  0  0  0  0  0
    0.4911   -0.9296    1.3512 H   0  0  0  0  0  0  0  0  0  0  0  0
   -1.0223   -4.1062   -0.5302 H   0  0  0  0  0  0  0  0  0  0  0  0
   -0.6390   -1.3500   -1.7454 H   0  0  0  0  0  0  0  0  0  0  0  0
    0.4222   -2.7625   -1.7713 H   0  0  0  0  0  0  0  0  0  0  0  0
   -2.5256   -1.1830   -3.2937 H   0  0  0  0  0  0  0  0  0  0  0  0
   -3.5216   -1.8994   -5.3990 H   0  0  0  0  0  0  0  0  0  0  0  0
   -2.8932   -3.9958   -6.3953 H   0  0  0  0  0  0  0  0  0  0  0  0
   -1.2193   -5.4374   -5.2640 H   0  0  0  0  0  0  0  0  0  0  0  0
   -0.1940   -4.7420   -3.1304 H   0  0  0  0  0  0  0  0  0  0  0  0
   -3.2530   -3.8643   -0.4223 H   0  0  0  0  0  0  0  0  0  0  0  0
   -2.8271   -0.4550    1.0286 H   0  0  0  0  0  0  0  0  0  0  0  0
   -5.7878   -0.5177    0.6074 H   0  0  0  0  0  0  0  0  0  0  0  0
   -4.7810    0.5877    1.6852 H   0  0  0  0  0  0  0  0  0  0  0  0
   -3.6860   -0.3802    3.6547 H   0  0  0  0  0  0  0  0  0  0  0  0
   -3.6317   -2.1209    5.3345 H   0  0  0  0  0  0  0  0  0  0  0  0
   -4.7459   -4.3060    4.9537 H   0  0  0  0  0  0  0  0  0  0  0  0
   -5.9338   -4.6740    2.7823 H   0  0  0  0  0  0  0  0  0  0  0  0
   -5.9786   -2.9204    1.1343 H   0  0  0  0  0  0  0  0  0  0  0  0
   -4.1409    0.2512   -1.5930 H   0  0  0  0  0  0  0  0  0  0  0  0
   -1.8924    3.4074    0.0112 H   0  0  0  0  0  0  0  0  0  0  0  0
   -1.1704    1.5696   -2.2701 H   0  0  0  0  0  0  0  0  0  0  0  0
   -0.0965    2.8415   -1.6677 H   0  0  0  0  0  0  0  0  0  0  0  0
   -3.0981    2.0914   -3.6297 H   0  0  0  0  0  0  0  0  0  0  0  0
   -4.3315    3.8068   -4.9854 H   0  0  0  0  0  0  0  0  0  0  0  0
   -3.8449    6.1872   -4.7242 H   0  0  0  0  0  0  0  0  0  0  0  0
   -2.1339    6.8770   -3.1186 H   0  0  0  0  0  0  0  0  0  0  0  0
   -0.9229    5.2207   -1.7893 H   0  0  0  0  0  0  0  0  0  0  0  0
   -0.9216    0.6009    0.1856 H   0  0  0  0  0  0  0  0  0  0  0  0
   -0.0878    4.1914    1.2848 H   0  0  0  0  0  0  0  0  0  0  0  0
    0.0508    4.1442    3.6824 H   0  0  0  0  0  0  0  0  0  0  0  0
    1.3364    2.8134    3.5784 H   0  0  0  0  0  0  0  0  0  0  0  0
    1.5584    5.7387    3.0840 H   0  0  0  0  0  0  0  0  0  0  0  0
    2.9049    4.5052    3.2581 H   0  0  0  0  0  0  0  0  0  0  0  0
    3.0769    4.9905    0.8996 H   0  0  0  0  0  0  0  0  0  0  0  0
    1.2902    5.3003    0.8571 H   0  0  0  0  0  0  0  0  0  0  0  0
    2.2100    0.6235    1.8235 H   0  0  0  0  0  0  0  0  0  0  0  0
    4.3871   -0.0024    2.0074 H   0  0  0  0  0  0  0  0  0  0  0  0
    4.1078    1.6860    2.4040 H   0  0  0  0  0  0  0  0  0  0  0  0
    5.0358    3.4619    0.9903 H   0  0  0  0  0  0  0  0  0  0  0  0
    6.7408    4.2029   -0.5313 H   0  0  0  0  0  0  0  0  0  0  0  0
    8.0100    2.5480   -1.8652 H   0  0  0  0  0  0  0  0  0  0  0  0
    7.5208    0.1560   -1.6251 H   0  0  0  0  0  0  0  0  0  0  0  0
    5.7993   -0.5911   -0.0881 H   0  0  0  0  0  0  0  0  0  0  0  0
    2.6867    0.4188   -1.1408 H   0  0  0  0  0  0  0  0  0  0  0  0
  1  2  1  0
  2  3  1  0
  3  4  1  0
  3  5  1  0
  5  6  1  0
  6  7  1  0
  7  8  2  0
  7  9  1  0
  9 10  1  0
 10 11  1  0
 11 12  2  0
 12 13  1  0
 13 14  2  0
 14 15  1  0
 15 16  2  0
  9 17  1  0
 17 18  1  0
 18 19  2  0
 18 20  1  0
 20 21  1  0
 21 22  1  0
 22 23  2  0
 23 24  1  0
 24 25  2  0
 25 26  1  0
 26 27  2  0
 20 28  1  0
 28 29  1  0
 29 30  2  0
 29 31  1  0
 31 32  1  0
 32 33  1  0
 33 34  2  0
 34 35  1  0
 35 36  2  0
 36 37  1  0
 37 38  2  0
 31 39  1  0
 39 40  1  0
 40 41  2  0
 40 42  1  0
 42 43  1  0
 43 44  1  0
 44 45  1  0
 45 46  1  0
 46 47  1  0
 47 48  2  0
 47 49  1  0
 49 50  1  0
 50 51  1  0
 51 52  2  0
 52 53  1  0
 53 54  2  0
 54 55  1  0
 55 56  2  0
 49 57  1  0
 57 58  1  0
 58 59  2  0
 58  5  1  0
 16 11  1  0
 27 22  1  0
 38 33  1  0
 46 42  1  0
 56 51  1  0
  1 60  1  0
  1 61  1  0
  1 62  1  0
  2 63  1  0
  2 64  1  0
  3 65  1  1
  4 66  1  0
  4 67  1  0
  4 68  1  0
  5 69  1  6
  6 70  1  0
  9 71  1  6
 10 72  1  0
 10 73  1  0
 12 74  1  0
 13 75  1  0
 14 76  1  0
 15 77  1  0
 16 78  1  0
 17 79  1  0
 20 80  1  1
 21 81  1  0
 21 82  1  0
 23 83  1  0
 24 84  1  0
 25 85  1  0
 26 86  1  0
 27 87  1  0
 28 88  1  0
 31 89  1  1
 32 90  1  0
 32 91  1  0
 34 92  1  0
 35 93  1  0
 36 94  1  0
 37 95  1  0
 38 96  1  0
 39 97  1  0
 42 98  1  6
 43 99  1  0
 43100  1  0
 44101  1  0
 44102  1  0
 45103  1  0
 45104  1  0
 49105  1  1
 50106  1  0
 50107  1  0
 52108  1  0
 53109  1  0
 54110  1  0
 55111  1  0
 56112  1  0
 57113  1  0
M  END
$$$$
[H]c1c([H])c([H])c(C2=C(N([H])c3c([H])c([H])c(N(C(=O)C([H])([H])N4C([H])([H])C([H])([H])N(C([H])([H])[H])C([H])([H])C4([H])[H])C([H])([H])[H])c([H])c3[H])C(=O)c3c([H])c(C(=O)OC([H])([H])[H])c([H])c([H])c32)c([H])c1[H]
     RDKit          3D

 71 75  0  0  0  0  0  0  0  0999 V2000
  -10.4083    1.9114   -2.4644 C   0  0  0  0  0  0  0  0  0  0  0  0
   -9.3037    1.1580   -1.9570 O   0  0  0  0  0  0  0  0  0  0  0  0
   -8.2335    1.7544   -1.3333 C   0  0  0  0  0  0  0  0  0  0  0  0
   -8.2705    3.0180   -1.2293 O   0  0  0  0  0  0  0  0  0  0  0  0
   -7.0896    1.0352   -0.7987 C   0  0  0  0  0  0  0  0  0  0  0  0
   -7.0013   -0.3335   -0.8872 C   0  0  0  0  0  0  0  0  0  0  0  0
   -5.8958   -0.9821   -0.3587 C   0  0  0  0  0  0  0  0  0  0  0  0
   -4.8622   -0.3036    0.2631 C   0  0  0  0  0  0  0  0  0  0  0  0
   -3.6001   -0.6948    0.9019 C   0  0  0  0  0  0  0  0  0  0  0  0
   -2.9372    0.3417    1.3579 C   0  0  0  0  0  0  0  0  0  0  0  0
   -1.6780    0.3947    2.0397 N   0  0  0  0  0  0  0  0  0  0  0  0
   -0.5056    0.9281    1.4645 C   0  0  0  0  0  0  0  0  0  0  0  0
   -0.4881    1.2866    0.1337 C   0  0  0  0  0  0  0  0  0  0  0  0
    0.6331    1.8151   -0.4601 C   0  0  0  0  0  0  0  0  0  0  0  0
    1.8251    2.0211    0.2529 C   0  0  0  0  0  0  0  0  0  0  0  0
    1.7729    1.6532    1.5775 C   0  0  0  0  0  0  0  0  0  0  0  0
    0.6575    1.1207    2.1908 C   0  0  0  0  0  0  0  0  0  0  0  0
    2.9557    2.5830   -0.3909 N   0  0  0  0  0  0  0  0  0  0  0  0
    2.8407    3.9903   -0.8240 C   0  0  0  0  0  0  0  0  0  0  0  0
    4.1286    1.8472   -0.6059 C   0  0  0  0  0  0  0  0  0  0  0  0
    5.0711    2.4276   -1.1940 O   0  0  0  0  0  0  0  0  0  0  0  0
    4.2697    0.4615   -0.1695 C   0  0  0  0  0  0  0  0  0  0  0  0
    5.5868   -0.0624   -0.4710 N   0  0  0  0  0  0  0  0  0  0  0  0
    6.6422    0.4970    0.3095 C   0  0  0  0  0  0  0  0  0  0  0  0
    7.9513    0.0163   -0.3354 C   0  0  0  0  0  0  0  0  0  0  0  0
    8.0688   -1.3927   -0.0094 N   0  0  0  0  0  0  0  0  0  0  0  0
    8.6802   -2.0679   -1.1115 C   0  0  0  0  0  0  0  0  0  0  0  0
    6.8360   -2.0047    0.3794 C   0  0  0  0  0  0  0  0  0  0  0  0
    5.6306   -1.5232   -0.4070 C   0  0  0  0  0  0  0  0  0  0  0  0
   -3.7683    1.5231    1.0288 C   0  0  0  0  0  0  0  0  0  0  0  0
   -3.4780    2.7118    1.3006 O   0  0  0  0  0  0  0  0  0  0  0  0
   -4.9615    1.0710    0.3457 C   0  0  0  0  0  0  0  0  0  0  0  0
   -6.0654    1.7141   -0.1826 C   0  0  0  0  0  0  0  0  0  0  0  0
   -3.1659   -2.0828    0.9857 C   0  0  0  0  0  0  0  0  0  0  0  0
   -4.1126   -3.0152    1.4208 C   0  0  0  0  0  0  0  0  0  0  0  0
   -3.7580   -4.3282    1.4950 C   0  0  0  0  0  0  0  0  0  0  0  0
   -2.4703   -4.7359    1.1431 C   0  0  0  0  0  0  0  0  0  0  0  0
   -1.5207   -3.8462    0.7138 C   0  0  0  0  0  0  0  0  0  0  0  0
   -1.9038   -2.5022    0.6432 C   0  0  0  0  0  0  0  0  0  0  0  0
  -10.7752    1.4185   -3.3881 H   0  0  0  0  0  0  0  0  0  0  0  0
  -11.1816    1.8922   -1.6621 H   0  0  0  0  0  0  0  0  0  0  0  0
  -10.0989    2.9449   -2.7183 H   0  0  0  0  0  0  0  0  0  0  0  0
   -7.7988   -0.9080   -1.3733 H   0  0  0  0  0  0  0  0  0  0  0  0
   -5.8551   -2.0616   -0.4493 H   0  0  0  0  0  0  0  0  0  0  0  0
   -1.6051    0.0190    3.0236 H   0  0  0  0  0  0  0  0  0  0  0  0
   -1.4135    1.1376   -0.4525 H   0  0  0  0  0  0  0  0  0  0  0  0
    0.6381    2.0939   -1.5079 H   0  0  0  0  0  0  0  0  0  0  0  0
    2.6781    1.8062    2.1749 H   0  0  0  0  0  0  0  0  0  0  0  0
    0.6549    0.8401    3.2442 H   0  0  0  0  0  0  0  0  0  0  0  0
    2.5097    4.0443   -1.8788 H   0  0  0  0  0  0  0  0  0  0  0  0
    2.0445    4.4407   -0.2057 H   0  0  0  0  0  0  0  0  0  0  0  0
    3.8233    4.4834   -0.6668 H   0  0  0  0  0  0  0  0  0  0  0  0
    3.5103   -0.1568   -0.6971 H   0  0  0  0  0  0  0  0  0  0  0  0
    4.1077    0.4209    0.9376 H   0  0  0  0  0  0  0  0  0  0  0  0
    6.6673    1.5722    0.3018 H   0  0  0  0  0  0  0  0  0  0  0  0
    6.6312    0.1604    1.3706 H   0  0  0  0  0  0  0  0  0  0  0  0
    7.8160    0.1667   -1.4266 H   0  0  0  0  0  0  0  0  0  0  0  0
    8.7658    0.6068    0.1051 H   0  0  0  0  0  0  0  0  0  0  0  0
    7.8795   -2.7038   -1.5923 H   0  0  0  0  0  0  0  0  0  0  0  0
    9.5477   -2.6913   -0.8147 H   0  0  0  0  0  0  0  0  0  0  0  0
    9.0264   -1.3722   -1.8730 H   0  0  0  0  0  0  0  0  0  0  0  0
    6.9359   -3.1010    0.1253 H   0  0  0  0  0  0  0  0  0  0  0  0
    6.6195   -1.8740    1.4496 H   0  0  0  0  0  0  0  0  0  0  0  0
    4.7409   -1.9266    0.1180 H   0  0  0  0  0  0  0  0  0  0  0  0
    5.6760   -1.8965   -1.4575 H   0  0  0  0  0  0  0  0  0  0  0  0
   -6.0787    2.8010   -0.0822 H   0  0  0  0  0  0  0  0  0  0  0  0
   -5.1072   -2.7048    1.6995 H   0  0  0  0  0  0  0  0  0  0  0  0
   -4.4961   -5.0595    1.8354 H   0  0  0  0  0  0  0  0  0  0  0  0
   -2.2607   -5.7907    1.2259 H   0  0  0  0  0  0  0  0  0  0  0  0
   -0.5280   -4.1707    0.4468 H   0  0  0  0  0  0  0  0  0  0  0  0
   -1.1462   -1.8370    0.2959 H   0  0  0  0  0  0  0  0  0  0  0  0
  1  2  1  0
  2  3  1  0
  3  4  2  0
  3  5  1  0
  5  6  2  0
  6  7  1  0
  7  8  2  0
  8  9  1  0
  9 10  2  0
 10 11  1  0
 11 12  1  0
 12 13  2  0
 13 14  1  0
 14 15  2  0
 15 16  1  0
 16 17  2  0
 15 18  1  0
 18 19  1  0
 18 20  1  0
 20 21  2  0
 20 22  1  0
 22 23  1  0
 23 24  1  0
 24 25  1  0
 25 26  1  0
 26 27  1  0
 26 28  1  0
 28 29  1  0
 10 30  1  0
 30 31  2  0
 30 32  1  0
 32 33  2  0
  9 34  1  0
 34 35  2  0
 35 36  1  0
 36 37  2  0
 37 38  1  0
 38 39  2  0
 33  5  1  0
 39 34  1  0
 32  8  1  0
 17 12  1  0
 29 23  1  0
  1 40  1  0
  1 41  1  0
  1 42  1  0
  6 43  1  0
  7 44  1  0
 11 45  1  0
 13 46  1  0
 14 47  1  0
 16 48  1  0
 17 49  1  0
 19 50  1  0
 19 51  1  0
 19 52  1  0
 22 53  1  0
 22 54  1  0
 24 55  1  0
 24 56  1  0
 25 57  1  0
 25 58  1  0
 27 59  1  0
 27 60  1  0
 27 61  1  0
 28 62  1  0
 28 63  1  0
 29 64  1  0
 29 65  1  0
 33 66  1  0
 35 67  1  0
 36 68  1  0
 37 69  1  0
 38 70  1  0
 39 71  1  0
M  END
$$$$
[H]c1c([H])c([N+](=O)[O-])c([H])c(C([H])([H])Oc2c([H])c([H])c3c(c2[H])C([H])([H])C([H])([H])N3S(=O)(=O)C([H])([H])[H])c1[H]
     RDKit          3D

 40 42  0  0  0  0  0  0  0  0999 V2000
   -6.4746   -0.4733   -0.6786 C   0  0  0  0  0  0  0  0  0  0  0  0
   -5.2193    0.4875   -1.4853 S   0  0  0  0  0  0  0  0  0  0  0  0
   -4.8192   -0.1787   -2.7432 O   0  0  0  0  0  0  0  0  0  0  0  0
   -5.8754    1.8059   -1.8685 O   0  0  0  0  0  0  0  0  0  0  0  0
   -3.9141    0.8564   -0.4565 N   0  0  0  0  0  0  0  0  0  0  0  0
   -4.0409    1.6406    0.7649 C   0  0  0  0  0  0  0  0  0  0  0  0
   -2.9073    1.1242    1.5927 C   0  0  0  0  0  0  0  0  0  0  0  0
   -1.9447    0.6193    0.5924 C   0  0  0  0  0  0  0  0  0  0  0  0
   -0.6090    0.3084    0.7204 C   0  0  0  0  0  0  0  0  0  0  0  0
    0.1045   -0.1583   -0.3806 C   0  0  0  0  0  0  0  0  0  0  0  0
    1.4462   -0.4644   -0.2280 O   0  0  0  0  0  0  0  0  0  0  0  0
    2.1185   -0.3200    1.0060 C   0  0  0  0  0  0  0  0  0  0  0  0
    3.5454   -0.7168    0.8914 C   0  0  0  0  0  0  0  0  0  0  0  0
    3.9660   -2.0091    1.1164 C   0  0  0  0  0  0  0  0  0  0  0  0
    5.2834   -2.3617    1.0075 C   0  0  0  0  0  0  0  0  0  0  0  0
    6.1997   -1.3915    0.6641 C   0  0  0  0  0  0  0  0  0  0  0  0
    5.8116   -0.0915    0.4327 C   0  0  0  0  0  0  0  0  0  0  0  0
    4.4951    0.2425    0.5455 C   0  0  0  0  0  0  0  0  0  0  0  0
    6.7876    0.8739    0.0818 N   0  0  0  0  0  0  0  0  0  0  0  0
    6.3997    2.1860   -0.1523 O   0  0  0  0  0  0  0  0  0  0  0  0
    7.9859    0.5832   -0.0239 O   0  0  0  0  0  0  0  0  0  0  0  0
   -0.5377   -0.3046   -1.5922 C   0  0  0  0  0  0  0  0  0  0  0  0
   -1.8874    0.0016   -1.7521 C   0  0  0  0  0  0  0  0  0  0  0  0
   -2.5692    0.4620   -0.6441 C   0  0  0  0  0  0  0  0  0  0  0  0
   -6.0257   -1.1991    0.0356 H   0  0  0  0  0  0  0  0  0  0  0  0
   -7.0851    0.2341   -0.0802 H   0  0  0  0  0  0  0  0  0  0  0  0
   -7.1421   -0.9740   -1.3878 H   0  0  0  0  0  0  0  0  0  0  0  0
   -5.0349    1.5278    1.2378 H   0  0  0  0  0  0  0  0  0  0  0  0
   -3.8859    2.7105    0.4399 H   0  0  0  0  0  0  0  0  0  0  0  0
   -2.4459    1.9129    2.2378 H   0  0  0  0  0  0  0  0  0  0  0  0
   -3.2844    0.2794    2.2189 H   0  0  0  0  0  0  0  0  0  0  0  0
   -0.0817    0.4129    1.6545 H   0  0  0  0  0  0  0  0  0  0  0  0
    1.6403   -0.9993    1.7442 H   0  0  0  0  0  0  0  0  0  0  0  0
    2.0330    0.7255    1.3851 H   0  0  0  0  0  0  0  0  0  0  0  0
    3.2445   -2.7634    1.3848 H   0  0  0  0  0  0  0  0  0  0  0  0
    5.6286   -3.3900    1.1851 H   0  0  0  0  0  0  0  0  0  0  0  0
    7.2401   -1.6517    0.5740 H   0  0  0  0  0  0  0  0  0  0  0  0
    4.2015    1.2485    0.3656 H   0  0  0  0  0  0  0  0  0  0  0  0
    0.0089   -0.6695   -2.4640 H   0  0  0  0  0  0  0  0  0  0  0  0
   -2.3560   -0.1265   -2.7194 H   0  0  0  0  0  0  0  0  0  0  0  0
  1  2  1  0
  2  3  2  0
  2  4  2  0
  2  5  1  0
  5  6  1  0
  6  7  1  0
  7  8  1  0
  8  9  2  0
  9 10  1  0
 10 11  1  0
 11 12  1  0
 12 13  1  0
 13 14  2  0
 14 15  1  0
 15 16  2  0
 16 17  1  0
 17 18  2  0
 17 19  1  0
 19 20  1  0
 19 21  2  0
 10 22  2  0
 22 23  1  0
 23 24  2  0
 24  5  1  0
 24  8  1  0
 18 13  1  0
  1 25  1  0
  1 26  1  0
  1 27  1  0
  6 28  1  0
  6 29  1  0
  7 30  1  0
  7 31  1  0
  9 32  1  0
 12 33  1  0
 12 34  1  0
 14 35  1  0
 15 36  1  0
 16 37  1  0
 18 38  1  0
 22 39  1  0
 23 40  1  0
M  CHG  2  19   1  20  -1
M  END
$$$$
[H]OC(=O)[C@@]1([H])N(C(=O)C([H])([H])N([H])C(=O)c2c([H])c(F)c(Cl)c([H])c2Cl)C([H])([H])C([H])([H])C1([H])[H]
     RDKit          3D

 36 37  0  0  0  0  0  0  0  0999 V2000
   -4.2806   -0.1087   -2.7637 O   0  0  0  0  0  0  0  0  0  0  0  0
   -3.4534    0.4013   -1.7605 C   0  0  0  0  0  0  0  0  0  0  0  0
   -3.0351    1.5630   -1.8998 O   0  0  0  0  0  0  0  0  0  0  0  0
   -3.1452   -0.4825   -0.6189 C   0  0  2  0  0  0  0  0  0  0  0  0
   -4.3727   -0.7951    0.2126 C   0  0  0  0  0  0  0  0  0  0  0  0
   -4.5307    0.4397    1.0402 C   0  0  0  0  0  0  0  0  0  0  0  0
   -3.1064    0.9800    1.1703 C   0  0  0  0  0  0  0  0  0  0  0  0
   -2.2905    0.1467    0.3444 N   0  0  0  0  0  0  0  0  0  0  0  0
   -0.8927   -0.0417    0.4381 C   0  0  0  0  0  0  0  0  0  0  0  0
   -0.2508    0.5877    1.3526 O   0  0  0  0  0  0  0  0  0  0  0  0
   -0.1340   -0.9243   -0.4611 C   0  0  0  0  0  0  0  0  0  0  0  0
    1.2515   -0.8993   -0.1448 N   0  0  0  0  0  0  0  0  0  0  0  0
    2.0659    0.2451   -0.2176 C   0  0  0  0  0  0  0  0  0  0  0  0
    1.6286    1.3789   -0.5857 O   0  0  0  0  0  0  0  0  0  0  0  0
    3.4943    0.2016    0.1323 C   0  0  0  0  0  0  0  0  0  0  0  0
    3.8524    0.4492    1.4332 C   0  0  0  0  0  0  0  0  0  0  0  0
    5.1892    0.4114    1.7747 C   0  0  0  0  0  0  0  0  0  0  0  0
    5.5511    0.6551    3.0582 F   0  0  0  0  0  0  0  0  0  0  0  0
    6.1281    0.1248    0.7943 C   0  0  0  0  0  0  0  0  0  0  0  0
    7.8360    0.0757    1.2267 Cl  0  0  0  0  0  0  0  0  0  0  0  0
    5.7765   -0.1241   -0.5100 C   0  0  0  0  0  0  0  0  0  0  0  0
    4.4339   -0.0787   -0.8184 C   0  0  0  0  0  0  0  0  0  0  0  0
    3.9272   -0.3843   -2.4488 Cl  0  0  0  0  0  0  0  0  0  0  0  0
   -4.0456   -0.0472   -3.7438 H   0  0  0  0  0  0  0  0  0  0  0  0
   -2.7261   -1.4236   -1.0259 H   0  0  0  0  0  0  0  0  0  0  0  0
   -5.2523   -1.0458   -0.4046 H   0  0  0  0  0  0  0  0  0  0  0  0
   -4.0989   -1.6342    0.8843 H   0  0  0  0  0  0  0  0  0  0  0  0
   -4.9467    0.1817    2.0290 H   0  0  0  0  0  0  0  0  0  0  0  0
   -5.2082    1.1977    0.5926 H   0  0  0  0  0  0  0  0  0  0  0  0
   -2.8354    0.9680    2.2422 H   0  0  0  0  0  0  0  0  0  0  0  0
   -3.0437    2.0371    0.8182 H   0  0  0  0  0  0  0  0  0  0  0  0
   -0.3343   -0.6163   -1.5118 H   0  0  0  0  0  0  0  0  0  0  0  0
   -0.5363   -1.9720   -0.3463 H   0  0  0  0  0  0  0  0  0  0  0  0
    1.7323   -1.7949    0.1721 H   0  0  0  0  0  0  0  0  0  0  0  0
    3.1355    0.6704    2.1929 H   0  0  0  0  0  0  0  0  0  0  0  0
    6.5171   -0.3425   -1.2474 H   0  0  0  0  0  0  0  0  0  0  0  0
  1  2  1  0
  2  3  2  0
  2  4  1  0
  4  5  1  0
  5  6  1  0
  6  7  1  0
  7  8  1  0
  8  9  1  0
  9 10  2  0
  9 11  1  0
 11 12  1  0
 12 13  1  0
 13 14  2  0
 13 15  1  0
 15 16  2  0
 16 17  1  0
 17 18  1  0
 17 19  2  0
 19 20  1  0
 19 21  1  0
 21 22  2  0
 22 23  1  0
  8  4  1  0
 22 15  1  0
  1 24  1  0
  4 25  1  6
  5 26  1  0
  5 27  1  0
  6 28  1  0
  6 29  1  0
  7 30  1  0
  7 31  1  0
 11 32  1  0
 11 33  1  0
 12 34  1  0
 16 35  1  0
 21 36  1  0
M  END
$$$$
[H]O[C@]([H])(C([H])([H])[H])[C@]([H])(c1c([H])c([H])c(-c2c([H])c([H])c(C#N)c([H])c2[H])c([H])c1[H])N([H])c1c([H])c([H])c(C(F)(F)F)c([H])c1[H]
     RDKit          3D

 48 50  0  0  0  0  0  0  0  0999 V2000
   -2.7267   -3.2452    0.5694 C   0  0  0  0  0  0  0  0  0  0  0  0
   -1.3404   -2.9366    0.1109 C   0  0  1  0  0  0  0  0  0  0  0  0
   -0.7478   -3.8943   -0.7005 O   0  0  0  0  0  0  0  0  0  0  0  0
   -1.1774   -1.5034   -0.4391 C   0  0  1  0  0  0  0  0  0  0  0  0
   -1.8740   -0.6634    0.4464 N   0  0  0  0  0  0  0  0  0  0  0  0
   -2.9352    0.2609    0.2051 C   0  0  0  0  0  0  0  0  0  0  0  0
   -3.7206    0.2429   -0.9008 C   0  0  0  0  0  0  0  0  0  0  0  0
   -4.8093    1.1225   -1.0386 C   0  0  0  0  0  0  0  0  0  0  0  0
   -5.1099    2.0451   -0.0526 C   0  0  0  0  0  0  0  0  0  0  0  0
   -4.3196    2.0704    1.0542 C   0  0  0  0  0  0  0  0  0  0  0  0
   -3.2638    1.2000    1.1795 C   0  0  0  0  0  0  0  0  0  0  0  0
   -6.3350    2.9041   -0.1480 C   0  0  0  0  0  0  0  0  0  0  0  0
   -6.4599    3.4920   -1.3817 F   0  0  0  0  0  0  0  0  0  0  0  0
   -6.2092    3.9061    0.8402 F   0  0  0  0  0  0  0  0  0  0  0  0
   -7.4582    2.1191    0.1901 F   0  0  0  0  0  0  0  0  0  0  0  0
    0.2925   -1.1617   -0.3360 C   0  0  0  0  0  0  0  0  0  0  0  0
    1.1851   -1.3354   -1.3515 C   0  0  0  0  0  0  0  0  0  0  0  0
    2.5158   -0.9344   -1.2953 C   0  0  0  0  0  0  0  0  0  0  0  0
    2.9679   -0.3303   -0.1708 C   0  0  0  0  0  0  0  0  0  0  0  0
    2.0956   -0.1386    0.8870 C   0  0  0  0  0  0  0  0  0  0  0  0
    0.7631   -0.5549    0.8111 C   0  0  0  0  0  0  0  0  0  0  0  0
    4.3400    0.2446   -0.0730 C   0  0  0  0  0  0  0  0  0  0  0  0
    5.4328   -0.2355   -0.7234 C   0  0  0  0  0  0  0  0  0  0  0  0
    6.6482    0.4072   -0.7022 C   0  0  0  0  0  0  0  0  0  0  0  0
    6.7702    1.6082    0.0249 C   0  0  0  0  0  0  0  0  0  0  0  0
    5.6581    2.0732    0.6638 C   0  0  0  0  0  0  0  0  0  0  0  0
    4.4510    1.4515    0.6492 C   0  0  0  0  0  0  0  0  0  0  0  0
    8.0224    2.3474    0.0266 C   0  0  0  0  0  0  0  0  0  0  0  0
    8.9821    2.9759    0.0355 N   0  0  0  0  0  0  0  0  0  0  0  0
   -3.2294   -3.9069   -0.1214 H   0  0  0  0  0  0  0  0  0  0  0  0
   -3.3687   -2.3214    0.6690 H   0  0  0  0  0  0  0  0  0  0  0  0
   -2.7584   -3.6600    1.6227 H   0  0  0  0  0  0  0  0  0  0  0  0
   -0.7042   -2.9107    1.0620 H   0  0  0  0  0  0  0  0  0  0  0  0
   -1.1180   -3.8526   -1.5762 H   0  0  0  0  0  0  0  0  0  0  0  0
   -1.5012   -1.4905   -1.4783 H   0  0  0  0  0  0  0  0  0  0  0  0
   -1.5568   -0.7524    1.4781 H   0  0  0  0  0  0  0  0  0  0  0  0
   -3.5106   -0.4380   -1.6903 H   0  0  0  0  0  0  0  0  0  0  0  0
   -5.4473    1.1060   -1.8934 H   0  0  0  0  0  0  0  0  0  0  0  0
   -4.5431    2.7714    1.8387 H   0  0  0  0  0  0  0  0  0  0  0  0
   -2.5887    1.2352    2.0682 H   0  0  0  0  0  0  0  0  0  0  0  0
    0.8392   -1.8393   -2.2777 H   0  0  0  0  0  0  0  0  0  0  0  0
    3.1770   -1.0944   -2.1180 H   0  0  0  0  0  0  0  0  0  0  0  0
    2.4111    0.3274    1.8429 H   0  0  0  0  0  0  0  0  0  0  0  0
    0.1554   -0.3577    1.6811 H   0  0  0  0  0  0  0  0  0  0  0  0
    5.3360   -1.1835   -1.2624 H   0  0  0  0  0  0  0  0  0  0  0  0
    7.4827    0.0143   -1.2276 H   0  0  0  0  0  0  0  0  0  0  0  0
    5.7371    2.9841    1.2344 H   0  0  0  0  0  0  0  0  0  0  0  0
    3.5496    1.8311    1.1803 H   0  0  0  0  0  0  0  0  0  0  0  0
  1  2  1  0
  2  3  1  0
  2  4  1  0
  4  5  1  0
  5  6  1  0
  6  7  2  0
  7  8  1  0
  8  9  2  0
  9 10  1  0
 10 11  2  0
  9 12  1  0
 12 13  1  0
 12 14  1  0
 12 15  1  0
  4 16  1  0
 16 17  2  0
 17 18  1  0
 18 19  2  0
 19 20  1  0
 20 21  2  0
 19 22  1  0
 22 23  2  0
 23 24  1  0
 24 25  2  0
 25 26  1  0
 26 27  2  0
 25 28  1  0
 28 29  3  0
 11  6  1  0
 21 16  1  0
 27 22  1  0
  1 30  1  0
  1 31  1  0
  1 32  1  0
  2 33  1  1
  3 34  1  0
  4 35  1  6
  5 36  1  0
  7 37  1  0
  8 38  1  0
 10 39  1  0
 11 40  1  0
 17 41  1  0
 18 42  1  0
 20 43  1  0
 21 44  1  0
 23 45  1  0
 24 46  1  0
 26 47  1  0
 27 48  1  0
M  END
$$$$
[H]c1nc2c(c([H])c1[H])c(=NC([H])([H])C([H])([H])C([H])([H])n1c(SC([H])([H])C([H])([H])C#N)nc3c([H])c([H])c([H])c([H])c3c1=O)n(C1([H])C([H])([H])C([H])([H])C([H])([H])C([H])([H])C1([H])[H])c(=O)n2C([H])([H])[H]
     RDKit          3D

 69 73  0  0  0  0  0  0  0  0999 V2000
   -4.9574    2.7108   -2.4741 C   0  0  0  0  0  0  0  0  0  0  0  0
   -3.9814    2.2127   -1.5081 N   0  0  0  0  0  0  0  0  0  0  0  0
   -3.0048    3.0158   -1.0611 C   0  0  0  0  0  0  0  0  0  0  0  0
   -2.9480    4.2745   -1.5191 N   0  0  0  0  0  0  0  0  0  0  0  0
   -1.9982    5.1258   -1.1127 C   0  0  0  0  0  0  0  0  0  0  0  0
   -1.0640    4.6791   -0.2001 C   0  0  0  0  0  0  0  0  0  0  0  0
   -1.1112    3.3933    0.2764 C   0  0  0  0  0  0  0  0  0  0  0  0
   -2.0933    2.5279   -0.1498 C   0  0  0  0  0  0  0  0  0  0  0  0
   -2.1300    1.2455    0.3335 C   0  0  0  0  0  0  0  0  0  0  0  0
   -1.3778    0.7408    1.1268 N   0  0  0  0  0  0  0  0  0  0  0  0
   -0.3834    0.5329    1.9921 C   0  0  0  0  0  0  0  0  0  0  0  0
    0.7952   -0.2877    1.4341 C   0  0  0  0  0  0  0  0  0  0  0  0
    1.4009    0.4235    0.2454 C   0  0  0  0  0  0  0  0  0  0  0  0
    2.5063   -0.3412   -0.2823 N   0  0  0  0  0  0  0  0  0  0  0  0
    3.7551   -0.1378    0.1771 C   0  0  0  0  0  0  0  0  0  0  0  0
    4.0844    1.0843    1.4543 S   0  0  0  0  0  0  0  0  0  0  0  0
    5.8475    1.0707    1.8054 C   0  0  0  0  0  0  0  0  0  0  0  0
    6.2255    2.0677    2.8702 C   0  0  0  0  0  0  0  0  0  0  0  0
    5.8397    3.3998    2.3785 C   0  0  0  0  0  0  0  0  0  0  0  0
    5.5168    4.4517    1.9869 N   0  0  0  0  0  0  0  0  0  0  0  0
    4.7446   -0.8793   -0.3516 N   0  0  0  0  0  0  0  0  0  0  0  0
    4.5844   -1.8017   -1.2972 C   0  0  0  0  0  0  0  0  0  0  0  0
    5.6175   -2.5414   -1.8152 C   0  0  0  0  0  0  0  0  0  0  0  0
    5.4478   -3.4950   -2.7936 C   0  0  0  0  0  0  0  0  0  0  0  0
    4.1662   -3.6987   -3.2602 C   0  0  0  0  0  0  0  0  0  0  0  0
    3.1012   -2.9731   -2.7627 C   0  0  0  0  0  0  0  0  0  0  0  0
    3.3196   -2.0265   -1.7812 C   0  0  0  0  0  0  0  0  0  0  0  0
    2.3002   -1.2640   -1.2378 C   0  0  0  0  0  0  0  0  0  0  0  0
    1.1336   -1.4868   -1.6996 O   0  0  0  0  0  0  0  0  0  0  0  0
   -3.1583    0.4609   -0.1615 N   0  0  0  0  0  0  0  0  0  0  0  0
   -3.2435   -0.8743    0.3089 C   0  0  0  0  0  0  0  0  0  0  0  0
   -3.7564   -1.8838   -0.6535 C   0  0  0  0  0  0  0  0  0  0  0  0
   -3.5608   -3.3136   -0.1457 C   0  0  0  0  0  0  0  0  0  0  0  0
   -3.3366   -3.3583    1.3412 C   0  0  0  0  0  0  0  0  0  0  0  0
   -4.3590   -2.4366    1.9121 C   0  0  0  0  0  0  0  0  0  0  0  0
   -3.8935   -1.0041    1.6645 C   0  0  0  0  0  0  0  0  0  0  0  0
   -4.0387    0.9488   -1.0484 C   0  0  0  0  0  0  0  0  0  0  0  0
   -5.0014    0.2771   -1.5367 O   0  0  0  0  0  0  0  0  0  0  0  0
   -5.1345    3.7937   -2.3084 H   0  0  0  0  0  0  0  0  0  0  0  0
   -5.8793    2.1167   -2.3285 H   0  0  0  0  0  0  0  0  0  0  0  0
   -4.5651    2.4839   -3.4791 H   0  0  0  0  0  0  0  0  0  0  0  0
   -1.9383    6.1478   -1.4737 H   0  0  0  0  0  0  0  0  0  0  0  0
   -0.2874    5.3775    0.1314 H   0  0  0  0  0  0  0  0  0  0  0  0
   -0.4066    3.0322    0.9725 H   0  0  0  0  0  0  0  0  0  0  0  0
    0.0601    1.3804    2.5965 H   0  0  0  0  0  0  0  0  0  0  0  0
   -0.7401   -0.1496    2.8356 H   0  0  0  0  0  0  0  0  0  0  0  0
    1.5582   -0.2932    2.2396 H   0  0  0  0  0  0  0  0  0  0  0  0
    0.5064   -1.3142    1.2035 H   0  0  0  0  0  0  0  0  0  0  0  0
    0.6367    0.5149   -0.5473 H   0  0  0  0  0  0  0  0  0  0  0  0
    1.7906    1.4172    0.5162 H   0  0  0  0  0  0  0  0  0  0  0  0
    6.2023    0.0732    2.1674 H   0  0  0  0  0  0  0  0  0  0  0  0
    6.3955    1.2964    0.8564 H   0  0  0  0  0  0  0  0  0  0  0  0
    7.3032    1.9992    3.0756 H   0  0  0  0  0  0  0  0  0  0  0  0
    5.6495    1.8218    3.7936 H   0  0  0  0  0  0  0  0  0  0  0  0
    6.6142   -2.3556   -1.4253 H   0  0  0  0  0  0  0  0  0  0  0  0
    6.2877   -4.0536   -3.1725 H   0  0  0  0  0  0  0  0  0  0  0  0
    3.9943   -4.4436   -4.0326 H   0  0  0  0  0  0  0  0  0  0  0  0
    2.0951   -3.1233   -3.1195 H   0  0  0  0  0  0  0  0  0  0  0  0
   -2.1583   -1.1953    0.4990 H   0  0  0  0  0  0  0  0  0  0  0  0
   -4.8825   -1.8191   -0.6587 H   0  0  0  0  0  0  0  0  0  0  0  0
   -3.2904   -1.8719   -1.6398 H   0  0  0  0  0  0  0  0  0  0  0  0
   -4.4213   -3.9708   -0.3718 H   0  0  0  0  0  0  0  0  0  0  0  0
   -2.6767   -3.7935   -0.6254 H   0  0  0  0  0  0  0  0  0  0  0  0
   -3.6012   -4.3995    1.6747 H   0  0  0  0  0  0  0  0  0  0  0  0
   -2.2958   -3.1024    1.6219 H   0  0  0  0  0  0  0  0  0  0  0  0
   -5.3190   -2.6086    1.4098 H   0  0  0  0  0  0  0  0  0  0  0  0
   -4.4785   -2.5863    2.9851 H   0  0  0  0  0  0  0  0  0  0  0  0
   -4.8202   -0.4102    1.6646 H   0  0  0  0  0  0  0  0  0  0  0  0
   -3.1874   -0.8038    2.4840 H   0  0  0  0  0  0  0  0  0  0  0  0
  1  2  1  0
  2  3  1  0
  3  4  2  0
  4  5  1  0
  5  6  2  0
  6  7  1  0
  7  8  2  0
  8  9  1  0
  9 10  2  3
 10 11  1  0
 11 12  1  0
 12 13  1  0
 13 14  1  0
 14 15  1  0
 15 16  1  0
 16 17  1  0
 17 18  1  0
 18 19  1  0
 19 20  3  0
 15 21  2  0
 21 22  1  0
 22 23  2  0
 23 24  1  0
 24 25  2  0
 25 26  1  0
 26 27  2  0
 27 28  1  0
 28 29  2  0
  9 30  1  0
 30 31  1  0
 31 32  1  0
 32 33  1  0
 33 34  1  0
 34 35  1  0
 35 36  1  0
 30 37  1  0
 37 38  2  0
 37  2  1  0
  8  3  1  0
 28 14  1  0
 36 31  1  0
 27 22  1  0
  1 39  1  0
  1 40  1  0
  1 41  1  0
  5 42  1  0
  6 43  1  0
  7 44  1  0
 11 45  1  0
 11 46  1  0
 12 47  1  0
 12 48  1  0
 13 49  1  0
 13 50  1  0
 17 51  1  0
 17 52  1  0
 18 53  1  0
 18 54  1  0
 23 55  1  0
 24 56  1  0
 25 57  1  0
 26 58  1  0
 31 59  1  0
 32 60  1  0
 32 61  1  0
 33 62  1  0
 33 63  1  0
 34 64  1  0
 34 65  1  0
 35 66  1  0
 35 67  1  0
 36 68  1  0
 36 69  1  0
M  END
$$$$
[H]ON([H])C(=O)C([H])([H])C([H])([H])C([H])([H])C([H])([H])C([H])([H])C([H])(c1c([H])c([H])c([H])c(F)c1[H])c1c([H])c([H])c([H])c(F)c1[H]
     RDKit          3D

 45 46  0  0  0  0  0  0  0  0999 V2000
    5.3822   -1.5027    2.1637 O   0  0  0  0  0  0  0  0  0  0  0  0
    4.7110   -1.1914    1.0343 N   0  0  0  0  0  0  0  0  0  0  0  0
    4.1071    0.1117    0.8745 C   0  0  0  0  0  0  0  0  0  0  0  0
    4.2177    0.9321    1.7902 O   0  0  0  0  0  0  0  0  0  0  0  0
    3.3750    0.4439   -0.3634 C   0  0  0  0  0  0  0  0  0  0  0  0
    2.7363    1.7779   -0.4059 C   0  0  0  0  0  0  0  0  0  0  0  0
    1.6938    2.0748    0.6011 C   0  0  0  0  0  0  0  0  0  0  0  0
    0.5090    1.1189    0.5356 C   0  0  0  0  0  0  0  0  0  0  0  0
   -0.1332    1.1936   -0.7965 C   0  0  0  0  0  0  0  0  0  0  0  0
   -1.3317    0.3626   -1.0461 C   0  0  0  0  0  0  0  0  0  0  0  0
   -1.0168   -1.0629   -0.8471 C   0  0  0  0  0  0  0  0  0  0  0  0
   -0.8288   -1.8606   -1.9508 C   0  0  0  0  0  0  0  0  0  0  0  0
   -0.5527   -3.2087   -1.8724 C   0  0  0  0  0  0  0  0  0  0  0  0
   -0.4570   -3.8009   -0.6392 C   0  0  0  0  0  0  0  0  0  0  0  0
   -0.6473   -2.9922    0.4635 C   0  0  0  0  0  0  0  0  0  0  0  0
   -0.5544   -3.5703    1.6899 F   0  0  0  0  0  0  0  0  0  0  0  0
   -0.9225   -1.6500    0.3962 C   0  0  0  0  0  0  0  0  0  0  0  0
   -2.5851    0.8027   -0.4387 C   0  0  0  0  0  0  0  0  0  0  0  0
   -2.6702    1.9191    0.3156 C   0  0  0  0  0  0  0  0  0  0  0  0
   -3.9129    2.2516    0.8679 C   0  0  0  0  0  0  0  0  0  0  0  0
   -5.0391    1.4844    0.6678 C   0  0  0  0  0  0  0  0  0  0  0  0
   -4.9363    0.3465   -0.1060 C   0  0  0  0  0  0  0  0  0  0  0  0
   -6.0454   -0.4132   -0.3061 F   0  0  0  0  0  0  0  0  0  0  0  0
   -3.7065    0.0295   -0.6443 C   0  0  0  0  0  0  0  0  0  0  0  0
    6.2311   -1.9217    1.9318 H   0  0  0  0  0  0  0  0  0  0  0  0
    4.6469   -1.9163    0.2946 H   0  0  0  0  0  0  0  0  0  0  0  0
    2.6842   -0.3811   -0.6644 H   0  0  0  0  0  0  0  0  0  0  0  0
    4.1533    0.4323   -1.1866 H   0  0  0  0  0  0  0  0  0  0  0  0
    2.4242    1.9668   -1.4552 H   0  0  0  0  0  0  0  0  0  0  0  0
    3.5648    2.5335   -0.2452 H   0  0  0  0  0  0  0  0  0  0  0  0
    1.2485    3.0897    0.3933 H   0  0  0  0  0  0  0  0  0  0  0  0
    2.1254    2.0885    1.6099 H   0  0  0  0  0  0  0  0  0  0  0  0
   -0.1292    1.3126    1.4017 H   0  0  0  0  0  0  0  0  0  0  0  0
    0.9689    0.0980    0.7159 H   0  0  0  0  0  0  0  0  0  0  0  0
    0.6503    0.8529   -1.5438 H   0  0  0  0  0  0  0  0  0  0  0  0
   -0.2807    2.2720   -1.0364 H   0  0  0  0  0  0  0  0  0  0  0  0
   -1.5248    0.4773   -2.1789 H   0  0  0  0  0  0  0  0  0  0  0  0
   -0.8909   -1.4509   -2.9721 H   0  0  0  0  0  0  0  0  0  0  0  0
   -0.4162   -3.7745   -2.8040 H   0  0  0  0  0  0  0  0  0  0  0  0
   -0.2400   -4.8614   -0.5683 H   0  0  0  0  0  0  0  0  0  0  0  0
   -1.0710   -1.0256    1.2686 H   0  0  0  0  0  0  0  0  0  0  0  0
   -1.8604    2.6003    0.5312 H   0  0  0  0  0  0  0  0  0  0  0  0
   -3.9935    3.1563    1.4828 H   0  0  0  0  0  0  0  0  0  0  0  0
   -6.0000    1.7407    1.0943 H   0  0  0  0  0  0  0  0  0  0  0  0
   -3.6831   -0.8858   -1.2508 H   0  0  0  0  0  0  0  0  0  0  0  0
  1  2  1  0
  2  3  1  0
  3  4  2  0
  3  5  1  0
  5  6  1  0
  6  7  1  0
  7  8  1  0
  8  9  1  0
  9 10  1  0
 10 11  1  0
 11 12  2  0
 12 13  1  0
 13 14  2  0
 14 15  1  0
 15 16  1  0
 15 17  2  0
 10 18  1  0
 18 19  2  0
 19 20  1  0
 20 21  2  0
 21 22  1  0
 22 23  1  0
 22 24  2  0
 17 11  1  0
 24 18  1  0
  1 25  1  0
  2 26  1  0
  5 27  1  0
  5 28  1  0
  6 29  1  0
  6 30  1  0
  7 31  1  0
  7 32  1  0
  8 33  1  0
  8 34  1  0
  9 35  1  0
  9 36  1  0
 10 37  1  0
 12 38  1  0
 13 39  1  0
 14 40  1  0
 17 41  1  0
 19 42  1  0
 20 43  1  0
 21 44  1  0
 24 45  1  0
M  END
$$$$
[H]c1c([H])c([H])c(C([H])([H])[C@@]([H])(C(=O)N([H])[C@@]([H])(C([H])([H])C([H])(C([H])([H])[H])C([H])([H])[H])C([H])(C([H])([H])[H])C([H])([H])[H])N([H])C(=O)c2c([H])c([H])c([H])c(C(F)(F)F)c2[H])c([H])c1[H]
     RDKit          3D

 63 64  0  0  0  0  0  0  0  0999 V2000
   -5.3482    1.4869    1.3946 C   0  0  0  0  0  0  0  0  0  0  0  0
   -3.9535    1.9822    1.3730 C   0  0  0  0  0  0  0  0  0  0  0  0
   -4.0027    3.4876    1.0430 C   0  0  0  0  0  0  0  0  0  0  0  0
   -3.0085    1.3886    0.4049 C   0  0  0  0  0  0  0  0  0  0  0  0
   -2.7256   -0.0768    0.4785 C   0  0  2  0  0  0  0  0  0  0  0  0
   -1.6966   -0.2907   -0.5846 N   0  0  0  0  0  0  0  0  0  0  0  0
   -0.3253   -0.4954   -0.2400 C   0  0  0  0  0  0  0  0  0  0  0  0
    0.0396   -0.5144    0.9401 O   0  0  0  0  0  0  0  0  0  0  0  0
    0.6089   -0.6717   -1.4079 C   0  0  2  0  0  0  0  0  0  0  0  0
    0.8475   -2.0932   -1.7508 C   0  0  0  0  0  0  0  0  0  0  0  0
    1.4253   -2.9324   -0.6707 C   0  0  0  0  0  0  0  0  0  0  0  0
    0.5752   -3.6105    0.2196 C   0  0  0  0  0  0  0  0  0  0  0  0
    1.0727   -4.4040    1.2152 C   0  0  0  0  0  0  0  0  0  0  0  0
    2.4334   -4.5394    1.3490 C   0  0  0  0  0  0  0  0  0  0  0  0
    3.3122   -3.8952    0.5037 C   0  0  0  0  0  0  0  0  0  0  0  0
    2.7787   -3.0889   -0.5110 C   0  0  0  0  0  0  0  0  0  0  0  0
    1.8222    0.0644   -1.1708 N   0  0  0  0  0  0  0  0  0  0  0  0
    1.9109    1.4672   -1.2383 C   0  0  0  0  0  0  0  0  0  0  0  0
    0.9251    2.2402   -1.4950 O   0  0  0  0  0  0  0  0  0  0  0  0
    3.2121    2.0728   -1.0064 C   0  0  0  0  0  0  0  0  0  0  0  0
    3.7142    2.9478   -1.9667 C   0  0  0  0  0  0  0  0  0  0  0  0
    4.9555    3.4767   -1.7648 C   0  0  0  0  0  0  0  0  0  0  0  0
    5.7153    3.1626   -0.6355 C   0  0  0  0  0  0  0  0  0  0  0  0
    5.1577    2.2874    0.2833 C   0  0  0  0  0  0  0  0  0  0  0  0
    3.9128    1.7349    0.1142 C   0  0  0  0  0  0  0  0  0  0  0  0
    5.9902    1.9391    1.4706 C   0  0  0  0  0  0  0  0  0  0  0  0
    6.3824    3.1138    2.0713 F   0  0  0  0  0  0  0  0  0  0  0  0
    7.0683    1.2069    0.9633 F   0  0  0  0  0  0  0  0  0  0  0  0
    5.2980    1.1492    2.3651 F   0  0  0  0  0  0  0  0  0  0  0  0
   -3.8367   -0.9948    0.0947 C   0  0  0  0  0  0  0  0  0  0  0  0
   -4.2863   -0.8142   -1.3535 C   0  0  0  0  0  0  0  0  0  0  0  0
   -3.3229   -2.4267    0.2196 C   0  0  0  0  0  0  0  0  0  0  0  0
   -5.7428    1.2797    0.3884 H   0  0  0  0  0  0  0  0  0  0  0  0
   -5.5501    0.6836    2.1479 H   0  0  0  0  0  0  0  0  0  0  0  0
   -5.9916    2.3539    1.7638 H   0  0  0  0  0  0  0  0  0  0  0  0
   -3.5457    1.9565    2.4310 H   0  0  0  0  0  0  0  0  0  0  0  0
   -3.1235    4.0216    1.4581 H   0  0  0  0  0  0  0  0  0  0  0  0
   -4.9688    3.9235    1.3775 H   0  0  0  0  0  0  0  0  0  0  0  0
   -3.9583    3.6170   -0.0545 H   0  0  0  0  0  0  0  0  0  0  0  0
   -3.3424    1.7013   -0.6100 H   0  0  0  0  0  0  0  0  0  0  0  0
   -2.0329    1.9374    0.5469 H   0  0  0  0  0  0  0  0  0  0  0  0
   -2.3300   -0.3477    1.4562 H   0  0  0  0  0  0  0  0  0  0  0  0
   -2.0662   -0.2692   -1.5610 H   0  0  0  0  0  0  0  0  0  0  0  0
    0.0785   -0.1710   -2.2701 H   0  0  0  0  0  0  0  0  0  0  0  0
    1.5016   -2.1612   -2.6636 H   0  0  0  0  0  0  0  0  0  0  0  0
   -0.1231   -2.5552   -2.0981 H   0  0  0  0  0  0  0  0  0  0  0  0
   -0.4753   -3.4698    0.0800 H   0  0  0  0  0  0  0  0  0  0  0  0
    0.4320   -4.9324    1.8941 H   0  0  0  0  0  0  0  0  0  0  0  0
    2.8399   -5.1796    2.1477 H   0  0  0  0  0  0  0  0  0  0  0  0
    4.3631   -4.0378    0.6543 H   0  0  0  0  0  0  0  0  0  0  0  0
    3.5052   -2.6166   -1.1780 H   0  0  0  0  0  0  0  0  0  0  0  0
    2.6961   -0.4747   -0.9501 H   0  0  0  0  0  0  0  0  0  0  0  0
    3.0841    3.1499   -2.8309 H   0  0  0  0  0  0  0  0  0  0  0  0
    5.3839    4.1632   -2.4818 H   0  0  0  0  0  0  0  0  0  0  0  0
    6.6928    3.5867   -0.5020 H   0  0  0  0  0  0  0  0  0  0  0  0
    3.5338    1.0542    0.8951 H   0  0  0  0  0  0  0  0  0  0  0  0
   -4.7373   -0.9672    0.7370 H   0  0  0  0  0  0  0  0  0  0  0  0
   -4.1310    0.2015   -1.7324 H   0  0  0  0  0  0  0  0  0  0  0  0
   -5.3359   -1.1535   -1.4519 H   0  0  0  0  0  0  0  0  0  0  0  0
   -3.6982   -1.4726   -2.0462 H   0  0  0  0  0  0  0  0  0  0  0  0
   -2.7190   -2.6366   -0.6755 H   0  0  0  0  0  0  0  0  0  0  0  0
   -4.1728   -3.1015    0.3490 H   0  0  0  0  0  0  0  0  0  0  0  0
   -2.7183   -2.4435    1.1661 H   0  0  0  0  0  0  0  0  0  0  0  0
  1  2  1  0
  2  3  1  0
  2  4  1  0
  4  5  1  0
  5  6  1  0
  6  7  1  0
  7  8  2  0
  7  9  1  0
  9 10  1  0
 10 11  1  0
 11 12  2  0
 12 13  1  0
 13 14  2  0
 14 15  1  0
 15 16  2  0
  9 17  1  0
 17 18  1  0
 18 19  2  0
 18 20  1  0
 20 21  2  0
 21 22  1  0
 22 23  2  0
 23 24  1  0
 24 25  2  0
 24 26  1  0
 26 27  1  0
 26 28  1  0
 26 29  1  0
  5 30  1  0
 30 31  1  0
 30 32  1  0
 16 11  1  0
 25 20  1  0
  1 33  1  0
  1 34  1  0
  1 35  1  0
  2 36  1  0
  3 37  1  0
  3 38  1  0
  3 39  1  0
  4 40  1  0
  4 41  1  0
  5 42  1  1
  6 43  1  0
  9 44  1  6
 10 45  1  0
 10 46  1  0
 12 47  1  0
 13 48  1  0
 14 49  1  0
 15 50  1  0
 16 51  1  0
 17 52  1  0
 21 53  1  0
 22 54  1  0
 23 55  1  0
 25 56  1  0
 30 57  1  0
 31 58  1  0
 31 59  1  0
 31 60  1  0
 32 61  1  0
 32 62  1  0
 32 63  1  0
M  END
$$$$
[H]c1c([H])c(C([H])(C([H])([H])[H])C([H])([H])[H])c([H])c([H])c1N([H])C(=O)N([H])C([H])([H])C(F)(F)F
     RDKit          3D

 33 33  0  0  0  0  0  0  0  0999 V2000
   -4.5092   -0.1305    1.4802 C   0  0  0  0  0  0  0  0  0  0  0  0
   -4.0689   -0.4077    0.0608 C   0  0  0  0  0  0  0  0  0  0  0  0
   -4.6184    0.6714   -0.8379 C   0  0  0  0  0  0  0  0  0  0  0  0
   -2.6037   -0.4093   -0.0674 C   0  0  0  0  0  0  0  0  0  0  0  0
   -1.9837   -1.5524   -0.5279 C   0  0  0  0  0  0  0  0  0  0  0  0
   -0.6263   -1.5615   -0.6491 C   0  0  0  0  0  0  0  0  0  0  0  0
    0.2142   -0.4761   -0.3360 C   0  0  0  0  0  0  0  0  0  0  0  0
    1.6017   -0.6196   -0.5330 N   0  0  0  0  0  0  0  0  0  0  0  0
    2.5864    0.1717    0.0676 C   0  0  0  0  0  0  0  0  0  0  0  0
    2.2954    1.0859    0.8613 O   0  0  0  0  0  0  0  0  0  0  0  0
    3.9596   -0.0592   -0.2237 N   0  0  0  0  0  0  0  0  0  0  0  0
    4.9547    0.7635    0.4028 C   0  0  0  0  0  0  0  0  0  0  0  0
    6.3586    0.3848   -0.0155 C   0  0  0  0  0  0  0  0  0  0  0  0
    6.6512   -0.9135    0.3134 F   0  0  0  0  0  0  0  0  0  0  0  0
    7.2824    1.1950    0.6145 F   0  0  0  0  0  0  0  0  0  0  0  0
    6.4862    0.6130   -1.3802 F   0  0  0  0  0  0  0  0  0  0  0  0
   -0.4171    0.6590    0.1220 C   0  0  0  0  0  0  0  0  0  0  0  0
   -1.8133    0.6760    0.2497 C   0  0  0  0  0  0  0  0  0  0  0  0
   -4.7130    0.9664    1.5683 H   0  0  0  0  0  0  0  0  0  0  0  0
   -5.4528   -0.6527    1.6741 H   0  0  0  0  0  0  0  0  0  0  0  0
   -3.7634   -0.4302    2.2343 H   0  0  0  0  0  0  0  0  0  0  0  0
   -4.4749   -1.3729   -0.2471 H   0  0  0  0  0  0  0  0  0  0  0  0
   -5.2680    1.3594   -0.2691 H   0  0  0  0  0  0  0  0  0  0  0  0
   -5.1394    0.2144   -1.7099 H   0  0  0  0  0  0  0  0  0  0  0  0
   -3.7966    1.2910   -1.2887 H   0  0  0  0  0  0  0  0  0  0  0  0
   -2.6066   -2.4176   -0.7817 H   0  0  0  0  0  0  0  0  0  0  0  0
   -0.1507   -2.4572   -1.0077 H   0  0  0  0  0  0  0  0  0  0  0  0
    1.8937   -1.3999   -1.2032 H   0  0  0  0  0  0  0  0  0  0  0  0
    4.2223   -0.8122   -0.8790 H   0  0  0  0  0  0  0  0  0  0  0  0
    4.8761    0.6808    1.5211 H   0  0  0  0  0  0  0  0  0  0  0  0
    4.7483    1.8177    0.1311 H   0  0  0  0  0  0  0  0  0  0  0  0
    0.1301    1.5426    0.3735 H   0  0  0  0  0  0  0  0  0  0  0  0
   -2.2547    1.5800    0.6096 H   0  0  0  0  0  0  0  0  0  0  0  0
  1  2  1  0
  2  3  1  0
  2  4  1  0
  4  5  2  0
  5  6  1  0
  6  7  2  0
  7  8  1  0
  8  9  1  0
  9 10  2  0
  9 11  1  0
 11 12  1  0
 12 13  1  0
 13 14  1  0
 13 15  1  0
 13 16  1  0
  7 17  1  0
 17 18  2  0
 18  4  1  0
  1 19  1  0
  1 20  1  0
  1 21  1  0
  2 22  1  0
  3 23  1  0
  3 24  1  0
  3 25  1  0
  5 26  1  0
  6 27  1  0
  8 28  1  0
 11 29  1  0
 12 30  1  0
 12 31  1  0
 17 32  1  0
 18 33  1  0
M  END
$$$$
[H]c1c([H])c([N+](=O)[O-])c([H])c([H])c1-c1c([H])c([H])c(S(=O)(=O)N2C([H])([H])C([H])([H])C([H])([H])C2([H])[H])c([H])c1[H]
     RDKit          3D

 39 41  0  0  0  0  0  0  0  0999 V2000
    8.0642    0.1875    1.1660 O   0  0  0  0  0  0  0  0  0  0  0  0
    7.0982    1.1641    1.1741 N   0  0  0  0  0  0  0  0  0  0  0  0
    7.3611    2.3427    1.4832 O   0  0  0  0  0  0  0  0  0  0  0  0
    5.7652    0.8316    0.8230 C   0  0  0  0  0  0  0  0  0  0  0  0
    5.4185   -0.4605    0.4714 C   0  0  0  0  0  0  0  0  0  0  0  0
    4.1285   -0.7585    0.1365 C   0  0  0  0  0  0  0  0  0  0  0  0
    3.1124    0.1792    0.1257 C   0  0  0  0  0  0  0  0  0  0  0  0
    3.4586    1.4688    0.4767 C   0  0  0  0  0  0  0  0  0  0  0  0
    4.7686    1.7913    0.8212 C   0  0  0  0  0  0  0  0  0  0  0  0
    1.7308   -0.1531   -0.2361 C   0  0  0  0  0  0  0  0  0  0  0  0
    1.2009   -1.4050    0.0376 C   0  0  0  0  0  0  0  0  0  0  0  0
   -0.1008   -1.6901   -0.3142 C   0  0  0  0  0  0  0  0  0  0  0  0
   -0.9254   -0.7710   -0.9407 C   0  0  0  0  0  0  0  0  0  0  0  0
   -0.3818    0.4657   -1.2040 C   0  0  0  0  0  0  0  0  0  0  0  0
    0.9168    0.7739   -0.8618 C   0  0  0  0  0  0  0  0  0  0  0  0
   -2.5808   -1.1921   -1.3656 S   0  0  0  0  0  0  0  0  0  0  0  0
   -2.6196   -2.6870   -1.5192 O   0  0  0  0  0  0  0  0  0  0  0  0
   -2.9974   -0.5543   -2.6400 O   0  0  0  0  0  0  0  0  0  0  0  0
   -3.6282   -0.7823   -0.0577 N   0  0  0  0  0  0  0  0  0  0  0  0
   -3.6214    0.6190    0.2333 C   0  0  0  0  0  0  0  0  0  0  0  0
   -5.0766    0.9885    0.5253 C   0  0  0  0  0  0  0  0  0  0  0  0
   -5.8164   -0.3393    0.5487 C   0  0  0  0  0  0  0  0  0  0  0  0
   -4.9713   -1.1838   -0.3708 C   0  0  0  0  0  0  0  0  0  0  0  0
    6.2230   -1.1834    0.4844 H   0  0  0  0  0  0  0  0  0  0  0  0
    3.8638   -1.7831   -0.1406 H   0  0  0  0  0  0  0  0  0  0  0  0
    2.6998    2.2192    0.4796 H   0  0  0  0  0  0  0  0  0  0  0  0
    5.0662    2.7964    1.1005 H   0  0  0  0  0  0  0  0  0  0  0  0
    1.7910   -2.1607    0.5218 H   0  0  0  0  0  0  0  0  0  0  0  0
   -0.5305   -2.6704   -0.1050 H   0  0  0  0  0  0  0  0  0  0  0  0
   -0.9908    1.2057   -1.6892 H   0  0  0  0  0  0  0  0  0  0  0  0
    1.3607    1.7446   -1.0623 H   0  0  0  0  0  0  0  0  0  0  0  0
   -3.3195    1.2000   -0.6702 H   0  0  0  0  0  0  0  0  0  0  0  0
   -2.9496    0.8598    1.0626 H   0  0  0  0  0  0  0  0  0  0  0  0
   -5.0830    1.4694    1.5249 H   0  0  0  0  0  0  0  0  0  0  0  0
   -5.4856    1.6679   -0.2517 H   0  0  0  0  0  0  0  0  0  0  0  0
   -6.8493   -0.2143    0.1901 H   0  0  0  0  0  0  0  0  0  0  0  0
   -5.7566   -0.7353    1.5637 H   0  0  0  0  0  0  0  0  0  0  0  0
   -5.0688   -2.2765   -0.1342 H   0  0  0  0  0  0  0  0  0  0  0  0
   -5.2750   -0.9749   -1.4126 H   0  0  0  0  0  0  0  0  0  0  0  0
  1  2  1  0
  2  3  2  0
  2  4  1  0
  4  5  2  0
  5  6  1  0
  6  7  2  0
  7  8  1  0
  8  9  2  0
  7 10  1  0
 10 11  2  0
 11 12  1  0
 12 13  2  0
 13 14  1  0
 14 15  2  0
 13 16  1  0
 16 17  2  0
 16 18  2  0
 16 19  1  0
 19 20  1  0
 20 21  1  0
 21 22  1  0
 22 23  1  0
  9  4  1  0
 15 10  1  0
 23 19  1  0
  5 24  1  0
  6 25  1  0
  8 26  1  0
  9 27  1  0
 11 28  1  0
 12 29  1  0
 14 30  1  0
 15 31  1  0
 20 32  1  0
 20 33  1  0
 21 34  1  0
 21 35  1  0
 22 36  1  0
 22 37  1  0
 23 38  1  0
 23 39  1  0
M  CHG  2   1  -1   2   1
M  END
$$$$
[H]OC(=O)C1([H])N(C(=O)[C@@]2([H])N(C(=O)[C@@]3([H])N(C(=O)[C@@]([H])(N([H])[H])C([H])([H])c4c([H])n([H])c5c([H])c([H])c([H])c([H])c45)C([H])([H])C([H])([H])C3([H])[H])C([H])([H])C([H])([H])C2([H])[H])C([H])([H])C([H])([H])C1([H])[H]
     RDKit          3D

 69 73  0  0  0  0  0  0  0  0999 V2000
    3.8158    0.1063   -1.5237 N   0  0  0  0  0  0  0  0  0  0  0  0
    3.1986    0.2730   -0.2563 C   0  0  1  0  0  0  0  0  0  0  0  0
    3.6565    1.5204    0.4738 C   0  0  0  0  0  0  0  0  0  0  0  0
    5.0963    1.5007    0.7145 C   0  0  0  0  0  0  0  0  0  0  0  0
    6.0603    2.2058    0.0393 C   0  0  0  0  0  0  0  0  0  0  0  0
    7.2844    1.9204    0.5557 N   0  0  0  0  0  0  0  0  0  0  0  0
    7.1119    1.0345    1.5603 C   0  0  0  0  0  0  0  0  0  0  0  0
    8.0358    0.4401    2.3900 C   0  0  0  0  0  0  0  0  0  0  0  0
    7.5661   -0.4403    3.3425 C   0  0  0  0  0  0  0  0  0  0  0  0
    6.2272   -0.7420    3.4919 C   0  0  0  0  0  0  0  0  0  0  0  0
    5.3232   -0.1326    2.6478 C   0  0  0  0  0  0  0  0  0  0  0  0
    5.7499    0.7610    1.6736 C   0  0  0  0  0  0  0  0  0  0  0  0
    1.7470    0.1535   -0.3216 C   0  0  0  0  0  0  0  0  0  0  0  0
    1.1538    0.1839    0.8202 O   0  0  0  0  0  0  0  0  0  0  0  0
    0.9662    0.0105   -1.4997 N   0  0  0  0  0  0  0  0  0  0  0  0
    1.3950   -0.0181   -2.8603 C   0  0  0  0  0  0  0  0  0  0  0  0
    0.1256    0.1618   -3.6958 C   0  0  0  0  0  0  0  0  0  0  0  0
   -0.8821    0.7220   -2.6717 C   0  0  0  0  0  0  0  0  0  0  0  0
   -0.4730   -0.1618   -1.4842 C   0  0  1  0  0  0  0  0  0  0  0  0
   -0.8936   -1.5392   -1.6627 C   0  0  0  0  0  0  0  0  0  0  0  0
   -0.1045   -2.4132   -2.0564 O   0  0  0  0  0  0  0  0  0  0  0  0
   -2.2427   -1.9052   -1.3803 N   0  0  0  0  0  0  0  0  0  0  0  0
   -2.8241   -3.2408   -1.5450 C   0  0  0  0  0  0  0  0  0  0  0  0
   -4.2202   -2.9326   -2.0166 C   0  0  0  0  0  0  0  0  0  0  0  0
   -4.5173   -1.5261   -1.6198 C   0  0  0  0  0  0  0  0  0  0  0  0
   -3.3010   -1.0656   -0.8604 C   0  0  1  0  0  0  0  0  0  0  0  0
   -3.5649   -1.2846    0.5879 C   0  0  0  0  0  0  0  0  0  0  0  0
   -3.0997   -2.2656    1.2285 O   0  0  0  0  0  0  0  0  0  0  0  0
   -4.3726   -0.3551    1.2903 N   0  0  0  0  0  0  0  0  0  0  0  0
   -4.7683   -0.4252    2.6906 C   0  0  0  0  0  0  0  0  0  0  0  0
   -5.9430    0.4811    2.8553 C   0  0  0  0  0  0  0  0  0  0  0  0
   -6.2208    1.0629    1.5111 C   0  0  0  0  0  0  0  0  0  0  0  0
   -4.9261    0.8600    0.7255 C   0  0  0  0  0  0  0  0  0  0  0  0
   -4.0446    2.0141    0.9668 C   0  0  0  0  0  0  0  0  0  0  0  0
   -4.3959    3.2691    0.5214 O   0  0  0  0  0  0  0  0  0  0  0  0
   -2.9659    1.8636    1.5803 O   0  0  0  0  0  0  0  0  0  0  0  0
    4.3513   -0.7798   -1.6318 H   0  0  0  0  0  0  0  0  0  0  0  0
    4.2974    0.9356   -1.8945 H   0  0  0  0  0  0  0  0  0  0  0  0
    3.5620   -0.5785    0.3948 H   0  0  0  0  0  0  0  0  0  0  0  0
    3.1474    1.5163    1.4611 H   0  0  0  0  0  0  0  0  0  0  0  0
    3.2940    2.4344   -0.0512 H   0  0  0  0  0  0  0  0  0  0  0  0
    5.8731    2.8819   -0.7757 H   0  0  0  0  0  0  0  0  0  0  0  0
    8.1983    2.3023    0.2490 H   0  0  0  0  0  0  0  0  0  0  0  0
    9.1126    0.6566    2.2994 H   0  0  0  0  0  0  0  0  0  0  0  0
    8.3031   -0.9048    3.9930 H   0  0  0  0  0  0  0  0  0  0  0  0
    5.9099   -1.4473    4.2637 H   0  0  0  0  0  0  0  0  0  0  0  0
    4.2567   -0.3318    2.7196 H   0  0  0  0  0  0  0  0  0  0  0  0
    1.8731   -0.9459   -3.1910 H   0  0  0  0  0  0  0  0  0  0  0  0
    2.0510    0.8784   -3.1130 H   0  0  0  0  0  0  0  0  0  0  0  0
   -0.2652   -0.8075   -4.0639 H   0  0  0  0  0  0  0  0  0  0  0  0
    0.2572    0.8279   -4.5461 H   0  0  0  0  0  0  0  0  0  0  0  0
   -1.9078    0.5098   -3.0215 H   0  0  0  0  0  0  0  0  0  0  0  0
   -0.6327    1.7687   -2.5158 H   0  0  0  0  0  0  0  0  0  0  0  0
   -0.9398    0.3061   -0.5950 H   0  0  0  0  0  0  0  0  0  0  0  0
   -2.8918   -3.8061   -0.6023 H   0  0  0  0  0  0  0  0  0  0  0  0
   -2.2461   -3.8176   -2.3056 H   0  0  0  0  0  0  0  0  0  0  0  0
   -4.2498   -2.9935   -3.1403 H   0  0  0  0  0  0  0  0  0  0  0  0
   -4.9661   -3.6214   -1.5613 H   0  0  0  0  0  0  0  0  0  0  0  0
   -4.6069   -0.8518   -2.5191 H   0  0  0  0  0  0  0  0  0  0  0  0
   -5.4679   -1.4339   -1.0479 H   0  0  0  0  0  0  0  0  0  0  0  0
   -3.0886    0.0141   -1.0555 H   0  0  0  0  0  0  0  0  0  0  0  0
   -5.0666   -1.4595    2.9724 H   0  0  0  0  0  0  0  0  0  0  0  0
   -3.9090   -0.1287    3.3424 H   0  0  0  0  0  0  0  0  0  0  0  0
   -6.8467   -0.1210    3.1627 H   0  0  0  0  0  0  0  0  0  0  0  0
   -5.7467    1.2786    3.6251 H   0  0  0  0  0  0  0  0  0  0  0  0
   -7.0596    0.6110    0.9776 H   0  0  0  0  0  0  0  0  0  0  0  0
   -6.4076    2.1427    1.6027 H   0  0  0  0  0  0  0  0  0  0  0  0
   -5.0844    0.7648   -0.3557 H   0  0  0  0  0  0  0  0  0  0  0  0
   -3.8568    4.1029    0.7110 H   0  0  0  0  0  0  0  0  0  0  0  0
  1  2  1  0
  2  3  1  0
  3  4  1  0
  4  5  2  0
  5  6  1  0
  6  7  1  0
  7  8  2  0
  8  9  1  0
  9 10  2  0
 10 11  1  0
 11 12  2  0
  2 13  1  0
 13 14  2  0
 13 15  1  0
 15 16  1  0
 16 17  1  0
 17 18  1  0
 18 19  1  0
 19 20  1  0
 20 21  2  0
 20 22  1  0
 22 23  1  0
 23 24  1  0
 24 25  1  0
 25 26  1  0
 26 27  1  0
 27 28  2  0
 27 29  1  0
 29 30  1  0
 30 31  1  0
 31 32  1  0
 32 33  1  0
 33 34  1  0
 34 35  1  0
 34 36  2  0
 12  4  1  0
 19 15  1  0
 26 22  1  0
 33 29  1  0
 12  7  1  0
  1 37  1  0
  1 38  1  0
  2 39  1  1
  3 40  1  0
  3 41  1  0
  5 42  1  0
  6 43  1  0
  8 44  1  0
  9 45  1  0
 10 46  1  0
 11 47  1  0
 16 48  1  0
 16 49  1  0
 17 50  1  0
 17 51  1  0
 18 52  1  0
 18 53  1  0
 19 54  1  1
 23 55  1  0
 23 56  1  0
 24 57  1  0
 24 58  1  0
 25 59  1  0
 25 60  1  0
 26 61  1  1
 30 62  1  0
 30 63  1  0
 31 64  1  0
 31 65  1  0
 32 66  1  0
 32 67  1  0
 33 68  1  0
 35 69  1  0
M  END
$$$$
[H]N1C(=O)[C@]([H])([C@@]([H])(C([H])([H])[H])C([H])([H])C([H])([H])[H])N([H])C(=O)[C@]([H])([C@]([H])(C([H])([H])[H])C([H])([H])C([H])([H])[H])N([H])C(=O)[C@]([H])([C@]([H])(C([H])([H])[H])C([H])([H])C([H])([H])[H])N([H])C(=O)[C@]([H])([C@@]([H])(C([H])([H])[H])C([H])([H])C([H])([H])[H])N([H])C(=O)[C@]([H])([C@@]([H])(C([H])([H])[H])C([H])([H])C([H])([H])[H])N([H])C(=O)[C@]1([H])[C@@]([H])(C([H])([H])[H])C([H])([H])C([H])([H])[H]
     RDKit          3D

114114  0  0  0  0  0  0  0  0999 V2000
    4.4588   -3.5951    3.2465 C   0  0  0  0  0  0  0  0  0  0  0  0
    3.9139   -3.4158    1.8490 C   0  0  0  0  0  0  0  0  0  0  0  0
    2.8089   -2.3761    1.8296 C   0  0  2  0  0  0  0  0  0  0  0  0
    1.6922   -2.7895    2.7155 C   0  0  0  0  0  0  0  0  0  0  0  0
    2.4195   -2.1439    0.3790 C   0  0  1  0  0  0  0  0  0  0  0  0
    1.9334   -3.3877   -0.2627 C   0  0  0  0  0  0  0  0  0  0  0  0
    2.8135   -4.0775   -0.9019 O   0  0  0  0  0  0  0  0  0  0  0  0
    0.6449   -3.9096   -0.2634 N   0  0  0  0  0  0  0  0  0  0  0  0
   -0.6109   -3.2660   -0.5710 C   0  0  1  0  0  0  0  0  0  0  0  0
   -1.2135   -3.9520   -1.7780 C   0  0  2  0  0  0  0  0  0  0  0  0
   -1.4878   -5.4048   -1.6002 C   0  0  0  0  0  0  0  0  0  0  0  0
   -0.3370   -3.6716   -2.9714 C   0  0  0  0  0  0  0  0  0  0  0  0
   -0.8732   -4.3255   -4.2290 C   0  0  0  0  0  0  0  0  0  0  0  0
   -1.5008   -3.3638    0.6142 C   0  0  0  0  0  0  0  0  0  0  0  0
   -1.6932   -4.5645    1.0221 O   0  0  0  0  0  0  0  0  0  0  0  0
   -2.1200   -2.3291    1.2986 N   0  0  0  0  0  0  0  0  0  0  0  0
   -2.8648   -1.2076    0.7350 C   0  0  1  0  0  0  0  0  0  0  0  0
   -4.2430   -1.7790    0.4536 C   0  0  2  0  0  0  0  0  0  0  0  0
   -5.2055   -0.8014   -0.1317 C   0  0  0  0  0  0  0  0  0  0  0  0
   -4.8856   -2.4007    1.6711 C   0  0  0  0  0  0  0  0  0  0  0  0
   -6.2496   -2.9281    1.2029 C   0  0  0  0  0  0  0  0  0  0  0  0
   -2.9151   -0.1037    1.7098 C   0  0  0  0  0  0  0  0  0  0  0  0
   -2.9919   -0.4779    2.9415 O   0  0  0  0  0  0  0  0  0  0  0  0
   -2.8890    1.2830    1.4576 N   0  0  0  0  0  0  0  0  0  0  0  0
   -1.8831    2.0454    0.7704 C   0  0  1  0  0  0  0  0  0  0  0  0
   -2.2735    2.8557   -0.3882 C   0  0  1  0  0  0  0  0  0  0  0  0
   -2.8621    1.9601   -1.5070 C   0  0  0  0  0  0  0  0  0  0  0  0
   -3.1305    4.0499   -0.2051 C   0  0  0  0  0  0  0  0  0  0  0  0
   -4.5050    3.8229    0.3529 C   0  0  0  0  0  0  0  0  0  0  0  0
   -1.1964    2.9147    1.7881 C   0  0  0  0  0  0  0  0  0  0  0  0
   -2.0121    3.5278    2.5657 O   0  0  0  0  0  0  0  0  0  0  0  0
    0.1741    3.0887    1.9376 N   0  0  0  0  0  0  0  0  0  0  0  0
    1.1933    3.3024    0.9572 C   0  0  1  0  0  0  0  0  0  0  0  0
    1.5465    4.7971    0.8568 C   0  0  1  0  0  0  0  0  0  0  0  0
    2.6267    5.0564   -0.1646 C   0  0  0  0  0  0  0  0  0  0  0  0
    0.3649    5.6344    0.4959 C   0  0  0  0  0  0  0  0  0  0  0  0
    0.8060    7.0803    0.4174 C   0  0  0  0  0  0  0  0  0  0  0  0
    2.4078    2.5536    1.4121 C   0  0  0  0  0  0  0  0  0  0  0  0
    2.7674    2.8424    2.6079 O   0  0  0  0  0  0  0  0  0  0  0  0
    3.1254    1.6169    0.6528 N   0  0  0  0  0  0  0  0  0  0  0  0
    2.7944    1.0763   -0.6347 C   0  0  1  0  0  0  0  0  0  0  0  0
    4.0378    0.5938   -1.3769 C   0  0  1  0  0  0  0  0  0  0  0  0
    3.6104    0.0391   -2.6965 C   0  0  0  0  0  0  0  0  0  0  0  0
    4.8547    1.8594   -1.6925 C   0  0  0  0  0  0  0  0  0  0  0  0
    6.1299    1.5307   -2.4339 C   0  0  0  0  0  0  0  0  0  0  0  0
    1.6942    0.0944   -0.6397 C   0  0  0  0  0  0  0  0  0  0  0  0
    0.7706    0.2722   -1.5252 O   0  0  0  0  0  0  0  0  0  0  0  0
    1.5355   -1.0121    0.2095 N   0  0  0  0  0  0  0  0  0  0  0  0
    5.5048   -4.0008    3.2095 H   0  0  0  0  0  0  0  0  0  0  0  0
    4.4488   -2.6720    3.8354 H   0  0  0  0  0  0  0  0  0  0  0  0
    3.8550   -4.3364    3.8092 H   0  0  0  0  0  0  0  0  0  0  0  0
    4.7656   -3.0838    1.2104 H   0  0  0  0  0  0  0  0  0  0  0  0
    3.4795   -4.3633    1.5195 H   0  0  0  0  0  0  0  0  0  0  0  0
    3.2568   -1.4492    2.2415 H   0  0  0  0  0  0  0  0  0  0  0  0
    2.1291   -3.0715    3.6942 H   0  0  0  0  0  0  0  0  0  0  0  0
    0.9855   -1.9497    2.9266 H   0  0  0  0  0  0  0  0  0  0  0  0
    1.1395   -3.6828    2.3573 H   0  0  0  0  0  0  0  0  0  0  0  0
    3.3820   -1.8583   -0.1043 H   0  0  0  0  0  0  0  0  0  0  0  0
    0.5258   -4.9400    0.0007 H   0  0  0  0  0  0  0  0  0  0  0  0
   -0.5283   -2.2032   -0.8517 H   0  0  0  0  0  0  0  0  0  0  0  0
   -2.2160   -3.4775   -2.0167 H   0  0  0  0  0  0  0  0  0  0  0  0
   -0.6750   -6.0152   -1.2098 H   0  0  0  0  0  0  0  0  0  0  0  0
   -2.4597   -5.5562   -1.0825 H   0  0  0  0  0  0  0  0  0  0  0  0
   -1.6791   -5.8106   -2.6410 H   0  0  0  0  0  0  0  0  0  0  0  0
   -0.2767   -2.5847   -3.1780 H   0  0  0  0  0  0  0  0  0  0  0  0
    0.7009   -4.0355   -2.8576 H   0  0  0  0  0  0  0  0  0  0  0  0
   -1.9904   -4.2154   -4.2837 H   0  0  0  0  0  0  0  0  0  0  0  0
   -0.5957   -5.3773   -4.3298 H   0  0  0  0  0  0  0  0  0  0  0  0
   -0.4654   -3.7642   -5.0909 H   0  0  0  0  0  0  0  0  0  0  0  0
   -2.0665   -2.3233    2.3645 H   0  0  0  0  0  0  0  0  0  0  0  0
   -2.4179   -0.9001   -0.2348 H   0  0  0  0  0  0  0  0  0  0  0  0
   -4.1461   -2.6153   -0.3085 H   0  0  0  0  0  0  0  0  0  0  0  0
   -4.9952   -0.7159   -1.2327 H   0  0  0  0  0  0  0  0  0  0  0  0
   -4.9984    0.2374    0.2615 H   0  0  0  0  0  0  0  0  0  0  0  0
   -6.2529   -1.0048    0.0877 H   0  0  0  0  0  0  0  0  0  0  0  0
   -4.3406   -3.2673    2.0669 H   0  0  0  0  0  0  0  0  0  0  0  0
   -5.0651   -1.5962    2.4239 H   0  0  0  0  0  0  0  0  0  0  0  0
   -6.4838   -3.8822    1.7239 H   0  0  0  0  0  0  0  0  0  0  0  0
   -7.0514   -2.2128    1.5257 H   0  0  0  0  0  0  0  0  0  0  0  0
   -6.2373   -3.1183    0.1306 H   0  0  0  0  0  0  0  0  0  0  0  0
   -3.7096    1.8325    1.8446 H   0  0  0  0  0  0  0  0  0  0  0  0
   -1.0782    1.3192    0.3674 H   0  0  0  0  0  0  0  0  0  0  0  0
   -1.3224    3.2336   -0.8779 H   0  0  0  0  0  0  0  0  0  0  0  0
   -2.2586    1.0527   -1.5899 H   0  0  0  0  0  0  0  0  0  0  0  0
   -2.7660    2.4938   -2.4845 H   0  0  0  0  0  0  0  0  0  0  0  0
   -3.9223    1.7709   -1.3661 H   0  0  0  0  0  0  0  0  0  0  0  0
   -2.6673    4.8406    0.4272 H   0  0  0  0  0  0  0  0  0  0  0  0
   -3.2874    4.5800   -1.1965 H   0  0  0  0  0  0  0  0  0  0  0  0
   -5.2224    4.5966   -0.0828 H   0  0  0  0  0  0  0  0  0  0  0  0
   -4.5812    4.0010    1.4406 H   0  0  0  0  0  0  0  0  0  0  0  0
   -4.9195    2.8076    0.0777 H   0  0  0  0  0  0  0  0  0  0  0  0
    0.5324    3.0653    2.9523 H   0  0  0  0  0  0  0  0  0  0  0  0
    0.8647    2.9909   -0.0301 H   0  0  0  0  0  0  0  0  0  0  0  0
    1.9642    5.0784    1.8385 H   0  0  0  0  0  0  0  0  0  0  0  0
    2.1057    5.2427   -1.1448 H   0  0  0  0  0  0  0  0  0  0  0  0
    3.2588    5.9251    0.1283 H   0  0  0  0  0  0  0  0  0  0  0  0
    3.2300    4.1405   -0.3082 H   0  0  0  0  0  0  0  0  0  0  0  0
   -0.0049    5.3299   -0.4952 H   0  0  0  0  0  0  0  0  0  0  0  0
   -0.4025    5.5329    1.2892 H   0  0  0  0  0  0  0  0  0  0  0  0
    1.7391    7.2397   -0.1337 H   0  0  0  0  0  0  0  0  0  0  0  0
    0.0059    7.6392   -0.1202 H   0  0  0  0  0  0  0  0  0  0  0  0
    0.8689    7.4746    1.4529 H   0  0  0  0  0  0  0  0  0  0  0  0
    4.0303    1.2619    1.0861 H   0  0  0  0  0  0  0  0  0  0  0  0
    2.4854    1.9811   -1.2464 H   0  0  0  0  0  0  0  0  0  0  0  0
    4.7021   -0.0253   -0.7866 H   0  0  0  0  0  0  0  0  0  0  0  0
    4.4321   -0.5971   -3.1420 H   0  0  0  0  0  0  0  0  0  0  0  0
    3.2864    0.8174   -3.4133 H   0  0  0  0  0  0  0  0  0  0  0  0
    2.7557   -0.6820   -2.6076 H   0  0  0  0  0  0  0  0  0  0  0  0
    4.2553    2.5755   -2.2832 H   0  0  0  0  0  0  0  0  0  0  0  0
    5.1477    2.3643   -0.7381 H   0  0  0  0  0  0  0  0  0  0  0  0
    6.0989    0.5531   -2.9540 H   0  0  0  0  0  0  0  0  0  0  0  0
    6.3155    2.3441   -3.1627 H   0  0  0  0  0  0  0  0  0  0  0  0
    6.9896    1.5019   -1.7049 H   0  0  0  0  0  0  0  0  0  0  0  0
    0.6606   -1.0509    0.8204 H   0  0  0  0  0  0  0  0  0  0  0  0
  1  2  1  0
  2  3  1  0
  3  4  1  0
  3  5  1  0
  5  6  1  0
  6  7  2  0
  6  8  1  0
  8  9  1  0
  9 10  1  0
 10 11  1  0
 10 12  1  0
 12 13  1  0
  9 14  1  0
 14 15  2  0
 14 16  1  0
 16 17  1  0
 17 18  1  0
 18 19  1  0
 18 20  1  0
 20 21  1  0
 17 22  1  0
 22 23  2  0
 22 24  1  0
 24 25  1  0
 25 26  1  0
 26 27  1  0
 26 28  1  0
 28 29  1  0
 25 30  1  0
 30 31  2  0
 30 32  1  0
 32 33  1  0
 33 34  1  0
 34 35  1  0
 34 36  1  0
 36 37  1  0
 33 38  1  0
 38 39  2  0
 38 40  1  0
 40 41  1  0
 41 42  1  0
 42 43  1  0
 42 44  1  0
 44 45  1  0
 41 46  1  0
 46 47  2  0
 46 48  1  0
 48  5  1  0
  1 49  1  0
  1 50  1  0
  1 51  1  0
  2 52  1  0
  2 53  1  0
  3 54  1  1
  4 55  1  0
  4 56  1  0
  4 57  1  0
  5 58  1  6
  8 59  1  0
  9 60  1  6
 10 61  1  6
 11 62  1  0
 11 63  1  0
 11 64  1  0
 12 65  1  0
 12 66  1  0
 13 67  1  0
 13 68  1  0
 13 69  1  0
 16 70  1  0
 17 71  1  6
 18 72  1  6
 19 73  1  0
 19 74  1  0
 19 75  1  0
 20 76  1  0
 20 77  1  0
 21 78  1  0
 21 79  1  0
 21 80  1  0
 24 81  1  0
 25 82  1  6
 26 83  1  6
 27 84  1  0
 27 85  1  0
 27 86  1  0
 28 87  1  0
 28 88  1  0
 29 89  1  0
 29 90  1  0
 29 91  1  0
 32 92  1  0
 33 93  1  6
 34 94  1  1
 35 95  1  0
 35 96  1  0
 35 97  1  0
 36 98  1  0
 36 99  1  0
 37100  1  0
 37101  1  0
 37102  1  0
 40103  1  0
 41104  1  6
 42105  1  1
 43106  1  0
 43107  1  0
 43108  1  0
 44109  1  0
 44110  1  0
 45111  1  0
 45112  1  0
 45113  1  0
 48114  1  0
M  END
$$$$
[H]c1c([H])c([H])c2c(c1[H])N=C(N1C([H])([H])C([H])([H])N(C([H])([H])[H])C([H])([H])C1([H])[H])c1c([H])c([H])c([H])c([H])c1N2[H]
     RDKit          3D

 42 45  0  0  0  0  0  0  0  0999 V2000
   -4.5158    1.2387    0.1970 C   0  0  0  0  0  0  0  0  0  0  0  0
   -4.0564   -0.1090    0.3921 N   0  0  0  0  0  0  0  0  0  0  0  0
   -3.3307   -0.2894    1.6208 C   0  0  0  0  0  0  0  0  0  0  0  0
   -1.8668   -0.0800    1.5115 C   0  0  0  0  0  0  0  0  0  0  0  0
   -1.3212   -0.1128    0.1995 N   0  0  0  0  0  0  0  0  0  0  0  0
   -2.0497   -0.2446   -1.0394 C   0  0  0  0  0  0  0  0  0  0  0  0
   -3.4373   -0.6978   -0.7450 C   0  0  0  0  0  0  0  0  0  0  0  0
    0.1107    0.0061    0.0876 C   0  0  0  0  0  0  0  0  0  0  0  0
    0.5987    1.1952    0.2300 N   0  0  0  0  0  0  0  0  0  0  0  0
    1.9201    1.7185    0.1917 C   0  0  0  0  0  0  0  0  0  0  0  0
    1.9845    3.0317    0.6669 C   0  0  0  0  0  0  0  0  0  0  0  0
    3.2358    3.6548    0.6768 C   0  0  0  0  0  0  0  0  0  0  0  0
    4.3642    3.0025    0.2357 C   0  0  0  0  0  0  0  0  0  0  0  0
    4.2549    1.7113   -0.2235 C   0  0  0  0  0  0  0  0  0  0  0  0
    3.0396    1.0437   -0.2562 C   0  0  0  0  0  0  0  0  0  0  0  0
    3.1665   -0.2790   -0.7679 N   0  0  0  0  0  0  0  0  0  0  0  0
    2.2191   -1.3308   -0.5495 C   0  0  0  0  0  0  0  0  0  0  0  0
    2.8185   -2.5404   -0.7647 C   0  0  0  0  0  0  0  0  0  0  0  0
    2.0529   -3.6796   -0.5987 C   0  0  0  0  0  0  0  0  0  0  0  0
    0.7306   -3.5620   -0.2273 C   0  0  0  0  0  0  0  0  0  0  0  0
    0.1152   -2.3320   -0.0068 C   0  0  0  0  0  0  0  0  0  0  0  0
    0.8803   -1.2005   -0.1731 C   0  0  0  0  0  0  0  0  0  0  0  0
   -4.7215    1.4091   -0.8649 H   0  0  0  0  0  0  0  0  0  0  0  0
   -3.8064    1.9987    0.5754 H   0  0  0  0  0  0  0  0  0  0  0  0
   -5.4668    1.3896    0.7568 H   0  0  0  0  0  0  0  0  0  0  0  0
   -3.5431   -1.3150    1.9821 H   0  0  0  0  0  0  0  0  0  0  0  0
   -3.7574    0.4170    2.3614 H   0  0  0  0  0  0  0  0  0  0  0  0
   -1.5829    0.9111    1.9757 H   0  0  0  0  0  0  0  0  0  0  0  0
   -1.3469   -0.8298    2.1457 H   0  0  0  0  0  0  0  0  0  0  0  0
   -1.5558   -1.0135   -1.6782 H   0  0  0  0  0  0  0  0  0  0  0  0
   -2.0779    0.7309   -1.5781 H   0  0  0  0  0  0  0  0  0  0  0  0
   -3.3909   -1.8091   -0.5614 H   0  0  0  0  0  0  0  0  0  0  0  0
   -4.1323   -0.5704   -1.6111 H   0  0  0  0  0  0  0  0  0  0  0  0
    1.0906    3.5228    1.0068 H   0  0  0  0  0  0  0  0  0  0  0  0
    3.2972    4.6739    1.0435 H   0  0  0  0  0  0  0  0  0  0  0  0
    5.3041    3.5267    0.2638 H   0  0  0  0  0  0  0  0  0  0  0  0
    5.1510    1.2164   -0.5654 H   0  0  0  0  0  0  0  0  0  0  0  0
    4.0104   -0.4565   -1.3293 H   0  0  0  0  0  0  0  0  0  0  0  0
    3.8645   -2.5842   -1.0565 H   0  0  0  0  0  0  0  0  0  0  0  0
    2.5380   -4.6274   -0.7717 H   0  0  0  0  0  0  0  0  0  0  0  0
    0.1315   -4.4755   -0.0982 H   0  0  0  0  0  0  0  0  0  0  0  0
   -0.9196   -2.2595    0.2839 H   0  0  0  0  0  0  0  0  0  0  0  0
  1  2  1  0
  2  3  1  0
  3  4  1  0
  4  5  1  0
  5  6  1  0
  6  7  1  0
  5  8  1  0
  8  9  2  0
  9 10  1  0
 10 11  2  0
 11 12  1  0
 12 13  2  0
 13 14  1  0
 14 15  2  0
 15 16  1  0
 16 17  1  0
 17 18  2  0
 18 19  1  0
 19 20  2  0
 20 21  1  0
 21 22  2  0
  7  2  1  0
 22  8  1  0
 15 10  1  0
 22 17  1  0
  1 23  1  0
  1 24  1  0
  1 25  1  0
  3 26  1  0
  3 27  1  0
  4 28  1  0
  4 29  1  0
  6 30  1  0
  6 31  1  0
  7 32  1  0
  7 33  1  0
 11 34  1  0
 12 35  1  0
 13 36  1  0
 14 37  1  0
 16 38  1  0
 18 39  1  0
 19 40  1  0
 20 41  1  0
 21 42  1  0
M  END
$$$$
[H]O[C@@]1([H])C([H])([H])C([H])([H])[C@@]2([H])[C@]3(C([H])([H])[H])[C@]([H])(C([H])([H])C([H])([H])[C@]2([H])C1([H])[H])C([H])([H])[C@]1(C([H])([H])[H])[C@@]([H])(O[H])C([H])([H])C([H])([H])[C@@]13[H]
     RDKit          3D

 50 53  0  0  0  0  0  0  0  0999 V2000
   -3.2476   -0.1520   -1.2529 C   0  0  0  0  0  0  0  0  0  0  0  0
   -2.2577    0.4011   -0.2751 C   0  0  2  0  0  0  0  0  0  0  0  0
   -1.1944    1.2264   -0.9426 C   0  0  0  0  0  0  0  0  0  0  0  0
   -0.4538    0.0430   -1.5791 C   0  0  1  0  0  0  0  0  0  0  0  0
    0.5993    0.3622   -2.4968 C   0  0  0  0  0  0  0  0  0  0  0  0
    2.0020    0.1087   -2.0670 C   0  0  0  0  0  0  0  0  0  0  0  0
    2.0567    0.4357   -0.5849 C   0  0  2  0  0  0  0  0  0  0  0  0
    3.5370    0.2495   -0.2442 C   0  0  0  0  0  0  0  0  0  0  0  0
    3.6926    0.7164    1.1797 C   0  0  1  0  0  0  0  0  0  0  0  0
    3.4167    2.0354    1.3684 O   0  0  0  0  0  0  0  0  0  0  0  0
    2.8701   -0.2322    2.0056 C   0  0  0  0  0  0  0  0  0  0  0  0
    1.3739   -0.1182    1.6501 C   0  0  0  0  0  0  0  0  0  0  0  0
    1.1949   -0.5569    0.2246 C   0  0  1  0  0  0  0  0  0  0  0  0
   -0.1258   -0.7943   -0.3229 C   0  0  2  0  0  0  0  0  0  0  0  0
   -0.0651   -2.2218   -0.9520 C   0  0  0  0  0  0  0  0  0  0  0  0
   -1.3782   -0.6922    0.3723 C   0  0  1  0  0  0  0  0  0  0  0  0
   -1.5707   -0.4146    1.7941 C   0  0  0  0  0  0  0  0  0  0  0  0
   -3.0890   -0.0929    1.8195 C   0  0  0  0  0  0  0  0  0  0  0  0
   -3.0071    1.0754    0.8133 C   0  0  2  0  0  0  0  0  0  0  0  0
   -4.2832    1.4702    0.4502 O   0  0  0  0  0  0  0  0  0  0  0  0
   -4.2971   -0.0375   -0.9172 H   0  0  0  0  0  0  0  0  0  0  0  0
   -3.1166    0.4101   -2.2082 H   0  0  0  0  0  0  0  0  0  0  0  0
   -3.0594   -1.2301   -1.4239 H   0  0  0  0  0  0  0  0  0  0  0  0
   -1.5638    1.8561   -1.7619 H   0  0  0  0  0  0  0  0  0  0  0  0
   -0.6036    1.7374   -0.1857 H   0  0  0  0  0  0  0  0  0  0  0  0
   -1.2730   -0.5150   -2.1265 H   0  0  0  0  0  0  0  0  0  0  0  0
    0.4752   -0.1570   -3.4955 H   0  0  0  0  0  0  0  0  0  0  0  0
    0.5452    1.4568   -2.7817 H   0  0  0  0  0  0  0  0  0  0  0  0
    2.6963    0.8221   -2.5562 H   0  0  0  0  0  0  0  0  0  0  0  0
    2.3837   -0.9001   -2.2902 H   0  0  0  0  0  0  0  0  0  0  0  0
    1.7656    1.4683   -0.4275 H   0  0  0  0  0  0  0  0  0  0  0  0
    3.7767   -0.8505   -0.2403 H   0  0  0  0  0  0  0  0  0  0  0  0
    4.1214    0.8071   -0.9720 H   0  0  0  0  0  0  0  0  0  0  0  0
    4.7572    0.5490    1.5054 H   0  0  0  0  0  0  0  0  0  0  0  0
    2.5021    2.3261    1.2691 H   0  0  0  0  0  0  0  0  0  0  0  0
    3.2468   -1.2426    1.8654 H   0  0  0  0  0  0  0  0  0  0  0  0
    2.9524    0.0883    3.0679 H   0  0  0  0  0  0  0  0  0  0  0  0
    0.9473   -0.8494    2.3985 H   0  0  0  0  0  0  0  0  0  0  0  0
    1.1388    0.9227    1.8408 H   0  0  0  0  0  0  0  0  0  0  0  0
    1.8665   -1.4788    0.1858 H   0  0  0  0  0  0  0  0  0  0  0  0
   -0.8242   -2.3425   -1.7188 H   0  0  0  0  0  0  0  0  0  0  0  0
    0.9516   -2.4918   -1.2084 H   0  0  0  0  0  0  0  0  0  0  0  0
   -0.3637   -2.8831   -0.0873 H   0  0  0  0  0  0  0  0  0  0  0  0
   -2.0260   -1.6161    0.2075 H   0  0  0  0  0  0  0  0  0  0  0  0
   -1.4551   -1.3322    2.4101 H   0  0  0  0  0  0  0  0  0  0  0  0
   -1.1647    0.4879    2.2279 H   0  0  0  0  0  0  0  0  0  0  0  0
   -3.3931    0.2946    2.7910 H   0  0  0  0  0  0  0  0  0  0  0  0
   -3.6736   -0.9187    1.4215 H   0  0  0  0  0  0  0  0  0  0  0  0
   -2.4338    1.8693    1.3341 H   0  0  0  0  0  0  0  0  0  0  0  0
   -4.9499    0.9009    0.9162 H   0  0  0  0  0  0  0  0  0  0  0  0
  2  1  1  6
  2  3  1  0
  3  4  1  0
  4  5  1  0
  5  6  1  0
  6  7  1  0
  7  8  1  0
  8  9  1  0
  9 10  1  0
  9 11  1  0
 11 12  1  0
 12 13  1  0
 13 14  1  0
 14 15  1  6
 14 16  1  0
 16 17  1  0
 17 18  1  0
 18 19  1  0
 19 20  1  0
 16  2  1  0
 19  2  1  0
 14  4  1  0
 13  7  1  0
  1 21  1  0
  1 22  1  0
  1 23  1  0
  3 24  1  0
  3 25  1  0
  4 26  1  6
  5 27  1  0
  5 28  1  0
  6 29  1  0
  6 30  1  0
  7 31  1  6
  8 32  1  0
  8 33  1  0
  9 34  1  1
 10 35  1  0
 11 36  1  0
 11 37  1  0
 12 38  1  0
 12 39  1  0
 13 40  1  1
 15 41  1  0
 15 42  1  0
 15 43  1  0
 16 44  1  1
 17 45  1  0
 17 46  1  0
 18 47  1  0
 18 48  1  0
 19 49  1  1
 20 50  1  0
M  END
$$$$
[H]OC(=O)c1c([H])c(N([H])S(=O)(=O)c2c([H])nc(N([H])c3c([H])c([H])c([H])c(Cl)c3[H])nc2C(F)(F)F)c([H])c([H])c1F
     RDKit          3D

 43 45  0  0  0  0  0  0  0  0999 V2000
   -4.0109    2.3666    2.3987 O   0  0  0  0  0  0  0  0  0  0  0  0
   -4.4326    2.4442    1.0797 C   0  0  0  0  0  0  0  0  0  0  0  0
   -4.9500    3.5024    0.6443 O   0  0  0  0  0  0  0  0  0  0  0  0
   -4.2749    1.2873    0.1875 C   0  0  0  0  0  0  0  0  0  0  0  0
   -3.7045    0.1394    0.6908 C   0  0  0  0  0  0  0  0  0  0  0  0
   -3.5523   -0.9461   -0.1325 C   0  0  0  0  0  0  0  0  0  0  0  0
   -2.9770   -2.1647    0.3079 N   0  0  0  0  0  0  0  0  0  0  0  0
   -1.5709   -2.3468    1.2378 S   0  0  0  0  0  0  0  0  0  0  0  0
   -1.8399   -1.5975    2.5352 O   0  0  0  0  0  0  0  0  0  0  0  0
   -1.4431   -3.7962    1.7443 O   0  0  0  0  0  0  0  0  0  0  0  0
   -0.0974   -1.7791    0.5929 C   0  0  0  0  0  0  0  0  0  0  0  0
    0.5238   -0.6845    1.2144 C   0  0  0  0  0  0  0  0  0  0  0  0
    1.6611   -0.1625    0.7802 N   0  0  0  0  0  0  0  0  0  0  0  0
    2.2851   -0.6593   -0.2887 C   0  0  0  0  0  0  0  0  0  0  0  0
    3.4887   -0.1838   -0.8303 N   0  0  0  0  0  0  0  0  0  0  0  0
    4.2566    0.8904   -0.3796 C   0  0  0  0  0  0  0  0  0  0  0  0
    5.6042    1.0026   -0.7864 C   0  0  0  0  0  0  0  0  0  0  0  0
    6.4166    2.0194   -0.4163 C   0  0  0  0  0  0  0  0  0  0  0  0
    5.9201    3.0024    0.3978 C   0  0  0  0  0  0  0  0  0  0  0  0
    4.6230    2.9758    0.8419 C   0  0  0  0  0  0  0  0  0  0  0  0
    3.9730    4.2201    1.8801 Cl  0  0  0  0  0  0  0  0  0  0  0  0
    3.8147    1.9038    0.4341 C   0  0  0  0  0  0  0  0  0  0  0  0
    1.6818   -1.7270   -0.8966 N   0  0  0  0  0  0  0  0  0  0  0  0
    0.5374   -2.3001   -0.5102 C   0  0  0  0  0  0  0  0  0  0  0  0
   -0.0185   -3.4581   -1.2319 C   0  0  0  0  0  0  0  0  0  0  0  0
   -1.2500   -3.2699   -1.7965 F   0  0  0  0  0  0  0  0  0  0  0  0
    0.0905   -4.6463   -0.5484 F   0  0  0  0  0  0  0  0  0  0  0  0
    0.8198   -3.6581   -2.3474 F   0  0  0  0  0  0  0  0  0  0  0  0
   -3.9747   -0.8535   -1.4359 C   0  0  0  0  0  0  0  0  0  0  0  0
   -4.5508    0.2809   -1.9747 C   0  0  0  0  0  0  0  0  0  0  0  0
   -4.6862    1.3520   -1.1129 C   0  0  0  0  0  0  0  0  0  0  0  0
   -5.2465    2.4737   -1.6144 F   0  0  0  0  0  0  0  0  0  0  0  0
   -4.2563    1.6074    3.0119 H   0  0  0  0  0  0  0  0  0  0  0  0
   -3.3840    0.1171    1.7436 H   0  0  0  0  0  0  0  0  0  0  0  0
   -3.4970   -3.0347    0.0205 H   0  0  0  0  0  0  0  0  0  0  0  0
    0.0725   -0.2186    2.0999 H   0  0  0  0  0  0  0  0  0  0  0  0
    3.8634   -0.6962   -1.6880 H   0  0  0  0  0  0  0  0  0  0  0  0
    5.9821    0.2143   -1.4311 H   0  0  0  0  0  0  0  0  0  0  0  0
    7.4540    2.0316   -0.7776 H   0  0  0  0  0  0  0  0  0  0  0  0
    6.5882    3.8031    0.6796 H   0  0  0  0  0  0  0  0  0  0  0  0
    2.7981    1.9380    0.7999 H   0  0  0  0  0  0  0  0  0  0  0  0
   -3.8670   -1.6990   -2.1134 H   0  0  0  0  0  0  0  0  0  0  0  0
   -4.8701    0.3096   -3.0104 H   0  0  0  0  0  0  0  0  0  0  0  0
  1  2  1  0
  2  3  2  0
  2  4  1  0
  4  5  2  0
  5  6  1  0
  6  7  1  0
  7  8  1  0
  8  9  2  0
  8 10  2  0
  8 11  1  0
 11 12  2  0
 12 13  1  0
 13 14  2  0
 14 15  1  0
 15 16  1  0
 16 17  2  0
 17 18  1  0
 18 19  2  0
 19 20  1  0
 20 21  1  0
 20 22  2  0
 14 23  1  0
 23 24  2  0
 24 25  1  0
 25 26  1  0
 25 27  1  0
 25 28  1  0
  6 29  2  0
 29 30  1  0
 30 31  2  0
 31 32  1  0
 31  4  1  0
 24 11  1  0
 22 16  1  0
  1 33  1  0
  5 34  1  0
  7 35  1  0
 12 36  1  0
 15 37  1  0
 17 38  1  0
 18 39  1  0
 19 40  1  0
 22 41  1  0
 29 42  1  0
 30 43  1  0
M  END
$$$$
[H]c1nc(N2C([H])([H])C([H])([H])C([H])(N3C([H])([H])C([H])([H])C([H])([H])C([H])([H])C3([H])[H])C([H])([H])C2([H])[H])nc([H])c1-c1c([H])c([H])c(N2C([H])([H])C([H])([H])N(C([H])([H])[H])C([H])([H])C2([H])[H])c([H])c1[H]
     RDKit          3D

 67 71  0  0  0  0  0  0  0  0999 V2000
   -9.9730    2.0909    0.7257 C   0  0  0  0  0  0  0  0  0  0  0  0
   -8.7984    1.3178    0.5172 N   0  0  0  0  0  0  0  0  0  0  0  0
   -8.6735    0.1628    1.3334 C   0  0  0  0  0  0  0  0  0  0  0  0
   -7.3148   -0.4815    1.2814 C   0  0  0  0  0  0  0  0  0  0  0  0
   -6.7233   -0.3111   -0.0298 N   0  0  0  0  0  0  0  0  0  0  0  0
   -7.6314   -0.0957   -1.1146 C   0  0  0  0  0  0  0  0  0  0  0  0
   -8.3357    1.2169   -0.8184 C   0  0  0  0  0  0  0  0  0  0  0  0
   -5.3304   -0.3614   -0.2302 C   0  0  0  0  0  0  0  0  0  0  0  0
   -4.4692   -0.7364    0.8164 C   0  0  0  0  0  0  0  0  0  0  0  0
   -3.1058   -0.7891    0.6542 C   0  0  0  0  0  0  0  0  0  0  0  0
   -2.5244   -0.4736   -0.5511 C   0  0  0  0  0  0  0  0  0  0  0  0
   -3.3308   -0.1024   -1.5982 C   0  0  0  0  0  0  0  0  0  0  0  0
   -4.7053   -0.0554   -1.4141 C   0  0  0  0  0  0  0  0  0  0  0  0
   -1.0830   -0.5232   -0.7458 C   0  0  0  0  0  0  0  0  0  0  0  0
   -0.3224   -1.4531   -0.0502 C   0  0  0  0  0  0  0  0  0  0  0  0
    1.0214   -1.5024   -0.2281 N   0  0  0  0  0  0  0  0  0  0  0  0
    1.6590   -0.6762   -1.0625 C   0  0  0  0  0  0  0  0  0  0  0  0
    0.9296    0.2273   -1.7399 N   0  0  0  0  0  0  0  0  0  0  0  0
   -0.4046    0.3211   -1.6029 C   0  0  0  0  0  0  0  0  0  0  0  0
    3.0759   -0.7516   -1.2312 N   0  0  0  0  0  0  0  0  0  0  0  0
    3.7824    0.1560   -2.1140 C   0  0  0  0  0  0  0  0  0  0  0  0
    5.2483    0.1216   -1.6598 C   0  0  0  0  0  0  0  0  0  0  0  0
    5.2276    0.2435   -0.1591 C   0  0  0  0  0  0  0  0  0  0  0  0
    4.7235   -1.0239    0.4840 C   0  0  0  0  0  0  0  0  0  0  0  0
    3.8546   -1.7441   -0.5227 C   0  0  0  0  0  0  0  0  0  0  0  0
    6.4499    0.7170    0.3624 N   0  0  0  0  0  0  0  0  0  0  0  0
    6.5323    0.8734    1.7590 C   0  0  0  0  0  0  0  0  0  0  0  0
    7.5390   -0.0204    2.3966 C   0  0  0  0  0  0  0  0  0  0  0  0
    8.8855    0.1376    1.7293 C   0  0  0  0  0  0  0  0  0  0  0  0
    8.8128   -0.0161    0.2404 C   0  0  0  0  0  0  0  0  0  0  0  0
    7.6196    0.6041   -0.3963 C   0  0  0  0  0  0  0  0  0  0  0  0
   -9.6632    3.0927    1.1325 H   0  0  0  0  0  0  0  0  0  0  0  0
  -10.5397    2.3192   -0.2006 H   0  0  0  0  0  0  0  0  0  0  0  0
  -10.6055    1.6246    1.5056 H   0  0  0  0  0  0  0  0  0  0  0  0
   -9.4308   -0.5889    1.0377 H   0  0  0  0  0  0  0  0  0  0  0  0
   -8.8820    0.4419    2.3844 H   0  0  0  0  0  0  0  0  0  0  0  0
   -7.3612   -1.5708    1.4821 H   0  0  0  0  0  0  0  0  0  0  0  0
   -6.6911   -0.0435    2.0837 H   0  0  0  0  0  0  0  0  0  0  0  0
   -8.3586   -0.9466   -1.0925 H   0  0  0  0  0  0  0  0  0  0  0  0
   -7.2132   -0.0148   -2.1088 H   0  0  0  0  0  0  0  0  0  0  0  0
   -9.2023    1.2667   -1.5013 H   0  0  0  0  0  0  0  0  0  0  0  0
   -7.5907    2.0252   -1.0102 H   0  0  0  0  0  0  0  0  0  0  0  0
   -4.9189   -0.9835    1.7569 H   0  0  0  0  0  0  0  0  0  0  0  0
   -2.4411   -1.0839    1.4801 H   0  0  0  0  0  0  0  0  0  0  0  0
   -2.9101    0.1554   -2.5698 H   0  0  0  0  0  0  0  0  0  0  0  0
   -5.2782    0.2462   -2.2753 H   0  0  0  0  0  0  0  0  0  0  0  0
   -0.8159   -2.1335    0.6318 H   0  0  0  0  0  0  0  0  0  0  0  0
   -0.9698    1.0583   -2.1606 H   0  0  0  0  0  0  0  0  0  0  0  0
    3.6671   -0.2106   -3.1405 H   0  0  0  0  0  0  0  0  0  0  0  0
    3.3742    1.1886   -2.0429 H   0  0  0  0  0  0  0  0  0  0  0  0
    5.7927    0.9814   -2.1046 H   0  0  0  0  0  0  0  0  0  0  0  0
    5.6588   -0.8282   -2.0265 H   0  0  0  0  0  0  0  0  0  0  0  0
    4.4410    1.0239    0.0692 H   0  0  0  0  0  0  0  0  0  0  0  0
    5.5228   -1.7121    0.7910 H   0  0  0  0  0  0  0  0  0  0  0  0
    4.0707   -0.8118    1.3616 H   0  0  0  0  0  0  0  0  0  0  0  0
    3.1700   -2.4827   -0.0190 H   0  0  0  0  0  0  0  0  0  0  0  0
    4.4544   -2.3271   -1.2502 H   0  0  0  0  0  0  0  0  0  0  0  0
    6.7795    1.9214    2.0093 H   0  0  0  0  0  0  0  0  0  0  0  0
    5.5369    0.6464    2.2068 H   0  0  0  0  0  0  0  0  0  0  0  0
    7.6768    0.3174    3.4592 H   0  0  0  0  0  0  0  0  0  0  0  0
    7.2594   -1.0782    2.4468 H   0  0  0  0  0  0  0  0  0  0  0  0
    9.5336   -0.6719    2.1244 H   0  0  0  0  0  0  0  0  0  0  0  0
    9.3440    1.0964    2.0498 H   0  0  0  0  0  0  0  0  0  0  0  0
    8.9198   -1.1064   -0.0380 H   0  0  0  0  0  0  0  0  0  0  0  0
    9.7244    0.4646   -0.1845 H   0  0  0  0  0  0  0  0  0  0  0  0
    7.4178    0.0208   -1.3358 H   0  0  0  0  0  0  0  0  0  0  0  0
    7.8932    1.6309   -0.7780 H   0  0  0  0  0  0  0  0  0  0  0  0
  1  2  1  0
  2  3  1  0
  3  4  1  0
  4  5  1  0
  5  6  1  0
  6  7  1  0
  5  8  1  0
  8  9  2  0
  9 10  1  0
 10 11  2  0
 11 12  1  0
 12 13  2  0
 11 14  1  0
 14 15  2  0
 15 16  1  0
 16 17  2  0
 17 18  1  0
 18 19  2  0
 17 20  1  0
 20 21  1  0
 21 22  1  0
 22 23  1  0
 23 24  1  0
 24 25  1  0
 23 26  1  0
 26 27  1  0
 27 28  1  0
 28 29  1  0
 29 30  1  0
 30 31  1  0
  7  2  1  0
 13  8  1  0
 19 14  1  0
 25 20  1  0
 31 26  1  0
  1 32  1  0
  1 33  1  0
  1 34  1  0
  3 35  1  0
  3 36  1  0
  4 37  1  0
  4 38  1  0
  6 39  1  0
  6 40  1  0
  7 41  1  0
  7 42  1  0
  9 43  1  0
 10 44  1  0
 12 45  1  0
 13 46  1  0
 15 47  1  0
 19 48  1  0
 21 49  1  0
 21 50  1  0
 22 51  1  0
 22 52  1  0
 23 53  1  0
 24 54  1  0
 24 55  1  0
 25 56  1  0
 25 57  1  0
 27 58  1  0
 27 59  1  0
 28 60  1  0
 28 61  1  0
 29 62  1  0
 29 63  1  0
 30 64  1  0
 30 65  1  0
 31 66  1  0
 31 67  1  0
M  END
$$$$
[H]C1=C2C([H])([H])C([H])([H])[C@@]3([H])C(=C(OC([H])([H])C(C([H])([H])[H])(C([H])([H])[H])C([H])([H])[H])C4([H])C(C([H])([H])[H])(C([H])([H])[H])C([H])([H])C([H])([H])O[C@@]43[H])[C@@]2(C([H])([H])[H])C([H])([H])C([H])([H])C1=O
     RDKit          3D

 63 66  0  0  0  0  0  0  0  0999 V2000
   -0.4890    4.1451   -1.1983 C   0  0  0  0  0  0  0  0  0  0  0  0
    0.3163    2.9090   -0.7337 C   0  0  0  0  0  0  0  0  0  0  0  0
    1.2773    2.6320   -1.8314 C   0  0  0  0  0  0  0  0  0  0  0  0
    0.9715    3.4019    0.5534 C   0  0  0  0  0  0  0  0  0  0  0  0
   -0.1375    3.5269    1.5846 C   0  0  0  0  0  0  0  0  0  0  0  0
   -0.7545    2.3029    1.7912 O   0  0  0  0  0  0  0  0  0  0  0  0
   -1.5699    2.0550    0.6651 C   0  0  2  0  0  0  0  0  0  0  0  0
   -2.2191    0.7041    0.7714 C   0  0  1  0  0  0  0  0  0  0  0  0
   -3.4630    0.5024   -0.0020 C   0  0  0  0  0  0  0  0  0  0  0  0
   -3.8316   -0.9422    0.0190 C   0  0  0  0  0  0  0  0  0  0  0  0
   -2.8799   -1.8263    0.6881 C   0  0  0  0  0  0  0  0  0  0  0  0
   -3.3319   -2.8828    1.3369 C   0  0  0  0  0  0  0  0  0  0  0  0
   -2.4748   -3.8348    2.0415 C   0  0  0  0  0  0  0  0  0  0  0  0
   -2.8265   -4.9997    2.2491 O   0  0  0  0  0  0  0  0  0  0  0  0
   -1.1497   -3.3304    2.4997 C   0  0  0  0  0  0  0  0  0  0  0  0
   -0.9402   -1.8896    2.1058 C   0  0  0  0  0  0  0  0  0  0  0  0
   -1.3849   -1.6369    0.7038 C   0  0  1  0  0  0  0  0  0  0  0  0
   -0.8337   -2.6784   -0.2226 C   0  0  0  0  0  0  0  0  0  0  0  0
   -1.1196   -0.2301    0.2690 C   0  0  0  0  0  0  0  0  0  0  0  0
   -0.2663    0.4559   -0.4447 C   0  0  0  0  0  0  0  0  0  0  0  0
   -0.6796    1.8467   -0.5078 C   0  0  0  0  0  0  0  0  0  0  0  0
    0.8563   -0.1769   -1.0191 O   0  0  0  0  0  0  0  0  0  0  0  0
    2.0354   -0.4276   -0.3274 C   0  0  0  0  0  0  0  0  0  0  0  0
    3.1313   -1.0938   -1.0679 C   0  0  0  0  0  0  0  0  0  0  0  0
    4.3264   -1.2650   -0.1055 C   0  0  0  0  0  0  0  0  0  0  0  0
    3.6801   -0.3475   -2.2433 C   0  0  0  0  0  0  0  0  0  0  0  0
    2.8022   -2.5319   -1.4694 C   0  0  0  0  0  0  0  0  0  0  0  0
    0.0602    5.0778   -0.9426 H   0  0  0  0  0  0  0  0  0  0  0  0
   -0.5531    4.1343   -2.3155 H   0  0  0  0  0  0  0  0  0  0  0  0
   -1.5010    4.1397   -0.7806 H   0  0  0  0  0  0  0  0  0  0  0  0
    2.3317    2.4939   -1.4467 H   0  0  0  0  0  0  0  0  0  0  0  0
    0.9720    1.7871   -2.4899 H   0  0  0  0  0  0  0  0  0  0  0  0
    1.3983    3.4960   -2.5524 H   0  0  0  0  0  0  0  0  0  0  0  0
    1.7957    2.7494    0.8844 H   0  0  0  0  0  0  0  0  0  0  0  0
    1.3954    4.4171    0.4119 H   0  0  0  0  0  0  0  0  0  0  0  0
   -0.8890    4.2200    1.1634 H   0  0  0  0  0  0  0  0  0  0  0  0
    0.2415    3.9553    2.5297 H   0  0  0  0  0  0  0  0  0  0  0  0
   -2.3218    2.8578    0.5607 H   0  0  0  0  0  0  0  0  0  0  0  0
   -2.4279    0.4353    1.8329 H   0  0  0  0  0  0  0  0  0  0  0  0
   -3.4175    0.8971   -1.0432 H   0  0  0  0  0  0  0  0  0  0  0  0
   -4.2658    1.0835    0.5076 H   0  0  0  0  0  0  0  0  0  0  0  0
   -4.8522   -1.0376    0.4902 H   0  0  0  0  0  0  0  0  0  0  0  0
   -4.0141   -1.3184   -1.0335 H   0  0  0  0  0  0  0  0  0  0  0  0
   -4.4067   -3.0795    1.3633 H   0  0  0  0  0  0  0  0  0  0  0  0
   -1.1422   -3.4136    3.6066 H   0  0  0  0  0  0  0  0  0  0  0  0
   -0.3478   -4.0024    2.1259 H   0  0  0  0  0  0  0  0  0  0  0  0
    0.1412   -1.6847    2.1853 H   0  0  0  0  0  0  0  0  0  0  0  0
   -1.5343   -1.2776    2.8191 H   0  0  0  0  0  0  0  0  0  0  0  0
   -0.6454   -2.1789   -1.2026 H   0  0  0  0  0  0  0  0  0  0  0  0
    0.1363   -3.0962    0.1109 H   0  0  0  0  0  0  0  0  0  0  0  0
   -1.5720   -3.4916   -0.4556 H   0  0  0  0  0  0  0  0  0  0  0  0
   -1.3845    1.9004   -1.4146 H   0  0  0  0  0  0  0  0  0  0  0  0
    2.4539    0.4944    0.1327 H   0  0  0  0  0  0  0  0  0  0  0  0
    1.7515   -1.0631    0.5618 H   0  0  0  0  0  0  0  0  0  0  0  0
    3.9465   -1.3829    0.9306 H   0  0  0  0  0  0  0  0  0  0  0  0
    4.8796   -0.2979   -0.1201 H   0  0  0  0  0  0  0  0  0  0  0  0
    4.9474   -2.1173   -0.4079 H   0  0  0  0  0  0  0  0  0  0  0  0
    4.6291   -0.8638   -2.5432 H   0  0  0  0  0  0  0  0  0  0  0  0
    3.9369    0.6839   -1.8984 H   0  0  0  0  0  0  0  0  0  0  0  0
    2.9389   -0.3455   -3.0606 H   0  0  0  0  0  0  0  0  0  0  0  0
    3.7442   -2.9690   -1.8590 H   0  0  0  0  0  0  0  0  0  0  0  0
    1.9823   -2.5334   -2.2148 H   0  0  0  0  0  0  0  0  0  0  0  0
    2.5478   -3.0576   -0.5417 H   0  0  0  0  0  0  0  0  0  0  0  0
  1  2  1  0
  2  3  1  0
  2  4  1  0
  4  5  1  0
  5  6  1  0
  6  7  1  0
  7  8  1  0
  8  9  1  0
  9 10  1  0
 10 11  1  0
 11 12  2  0
 12 13  1  0
 13 14  2  0
 13 15  1  0
 15 16  1  0
 16 17  1  0
 17 18  1  6
 17 19  1  0
 19 20  2  0
 20 21  1  0
 20 22  1  0
 22 23  1  0
 23 24  1  0
 24 25  1  0
 24 26  1  0
 24 27  1  0
 21  2  1  0
 21  7  1  0
 19  8  1  0
 17 11  1  0
  1 28  1  0
  1 29  1  0
  1 30  1  0
  3 31  1  0
  3 32  1  0
  3 33  1  0
  4 34  1  0
  4 35  1  0
  5 36  1  0
  5 37  1  0
  7 38  1  6
  8 39  1  1
  9 40  1  0
  9 41  1  0
 10 42  1  0
 10 43  1  0
 12 44  1  0
 15 45  1  0
 15 46  1  0
 16 47  1  0
 16 48  1  0
 18 49  1  0
 18 50  1  0
 18 51  1  0
 21 52  1  0
 23 53  1  0
 23 54  1  0
 25 55  1  0
 25 56  1  0
 25 57  1  0
 26 58  1  0
 26 59  1  0
 26 60  1  0
 27 61  1  0
 27 62  1  0
 27 63  1  0
M  END
$$$$
[H]OC(=O)c1c([H])c([H])c(C(=O)N2C([H])([H])C([H])([H])C([H])(c3nc4c([H])c([H])c([H])c([H])c4c(=O)n3C([H])([H])c3c([H])c([H])c(F)c([H])c3[H])C([H])([H])C2([H])[H])c([H])c1[H]
     RDKit          3D

 60 64  0  0  0  0  0  0  0  0999 V2000
    9.4366   -1.2700   -0.9296 O   0  0  0  0  0  0  0  0  0  0  0  0
    8.2153   -1.6220   -1.4834 C   0  0  0  0  0  0  0  0  0  0  0  0
    8.1491   -2.4739   -2.3814 O   0  0  0  0  0  0  0  0  0  0  0  0
    7.0114   -0.9647   -0.9827 C   0  0  0  0  0  0  0  0  0  0  0  0
    7.0928   -0.0219    0.0118 C   0  0  0  0  0  0  0  0  0  0  0  0
    5.9598    0.5825    0.4685 C   0  0  0  0  0  0  0  0  0  0  0  0
    4.6851    0.2474   -0.0749 C   0  0  0  0  0  0  0  0  0  0  0  0
    4.6259   -0.6938   -1.0646 C   0  0  0  0  0  0  0  0  0  0  0  0
    5.7971   -1.3059   -1.5233 C   0  0  0  0  0  0  0  0  0  0  0  0
    3.5352    0.9351    0.4546 C   0  0  0  0  0  0  0  0  0  0  0  0
    3.8382    1.8428    1.3802 O   0  0  0  0  0  0  0  0  0  0  0  0
    2.1814    0.8370    0.1905 N   0  0  0  0  0  0  0  0  0  0  0  0
    1.5349   -0.0273   -0.7248 C   0  0  0  0  0  0  0  0  0  0  0  0
    0.0123    0.1683   -0.7152 C   0  0  0  0  0  0  0  0  0  0  0  0
   -0.5365    0.0039    0.6881 C   0  0  0  0  0  0  0  0  0  0  0  0
    0.3104    0.7922    1.6796 C   0  0  0  0  0  0  0  0  0  0  0  0
    1.2351    1.7383    0.9356 C   0  0  0  0  0  0  0  0  0  0  0  0
   -1.8759    0.6247    0.7009 C   0  0  0  0  0  0  0  0  0  0  0  0
   -1.8631    1.9412    0.3071 N   0  0  0  0  0  0  0  0  0  0  0  0
   -2.9622    2.7007    0.2869 C   0  0  0  0  0  0  0  0  0  0  0  0
   -2.9793    4.0198   -0.1019 C   0  0  0  0  0  0  0  0  0  0  0  0
   -4.1539    4.7363   -0.0947 C   0  0  0  0  0  0  0  0  0  0  0  0
   -5.3185    4.1165    0.3077 C   0  0  0  0  0  0  0  0  0  0  0  0
   -5.3235    2.7751    0.7072 C   0  0  0  0  0  0  0  0  0  0  0  0
   -4.1387    2.0708    0.6945 C   0  0  0  0  0  0  0  0  0  0  0  0
   -4.1492    0.7570    1.0865 C   0  0  0  0  0  0  0  0  0  0  0  0
   -5.2232    0.2476    1.4415 O   0  0  0  0  0  0  0  0  0  0  0  0
   -3.0196    0.0252    1.0914 N   0  0  0  0  0  0  0  0  0  0  0  0
   -3.0755   -1.3382    1.4789 C   0  0  0  0  0  0  0  0  0  0  0  0
   -3.4484   -2.3297    0.4505 C   0  0  0  0  0  0  0  0  0  0  0  0
   -2.5867   -2.8348   -0.4758 C   0  0  0  0  0  0  0  0  0  0  0  0
   -3.0017   -3.7765   -1.4033 C   0  0  0  0  0  0  0  0  0  0  0  0
   -4.2962   -4.2257   -1.4112 C   0  0  0  0  0  0  0  0  0  0  0  0
   -4.6492   -5.1493   -2.3428 F   0  0  0  0  0  0  0  0  0  0  0  0
   -5.1967   -3.7437   -0.4950 C   0  0  0  0  0  0  0  0  0  0  0  0
   -4.7538   -2.8071    0.4158 C   0  0  0  0  0  0  0  0  0  0  0  0
   10.0346   -0.5922   -1.3478 H   0  0  0  0  0  0  0  0  0  0  0  0
    8.0654    0.2220    0.4142 H   0  0  0  0  0  0  0  0  0  0  0  0
    6.0172    1.3344    1.2614 H   0  0  0  0  0  0  0  0  0  0  0  0
    3.7130   -0.9910   -1.5200 H   0  0  0  0  0  0  0  0  0  0  0  0
    5.6995   -2.0473   -2.3105 H   0  0  0  0  0  0  0  0  0  0  0  0
    1.6777   -1.1047   -0.5848 H   0  0  0  0  0  0  0  0  0  0  0  0
    1.8251    0.2411   -1.7583 H   0  0  0  0  0  0  0  0  0  0  0  0
   -0.4008   -0.6134   -1.3729 H   0  0  0  0  0  0  0  0  0  0  0  0
   -0.1857    1.1498   -1.1437 H   0  0  0  0  0  0  0  0  0  0  0  0
   -0.4662   -1.0344    0.9552 H   0  0  0  0  0  0  0  0  0  0  0  0
    0.9576    0.1001    2.2369 H   0  0  0  0  0  0  0  0  0  0  0  0
   -0.3204    1.3391    2.3826 H   0  0  0  0  0  0  0  0  0  0  0  0
    0.6864    2.3749    0.2453 H   0  0  0  0  0  0  0  0  0  0  0  0
    1.8451    2.2672    1.6826 H   0  0  0  0  0  0  0  0  0  0  0  0
   -2.0536    4.4707   -0.4093 H   0  0  0  0  0  0  0  0  0  0  0  0
   -4.1890    5.7686   -0.3949 H   0  0  0  0  0  0  0  0  0  0  0  0
   -6.2535    4.6549    0.3230 H   0  0  0  0  0  0  0  0  0  0  0  0
   -6.2342    2.2871    1.0229 H   0  0  0  0  0  0  0  0  0  0  0  0
   -3.8145   -1.4183    2.3304 H   0  0  0  0  0  0  0  0  0  0  0  0
   -2.0778   -1.6837    1.8821 H   0  0  0  0  0  0  0  0  0  0  0  0
   -1.5527   -2.5425   -0.5306 H   0  0  0  0  0  0  0  0  0  0  0  0
   -2.2854   -4.1739   -2.1479 H   0  0  0  0  0  0  0  0  0  0  0  0
   -6.2297   -4.1015   -0.5003 H   0  0  0  0  0  0  0  0  0  0  0  0
   -5.5267   -2.4844    1.1260 H   0  0  0  0  0  0  0  0  0  0  0  0
  1  2  1  0
  2  3  2  0
  2  4  1  0
  4  5  2  0
  5  6  1  0
  6  7  2  0
  7  8  1  0
  8  9  2  0
  7 10  1  0
 10 11  2  0
 10 12  1  0
 12 13  1  0
 13 14  1  0
 14 15  1  0
 15 16  1  0
 16 17  1  0
 15 18  1  0
 18 19  2  0
 19 20  1  0
 20 21  2  0
 21 22  1  0
 22 23  2  0
 23 24  1  0
 24 25  2  0
 25 26  1  0
 26 27  2  0
 26 28  1  0
 28 29  1  0
 29 30  1  0
 30 31  2  0
 31 32  1  0
 32 33  2  0
 33 34  1  0
 33 35  1  0
 35 36  2  0
  9  4  1  0
 17 12  1  0
 28 18  1  0
 36 30  1  0
 25 20  1  0
  1 37  1  0
  5 38  1  0
  6 39  1  0
  8 40  1  0
  9 41  1  0
 13 42  1  0
 13 43  1  0
 14 44  1  0
 14 45  1  0
 15 46  1  0
 16 47  1  0
 16 48  1  0
 17 49  1  0
 17 50  1  0
 21 51  1  0
 22 52  1  0
 23 53  1  0
 24 54  1  0
 29 55  1  0
 29 56  1  0
 31 57  1  0
 32 58  1  0
 35 59  1  0
 36 60  1  0
M  END
$$$$
[H]N=C(N([H])[H])N([H])C([H])([H])C([H])([H])C([H])([H])[C@@]([H])(C(=O)c1nc([H])c([H])s1)N([H])C(=O)[C@@]([H])(N([H])C(=O)[C@@]([H])(N([H])[H])C([H])([H])c1c([H])c([H])c(O[H])c([H])c1[H])C([H])([H])c1c([H])c([H])c([H])c([H])c1[H]
     RDKit          3D

 72 74  0  0  0  0  0  0  0  0999 V2000
   -5.0091    1.1209    0.6811 N   0  0  0  0  0  0  0  0  0  0  0  0
   -3.9978    0.4189   -0.0933 C   0  0  1  0  0  0  0  0  0  0  0  0
   -3.2024    1.4292   -0.9033 C   0  0  0  0  0  0  0  0  0  0  0  0
   -4.0630    2.1921   -1.8334 C   0  0  0  0  0  0  0  0  0  0  0  0
   -4.2514    1.6949   -3.1035 C   0  0  0  0  0  0  0  0  0  0  0  0
   -5.0608    2.4077   -3.9844 C   0  0  0  0  0  0  0  0  0  0  0  0
   -5.6514    3.5876   -3.5672 C   0  0  0  0  0  0  0  0  0  0  0  0
   -6.4598    4.2949   -4.4543 O   0  0  0  0  0  0  0  0  0  0  0  0
   -5.4601    4.0847   -2.2897 C   0  0  0  0  0  0  0  0  0  0  0  0
   -4.6495    3.3679   -1.4124 C   0  0  0  0  0  0  0  0  0  0  0  0
   -3.0298   -0.2256    0.8194 C   0  0  0  0  0  0  0  0  0  0  0  0
   -3.1714   -0.0914    2.0521 O   0  0  0  0  0  0  0  0  0  0  0  0
   -1.9689   -0.9759    0.2989 N   0  0  0  0  0  0  0  0  0  0  0  0
   -1.0337   -1.5939    1.2298 C   0  0  1  0  0  0  0  0  0  0  0  0
   -1.2668   -3.0729    1.1375 C   0  0  0  0  0  0  0  0  0  0  0  0
   -1.0511   -3.6414   -0.2140 C   0  0  0  0  0  0  0  0  0  0  0  0
   -2.0588   -3.7326   -1.1686 C   0  0  0  0  0  0  0  0  0  0  0  0
   -1.8669   -4.2633   -2.4259 C   0  0  0  0  0  0  0  0  0  0  0  0
   -0.6246   -4.7346   -2.7817 C   0  0  0  0  0  0  0  0  0  0  0  0
    0.4009   -4.6647   -1.8700 C   0  0  0  0  0  0  0  0  0  0  0  0
    0.1786   -4.1240   -0.6082 C   0  0  0  0  0  0  0  0  0  0  0  0
    0.3190   -1.1444    0.9141 C   0  0  0  0  0  0  0  0  0  0  0  0
    0.5096   -0.3850   -0.0886 O   0  0  0  0  0  0  0  0  0  0  0  0
    1.4536   -1.5113    1.6789 N   0  0  0  0  0  0  0  0  0  0  0  0
    2.7552   -0.9886    1.2570 C   0  0  1  0  0  0  0  0  0  0  0  0
    3.2219    0.0603    2.2649 C   0  0  0  0  0  0  0  0  0  0  0  0
    2.1471    1.1566    2.2614 C   0  0  0  0  0  0  0  0  0  0  0  0
    2.5608    2.2434    3.2482 C   0  0  0  0  0  0  0  0  0  0  0  0
    3.8291    2.7840    2.8104 N   0  0  0  0  0  0  0  0  0  0  0  0
    3.8386    3.5322    1.6119 C   0  0  0  0  0  0  0  0  0  0  0  0
    4.6531    3.2132    0.5011 N   0  0  0  0  0  0  0  0  0  0  0  0
    3.0417    4.5622    1.5655 N   0  0  0  0  0  0  0  0  0  0  0  0
    3.6847   -2.1161    1.1708 C   0  0  0  0  0  0  0  0  0  0  0  0
    3.3680   -3.2917    1.4940 O   0  0  0  0  0  0  0  0  0  0  0  0
    5.0607   -1.8835    0.6835 C   0  0  0  0  0  0  0  0  0  0  0  0
    5.6345   -0.7656    0.2766 N   0  0  0  0  0  0  0  0  0  0  0  0
    6.8664   -0.7715   -0.1180 C   0  0  0  0  0  0  0  0  0  0  0  0
    7.5401   -1.9638   -0.0973 C   0  0  0  0  0  0  0  0  0  0  0  0
    6.3407   -3.0242    0.4995 S   0  0  0  0  0  0  0  0  0  0  0  0
   -5.9141    0.6274    0.6468 H   0  0  0  0  0  0  0  0  0  0  0  0
   -4.6745    1.3363    1.6468 H   0  0  0  0  0  0  0  0  0  0  0  0
   -4.4892   -0.2642   -0.7886 H   0  0  0  0  0  0  0  0  0  0  0  0
   -2.4111    0.8577   -1.4436 H   0  0  0  0  0  0  0  0  0  0  0  0
   -2.6778    2.0910   -0.1831 H   0  0  0  0  0  0  0  0  0  0  0  0
   -3.7947    0.7643   -3.4553 H   0  0  0  0  0  0  0  0  0  0  0  0
   -5.2106    2.0207   -4.9801 H   0  0  0  0  0  0  0  0  0  0  0  0
   -6.9004    5.1547   -4.1737 H   0  0  0  0  0  0  0  0  0  0  0  0
   -5.9138    5.0039   -1.9508 H   0  0  0  0  0  0  0  0  0  0  0  0
   -4.4829    3.7365   -0.4037 H   0  0  0  0  0  0  0  0  0  0  0  0
   -1.7896   -1.1273   -0.7189 H   0  0  0  0  0  0  0  0  0  0  0  0
   -1.2861   -1.3149    2.2865 H   0  0  0  0  0  0  0  0  0  0  0  0
   -0.6791   -3.6380    1.9164 H   0  0  0  0  0  0  0  0  0  0  0  0
   -2.3392   -3.2327    1.4449 H   0  0  0  0  0  0  0  0  0  0  0  0
   -3.0228   -3.3703   -0.9019 H   0  0  0  0  0  0  0  0  0  0  0  0
   -2.6772   -4.3215   -3.1548 H   0  0  0  0  0  0  0  0  0  0  0  0
   -0.5006   -5.1405   -3.7589 H   0  0  0  0  0  0  0  0  0  0  0  0
    1.3736   -5.0418   -2.1696 H   0  0  0  0  0  0  0  0  0  0  0  0
    1.0283   -4.1073    0.0458 H   0  0  0  0  0  0  0  0  0  0  0  0
    1.4135   -2.1254    2.5145 H   0  0  0  0  0  0  0  0  0  0  0  0
    2.6750   -0.4496    0.3000 H   0  0  0  0  0  0  0  0  0  0  0  0
    3.3662   -0.3491    3.2682 H   0  0  0  0  0  0  0  0  0  0  0  0
    4.1158    0.5370    1.8399 H   0  0  0  0  0  0  0  0  0  0  0  0
    1.1685    0.7772    2.5695 H   0  0  0  0  0  0  0  0  0  0  0  0
    2.0728    1.6275    1.2823 H   0  0  0  0  0  0  0  0  0  0  0  0
    1.7739    3.0015    3.2571 H   0  0  0  0  0  0  0  0  0  0  0  0
    2.6599    1.7868    4.2621 H   0  0  0  0  0  0  0  0  0  0  0  0
    4.6754    2.6051    3.3851 H   0  0  0  0  0  0  0  0  0  0  0  0
    4.9865    2.2487    0.3187 H   0  0  0  0  0  0  0  0  0  0  0  0
    4.9447    3.9573   -0.1765 H   0  0  0  0  0  0  0  0  0  0  0  0
    3.0165    5.1423    0.7008 H   0  0  0  0  0  0  0  0  0  0  0  0
    7.3774    0.1530   -0.4673 H   0  0  0  0  0  0  0  0  0  0  0  0
    8.5886   -2.1311   -0.4014 H   0  0  0  0  0  0  0  0  0  0  0  0
  1  2  1  0
  2  3  1  0
  3  4  1  0
  4  5  2  0
  5  6  1  0
  6  7  2  0
  7  8  1  0
  7  9  1  0
  9 10  2  0
  2 11  1  0
 11 12  2  0
 11 13  1  0
 13 14  1  0
 14 15  1  0
 15 16  1  0
 16 17  2  0
 17 18  1  0
 18 19  2  0
 19 20  1  0
 20 21  2  0
 14 22  1  0
 22 23  2  0
 22 24  1  0
 24 25  1  0
 25 26  1  0
 26 27  1  0
 27 28  1  0
 28 29  1  0
 29 30  1  0
 30 31  1  0
 30 32  2  3
 25 33  1  0
 33 34  2  0
 33 35  1  0
 35 36  2  0
 36 37  1  0
 37 38  2  0
 38 39  1  0
 10  4  1  0
 21 16  1  0
 39 35  1  0
  1 40  1  0
  1 41  1  0
  2 42  1  6
  3 43  1  0
  3 44  1  0
  5 45  1  0
  6 46  1  0
  8 47  1  0
  9 48  1  0
 10 49  1  0
 13 50  1  0
 14 51  1  1
 15 52  1  0
 15 53  1  0
 17 54  1  0
 18 55  1  0
 19 56  1  0
 20 57  1  0
 21 58  1  0
 24 59  1  0
 25 60  1  6
 26 61  1  0
 26 62  1  0
 27 63  1  0
 27 64  1  0
 28 65  1  0
 28 66  1  0
 29 67  1  0
 31 68  1  0
 31 69  1  0
 32 70  1  0
 37 71  1  0
 38 72  1  0
M  END
$$$$
[H]c1nc2c(C([H])([H])[H])c([H])c(-c3c(C([H])(C([H])([H])[H])C([H])([H])[H])c4c([H])c(C5([H])C([H])([H])C([H])([H])N(C(=O)C([H])([H])C([H])([H])N([H])C([H])([H])C6([H])C([H])([H])C6([H])[H])C([H])([H])C5([H])[H])c([H])c([H])c4n3[H])c([H])n2n1
     RDKit          3D

 75 80  0  0  0  0  0  0  0  0999 V2000
   -2.8653    0.6221   -2.4066 C   0  0  0  0  0  0  0  0  0  0  0  0
   -3.8368   -0.2377   -1.6311 C   0  0  0  0  0  0  0  0  0  0  0  0
   -4.9353   -0.8083   -2.4106 C   0  0  0  0  0  0  0  0  0  0  0  0
   -3.9382    0.0313   -0.1905 C   0  0  0  0  0  0  0  0  0  0  0  0
   -4.9631    0.0194    0.6853 C   0  0  0  0  0  0  0  0  0  0  0  0
   -4.4734    0.0938    1.9781 N   0  0  0  0  0  0  0  0  0  0  0  0
   -3.1497    0.1586    1.9335 C   0  0  0  0  0  0  0  0  0  0  0  0
   -2.1755    0.2387    2.9366 C   0  0  0  0  0  0  0  0  0  0  0  0
   -0.8478    0.2789    2.6258 C   0  0  0  0  0  0  0  0  0  0  0  0
   -0.4200    0.2406    1.3078 C   0  0  0  0  0  0  0  0  0  0  0  0
   -1.4152    0.1621    0.3346 C   0  0  0  0  0  0  0  0  0  0  0  0
   -2.7615    0.1239    0.6307 C   0  0  0  0  0  0  0  0  0  0  0  0
    1.0034    0.2923    0.9481 C   0  0  0  0  0  0  0  0  0  0  0  0
    1.3486    0.7475   -0.4085 C   0  0  0  0  0  0  0  0  0  0  0  0
    2.7298    0.3350   -0.8222 C   0  0  0  0  0  0  0  0  0  0  0  0
    3.6184   -0.0428    0.2255 N   0  0  0  0  0  0  0  0  0  0  0  0
    3.1681   -0.6517    1.4672 C   0  0  0  0  0  0  0  0  0  0  0  0
    1.6955   -1.0419    1.2223 C   0  0  0  0  0  0  0  0  0  0  0  0
    5.0264    0.1669    0.0444 C   0  0  0  0  0  0  0  0  0  0  0  0
    5.4637    0.6463   -1.0405 O   0  0  0  0  0  0  0  0  0  0  0  0
    5.9386   -0.1777    1.1335 C   0  0  0  0  0  0  0  0  0  0  0  0
    7.3540   -0.0398    0.6902 C   0  0  0  0  0  0  0  0  0  0  0  0
    7.7274    1.2718    0.2234 N   0  0  0  0  0  0  0  0  0  0  0  0
    9.1584    1.2182   -0.0672 C   0  0  0  0  0  0  0  0  0  0  0  0
    9.4892    0.3275   -1.2274 C   0  0  0  0  0  0  0  0  0  0  0  0
   10.9453    0.2042   -1.6092 C   0  0  0  0  0  0  0  0  0  0  0  0
   10.2914   -0.9485   -0.9247 C   0  0  0  0  0  0  0  0  0  0  0  0
   -6.4182   -0.0680    0.4674 C   0  0  0  0  0  0  0  0  0  0  0  0
   -7.1188    0.5634   -0.5179 C   0  0  0  0  0  0  0  0  0  0  0  0
   -8.4693    0.3941   -0.7056 C   0  0  0  0  0  0  0  0  0  0  0  0
   -9.2112    1.0931   -1.7904 C   0  0  0  0  0  0  0  0  0  0  0  0
   -9.1324   -0.4652    0.1633 C   0  0  0  0  0  0  0  0  0  0  0  0
  -10.4354   -0.8013    0.1937 N   0  0  0  0  0  0  0  0  0  0  0  0
  -10.5685   -1.6489    1.2017 C   0  0  0  0  0  0  0  0  0  0  0  0
   -9.3712   -1.8302    1.7806 N   0  0  0  0  0  0  0  0  0  0  0  0
   -8.4363   -1.0871    1.1378 N   0  0  0  0  0  0  0  0  0  0  0  0
   -7.1370   -0.9226    1.3153 C   0  0  0  0  0  0  0  0  0  0  0  0
   -2.5562    1.5042   -1.8001 H   0  0  0  0  0  0  0  0  0  0  0  0
   -1.9938    0.1293   -2.8022 H   0  0  0  0  0  0  0  0  0  0  0  0
   -3.4245    0.9955   -3.3274 H   0  0  0  0  0  0  0  0  0  0  0  0
   -3.1198   -1.2596   -1.5960 H   0  0  0  0  0  0  0  0  0  0  0  0
   -5.4898    0.0025   -2.9459 H   0  0  0  0  0  0  0  0  0  0  0  0
   -5.5634   -1.5604   -1.9562 H   0  0  0  0  0  0  0  0  0  0  0  0
   -4.4838   -1.3859   -3.3154 H   0  0  0  0  0  0  0  0  0  0  0  0
   -5.0480    0.0976    2.8374 H   0  0  0  0  0  0  0  0  0  0  0  0
   -2.5016    0.2674    3.9605 H   0  0  0  0  0  0  0  0  0  0  0  0
   -0.0629    0.3414    3.3985 H   0  0  0  0  0  0  0  0  0  0  0  0
   -1.1274    0.0983   -0.6996 H   0  0  0  0  0  0  0  0  0  0  0  0
    1.4830    1.0012    1.6916 H   0  0  0  0  0  0  0  0  0  0  0  0
    1.2565    1.8814   -0.4073 H   0  0  0  0  0  0  0  0  0  0  0  0
    0.6797    0.3813   -1.2346 H   0  0  0  0  0  0  0  0  0  0  0  0
    3.1541    1.1986   -1.3902 H   0  0  0  0  0  0  0  0  0  0  0  0
    2.7172   -0.5196   -1.5612 H   0  0  0  0  0  0  0  0  0  0  0  0
    3.7730   -1.5059    1.7893 H   0  0  0  0  0  0  0  0  0  0  0  0
    3.1844    0.1290    2.2549 H   0  0  0  0  0  0  0  0  0  0  0  0
    1.6655   -1.6141    0.2789 H   0  0  0  0  0  0  0  0  0  0  0  0
    1.2680   -1.5861    2.0706 H   0  0  0  0  0  0  0  0  0  0  0  0
    5.7978    0.4712    2.0405 H   0  0  0  0  0  0  0  0  0  0  0  0
    5.8007   -1.2353    1.5113 H   0  0  0  0  0  0  0  0  0  0  0  0
    8.0168   -0.2566    1.5677 H   0  0  0  0  0  0  0  0  0  0  0  0
    7.6283   -0.7783   -0.0988 H   0  0  0  0  0  0  0  0  0  0  0  0
    7.5424    2.0051    0.9267 H   0  0  0  0  0  0  0  0  0  0  0  0
    9.7388    0.8665    0.8146 H   0  0  0  0  0  0  0  0  0  0  0  0
    9.4621    2.2742   -0.2696 H   0  0  0  0  0  0  0  0  0  0  0  0
    8.7461    0.2557   -2.0369 H   0  0  0  0  0  0  0  0  0  0  0  0
   11.1735    0.1268   -2.6901 H   0  0  0  0  0  0  0  0  0  0  0  0
   11.6418    0.8629   -1.0404 H   0  0  0  0  0  0  0  0  0  0  0  0
   10.5013   -1.1881    0.1287 H   0  0  0  0  0  0  0  0  0  0  0  0
   10.0859   -1.8418   -1.5706 H   0  0  0  0  0  0  0  0  0  0  0  0
   -6.5989    1.2719   -1.1729 H   0  0  0  0  0  0  0  0  0  0  0  0
  -10.2501    0.7257   -1.8485 H   0  0  0  0  0  0  0  0  0  0  0  0
   -9.1288    2.1850   -1.6305 H   0  0  0  0  0  0  0  0  0  0  0  0
   -8.7198    0.7702   -2.7579 H   0  0  0  0  0  0  0  0  0  0  0  0
  -11.5047   -2.1333    1.5208 H   0  0  0  0  0  0  0  0  0  0  0  0
   -6.6220   -1.4358    2.1048 H   0  0  0  0  0  0  0  0  0  0  0  0
  1  2  1  0
  2  3  1  0
  2  4  1  0
  4  5  2  0
  5  6  1  0
  6  7  1  0
  7  8  2  0
  8  9  1  0
  9 10  2  0
 10 11  1  0
 11 12  2  0
 10 13  1  0
 13 14  1  0
 14 15  1  0
 15 16  1  0
 16 17  1  0
 17 18  1  0
 16 19  1  0
 19 20  2  0
 19 21  1  0
 21 22  1  0
 22 23  1  0
 23 24  1  0
 24 25  1  0
 25 26  1  0
 26 27  1  0
  5 28  1  0
 28 29  1  0
 29 30  2  0
 30 31  1  0
 30 32  1  0
 32 33  2  0
 33 34  1  0
 34 35  2  0
 35 36  1  0
 36 37  1  0
 12  4  1  0
 18 13  1  0
 27 25  1  0
 37 28  2  0
 12  7  1  0
 36 32  1  0
  1 38  1  0
  1 39  1  0
  1 40  1  0
  2 41  1  0
  3 42  1  0
  3 43  1  0
  3 44  1  0
  6 45  1  0
  8 46  1  0
  9 47  1  0
 11 48  1  0
 13 49  1  0
 14 50  1  0
 14 51  1  0
 15 52  1  0
 15 53  1  0
 17 54  1  0
 17 55  1  0
 18 56  1  0
 18 57  1  0
 21 58  1  0
 21 59  1  0
 22 60  1  0
 22 61  1  0
 23 62  1  0
 24 63  1  0
 24 64  1  0
 25 65  1  0
 26 66  1  0
 26 67  1  0
 27 68  1  0
 27 69  1  0
 29 70  1  0
 31 71  1  0
 31 72  1  0
 31 73  1  0
 34 74  1  0
 37 75  1  0
M  END
$$$$
[H]c1sc(S(=O)(=O)N([H])c2c([H])c([H])c([H])c(C([H])([H])C([H])([H])c3nnc(-c4c([H])c([H])c(Cl)c(Cl)c4[H])o3)c2[H])c([H])c1[H]
     RDKit          3D

 45 48  0  0  0  0  0  0  0  0999 V2000
    8.3387   -0.0010    3.9567 Cl  0  0  0  0  0  0  0  0  0  0  0  0
    7.0324    0.3770    2.8448 C   0  0  0  0  0  0  0  0  0  0  0  0
    5.8103   -0.2417    2.9999 C   0  0  0  0  0  0  0  0  0  0  0  0
    4.8104    0.0777    2.1119 C   0  0  0  0  0  0  0  0  0  0  0  0
    4.9912    0.9927    1.0765 C   0  0  0  0  0  0  0  0  0  0  0  0
    6.2089    1.5850    0.9518 C   0  0  0  0  0  0  0  0  0  0  0  0
    7.2383    1.2901    1.8243 C   0  0  0  0  0  0  0  0  0  0  0  0
    8.8038    2.0357    1.6835 Cl  0  0  0  0  0  0  0  0  0  0  0  0
    3.8866    1.2772    0.1796 C   0  0  0  0  0  0  0  0  0  0  0  0
    3.9445    2.1388   -0.8511 N   0  0  0  0  0  0  0  0  0  0  0  0
    2.7581    2.1654   -1.4716 N   0  0  0  0  0  0  0  0  0  0  0  0
    1.9737    1.3087   -0.8068 C   0  0  0  0  0  0  0  0  0  0  0  0
    0.5408    0.9778   -1.1098 C   0  0  0  0  0  0  0  0  0  0  0  0
    0.5088   -0.1982   -2.0769 C   0  0  0  0  0  0  0  0  0  0  0  0
   -0.9244   -0.4837   -2.3425 C   0  0  0  0  0  0  0  0  0  0  0  0
   -1.5448    0.1569   -3.3937 C   0  0  0  0  0  0  0  0  0  0  0  0
   -2.8737   -0.0988   -3.6510 C   0  0  0  0  0  0  0  0  0  0  0  0
   -3.5451   -0.9955   -2.8408 C   0  0  0  0  0  0  0  0  0  0  0  0
   -2.9326   -1.6271   -1.8039 C   0  0  0  0  0  0  0  0  0  0  0  0
   -3.5771   -2.5520   -0.9501 N   0  0  0  0  0  0  0  0  0  0  0  0
   -5.1346   -2.2729   -0.2750 S   0  0  0  0  0  0  0  0  0  0  0  0
   -5.6079   -3.4303    0.5393 O   0  0  0  0  0  0  0  0  0  0  0  0
   -6.1225   -1.9989   -1.3500 O   0  0  0  0  0  0  0  0  0  0  0  0
   -5.0515   -0.8257    0.7434 C   0  0  0  0  0  0  0  0  0  0  0  0
   -5.3132   -0.7327    2.0842 C   0  0  0  0  0  0  0  0  0  0  0  0
   -5.1827    0.4836    2.6505 C   0  0  0  0  0  0  0  0  0  0  0  0
   -4.8032    1.5140    1.8447 C   0  0  0  0  0  0  0  0  0  0  0  0
   -4.6361    0.7713    0.3202 S   0  0  0  0  0  0  0  0  0  0  0  0
   -1.5845   -1.3782   -1.5300 C   0  0  0  0  0  0  0  0  0  0  0  0
    2.6717    0.7941    0.1717 O   0  0  0  0  0  0  0  0  0  0  0  0
    5.6546   -0.9591    3.8045 H   0  0  0  0  0  0  0  0  0  0  0  0
    3.8432   -0.3805    2.1958 H   0  0  0  0  0  0  0  0  0  0  0  0
    6.3755    2.3018    0.1532 H   0  0  0  0  0  0  0  0  0  0  0  0
    0.0681    0.6812   -0.1579 H   0  0  0  0  0  0  0  0  0  0  0  0
    0.1064    1.8777   -1.5541 H   0  0  0  0  0  0  0  0  0  0  0  0
    1.0215   -1.0787   -1.6526 H   0  0  0  0  0  0  0  0  0  0  0  0
    0.9710    0.0973   -3.0371 H   0  0  0  0  0  0  0  0  0  0  0  0
   -0.9882    0.8580   -4.0138 H   0  0  0  0  0  0  0  0  0  0  0  0
   -3.3363    0.4156   -4.4800 H   0  0  0  0  0  0  0  0  0  0  0  0
   -4.5773   -1.1772   -3.0632 H   0  0  0  0  0  0  0  0  0  0  0  0
   -3.0821   -3.4392   -0.7238 H   0  0  0  0  0  0  0  0  0  0  0  0
   -5.6173   -1.6550    2.6352 H   0  0  0  0  0  0  0  0  0  0  0  0
   -5.3742    0.6523    3.7300 H   0  0  0  0  0  0  0  0  0  0  0  0
   -4.6540    2.5633    2.1583 H   0  0  0  0  0  0  0  0  0  0  0  0
   -1.0953   -1.8665   -0.7217 H   0  0  0  0  0  0  0  0  0  0  0  0
  1  2  1  0
  2  3  2  0
  3  4  1  0
  4  5  2  0
  5  6  1  0
  6  7  2  0
  7  8  1  0
  5  9  1  0
  9 10  2  0
 10 11  1  0
 11 12  2  0
 12 13  1  0
 13 14  1  0
 14 15  1  0
 15 16  2  0
 16 17  1  0
 17 18  2  0
 18 19  1  0
 19 20  1  0
 20 21  1  0
 21 22  2  0
 21 23  2  0
 21 24  1  0
 24 25  2  0
 25 26  1  0
 26 27  2  0
 27 28  1  0
 19 29  2  0
 12 30  1  0
  7  2  1  0
 30  9  1  0
 29 15  1  0
 28 24  1  0
  3 31  1  0
  4 32  1  0
  6 33  1  0
 13 34  1  0
 13 35  1  0
 14 36  1  0
 14 37  1  0
 16 38  1  0
 17 39  1  0
 18 40  1  0
 20 41  1  0
 25 42  1  0
 26 43  1  0
 27 44  1  0
 29 45  1  0
M  END
$$$$
[H]Oc1c([H])c([H])c2c(c1[H])C([H])([H])C([H])([H])[C@]1([H])C([H])([H])C([H])([H])C([H])([H])C(C([H])([H])[H])(C([H])([H])[H])[C@@]1([H])C(=O)[C@]([H])(C([H])([H])C([H])([H])[H])O2
     RDKit          3D

 51 53  0  0  0  0  0  0  0  0999 V2000
    0.4956   -1.4297    1.2324 C   0  0  0  0  0  0  0  0  0  0  0  0
   -0.9900   -1.2563    0.8967 C   0  0  2  0  0  0  0  0  0  0  0  0
   -1.5327   -2.4539    0.2000 C   0  0  0  0  0  0  0  0  0  0  0  0
   -3.0342   -2.2614    0.0220 C   0  0  0  0  0  0  0  0  0  0  0  0
   -3.3044   -0.9937   -0.7619 C   0  0  0  0  0  0  0  0  0  0  0  0
   -2.6709    0.2096   -0.1019 C   0  0  0  0  0  0  0  0  0  0  0  0
   -3.4122    0.4850    1.1562 C   0  0  0  0  0  0  0  0  0  0  0  0
   -2.9379    1.3769   -1.0452 C   0  0  0  0  0  0  0  0  0  0  0  0
   -1.2012   -0.0497    0.0399 C   0  0  1  0  0  0  0  0  0  0  0  0
   -0.4694    1.1359    0.5509 C   0  0  0  0  0  0  0  0  0  0  0  0
   -1.0555    1.7216    1.4915 O   0  0  0  0  0  0  0  0  0  0  0  0
    0.8023    1.6918    0.1157 C   0  0  2  0  0  0  0  0  0  0  0  0
    0.5215    2.9236   -0.7994 C   0  0  0  0  0  0  0  0  0  0  0  0
   -0.2361    3.9807   -0.0749 C   0  0  0  0  0  0  0  0  0  0  0  0
    1.6840    0.9515   -0.6230 O   0  0  0  0  0  0  0  0  0  0  0  0
    2.7826    0.1792   -0.4508 C   0  0  0  0  0  0  0  0  0  0  0  0
    2.6210   -1.1688   -0.0982 C   0  0  0  0  0  0  0  0  0  0  0  0
    3.7502   -1.9329    0.0761 C   0  0  0  0  0  0  0  0  0  0  0  0
    5.0372   -1.4762   -0.0716 C   0  0  0  0  0  0  0  0  0  0  0  0
    6.1022   -2.3367    0.1297 O   0  0  0  0  0  0  0  0  0  0  0  0
    5.2157   -0.1654   -0.4178 C   0  0  0  0  0  0  0  0  0  0  0  0
    4.0949    0.6174   -0.5962 C   0  0  0  0  0  0  0  0  0  0  0  0
    1.2750   -1.7920    0.0266 C   0  0  0  0  0  0  0  0  0  0  0  0
    0.5632   -2.1592    2.0701 H   0  0  0  0  0  0  0  0  0  0  0  0
    0.8409   -0.4648    1.6312 H   0  0  0  0  0  0  0  0  0  0  0  0
   -1.5095   -1.1305    1.8580 H   0  0  0  0  0  0  0  0  0  0  0  0
   -1.3973   -3.4001    0.7579 H   0  0  0  0  0  0  0  0  0  0  0  0
   -1.1360   -2.5047   -0.8315 H   0  0  0  0  0  0  0  0  0  0  0  0
   -3.3929   -3.1038   -0.6104 H   0  0  0  0  0  0  0  0  0  0  0  0
   -3.5878   -2.2943    0.9584 H   0  0  0  0  0  0  0  0  0  0  0  0
   -2.9904   -1.1025   -1.8113 H   0  0  0  0  0  0  0  0  0  0  0  0
   -4.4072   -0.8282   -0.7168 H   0  0  0  0  0  0  0  0  0  0  0  0
   -2.9259    0.2545    2.0953 H   0  0  0  0  0  0  0  0  0  0  0  0
   -4.4100   -0.0377    1.1956 H   0  0  0  0  0  0  0  0  0  0  0  0
   -3.7081    1.5755    1.2277 H   0  0  0  0  0  0  0  0  0  0  0  0
   -3.0354    2.2877   -0.4225 H   0  0  0  0  0  0  0  0  0  0  0  0
   -2.1106    1.4739   -1.7499 H   0  0  0  0  0  0  0  0  0  0  0  0
   -3.9276    1.2157   -1.5076 H   0  0  0  0  0  0  0  0  0  0  0  0
   -0.8046   -0.2634   -0.9730 H   0  0  0  0  0  0  0  0  0  0  0  0
    1.2628    2.2089    1.0158 H   0  0  0  0  0  0  0  0  0  0  0  0
    0.0263    2.5994   -1.7163 H   0  0  0  0  0  0  0  0  0  0  0  0
    1.5393    3.2862   -1.0592 H   0  0  0  0  0  0  0  0  0  0  0  0
   -1.3150    3.9460   -0.2167 H   0  0  0  0  0  0  0  0  0  0  0  0
    0.0630    4.0347    1.0046 H   0  0  0  0  0  0  0  0  0  0  0  0
    0.1028    4.9723   -0.4953 H   0  0  0  0  0  0  0  0  0  0  0  0
    3.6012   -2.9919    0.3557 H   0  0  0  0  0  0  0  0  0  0  0  0
    6.4681   -2.8692   -0.6459 H   0  0  0  0  0  0  0  0  0  0  0  0
    6.2043    0.2219   -0.5417 H   0  0  0  0  0  0  0  0  0  0  0  0
    4.3318    1.6690   -0.8931 H   0  0  0  0  0  0  0  0  0  0  0  0
    1.4279   -2.8996    0.0544 H   0  0  0  0  0  0  0  0  0  0  0  0
    0.6892   -1.6521   -0.9298 H   0  0  0  0  0  0  0  0  0  0  0  0
  1  2  1  0
  2  3  1  0
  3  4  1  0
  4  5  1  0
  5  6  1  0
  6  7  1  0
  6  8  1  0
  6  9  1  0
  9 10  1  0
 10 11  2  0
 10 12  1  0
 12 13  1  0
 13 14  1  0
 12 15  1  0
 15 16  1  0
 16 17  2  0
 17 18  1  0
 18 19  2  0
 19 20  1  0
 19 21  1  0
 21 22  2  0
 17 23  1  0
 23  1  1  0
  9  2  1  0
 22 16  1  0
  1 24  1  0
  1 25  1  0
  2 26  1  1
  3 27  1  0
  3 28  1  0
  4 29  1  0
  4 30  1  0
  5 31  1  0
  5 32  1  0
  7 33  1  0
  7 34  1  0
  7 35  1  0
  8 36  1  0
  8 37  1  0
  8 38  1  0
  9 39  1  6
 12 40  1  1
 13 41  1  0
 13 42  1  0
 14 43  1  0
 14 44  1  0
 14 45  1  0
 18 46  1  0
 20 47  1  0
 21 48  1  0
 22 49  1  0
 23 50  1  0
 23 51  1  0
M  END
$$$$
[H]C1=C=C(S(=O)(=O)N([H])[C@@]([H])(N([H])[H])C([H])([H])c2c([H])c([H])c([H])c([N+](=O)[O-])c2[H])C([H])=C1[H]
     RDKit          3D

 34 35  0  0  0  0  0  0  0  0999 V2000
   -0.9476   -1.0325    1.8672 N   0  0  0  0  0  0  0  0  0  0  0  0
    0.2140   -0.4304    1.2172 C   0  0  1  0  0  0  0  0  0  0  0  0
   -0.2263    0.9149    0.6876 C   0  0  0  0  0  0  0  0  0  0  0  0
   -1.3366    0.6892   -0.2831 C   0  0  0  0  0  0  0  0  0  0  0  0
   -1.0973    0.4899   -1.6326 C   0  0  0  0  0  0  0  0  0  0  0  0
   -2.1200    0.2814   -2.5299 C   0  0  0  0  0  0  0  0  0  0  0  0
   -3.4163    0.2647   -2.1108 C   0  0  0  0  0  0  0  0  0  0  0  0
   -3.6941    0.4596   -0.7731 C   0  0  0  0  0  0  0  0  0  0  0  0
   -2.6583    0.6672    0.1134 C   0  0  0  0  0  0  0  0  0  0  0  0
   -5.0345    0.4473   -0.3105 N   0  0  0  0  0  0  0  0  0  0  0  0
   -6.0631    0.2373   -1.2133 O   0  0  0  0  0  0  0  0  0  0  0  0
   -5.2744    0.6262    0.9068 O   0  0  0  0  0  0  0  0  0  0  0  0
    1.2493   -0.3448    2.1931 N   0  0  0  0  0  0  0  0  0  0  0  0
    2.6531   -1.2161    1.7273 S   0  0  0  0  0  0  0  0  0  0  0  0
    3.6789   -1.2790    2.7951 O   0  0  0  0  0  0  0  0  0  0  0  0
    2.2218   -2.6473    1.4454 O   0  0  0  0  0  0  0  0  0  0  0  0
    3.2713   -0.5378    0.2680 C   0  0  0  0  0  0  0  0  0  0  0  0
    4.2353    0.5258    0.1168 C   0  0  0  0  0  0  0  0  0  0  0  0
    4.3831    0.7384   -1.2004 C   0  0  0  0  0  0  0  0  0  0  0  0
    3.5004   -0.2036   -1.8964 C   0  0  0  0  0  0  0  0  0  0  0  0
    2.9388   -0.9076   -0.9343 C   0  0  0  0  0  0  0  0  0  0  0  0
   -0.9197   -0.9001    2.9008 H   0  0  0  0  0  0  0  0  0  0  0  0
   -1.0707   -2.0285    1.5886 H   0  0  0  0  0  0  0  0  0  0  0  0
    0.5918   -1.0579    0.3805 H   0  0  0  0  0  0  0  0  0  0  0  0
   -0.6438    1.4821    1.5529 H   0  0  0  0  0  0  0  0  0  0  0  0
    0.5812    1.5141    0.2655 H   0  0  0  0  0  0  0  0  0  0  0  0
   -0.0859    0.4947   -2.0116 H   0  0  0  0  0  0  0  0  0  0  0  0
   -1.8868    0.1299   -3.5768 H   0  0  0  0  0  0  0  0  0  0  0  0
   -4.2380    0.0997   -2.8159 H   0  0  0  0  0  0  0  0  0  0  0  0
   -2.8655    0.8229    1.1762 H   0  0  0  0  0  0  0  0  0  0  0  0
    0.9639   -0.4914    3.1640 H   0  0  0  0  0  0  0  0  0  0  0  0
    4.7480    1.0581    0.9076 H   0  0  0  0  0  0  0  0  0  0  0  0
    5.0301    1.4655   -1.6498 H   0  0  0  0  0  0  0  0  0  0  0  0
    3.3180   -0.3316   -2.9349 H   0  0  0  0  0  0  0  0  0  0  0  0
  1  2  1  0
  2  3  1  0
  3  4  1  0
  4  5  2  0
  5  6  1  0
  6  7  2  0
  7  8  1  0
  8  9  2  0
  8 10  1  0
 10 11  1  0
 10 12  2  0
  2 13  1  0
 13 14  1  0
 14 15  2  0
 14 16  2  0
 14 17  1  0
 17 18  1  0
 18 19  2  0
 19 20  1  0
 20 21  2  0
  9  4  1  0
 21 17  2  0
  1 22  1  0
  1 23  1  0
  2 24  1  6
  3 25  1  0
  3 26  1  0
  5 27  1  0
  6 28  1  0
  7 29  1  0
  9 30  1  0
 13 31  1  0
 18 32  1  0
 19 33  1  0
 20 34  1  0
M  CHG  2  10   1  11  -1
M  END
$$$$
[H]OC([H])([H])C([H])([H])N([H])c1nc(N([H])c2c([H])c([H])c(C([H])=C3C([H])([H])C([H])([H])N([H])C([H])([H])C3([H])[H])c(C(F)(F)F)c2[H])nc([H])c1[H]
     RDKit          3D

 50 52  0  0  0  0  0  0  0  0999 V2000
   -2.9800   -2.6029   -2.0323 F   0  0  0  0  0  0  0  0  0  0  0  0
   -1.9404   -2.9557   -1.2258 C   0  0  0  0  0  0  0  0  0  0  0  0
   -0.9602   -3.4737   -2.0735 F   0  0  0  0  0  0  0  0  0  0  0  0
   -2.2023   -3.8873   -0.2778 F   0  0  0  0  0  0  0  0  0  0  0  0
   -1.3365   -1.7439   -0.5550 C   0  0  0  0  0  0  0  0  0  0  0  0
   -0.0216   -1.4372   -0.7449 C   0  0  0  0  0  0  0  0  0  0  0  0
    0.6332   -0.3319   -0.1710 C   0  0  0  0  0  0  0  0  0  0  0  0
    1.9886   -0.1129   -0.4552 N   0  0  0  0  0  0  0  0  0  0  0  0
    2.8770    0.6449    0.3129 C   0  0  0  0  0  0  0  0  0  0  0  0
    2.5979    1.2839    1.4534 N   0  0  0  0  0  0  0  0  0  0  0  0
    3.4410    2.0013    2.1855 C   0  0  0  0  0  0  0  0  0  0  0  0
    4.7398    2.1196    1.7563 C   0  0  0  0  0  0  0  0  0  0  0  0
    5.1043    1.4746    0.5664 C   0  0  0  0  0  0  0  0  0  0  0  0
    6.4486    1.6168    0.1329 N   0  0  0  0  0  0  0  0  0  0  0  0
    6.9098    0.9603   -1.0533 C   0  0  0  0  0  0  0  0  0  0  0  0
    6.9183   -0.5439   -0.9702 C   0  0  0  0  0  0  0  0  0  0  0  0
    7.7534   -0.9736    0.0689 O   0  0  0  0  0  0  0  0  0  0  0  0
    4.1862    0.7767   -0.0999 N   0  0  0  0  0  0  0  0  0  0  0  0
   -0.1467    0.4512    0.6174 C   0  0  0  0  0  0  0  0  0  0  0  0
   -1.5062    0.1520    0.8275 C   0  0  0  0  0  0  0  0  0  0  0  0
   -2.1061   -0.9368    0.2491 C   0  0  0  0  0  0  0  0  0  0  0  0
   -3.4982   -1.2061    0.5294 C   0  0  0  0  0  0  0  0  0  0  0  0
   -4.4942   -0.3731    0.5254 C   0  0  0  0  0  0  0  0  0  0  0  0
   -5.8812   -0.8680    0.8527 C   0  0  0  0  0  0  0  0  0  0  0  0
   -6.6492   -0.7658   -0.4628 C   0  0  0  0  0  0  0  0  0  0  0  0
   -6.5083    0.5450   -1.0494 N   0  0  0  0  0  0  0  0  0  0  0  0
   -5.8862    1.4747   -0.1430 C   0  0  0  0  0  0  0  0  0  0  0  0
   -4.4411    1.0748    0.2019 C   0  0  0  0  0  0  0  0  0  0  0  0
    0.5787   -2.0799   -1.3806 H   0  0  0  0  0  0  0  0  0  0  0  0
    2.3674   -0.5674   -1.3406 H   0  0  0  0  0  0  0  0  0  0  0  0
    3.1436    2.4947    3.1045 H   0  0  0  0  0  0  0  0  0  0  0  0
    5.4774    2.6788    2.2893 H   0  0  0  0  0  0  0  0  0  0  0  0
    7.1197    2.2121    0.6897 H   0  0  0  0  0  0  0  0  0  0  0  0
    7.9773    1.2580   -1.2663 H   0  0  0  0  0  0  0  0  0  0  0  0
    6.3324    1.2508   -1.9702 H   0  0  0  0  0  0  0  0  0  0  0  0
    7.3780   -0.9618   -1.9049 H   0  0  0  0  0  0  0  0  0  0  0  0
    5.9213   -0.9574   -0.7970 H   0  0  0  0  0  0  0  0  0  0  0  0
    8.5572   -0.3919    0.0776 H   0  0  0  0  0  0  0  0  0  0  0  0
    0.2531    1.3291    1.0870 H   0  0  0  0  0  0  0  0  0  0  0  0
   -2.0240    0.8414    1.4774 H   0  0  0  0  0  0  0  0  0  0  0  0
   -3.7203   -2.2570    0.7789 H   0  0  0  0  0  0  0  0  0  0  0  0
   -6.3548   -0.2728    1.6326 H   0  0  0  0  0  0  0  0  0  0  0  0
   -5.8709   -1.9318    1.1515 H   0  0  0  0  0  0  0  0  0  0  0  0
   -6.1959   -1.5057   -1.1504 H   0  0  0  0  0  0  0  0  0  0  0  0
   -7.7148   -1.0465   -0.3205 H   0  0  0  0  0  0  0  0  0  0  0  0
   -5.9659    0.5478   -1.9377 H   0  0  0  0  0  0  0  0  0  0  0  0
   -5.8172    2.4659   -0.6349 H   0  0  0  0  0  0  0  0  0  0  0  0
   -6.4840    1.5946    0.7680 H   0  0  0  0  0  0  0  0  0  0  0  0
   -4.1605    1.7269    1.0261 H   0  0  0  0  0  0  0  0  0  0  0  0
   -3.8373    1.2092   -0.7301 H   0  0  0  0  0  0  0  0  0  0  0  0
  1  2  1  0
  2  3  1  0
  2  4  1  0
  2  5  1  0
  5  6  2  0
  6  7  1  0
  7  8  1  0
  8  9  1  0
  9 10  2  0
 10 11  1  0
 11 12  2  0
 12 13  1  0
 13 14  1  0
 14 15  1  0
 15 16  1  0
 16 17  1  0
 13 18  2  0
  7 19  2  0
 19 20  1  0
 20 21  2  0
 21 22  1  0
 22 23  2  3
 23 24  1  0
 24 25  1  0
 25 26  1  0
 26 27  1  0
 27 28  1  0
 21  5  1  0
 28 23  1  0
 18  9  1  0
  6 29  1  0
  8 30  1  0
 11 31  1  0
 12 32  1  0
 14 33  1  0
 15 34  1  0
 15 35  1  0
 16 36  1  0
 16 37  1  0
 17 38  1  0
 19 39  1  0
 20 40  1  0
 22 41  1  0
 24 42  1  0
 24 43  1  0
 25 44  1  0
 25 45  1  0
 26 46  1  0
 27 47  1  0
 27 48  1  0
 28 49  1  0
 28 50  1  0
M  END
$$$$
[H]c1c([H])c([H])c(C([H])([H])[C@]2([H])N3C([H])([H])C([H])([H])C([H])(C([H])([H])C3([H])[H])[C@@]2([H])N([H])C(=O)c2c([H])c([H])c(Cl)c([H])c2[H])c([H])c1[H]
     RDKit          3D

 48 51  0  0  0  0  0  0  0  0999 V2000
    7.4362    3.0935   -0.3290 Cl  0  0  0  0  0  0  0  0  0  0  0  0
    5.9735    2.1714   -0.0194 C   0  0  0  0  0  0  0  0  0  0  0  0
    5.0909    1.8810   -1.0213 C   0  0  0  0  0  0  0  0  0  0  0  0
    3.9361    1.1528   -0.7760 C   0  0  0  0  0  0  0  0  0  0  0  0
    3.6428    0.6993    0.4861 C   0  0  0  0  0  0  0  0  0  0  0  0
    4.5592    1.0098    1.4862 C   0  0  0  0  0  0  0  0  0  0  0  0
    5.7011    1.7297    1.2444 C   0  0  0  0  0  0  0  0  0  0  0  0
    2.4430   -0.0677    0.7874 C   0  0  0  0  0  0  0  0  0  0  0  0
    2.2773   -0.4337    1.9910 O   0  0  0  0  0  0  0  0  0  0  0  0
    1.4835   -0.4048   -0.2055 N   0  0  0  0  0  0  0  0  0  0  0  0
    0.2904   -1.1791    0.1459 C   0  0  2  0  0  0  0  0  0  0  0  0
    0.2684   -2.4727   -0.6585 C   0  0  0  0  0  0  0  0  0  0  0  0
   -0.2615   -2.1587   -2.0601 C   0  0  0  0  0  0  0  0  0  0  0  0
   -1.7254   -1.8045   -1.9916 C   0  0  0  0  0  0  0  0  0  0  0  0
   -1.9930   -1.3387   -0.6281 N   0  0  0  0  0  0  0  0  0  0  0  0
   -2.0037   -2.5194    0.2095 C   0  0  0  0  0  0  0  0  0  0  0  0
   -0.7660   -3.3680    0.0297 C   0  0  0  0  0  0  0  0  0  0  0  0
   -0.9629   -0.3951   -0.2516 C   0  0  1  0  0  0  0  0  0  0  0  0
   -1.3896    0.3954    0.9296 C   0  0  0  0  0  0  0  0  0  0  0  0
   -2.5686    1.2206    0.7760 C   0  0  0  0  0  0  0  0  0  0  0  0
   -3.8036    0.6805    1.0712 C   0  0  0  0  0  0  0  0  0  0  0  0
   -4.9698    1.4432    0.9367 C   0  0  0  0  0  0  0  0  0  0  0  0
   -4.8851    2.7504    0.5041 C   0  0  0  0  0  0  0  0  0  0  0  0
   -3.6576    3.3044    0.2052 C   0  0  0  0  0  0  0  0  0  0  0  0
   -2.5217    2.5198    0.3497 C   0  0  0  0  0  0  0  0  0  0  0  0
    5.2876    2.2194   -2.0205 H   0  0  0  0  0  0  0  0  0  0  0  0
    3.2674    0.9473   -1.5996 H   0  0  0  0  0  0  0  0  0  0  0  0
    4.3298    0.6492    2.4993 H   0  0  0  0  0  0  0  0  0  0  0  0
    6.3941    1.9508    2.0617 H   0  0  0  0  0  0  0  0  0  0  0  0
    1.6126   -0.1101   -1.1856 H   0  0  0  0  0  0  0  0  0  0  0  0
    0.3157   -1.4032    1.2140 H   0  0  0  0  0  0  0  0  0  0  0  0
    1.2373   -2.9699   -0.6979 H   0  0  0  0  0  0  0  0  0  0  0  0
   -0.1486   -3.0741   -2.6829 H   0  0  0  0  0  0  0  0  0  0  0  0
    0.3460   -1.3439   -2.4624 H   0  0  0  0  0  0  0  0  0  0  0  0
   -2.3528   -2.6841   -2.1899 H   0  0  0  0  0  0  0  0  0  0  0  0
   -1.9583   -0.9594   -2.6554 H   0  0  0  0  0  0  0  0  0  0  0  0
   -2.8633   -3.1363   -0.1243 H   0  0  0  0  0  0  0  0  0  0  0  0
   -2.1796   -2.2846    1.2723 H   0  0  0  0  0  0  0  0  0  0  0  0
   -0.3287   -3.6073    1.0306 H   0  0  0  0  0  0  0  0  0  0  0  0
   -0.9500   -4.2808   -0.5612 H   0  0  0  0  0  0  0  0  0  0  0  0
   -0.6909    0.1737   -1.1374 H   0  0  0  0  0  0  0  0  0  0  0  0
   -0.5439    1.0575    1.2699 H   0  0  0  0  0  0  0  0  0  0  0  0
   -1.5527   -0.3081    1.7766 H   0  0  0  0  0  0  0  0  0  0  0  0
   -3.9267   -0.3330    1.4122 H   0  0  0  0  0  0  0  0  0  0  0  0
   -5.9295    0.9768    1.1812 H   0  0  0  0  0  0  0  0  0  0  0  0
   -5.7829    3.3431    0.3988 H   0  0  0  0  0  0  0  0  0  0  0  0
   -3.6050    4.3313   -0.1333 H   0  0  0  0  0  0  0  0  0  0  0  0
   -1.5717    2.9366    0.1222 H   0  0  0  0  0  0  0  0  0  0  0  0
  1  2  1  0
  2  3  2  0
  3  4  1  0
  4  5  2  0
  5  6  1  0
  6  7  2  0
  5  8  1  0
  8  9  2  0
  8 10  1  0
 10 11  1  0
 11 12  1  0
 12 13  1  0
 13 14  1  0
 14 15  1  0
 15 16  1  0
 16 17  1  0
 15 18  1  0
 18 19  1  0
 19 20  1  0
 20 21  2  0
 21 22  1  0
 22 23  2  0
 23 24  1  0
 24 25  2  0
  7  2  1  0
 18 11  1  0
 25 20  1  0
 17 12  1  0
  3 26  1  0
  4 27  1  0
  6 28  1  0
  7 29  1  0
 10 30  1  0
 11 31  1  1
 12 32  1  0
 13 33  1  0
 13 34  1  0
 14 35  1  0
 14 36  1  0
 16 37  1  0
 16 38  1  0
 17 39  1  0
 17 40  1  0
 18 41  1  6
 19 42  1  0
 19 43  1  0
 21 44  1  0
 22 45  1  0
 23 46  1  0
 24 47  1  0
 25 48  1  0
M  END
$$$$
[H]c1c(C([H])([H])C([H])([H])[H])nc(C2(N3C([H])([H])C([H])([H])C([H])(C(=O)N([H])c4c([H])c([H])c(C([H])([H])[H])c(Cl)c4[H])C([H])([H])C3([H])[H])C([H])([H])C([H])([H])C2([H])[H])c([H])c1[H]
     RDKit          3D

 59 62  0  0  0  0  0  0  0  0999 V2000
   -7.3489    2.5097   -0.1750 C   0  0  0  0  0  0  0  0  0  0  0  0
   -6.7181    1.1681    0.0622 C   0  0  0  0  0  0  0  0  0  0  0  0
   -5.2708    1.1671   -0.2269 C   0  0  0  0  0  0  0  0  0  0  0  0
   -4.6389    2.3091   -0.6638 C   0  0  0  0  0  0  0  0  0  0  0  0
   -3.2697    2.2919   -0.9282 C   0  0  0  0  0  0  0  0  0  0  0  0
   -2.5684    1.1250   -0.7449 C   0  0  0  0  0  0  0  0  0  0  0  0
   -3.2052    0.0020   -0.3099 C   0  0  0  0  0  0  0  0  0  0  0  0
   -4.5312    0.0579   -0.0669 N   0  0  0  0  0  0  0  0  0  0  0  0
   -2.5205   -1.3048   -0.0853 C   0  0  0  0  0  0  0  0  0  0  0  0
   -3.0654   -2.3193   -1.0446 C   0  0  0  0  0  0  0  0  0  0  0  0
   -3.7682   -3.0210    0.0943 C   0  0  0  0  0  0  0  0  0  0  0  0
   -3.1525   -2.0551    1.0630 C   0  0  0  0  0  0  0  0  0  0  0  0
   -1.1096   -1.2139    0.0615 N   0  0  0  0  0  0  0  0  0  0  0  0
   -0.6677   -0.5084    1.2289 C   0  0  0  0  0  0  0  0  0  0  0  0
    0.7581    0.0184    0.9789 C   0  0  0  0  0  0  0  0  0  0  0  0
    1.4957   -0.9574    0.0954 C   0  0  0  0  0  0  0  0  0  0  0  0
    1.0183   -2.3349    0.5025 C   0  0  0  0  0  0  0  0  0  0  0  0
   -0.4355   -2.4972    0.0083 C   0  0  0  0  0  0  0  0  0  0  0  0
    2.9481   -0.8514    0.1509 C   0  0  0  0  0  0  0  0  0  0  0  0
    3.7130   -1.8157    0.4331 O   0  0  0  0  0  0  0  0  0  0  0  0
    3.5447    0.4030   -0.1331 N   0  0  0  0  0  0  0  0  0  0  0  0
    4.9149    0.7101   -0.1633 C   0  0  0  0  0  0  0  0  0  0  0  0
    5.6425    0.3392   -1.3032 C   0  0  0  0  0  0  0  0  0  0  0  0
    6.9835    0.6452   -1.4129 C   0  0  0  0  0  0  0  0  0  0  0  0
    7.6142    1.3201   -0.3956 C   0  0  0  0  0  0  0  0  0  0  0  0
    9.0469    1.6694   -0.5009 C   0  0  0  0  0  0  0  0  0  0  0  0
    6.9146    1.6861    0.7250 C   0  0  0  0  0  0  0  0  0  0  0  0
    7.7617    2.5445    1.9933 Cl  0  0  0  0  0  0  0  0  0  0  0  0
    5.5550    1.3883    0.8629 C   0  0  0  0  0  0  0  0  0  0  0  0
   -6.9392    3.2877    0.5290 H   0  0  0  0  0  0  0  0  0  0  0  0
   -8.4670    2.4510   -0.0306 H   0  0  0  0  0  0  0  0  0  0  0  0
   -7.1998    2.8094   -1.2242 H   0  0  0  0  0  0  0  0  0  0  0  0
   -7.1823    0.4658   -0.6819 H   0  0  0  0  0  0  0  0  0  0  0  0
   -6.9728    0.7318    1.0454 H   0  0  0  0  0  0  0  0  0  0  0  0
   -5.2501    3.1891   -0.7788 H   0  0  0  0  0  0  0  0  0  0  0  0
   -2.8100    3.2195   -1.2746 H   0  0  0  0  0  0  0  0  0  0  0  0
   -1.5009    1.0877   -0.9426 H   0  0  0  0  0  0  0  0  0  0  0  0
   -3.8528   -1.9275   -1.7557 H   0  0  0  0  0  0  0  0  0  0  0  0
   -2.3501   -2.9004   -1.6307 H   0  0  0  0  0  0  0  0  0  0  0  0
   -4.8686   -2.9560    0.0827 H   0  0  0  0  0  0  0  0  0  0  0  0
   -3.4164   -4.0624    0.2303 H   0  0  0  0  0  0  0  0  0  0  0  0
   -2.4406   -2.5158    1.7811 H   0  0  0  0  0  0  0  0  0  0  0  0
   -3.8612   -1.4316    1.6524 H   0  0  0  0  0  0  0  0  0  0  0  0
   -0.6384   -1.1391    2.1415 H   0  0  0  0  0  0  0  0  0  0  0  0
   -1.2748    0.3771    1.4826 H   0  0  0  0  0  0  0  0  0  0  0  0
    0.7328    1.0340    0.5423 H   0  0  0  0  0  0  0  0  0  0  0  0
    1.2066    0.1127    1.9811 H   0  0  0  0  0  0  0  0  0  0  0  0
    1.1158   -0.8377   -0.9707 H   0  0  0  0  0  0  0  0  0  0  0  0
    1.6241   -3.0779   -0.0315 H   0  0  0  0  0  0  0  0  0  0  0  0
    1.0481   -2.5431    1.5677 H   0  0  0  0  0  0  0  0  0  0  0  0
   -0.8859   -3.2721    0.6415 H   0  0  0  0  0  0  0  0  0  0  0  0
   -0.3774   -2.7969   -1.0563 H   0  0  0  0  0  0  0  0  0  0  0  0
    2.9041    1.2190   -0.3626 H   0  0  0  0  0  0  0  0  0  0  0  0
    5.1229   -0.1979   -2.1013 H   0  0  0  0  0  0  0  0  0  0  0  0
    7.5501    0.3568   -2.3086 H   0  0  0  0  0  0  0  0  0  0  0  0
    9.3114    2.0851   -1.5003 H   0  0  0  0  0  0  0  0  0  0  0  0
    9.6442    0.7352   -0.4170 H   0  0  0  0  0  0  0  0  0  0  0  0
    9.3683    2.3442    0.3206 H   0  0  0  0  0  0  0  0  0  0  0  0
    5.0191    1.6762    1.7529 H   0  0  0  0  0  0  0  0  0  0  0  0
  1  2  1  0
  2  3  1  0
  3  4  2  0
  4  5  1  0
  5  6  2  0
  6  7  1  0
  7  8  2  0
  7  9  1  0
  9 10  1  0
 10 11  1  0
 11 12  1  0
  9 13  1  0
 13 14  1  0
 14 15  1  0
 15 16  1  0
 16 17  1  0
 17 18  1  0
 16 19  1  0
 19 20  2  0
 19 21  1  0
 21 22  1  0
 22 23  2  0
 23 24  1  0
 24 25  2  0
 25 26  1  0
 25 27  1  0
 27 28  1  0
 27 29  2  0
  8  3  1  0
 12  9  1  0
 18 13  1  0
 29 22  1  0
  1 30  1  0
  1 31  1  0
  1 32  1  0
  2 33  1  0
  2 34  1  0
  4 35  1  0
  5 36  1  0
  6 37  1  0
 10 38  1  0
 10 39  1  0
 11 40  1  0
 11 41  1  0
 12 42  1  0
 12 43  1  0
 14 44  1  0
 14 45  1  0
 15 46  1  0
 15 47  1  0
 16 48  1  0
 17 49  1  0
 17 50  1  0
 18 51  1  0
 18 52  1  0
 21 53  1  0
 23 54  1  0
 24 55  1  0
 26 56  1  0
 26 57  1  0
 26 58  1  0
 29 59  1  0
M  END
$$$$
[H]c1c([H])c(-c2c([H])c([H])c3c(=O)n([H])c(=O)n(C([H])([H])[H])c3c2[H])c([H])c(Cl)c1Cl
     RDKit          3D

 31 33  0  0  0  0  0  0  0  0999 V2000
   -4.2606    0.6259   -0.8083 N   0  0  0  0  0  0  0  0  0  0  0  0
   -3.2562    1.3566   -1.3145 C   0  0  0  0  0  0  0  0  0  0  0  0
   -3.5343    2.3082   -2.0882 O   0  0  0  0  0  0  0  0  0  0  0  0
   -1.9523    1.0511   -0.9785 C   0  0  0  0  0  0  0  0  0  0  0  0
   -1.6449    0.0054   -0.1282 C   0  0  0  0  0  0  0  0  0  0  0  0
   -2.6928   -0.7144    0.3663 N   0  0  0  0  0  0  0  0  0  0  0  0
   -2.3822   -1.8116    1.2578 C   0  0  0  0  0  0  0  0  0  0  0  0
   -3.9425   -0.3854    0.0156 C   0  0  0  0  0  0  0  0  0  0  0  0
   -4.8880   -1.0637    0.4846 O   0  0  0  0  0  0  0  0  0  0  0  0
   -0.3463   -0.3096    0.2149 C   0  0  0  0  0  0  0  0  0  0  0  0
    0.7144    0.4161   -0.2833 C   0  0  0  0  0  0  0  0  0  0  0  0
    2.1063    0.0938    0.0721 C   0  0  0  0  0  0  0  0  0  0  0  0
    3.0879    1.0583    0.1484 C   0  0  0  0  0  0  0  0  0  0  0  0
    4.3877    0.7440    0.4822 C   0  0  0  0  0  0  0  0  0  0  0  0
    5.5548    2.0445    0.5507 Cl  0  0  0  0  0  0  0  0  0  0  0  0
    4.7518   -0.5561    0.7530 C   0  0  0  0  0  0  0  0  0  0  0  0
    6.4160   -0.8955    1.1710 Cl  0  0  0  0  0  0  0  0  0  0  0  0
    3.7741   -1.5255    0.6783 C   0  0  0  0  0  0  0  0  0  0  0  0
    2.4657   -1.2037    0.3415 C   0  0  0  0  0  0  0  0  0  0  0  0
    0.4105    1.4599   -1.1320 C   0  0  0  0  0  0  0  0  0  0  0  0
   -0.8880    1.7837   -1.4820 C   0  0  0  0  0  0  0  0  0  0  0  0
   -5.2670    0.8557   -1.0627 H   0  0  0  0  0  0  0  0  0  0  0  0
   -2.0013   -1.5029    2.2307 H   0  0  0  0  0  0  0  0  0  0  0  0
   -1.7279   -2.5557    0.7590 H   0  0  0  0  0  0  0  0  0  0  0  0
   -3.3516   -2.3559    1.4401 H   0  0  0  0  0  0  0  0  0  0  0  0
   -0.1970   -1.1375    0.8816 H   0  0  0  0  0  0  0  0  0  0  0  0
    2.8133    2.0794   -0.0618 H   0  0  0  0  0  0  0  0  0  0  0  0
    4.0740   -2.5354    0.8924 H   0  0  0  0  0  0  0  0  0  0  0  0
    1.7156   -1.9802    0.2889 H   0  0  0  0  0  0  0  0  0  0  0  0
    1.2059    2.0531   -1.5445 H   0  0  0  0  0  0  0  0  0  0  0  0
   -1.1449    2.5975   -2.1449 H   0  0  0  0  0  0  0  0  0  0  0  0
  1  2  1  0
  2  3  2  0
  2  4  1  0
  4  5  2  0
  5  6  1  0
  6  7  1  0
  6  8  1  0
  8  9  2  0
  5 10  1  0
 10 11  2  0
 11 12  1  0
 12 13  2  0
 13 14  1  0
 14 15  1  0
 14 16  2  0
 16 17  1  0
 16 18  1  0
 18 19  2  0
 11 20  1  0
 20 21  2  0
  8  1  1  0
 19 12  1  0
 21  4  1  0
  1 22  1  0
  7 23  1  0
  7 24  1  0
  7 25  1  0
 10 26  1  0
 13 27  1  0
 18 28  1  0
 19 29  1  0
 20 30  1  0
 21 31  1  0
M  END
$$$$
[H]c1c([H])c(C(=O)N2C([H])([H])C([H])([H])C([H])(N3C([H])([H])C([H])([H])C([H])([H])C([H])([H])C3([H])[H])C([H])([H])C2([H])[H])c([H])c(N([H])C(=O)c2c([H])c([H])c(Cl)c([H])c2[H])c1[H]
     RDKit          3D

 58 61  0  0  0  0  0  0  0  0999 V2000
   11.2372    1.7649   -1.6767 Cl  0  0  0  0  0  0  0  0  0  0  0  0
    9.5901    1.3720   -1.3254 C   0  0  0  0  0  0  0  0  0  0  0  0
    8.5834    1.7993   -2.1857 C   0  0  0  0  0  0  0  0  0  0  0  0
    7.2698    1.5106   -1.9428 C   0  0  0  0  0  0  0  0  0  0  0  0
    6.9219    0.7843   -0.8293 C   0  0  0  0  0  0  0  0  0  0  0  0
    7.9077    0.3513    0.0365 C   0  0  0  0  0  0  0  0  0  0  0  0
    9.2534    0.6403   -0.2018 C   0  0  0  0  0  0  0  0  0  0  0  0
    5.5074    0.4752   -0.5763 C   0  0  0  0  0  0  0  0  0  0  0  0
    4.7360    0.6605   -1.5329 O   0  0  0  0  0  0  0  0  0  0  0  0
    5.0564    0.0026    0.6628 N   0  0  0  0  0  0  0  0  0  0  0  0
    3.7424   -0.3413    1.0582 C   0  0  0  0  0  0  0  0  0  0  0  0
    3.4794   -0.5728    2.4171 C   0  0  0  0  0  0  0  0  0  0  0  0
    2.2270   -0.9149    2.8304 C   0  0  0  0  0  0  0  0  0  0  0  0
    1.1436   -1.0557    1.9516 C   0  0  0  0  0  0  0  0  0  0  0  0
    1.3626   -0.8381    0.6248 C   0  0  0  0  0  0  0  0  0  0  0  0
    2.6731   -0.4843    0.2213 C   0  0  0  0  0  0  0  0  0  0  0  0
    0.3251   -0.9410   -0.3611 C   0  0  0  0  0  0  0  0  0  0  0  0
    0.7742   -0.7327   -1.5894 O   0  0  0  0  0  0  0  0  0  0  0  0
   -1.0383   -1.2087   -0.3076 N   0  0  0  0  0  0  0  0  0  0  0  0
   -1.7748   -1.2306   -1.5962 C   0  0  0  0  0  0  0  0  0  0  0  0
   -3.0235   -0.4156   -1.5628 C   0  0  0  0  0  0  0  0  0  0  0  0
   -3.5963   -0.2876   -0.1702 C   0  0  0  0  0  0  0  0  0  0  0  0
   -3.2594   -1.6117    0.5159 C   0  0  0  0  0  0  0  0  0  0  0  0
   -1.7752   -1.4566    0.8953 C   0  0  0  0  0  0  0  0  0  0  0  0
   -5.0337   -0.1958   -0.2200 N   0  0  0  0  0  0  0  0  0  0  0  0
   -5.4876    0.9732   -0.9575 C   0  0  0  0  0  0  0  0  0  0  0  0
   -6.9941    0.8489   -1.0530 C   0  0  0  0  0  0  0  0  0  0  0  0
   -7.5559    1.1924    0.3010 C   0  0  0  0  0  0  0  0  0  0  0  0
   -6.5094    0.9869    1.3401 C   0  0  0  0  0  0  0  0  0  0  0  0
   -5.6079   -0.2022    1.1149 C   0  0  0  0  0  0  0  0  0  0  0  0
    8.8432    2.3725   -3.0670 H   0  0  0  0  0  0  0  0  0  0  0  0
    6.5303    1.8759   -2.6581 H   0  0  0  0  0  0  0  0  0  0  0  0
    7.7232   -0.2253    0.9282 H   0  0  0  0  0  0  0  0  0  0  0  0
   10.0352    0.3226    0.4437 H   0  0  0  0  0  0  0  0  0  0  0  0
    5.7962   -0.1196    1.4183 H   0  0  0  0  0  0  0  0  0  0  0  0
    4.3135   -0.4657    3.1105 H   0  0  0  0  0  0  0  0  0  0  0  0
    2.0266   -1.0957    3.9003 H   0  0  0  0  0  0  0  0  0  0  0  0
    0.2062   -1.3351    2.3998 H   0  0  0  0  0  0  0  0  0  0  0  0
    2.8306   -0.3251   -0.8296 H   0  0  0  0  0  0  0  0  0  0  0  0
   -1.9618   -2.3044   -1.7968 H   0  0  0  0  0  0  0  0  0  0  0  0
   -1.0686   -0.8836   -2.3663 H   0  0  0  0  0  0  0  0  0  0  0  0
   -2.8295    0.5519   -2.0588 H   0  0  0  0  0  0  0  0  0  0  0  0
   -3.7926   -0.9471   -2.1873 H   0  0  0  0  0  0  0  0  0  0  0  0
   -3.0886    0.5051    0.3727 H   0  0  0  0  0  0  0  0  0  0  0  0
   -3.2921   -2.4017   -0.2572 H   0  0  0  0  0  0  0  0  0  0  0  0
   -3.8667   -1.8310    1.3874 H   0  0  0  0  0  0  0  0  0  0  0  0
   -1.7398   -0.5553    1.5268 H   0  0  0  0  0  0  0  0  0  0  0  0
   -1.5412   -2.4057    1.4086 H   0  0  0  0  0  0  0  0  0  0  0  0
   -5.0750    0.8950   -1.9662 H   0  0  0  0  0  0  0  0  0  0  0  0
   -5.2723    1.9108   -0.4342 H   0  0  0  0  0  0  0  0  0  0  0  0
   -7.2873   -0.2014   -1.2937 H   0  0  0  0  0  0  0  0  0  0  0  0
   -7.4103    1.5083   -1.8479 H   0  0  0  0  0  0  0  0  0  0  0  0
   -8.4645    0.5730    0.4550 H   0  0  0  0  0  0  0  0  0  0  0  0
   -7.9061    2.2569    0.3440 H   0  0  0  0  0  0  0  0  0  0  0  0
   -7.0426    0.7859    2.3159 H   0  0  0  0  0  0  0  0  0  0  0  0
   -5.9141    1.9168    1.5486 H   0  0  0  0  0  0  0  0  0  0  0  0
   -4.7672   -0.1000    1.8310 H   0  0  0  0  0  0  0  0  0  0  0  0
   -6.1193   -1.1509    1.3346 H   0  0  0  0  0  0  0  0  0  0  0  0
  1  2  1  0
  2  3  2  0
  3  4  1  0
  4  5  2  0
  5  6  1  0
  6  7  2  0
  5  8  1  0
  8  9  2  0
  8 10  1  0
 10 11  1  0
 11 12  2  0
 12 13  1  0
 13 14  2  0
 14 15  1  0
 15 16  2  0
 15 17  1  0
 17 18  2  0
 17 19  1  0
 19 20  1  0
 20 21  1  0
 21 22  1  0
 22 23  1  0
 23 24  1  0
 22 25  1  0
 25 26  1  0
 26 27  1  0
 27 28  1  0
 28 29  1  0
 29 30  1  0
  7  2  1  0
 16 11  1  0
 24 19  1  0
 30 25  1  0
  3 31  1  0
  4 32  1  0
  6 33  1  0
  7 34  1  0
 10 35  1  0
 12 36  1  0
 13 37  1  0
 14 38  1  0
 16 39  1  0
 20 40  1  0
 20 41  1  0
 21 42  1  0
 21 43  1  0
 22 44  1  0
 23 45  1  0
 23 46  1  0
 24 47  1  0
 24 48  1  0
 26 49  1  0
 26 50  1  0
 27 51  1  0
 27 52  1  0
 28 53  1  0
 28 54  1  0
 29 55  1  0
 29 56  1  0
 30 57  1  0
 30 58  1  0
M  END
$$$$
[H]N=C(c1c([H])c([H])c([H])c(C([H])([H])[C@@]([H])(C(=O)N([H])[C@]2([H])C([H])([H])C([H])([H])[C@]([H])(N([H])[H])C([H])([H])C2([H])[H])N([H])C(=O)[C@@]2([H])N(C(=O)[C@@]3([H])N([H])C([H])([H])C([H])([H])C3([H])[H])[C@@]([H])(C([H])([H])[H])C([H])([H])C2([H])[H])c1[H])N([H])[H]
     RDKit          3D

 78 81  0  0  0  0  0  0  0  0999 V2000
    7.6057   -1.4136   -0.1701 C   0  0  0  0  0  0  0  0  0  0  0  0
    7.5791   -2.0626   -1.5542 C   0  0  0  0  0  0  0  0  0  0  0  0
    6.1305   -1.8616   -1.9637 C   0  0  0  0  0  0  0  0  0  0  0  0
    5.5548   -0.7178   -1.0829 C   0  0  1  0  0  0  0  0  0  0  0  0
    4.5732   -1.3438   -0.1602 C   0  0  0  0  0  0  0  0  0  0  0  0
    4.4259   -2.5776   -0.1872 O   0  0  0  0  0  0  0  0  0  0  0  0
    3.8187   -0.5662    0.7549 N   0  0  0  0  0  0  0  0  0  0  0  0
    4.0654    0.8755    0.9487 C   0  0  1  0  0  0  0  0  0  0  0  0
    3.6514    1.7889   -0.1075 C   0  0  0  0  0  0  0  0  0  0  0  0
    3.3846    1.2008    2.2820 C   0  0  0  0  0  0  0  0  0  0  0  0
    3.3264   -0.1550    2.9789 C   0  0  0  0  0  0  0  0  0  0  0  0
    2.8009   -0.9277    1.6874 C   0  0  1  0  0  0  0  0  0  0  0  0
    1.4355   -0.5128    1.4910 C   0  0  0  0  0  0  0  0  0  0  0  0
    0.6424   -0.6029    2.5269 O   0  0  0  0  0  0  0  0  0  0  0  0
    0.7906   -0.0129    0.3519 N   0  0  0  0  0  0  0  0  0  0  0  0
   -0.6712    0.4228    0.4071 C   0  0  1  0  0  0  0  0  0  0  0  0
   -0.6539    1.7150   -0.2993 C   0  0  0  0  0  0  0  0  0  0  0  0
   -1.8067    2.5496   -0.4593 C   0  0  0  0  0  0  0  0  0  0  0  0
   -2.1195    3.4425    0.5682 C   0  0  0  0  0  0  0  0  0  0  0  0
   -3.1793    4.3662    0.4817 C   0  0  0  0  0  0  0  0  0  0  0  0
   -3.4137    5.2880    1.5662 C   0  0  0  0  0  0  0  0  0  0  0  0
   -2.4413    5.3379    2.6137 N   0  0  0  0  0  0  0  0  0  0  0  0
   -4.4056    6.0592    1.6219 N   0  0  0  0  0  0  0  0  0  0  0  0
   -3.9265    4.3714   -0.6733 C   0  0  0  0  0  0  0  0  0  0  0  0
   -3.6327    3.5151   -1.6749 C   0  0  0  0  0  0  0  0  0  0  0  0
   -2.5878    2.6083   -1.5780 C   0  0  0  0  0  0  0  0  0  0  0  0
   -1.4808   -0.6718   -0.1206 C   0  0  0  0  0  0  0  0  0  0  0  0
   -2.8973   -0.7359   -0.1876 N   0  0  0  0  0  0  0  0  0  0  0  0
   -3.4719   -1.9846   -0.6935 C   0  0  1  0  0  0  0  0  0  0  0  0
   -4.2093   -2.6682    0.4517 C   0  0  0  0  0  0  0  0  0  0  0  0
   -4.5387   -4.0556   -0.0500 C   0  0  0  0  0  0  0  0  0  0  0  0
   -5.5658   -3.9145   -1.1572 C   0  0  1  0  0  0  0  0  0  0  0  0
   -6.8752   -4.2557   -0.5731 N   0  0  0  0  0  0  0  0  0  0  0  0
   -5.6816   -2.5220   -1.6811 C   0  0  0  0  0  0  0  0  0  0  0  0
   -4.3672   -1.8247   -1.8530 C   0  0  0  0  0  0  0  0  0  0  0  0
   -0.8157   -1.6919   -0.5538 O   0  0  0  0  0  0  0  0  0  0  0  0
    6.7538   -0.3005   -0.4046 N   0  0  0  0  0  0  0  0  0  0  0  0
    8.6355   -1.0557    0.0711 H   0  0  0  0  0  0  0  0  0  0  0  0
    7.2245   -2.1173    0.5833 H   0  0  0  0  0  0  0  0  0  0  0  0
    8.2230   -1.4490   -2.2176 H   0  0  0  0  0  0  0  0  0  0  0  0
    7.8766   -3.1408   -1.5178 H   0  0  0  0  0  0  0  0  0  0  0  0
    6.0072   -1.6343   -3.0451 H   0  0  0  0  0  0  0  0  0  0  0  0
    5.6078   -2.8012   -1.7577 H   0  0  0  0  0  0  0  0  0  0  0  0
    5.1631    0.0210   -1.7659 H   0  0  0  0  0  0  0  0  0  0  0  0
    5.1776    0.9934    1.2389 H   0  0  0  0  0  0  0  0  0  0  0  0
    4.4818    2.4938   -0.4401 H   0  0  0  0  0  0  0  0  0  0  0  0
    3.2604    1.2786   -1.0428 H   0  0  0  0  0  0  0  0  0  0  0  0
    2.8314    2.5177    0.1666 H   0  0  0  0  0  0  0  0  0  0  0  0
    2.3373    1.4908    2.0875 H   0  0  0  0  0  0  0  0  0  0  0  0
    3.8784    1.9734    2.8547 H   0  0  0  0  0  0  0  0  0  0  0  0
    4.3115   -0.5408    3.1944 H   0  0  0  0  0  0  0  0  0  0  0  0
    2.5309   -0.2608    3.6779 H   0  0  0  0  0  0  0  0  0  0  0  0
    2.8803   -1.9831    1.9753 H   0  0  0  0  0  0  0  0  0  0  0  0
    1.2152    0.0854   -0.5563 H   0  0  0  0  0  0  0  0  0  0  0  0
   -0.8688    0.5112    1.5284 H   0  0  0  0  0  0  0  0  0  0  0  0
    0.2273    2.2951    0.1793 H   0  0  0  0  0  0  0  0  0  0  0  0
   -0.1576    1.4891   -1.3251 H   0  0  0  0  0  0  0  0  0  0  0  0
   -1.5592    3.4586    1.4880 H   0  0  0  0  0  0  0  0  0  0  0  0
   -1.7800    6.1451    2.6984 H   0  0  0  0  0  0  0  0  0  0  0  0
   -2.3765    4.5691    3.3048 H   0  0  0  0  0  0  0  0  0  0  0  0
   -5.1403    6.1194    0.9248 H   0  0  0  0  0  0  0  0  0  0  0  0
   -4.7435    5.1026   -0.7298 H   0  0  0  0  0  0  0  0  0  0  0  0
   -4.2420    3.5485   -2.6009 H   0  0  0  0  0  0  0  0  0  0  0  0
   -2.4022    1.9432   -2.4030 H   0  0  0  0  0  0  0  0  0  0  0  0
   -3.5059    0.0372    0.1016 H   0  0  0  0  0  0  0  0  0  0  0  0
   -2.6497   -2.7038   -0.9660 H   0  0  0  0  0  0  0  0  0  0  0  0
   -5.0882   -2.0650    0.6627 H   0  0  0  0  0  0  0  0  0  0  0  0
   -3.4743   -2.7376    1.2829 H   0  0  0  0  0  0  0  0  0  0  0  0
   -4.9394   -4.6979    0.7683 H   0  0  0  0  0  0  0  0  0  0  0  0
   -3.6403   -4.5355   -0.4979 H   0  0  0  0  0  0  0  0  0  0  0  0
   -5.4112   -4.6394   -1.9764 H   0  0  0  0  0  0  0  0  0  0  0  0
   -6.9213   -5.2637   -0.2814 H   0  0  0  0  0  0  0  0  0  0  0  0
   -7.0236   -3.6665    0.2681 H   0  0  0  0  0  0  0  0  0  0  0  0
   -6.3322   -1.8746   -1.0888 H   0  0  0  0  0  0  0  0  0  0  0  0
   -6.1207   -2.6067   -2.7218 H   0  0  0  0  0  0  0  0  0  0  0  0
   -3.8910   -2.2461   -2.7971 H   0  0  0  0  0  0  0  0  0  0  0  0
   -4.6033   -0.7492   -2.0858 H   0  0  0  0  0  0  0  0  0  0  0  0
    7.2050    0.5344   -0.7866 H   0  0  0  0  0  0  0  0  0  0  0  0
  1  2  1  0
  2  3  1  0
  3  4  1  0
  4  5  1  0
  5  6  2  0
  5  7  1  0
  7  8  1  0
  8  9  1  0
  8 10  1  0
 10 11  1  0
 11 12  1  0
 12 13  1  0
 13 14  2  0
 13 15  1  0
 15 16  1  0
 16 17  1  0
 17 18  1  0
 18 19  2  0
 19 20  1  0
 20 21  1  0
 21 22  1  0
 21 23  2  3
 20 24  2  0
 24 25  1  0
 25 26  2  0
 16 27  1  0
 27 28  1  0
 28 29  1  0
 29 30  1  0
 30 31  1  0
 31 32  1  0
 32 33  1  0
 32 34  1  0
 34 35  1  0
 27 36  2  0
  4 37  1  0
 37  1  1  0
 12  7  1  0
 26 18  1  0
 35 29  1  0
  1 38  1  0
  1 39  1  0
  2 40  1  0
  2 41  1  0
  3 42  1  0
  3 43  1  0
  4 44  1  6
  8 45  1  1
  9 46  1  0
  9 47  1  0
  9 48  1  0
 10 49  1  0
 10 50  1  0
 11 51  1  0
 11 52  1  0
 12 53  1  1
 15 54  1  0
 16 55  1  1
 17 56  1  0
 17 57  1  0
 19 58  1  0
 22 59  1  0
 22 60  1  0
 23 61  1  0
 24 62  1  0
 25 63  1  0
 26 64  1  0
 28 65  1  0
 29 66  1  6
 30 67  1  0
 30 68  1  0
 31 69  1  0
 31 70  1  0
 32 71  1  6
 33 72  1  0
 33 73  1  0
 34 74  1  0
 34 75  1  0
 35 76  1  0
 35 77  1  0
 37 78  1  0
M  END
$$$$
[H]c1c([H])c([H])c([C@@]([H])(N([H])C(=O)[C@@]2([H])N(C(=O)[C@@]([H])(N([H])C(=O)N3C([H])([H])C([H])([H])C([H])(C(C([H])([H])[H])(C([H])([H])[H])C([H])([H])[H])C([H])([H])C3([H])[H])C([H])([H])[H])C([H])([H])C([H])([H])C2([H])[H])C([H])(C([H])([H])[H])C([H])([H])[H])c([H])c1[H]
     RDKit          3D

 79 81  0  0  0  0  0  0  0  0999 V2000
   -0.2653   -2.7436   -0.1040 C   0  0  0  0  0  0  0  0  0  0  0  0
   -0.0679   -1.7105   -1.1945 C   0  0  2  0  0  0  0  0  0  0  0  0
    0.9065   -0.7626   -0.6752 N   0  0  0  0  0  0  0  0  0  0  0  0
    2.0742   -0.5048   -1.4118 C   0  0  0  0  0  0  0  0  0  0  0  0
    2.2221   -1.1228   -2.5226 O   0  0  0  0  0  0  0  0  0  0  0  0
    3.1156    0.3852   -1.0397 N   0  0  0  0  0  0  0  0  0  0  0  0
    3.0501    1.1002    0.1954 C   0  0  0  0  0  0  0  0  0  0  0  0
    4.3703    1.4568    0.8052 C   0  0  0  0  0  0  0  0  0  0  0  0
    5.4838    1.6799   -0.1615 C   0  0  0  0  0  0  0  0  0  0  0  0
    5.5096    0.4666   -1.0873 C   0  0  0  0  0  0  0  0  0  0  0  0
    4.2627    0.5809   -1.9362 C   0  0  0  0  0  0  0  0  0  0  0  0
    6.8098    1.8908    0.5093 C   0  0  0  0  0  0  0  0  0  0  0  0
    7.8732    2.1114   -0.5607 C   0  0  0  0  0  0  0  0  0  0  0  0
    6.7511    3.1004    1.3806 C   0  0  0  0  0  0  0  0  0  0  0  0
    7.2490    0.6673    1.2915 C   0  0  0  0  0  0  0  0  0  0  0  0
   -1.3364   -1.0373   -1.5504 C   0  0  0  0  0  0  0  0  0  0  0  0
   -1.4106    0.1968   -1.3664 O   0  0  0  0  0  0  0  0  0  0  0  0
   -2.4654   -1.7022   -2.0841 N   0  0  0  0  0  0  0  0  0  0  0  0
   -2.3934   -3.1585   -2.3334 C   0  0  0  0  0  0  0  0  0  0  0  0
   -3.3363   -3.2938   -3.5544 C   0  0  0  0  0  0  0  0  0  0  0  0
   -4.4557   -2.4333   -3.0318 C   0  0  0  0  0  0  0  0  0  0  0  0
   -3.7501   -1.2447   -2.4740 C   0  0  1  0  0  0  0  0  0  0  0  0
   -4.5358   -0.5676   -1.4215 C   0  0  0  0  0  0  0  0  0  0  0  0
   -5.5944    0.0227   -1.8103 O   0  0  0  0  0  0  0  0  0  0  0  0
   -4.2241   -0.5236   -0.0724 N   0  0  0  0  0  0  0  0  0  0  0  0
   -5.0077    0.1480    0.9461 C   0  0  1  0  0  0  0  0  0  0  0  0
   -5.4714   -0.8119    2.0162 C   0  0  0  0  0  0  0  0  0  0  0  0
   -6.3355   -1.9179    1.4457 C   0  0  0  0  0  0  0  0  0  0  0  0
   -4.3402   -1.4332    2.7973 C   0  0  0  0  0  0  0  0  0  0  0  0
   -4.2666    1.2357    1.6236 C   0  0  0  0  0  0  0  0  0  0  0  0
   -4.9356    2.4144    1.8700 C   0  0  0  0  0  0  0  0  0  0  0  0
   -4.3642    3.5086    2.4882 C   0  0  0  0  0  0  0  0  0  0  0  0
   -3.0380    3.4014    2.8790 C   0  0  0  0  0  0  0  0  0  0  0  0
   -2.3619    2.2062    2.6283 C   0  0  0  0  0  0  0  0  0  0  0  0
   -2.9574    1.1506    2.0173 C   0  0  0  0  0  0  0  0  0  0  0  0
   -0.1782   -3.7461   -0.5605 H   0  0  0  0  0  0  0  0  0  0  0  0
    0.4359   -2.6100    0.7444 H   0  0  0  0  0  0  0  0  0  0  0  0
   -1.2730   -2.6792    0.3522 H   0  0  0  0  0  0  0  0  0  0  0  0
    0.3402   -2.1854   -2.1140 H   0  0  0  0  0  0  0  0  0  0  0  0
    0.7413   -0.2713    0.2426 H   0  0  0  0  0  0  0  0  0  0  0  0
    2.4741    0.4623    0.9286 H   0  0  0  0  0  0  0  0  0  0  0  0
    2.4083    2.0020    0.0725 H   0  0  0  0  0  0  0  0  0  0  0  0
    4.2104    2.3256    1.4850 H   0  0  0  0  0  0  0  0  0  0  0  0
    4.6701    0.5946    1.4706 H   0  0  0  0  0  0  0  0  0  0  0  0
    5.2513    2.5562   -0.7903 H   0  0  0  0  0  0  0  0  0  0  0  0
    6.4309    0.4767   -1.7306 H   0  0  0  0  0  0  0  0  0  0  0  0
    5.5037   -0.4457   -0.4623 H   0  0  0  0  0  0  0  0  0  0  0  0
    4.2631    1.6209   -2.3392 H   0  0  0  0  0  0  0  0  0  0  0  0
    4.2705   -0.1487   -2.7613 H   0  0  0  0  0  0  0  0  0  0  0  0
    7.4948    2.7251   -1.3987 H   0  0  0  0  0  0  0  0  0  0  0  0
    8.1947    1.1439   -0.9610 H   0  0  0  0  0  0  0  0  0  0  0  0
    8.7410    2.6603   -0.1503 H   0  0  0  0  0  0  0  0  0  0  0  0
    5.8759    3.7662    1.1506 H   0  0  0  0  0  0  0  0  0  0  0  0
    7.6339    3.7643    1.2901 H   0  0  0  0  0  0  0  0  0  0  0  0
    6.6401    2.8256    2.4536 H   0  0  0  0  0  0  0  0  0  0  0  0
    7.2100   -0.2035    0.6264 H   0  0  0  0  0  0  0  0  0  0  0  0
    8.3084    0.8652    1.6051 H   0  0  0  0  0  0  0  0  0  0  0  0
    6.6093    0.4851    2.1686 H   0  0  0  0  0  0  0  0  0  0  0  0
   -1.3961   -3.4997   -2.5854 H   0  0  0  0  0  0  0  0  0  0  0  0
   -2.9115   -3.7084   -1.5263 H   0  0  0  0  0  0  0  0  0  0  0  0
   -3.6281   -4.3556   -3.6854 H   0  0  0  0  0  0  0  0  0  0  0  0
   -2.7947   -2.8638   -4.3966 H   0  0  0  0  0  0  0  0  0  0  0  0
   -5.1917   -2.1939   -3.8190 H   0  0  0  0  0  0  0  0  0  0  0  0
   -4.9323   -3.0311   -2.2069 H   0  0  0  0  0  0  0  0  0  0  0  0
   -3.6228   -0.5101   -3.3267 H   0  0  0  0  0  0  0  0  0  0  0  0
   -3.3707   -1.0095    0.2818 H   0  0  0  0  0  0  0  0  0  0  0  0
   -5.9295    0.5990    0.5184 H   0  0  0  0  0  0  0  0  0  0  0  0
   -6.1061   -0.2669    2.7485 H   0  0  0  0  0  0  0  0  0  0  0  0
   -7.1522   -1.5107    0.8411 H   0  0  0  0  0  0  0  0  0  0  0  0
   -6.7451   -2.4715    2.3384 H   0  0  0  0  0  0  0  0  0  0  0  0
   -5.6831   -2.6379    0.9213 H   0  0  0  0  0  0  0  0  0  0  0  0
   -3.9690   -0.7401    3.5982 H   0  0  0  0  0  0  0  0  0  0  0  0
   -3.5423   -1.8503    2.1797 H   0  0  0  0  0  0  0  0  0  0  0  0
   -4.7862   -2.2915    3.3636 H   0  0  0  0  0  0  0  0  0  0  0  0
   -5.9911    2.5375    1.5754 H   0  0  0  0  0  0  0  0  0  0  0  0
   -4.9426    4.4068    2.6526 H   0  0  0  0  0  0  0  0  0  0  0  0
   -2.5876    4.2397    3.3570 H   0  0  0  0  0  0  0  0  0  0  0  0
   -1.3286    2.1812    2.9555 H   0  0  0  0  0  0  0  0  0  0  0  0
   -2.4097    0.2371    1.8353 H   0  0  0  0  0  0  0  0  0  0  0  0
  1  2  1  0
  2  3  1  0
  3  4  1  0
  4  5  2  0
  4  6  1  0
  6  7  1  0
  7  8  1  0
  8  9  1  0
  9 10  1  0
 10 11  1  0
  9 12  1  0
 12 13  1  0
 12 14  1  0
 12 15  1  0
  2 16  1  0
 16 17  2  0
 16 18  1  0
 18 19  1  0
 19 20  1  0
 20 21  1  0
 21 22  1  0
 22 23  1  0
 23 24  2  0
 23 25  1  0
 25 26  1  0
 26 27  1  0
 27 28  1  0
 27 29  1  0
 26 30  1  0
 30 31  2  0
 31 32  1  0
 32 33  2  0
 33 34  1  0
 34 35  2  0
 11  6  1  0
 22 18  1  0
 35 30  1  0
  1 36  1  0
  1 37  1  0
  1 38  1  0
  2 39  1  6
  3 40  1  0
  7 41  1  0
  7 42  1  0
  8 43  1  0
  8 44  1  0
  9 45  1  0
 10 46  1  0
 10 47  1  0
 11 48  1  0
 11 49  1  0
 13 50  1  0
 13 51  1  0
 13 52  1  0
 14 53  1  0
 14 54  1  0
 14 55  1  0
 15 56  1  0
 15 57  1  0
 15 58  1  0
 19 59  1  0
 19 60  1  0
 20 61  1  0
 20 62  1  0
 21 63  1  0
 21 64  1  0
 22 65  1  6
 25 66  1  0
 26 67  1  6
 27 68  1  0
 28 69  1  0
 28 70  1  0
 28 71  1  0
 29 72  1  0
 29 73  1  0
 29 74  1  0
 31 75  1  0
 32 76  1  0
 33 77  1  0
 34 78  1  0
 35 79  1  0
M  END
$$$$
[H]Oc1c([H])c(C([H])([H])C([H])([H])C([H])([H])[H])c([H])c(OC([H])([H])[H])c1C(=O)OC([H])([H])C([H])([H])C([H])([H])ON(c1c([H])c([H])c(F)c([H])c1[H])c1c([H])c([H])c(F)c([H])c1[H]
     RDKit          3D

 61 63  0  0  0  0  0  0  0  0999 V2000
    5.9688   -0.5140   -2.2324 C   0  0  0  0  0  0  0  0  0  0  0  0
    5.9730   -2.0299   -2.1400 C   0  0  0  0  0  0  0  0  0  0  0  0
    5.9202   -2.5128   -0.7271 C   0  0  0  0  0  0  0  0  0  0  0  0
    4.6709   -2.0297   -0.0295 C   0  0  0  0  0  0  0  0  0  0  0  0
    3.5062   -2.7546   -0.0640 C   0  0  0  0  0  0  0  0  0  0  0  0
    2.3602   -2.2905    0.6180 C   0  0  0  0  0  0  0  0  0  0  0  0
    1.2275   -3.0260    0.5642 O   0  0  0  0  0  0  0  0  0  0  0  0
    0.8303   -4.1941    0.0121 C   0  0  0  0  0  0  0  0  0  0  0  0
    2.4449   -1.0893    1.3176 C   0  0  0  0  0  0  0  0  0  0  0  0
    1.2422   -0.6292    2.0535 C   0  0  0  0  0  0  0  0  0  0  0  0
    0.1914   -1.3135    2.0019 O   0  0  0  0  0  0  0  0  0  0  0  0
    1.2263    0.5212    2.8004 O   0  0  0  0  0  0  0  0  0  0  0  0
    0.2527    1.1299    3.5330 C   0  0  0  0  0  0  0  0  0  0  0  0
   -0.7546    1.9613    2.8708 C   0  0  0  0  0  0  0  0  0  0  0  0
   -1.5515    1.2341    1.8010 C   0  0  0  0  0  0  0  0  0  0  0  0
   -2.4386    2.1122    1.3135 O   0  0  0  0  0  0  0  0  0  0  0  0
   -3.3164    1.7424    0.3862 N   0  0  0  0  0  0  0  0  0  0  0  0
   -3.7732    0.4048    0.2598 C   0  0  0  0  0  0  0  0  0  0  0  0
   -5.0813    0.0182    0.3741 C   0  0  0  0  0  0  0  0  0  0  0  0
   -5.4861   -1.2668    0.1243 C   0  0  0  0  0  0  0  0  0  0  0  0
   -4.5881   -2.2612   -0.2600 C   0  0  0  0  0  0  0  0  0  0  0  0
   -4.9916   -3.5319   -0.5045 F   0  0  0  0  0  0  0  0  0  0  0  0
   -3.2829   -1.8682   -0.3702 C   0  0  0  0  0  0  0  0  0  0  0  0
   -2.8638   -0.5825   -0.1248 C   0  0  0  0  0  0  0  0  0  0  0  0
   -3.8684    2.8309   -0.3824 C   0  0  0  0  0  0  0  0  0  0  0  0
   -2.8854    3.6541   -0.9396 C   0  0  0  0  0  0  0  0  0  0  0  0
   -3.2742    4.7472   -1.6709 C   0  0  0  0  0  0  0  0  0  0  0  0
   -4.5990    5.0187   -1.8461 C   0  0  0  0  0  0  0  0  0  0  0  0
   -4.9812    6.1150   -2.5699 F   0  0  0  0  0  0  0  0  0  0  0  0
   -5.5824    4.2271   -1.3119 C   0  0  0  0  0  0  0  0  0  0  0  0
   -5.1484    3.1044   -0.5605 C   0  0  0  0  0  0  0  0  0  0  0  0
    3.6004   -0.4012    1.3322 C   0  0  0  0  0  0  0  0  0  0  0  0
    3.6887    0.7933    2.0262 O   0  0  0  0  0  0  0  0  0  0  0  0
    4.7542   -0.8412    0.6628 C   0  0  0  0  0  0  0  0  0  0  0  0
    6.1934   -0.2132   -3.2784 H   0  0  0  0  0  0  0  0  0  0  0  0
    6.6990   -0.0528   -1.5565 H   0  0  0  0  0  0  0  0  0  0  0  0
    4.9374   -0.1480   -2.0289 H   0  0  0  0  0  0  0  0  0  0  0  0
    6.9210   -2.3638   -2.5966 H   0  0  0  0  0  0  0  0  0  0  0  0
    5.0760   -2.4415   -2.6552 H   0  0  0  0  0  0  0  0  0  0  0  0
    5.8760   -3.6009   -0.6871 H   0  0  0  0  0  0  0  0  0  0  0  0
    6.8051   -2.1733   -0.1237 H   0  0  0  0  0  0  0  0  0  0  0  0
    3.4421   -3.6855   -0.6102 H   0  0  0  0  0  0  0  0  0  0  0  0
    1.7224   -4.8366   -0.2322 H   0  0  0  0  0  0  0  0  0  0  0  0
    0.2822   -4.1140   -0.9595 H   0  0  0  0  0  0  0  0  0  0  0  0
    0.1203   -4.7681    0.6660 H   0  0  0  0  0  0  0  0  0  0  0  0
    0.8018    1.8256    4.2650 H   0  0  0  0  0  0  0  0  0  0  0  0
   -0.2397    0.4178    4.2790 H   0  0  0  0  0  0  0  0  0  0  0  0
   -0.2646    2.8590    2.3939 H   0  0  0  0  0  0  0  0  0  0  0  0
   -1.5148    2.3986    3.5907 H   0  0  0  0  0  0  0  0  0  0  0  0
   -2.0244    0.3297    2.1753 H   0  0  0  0  0  0  0  0  0  0  0  0
   -0.8073    0.9770    0.9913 H   0  0  0  0  0  0  0  0  0  0  0  0
   -5.8246    0.7424    0.7217 H   0  0  0  0  0  0  0  0  0  0  0  0
   -6.5354   -1.5411    0.2235 H   0  0  0  0  0  0  0  0  0  0  0  0
   -2.5388   -2.6010   -0.6565 H   0  0  0  0  0  0  0  0  0  0  0  0
   -1.7998   -0.3453   -0.2694 H   0  0  0  0  0  0  0  0  0  0  0  0
   -1.8255    3.4377   -0.7989 H   0  0  0  0  0  0  0  0  0  0  0  0
   -2.5291    5.4143   -2.1218 H   0  0  0  0  0  0  0  0  0  0  0  0
   -6.6254    4.4244   -1.4362 H   0  0  0  0  0  0  0  0  0  0  0  0
   -5.9588    2.5425   -0.1689 H   0  0  0  0  0  0  0  0  0  0  0  0
    4.5385    1.3407    2.0613 H   0  0  0  0  0  0  0  0  0  0  0  0
    5.6820   -0.3027    0.6653 H   0  0  0  0  0  0  0  0  0  0  0  0
  1  2  1  0
  2  3  1  0
  3  4  1  0
  4  5  2  0
  5  6  1  0
  6  7  1  0
  7  8  1  0
  6  9  2  0
  9 10  1  0
 10 11  2  0
 10 12  1  0
 12 13  1  0
 13 14  1  0
 14 15  1  0
 15 16  1  0
 16 17  1  0
 17 18  1  0
 18 19  2  0
 19 20  1  0
 20 21  2  0
 21 22  1  0
 21 23  1  0
 23 24  2  0
 17 25  1  0
 25 26  2  0
 26 27  1  0
 27 28  2  0
 28 29  1  0
 28 30  1  0
 30 31  2  0
  9 32  1  0
 32 33  1  0
 32 34  2  0
 34  4  1  0
 24 18  1  0
 31 25  1  0
  1 35  1  0
  1 36  1  0
  1 37  1  0
  2 38  1  0
  2 39  1  0
  3 40  1  0
  3 41  1  0
  5 42  1  0
  8 43  1  0
  8 44  1  0
  8 45  1  0
 13 46  1  0
 13 47  1  0
 14 48  1  0
 14 49  1  0
 15 50  1  0
 15 51  1  0
 19 52  1  0
 20 53  1  0
 23 54  1  0
 24 55  1  0
 26 56  1  0
 27 57  1  0
 30 58  1  0
 31 59  1  0
 33 60  1  0
 34 61  1  0
M  END
$$$$
[H]ON([H])C(=O)[C@@]([H])(N(C([H])([H])c1c([H])c([H])c([H])c([H])c1[H])S(=O)(=O)c1c([H])c([H])c(OC([H])([H])[H])c([H])c1[H])C([H])(C([H])([H])[H])C([H])([H])[H]
     RDKit          3D

 51 52  0  0  0  0  0  0  0  0999 V2000
    6.5227   -0.3065    1.2863 C   0  0  0  0  0  0  0  0  0  0  0  0
    5.5858    0.7412    1.2069 O   0  0  0  0  0  0  0  0  0  0  0  0
    4.3912    0.6350    0.5030 C   0  0  0  0  0  0  0  0  0  0  0  0
    4.0129   -0.4911   -0.1765 C   0  0  0  0  0  0  0  0  0  0  0  0
    2.8141   -0.5687   -0.8707 C   0  0  0  0  0  0  0  0  0  0  0  0
    1.9584    0.5104   -0.8911 C   0  0  0  0  0  0  0  0  0  0  0  0
    2.3543    1.6376   -0.2021 C   0  0  0  0  0  0  0  0  0  0  0  0
    3.5526    1.7244    0.4954 C   0  0  0  0  0  0  0  0  0  0  0  0
    0.4713    0.4292   -1.7669 S   0  0  0  0  0  0  0  0  0  0  0  0
    0.0902    1.8013   -2.2864 O   0  0  0  0  0  0  0  0  0  0  0  0
    0.7179   -0.4084   -2.9957 O   0  0  0  0  0  0  0  0  0  0  0  0
   -0.8891   -0.1645   -0.8764 N   0  0  0  0  0  0  0  0  0  0  0  0
   -1.1085    0.7318    0.2020 C   0  0  0  0  0  0  0  0  0  0  0  0
   -2.0260    1.8505   -0.0769 C   0  0  0  0  0  0  0  0  0  0  0  0
   -2.1536    2.8362    0.9134 C   0  0  0  0  0  0  0  0  0  0  0  0
   -2.9930    3.9136    0.7359 C   0  0  0  0  0  0  0  0  0  0  0  0
   -3.7339    4.0765   -0.3959 C   0  0  0  0  0  0  0  0  0  0  0  0
   -3.6276    3.1284   -1.3779 C   0  0  0  0  0  0  0  0  0  0  0  0
   -2.7826    2.0440   -1.1990 C   0  0  0  0  0  0  0  0  0  0  0  0
   -0.6257   -1.5364   -0.4916 C   0  0  1  0  0  0  0  0  0  0  0  0
   -0.9469   -1.9437    0.8800 C   0  0  0  0  0  0  0  0  0  0  0  0
   -0.5051   -3.4037    1.0869 C   0  0  0  0  0  0  0  0  0  0  0  0
   -2.4636   -2.0051    1.1323 C   0  0  0  0  0  0  0  0  0  0  0  0
   -1.5454   -2.3695   -1.4023 C   0  0  0  0  0  0  0  0  0  0  0  0
   -1.7005   -3.5946   -1.2165 O   0  0  0  0  0  0  0  0  0  0  0  0
   -2.2471   -1.7876   -2.4816 N   0  0  0  0  0  0  0  0  0  0  0  0
   -3.0626   -2.4882   -3.2957 O   0  0  0  0  0  0  0  0  0  0  0  0
    6.0560   -1.2748    1.5591 H   0  0  0  0  0  0  0  0  0  0  0  0
    7.2418   -0.0453    2.0923 H   0  0  0  0  0  0  0  0  0  0  0  0
    7.0940   -0.4493    0.3466 H   0  0  0  0  0  0  0  0  0  0  0  0
    4.6681   -1.3499   -0.1740 H   0  0  0  0  0  0  0  0  0  0  0  0
    2.5653   -1.5015   -1.4148 H   0  0  0  0  0  0  0  0  0  0  0  0
    1.7363    2.5418   -0.1745 H   0  0  0  0  0  0  0  0  0  0  0  0
    3.8371    2.6291    1.0302 H   0  0  0  0  0  0  0  0  0  0  0  0
   -0.1137    1.2234    0.4496 H   0  0  0  0  0  0  0  0  0  0  0  0
   -1.4623    0.2875    1.1577 H   0  0  0  0  0  0  0  0  0  0  0  0
   -1.6029    2.7739    1.8274 H   0  0  0  0  0  0  0  0  0  0  0  0
   -3.0847    4.6773    1.5160 H   0  0  0  0  0  0  0  0  0  0  0  0
   -4.3959    4.9300   -0.5311 H   0  0  0  0  0  0  0  0  0  0  0  0
   -4.1962    3.2254   -2.2813 H   0  0  0  0  0  0  0  0  0  0  0  0
   -2.7401    1.3308   -2.0057 H   0  0  0  0  0  0  0  0  0  0  0  0
    0.3679   -1.8477   -0.8054 H   0  0  0  0  0  0  0  0  0  0  0  0
   -0.4562   -1.3787    1.6934 H   0  0  0  0  0  0  0  0  0  0  0  0
    0.1946   -3.6369    0.2661 H   0  0  0  0  0  0  0  0  0  0  0  0
    0.0484   -3.5018    2.0589 H   0  0  0  0  0  0  0  0  0  0  0  0
   -1.3223   -4.1149    1.0801 H   0  0  0  0  0  0  0  0  0  0  0  0
   -3.0075   -1.3667    0.3871 H   0  0  0  0  0  0  0  0  0  0  0  0
   -2.8520   -3.0322    1.1462 H   0  0  0  0  0  0  0  0  0  0  0  0
   -2.6610   -1.5523    2.1244 H   0  0  0  0  0  0  0  0  0  0  0  0
   -2.1315   -0.7799   -2.6732 H   0  0  0  0  0  0  0  0  0  0  0  0
   -3.8436   -2.7795   -2.7370 H   0  0  0  0  0  0  0  0  0  0  0  0
  1  2  1  0
  2  3  1  0
  3  4  2  0
  4  5  1  0
  5  6  2  0
  6  7  1  0
  7  8  2  0
  6  9  1  0
  9 10  2  0
  9 11  2  0
  9 12  1  0
 12 13  1  0
 13 14  1  0
 14 15  2  0
 15 16  1  0
 16 17  2  0
 17 18  1  0
 18 19  2  0
 12 20  1  0
 20 21  1  0
 21 22  1  0
 21 23  1  0
 20 24  1  0
 24 25  2  0
 24 26  1  0
 26 27  1  0
  8  3  1  0
 19 14  1  0
  1 28  1  0
  1 29  1  0
  1 30  1  0
  4 31  1  0
  5 32  1  0
  7 33  1  0
  8 34  1  0
 13 35  1  0
 13 36  1  0
 15 37  1  0
 16 38  1  0
 17 39  1  0
 18 40  1  0
 19 41  1  0
 20 42  1  6
 21 43  1  0
 22 44  1  0
 22 45  1  0
 22 46  1  0
 23 47  1  0
 23 48  1  0
 23 49  1  0
 26 50  1  0
 27 51  1  0
M  END
$$$$
[H]c1c([H])c([H])c(-c2c([H])c([H])c(C3([H])C(=O)N([H])C(=O)C(C([H])([H])[H])=C3c3c([H])c([H])c(C(F)(F)F)c([H])c3[H])c([H])c2[H])c([H])c1[H]
     RDKit          3D

 49 52  0  0  0  0  0  0  0  0999 V2000
   -4.2469    1.0095    1.8579 C   0  0  0  0  0  0  0  0  0  0  0  0
   -2.7907    1.4324    2.0555 C   0  0  0  0  0  0  0  0  0  0  0  0
   -1.8783    0.9466    1.1628 C   0  0  0  0  0  0  0  0  0  0  0  0
   -0.5158    1.3370    1.4129 C   0  0  0  0  0  0  0  0  0  0  0  0
   -0.3454    2.7285    1.8854 C   0  0  0  0  0  0  0  0  0  0  0  0
    0.5477    3.5053    1.4992 O   0  0  0  0  0  0  0  0  0  0  0  0
   -1.2880    3.1993    2.8840 N   0  0  0  0  0  0  0  0  0  0  0  0
   -2.5409    2.5394    2.9558 C   0  0  0  0  0  0  0  0  0  0  0  0
   -3.4275    2.9255    3.8041 O   0  0  0  0  0  0  0  0  0  0  0  0
    0.6050    0.8541    0.6680 C   0  0  0  0  0  0  0  0  0  0  0  0
    1.2508   -0.3068    1.1160 C   0  0  0  0  0  0  0  0  0  0  0  0
    2.4008   -0.7538    0.5431 C   0  0  0  0  0  0  0  0  0  0  0  0
    3.0119   -0.0607   -0.5431 C   0  0  0  0  0  0  0  0  0  0  0  0
    2.3460    1.0512   -0.9381 C   0  0  0  0  0  0  0  0  0  0  0  0
    1.1621    1.5385   -0.3746 C   0  0  0  0  0  0  0  0  0  0  0  0
    4.2788   -0.5618   -1.0455 C   0  0  0  0  0  0  0  0  0  0  0  0
    5.1294   -1.1329   -0.1058 C   0  0  0  0  0  0  0  0  0  0  0  0
    6.3594   -1.6381   -0.4689 C   0  0  0  0  0  0  0  0  0  0  0  0
    6.7812   -1.5870   -1.7955 C   0  0  0  0  0  0  0  0  0  0  0  0
    5.9373   -1.0308   -2.7270 C   0  0  0  0  0  0  0  0  0  0  0  0
    4.7012   -0.5227   -2.3474 C   0  0  0  0  0  0  0  0  0  0  0  0
   -2.4540    0.1128    0.0887 C   0  0  0  0  0  0  0  0  0  0  0  0
   -2.8922    0.5870   -1.1213 C   0  0  0  0  0  0  0  0  0  0  0  0
   -3.5212   -0.2572   -2.0318 C   0  0  0  0  0  0  0  0  0  0  0  0
   -3.7131   -1.5828   -1.7457 C   0  0  0  0  0  0  0  0  0  0  0  0
   -3.2692   -2.0622   -0.5243 C   0  0  0  0  0  0  0  0  0  0  0  0
   -2.6573   -1.2001    0.3569 C   0  0  0  0  0  0  0  0  0  0  0  0
   -4.4520   -2.5210   -2.6888 C   0  0  0  0  0  0  0  0  0  0  0  0
   -3.9607   -2.5034   -3.9514 F   0  0  0  0  0  0  0  0  0  0  0  0
   -5.7721   -2.0637   -2.7140 F   0  0  0  0  0  0  0  0  0  0  0  0
   -4.4250   -3.7856   -2.1096 F   0  0  0  0  0  0  0  0  0  0  0  0
   -4.5918    1.2786    0.8567 H   0  0  0  0  0  0  0  0  0  0  0  0
   -4.3441   -0.0466    2.0939 H   0  0  0  0  0  0  0  0  0  0  0  0
   -4.8682    1.6251    2.5717 H   0  0  0  0  0  0  0  0  0  0  0  0
   -0.3571    0.7858    2.4873 H   0  0  0  0  0  0  0  0  0  0  0  0
   -1.0319    3.9949    3.5167 H   0  0  0  0  0  0  0  0  0  0  0  0
    0.8678   -0.9316    1.9390 H   0  0  0  0  0  0  0  0  0  0  0  0
    2.8877   -1.6521    0.9143 H   0  0  0  0  0  0  0  0  0  0  0  0
    2.7757    1.6158   -1.7558 H   0  0  0  0  0  0  0  0  0  0  0  0
    0.6988    2.4572   -0.8010 H   0  0  0  0  0  0  0  0  0  0  0  0
    4.8466   -1.1870    0.9214 H   0  0  0  0  0  0  0  0  0  0  0  0
    7.0547   -2.0900    0.2249 H   0  0  0  0  0  0  0  0  0  0  0  0
    7.7313   -1.9879   -2.1186 H   0  0  0  0  0  0  0  0  0  0  0  0
    6.2915   -1.0194   -3.7609 H   0  0  0  0  0  0  0  0  0  0  0  0
    4.0728   -0.1024   -3.1470 H   0  0  0  0  0  0  0  0  0  0  0  0
   -2.7551    1.6148   -1.3812 H   0  0  0  0  0  0  0  0  0  0  0  0
   -3.8785    0.1506   -3.0007 H   0  0  0  0  0  0  0  0  0  0  0  0
   -3.4417   -3.1166   -0.2801 H   0  0  0  0  0  0  0  0  0  0  0  0
   -2.3199   -1.5855    1.3200 H   0  0  0  0  0  0  0  0  0  0  0  0
  1  2  1  0
  2  3  2  0
  3  4  1  0
  4  5  1  0
  5  6  2  0
  5  7  1  0
  7  8  1  0
  8  9  2  0
  4 10  1  0
 10 11  2  0
 11 12  1  0
 12 13  2  0
 13 14  1  0
 14 15  2  0
 13 16  1  0
 16 17  2  0
 17 18  1  0
 18 19  2  0
 19 20  1  0
 20 21  2  0
  3 22  1  0
 22 23  2  0
 23 24  1  0
 24 25  2  0
 25 26  1  0
 26 27  2  0
 25 28  1  0
 28 29  1  0
 28 30  1  0
 28 31  1  0
  8  2  1  0
 15 10  1  0
 21 16  1  0
 27 22  1  0
  1 32  1  0
  1 33  1  0
  1 34  1  0
  4 35  1  0
  7 36  1  0
 11 37  1  0
 12 38  1  0
 14 39  1  0
 15 40  1  0
 17 41  1  0
 18 42  1  0
 19 43  1  0
 20 44  1  0
 21 45  1  0
 23 46  1  0
 24 47  1  0
 26 48  1  0
 27 49  1  0
M  END
$$$$
[H]OC([H])([H])[C@@]1(C([H])([H])[H])C([H])([H])[C@@]2([H])O[C@]1(C([H])([H])[H])n1c3c([H])c([H])c([H])c([H])c3c3c4c(c5c6c([H])c([H])c([H])c([H])c6n2c5c31)C(=O)N([H])C4([H])[H]
     RDKit          3D

 56 63  0  0  0  0  0  0  0  0999 V2000
   -2.9928    0.9879   -1.4232 C   0  0  0  0  0  0  0  0  0  0  0  0
   -1.9729    0.2412   -0.6285 C   0  0  2  0  0  0  0  0  0  0  0  0
   -1.5057   -0.8523   -1.3945 O   0  0  0  0  0  0  0  0  0  0  0  0
   -1.1352   -1.8828   -0.5786 C   0  0  2  0  0  0  0  0  0  0  0  0
   -1.6274   -1.5843    0.8385 C   0  0  0  0  0  0  0  0  0  0  0  0
   -2.6718   -0.5074    0.4626 C   0  0  1  0  0  0  0  0  0  0  0  0
   -2.9457    0.3983    1.6138 C   0  0  0  0  0  0  0  0  0  0  0  0
   -3.8269   -1.3584    0.0664 C   0  0  0  0  0  0  0  0  0  0  0  0
   -4.8990   -0.7308   -0.5342 O   0  0  0  0  0  0  0  0  0  0  0  0
    0.3269   -1.8632   -0.3931 N   0  0  0  0  0  0  0  0  0  0  0  0
    1.1829   -2.8449   -0.3683 C   0  0  0  0  0  0  0  0  0  0  0  0
    1.0265   -4.2214   -0.5482 C   0  0  0  0  0  0  0  0  0  0  0  0
    2.1081   -5.0725   -0.4721 C   0  0  0  0  0  0  0  0  0  0  0  0
    3.3684   -4.5747   -0.2156 C   0  0  0  0  0  0  0  0  0  0  0  0
    3.5383   -3.2130   -0.0352 C   0  0  0  0  0  0  0  0  0  0  0  0
    2.4604   -2.3581   -0.1103 C   0  0  0  0  0  0  0  0  0  0  0  0
    2.3287   -0.9992    0.0226 C   0  0  0  0  0  0  0  0  0  0  0  0
    3.1550    0.0568    0.3067 C   0  0  0  0  0  0  0  0  0  0  0  0
    4.5750    0.1086    0.5475 C   0  0  0  0  0  0  0  0  0  0  0  0
    5.4833   -0.7361    0.5792 O   0  0  0  0  0  0  0  0  0  0  0  0
    4.8981    1.4961    0.7939 N   0  0  0  0  0  0  0  0  0  0  0  0
    3.7227    2.3014    0.7167 C   0  0  0  0  0  0  0  0  0  0  0  0
    2.6254    1.3531    0.3999 C   0  0  0  0  0  0  0  0  0  0  0  0
    1.2895    1.6235    0.2144 C   0  0  0  0  0  0  0  0  0  0  0  0
    0.4684    2.7248    0.2433 C   0  0  0  0  0  0  0  0  0  0  0  0
    0.7840    4.0440    0.5084 C   0  0  0  0  0  0  0  0  0  0  0  0
   -0.1711    5.0350    0.5198 C   0  0  0  0  0  0  0  0  0  0  0  0
   -1.4605    4.6669    0.2574 C   0  0  0  0  0  0  0  0  0  0  0  0
   -1.8032    3.3624   -0.0092 C   0  0  0  0  0  0  0  0  0  0  0  0
   -0.8385    2.3769   -0.0202 C   0  0  0  0  0  0  0  0  0  0  0  0
   -0.8240    1.0169   -0.2240 N   0  0  0  0  0  0  0  0  0  0  0  0
    0.4627    0.5697   -0.0725 C   0  0  0  0  0  0  0  0  0  0  0  0
    0.9744   -0.7175   -0.1631 C   0  0  0  0  0  0  0  0  0  0  0  0
   -3.4661    0.3203   -2.2254 H   0  0  0  0  0  0  0  0  0  0  0  0
   -3.8924    1.3053   -0.8839 H   0  0  0  0  0  0  0  0  0  0  0  0
   -2.5466    1.7810   -2.0935 H   0  0  0  0  0  0  0  0  0  0  0  0
   -1.4729   -2.8548   -0.9342 H   0  0  0  0  0  0  0  0  0  0  0  0
   -0.9099   -1.1038    1.4841 H   0  0  0  0  0  0  0  0  0  0  0  0
   -2.0675   -2.4600    1.2999 H   0  0  0  0  0  0  0  0  0  0  0  0
   -3.6617    1.1763    1.2797 H   0  0  0  0  0  0  0  0  0  0  0  0
   -2.0379    0.9262    1.9692 H   0  0  0  0  0  0  0  0  0  0  0  0
   -3.3947   -0.1271    2.4884 H   0  0  0  0  0  0  0  0  0  0  0  0
   -3.5087   -2.2824   -0.5007 H   0  0  0  0  0  0  0  0  0  0  0  0
   -4.3040   -1.8483    0.9798 H   0  0  0  0  0  0  0  0  0  0  0  0
   -5.6297   -1.3951   -0.5786 H   0  0  0  0  0  0  0  0  0  0  0  0
    0.0044   -4.5424   -0.7468 H   0  0  0  0  0  0  0  0  0  0  0  0
    1.9006   -6.1262   -0.6238 H   0  0  0  0  0  0  0  0  0  0  0  0
    4.1811   -5.2792   -0.1657 H   0  0  0  0  0  0  0  0  0  0  0  0
    4.5302   -2.8916    0.1588 H   0  0  0  0  0  0  0  0  0  0  0  0
    5.8429    1.8875    1.0014 H   0  0  0  0  0  0  0  0  0  0  0  0
    3.5780    2.7809    1.7148 H   0  0  0  0  0  0  0  0  0  0  0  0
    3.8662    3.0482   -0.0819 H   0  0  0  0  0  0  0  0  0  0  0  0
    1.8286    4.2676    0.7093 H   0  0  0  0  0  0  0  0  0  0  0  0
    0.1321    6.0680    0.7356 H   0  0  0  0  0  0  0  0  0  0  0  0
   -2.2418    5.4145    0.2568 H   0  0  0  0  0  0  0  0  0  0  0  0
   -2.8341    3.0883   -0.1824 H   0  0  0  0  0  0  0  0  0  0  0  0
  2  1  1  6
  2  3  1  0
  3  4  1  0
  4  5  1  0
  5  6  1  0
  6  7  1  1
  6  8  1  0
  8  9  1  0
  4 10  1  0
 10 11  1  0
 11 12  2  0
 12 13  1  0
 13 14  2  0
 14 15  1  0
 15 16  2  0
 16 17  1  0
 17 18  2  0
 18 19  1  0
 19 20  2  0
 19 21  1  0
 21 22  1  0
 22 23  1  0
 23 24  2  0
 24 25  1  0
 25 26  2  0
 26 27  1  0
 27 28  2  0
 28 29  1  0
 29 30  2  0
 30 31  1  0
 31 32  1  0
 32 33  2  0
  6  2  1  0
 33 10  1  0
 31  2  1  0
 16 11  1  0
 33 17  1  0
 23 18  1  0
 32 24  1  0
 30 25  1  0
  1 34  1  0
  1 35  1  0
  1 36  1  0
  4 37  1  6
  5 38  1  0
  5 39  1  0
  7 40  1  0
  7 41  1  0
  7 42  1  0
  8 43  1  0
  8 44  1  0
  9 45  1  0
 12 46  1  0
 13 47  1  0
 14 48  1  0
 15 49  1  0
 21 50  1  0
 22 51  1  0
 22 52  1  0
 26 53  1  0
 27 54  1  0
 28 55  1  0
 29 56  1  0
M  END
$$$$
[H]N=C(N([H])[H])N([H])C([H])([H])C([H])([H])C([H])([H])[C@@]([H])(C(=O)N([H])[C@]([H])(C(=O)N([H])[H])C([H])([H])c1c([H])n([H])c2c([H])c([H])c([H])c([H])c12)N([H])C(=O)[C@@]([H])(N([H])C(=O)[C@@]([H])(N([H])C(=O)[C@@]([H])(N([H])[H])C([H])([H])c1c([H])c([H])c(O[H])c([H])c1[H])C([H])([H])C([H])(C([H])([H])[H])C([H])([H])[H])C([H])([H])c1c([H])c([H])c([H])c([H])c1[H]
     RDKit          3D

111114  0  0  0  0  0  0  0  0999 V2000
    2.8956   -2.8594    4.7429 C   0  0  0  0  0  0  0  0  0  0  0  0
    2.5421   -2.7994    3.2771 C   0  0  0  0  0  0  0  0  0  0  0  0
    1.4302   -3.7922    3.0448 C   0  0  0  0  0  0  0  0  0  0  0  0
    3.7590   -3.0536    2.4387 C   0  0  0  0  0  0  0  0  0  0  0  0
    3.5047   -3.0158    0.9873 C   0  0  2  0  0  0  0  0  0  0  0  0
    4.7606   -3.3212    0.2423 N   0  0  0  0  0  0  0  0  0  0  0  0
    4.7197   -3.5807   -1.1317 C   0  0  0  0  0  0  0  0  0  0  0  0
    3.5488   -3.5097   -1.6683 O   0  0  0  0  0  0  0  0  0  0  0  0
    5.8089   -3.9171   -2.0394 C   0  0  1  0  0  0  0  0  0  0  0  0
    5.3417   -3.7694   -3.4103 N   0  0  0  0  0  0  0  0  0  0  0  0
    7.1394   -3.3490   -1.7970 C   0  0  0  0  0  0  0  0  0  0  0  0
    7.3269   -1.8965   -1.8035 C   0  0  0  0  0  0  0  0  0  0  0  0
    7.3492   -1.1438   -0.6535 C   0  0  0  0  0  0  0  0  0  0  0  0
    7.5329    0.2351   -0.6726 C   0  0  0  0  0  0  0  0  0  0  0  0
    7.7011    0.8968   -1.8585 C   0  0  0  0  0  0  0  0  0  0  0  0
    7.8867    2.2902   -1.8677 O   0  0  0  0  0  0  0  0  0  0  0  0
    7.6825    0.1583   -3.0452 C   0  0  0  0  0  0  0  0  0  0  0  0
    7.4999   -1.2014   -3.0136 C   0  0  0  0  0  0  0  0  0  0  0  0
    3.0649   -1.6301    0.5020 C   0  0  0  0  0  0  0  0  0  0  0  0
    3.9194   -0.7705    0.1839 O   0  0  0  0  0  0  0  0  0  0  0  0
    1.7125   -1.2695    0.3938 N   0  0  0  0  0  0  0  0  0  0  0  0
    1.4000    0.1370   -0.0752 C   0  0  1  0  0  0  0  0  0  0  0  0
    1.2116    0.0475   -1.5478 C   0  0  0  0  0  0  0  0  0  0  0  0
    0.9738    1.3123   -2.2257 C   0  0  0  0  0  0  0  0  0  0  0  0
    2.1212    2.0820   -2.6008 C   0  0  0  0  0  0  0  0  0  0  0  0
    1.9830    3.2575   -3.2662 C   0  0  0  0  0  0  0  0  0  0  0  0
    0.7702    3.7874   -3.6227 C   0  0  0  0  0  0  0  0  0  0  0  0
   -0.3528    3.0233   -3.2513 C   0  0  0  0  0  0  0  0  0  0  0  0
   -0.2192    1.8446   -2.5848 C   0  0  0  0  0  0  0  0  0  0  0  0
    0.2935    0.5988    0.7234 C   0  0  0  0  0  0  0  0  0  0  0  0
   -0.2593   -0.3018    1.5298 O   0  0  0  0  0  0  0  0  0  0  0  0
   -0.3572    1.8440    0.8464 N   0  0  0  0  0  0  0  0  0  0  0  0
   -1.4995    1.9716    1.7878 C   0  0  1  0  0  0  0  0  0  0  0  0
   -1.4998    3.2202    2.5585 C   0  0  0  0  0  0  0  0  0  0  0  0
   -2.6821    3.2505    3.4923 C   0  0  0  0  0  0  0  0  0  0  0  0
   -2.6214    4.4765    4.3362 C   0  0  0  0  0  0  0  0  0  0  0  0
   -2.6586    5.6681    3.5584 N   0  0  0  0  0  0  0  0  0  0  0  0
   -3.7681    6.1638    2.8416 C   0  0  0  0  0  0  0  0  0  0  0  0
   -3.5987    6.9952    1.6930 N   0  0  0  0  0  0  0  0  0  0  0  0
   -4.9698    5.8579    3.2195 N   0  0  0  0  0  0  0  0  0  0  0  0
   -2.6956    1.7884    0.8796 C   0  0  0  0  0  0  0  0  0  0  0  0
   -2.6228    2.5062   -0.2005 O   0  0  0  0  0  0  0  0  0  0  0  0
   -3.6835    0.9232    1.2268 N   0  0  0  0  0  0  0  0  0  0  0  0
   -4.8810    0.6629    0.4857 C   0  0  1  0  0  0  0  0  0  0  0  0
   -4.4122   -0.0827   -0.7994 C   0  0  0  0  0  0  0  0  0  0  0  0
   -5.5821   -0.4509   -1.6052 C   0  0  0  0  0  0  0  0  0  0  0  0
   -6.2312    0.4235   -2.4890 C   0  0  0  0  0  0  0  0  0  0  0  0
   -7.3032   -0.2468   -2.9321 N   0  0  0  0  0  0  0  0  0  0  0  0
   -7.3563   -1.4675   -2.3871 C   0  0  0  0  0  0  0  0  0  0  0  0
   -8.2274   -2.5425   -2.5294 C   0  0  0  0  0  0  0  0  0  0  0  0
   -8.0257   -3.7107   -1.8650 C   0  0  0  0  0  0  0  0  0  0  0  0
   -6.9166   -3.8804   -0.9945 C   0  0  0  0  0  0  0  0  0  0  0  0
   -6.0855   -2.8178   -0.8733 C   0  0  0  0  0  0  0  0  0  0  0  0
   -6.2987   -1.6373   -1.5522 C   0  0  0  0  0  0  0  0  0  0  0  0
   -5.8435   -0.0867    1.2728 C   0  0  0  0  0  0  0  0  0  0  0  0
   -7.2419    0.0406    1.1079 N   0  0  0  0  0  0  0  0  0  0  0  0
   -5.3864   -0.8815    2.1442 O   0  0  0  0  0  0  0  0  0  0  0  0
    2.2353   -3.5269    5.3130 H   0  0  0  0  0  0  0  0  0  0  0  0
    3.9272   -3.2857    4.8216 H   0  0  0  0  0  0  0  0  0  0  0  0
    2.9553   -1.8196    5.1506 H   0  0  0  0  0  0  0  0  0  0  0  0
    2.1630   -1.7859    3.0070 H   0  0  0  0  0  0  0  0  0  0  0  0
    1.7890   -4.8184    3.1575 H   0  0  0  0  0  0  0  0  0  0  0  0
    0.7051   -3.6106    3.9000 H   0  0  0  0  0  0  0  0  0  0  0  0
    0.8308   -3.6131    2.1451 H   0  0  0  0  0  0  0  0  0  0  0  0
    4.4901   -2.2228    2.7172 H   0  0  0  0  0  0  0  0  0  0  0  0
    4.2503   -3.9715    2.7469 H   0  0  0  0  0  0  0  0  0  0  0  0
    2.7300   -3.6642    0.5615 H   0  0  0  0  0  0  0  0  0  0  0  0
    5.6637   -3.3466    0.7529 H   0  0  0  0  0  0  0  0  0  0  0  0
    5.9773   -5.0692   -1.9738 H   0  0  0  0  0  0  0  0  0  0  0  0
    4.3378   -3.9738   -3.4594 H   0  0  0  0  0  0  0  0  0  0  0  0
    5.8857   -4.4201   -4.0090 H   0  0  0  0  0  0  0  0  0  0  0  0
    7.9210   -3.7597   -2.5142 H   0  0  0  0  0  0  0  0  0  0  0  0
    7.5007   -3.7252   -0.7909 H   0  0  0  0  0  0  0  0  0  0  0  0
    7.2364   -1.6067    0.2896 H   0  0  0  0  0  0  0  0  0  0  0  0
    7.5485    0.8155    0.2596 H   0  0  0  0  0  0  0  0  0  0  0  0
    8.8819    2.5760   -1.8036 H   0  0  0  0  0  0  0  0  0  0  0  0
    7.8187    0.7231   -3.9588 H   0  0  0  0  0  0  0  0  0  0  0  0
    7.4939   -1.7303   -3.9783 H   0  0  0  0  0  0  0  0  0  0  0  0
    0.8943   -1.8581    0.5996 H   0  0  0  0  0  0  0  0  0  0  0  0
    2.3188    0.7011    0.1118 H   0  0  0  0  0  0  0  0  0  0  0  0
    2.1059   -0.4308   -2.0246 H   0  0  0  0  0  0  0  0  0  0  0  0
    0.3781   -0.6635   -1.8200 H   0  0  0  0  0  0  0  0  0  0  0  0
    3.0826    1.6699   -2.3262 H   0  0  0  0  0  0  0  0  0  0  0  0
    2.9057    3.8040   -3.5281 H   0  0  0  0  0  0  0  0  0  0  0  0
    0.6715    4.7188   -4.1479 H   0  0  0  0  0  0  0  0  0  0  0  0
   -1.2875    3.4461   -3.5344 H   0  0  0  0  0  0  0  0  0  0  0  0
   -1.1399    1.2731   -2.3182 H   0  0  0  0  0  0  0  0  0  0  0  0
   -0.0816    2.6942    0.3425 H   0  0  0  0  0  0  0  0  0  0  0  0
   -1.5039    1.0856    2.4391 H   0  0  0  0  0  0  0  0  0  0  0  0
   -0.5964    3.4055    3.1396 H   0  0  0  0  0  0  0  0  0  0  0  0
   -1.5966    4.0897    1.8307 H   0  0  0  0  0  0  0  0  0  0  0  0
   -3.5983    3.2569    2.8921 H   0  0  0  0  0  0  0  0  0  0  0  0
   -2.6434    2.3528    4.1539 H   0  0  0  0  0  0  0  0  0  0  0  0
   -3.4955    4.4648    5.0531 H   0  0  0  0  0  0  0  0  0  0  0  0
   -1.6773    4.4914    4.9502 H   0  0  0  0  0  0  0  0  0  0  0  0
   -1.7750    6.2589    3.5026 H   0  0  0  0  0  0  0  0  0  0  0  0
   -4.2302    6.9015    0.8823 H   0  0  0  0  0  0  0  0  0  0  0  0
   -2.8054    7.6867    1.7293 H   0  0  0  0  0  0  0  0  0  0  0  0
   -5.1261    5.2535    4.0386 H   0  0  0  0  0  0  0  0  0  0  0  0
   -3.5794    0.3691    2.1396 H   0  0  0  0  0  0  0  0  0  0  0  0
   -5.3100    1.6309    0.0625 H   0  0  0  0  0  0  0  0  0  0  0  0
   -3.8316   -0.9455   -0.4088 H   0  0  0  0  0  0  0  0  0  0  0  0
   -3.7574    0.6375   -1.3233 H   0  0  0  0  0  0  0  0  0  0  0  0
   -5.8812    1.4204   -2.7169 H   0  0  0  0  0  0  0  0  0  0  0  0
   -8.0111    0.1276   -3.6183 H   0  0  0  0  0  0  0  0  0  0  0  0
   -9.0758   -2.4000   -3.1957 H   0  0  0  0  0  0  0  0  0  0  0  0
   -8.6974   -4.5477   -1.9731 H   0  0  0  0  0  0  0  0  0  0  0  0
   -6.8035   -4.8237   -0.4994 H   0  0  0  0  0  0  0  0  0  0  0  0
   -5.2025   -2.8670   -0.2280 H   0  0  0  0  0  0  0  0  0  0  0  0
   -7.9036   -0.5299    1.7004 H   0  0  0  0  0  0  0  0  0  0  0  0
   -7.6879    0.6845    0.4196 H   0  0  0  0  0  0  0  0  0  0  0  0
  1  2  1  0
  2  3  1  0
  2  4  1  0
  4  5  1  0
  5  6  1  0
  6  7  1  0
  7  8  2  0
  7  9  1  0
  9 10  1  0
  9 11  1  0
 11 12  1  0
 12 13  2  0
 13 14  1  0
 14 15  2  0
 15 16  1  0
 15 17  1  0
 17 18  2  0
  5 19  1  0
 19 20  2  0
 19 21  1  0
 21 22  1  0
 22 23  1  0
 23 24  1  0
 24 25  2  0
 25 26  1  0
 26 27  2  0
 27 28  1  0
 28 29  2  0
 22 30  1  0
 30 31  2  0
 30 32  1  0
 32 33  1  0
 33 34  1  0
 34 35  1  0
 35 36  1  0
 36 37  1  0
 37 38  1  0
 38 39  1  0
 38 40  2  3
 33 41  1  0
 41 42  2  0
 41 43  1  0
 43 44  1  0
 44 45  1  0
 45 46  1  0
 46 47  2  0
 47 48  1  0
 48 49  1  0
 49 50  2  0
 50 51  1  0
 51 52  2  0
 52 53  1  0
 53 54  2  0
 44 55  1  0
 55 56  1  0
 55 57  2  0
 18 12  1  0
 29 24  1  0
 54 46  1  0
 54 49  1  0
  1 58  1  0
  1 59  1  0
  1 60  1  0
  2 61  1  0
  3 62  1  0
  3 63  1  0
  3 64  1  0
  4 65  1  0
  4 66  1  0
  5 67  1  1
  6 68  1  0
  9 69  1  6
 10 70  1  0
 10 71  1  0
 11 72  1  0
 11 73  1  0
 13 74  1  0
 14 75  1  0
 16 76  1  0
 17 77  1  0
 18 78  1  0
 21 79  1  0
 22 80  1  6
 23 81  1  0
 23 82  1  0
 25 83  1  0
 26 84  1  0
 27 85  1  0
 28 86  1  0
 29 87  1  0
 32 88  1  0
 33 89  1  1
 34 90  1  0
 34 91  1  0
 35 92  1  0
 35 93  1  0
 36 94  1  0
 36 95  1  0
 37 96  1  0
 39 97  1  0
 39 98  1  0
 40 99  1  0
 43100  1  0
 44101  1  6
 45102  1  0
 45103  1  0
 47104  1  0
 48105  1  0
 50106  1  0
 51107  1  0
 52108  1  0
 53109  1  0
 56110  1  0
 56111  1  0
M  END
$$$$
[H]c1nc(N([H])c2c([H])c([H])c(C(=O)N([H])c3c([H])c([H])c([H])c(C(F)(F)F)c3[H])c([H])c2OC([H])([H])[H])nc([H])c1Cl
     RDKit          3D

 43 45  0  0  0  0  0  0  0  0999 V2000
   -3.1305   -4.3760    0.6901 C   0  0  0  0  0  0  0  0  0  0  0  0
   -3.1757   -3.0415    0.3596 O   0  0  0  0  0  0  0  0  0  0  0  0
   -2.2474   -2.0831    0.2232 C   0  0  0  0  0  0  0  0  0  0  0  0
   -0.8713   -2.2268    0.3909 C   0  0  0  0  0  0  0  0  0  0  0  0
    0.0069   -1.2205    0.2239 C   0  0  0  0  0  0  0  0  0  0  0  0
   -0.4638    0.0259   -0.1207 C   0  0  0  0  0  0  0  0  0  0  0  0
   -1.8671    0.2545   -0.3060 C   0  0  0  0  0  0  0  0  0  0  0  0
   -2.7156   -0.7983   -0.1312 C   0  0  0  0  0  0  0  0  0  0  0  0
   -4.1241   -0.5630   -0.3505 N   0  0  0  0  0  0  0  0  0  0  0  0
   -4.7081    0.7133   -0.3060 C   0  0  0  0  0  0  0  0  0  0  0  0
   -3.9778    1.8229   -0.0270 N   0  0  0  0  0  0  0  0  0  0  0  0
   -4.4092    3.0589    0.1323 C   0  0  0  0  0  0  0  0  0  0  0  0
   -5.7676    3.2914    0.0119 C   0  0  0  0  0  0  0  0  0  0  0  0
   -6.4684    4.8659    0.2066 Cl  0  0  0  0  0  0  0  0  0  0  0  0
   -6.5426    2.2132   -0.2706 C   0  0  0  0  0  0  0  0  0  0  0  0
   -6.0731    0.9523   -0.4385 N   0  0  0  0  0  0  0  0  0  0  0  0
    1.4915   -1.3684    0.1764 C   0  0  0  0  0  0  0  0  0  0  0  0
    1.9138   -2.5428    0.0100 O   0  0  0  0  0  0  0  0  0  0  0  0
    2.2887   -0.2514    0.2725 N   0  0  0  0  0  0  0  0  0  0  0  0
    3.6781   -0.1164    0.0922 C   0  0  0  0  0  0  0  0  0  0  0  0
    4.4849   -1.0748   -0.4574 C   0  0  0  0  0  0  0  0  0  0  0  0
    5.7988   -0.8935   -0.8065 C   0  0  0  0  0  0  0  0  0  0  0  0
    6.3829    0.3401   -0.5962 C   0  0  0  0  0  0  0  0  0  0  0  0
    5.6154    1.3278   -0.0453 C   0  0  0  0  0  0  0  0  0  0  0  0
    4.2884    1.1220    0.2992 C   0  0  0  0  0  0  0  0  0  0  0  0
    6.2090    2.6775    0.1455 C   0  0  0  0  0  0  0  0  0  0  0  0
    5.2986    3.6192   -0.2415 F   0  0  0  0  0  0  0  0  0  0  0  0
    7.3470    2.7959   -0.6414 F   0  0  0  0  0  0  0  0  0  0  0  0
    6.5121    2.8668    1.4592 F   0  0  0  0  0  0  0  0  0  0  0  0
   -3.3298   -4.5197    1.7703 H   0  0  0  0  0  0  0  0  0  0  0  0
   -2.2437   -4.9389    0.3642 H   0  0  0  0  0  0  0  0  0  0  0  0
   -4.0295   -4.8638    0.1604 H   0  0  0  0  0  0  0  0  0  0  0  0
   -0.5162   -3.2092    0.6798 H   0  0  0  0  0  0  0  0  0  0  0  0
    0.1889    0.8768   -0.2466 H   0  0  0  0  0  0  0  0  0  0  0  0
   -2.0647    1.2351   -0.5991 H   0  0  0  0  0  0  0  0  0  0  0  0
   -4.7031   -1.3915   -0.5903 H   0  0  0  0  0  0  0  0  0  0  0  0
   -3.7514    3.8606    0.3497 H   0  0  0  0  0  0  0  0  0  0  0  0
   -7.6402    2.3197   -0.3988 H   0  0  0  0  0  0  0  0  0  0  0  0
    1.7991    0.6817    0.5728 H   0  0  0  0  0  0  0  0  0  0  0  0
    4.0625   -2.0693   -0.6320 H   0  0  0  0  0  0  0  0  0  0  0  0
    6.3470   -1.7270   -1.2354 H   0  0  0  0  0  0  0  0  0  0  0  0
    7.4023    0.4546   -0.8868 H   0  0  0  0  0  0  0  0  0  0  0  0
    3.7051    1.8999    0.7370 H   0  0  0  0  0  0  0  0  0  0  0  0
  1  2  1  0
  2  3  1  0
  3  4  2  0
  4  5  1  0
  5  6  2  0
  6  7  1  0
  7  8  2  0
  8  9  1  0
  9 10  1  0
 10 11  2  0
 11 12  1  0
 12 13  2  0
 13 14  1  0
 13 15  1  0
 15 16  2  0
  5 17  1  0
 17 18  2  0
 17 19  1  0
 19 20  1  0
 20 21  2  0
 21 22  1  0
 22 23  2  0
 23 24  1  0
 24 25  2  0
 24 26  1  0
 26 27  1  0
 26 28  1  0
 26 29  1  0
  8  3  1  0
 16 10  1  0
 25 20  1  0
  1 30  1  0
  1 31  1  0
  1 32  1  0
  4 33  1  0
  6 34  1  0
  7 35  1  0
  9 36  1  0
 12 37  1  0
 15 38  1  0
 19 39  1  0
 21 40  1  0
 22 41  1  0
 23 42  1  0
 25 43  1  0
M  END
$$$$
[H]c1c([H])c(N2C([H])([H])C([H])([H])N(C(=O)N3C([H])([H])C([H])([H])N(c4c([H])c([H])c(C(F)(F)F)c([H])c4[H])C([H])([H])C3([H])[H])C([H])([H])C2([H])[H])c([H])c([H])c1C(=O)N1C([H])([H])C([H])([H])OC([H])([H])C1([H])[H]
     RDKit          3D

 70 74  0  0  0  0  0  0  0  0999 V2000
    8.4394   -3.8561    2.4275 F   0  0  0  0  0  0  0  0  0  0  0  0
    8.7717   -3.4101    1.1703 C   0  0  0  0  0  0  0  0  0  0  0  0
    8.4005   -4.4099    0.2895 F   0  0  0  0  0  0  0  0  0  0  0  0
   10.1423   -3.2593    1.1103 F   0  0  0  0  0  0  0  0  0  0  0  0
    8.0277   -2.1628    0.8612 C   0  0  0  0  0  0  0  0  0  0  0  0
    8.2405   -1.4433   -0.3126 C   0  0  0  0  0  0  0  0  0  0  0  0
    7.5441   -0.3127   -0.5558 C   0  0  0  0  0  0  0  0  0  0  0  0
    6.6000    0.1583    0.3540 C   0  0  0  0  0  0  0  0  0  0  0  0
    6.3746   -0.5250    1.5008 C   0  0  0  0  0  0  0  0  0  0  0  0
    7.0935   -1.6926    1.7566 C   0  0  0  0  0  0  0  0  0  0  0  0
    5.8696    1.3378    0.0521 N   0  0  0  0  0  0  0  0  0  0  0  0
    5.8020    1.7011   -1.3613 C   0  0  0  0  0  0  0  0  0  0  0  0
    4.6003    2.5366   -1.6383 C   0  0  0  0  0  0  0  0  0  0  0  0
    3.5337    2.0897   -0.6820 N   0  0  0  0  0  0  0  0  0  0  0  0
    3.7673    2.4348    0.7007 C   0  0  0  0  0  0  0  0  0  0  0  0
    5.2523    2.1645    1.0310 C   0  0  0  0  0  0  0  0  0  0  0  0
    2.4942    1.3267   -1.1399 C   0  0  0  0  0  0  0  0  0  0  0  0
    2.6288    0.8780   -2.3658 O   0  0  0  0  0  0  0  0  0  0  0  0
    1.3064    0.9469   -0.5138 N   0  0  0  0  0  0  0  0  0  0  0  0
    0.7479    1.4266    0.7227 C   0  0  0  0  0  0  0  0  0  0  0  0
   -0.7491    1.5414    0.7540 C   0  0  0  0  0  0  0  0  0  0  0  0
   -1.4512    0.8808   -0.3109 N   0  0  0  0  0  0  0  0  0  0  0  0
   -0.8116    0.4289   -1.5159 C   0  0  0  0  0  0  0  0  0  0  0  0
    0.5035   -0.1696   -1.1203 C   0  0  0  0  0  0  0  0  0  0  0  0
   -2.8752    0.6646   -0.1624 C   0  0  0  0  0  0  0  0  0  0  0  0
   -3.6307    1.6596    0.4313 C   0  0  0  0  0  0  0  0  0  0  0  0
   -4.9743    1.4987    0.6237 C   0  0  0  0  0  0  0  0  0  0  0  0
   -5.6543    0.3245    0.2351 C   0  0  0  0  0  0  0  0  0  0  0  0
   -4.8466   -0.6192   -0.3458 C   0  0  0  0  0  0  0  0  0  0  0  0
   -3.4802   -0.4941   -0.5611 C   0  0  0  0  0  0  0  0  0  0  0  0
   -7.0766    0.2040    0.4718 C   0  0  0  0  0  0  0  0  0  0  0  0
   -7.5646    1.2664    1.1092 O   0  0  0  0  0  0  0  0  0  0  0  0
   -7.9601   -0.7937    0.1531 N   0  0  0  0  0  0  0  0  0  0  0  0
   -7.8892   -2.0325   -0.5119 C   0  0  0  0  0  0  0  0  0  0  0  0
   -8.0193   -3.0991    0.6065 C   0  0  0  0  0  0  0  0  0  0  0  0
   -9.2133   -2.8895    1.2498 O   0  0  0  0  0  0  0  0  0  0  0  0
  -10.0038   -1.8700    0.7816 C   0  0  0  0  0  0  0  0  0  0  0  0
   -9.3690   -0.5311    0.6564 C   0  0  0  0  0  0  0  0  0  0  0  0
    8.9796   -1.8335   -0.9982 H   0  0  0  0  0  0  0  0  0  0  0  0
    7.7052    0.2725   -1.4729 H   0  0  0  0  0  0  0  0  0  0  0  0
    5.6379   -0.2189    2.2706 H   0  0  0  0  0  0  0  0  0  0  0  0
    6.9127   -2.2472    2.6930 H   0  0  0  0  0  0  0  0  0  0  0  0
    5.6758    0.7197   -1.9174 H   0  0  0  0  0  0  0  0  0  0  0  0
    6.7670    2.1333   -1.6985 H   0  0  0  0  0  0  0  0  0  0  0  0
    4.2280    2.3552   -2.6547 H   0  0  0  0  0  0  0  0  0  0  0  0
    4.7448    3.6085   -1.5001 H   0  0  0  0  0  0  0  0  0  0  0  0
    3.5440    3.5098    0.8874 H   0  0  0  0  0  0  0  0  0  0  0  0
    3.1931    1.8480    1.4360 H   0  0  0  0  0  0  0  0  0  0  0  0
    5.2624    1.7085    2.0422 H   0  0  0  0  0  0  0  0  0  0  0  0
    5.7394    3.1777    1.0392 H   0  0  0  0  0  0  0  0  0  0  0  0
    1.1124    2.4849    0.9133 H   0  0  0  0  0  0  0  0  0  0  0  0
    1.1277    0.7699    1.5319 H   0  0  0  0  0  0  0  0  0  0  0  0
   -1.0634    1.0334    1.7321 H   0  0  0  0  0  0  0  0  0  0  0  0
   -1.1000    2.5862    0.9105 H   0  0  0  0  0  0  0  0  0  0  0  0
   -0.6064    1.2424   -2.2442 H   0  0  0  0  0  0  0  0  0  0  0  0
   -1.4539   -0.3174   -2.0454 H   0  0  0  0  0  0  0  0  0  0  0  0
    0.4212   -0.9110   -0.2950 H   0  0  0  0  0  0  0  0  0  0  0  0
    1.0519   -0.5920   -1.9638 H   0  0  0  0  0  0  0  0  0  0  0  0
   -3.1188    2.5860    0.7385 H   0  0  0  0  0  0  0  0  0  0  0  0
   -5.5687    2.3033    1.0912 H   0  0  0  0  0  0  0  0  0  0  0  0
   -5.2698   -1.5618   -0.6601 H   0  0  0  0  0  0  0  0  0  0  0  0
   -2.8903   -1.2703   -1.0164 H   0  0  0  0  0  0  0  0  0  0  0  0
   -7.1196   -2.2600   -1.2159 H   0  0  0  0  0  0  0  0  0  0  0  0
   -8.8555   -2.1481   -1.1310 H   0  0  0  0  0  0  0  0  0  0  0  0
   -7.8329   -4.1022    0.2357 H   0  0  0  0  0  0  0  0  0  0  0  0
   -7.2108   -2.8615    1.3586 H   0  0  0  0  0  0  0  0  0  0  0  0
  -10.8297   -1.7600    1.5680 H   0  0  0  0  0  0  0  0  0  0  0  0
  -10.5911   -2.1735   -0.1231 H   0  0  0  0  0  0  0  0  0  0  0  0
   -9.3225    0.0083    1.6029 H   0  0  0  0  0  0  0  0  0  0  0  0
   -9.8407    0.0105   -0.1660 H   0  0  0  0  0  0  0  0  0  0  0  0
  1  2  1  0
  2  3  1  0
  2  4  1  0
  2  5  1  0
  5  6  2  0
  6  7  1  0
  7  8  2  0
  8  9  1  0
  9 10  2  0
  8 11  1  0
 11 12  1  0
 12 13  1  0
 13 14  1  0
 14 15  1  0
 15 16  1  0
 14 17  1  0
 17 18  2  0
 17 19  1  0
 19 20  1  0
 20 21  1  0
 21 22  1  0
 22 23  1  0
 23 24  1  0
 22 25  1  0
 25 26  2  0
 26 27  1  0
 27 28  2  0
 28 29  1  0
 29 30  2  0
 28 31  1  0
 31 32  2  0
 31 33  1  0
 33 34  1  0
 34 35  1  0
 35 36  1  0
 36 37  1  0
 37 38  1  0
 10  5  1  0
 16 11  1  0
 24 19  1  0
 30 25  1  0
 38 33  1  0
  6 39  1  0
  7 40  1  0
  9 41  1  0
 10 42  1  0
 12 43  1  0
 12 44  1  0
 13 45  1  0
 13 46  1  0
 15 47  1  0
 15 48  1  0
 16 49  1  0
 16 50  1  0
 20 51  1  0
 20 52  1  0
 21 53  1  0
 21 54  1  0
 23 55  1  0
 23 56  1  0
 24 57  1  0
 24 58  1  0
 26 59  1  0
 27 60  1  0
 29 61  1  0
 30 62  1  0
 34 63  1  0
 34 64  1  0
 35 65  1  0
 35 66  1  0
 37 67  1  0
 37 68  1  0
 38 69  1  0
 38 70  1  0
M  END
$$$$
[H]c1c([H])c([H])c(-c2c([H])c([H])c(S(=O)(=O)N([H])C3([H])C([H])([H])C([H])([H])N(C(=O)OC(C([H])([H])[H])(C([H])([H])[H])C([H])([H])[H])C([H])([H])C3([H])[H])c([H])c2[H])c([H])c1[H]
     RDKit          3D

 57 59  0  0  0  0  0  0  0  0999 V2000
   -6.6039    1.6484   -0.7362 C   0  0  0  0  0  0  0  0  0  0  0  0
   -6.3908    0.1625   -0.5207 C   0  0  0  0  0  0  0  0  0  0  0  0
   -7.5243   -0.3164    0.3755 C   0  0  0  0  0  0  0  0  0  0  0  0
   -6.4284   -0.6030   -1.8157 C   0  0  0  0  0  0  0  0  0  0  0  0
   -5.1427   -0.0291    0.0935 O   0  0  0  0  0  0  0  0  0  0  0  0
   -4.0147    0.4155   -0.5785 C   0  0  0  0  0  0  0  0  0  0  0  0
   -4.0743    0.9766   -1.7044 O   0  0  0  0  0  0  0  0  0  0  0  0
   -2.7321    0.2418    0.0065 N   0  0  0  0  0  0  0  0  0  0  0  0
   -2.6439   -0.4049    1.3082 C   0  0  0  0  0  0  0  0  0  0  0  0
   -1.6549   -1.5527    1.1198 C   0  0  0  0  0  0  0  0  0  0  0  0
   -0.3102   -0.8864    0.8859 C   0  0  0  0  0  0  0  0  0  0  0  0
   -0.3421   -0.1683   -0.4216 C   0  0  0  0  0  0  0  0  0  0  0  0
   -1.5295    0.6859   -0.6524 C   0  0  0  0  0  0  0  0  0  0  0  0
   -0.1119    0.0533    1.9570 N   0  0  0  0  0  0  0  0  0  0  0  0
    1.2742   -0.2819    2.9235 S   0  0  0  0  0  0  0  0  0  0  0  0
    1.3263    0.7644    4.0030 O   0  0  0  0  0  0  0  0  0  0  0  0
    1.1753   -1.6325    3.5922 O   0  0  0  0  0  0  0  0  0  0  0  0
    2.6958   -0.1887    1.9014 C   0  0  0  0  0  0  0  0  0  0  0  0
    3.1984   -1.2892    1.2378 C   0  0  0  0  0  0  0  0  0  0  0  0
    4.3194   -1.1739    0.4420 C   0  0  0  0  0  0  0  0  0  0  0  0
    4.9881    0.0195    0.2666 C   0  0  0  0  0  0  0  0  0  0  0  0
    4.4941    1.1263    0.9256 C   0  0  0  0  0  0  0  0  0  0  0  0
    3.3733    1.0087    1.7206 C   0  0  0  0  0  0  0  0  0  0  0  0
    6.1793    0.1020   -0.5906 C   0  0  0  0  0  0  0  0  0  0  0  0
    6.3992    1.2870   -1.2368 C   0  0  0  0  0  0  0  0  0  0  0  0
    7.4991    1.4011   -2.0445 C   0  0  0  0  0  0  0  0  0  0  0  0
    8.3842    0.3633   -2.2234 C   0  0  0  0  0  0  0  0  0  0  0  0
    8.1382   -0.8139   -1.5625 C   0  0  0  0  0  0  0  0  0  0  0  0
    7.0499   -0.9561   -0.7511 C   0  0  0  0  0  0  0  0  0  0  0  0
   -7.6511    1.9548   -0.5448 H   0  0  0  0  0  0  0  0  0  0  0  0
   -5.9928    2.1883    0.0379 H   0  0  0  0  0  0  0  0  0  0  0  0
   -6.3414    1.9882   -1.7399 H   0  0  0  0  0  0  0  0  0  0  0  0
   -7.8359   -1.3479    0.1162 H   0  0  0  0  0  0  0  0  0  0  0  0
   -7.2537   -0.2344    1.4498 H   0  0  0  0  0  0  0  0  0  0  0  0
   -8.4316    0.3182    0.2138 H   0  0  0  0  0  0  0  0  0  0  0  0
   -7.1121   -1.4955   -1.7063 H   0  0  0  0  0  0  0  0  0  0  0  0
   -6.8750    0.0096   -2.6303 H   0  0  0  0  0  0  0  0  0  0  0  0
   -5.4454   -1.0350   -2.0978 H   0  0  0  0  0  0  0  0  0  0  0  0
   -3.6045   -0.7847    1.6524 H   0  0  0  0  0  0  0  0  0  0  0  0
   -2.2292    0.3520    2.0318 H   0  0  0  0  0  0  0  0  0  0  0  0
   -1.9472   -2.0385    0.1559 H   0  0  0  0  0  0  0  0  0  0  0  0
   -1.6591   -2.2511    1.9526 H   0  0  0  0  0  0  0  0  0  0  0  0
    0.4448   -1.6752    0.8407 H   0  0  0  0  0  0  0  0  0  0  0  0
   -0.1690   -0.9185   -1.2352 H   0  0  0  0  0  0  0  0  0  0  0  0
    0.5680    0.5004   -0.4499 H   0  0  0  0  0  0  0  0  0  0  0  0
   -1.7567    0.6577   -1.7594 H   0  0  0  0  0  0  0  0  0  0  0  0
   -1.3766    1.7652   -0.4306 H   0  0  0  0  0  0  0  0  0  0  0  0
   -0.0464    1.0409    1.6541 H   0  0  0  0  0  0  0  0  0  0  0  0
    2.7121   -2.2599    1.3392 H   0  0  0  0  0  0  0  0  0  0  0  0
    4.7395   -2.0339   -0.0966 H   0  0  0  0  0  0  0  0  0  0  0  0
    4.9896    2.0829    0.8149 H   0  0  0  0  0  0  0  0  0  0  0  0
    2.9559    1.8727    2.2585 H   0  0  0  0  0  0  0  0  0  0  0  0
    5.7152    2.1117   -1.1077 H   0  0  0  0  0  0  0  0  0  0  0  0
    7.6748    2.3391   -2.5570 H   0  0  0  0  0  0  0  0  0  0  0  0
    9.2618    0.4554   -2.8685 H   0  0  0  0  0  0  0  0  0  0  0  0
    8.8269   -1.6326   -1.6971 H   0  0  0  0  0  0  0  0  0  0  0  0
    6.8478   -1.8890   -0.2222 H   0  0  0  0  0  0  0  0  0  0  0  0
  1  2  1  0
  2  3  1  0
  2  4  1  0
  2  5  1  0
  5  6  1  0
  6  7  2  0
  6  8  1  0
  8  9  1  0
  9 10  1  0
 10 11  1  0
 11 12  1  0
 12 13  1  0
 11 14  1  0
 14 15  1  0
 15 16  2  0
 15 17  2  0
 15 18  1  0
 18 19  2  0
 19 20  1  0
 20 21  2  0
 21 22  1  0
 22 23  2  0
 21 24  1  0
 24 25  2  0
 25 26  1  0
 26 27  2  0
 27 28  1  0
 28 29  2  0
 13  8  1  0
 23 18  1  0
 29 24  1  0
  1 30  1  0
  1 31  1  0
  1 32  1  0
  3 33  1  0
  3 34  1  0
  3 35  1  0
  4 36  1  0
  4 37  1  0
  4 38  1  0
  9 39  1  0
  9 40  1  0
 10 41  1  0
 10 42  1  0
 11 43  1  0
 12 44  1  0
 12 45  1  0
 13 46  1  0
 13 47  1  0
 14 48  1  0
 19 49  1  0
 20 50  1  0
 22 51  1  0
 23 52  1  0
 25 53  1  0
 26 54  1  0
 27 55  1  0
 28 56  1  0
 29 57  1  0
M  END
$$$$
[H]c1nc(N([H])c2c([H])c([H])c(N3C([H])([H])C([H])([H])C([H])([H])[C@@]3([H])C#N)c([H])c2OC([H])([H])[H])nc(N([H])c2c([H])c([H])c([H])c([H])c2S(=O)(=O)C([H])(C([H])([H])[H])C([H])([H])[H])c1Cl
     RDKit          3D

 63 66  0  0  0  0  0  0  0  0999 V2000
   -3.0885   -3.6015    1.3867 C   0  0  0  0  0  0  0  0  0  0  0  0
   -2.3731   -2.5071    0.8492 O   0  0  0  0  0  0  0  0  0  0  0  0
   -2.9932   -1.3487    0.4548 C   0  0  0  0  0  0  0  0  0  0  0  0
   -4.3483   -1.2515    0.5868 C   0  0  0  0  0  0  0  0  0  0  0  0
   -5.0607   -0.1289    0.2186 C   0  0  0  0  0  0  0  0  0  0  0  0
   -4.3137    0.9043   -0.2979 C   0  0  0  0  0  0  0  0  0  0  0  0
   -2.9184    0.8201   -0.4402 C   0  0  0  0  0  0  0  0  0  0  0  0
   -2.2468   -0.3090   -0.0643 C   0  0  0  0  0  0  0  0  0  0  0  0
   -0.8667   -0.4909   -0.1636 N   0  0  0  0  0  0  0  0  0  0  0  0
    0.0706    0.4407   -0.6678 C   0  0  0  0  0  0  0  0  0  0  0  0
   -0.1948    1.6540   -1.1371 N   0  0  0  0  0  0  0  0  0  0  0  0
    0.7376    2.4953   -1.6032 C   0  0  0  0  0  0  0  0  0  0  0  0
    2.0386    2.0917   -1.5998 C   0  0  0  0  0  0  0  0  0  0  0  0
    3.2803    3.1885   -2.2109 Cl  0  0  0  0  0  0  0  0  0  0  0  0
    2.3879    0.8274   -1.1199 C   0  0  0  0  0  0  0  0  0  0  0  0
    3.7469    0.4727   -1.1331 N   0  0  0  0  0  0  0  0  0  0  0  0
    4.3746   -0.7143   -0.7290 C   0  0  0  0  0  0  0  0  0  0  0  0
    3.6735   -1.8344   -0.3715 C   0  0  0  0  0  0  0  0  0  0  0  0
    4.3069   -3.0391   -0.0037 C   0  0  0  0  0  0  0  0  0  0  0  0
    5.6609   -3.0648   -0.0124 C   0  0  0  0  0  0  0  0  0  0  0  0
    6.3727   -1.9565   -0.3662 C   0  0  0  0  0  0  0  0  0  0  0  0
    5.7615   -0.7713   -0.7274 C   0  0  0  0  0  0  0  0  0  0  0  0
    6.7715    0.5679   -1.1167 S   0  0  0  0  0  0  0  0  0  0  0  0
    8.2498    0.1326   -1.0816 O   0  0  0  0  0  0  0  0  0  0  0  0
    6.5214    1.0157   -2.5422 O   0  0  0  0  0  0  0  0  0  0  0  0
    6.6359    1.9425   -0.0306 C   0  0  0  0  0  0  0  0  0  0  0  0
    7.0105    1.4844    1.3739 C   0  0  0  0  0  0  0  0  0  0  0  0
    7.6486    3.0062   -0.4517 C   0  0  0  0  0  0  0  0  0  0  0  0
    1.3902    0.0813   -0.6851 N   0  0  0  0  0  0  0  0  0  0  0  0
   -6.4638   -0.0094    0.3467 N   0  0  0  0  0  0  0  0  0  0  0  0
   -7.3497   -1.0316    0.8501 C   0  0  0  0  0  0  0  0  0  0  0  0
   -8.4975   -0.9495   -0.1668 C   0  0  0  0  0  0  0  0  0  0  0  0
   -8.6677    0.5536   -0.2804 C   0  0  0  0  0  0  0  0  0  0  0  0
   -7.2915    1.1159    0.0187 C   0  0  1  0  0  0  0  0  0  0  0  0
   -7.3755    2.0903    1.1190 C   0  0  0  0  0  0  0  0  0  0  0  0
   -7.4452    2.8653    1.9657 N   0  0  0  0  0  0  0  0  0  0  0  0
   -2.4274   -4.4778    1.5424 H   0  0  0  0  0  0  0  0  0  0  0  0
   -3.5725   -3.3406    2.3568 H   0  0  0  0  0  0  0  0  0  0  0  0
   -3.9341   -3.8999    0.7089 H   0  0  0  0  0  0  0  0  0  0  0  0
   -4.9132   -2.1011    1.0059 H   0  0  0  0  0  0  0  0  0  0  0  0
   -4.8493    1.8081   -0.5991 H   0  0  0  0  0  0  0  0  0  0  0  0
   -2.4396    1.6891   -0.8554 H   0  0  0  0  0  0  0  0  0  0  0  0
   -0.4839   -1.4377    0.1801 H   0  0  0  0  0  0  0  0  0  0  0  0
    0.4197    3.4634   -1.9643 H   0  0  0  0  0  0  0  0  0  0  0  0
    4.4054    1.2214   -1.5277 H   0  0  0  0  0  0  0  0  0  0  0  0
    2.5973   -1.8658   -0.3552 H   0  0  0  0  0  0  0  0  0  0  0  0
    3.7276   -3.9067    0.2739 H   0  0  0  0  0  0  0  0  0  0  0  0
    6.1751   -3.9947    0.2706 H   0  0  0  0  0  0  0  0  0  0  0  0
    7.4709   -2.0299   -0.3570 H   0  0  0  0  0  0  0  0  0  0  0  0
    5.6261    2.3683    0.0193 H   0  0  0  0  0  0  0  0  0  0  0  0
    6.8805    2.3602    2.0313 H   0  0  0  0  0  0  0  0  0  0  0  0
    6.2758    0.7249    1.7114 H   0  0  0  0  0  0  0  0  0  0  0  0
    8.0414    1.1096    1.3445 H   0  0  0  0  0  0  0  0  0  0  0  0
    8.1141    3.4225    0.4480 H   0  0  0  0  0  0  0  0  0  0  0  0
    8.3580    2.5857   -1.1859 H   0  0  0  0  0  0  0  0  0  0  0  0
    7.0526    3.7865   -0.9978 H   0  0  0  0  0  0  0  0  0  0  0  0
   -7.7747   -0.7719    1.8413 H   0  0  0  0  0  0  0  0  0  0  0  0
   -6.9293   -2.0435    0.8657 H   0  0  0  0  0  0  0  0  0  0  0  0
   -8.1617   -1.3296   -1.1385 H   0  0  0  0  0  0  0  0  0  0  0  0
   -9.4025   -1.4481    0.2320 H   0  0  0  0  0  0  0  0  0  0  0  0
   -9.0243    0.8503   -1.2941 H   0  0  0  0  0  0  0  0  0  0  0  0
   -9.4161    0.8533    0.4958 H   0  0  0  0  0  0  0  0  0  0  0  0
   -6.9610    1.6620   -0.8819 H   0  0  0  0  0  0  0  0  0  0  0  0
  1  2  1  0
  2  3  1  0
  3  4  2  0
  4  5  1  0
  5  6  2  0
  6  7  1  0
  7  8  2  0
  8  9  1  0
  9 10  1  0
 10 11  2  0
 11 12  1  0
 12 13  2  0
 13 14  1  0
 13 15  1  0
 15 16  1  0
 16 17  1  0
 17 18  2  0
 18 19  1  0
 19 20  2  0
 20 21  1  0
 21 22  2  0
 22 23  1  0
 23 24  2  0
 23 25  2  0
 23 26  1  0
 26 27  1  0
 26 28  1  0
 15 29  2  0
  5 30  1  0
 30 31  1  0
 31 32  1  0
 32 33  1  0
 33 34  1  0
 34 35  1  0
 35 36  3  0
  8  3  1  0
 29 10  1  0
 34 30  1  0
 22 17  1  0
  1 37  1  0
  1 38  1  0
  1 39  1  0
  4 40  1  0
  6 41  1  0
  7 42  1  0
  9 43  1  0
 12 44  1  0
 16 45  1  0
 18 46  1  0
 19 47  1  0
 20 48  1  0
 21 49  1  0
 26 50  1  0
 27 51  1  0
 27 52  1  0
 27 53  1  0
 28 54  1  0
 28 55  1  0
 28 56  1  0
 31 57  1  0
 31 58  1  0
 32 59  1  0
 32 60  1  0
 33 61  1  0
 33 62  1  0
 34 63  1  6
M  END
$$$$
[H]OC(=O)C([H])([H])C([H])([H])c1c([H])c(Cl)c(Cl)c([H])c1S(=O)(=O)c1c([H])c([H])c([H])c(C(=O)N2C([H])([H])C([H])([H])C([H])([H])C([H])([H])C2([H])[H])c1[H]
     RDKit          3D

 51 53  0  0  0  0  0  0  0  0999 V2000
   -7.8564    0.6949    1.5911 O   0  0  0  0  0  0  0  0  0  0  0  0
   -6.9201    0.6292    0.5464 C   0  0  0  0  0  0  0  0  0  0  0  0
   -7.1027   -0.2317   -0.3174 O   0  0  0  0  0  0  0  0  0  0  0  0
   -5.7719    1.5609    0.5024 C   0  0  0  0  0  0  0  0  0  0  0  0
   -4.8262    1.4370   -0.6112 C   0  0  0  0  0  0  0  0  0  0  0  0
   -4.0936    0.2011   -0.8536 C   0  0  0  0  0  0  0  0  0  0  0  0
   -4.4899   -0.6824   -1.8766 C   0  0  0  0  0  0  0  0  0  0  0  0
   -3.8553   -1.8360   -2.1993 C   0  0  0  0  0  0  0  0  0  0  0  0
   -4.4606   -2.8387   -3.4958 Cl  0  0  0  0  0  0  0  0  0  0  0  0
   -2.7380   -2.1760   -1.4789 C   0  0  0  0  0  0  0  0  0  0  0  0
   -1.8929   -3.6588   -1.8676 Cl  0  0  0  0  0  0  0  0  0  0  0  0
   -2.3184   -1.3452   -0.4778 C   0  0  0  0  0  0  0  0  0  0  0  0
   -2.9663   -0.1720   -0.1506 C   0  0  0  0  0  0  0  0  0  0  0  0
   -2.3060    0.7494    1.1447 S   0  0  0  0  0  0  0  0  0  0  0  0
   -3.0359    0.5206    2.4736 O   0  0  0  0  0  0  0  0  0  0  0  0
   -2.1750    2.1902    0.9263 O   0  0  0  0  0  0  0  0  0  0  0  0
   -0.6824    0.1148    1.4982 C   0  0  0  0  0  0  0  0  0  0  0  0
   -0.5486   -0.8813    2.4242 C   0  0  0  0  0  0  0  0  0  0  0  0
    0.7180   -1.3502    2.6628 C   0  0  0  0  0  0  0  0  0  0  0  0
    1.8408   -0.8332    1.9867 C   0  0  0  0  0  0  0  0  0  0  0  0
    1.7318    0.1568    1.0608 C   0  0  0  0  0  0  0  0  0  0  0  0
    0.4138    0.6149    0.8420 C   0  0  0  0  0  0  0  0  0  0  0  0
    2.7943    0.7365    0.2602 C   0  0  0  0  0  0  0  0  0  0  0  0
    2.4643    1.8162   -0.4291 O   0  0  0  0  0  0  0  0  0  0  0  0
    4.1233    0.3738    0.0651 N   0  0  0  0  0  0  0  0  0  0  0  0
    4.7572   -0.7618    0.6339 C   0  0  0  0  0  0  0  0  0  0  0  0
    6.0356   -1.2237    0.0193 C   0  0  0  0  0  0  0  0  0  0  0  0
    6.7132   -0.2939   -0.9026 C   0  0  0  0  0  0  0  0  0  0  0  0
    6.3663    1.1306   -0.5530 C   0  0  0  0  0  0  0  0  0  0  0  0
    4.8986    1.2970   -0.8008 C   0  0  0  0  0  0  0  0  0  0  0  0
   -8.1300    1.5724    1.9907 H   0  0  0  0  0  0  0  0  0  0  0  0
   -6.2890    2.5873    0.4816 H   0  0  0  0  0  0  0  0  0  0  0  0
   -5.2663    1.4566    1.4735 H   0  0  0  0  0  0  0  0  0  0  0  0
   -4.1360    2.3437   -0.6861 H   0  0  0  0  0  0  0  0  0  0  0  0
   -5.4393    1.6117   -1.5603 H   0  0  0  0  0  0  0  0  0  0  0  0
   -5.3589   -0.3848   -2.4510 H   0  0  0  0  0  0  0  0  0  0  0  0
   -1.4134   -1.6846    0.0557 H   0  0  0  0  0  0  0  0  0  0  0  0
   -1.3729   -1.3132    2.9702 H   0  0  0  0  0  0  0  0  0  0  0  0
    0.8668   -2.1366    3.3866 H   0  0  0  0  0  0  0  0  0  0  0  0
    2.7967   -1.2354    2.2525 H   0  0  0  0  0  0  0  0  0  0  0  0
    0.2823    1.3995    0.1156 H   0  0  0  0  0  0  0  0  0  0  0  0
    4.8956   -0.5522    1.7304 H   0  0  0  0  0  0  0  0  0  0  0  0
    4.0409   -1.6300    0.4879 H   0  0  0  0  0  0  0  0  0  0  0  0
    5.9288   -2.2238   -0.5075 H   0  0  0  0  0  0  0  0  0  0  0  0
    6.7643   -1.4241    0.8698 H   0  0  0  0  0  0  0  0  0  0  0  0
    6.3753   -0.4820   -1.9611 H   0  0  0  0  0  0  0  0  0  0  0  0
    7.8080   -0.4766   -0.8862 H   0  0  0  0  0  0  0  0  0  0  0  0
    6.5778    1.3282    0.5182 H   0  0  0  0  0  0  0  0  0  0  0  0
    6.9326    1.8650   -1.1557 H   0  0  0  0  0  0  0  0  0  0  0  0
    4.6983    1.0959   -1.8678 H   0  0  0  0  0  0  0  0  0  0  0  0
    4.6214    2.3441   -0.5956 H   0  0  0  0  0  0  0  0  0  0  0  0
  1  2  1  0
  2  3  2  0
  2  4  1  0
  4  5  1  0
  5  6  1  0
  6  7  2  0
  7  8  1  0
  8  9  1  0
  8 10  2  0
 10 11  1  0
 10 12  1  0
 12 13  2  0
 13 14  1  0
 14 15  2  0
 14 16  2  0
 14 17  1  0
 17 18  2  0
 18 19  1  0
 19 20  2  0
 20 21  1  0
 21 22  2  0
 21 23  1  0
 23 24  2  0
 23 25  1  0
 25 26  1  0
 26 27  1  0
 27 28  1  0
 28 29  1  0
 29 30  1  0
 13  6  1  0
 22 17  1  0
 30 25  1  0
  1 31  1  0
  4 32  1  0
  4 33  1  0
  5 34  1  0
  5 35  1  0
  7 36  1  0
 12 37  1  0
 18 38  1  0
 19 39  1  0
 20 40  1  0
 22 41  1  0
 26 42  1  0
 26 43  1  0
 27 44  1  0
 27 45  1  0
 28 46  1  0
 28 47  1  0
 29 48  1  0
 29 49  1  0
 30 50  1  0
 30 51  1  0
M  END
$$$$
[H]OC([H])([H])[C@@]1([H])O[C@@]([H])(n2c([H])nc3c(N([H])[H])nc([H])nc32)[C@]([H])(S(=O)(=O)c2c([H])c([H])c([H])c([H])c2[H])[C@]1([H])O[H]
     RDKit          3D

 44 47  0  0  0  0  0  0  0  0999 V2000
   -5.1814   -2.8957    0.3123 N   0  0  0  0  0  0  0  0  0  0  0  0
   -4.2354   -1.9398   -0.1511 C   0  0  0  0  0  0  0  0  0  0  0  0
   -4.1361   -1.7121   -1.4774 N   0  0  0  0  0  0  0  0  0  0  0  0
   -3.2385   -0.8027   -1.9411 C   0  0  0  0  0  0  0  0  0  0  0  0
   -2.4508   -0.1287   -1.1027 N   0  0  0  0  0  0  0  0  0  0  0  0
   -2.4942   -0.3026    0.2231 C   0  0  0  0  0  0  0  0  0  0  0  0
   -1.8366    0.2277    1.2480 N   0  0  0  0  0  0  0  0  0  0  0  0
   -2.3269   -0.3546    2.3597 C   0  0  0  0  0  0  0  0  0  0  0  0
   -3.2809   -1.2386    2.0235 N   0  0  0  0  0  0  0  0  0  0  0  0
   -3.4188   -1.2389    0.6965 C   0  0  0  0  0  0  0  0  0  0  0  0
   -0.8021    1.2293    1.1802 C   0  0  2  0  0  0  0  0  0  0  0  0
   -1.2367    2.2470    0.3329 O   0  0  0  0  0  0  0  0  0  0  0  0
   -0.1522    2.7911   -0.3060 C   0  0  2  0  0  0  0  0  0  0  0  0
   -0.4885    3.0615   -1.7696 C   0  0  0  0  0  0  0  0  0  0  0  0
    0.6329    3.6202   -2.4114 O   0  0  0  0  0  0  0  0  0  0  0  0
    1.0050    1.8105   -0.1990 C   0  0  1  0  0  0  0  0  0  0  0  0
    1.9991    2.4114    0.5999 O   0  0  0  0  0  0  0  0  0  0  0  0
    0.4001    0.6233    0.4669 C   0  0  1  0  0  0  0  0  0  0  0  0
    1.4452   -0.2643    1.5502 S   0  0  0  0  0  0  0  0  0  0  0  0
    0.6047   -1.3610    2.1866 O   0  0  0  0  0  0  0  0  0  0  0  0
    1.9634    0.5681    2.6845 O   0  0  0  0  0  0  0  0  0  0  0  0
    2.7415   -0.9852    0.6368 C   0  0  0  0  0  0  0  0  0  0  0  0
    2.4793   -2.2401    0.0887 C   0  0  0  0  0  0  0  0  0  0  0  0
    3.4251   -2.9000   -0.6429 C   0  0  0  0  0  0  0  0  0  0  0  0
    4.6436   -2.3082   -0.8325 C   0  0  0  0  0  0  0  0  0  0  0  0
    4.9399   -1.0696   -0.3069 C   0  0  0  0  0  0  0  0  0  0  0  0
    3.9641   -0.4102    0.4369 C   0  0  0  0  0  0  0  0  0  0  0  0
   -6.0327   -2.5667    0.8077 H   0  0  0  0  0  0  0  0  0  0  0  0
   -4.9894   -3.9041    0.1390 H   0  0  0  0  0  0  0  0  0  0  0  0
   -3.1514   -0.6132   -3.0018 H   0  0  0  0  0  0  0  0  0  0  0  0
   -1.9646   -0.1043    3.3450 H   0  0  0  0  0  0  0  0  0  0  0  0
   -0.5142    1.5773    2.1743 H   0  0  0  0  0  0  0  0  0  0  0  0
    0.0993    3.7373    0.1927 H   0  0  0  0  0  0  0  0  0  0  0  0
   -1.3626    3.7409   -1.8028 H   0  0  0  0  0  0  0  0  0  0  0  0
   -0.7207    2.0973   -2.2585 H   0  0  0  0  0  0  0  0  0  0  0  0
    0.3029    4.2962   -3.0280 H   0  0  0  0  0  0  0  0  0  0  0  0
    1.4518    1.6222   -1.1803 H   0  0  0  0  0  0  0  0  0  0  0  0
    1.7280    3.3119    0.8825 H   0  0  0  0  0  0  0  0  0  0  0  0
    0.0117   -0.1068   -0.2938 H   0  0  0  0  0  0  0  0  0  0  0  0
    1.5084   -2.7264    0.2321 H   0  0  0  0  0  0  0  0  0  0  0  0
    3.2099   -3.8806   -1.0670 H   0  0  0  0  0  0  0  0  0  0  0  0
    5.3825   -2.8600   -1.4231 H   0  0  0  0  0  0  0  0  0  0  0  0
    5.8967   -0.6121   -0.4595 H   0  0  0  0  0  0  0  0  0  0  0  0
    4.1795    0.5533    0.8555 H   0  0  0  0  0  0  0  0  0  0  0  0
  1  2  1  0
  2  3  2  0
  3  4  1  0
  4  5  2  0
  5  6  1  0
  6  7  1  0
  7  8  1  0
  8  9  2  0
  9 10  1  0
  7 11  1  0
 11 12  1  0
 12 13  1  0
 13 14  1  0
 14 15  1  0
 13 16  1  0
 16 17  1  0
 16 18  1  0
 18 19  1  0
 19 20  2  0
 19 21  2  0
 19 22  1  0
 22 23  2  0
 23 24  1  0
 24 25  2  0
 25 26  1  0
 26 27  2  0
 10  2  1  0
 18 11  1  0
 27 22  1  0
 10  6  2  0
  1 28  1  0
  1 29  1  0
  4 30  1  0
  8 31  1  0
 11 32  1  1
 13 33  1  1
 14 34  1  0
 14 35  1  0
 15 36  1  0
 16 37  1  6
 17 38  1  0
 18 39  1  6
 23 40  1  0
 24 41  1  0
 25 42  1  0
 26 43  1  0
 27 44  1  0
M  END
$$$$
