[H]OC(=O)c1c([H])c([H])c(C([H])([H])N2C([H])([H])C3(ON=C(/C([H])=C(\[H])c4c([H])c([H])c([H])c(C([H])([H])C([H])([H])c5nc6c([H])c(Cl)c([H])c([H])c6c([H])c5[H])c4[H])C3([H])[H])C2([H])[H])c([H])c1OC([H])([H])[H]
     RDKit          3D

 71 76  0  0  0  0  0  0  0  0999 V2000
   -8.7256    2.2267   -1.6726 C   0  0  0  0  0  0  0  0  0  0  0  0
   -9.4610    1.2630   -0.9653 O   0  0  0  0  0  0  0  0  0  0  0  0
   -8.9629    0.5947    0.1317 C   0  0  0  0  0  0  0  0  0  0  0  0
   -7.6879    0.8757    0.5633 C   0  0  0  0  0  0  0  0  0  0  0  0
   -7.0943    0.2650    1.6488 C   0  0  0  0  0  0  0  0  0  0  0  0
   -5.7150    0.5868    2.0878 C   0  0  0  0  0  0  0  0  0  0  0  0
   -5.0633    1.3479    1.0337 N   0  0  0  0  0  0  0  0  0  0  0  0
   -3.7048    1.7465    1.3582 C   0  0  0  0  0  0  0  0  0  0  0  0
   -3.2350    1.0276    0.1240 C   0  0  0  0  0  0  0  0  0  0  0  0
   -4.6254    0.5397   -0.0879 C   0  0  0  0  0  0  0  0  0  0  0  0
   -2.1705   -0.0217    0.3466 C   0  0  0  0  0  0  0  0  0  0  0  0
   -0.9643    0.6789   -0.1984 C   0  0  0  0  0  0  0  0  0  0  0  0
   -1.3472    1.7172   -0.8750 N   0  0  0  0  0  0  0  0  0  0  0  0
   -2.6944    1.8553   -0.8866 O   0  0  0  0  0  0  0  0  0  0  0  0
    0.3938    0.2150    0.0328 C   0  0  0  0  0  0  0  0  0  0  0  0
    0.6619   -0.8632    0.7428 C   0  0  0  0  0  0  0  0  0  0  0  0
    1.9958   -1.3766    1.0089 C   0  0  0  0  0  0  0  0  0  0  0  0
    2.1410   -2.5157    1.7668 C   0  0  0  0  0  0  0  0  0  0  0  0
    3.3977   -3.0295    2.0388 C   0  0  0  0  0  0  0  0  0  0  0  0
    4.5198   -2.4001    1.5497 C   0  0  0  0  0  0  0  0  0  0  0  0
    4.3753   -1.2655    0.7947 C   0  0  0  0  0  0  0  0  0  0  0  0
    5.5900   -0.6000    0.2764 C   0  0  0  0  0  0  0  0  0  0  0  0
    5.9634   -1.1492   -1.0866 C   0  0  0  0  0  0  0  0  0  0  0  0
    7.1943   -0.4123   -1.5122 C   0  0  0  0  0  0  0  0  0  0  0  0
    7.0771    0.7590   -2.2306 C   0  0  0  0  0  0  0  0  0  0  0  0
    8.2393    1.4347   -2.6198 C   0  0  0  0  0  0  0  0  0  0  0  0
    9.4628    0.9315   -2.2870 C   0  0  0  0  0  0  0  0  0  0  0  0
   10.6207    1.5821   -2.6607 C   0  0  0  0  0  0  0  0  0  0  0  0
   11.8636    1.1004   -2.3406 C   0  0  0  0  0  0  0  0  0  0  0  0
   11.9331   -0.0755   -1.6203 C   0  0  0  0  0  0  0  0  0  0  0  0
   13.5381   -0.6769   -1.2195 Cl  0  0  0  0  0  0  0  0  0  0  0  0
   10.7907   -0.7392   -1.2382 C   0  0  0  0  0  0  0  0  0  0  0  0
    9.5558   -0.2368   -1.5709 C   0  0  0  0  0  0  0  0  0  0  0  0
    8.4103   -0.8790   -1.2019 N   0  0  0  0  0  0  0  0  0  0  0  0
    3.1069   -0.7477    0.5206 C   0  0  0  0  0  0  0  0  0  0  0  0
   -7.8680   -0.6791    2.3102 C   0  0  0  0  0  0  0  0  0  0  0  0
   -9.1453   -0.9680    1.8867 C   0  0  0  0  0  0  0  0  0  0  0  0
   -9.7172   -0.3393    0.7925 C   0  0  0  0  0  0  0  0  0  0  0  0
  -11.0701   -0.6906    0.3981 C   0  0  0  0  0  0  0  0  0  0  0  0
  -11.7656   -1.6344    1.1064 O   0  0  0  0  0  0  0  0  0  0  0  0
  -11.5857   -0.1245   -0.5876 O   0  0  0  0  0  0  0  0  0  0  0  0
   -8.7095    3.2167   -1.1674 H   0  0  0  0  0  0  0  0  0  0  0  0
   -7.6783    1.9262   -1.8764 H   0  0  0  0  0  0  0  0  0  0  0  0
   -9.2852    2.4028   -2.6350 H   0  0  0  0  0  0  0  0  0  0  0  0
   -7.0694    1.6251    0.0465 H   0  0  0  0  0  0  0  0  0  0  0  0
   -5.1438   -0.3147    2.3639 H   0  0  0  0  0  0  0  0  0  0  0  0
   -5.7922    1.2422    2.9846 H   0  0  0  0  0  0  0  0  0  0  0  0
   -3.5705    2.8420    1.2617 H   0  0  0  0  0  0  0  0  0  0  0  0
   -3.3133    1.3303    2.3187 H   0  0  0  0  0  0  0  0  0  0  0  0
   -5.0780    0.8858   -1.0291 H   0  0  0  0  0  0  0  0  0  0  0  0
   -4.7038   -0.5545    0.0690 H   0  0  0  0  0  0  0  0  0  0  0  0
   -2.3191   -0.9296   -0.2435 H   0  0  0  0  0  0  0  0  0  0  0  0
   -2.0800   -0.2121    1.4305 H   0  0  0  0  0  0  0  0  0  0  0  0
    1.2073    0.7704   -0.3896 H   0  0  0  0  0  0  0  0  0  0  0  0
   -0.1941   -1.4082    1.1608 H   0  0  0  0  0  0  0  0  0  0  0  0
    1.2718   -3.0481    2.1758 H   0  0  0  0  0  0  0  0  0  0  0  0
    3.4597   -3.9207    2.6349 H   0  0  0  0  0  0  0  0  0  0  0  0
    5.4892   -2.8126    1.7704 H   0  0  0  0  0  0  0  0  0  0  0  0
    6.3945   -0.7318    1.0009 H   0  0  0  0  0  0  0  0  0  0  0  0
    5.4015    0.4887    0.1854 H   0  0  0  0  0  0  0  0  0  0  0  0
    6.2176   -2.2086   -1.0611 H   0  0  0  0  0  0  0  0  0  0  0  0
    5.2027   -0.9471   -1.8457 H   0  0  0  0  0  0  0  0  0  0  0  0
    6.1184    1.1662   -2.4992 H   0  0  0  0  0  0  0  0  0  0  0  0
    8.1750    2.3522   -3.1820 H   0  0  0  0  0  0  0  0  0  0  0  0
   10.5706    2.5003   -3.2233 H   0  0  0  0  0  0  0  0  0  0  0  0
   12.7504    1.6304   -2.6462 H   0  0  0  0  0  0  0  0  0  0  0  0
   10.8781   -1.6548   -0.6765 H   0  0  0  0  0  0  0  0  0  0  0  0
    3.0851    0.1473   -0.0803 H   0  0  0  0  0  0  0  0  0  0  0  0
   -7.4261   -1.1771    3.1701 H   0  0  0  0  0  0  0  0  0  0  0  0
   -9.7430   -1.7202    2.4252 H   0  0  0  0  0  0  0  0  0  0  0  0
  -12.3433   -1.3437    1.8991 H   0  0  0  0  0  0  0  0  0  0  0  0
  1  2  1  0
  2  3  1  0
  3  4  2  0
  4  5  1  0
  5  6  1  0
  6  7  1  0
  7  8  1  0
  8  9  1  0
  9 10  1  0
  9 11  1  0
 11 12  1  0
 12 13  2  0
 13 14  1  0
 12 15  1  0
 15 16  2  0
 16 17  1  0
 17 18  2  0
 18 19  1  0
 19 20  2  0
 20 21  1  0
 21 22  1  0
 22 23  1  0
 23 24  1  0
 24 25  2  0
 25 26  1  0
 26 27  2  0
 27 28  1  0
 28 29  2  0
 29 30  1  0
 30 31  1  0
 30 32  2  0
 32 33  1  0
 33 34  2  0
 21 35  2  0
  5 36  2  0
 36 37  1  0
 37 38  2  0
 38 39  1  0
 39 40  1  0
 39 41  2  0
 38  3  1  0
 10  7  1  0
 35 17  1  0
 14  9  1  0
 34 24  1  0
 33 27  1  0
  1 42  1  0
  1 43  1  0
  1 44  1  0
  4 45  1  0
  6 46  1  0
  6 47  1  0
  8 48  1  0
  8 49  1  0
 10 50  1  0
 10 51  1  0
 11 52  1  0
 11 53  1  0
 15 54  1  0
 16 55  1  0
 18 56  1  0
 19 57  1  0
 20 58  1  0
 22 59  1  0
 22 60  1  0
 23 61  1  0
 23 62  1  0
 25 63  1  0
 26 64  1  0
 28 65  1  0
 29 66  1  0
 32 67  1  0
 35 68  1  0
 36 69  1  0
 37 70  1  0
 40 71  1  0
M  END
$$$$
[H]SC([H])([H])C([H])([H])C([H])([H])C([H])([H])C([H])([H])C([H])([H])N([H])C(=O)Oc1c([H])c([H])c([H])c([N+](=O)[O-])c1[H]
     RDKit          3D

 38 38  0  0  0  0  0  0  0  0999 V2000
    7.0231   -0.5941    1.6233 S   0  0  0  0  0  0  0  0  0  0  0  0
    6.8909    0.4630    0.1720 C   0  0  0  0  0  0  0  0  0  0  0  0
    5.4850    1.0234    0.1058 C   0  0  0  0  0  0  0  0  0  0  0  0
    4.5078   -0.1267    0.0055 C   0  0  0  0  0  0  0  0  0  0  0  0
    3.1182    0.4618   -0.0587 C   0  0  0  0  0  0  0  0  0  0  0  0
    2.0587   -0.6231   -0.1618 C   0  0  0  0  0  0  0  0  0  0  0  0
    0.7214    0.0409   -0.2205 C   0  0  0  0  0  0  0  0  0  0  0  0
   -0.3738   -0.8731   -0.3198 N   0  0  0  0  0  0  0  0  0  0  0  0
   -1.6921   -0.3458   -0.3821 C   0  0  0  0  0  0  0  0  0  0  0  0
   -1.9465    0.8724   -0.3549 O   0  0  0  0  0  0  0  0  0  0  0  0
   -2.7663   -1.2248   -0.4788 O   0  0  0  0  0  0  0  0  0  0  0  0
   -4.0583   -0.7208   -0.5403 C   0  0  0  0  0  0  0  0  0  0  0  0
   -4.6114   -0.4341   -1.7625 C   0  0  0  0  0  0  0  0  0  0  0  0
   -5.8974    0.0647   -1.7763 C   0  0  0  0  0  0  0  0  0  0  0  0
   -6.6167    0.2746   -0.6188 C   0  0  0  0  0  0  0  0  0  0  0  0
   -6.0508   -0.0170    0.6026 C   0  0  0  0  0  0  0  0  0  0  0  0
   -4.7632   -0.5171    0.6272 C   0  0  0  0  0  0  0  0  0  0  0  0
   -6.7516    0.1824    1.8162 N   0  0  0  0  0  0  0  0  0  0  0  0
   -6.1647   -0.1160    3.0148 O   0  0  0  0  0  0  0  0  0  0  0  0
   -7.9066    0.6303    1.8061 O   0  0  0  0  0  0  0  0  0  0  0  0
    6.0821   -0.1772    2.5934 H   0  0  0  0  0  0  0  0  0  0  0  0
    7.0453   -0.1070   -0.7730 H   0  0  0  0  0  0  0  0  0  0  0  0
    7.5880    1.3051    0.1659 H   0  0  0  0  0  0  0  0  0  0  0  0
    5.3304    1.6654   -0.7739 H   0  0  0  0  0  0  0  0  0  0  0  0
    5.2777    1.6032    1.0106 H   0  0  0  0  0  0  0  0  0  0  0  0
    4.5905   -0.7956    0.9054 H   0  0  0  0  0  0  0  0  0  0  0  0
    4.7242   -0.7598   -0.8783 H   0  0  0  0  0  0  0  0  0  0  0  0
    3.0935    1.1585   -0.9210 H   0  0  0  0  0  0  0  0  0  0  0  0
    2.9806    1.0725    0.8551 H   0  0  0  0  0  0  0  0  0  0  0  0
    2.2574   -1.3237   -0.9713 H   0  0  0  0  0  0  0  0  0  0  0  0
    2.1068   -1.1768    0.8164 H   0  0  0  0  0  0  0  0  0  0  0  0
    0.5945    0.6033    0.7503 H   0  0  0  0  0  0  0  0  0  0  0  0
    0.7152    0.7722   -1.0596 H   0  0  0  0  0  0  0  0  0  0  0  0
   -0.2036   -1.8989   -0.3454 H   0  0  0  0  0  0  0  0  0  0  0  0
   -4.0745   -0.5862   -2.7037 H   0  0  0  0  0  0  0  0  0  0  0  0
   -6.3473    0.2952   -2.7240 H   0  0  0  0  0  0  0  0  0  0  0  0
   -7.6404    0.6733   -0.6556 H   0  0  0  0  0  0  0  0  0  0  0  0
   -4.3263   -0.7446    1.6095 H   0  0  0  0  0  0  0  0  0  0  0  0
  1  2  1  0
  2  3  1  0
  3  4  1  0
  4  5  1  0
  5  6  1  0
  6  7  1  0
  7  8  1  0
  8  9  1  0
  9 10  2  0
  9 11  1  0
 11 12  1  0
 12 13  2  0
 13 14  1  0
 14 15  2  0
 15 16  1  0
 16 17  2  0
 16 18  1  0
 18 19  1  0
 18 20  2  0
 17 12  1  0
  1 21  1  0
  2 22  1  0
  2 23  1  0
  3 24  1  0
  3 25  1  0
  4 26  1  0
  4 27  1  0
  5 28  1  0
  5 29  1  0
  6 30  1  0
  6 31  1  0
  7 32  1  0
  7 33  1  0
  8 34  1  0
 13 35  1  0
 14 36  1  0
 15 37  1  0
 17 38  1  0
M  CHG  2  18   1  19  -1
M  END
$$$$
[H]OC(=O)c1c([H])c([H])c(-c2c([H])c([H])c(N3C(=O)c4c([H])c([H])c([H])c5c([H])c([H])c([H])c(c45)C3=O)c([H])c2[H])c([H])c1O[H]
     RDKit          3D

 46 50  0  0  0  0  0  0  0  0999 V2000
    9.0044   -0.0196    0.2260 O   0  0  0  0  0  0  0  0  0  0  0  0
    8.0824   -0.9886   -0.1225 C   0  0  0  0  0  0  0  0  0  0  0  0
    8.5156   -2.1025   -0.5036 O   0  0  0  0  0  0  0  0  0  0  0  0
    6.6380   -0.7630   -0.0639 C   0  0  0  0  0  0  0  0  0  0  0  0
    6.0881    0.4337    0.3432 C   0  0  0  0  0  0  0  0  0  0  0  0
    4.7213    0.6379    0.3931 C   0  0  0  0  0  0  0  0  0  0  0  0
    3.8421   -0.3625    0.0322 C   0  0  0  0  0  0  0  0  0  0  0  0
    4.3827   -1.5602   -0.3753 C   0  0  0  0  0  0  0  0  0  0  0  0
    5.7626   -1.7621   -0.4240 C   0  0  0  0  0  0  0  0  0  0  0  0
    6.2651   -2.9847   -0.8403 O   0  0  0  0  0  0  0  0  0  0  0  0
    2.3996   -0.1949    0.0663 C   0  0  0  0  0  0  0  0  0  0  0  0
    1.8114    1.0289   -0.1776 C   0  0  0  0  0  0  0  0  0  0  0  0
    0.4238    1.1960   -0.1480 C   0  0  0  0  0  0  0  0  0  0  0  0
   -0.4019    0.1279    0.1298 C   0  0  0  0  0  0  0  0  0  0  0  0
    0.2117   -1.0961    0.3727 C   0  0  0  0  0  0  0  0  0  0  0  0
    1.5803   -1.2634    0.3438 C   0  0  0  0  0  0  0  0  0  0  0  0
   -1.8113    0.2957    0.1574 N   0  0  0  0  0  0  0  0  0  0  0  0
   -2.4936    1.2847    0.9173 C   0  0  0  0  0  0  0  0  0  0  0  0
   -1.8200    2.0670    1.6118 O   0  0  0  0  0  0  0  0  0  0  0  0
   -3.9473    1.4239    0.9193 C   0  0  0  0  0  0  0  0  0  0  0  0
   -4.6022    2.3830    1.6567 C   0  0  0  0  0  0  0  0  0  0  0  0
   -5.9667    2.5501    1.6883 C   0  0  0  0  0  0  0  0  0  0  0  0
   -6.7214    1.6681    0.9050 C   0  0  0  0  0  0  0  0  0  0  0  0
   -6.0912    0.6984    0.1572 C   0  0  0  0  0  0  0  0  0  0  0  0
   -6.8835   -0.1579   -0.6083 C   0  0  0  0  0  0  0  0  0  0  0  0
   -6.2951   -1.1351   -1.3663 C   0  0  0  0  0  0  0  0  0  0  0  0
   -4.9166   -1.2544   -1.3580 C   0  0  0  0  0  0  0  0  0  0  0  0
   -4.1044   -0.4256   -0.6142 C   0  0  0  0  0  0  0  0  0  0  0  0
   -2.6537   -0.5704   -0.6209 C   0  0  0  0  0  0  0  0  0  0  0  0
   -2.0832   -1.4563   -1.3061 O   0  0  0  0  0  0  0  0  0  0  0  0
   -4.7144    0.5517    0.1430 C   0  0  0  0  0  0  0  0  0  0  0  0
    9.0586    0.8587   -0.3060 H   0  0  0  0  0  0  0  0  0  0  0  0
    6.7688    1.2230    0.6278 H   0  0  0  0  0  0  0  0  0  0  0  0
    4.2951    1.5904    0.7179 H   0  0  0  0  0  0  0  0  0  0  0  0
    3.7108   -2.3452   -0.6569 H   0  0  0  0  0  0  0  0  0  0  0  0
    5.6663   -3.7530   -1.1171 H   0  0  0  0  0  0  0  0  0  0  0  0
    2.4084    1.9048   -0.4021 H   0  0  0  0  0  0  0  0  0  0  0  0
   -0.0479    2.1532   -0.3398 H   0  0  0  0  0  0  0  0  0  0  0  0
   -0.4263   -1.9612    0.5927 H   0  0  0  0  0  0  0  0  0  0  0  0
    1.9547   -2.2500    0.5446 H   0  0  0  0  0  0  0  0  0  0  0  0
   -4.0085    3.0528    2.2551 H   0  0  0  0  0  0  0  0  0  0  0  0
   -6.4392    3.3220    2.2890 H   0  0  0  0  0  0  0  0  0  0  0  0
   -7.7928    1.7830    0.9160 H   0  0  0  0  0  0  0  0  0  0  0  0
   -7.9739   -0.0340   -0.5906 H   0  0  0  0  0  0  0  0  0  0  0  0
   -6.9373   -1.7828   -1.9492 H   0  0  0  0  0  0  0  0  0  0  0  0
   -4.4601   -2.0112   -1.9467 H   0  0  0  0  0  0  0  0  0  0  0  0
  1  2  1  0
  2  3  2  0
  2  4  1  0
  4  5  2  0
  5  6  1  0
  6  7  2  0
  7  8  1  0
  8  9  2  0
  9 10  1  0
  7 11  1  0
 11 12  2  0
 12 13  1  0
 13 14  2  0
 14 15  1  0
 15 16  2  0
 14 17  1  0
 17 18  1  0
 18 19  2  0
 18 20  1  0
 20 21  2  0
 21 22  1  0
 22 23  2  0
 23 24  1  0
 24 25  2  0
 25 26  1  0
 26 27  2  0
 27 28  1  0
 28 29  1  0
 29 30  2  0
 28 31  2  0
  9  4  1  0
 16 11  1  0
 29 17  1  0
 31 20  1  0
 31 24  1  0
  1 32  1  0
  5 33  1  0
  6 34  1  0
  8 35  1  0
 10 36  1  0
 12 37  1  0
 13 38  1  0
 15 39  1  0
 16 40  1  0
 21 41  1  0
 22 42  1  0
 23 43  1  0
 25 44  1  0
 26 45  1  0
 27 46  1  0
M  END
$$$$
[H]c1nc(N2C([H])([H])C([H])([H])N(c3c([H])c([H])c(OC([H])([H])[H])c([H])c3[H])C([H])([H])C2([H])[H])nc(-c2c([H])c([H])c([H])c(C([H])([H])[H])c2[H])c1[H]
     RDKit          3D

 51 54  0  0  0  0  0  0  0  0999 V2000
    8.7600    1.0404    0.4573 C   0  0  0  0  0  0  0  0  0  0  0  0
    7.6545    1.8777    0.1457 O   0  0  0  0  0  0  0  0  0  0  0  0
    6.3970    1.2826    0.1335 C   0  0  0  0  0  0  0  0  0  0  0  0
    5.2988    2.0496   -0.1617 C   0  0  0  0  0  0  0  0  0  0  0  0
    4.0335    1.4919   -0.1830 C   0  0  0  0  0  0  0  0  0  0  0  0
    3.8238    0.1487    0.0900 C   0  0  0  0  0  0  0  0  0  0  0  0
    4.9400   -0.6213    0.3880 C   0  0  0  0  0  0  0  0  0  0  0  0
    6.1944   -0.0491    0.4049 C   0  0  0  0  0  0  0  0  0  0  0  0
    2.5178   -0.4399    0.0618 N   0  0  0  0  0  0  0  0  0  0  0  0
    2.3740   -1.7812    0.5552 C   0  0  0  0  0  0  0  0  0  0  0  0
    0.9701   -2.1417    0.9746 C   0  0  0  0  0  0  0  0  0  0  0  0
   -0.0303   -1.4117    0.2574 N   0  0  0  0  0  0  0  0  0  0  0  0
    0.3659   -0.6769   -0.9443 C   0  0  0  0  0  0  0  0  0  0  0  0
    1.4142    0.3378   -0.4653 C   0  0  0  0  0  0  0  0  0  0  0  0
   -1.3917   -1.3656    0.6568 C   0  0  0  0  0  0  0  0  0  0  0  0
   -1.7245   -2.0551    1.7765 N   0  0  0  0  0  0  0  0  0  0  0  0
   -2.9982   -2.0496    2.2046 C   0  0  0  0  0  0  0  0  0  0  0  0
   -3.9259   -1.3340    1.4781 C   0  0  0  0  0  0  0  0  0  0  0  0
   -3.6111   -0.6291    0.3419 C   0  0  0  0  0  0  0  0  0  0  0  0
   -2.3201   -0.6752   -0.0328 N   0  0  0  0  0  0  0  0  0  0  0  0
   -4.6078    0.1175   -0.4077 C   0  0  0  0  0  0  0  0  0  0  0  0
   -4.1833    0.7903   -1.5364 C   0  0  0  0  0  0  0  0  0  0  0  0
   -5.0677    1.5312   -2.3175 C   0  0  0  0  0  0  0  0  0  0  0  0
   -6.4089    1.5926   -1.9492 C   0  0  0  0  0  0  0  0  0  0  0  0
   -6.8508    0.9283   -0.8270 C   0  0  0  0  0  0  0  0  0  0  0  0
   -8.2883    1.0096   -0.4560 C   0  0  0  0  0  0  0  0  0  0  0  0
   -5.9350    0.2080   -0.0866 C   0  0  0  0  0  0  0  0  0  0  0  0
    8.5674    0.6208    1.4612 H   0  0  0  0  0  0  0  0  0  0  0  0
    9.7143    1.5877    0.4513 H   0  0  0  0  0  0  0  0  0  0  0  0
    8.8188    0.1838   -0.2491 H   0  0  0  0  0  0  0  0  0  0  0  0
    5.3729    3.1137   -0.3886 H   0  0  0  0  0  0  0  0  0  0  0  0
    3.1553    2.0820   -0.4109 H   0  0  0  0  0  0  0  0  0  0  0  0
    4.8813   -1.6720    0.6115 H   0  0  0  0  0  0  0  0  0  0  0  0
    7.1003   -0.6298    0.6370 H   0  0  0  0  0  0  0  0  0  0  0  0
    2.7066   -2.5217   -0.1981 H   0  0  0  0  0  0  0  0  0  0  0  0
    3.0599   -1.9153    1.4444 H   0  0  0  0  0  0  0  0  0  0  0  0
    0.7751   -3.2262    0.8590 H   0  0  0  0  0  0  0  0  0  0  0  0
    0.8427   -1.9054    2.0572 H   0  0  0  0  0  0  0  0  0  0  0  0
    0.7957   -1.4058   -1.6469 H   0  0  0  0  0  0  0  0  0  0  0  0
   -0.4646   -0.1235   -1.3847 H   0  0  0  0  0  0  0  0  0  0  0  0
    0.9393    0.9073    0.3394 H   0  0  0  0  0  0  0  0  0  0  0  0
    1.7423    0.9752   -1.3131 H   0  0  0  0  0  0  0  0  0  0  0  0
   -3.2626   -2.6084    3.1102 H   0  0  0  0  0  0  0  0  0  0  0  0
   -4.9411   -1.3347    1.8268 H   0  0  0  0  0  0  0  0  0  0  0  0
   -3.1500    0.7703   -1.8601 H   0  0  0  0  0  0  0  0  0  0  0  0
   -4.7344    2.0599   -3.2043 H   0  0  0  0  0  0  0  0  0  0  0  0
   -7.1342    2.1607   -2.5318 H   0  0  0  0  0  0  0  0  0  0  0  0
   -8.5703    0.0085   -0.0159 H   0  0  0  0  0  0  0  0  0  0  0  0
   -8.9135    1.2652   -1.3193 H   0  0  0  0  0  0  0  0  0  0  0  0
   -8.4021    1.7335    0.3905 H   0  0  0  0  0  0  0  0  0  0  0  0
   -6.2993   -0.2963    0.7754 H   0  0  0  0  0  0  0  0  0  0  0  0
  1  2  1  0
  2  3  1  0
  3  4  2  0
  4  5  1  0
  5  6  2  0
  6  7  1  0
  7  8  2  0
  6  9  1  0
  9 10  1  0
 10 11  1  0
 11 12  1  0
 12 13  1  0
 13 14  1  0
 12 15  1  0
 15 16  2  0
 16 17  1  0
 17 18  2  0
 18 19  1  0
 19 20  2  0
 19 21  1  0
 21 22  2  0
 22 23  1  0
 23 24  2  0
 24 25  1  0
 25 26  1  0
 25 27  2  0
  8  3  1  0
 14  9  1  0
 20 15  1  0
 27 21  1  0
  1 28  1  0
  1 29  1  0
  1 30  1  0
  4 31  1  0
  5 32  1  0
  7 33  1  0
  8 34  1  0
 10 35  1  0
 10 36  1  0
 11 37  1  0
 11 38  1  0
 13 39  1  0
 13 40  1  0
 14 41  1  0
 14 42  1  0
 17 43  1  0
 18 44  1  0
 22 45  1  0
 23 46  1  0
 24 47  1  0
 26 48  1  0
 26 49  1  0
 26 50  1  0
 27 51  1  0
M  END
$$$$
[H]c1c([H])c([H])c2c(c1[H])C([H])([H])N(C(=O)c1c([H])c(C(=O)N([H])S(=O)(=O)c3c([H])c([H])c4c([H])c([H])c(OC([H])([H])C([H])([H])C([H])([H])N5C([H])([H])C([H])([H])OC([H])([H])C5([H])[H])c([H])c4c3[H])c([H])c([H])c1-n1nc(C(=O)N(C([H])([H])C([H])([H])C([H])([H])C([H])([H])[H])C([H])([H])C([H])([H])C([H])([H])C([H])([H])[H])c(Cl)c1C([H])([H])[H])C([H])([H])C2([H])[H]
     RDKit          3D

117123  0  0  0  0  0  0  0  0999 V2000
   -7.3058   -5.5271    1.6231 C   0  0  0  0  0  0  0  0  0  0  0  0
   -7.4771   -4.1079    2.0939 C   0  0  0  0  0  0  0  0  0  0  0  0
   -7.8467   -3.2720    0.8230 C   0  0  0  0  0  0  0  0  0  0  0  0
   -8.0832   -1.8843    1.1941 C   0  0  0  0  0  0  0  0  0  0  0  0
   -8.4998   -0.8785    0.2979 N   0  0  0  0  0  0  0  0  0  0  0  0
   -9.9683   -0.9171    0.0175 C   0  0  0  0  0  0  0  0  0  0  0  0
  -10.7125   -0.0634    0.9888 C   0  0  0  0  0  0  0  0  0  0  0  0
  -12.2100   -0.1280    0.7475 C   0  0  0  0  0  0  0  0  0  0  0  0
  -12.7819   -1.5021    0.9675 C   0  0  0  0  0  0  0  0  0  0  0  0
   -7.7180    0.0915   -0.3287 C   0  0  0  0  0  0  0  0  0  0  0  0
   -8.3097    1.0130   -0.9851 O   0  0  0  0  0  0  0  0  0  0  0  0
   -6.2385    0.2358   -0.3225 C   0  0  0  0  0  0  0  0  0  0  0  0
   -5.0524    0.3449   -0.3152 N   0  0  0  0  0  0  0  0  0  0  0  0
   -4.0832   -0.2113   -0.9109 N   0  0  0  0  0  0  0  0  0  0  0  0
   -4.7511   -1.0826   -1.6607 C   0  0  0  0  0  0  0  0  0  0  0  0
   -4.1683   -2.0754   -2.6608 C   0  0  0  0  0  0  0  0  0  0  0  0
   -6.0699   -0.9670   -1.4547 C   0  0  0  0  0  0  0  0  0  0  0  0
   -7.4123   -1.6414   -2.2866 Cl  0  0  0  0  0  0  0  0  0  0  0  0
   -2.7029    0.1141   -0.8846 C   0  0  0  0  0  0  0  0  0  0  0  0
   -1.7037   -0.6222   -1.4370 C   0  0  0  0  0  0  0  0  0  0  0  0
   -0.3707   -0.1710   -1.5109 C   0  0  0  0  0  0  0  0  0  0  0  0
   -0.0158    1.0449   -1.0224 C   0  0  0  0  0  0  0  0  0  0  0  0
   -0.9947    1.8183   -0.4464 C   0  0  0  0  0  0  0  0  0  0  0  0
   -2.3258    1.3712   -0.3674 C   0  0  0  0  0  0  0  0  0  0  0  0
   -3.2522    2.1829    0.3490 C   0  0  0  0  0  0  0  0  0  0  0  0
   -3.3404    1.9267    1.6137 O   0  0  0  0  0  0  0  0  0  0  0  0
   -4.0674    3.2283   -0.1289 N   0  0  0  0  0  0  0  0  0  0  0  0
   -4.1455    3.6041   -1.5140 C   0  0  0  0  0  0  0  0  0  0  0  0
   -5.4770    4.0773   -1.9847 C   0  0  0  0  0  0  0  0  0  0  0  0
   -6.3602    4.6658   -0.9598 C   0  0  0  0  0  0  0  0  0  0  0  0
   -7.5619    5.2957   -1.3610 C   0  0  0  0  0  0  0  0  0  0  0  0
   -8.4122    5.8760   -0.4517 C   0  0  0  0  0  0  0  0  0  0  0  0
   -8.0352    5.8156    0.8967 C   0  0  0  0  0  0  0  0  0  0  0  0
   -6.8919    5.2168    1.2998 C   0  0  0  0  0  0  0  0  0  0  0  0
   -6.0181    4.6202    0.3576 C   0  0  0  0  0  0  0  0  0  0  0  0
   -4.8122    3.9936    0.8679 C   0  0  0  0  0  0  0  0  0  0  0  0
    1.2964    1.6672   -1.0964 C   0  0  0  0  0  0  0  0  0  0  0  0
    1.5223    2.7526   -0.4517 O   0  0  0  0  0  0  0  0  0  0  0  0
    2.4118    1.1939   -1.8496 N   0  0  0  0  0  0  0  0  0  0  0  0
    3.8919    2.0634   -1.8937 S   0  0  0  0  0  0  0  0  0  0  0  0
    3.7635    3.5272   -1.6382 O   0  0  0  0  0  0  0  0  0  0  0  0
    4.4516    1.9355   -3.3028 O   0  0  0  0  0  0  0  0  0  0  0  0
    5.0319    1.3949   -0.7784 C   0  0  0  0  0  0  0  0  0  0  0  0
    4.6410    0.9985    0.4653 C   0  0  0  0  0  0  0  0  0  0  0  0
    5.5566    0.5102    1.3812 C   0  0  0  0  0  0  0  0  0  0  0  0
    6.9027    0.4222    1.0324 C   0  0  0  0  0  0  0  0  0  0  0  0
    7.8289   -0.0643    1.9522 C   0  0  0  0  0  0  0  0  0  0  0  0
    9.1482   -0.1384    1.5906 C   0  0  0  0  0  0  0  0  0  0  0  0
    9.6365    0.2525    0.3435 C   0  0  0  0  0  0  0  0  0  0  0  0
   10.9626    0.1282    0.0952 O   0  0  0  0  0  0  0  0  0  0  0  0
   11.8099    0.4158   -0.9206 C   0  0  0  0  0  0  0  0  0  0  0  0
   13.2213   -0.1218   -0.5353 C   0  0  0  0  0  0  0  0  0  0  0  0
   13.0652   -1.6263   -0.3515 C   0  0  0  0  0  0  0  0  0  0  0  0
   14.2712   -2.3172   -0.0019 N   0  0  0  0  0  0  0  0  0  0  0  0
   14.7673   -2.0137    1.3097 C   0  0  0  0  0  0  0  0  0  0  0  0
   15.0547   -3.2723    2.1094 C   0  0  0  0  0  0  0  0  0  0  0  0
   15.8180   -4.1974    1.4299 O   0  0  0  0  0  0  0  0  0  0  0  0
   15.1841   -4.5929    0.2383 C   0  0  0  0  0  0  0  0  0  0  0  0
   13.9845   -3.7444   -0.0730 C   0  0  0  0  0  0  0  0  0  0  0  0
    8.6736    0.7331   -0.5501 C   0  0  0  0  0  0  0  0  0  0  0  0
    7.3197    0.8143   -0.2053 C   0  0  0  0  0  0  0  0  0  0  0  0
    6.3944    1.2961   -1.1055 C   0  0  0  0  0  0  0  0  0  0  0  0
   -8.2365   -6.1429    1.8514 H   0  0  0  0  0  0  0  0  0  0  0  0
   -7.1213   -5.5557    0.5265 H   0  0  0  0  0  0  0  0  0  0  0  0
   -6.4389   -6.0279    2.0854 H   0  0  0  0  0  0  0  0  0  0  0  0
   -8.3843   -4.0306    2.7174 H   0  0  0  0  0  0  0  0  0  0  0  0
   -6.5609   -3.7068    2.5428 H   0  0  0  0  0  0  0  0  0  0  0  0
   -8.7844   -3.7725    0.4541 H   0  0  0  0  0  0  0  0  0  0  0  0
   -7.0032   -3.3867    0.1233 H   0  0  0  0  0  0  0  0  0  0  0  0
   -7.1233   -1.4502    1.7039 H   0  0  0  0  0  0  0  0  0  0  0  0
   -8.8306   -1.8476    2.0823 H   0  0  0  0  0  0  0  0  0  0  0  0
  -10.2701   -1.9639   -0.0286 H   0  0  0  0  0  0  0  0  0  0  0  0
  -10.0776   -0.5014   -1.0179 H   0  0  0  0  0  0  0  0  0  0  0  0
  -10.5269   -0.3466    2.0406 H   0  0  0  0  0  0  0  0  0  0  0  0
  -10.3686    0.9909    0.9075 H   0  0  0  0  0  0  0  0  0  0  0  0
  -12.3250    0.0864   -0.3642 H   0  0  0  0  0  0  0  0  0  0  0  0
  -12.7864    0.6062    1.3194 H   0  0  0  0  0  0  0  0  0  0  0  0
  -12.0531   -2.3306    0.9642 H   0  0  0  0  0  0  0  0  0  0  0  0
  -13.3953   -1.4711    1.9209 H   0  0  0  0  0  0  0  0  0  0  0  0
  -13.5465   -1.6991    0.1738 H   0  0  0  0  0  0  0  0  0  0  0  0
   -3.7294   -2.9386   -2.1591 H   0  0  0  0  0  0  0  0  0  0  0  0
   -5.0393   -2.5065   -3.2482 H   0  0  0  0  0  0  0  0  0  0  0  0
   -3.5158   -1.5767   -3.3886 H   0  0  0  0  0  0  0  0  0  0  0  0
   -1.8908   -1.6275   -1.8180 H   0  0  0  0  0  0  0  0  0  0  0  0
    0.3626   -0.8036   -1.9687 H   0  0  0  0  0  0  0  0  0  0  0  0
   -0.7683    2.8000   -0.0334 H   0  0  0  0  0  0  0  0  0  0  0  0
   -3.8276    2.6725   -2.1059 H   0  0  0  0  0  0  0  0  0  0  0  0
   -3.3301    4.3143   -1.7173 H   0  0  0  0  0  0  0  0  0  0  0  0
   -5.9891    3.1893   -2.4760 H   0  0  0  0  0  0  0  0  0  0  0  0
   -5.2534    4.8263   -2.8107 H   0  0  0  0  0  0  0  0  0  0  0  0
   -7.7711    5.3040   -2.3984 H   0  0  0  0  0  0  0  0  0  0  0  0
   -9.3363    6.3556   -0.7490 H   0  0  0  0  0  0  0  0  0  0  0  0
   -8.6703    6.2531    1.6550 H   0  0  0  0  0  0  0  0  0  0  0  0
   -6.5737    5.1478    2.3552 H   0  0  0  0  0  0  0  0  0  0  0  0
   -5.0692    3.2523    1.6817 H   0  0  0  0  0  0  0  0  0  0  0  0
   -4.1682    4.8011    1.3079 H   0  0  0  0  0  0  0  0  0  0  0  0
    2.3226    0.3153   -2.3662 H   0  0  0  0  0  0  0  0  0  0  0  0
    3.5720    1.0695    0.7302 H   0  0  0  0  0  0  0  0  0  0  0  0
    5.2360    0.1894    2.3720 H   0  0  0  0  0  0  0  0  0  0  0  0
    7.4867   -0.3745    2.9268 H   0  0  0  0  0  0  0  0  0  0  0  0
    9.8640   -0.5247    2.3145 H   0  0  0  0  0  0  0  0  0  0  0  0
   11.9091    1.5269   -1.0535 H   0  0  0  0  0  0  0  0  0  0  0  0
   11.5211   -0.0706   -1.8687 H   0  0  0  0  0  0  0  0  0  0  0  0
   13.9531    0.1054   -1.3087 H   0  0  0  0  0  0  0  0  0  0  0  0
   13.4514    0.3557    0.4341 H   0  0  0  0  0  0  0  0  0  0  0  0
   12.6987   -2.0607   -1.3366 H   0  0  0  0  0  0  0  0  0  0  0  0
   12.2206   -1.7887    0.3688 H   0  0  0  0  0  0  0  0  0  0  0  0
   14.0173   -1.4401    1.8895 H   0  0  0  0  0  0  0  0  0  0  0  0
   15.7661   -1.4726    1.2708 H   0  0  0  0  0  0  0  0  0  0  0  0
   15.6437   -2.9609    3.0072 H   0  0  0  0  0  0  0  0  0  0  0  0
   14.1136   -3.6968    2.5130 H   0  0  0  0  0  0  0  0  0  0  0  0
   14.8338   -5.6563    0.3617 H   0  0  0  0  0  0  0  0  0  0  0  0
   15.8907   -4.5492   -0.6109 H   0  0  0  0  0  0  0  0  0  0  0  0
   13.1618   -4.0447    0.6390 H   0  0  0  0  0  0  0  0  0  0  0  0
   13.6126   -3.9932   -1.0695 H   0  0  0  0  0  0  0  0  0  0  0  0
    9.0110    1.0443   -1.5053 H   0  0  0  0  0  0  0  0  0  0  0  0
    6.6831    1.6109   -2.0684 H   0  0  0  0  0  0  0  0  0  0  0  0
  1  2  1  0
  2  3  1  0
  3  4  1  0
  4  5  1  0
  5  6  1  0
  6  7  1  0
  7  8  1  0
  8  9  1  0
  5 10  1  0
 10 11  2  0
 10 12  1  0
 12 13  2  0
 13 14  1  0
 14 15  1  0
 15 16  1  0
 15 17  2  0
 17 18  1  0
 14 19  1  0
 19 20  2  0
 20 21  1  0
 21 22  2  0
 22 23  1  0
 23 24  2  0
 24 25  1  0
 25 26  2  0
 25 27  1  0
 27 28  1  0
 28 29  1  0
 29 30  1  0
 30 31  2  0
 31 32  1  0
 32 33  2  0
 33 34  1  0
 34 35  2  0
 35 36  1  0
 22 37  1  0
 37 38  2  0
 37 39  1  0
 39 40  1  0
 40 41  2  0
 40 42  2  0
 40 43  1  0
 43 44  2  0
 44 45  1  0
 45 46  2  0
 46 47  1  0
 47 48  2  0
 48 49  1  0
 49 50  1  0
 50 51  1  0
 51 52  1  0
 52 53  1  0
 53 54  1  0
 54 55  1  0
 55 56  1  0
 56 57  1  0
 57 58  1  0
 58 59  1  0
 49 60  2  0
 60 61  1  0
 61 62  2  0
 17 12  1  0
 24 19  1  0
 36 27  1  0
 62 43  1  0
 35 30  1  0
 61 46  1  0
 59 54  1  0
  1 63  1  0
  1 64  1  0
  1 65  1  0
  2 66  1  0
  2 67  1  0
  3 68  1  0
  3 69  1  0
  4 70  1  0
  4 71  1  0
  6 72  1  0
  6 73  1  0
  7 74  1  0
  7 75  1  0
  8 76  1  0
  8 77  1  0
  9 78  1  0
  9 79  1  0
  9 80  1  0
 16 81  1  0
 16 82  1  0
 16 83  1  0
 20 84  1  0
 21 85  1  0
 23 86  1  0
 28 87  1  0
 28 88  1  0
 29 89  1  0
 29 90  1  0
 31 91  1  0
 32 92  1  0
 33 93  1  0
 34 94  1  0
 36 95  1  0
 36 96  1  0
 39 97  1  0
 44 98  1  0
 45 99  1  0
 47100  1  0
 48101  1  0
 51102  1  0
 51103  1  0
 52104  1  0
 52105  1  0
 53106  1  0
 53107  1  0
 55108  1  0
 55109  1  0
 56110  1  0
 56111  1  0
 58112  1  0
 58113  1  0
 59114  1  0
 59115  1  0
 60116  1  0
 62117  1  0
M  END
$$$$
[H]OC1([H])C([H])([H])C2=C(C([H])([H])C([H])(c3c([H])c([H])c(C(F)(F)F)c([H])c3[H])N([H])C2=O)S(=O)(=O)C([H])([H])C1([H])[H]
     RDKit          3D

 41 43  0  0  0  0  0  0  0  0999 V2000
   -4.5040   -0.2230   -1.3988 O   0  0  0  0  0  0  0  0  0  0  0  0
   -4.4602   -0.0932   -0.0302 C   0  0  0  0  0  0  0  0  0  0  0  0
   -3.4876   -0.9979    0.6570 C   0  0  0  0  0  0  0  0  0  0  0  0
   -2.0763   -0.7606    0.3677 C   0  0  0  0  0  0  0  0  0  0  0  0
   -1.3160    0.2732    0.0794 C   0  0  0  0  0  0  0  0  0  0  0  0
    0.1079    0.2538   -0.1729 C   0  0  0  0  0  0  0  0  0  0  0  0
    0.6940   -1.1017   -0.5211 C   0  0  0  0  0  0  0  0  0  0  0  0
    0.1057   -2.0832    0.3070 N   0  0  0  0  0  0  0  0  0  0  0  0
   -1.3319   -2.0375    0.5040 C   0  0  0  0  0  0  0  0  0  0  0  0
   -1.9164   -3.0980    0.7884 O   0  0  0  0  0  0  0  0  0  0  0  0
    2.1679   -0.8843   -0.4182 C   0  0  0  0  0  0  0  0  0  0  0  0
    2.9902   -0.8136   -1.5186 C   0  0  0  0  0  0  0  0  0  0  0  0
    4.2941   -0.4217   -1.4316 C   0  0  0  0  0  0  0  0  0  0  0  0
    4.8432   -0.0732   -0.1988 C   0  0  0  0  0  0  0  0  0  0  0  0
    4.0358   -0.1381    0.9221 C   0  0  0  0  0  0  0  0  0  0  0  0
    2.7205   -0.5382    0.8129 C   0  0  0  0  0  0  0  0  0  0  0  0
    6.2602    0.4033   -0.1210 C   0  0  0  0  0  0  0  0  0  0  0  0
    7.1277   -0.3053   -0.9013 F   0  0  0  0  0  0  0  0  0  0  0  0
    6.6403    0.3856    1.2131 F   0  0  0  0  0  0  0  0  0  0  0  0
    6.2131    1.7497   -0.5002 F   0  0  0  0  0  0  0  0  0  0  0  0
   -1.8372    1.9561   -0.0002 S   0  0  0  0  0  0  0  0  0  0  0  0
   -0.8699    2.6441   -0.9512 O   0  0  0  0  0  0  0  0  0  0  0  0
   -1.6200    2.5377    1.3692 O   0  0  0  0  0  0  0  0  0  0  0  0
   -3.4858    2.1463   -0.5397 C   0  0  0  0  0  0  0  0  0  0  0  0
   -4.3598    1.3371    0.4178 C   0  0  0  0  0  0  0  0  0  0  0  0
   -3.6269   -0.2750   -1.8338 H   0  0  0  0  0  0  0  0  0  0  0  0
   -5.4606   -0.4197    0.3276 H   0  0  0  0  0  0  0  0  0  0  0  0
   -3.7503   -2.0192    0.2722 H   0  0  0  0  0  0  0  0  0  0  0  0
   -3.7792   -1.0244    1.7150 H   0  0  0  0  0  0  0  0  0  0  0  0
    0.6342    0.5567    0.7745 H   0  0  0  0  0  0  0  0  0  0  0  0
    0.3963    0.9832   -0.9605 H   0  0  0  0  0  0  0  0  0  0  0  0
    0.4306   -1.3107   -1.5803 H   0  0  0  0  0  0  0  0  0  0  0  0
    0.6432   -2.8527    0.7864 H   0  0  0  0  0  0  0  0  0  0  0  0
    2.5790   -1.0919   -2.4648 H   0  0  0  0  0  0  0  0  0  0  0  0
    4.9658   -0.3726   -2.2829 H   0  0  0  0  0  0  0  0  0  0  0  0
    4.4734    0.1391    1.8661 H   0  0  0  0  0  0  0  0  0  0  0  0
    2.0708   -0.5979    1.6964 H   0  0  0  0  0  0  0  0  0  0  0  0
   -3.7614    3.2220   -0.4333 H   0  0  0  0  0  0  0  0  0  0  0  0
   -3.5966    1.7582   -1.5787 H   0  0  0  0  0  0  0  0  0  0  0  0
   -5.3121    1.8558    0.5027 H   0  0  0  0  0  0  0  0  0  0  0  0
   -3.8418    1.3318    1.4402 H   0  0  0  0  0  0  0  0  0  0  0  0
  1  2  1  0
  2  3  1  0
  3  4  1  0
  4  5  2  0
  5  6  1  0
  6  7  1  0
  7  8  1  0
  8  9  1  0
  9 10  2  0
  7 11  1  0
 11 12  2  0
 12 13  1  0
 13 14  2  0
 14 15  1  0
 15 16  2  0
 14 17  1  0
 17 18  1  0
 17 19  1  0
 17 20  1  0
  5 21  1  0
 21 22  2  0
 21 23  2  0
 21 24  1  0
 24 25  1  0
 25  2  1  0
  9  4  1  0
 16 11  1  0
  1 26  1  0
  2 27  1  0
  3 28  1  0
  3 29  1  0
  6 30  1  0
  6 31  1  0
  7 32  1  0
  8 33  1  0
 12 34  1  0
 13 35  1  0
 15 36  1  0
 16 37  1  0
 24 38  1  0
 24 39  1  0
 25 40  1  0
 25 41  1  0
M  END
$$$$
[H]c1nc(N2C([H])([H])C([H])([H])N([H])C([H])([H])C2([H])[H])c([H])c(-c2c([H])c3c(n2[H])C([H])([H])C([H])([H])C([H])([H])N([H])C3=O)c1[H]
     RDKit          3D

 44 47  0  0  0  0  0  0  0  0999 V2000
    4.8455   -2.2074   -1.6310 O   0  0  0  0  0  0  0  0  0  0  0  0
    4.7723   -1.2114   -0.8733 C   0  0  0  0  0  0  0  0  0  0  0  0
    5.9501   -0.5636   -0.4473 N   0  0  0  0  0  0  0  0  0  0  0  0
    6.1949    0.6851    0.2386 C   0  0  0  0  0  0  0  0  0  0  0  0
    4.9594    1.5515    0.3037 C   0  0  0  0  0  0  0  0  0  0  0  0
    3.8956    1.0024    1.2004 C   0  0  0  0  0  0  0  0  0  0  0  0
    2.9721    0.1380    0.3959 C   0  0  0  0  0  0  0  0  0  0  0  0
    1.6483    0.1558    0.4180 N   0  0  0  0  0  0  0  0  0  0  0  0
    1.1891   -0.7596   -0.4360 C   0  0  0  0  0  0  0  0  0  0  0  0
    2.2614   -1.3890   -1.0290 C   0  0  0  0  0  0  0  0  0  0  0  0
    3.4095   -0.8264   -0.5076 C   0  0  0  0  0  0  0  0  0  0  0  0
   -0.2074   -1.0732   -0.7235 C   0  0  0  0  0  0  0  0  0  0  0  0
   -0.5389   -2.0538   -1.6390 C   0  0  0  0  0  0  0  0  0  0  0  0
   -1.8519   -2.3693   -1.9286 C   0  0  0  0  0  0  0  0  0  0  0  0
   -2.8240   -1.6926   -1.2921 N   0  0  0  0  0  0  0  0  0  0  0  0
   -2.5440   -0.7297   -0.3929 C   0  0  0  0  0  0  0  0  0  0  0  0
   -1.2445   -0.4121   -0.1012 C   0  0  0  0  0  0  0  0  0  0  0  0
   -3.6298   -0.0540    0.2446 N   0  0  0  0  0  0  0  0  0  0  0  0
   -3.3160    0.9989    1.1943 C   0  0  0  0  0  0  0  0  0  0  0  0
   -4.4970    1.8872    1.4862 C   0  0  0  0  0  0  0  0  0  0  0  0
   -5.7278    1.1331    1.6358 N   0  0  0  0  0  0  0  0  0  0  0  0
   -6.0102    0.5916    0.3040 C   0  0  0  0  0  0  0  0  0  0  0  0
   -4.9784   -0.4431   -0.0773 C   0  0  0  0  0  0  0  0  0  0  0  0
    6.8257   -1.0862   -0.6691 H   0  0  0  0  0  0  0  0  0  0  0  0
    6.9425    1.2419   -0.3671 H   0  0  0  0  0  0  0  0  0  0  0  0
    6.6288    0.5496    1.2381 H   0  0  0  0  0  0  0  0  0  0  0  0
    4.5943    1.7812   -0.7059 H   0  0  0  0  0  0  0  0  0  0  0  0
    5.2921    2.5275    0.7535 H   0  0  0  0  0  0  0  0  0  0  0  0
    4.3063    0.4052    2.0202 H   0  0  0  0  0  0  0  0  0  0  0  0
    3.2678    1.8087    1.6359 H   0  0  0  0  0  0  0  0  0  0  0  0
    1.0451    0.7743    0.9988 H   0  0  0  0  0  0  0  0  0  0  0  0
    2.2743   -2.1797   -1.7684 H   0  0  0  0  0  0  0  0  0  0  0  0
    0.2951   -2.5695   -2.1246 H   0  0  0  0  0  0  0  0  0  0  0  0
   -2.0552   -3.1524   -2.6600 H   0  0  0  0  0  0  0  0  0  0  0  0
   -1.0051    0.3525    0.6135 H   0  0  0  0  0  0  0  0  0  0  0  0
   -2.8828    0.5449    2.1001 H   0  0  0  0  0  0  0  0  0  0  0  0
   -2.5308    1.6873    0.7629 H   0  0  0  0  0  0  0  0  0  0  0  0
   -4.6387    2.5640    0.6179 H   0  0  0  0  0  0  0  0  0  0  0  0
   -4.2804    2.4674    2.4064 H   0  0  0  0  0  0  0  0  0  0  0  0
   -5.5205    0.3250    2.2954 H   0  0  0  0  0  0  0  0  0  0  0  0
   -5.9668    1.4401   -0.4054 H   0  0  0  0  0  0  0  0  0  0  0  0
   -7.0039    0.1264    0.2572 H   0  0  0  0  0  0  0  0  0  0  0  0
   -5.0577   -0.5818   -1.1759 H   0  0  0  0  0  0  0  0  0  0  0  0
   -5.2582   -1.3847    0.4711 H   0  0  0  0  0  0  0  0  0  0  0  0
  1  2  2  0
  2  3  1  0
  3  4  1  0
  4  5  1  0
  5  6  1  0
  6  7  1  0
  7  8  1  0
  8  9  1  0
  9 10  2  0
 10 11  1  0
  9 12  1  0
 12 13  2  0
 13 14  1  0
 14 15  2  0
 15 16  1  0
 16 17  2  0
 16 18  1  0
 18 19  1  0
 19 20  1  0
 20 21  1  0
 21 22  1  0
 22 23  1  0
 11  2  1  0
 17 12  1  0
 23 18  1  0
 11  7  2  0
  3 24  1  0
  4 25  1  0
  4 26  1  0
  5 27  1  0
  5 28  1  0
  6 29  1  0
  6 30  1  0
  8 31  1  0
 10 32  1  0
 13 33  1  0
 14 34  1  0
 17 35  1  0
 19 36  1  0
 19 37  1  0
 20 38  1  0
 20 39  1  0
 21 40  1  0
 22 41  1  0
 22 42  1  0
 23 43  1  0
 23 44  1  0
M  END
$$$$
[H]c1c([H])c(C(F)(F)F)c([H])c([H])c1OC1([H])C([H])([H])C([H])([H])N(C(=O)c2nnc3c([H])c([H])c([H])c([H])c3c2N2C([H])([H])C([H])([H])C([H])([H])C([H])([H])C2([H])[H])C([H])([H])C1([H])[H]
     RDKit          3D

 62 66  0  0  0  0  0  0  0  0999 V2000
    9.4127   -0.6621   -1.4748 F   0  0  0  0  0  0  0  0  0  0  0  0
    9.0577   -0.5331   -0.1457 C   0  0  0  0  0  0  0  0  0  0  0  0
    9.5506   -1.6979    0.4679 F   0  0  0  0  0  0  0  0  0  0  0  0
    9.7178    0.5716    0.3592 F   0  0  0  0  0  0  0  0  0  0  0  0
    7.5932   -0.4724    0.0330 C   0  0  0  0  0  0  0  0  0  0  0  0
    6.6926   -0.8060   -0.9338 C   0  0  0  0  0  0  0  0  0  0  0  0
    5.3410   -0.7216   -0.7436 C   0  0  0  0  0  0  0  0  0  0  0  0
    4.8198   -0.2562    0.5439 C   0  0  0  0  0  0  0  0  0  0  0  0
    3.4946   -0.1929    0.6715 O   0  0  0  0  0  0  0  0  0  0  0  0
    2.6825    0.3438    1.7245 C   0  0  0  0  0  0  0  0  0  0  0  0
    1.7680   -0.6830    2.2863 C   0  0  0  0  0  0  0  0  0  0  0  0
    0.4917   -0.0882    2.8573 C   0  0  0  0  0  0  0  0  0  0  0  0
   -0.0429    0.7648    1.7585 N   0  0  0  0  0  0  0  0  0  0  0  0
    0.6929    1.9460    1.6107 C   0  0  0  0  0  0  0  0  0  0  0  0
    2.0950    1.5749    1.1322 C   0  0  0  0  0  0  0  0  0  0  0  0
   -1.1558    0.2261    0.9942 C   0  0  0  0  0  0  0  0  0  0  0  0
   -1.5221   -0.8965    1.3585 O   0  0  0  0  0  0  0  0  0  0  0  0
   -1.7542    0.9560   -0.0707 C   0  0  0  0  0  0  0  0  0  0  0  0
   -1.3384    2.2160   -0.4455 N   0  0  0  0  0  0  0  0  0  0  0  0
   -1.7983    2.9474   -1.3700 N   0  0  0  0  0  0  0  0  0  0  0  0
   -2.8311    2.5597   -2.1536 C   0  0  0  0  0  0  0  0  0  0  0  0
   -3.3067    3.3579   -3.1538 C   0  0  0  0  0  0  0  0  0  0  0  0
   -4.3428    2.8238   -3.9085 C   0  0  0  0  0  0  0  0  0  0  0  0
   -4.8569    1.5921   -3.6821 C   0  0  0  0  0  0  0  0  0  0  0  0
   -4.3513    0.8221   -2.6542 C   0  0  0  0  0  0  0  0  0  0  0  0
   -3.3256    1.2928   -1.8546 C   0  0  0  0  0  0  0  0  0  0  0  0
   -2.8085    0.4913   -0.8272 C   0  0  0  0  0  0  0  0  0  0  0  0
   -3.4920   -0.7028   -0.5038 N   0  0  0  0  0  0  0  0  0  0  0  0
   -4.6398   -0.5807    0.4079 C   0  0  0  0  0  0  0  0  0  0  0  0
   -5.7971   -1.4205   -0.0462 C   0  0  0  0  0  0  0  0  0  0  0  0
   -5.4071   -2.8862   -0.1175 C   0  0  0  0  0  0  0  0  0  0  0  0
   -3.9122   -3.0199   -0.0834 C   0  0  0  0  0  0  0  0  0  0  0  0
   -3.2217   -2.0181   -0.9750 C   0  0  0  0  0  0  0  0  0  0  0  0
    5.7511    0.0465    1.4400 C   0  0  0  0  0  0  0  0  0  0  0  0
    7.1074   -0.0264    1.2802 C   0  0  0  0  0  0  0  0  0  0  0  0
    7.0659   -1.1543   -1.9294 H   0  0  0  0  0  0  0  0  0  0  0  0
    4.6258   -0.9873   -1.4724 H   0  0  0  0  0  0  0  0  0  0  0  0
    3.4359    0.7006    2.4808 H   0  0  0  0  0  0  0  0  0  0  0  0
    2.3028   -1.2694    3.1145 H   0  0  0  0  0  0  0  0  0  0  0  0
    1.4496   -1.3974    1.4693 H   0  0  0  0  0  0  0  0  0  0  0  0
   -0.2112   -0.8982    3.0637 H   0  0  0  0  0  0  0  0  0  0  0  0
    0.7246    0.5633    3.7289 H   0  0  0  0  0  0  0  0  0  0  0  0
    0.8970    2.5258    2.5916 H   0  0  0  0  0  0  0  0  0  0  0  0
    0.2960    2.6465    0.8951 H   0  0  0  0  0  0  0  0  0  0  0  0
    1.9762    1.4016    0.0184 H   0  0  0  0  0  0  0  0  0  0  0  0
    2.7922    2.4358    1.2355 H   0  0  0  0  0  0  0  0  0  0  0  0
   -2.9115    4.3389   -3.3201 H   0  0  0  0  0  0  0  0  0  0  0  0
   -4.7716    3.4167   -4.7215 H   0  0  0  0  0  0  0  0  0  0  0  0
   -5.6719    1.1278   -4.2713 H   0  0  0  0  0  0  0  0  0  0  0  0
   -4.7363   -0.1666   -2.4856 H   0  0  0  0  0  0  0  0  0  0  0  0
   -4.9312    0.4928    0.5244 H   0  0  0  0  0  0  0  0  0  0  0  0
   -4.3538   -0.9221    1.4357 H   0  0  0  0  0  0  0  0  0  0  0  0
   -6.6607   -1.2759    0.6686 H   0  0  0  0  0  0  0  0  0  0  0  0
   -6.2009   -1.0825   -1.0286 H   0  0  0  0  0  0  0  0  0  0  0  0
   -5.8125   -3.3743   -1.0515 H   0  0  0  0  0  0  0  0  0  0  0  0
   -5.8908   -3.3646    0.7941 H   0  0  0  0  0  0  0  0  0  0  0  0
   -3.6278   -2.7705    0.9808 H   0  0  0  0  0  0  0  0  0  0  0  0
   -3.5893   -4.0690   -0.2504 H   0  0  0  0  0  0  0  0  0  0  0  0
   -2.1362   -2.2598   -1.0824 H   0  0  0  0  0  0  0  0  0  0  0  0
   -3.6256   -2.1664   -2.0301 H   0  0  0  0  0  0  0  0  0  0  0  0
    5.4288    0.4186    2.4653 H   0  0  0  0  0  0  0  0  0  0  0  0
    7.7721    0.2215    2.0621 H   0  0  0  0  0  0  0  0  0  0  0  0
  1  2  1  0
  2  3  1  0
  2  4  1  0
  2  5  1  0
  5  6  2  0
  6  7  1  0
  7  8  2  0
  8  9  1  0
  9 10  1  0
 10 11  1  0
 11 12  1  0
 12 13  1  0
 13 14  1  0
 14 15  1  0
 13 16  1  0
 16 17  2  0
 16 18  1  0
 18 19  2  0
 19 20  1  0
 20 21  2  0
 21 22  1  0
 22 23  2  0
 23 24  1  0
 24 25  2  0
 25 26  1  0
 26 27  2  0
 27 28  1  0
 28 29  1  0
 29 30  1  0
 30 31  1  0
 31 32  1  0
 32 33  1  0
  8 34  1  0
 34 35  2  0
 35  5  1  0
 15 10  1  0
 27 18  1  0
 33 28  1  0
 26 21  1  0
  6 36  1  0
  7 37  1  0
 10 38  1  0
 11 39  1  0
 11 40  1  0
 12 41  1  0
 12 42  1  0
 14 43  1  0
 14 44  1  0
 15 45  1  0
 15 46  1  0
 22 47  1  0
 23 48  1  0
 24 49  1  0
 25 50  1  0
 29 51  1  0
 29 52  1  0
 30 53  1  0
 30 54  1  0
 31 55  1  0
 31 56  1  0
 32 57  1  0
 32 58  1  0
 33 59  1  0
 33 60  1  0
 34 61  1  0
 35 62  1  0
M  END
$$$$
[H]c1c([H])c([H])c2c(c1[H])C(=O)N(C([H])([H])c1c([H])n([H])c3c([H])c([H])c([H])c([H])c13)C2=O
     RDKit          3D

 33 36  0  0  0  0  0  0  0  0999 V2000
   -1.5318   -1.3493    1.9812 O   0  0  0  0  0  0  0  0  0  0  0  0
   -1.7931   -0.9195    0.8099 C   0  0  0  0  0  0  0  0  0  0  0  0
   -0.9233   -0.8504   -0.3085 N   0  0  0  0  0  0  0  0  0  0  0  0
    0.4440   -1.2551   -0.3487 C   0  0  0  0  0  0  0  0  0  0  0  0
    1.3741   -0.1389    0.0168 C   0  0  0  0  0  0  0  0  0  0  0  0
    1.0278    1.1507    0.3622 C   0  0  0  0  0  0  0  0  0  0  0  0
    2.1546    1.8684    0.6258 N   0  0  0  0  0  0  0  0  0  0  0  0
    3.2274    1.0701    0.4585 C   0  0  0  0  0  0  0  0  0  0  0  0
    4.5845    1.2758    0.5900 C   0  0  0  0  0  0  0  0  0  0  0  0
    5.4650    0.2460    0.3469 C   0  0  0  0  0  0  0  0  0  0  0  0
    4.9974   -1.0031   -0.0311 C   0  0  0  0  0  0  0  0  0  0  0  0
    3.6476   -1.2026   -0.1605 C   0  0  0  0  0  0  0  0  0  0  0  0
    2.7487   -0.1874    0.0775 C   0  0  0  0  0  0  0  0  0  0  0  0
   -1.6909   -0.2983   -1.3728 C   0  0  0  0  0  0  0  0  0  0  0  0
   -1.3430   -0.0517   -2.5527 O   0  0  0  0  0  0  0  0  0  0  0  0
   -3.0402   -0.0375   -0.8694 C   0  0  0  0  0  0  0  0  0  0  0  0
   -4.1778    0.4873   -1.4650 C   0  0  0  0  0  0  0  0  0  0  0  0
   -5.3582    0.6364   -0.7600 C   0  0  0  0  0  0  0  0  0  0  0  0
   -5.4401    0.2644    0.5684 C   0  0  0  0  0  0  0  0  0  0  0  0
   -4.3059   -0.2576    1.1582 C   0  0  0  0  0  0  0  0  0  0  0  0
   -3.1144   -0.4117    0.4585 C   0  0  0  0  0  0  0  0  0  0  0  0
    0.6192   -2.1224    0.3255 H   0  0  0  0  0  0  0  0  0  0  0  0
    0.6879   -1.6122   -1.3787 H   0  0  0  0  0  0  0  0  0  0  0  0
    0.0210    1.5425    0.4183 H   0  0  0  0  0  0  0  0  0  0  0  0
    2.2029    2.8733    0.9122 H   0  0  0  0  0  0  0  0  0  0  0  0
    4.9997    2.2290    0.8817 H   0  0  0  0  0  0  0  0  0  0  0  0
    6.5516    0.3719    0.4413 H   0  0  0  0  0  0  0  0  0  0  0  0
    5.7244   -1.7993   -0.2165 H   0  0  0  0  0  0  0  0  0  0  0  0
    3.2648   -2.1837   -0.4582 H   0  0  0  0  0  0  0  0  0  0  0  0
   -4.1071    0.7817   -2.5222 H   0  0  0  0  0  0  0  0  0  0  0  0
   -6.2192    1.0568   -1.2883 H   0  0  0  0  0  0  0  0  0  0  0  0
   -6.3793    0.3891    1.1088 H   0  0  0  0  0  0  0  0  0  0  0  0
   -4.3182   -0.5625    2.1908 H   0  0  0  0  0  0  0  0  0  0  0  0
  1  2  2  0
  2  3  1  0
  3  4  1  0
  4  5  1  0
  5  6  2  0
  6  7  1  0
  7  8  1  0
  8  9  2  0
  9 10  1  0
 10 11  2  0
 11 12  1  0
 12 13  2  0
  3 14  1  0
 14 15  2  0
 14 16  1  0
 16 17  2  0
 17 18  1  0
 18 19  2  0
 19 20  1  0
 20 21  2  0
 21  2  1  0
 13  5  1  0
 21 16  1  0
 13  8  1  0
  4 22  1  0
  4 23  1  0
  6 24  1  0
  7 25  1  0
  9 26  1  0
 10 27  1  0
 11 28  1  0
 12 29  1  0
 17 30  1  0
 18 31  1  0
 19 32  1  0
 20 33  1  0
M  END
$$$$
[H]N=C(N([H])[H])C([H])([H])C([H])([H])SC([H])([H])c1c([H])c([H])c([H])c(O[H])c1[H]
     RDKit          3D

 28 28  0  0  0  0  0  0  0  0999 V2000
    2.8128    0.6591   -1.6203 N   0  0  0  0  0  0  0  0  0  0  0  0
    3.2846    0.7016   -0.2812 C   0  0  0  0  0  0  0  0  0  0  0  0
    3.7921    1.8032    0.1462 N   0  0  0  0  0  0  0  0  0  0  0  0
    3.1776   -0.5062    0.5640 C   0  0  0  0  0  0  0  0  0  0  0  0
    1.7582   -0.9664    0.7366 C   0  0  0  0  0  0  0  0  0  0  0  0
    0.9841   -1.3779   -0.8508 S   0  0  0  0  0  0  0  0  0  0  0  0
   -0.7099   -1.9207   -0.6093 C   0  0  0  0  0  0  0  0  0  0  0  0
   -1.5978   -0.8400   -0.1019 C   0  0  0  0  0  0  0  0  0  0  0  0
   -1.7627   -0.6346    1.2438 C   0  0  0  0  0  0  0  0  0  0  0  0
   -2.5845    0.3661    1.7108 C   0  0  0  0  0  0  0  0  0  0  0  0
   -3.2557    1.1788    0.8488 C   0  0  0  0  0  0  0  0  0  0  0  0
   -3.0804    0.9605   -0.5016 C   0  0  0  0  0  0  0  0  0  0  0  0
   -3.7472    1.7676   -1.4309 O   0  0  0  0  0  0  0  0  0  0  0  0
   -2.2666   -0.0306   -0.9844 C   0  0  0  0  0  0  0  0  0  0  0  0
    1.9521    1.1931   -1.9035 H   0  0  0  0  0  0  0  0  0  0  0  0
    3.3588    0.0790   -2.2934 H   0  0  0  0  0  0  0  0  0  0  0  0
    3.8739    2.6598   -0.4360 H   0  0  0  0  0  0  0  0  0  0  0  0
    3.5582   -0.2350    1.5797 H   0  0  0  0  0  0  0  0  0  0  0  0
    3.8078   -1.3443    0.2117 H   0  0  0  0  0  0  0  0  0  0  0  0
    1.7754   -1.8894    1.3525 H   0  0  0  0  0  0  0  0  0  0  0  0
    1.1606   -0.2292    1.3133 H   0  0  0  0  0  0  0  0  0  0  0  0
   -1.1076   -2.2272   -1.6097 H   0  0  0  0  0  0  0  0  0  0  0  0
   -0.7433   -2.8214    0.0397 H   0  0  0  0  0  0  0  0  0  0  0  0
   -1.2520   -1.2529    1.9740 H   0  0  0  0  0  0  0  0  0  0  0  0
   -2.7318    0.5499    2.7743 H   0  0  0  0  0  0  0  0  0  0  0  0
   -3.9227    1.9904    1.1796 H   0  0  0  0  0  0  0  0  0  0  0  0
   -4.3623    2.5162   -1.1138 H   0  0  0  0  0  0  0  0  0  0  0  0
   -2.1715   -0.1498   -2.0673 H   0  0  0  0  0  0  0  0  0  0  0  0
  1  2  1  0
  2  3  2  3
  2  4  1  0
  4  5  1  0
  5  6  1  0
  6  7  1  0
  7  8  1  0
  8  9  2  0
  9 10  1  0
 10 11  2  0
 11 12  1  0
 12 13  1  0
 12 14  2  0
 14  8  1  0
  1 15  1  0
  1 16  1  0
  3 17  1  0
  4 18  1  0
  4 19  1  0
  5 20  1  0
  5 21  1  0
  7 22  1  0
  7 23  1  0
  9 24  1  0
 10 25  1  0
 11 26  1  0
 13 27  1  0
 14 28  1  0
M  END
$$$$
[H]N=C(c1c([H])c([H])c(C([H])([H])n2c(C([H])([H])[H])c(C([H])([H])C([H])([H])C(=O)N3C([H])([H])C([H])([H])N([H])C([H])([H])C3([H])[H])c3c([H])c(OC4([H])C([H])([H])C([H])([H])N(C(=N[H])C([H])([H])[H])C([H])([H])C4([H])[H])c([H])c([H])c32)c(F)c1[H])N([H])[H]
     RDKit          3D

 81 85  0  0  0  0  0  0  0  0999 V2000
    8.8244   -1.3354   -1.4829 C   0  0  0  0  0  0  0  0  0  0  0  0
    8.3560   -1.1893   -0.0728 C   0  0  0  0  0  0  0  0  0  0  0  0
    9.0958   -1.4982    0.9301 N   0  0  0  0  0  0  0  0  0  0  0  0
    7.0543   -0.6934    0.1548 N   0  0  0  0  0  0  0  0  0  0  0  0
    6.0870   -1.5110    0.8274 C   0  0  0  0  0  0  0  0  0  0  0  0
    5.0576   -0.6689    1.5392 C   0  0  0  0  0  0  0  0  0  0  0  0
    4.3795    0.3288    0.6246 C   0  0  0  0  0  0  0  0  0  0  0  0
    5.2311    0.6256   -0.5966 C   0  0  0  0  0  0  0  0  0  0  0  0
    6.6993    0.6445   -0.2939 C   0  0  0  0  0  0  0  0  0  0  0  0
    3.1826   -0.2064    0.1889 O   0  0  0  0  0  0  0  0  0  0  0  0
    1.9102    0.3369    0.3696 C   0  0  0  0  0  0  0  0  0  0  0  0
    1.6776    1.5246    1.0303 C   0  0  0  0  0  0  0  0  0  0  0  0
    0.4181    2.0589    1.2070 C   0  0  0  0  0  0  0  0  0  0  0  0
   -0.6919    1.3806    0.6999 C   0  0  0  0  0  0  0  0  0  0  0  0
   -2.0157    1.6678    0.7266 N   0  0  0  0  0  0  0  0  0  0  0  0
   -2.5522    2.8197    1.3632 C   0  0  0  0  0  0  0  0  0  0  0  0
   -2.6966    4.0448    0.5977 C   0  0  0  0  0  0  0  0  0  0  0  0
   -3.2058    5.1637    1.2741 C   0  0  0  0  0  0  0  0  0  0  0  0
   -3.3927    6.3725    0.6866 C   0  0  0  0  0  0  0  0  0  0  0  0
   -3.0822    6.5866   -0.6641 C   0  0  0  0  0  0  0  0  0  0  0  0
   -2.5828    5.5052   -1.3444 C   0  0  0  0  0  0  0  0  0  0  0  0
   -2.3967    4.2603   -0.7164 C   0  0  0  0  0  0  0  0  0  0  0  0
   -1.8967    3.2276   -1.4554 F   0  0  0  0  0  0  0  0  0  0  0  0
   -3.2991    7.9035   -1.2563 C   0  0  0  0  0  0  0  0  0  0  0  0
   -3.8231    8.9436   -0.4488 N   0  0  0  0  0  0  0  0  0  0  0  0
   -3.0258    8.1157   -2.4682 N   0  0  0  0  0  0  0  0  0  0  0  0
   -2.6365    0.6668    0.0834 C   0  0  0  0  0  0  0  0  0  0  0  0
   -4.0943    0.5816   -0.1200 C   0  0  0  0  0  0  0  0  0  0  0  0
   -1.7212   -0.2605   -0.3552 C   0  0  0  0  0  0  0  0  0  0  0  0
   -1.9400   -1.5164   -1.1026 C   0  0  0  0  0  0  0  0  0  0  0  0
   -2.4748   -2.6197   -0.2570 C   0  0  0  0  0  0  0  0  0  0  0  0
   -2.6765   -3.8538   -1.0579 C   0  0  0  0  0  0  0  0  0  0  0  0
   -2.3846   -3.8104   -2.3024 O   0  0  0  0  0  0  0  0  0  0  0  0
   -3.1814   -5.0588   -0.4636 N   0  0  0  0  0  0  0  0  0  0  0  0
   -3.3480   -6.2147   -1.3186 C   0  0  0  0  0  0  0  0  0  0  0  0
   -3.6951   -7.4232   -0.5129 C   0  0  0  0  0  0  0  0  0  0  0  0
   -4.7642   -7.0671    0.4021 N   0  0  0  0  0  0  0  0  0  0  0  0
   -4.3156   -6.1581    1.4310 C   0  0  0  0  0  0  0  0  0  0  0  0
   -3.4856   -5.0377    0.9313 C   0  0  0  0  0  0  0  0  0  0  0  0
   -0.4774    0.2144    0.0497 C   0  0  0  0  0  0  0  0  0  0  0  0
    0.7934   -0.3215   -0.1267 C   0  0  0  0  0  0  0  0  0  0  0  0
    7.9403   -1.4433   -2.1372 H   0  0  0  0  0  0  0  0  0  0  0  0
    9.4527   -2.2472   -1.5069 H   0  0  0  0  0  0  0  0  0  0  0  0
    9.3994   -0.4288   -1.7666 H   0  0  0  0  0  0  0  0  0  0  0  0
    8.7165   -1.3755    1.8880 H   0  0  0  0  0  0  0  0  0  0  0  0
    5.5991   -2.2524    0.1497 H   0  0  0  0  0  0  0  0  0  0  0  0
    6.6110   -2.0996    1.6101 H   0  0  0  0  0  0  0  0  0  0  0  0
    5.5562   -0.1889    2.4054 H   0  0  0  0  0  0  0  0  0  0  0  0
    4.2867   -1.3481    1.9574 H   0  0  0  0  0  0  0  0  0  0  0  0
    4.3250    1.2767    1.1891 H   0  0  0  0  0  0  0  0  0  0  0  0
    4.9041    1.6016   -1.0148 H   0  0  0  0  0  0  0  0  0  0  0  0
    5.0113   -0.1290   -1.3847 H   0  0  0  0  0  0  0  0  0  0  0  0
    7.2327    0.8218   -1.2365 H   0  0  0  0  0  0  0  0  0  0  0  0
    6.9383    1.4257    0.4312 H   0  0  0  0  0  0  0  0  0  0  0  0
    2.5097    2.0866    1.4415 H   0  0  0  0  0  0  0  0  0  0  0  0
    0.2583    3.0007    1.7335 H   0  0  0  0  0  0  0  0  0  0  0  0
   -3.5470    2.5626    1.8093 H   0  0  0  0  0  0  0  0  0  0  0  0
   -1.9199    3.0640    2.2604 H   0  0  0  0  0  0  0  0  0  0  0  0
   -3.4621    5.0380    2.3359 H   0  0  0  0  0  0  0  0  0  0  0  0
   -3.7902    7.2252    1.2365 H   0  0  0  0  0  0  0  0  0  0  0  0
   -2.3218    5.5898   -2.3801 H   0  0  0  0  0  0  0  0  0  0  0  0
   -3.4605    9.1222    0.5001 H   0  0  0  0  0  0  0  0  0  0  0  0
   -4.5840    9.5308   -0.8252 H   0  0  0  0  0  0  0  0  0  0  0  0
   -2.6505    7.4030   -3.0818 H   0  0  0  0  0  0  0  0  0  0  0  0
   -4.3681   -0.2236   -0.8544 H   0  0  0  0  0  0  0  0  0  0  0  0
   -4.6546    0.3475    0.8064 H   0  0  0  0  0  0  0  0  0  0  0  0
   -4.4246    1.5330   -0.5884 H   0  0  0  0  0  0  0  0  0  0  0  0
   -1.0059   -1.8611   -1.5738 H   0  0  0  0  0  0  0  0  0  0  0  0
   -2.6521   -1.3201   -1.9461 H   0  0  0  0  0  0  0  0  0  0  0  0
   -1.6863   -2.8702    0.5090 H   0  0  0  0  0  0  0  0  0  0  0  0
   -3.3743   -2.3412    0.3286 H   0  0  0  0  0  0  0  0  0  0  0  0
   -4.1700   -6.0215   -2.0252 H   0  0  0  0  0  0  0  0  0  0  0  0
   -2.4115   -6.3443   -1.9152 H   0  0  0  0  0  0  0  0  0  0  0  0
   -2.8568   -7.8483    0.0608 H   0  0  0  0  0  0  0  0  0  0  0  0
   -4.1437   -8.1932   -1.2075 H   0  0  0  0  0  0  0  0  0  0  0  0
   -5.6123   -6.7466   -0.0881 H   0  0  0  0  0  0  0  0  0  0  0  0
   -3.7202   -6.7761    2.1634 H   0  0  0  0  0  0  0  0  0  0  0  0
   -5.2129   -5.8319    1.9950 H   0  0  0  0  0  0  0  0  0  0  0  0
   -4.0394   -4.0796    1.1592 H   0  0  0  0  0  0  0  0  0  0  0  0
   -2.5253   -4.9307    1.5119 H   0  0  0  0  0  0  0  0  0  0  0  0
    0.9421   -1.2573   -0.6509 H   0  0  0  0  0  0  0  0  0  0  0  0
  1  2  1  0
  2  3  2  3
  2  4  1  0
  4  5  1  0
  5  6  1  0
  6  7  1  0
  7  8  1  0
  8  9  1  0
  7 10  1  0
 10 11  1  0
 11 12  2  0
 12 13  1  0
 13 14  2  0
 14 15  1  0
 15 16  1  0
 16 17  1  0
 17 18  2  0
 18 19  1  0
 19 20  2  0
 20 21  1  0
 21 22  2  0
 22 23  1  0
 20 24  1  0
 24 25  1  0
 24 26  2  3
 15 27  1  0
 27 28  1  0
 27 29  2  0
 29 30  1  0
 30 31  1  0
 31 32  1  0
 32 33  2  0
 32 34  1  0
 34 35  1  0
 35 36  1  0
 36 37  1  0
 37 38  1  0
 38 39  1  0
 29 40  1  0
 40 41  2  0
  9  4  1  0
 41 11  1  0
 40 14  1  0
 22 17  1  0
 39 34  1  0
  1 42  1  0
  1 43  1  0
  1 44  1  0
  3 45  1  0
  5 46  1  0
  5 47  1  0
  6 48  1  0
  6 49  1  0
  7 50  1  0
  8 51  1  0
  8 52  1  0
  9 53  1  0
  9 54  1  0
 12 55  1  0
 13 56  1  0
 16 57  1  0
 16 58  1  0
 18 59  1  0
 19 60  1  0
 21 61  1  0
 25 62  1  0
 25 63  1  0
 26 64  1  0
 28 65  1  0
 28 66  1  0
 28 67  1  0
 30 68  1  0
 30 69  1  0
 31 70  1  0
 31 71  1  0
 35 72  1  0
 35 73  1  0
 36 74  1  0
 36 75  1  0
 37 76  1  0
 38 77  1  0
 38 78  1  0
 39 79  1  0
 39 80  1  0
 41 81  1  0
M  END
$$$$
[H]c1nc(OC([H])([H])[H])c([H])c([H])c1-c1c([H])c2nc(N([H])C(=O)N([H])C([H])([H])C([H])([H])[H])sc2n(C([H])(C([H])([H])[H])C([H])([H])[H])c1=O
     RDKit          3D

 48 50  0  0  0  0  0  0  0  0999 V2000
    7.8830    0.9052   -0.4969 C   0  0  0  0  0  0  0  0  0  0  0  0
    7.5659    1.1241    0.9523 C   0  0  0  0  0  0  0  0  0  0  0  0
    6.2589    1.6693    1.1972 N   0  0  0  0  0  0  0  0  0  0  0  0
    5.0554    1.0353    0.8196 C   0  0  0  0  0  0  0  0  0  0  0  0
    5.1141   -0.0667    0.2367 O   0  0  0  0  0  0  0  0  0  0  0  0
    3.8308    1.6478    1.1027 N   0  0  0  0  0  0  0  0  0  0  0  0
    2.6077    0.9896    0.7101 C   0  0  0  0  0  0  0  0  0  0  0  0
    1.3664    1.3957    0.8809 N   0  0  0  0  0  0  0  0  0  0  0  0
    0.3776    0.6677    0.4594 C   0  0  0  0  0  0  0  0  0  0  0  0
   -0.9941    0.9512    0.5600 C   0  0  0  0  0  0  0  0  0  0  0  0
   -1.9422    0.0982    0.0733 C   0  0  0  0  0  0  0  0  0  0  0  0
   -3.3635    0.4446    0.2038 C   0  0  0  0  0  0  0  0  0  0  0  0
   -3.8114    1.7090   -0.0849 C   0  0  0  0  0  0  0  0  0  0  0  0
   -5.1282    2.0693    0.0255 C   0  0  0  0  0  0  0  0  0  0  0  0
   -6.0696    1.1155    0.4508 C   0  0  0  0  0  0  0  0  0  0  0  0
   -7.3153    1.3699    0.5801 O   0  0  0  0  0  0  0  0  0  0  0  0
   -8.5683    1.5351    0.7361 C   0  0  0  0  0  0  0  0  0  0  0  0
   -5.5962   -0.1551    0.7372 N   0  0  0  0  0  0  0  0  0  0  0  0
   -4.3137   -0.4550    0.6150 C   0  0  0  0  0  0  0  0  0  0  0  0
   -1.5793   -1.0961   -0.5467 C   0  0  0  0  0  0  0  0  0  0  0  0
   -2.4138   -1.8842   -0.9948 O   0  0  0  0  0  0  0  0  0  0  0  0
   -0.2752   -1.3684   -0.6439 N   0  0  0  0  0  0  0  0  0  0  0  0
    0.2430   -2.5746   -1.2650 C   0  0  0  0  0  0  0  0  0  0  0  0
   -0.5758   -2.9920   -2.4726 C   0  0  0  0  0  0  0  0  0  0  0  0
    0.2004   -3.7484   -0.2875 C   0  0  0  0  0  0  0  0  0  0  0  0
    0.6789   -0.5171   -0.1579 C   0  0  0  0  0  0  0  0  0  0  0  0
    2.3912   -0.5099   -0.0927 S   0  0  0  0  0  0  0  0  0  0  0  0
    8.7141    0.2099   -0.6630 H   0  0  0  0  0  0  0  0  0  0  0  0
    7.0235    0.6456   -1.1275 H   0  0  0  0  0  0  0  0  0  0  0  0
    8.2440    1.8995   -0.8948 H   0  0  0  0  0  0  0  0  0  0  0  0
    8.3634    1.7260    1.3958 H   0  0  0  0  0  0  0  0  0  0  0  0
    7.5624    0.0998    1.4269 H   0  0  0  0  0  0  0  0  0  0  0  0
    6.2180    2.5900    1.6845 H   0  0  0  0  0  0  0  0  0  0  0  0
    3.7868    2.5649    1.5888 H   0  0  0  0  0  0  0  0  0  0  0  0
   -1.3440    1.8712    1.0352 H   0  0  0  0  0  0  0  0  0  0  0  0
   -3.1141    2.4640   -0.4136 H   0  0  0  0  0  0  0  0  0  0  0  0
   -5.5104    3.0634   -0.1965 H   0  0  0  0  0  0  0  0  0  0  0  0
   -8.9015    1.4106    1.8215 H   0  0  0  0  0  0  0  0  0  0  0  0
   -8.9710    2.5391    0.3805 H   0  0  0  0  0  0  0  0  0  0  0  0
   -9.2633    0.8157    0.1860 H   0  0  0  0  0  0  0  0  0  0  0  0
   -3.9883   -1.4721    0.8537 H   0  0  0  0  0  0  0  0  0  0  0  0
    1.2803   -2.4240   -1.6421 H   0  0  0  0  0  0  0  0  0  0  0  0
   -1.3487   -3.7397   -2.2133 H   0  0  0  0  0  0  0  0  0  0  0  0
    0.0905   -3.4802   -3.2431 H   0  0  0  0  0  0  0  0  0  0  0  0
   -0.9954   -2.1025   -2.9965 H   0  0  0  0  0  0  0  0  0  0  0  0
    0.9860   -3.6274    0.4820 H   0  0  0  0  0  0  0  0  0  0  0  0
   -0.8239   -3.7496    0.1341 H   0  0  0  0  0  0  0  0  0  0  0  0
    0.3650   -4.6642   -0.8965 H   0  0  0  0  0  0  0  0  0  0  0  0
  1  2  1  0
  2  3  1  0
  3  4  1  0
  4  5  2  0
  4  6  1  0
  6  7  1  0
  7  8  2  0
  8  9  1  0
  9 10  1  0
 10 11  2  0
 11 12  1  0
 12 13  2  0
 13 14  1  0
 14 15  2  0
 15 16  1  0
 16 17  1  0
 15 18  1  0
 18 19  2  0
 11 20  1  0
 20 21  2  0
 20 22  1  0
 22 23  1  0
 23 24  1  0
 23 25  1  0
 22 26  1  0
 26 27  1  0
 27  7  1  0
 26  9  2  0
 19 12  1  0
  1 28  1  0
  1 29  1  0
  1 30  1  0
  2 31  1  0
  2 32  1  0
  3 33  1  0
  6 34  1  0
 10 35  1  0
 13 36  1  0
 14 37  1  0
 17 38  1  0
 17 39  1  0
 17 40  1  0
 19 41  1  0
 23 42  1  0
 24 43  1  0
 24 44  1  0
 24 45  1  0
 25 46  1  0
 25 47  1  0
 25 48  1  0
M  END
$$$$
[H]OC(=O)[C@@]([H])(N([H])[H])C([H])([H])OP(=O)(O[H])OC([H])([H])[C@]([H])(C(=O)N([H])[C@@]([H])(C(=O)O[H])C([H])([H])OP(=O)(O[H])O[H])C([H])([H])OC([H])([H])C([H])([H])C([H])([H])C([H])([H])C([H])([H])C([H])([H])C([H])([H])C([H])([H])C([H])([H])C([H])([H])C([H])([H])C([H])([H])C([H])([H])C([H])([H])C([H])([H])C([H])([H])C([H])([H])C([H])([H])[H]
     RDKit          3D

102101  0  0  0  0  0  0  0  0999 V2000
   11.2044   -2.8041   -0.4427 C   0  0  0  0  0  0  0  0  0  0  0  0
   10.9434   -1.6159    0.4882 C   0  0  0  0  0  0  0  0  0  0  0  0
   10.4657   -0.4549   -0.3531 C   0  0  0  0  0  0  0  0  0  0  0  0
   10.2083    0.7363    0.5166 C   0  0  0  0  0  0  0  0  0  0  0  0
    9.1592    0.4168    1.5391 C   0  0  0  0  0  0  0  0  0  0  0  0
    7.8604   -0.0020    0.8545 C   0  0  0  0  0  0  0  0  0  0  0  0
    7.3748    1.1218   -0.0072 C   0  0  0  0  0  0  0  0  0  0  0  0
    6.1211    0.7674   -0.7220 C   0  0  0  0  0  0  0  0  0  0  0  0
    4.9821    0.4433    0.1849 C   0  0  0  0  0  0  0  0  0  0  0  0
    4.5752    1.4833    1.1371 C   0  0  0  0  0  0  0  0  0  0  0  0
    4.1457    2.8168    0.7423 C   0  0  0  0  0  0  0  0  0  0  0  0
    2.9338    3.0221   -0.0628 C   0  0  0  0  0  0  0  0  0  0  0  0
    2.9474    2.4476   -1.4171 C   0  0  0  0  0  0  0  0  0  0  0  0
    1.6445    2.7883   -2.1568 C   0  0  0  0  0  0  0  0  0  0  0  0
    0.4525    2.2498   -1.4287 C   0  0  0  0  0  0  0  0  0  0  0  0
    0.4978    0.7676   -1.2916 C   0  0  0  0  0  0  0  0  0  0  0  0
   -0.6950    0.1959   -0.5780 C   0  0  0  0  0  0  0  0  0  0  0  0
   -0.7841    0.7381    0.8175 C   0  0  0  0  0  0  0  0  0  0  0  0
   -1.8508    0.2019    1.4749 O   0  0  0  0  0  0  0  0  0  0  0  0
   -3.1007    0.4489    0.9388 C   0  0  0  0  0  0  0  0  0  0  0  0
   -4.1832   -0.1993    1.8106 C   0  0  2  0  0  0  0  0  0  0  0  0
   -3.9850   -1.6844    1.8852 C   0  0  0  0  0  0  0  0  0  0  0  0
   -4.9838   -2.2362    2.6818 O   0  0  0  0  0  0  0  0  0  0  0  0
   -4.8151   -3.9295    2.7960 P   0  0  0  0  0  0  0  0  0  0  0  0
   -3.3780   -4.3458    2.0392 O   0  0  0  0  0  0  0  0  0  0  0  0
   -4.7282   -4.3142    4.2621 O   0  0  0  0  0  0  0  0  0  0  0  0
   -6.1427   -4.7181    2.1468 O   0  0  0  0  0  0  0  0  0  0  0  0
   -5.8157   -5.4703    1.0204 C   0  0  0  0  0  0  0  0  0  0  0  0
   -7.0221   -6.1698    0.4447 C   0  0  2  0  0  0  0  0  0  0  0  0
   -6.5600   -6.9215   -0.7213 N   0  0  0  0  0  0  0  0  0  0  0  0
   -8.0860   -5.2337    0.0490 C   0  0  0  0  0  0  0  0  0  0  0  0
   -8.4944   -5.1725   -1.2610 O   0  0  0  0  0  0  0  0  0  0  0  0
   -8.6174   -4.4964    0.8980 O   0  0  0  0  0  0  0  0  0  0  0  0
   -5.4979    0.1357    1.2343 C   0  0  0  0  0  0  0  0  0  0  0  0
   -6.2522   -0.7926    0.8638 O   0  0  0  0  0  0  0  0  0  0  0  0
   -5.9074    1.4823    1.0997 N   0  0  0  0  0  0  0  0  0  0  0  0
   -7.1768    1.8823    0.5478 C   0  0  2  0  0  0  0  0  0  0  0  0
   -7.0208    2.6492   -0.7494 C   0  0  0  0  0  0  0  0  0  0  0  0
   -8.3158    2.9817   -1.1814 O   0  0  0  0  0  0  0  0  0  0  0  0
   -8.3086    3.8407   -2.6186 P   0  0  0  0  0  0  0  0  0  0  0  0
   -9.6899    3.5409   -3.5390 O   0  0  0  0  0  0  0  0  0  0  0  0
   -8.2596    5.5019   -2.2723 O   0  0  0  0  0  0  0  0  0  0  0  0
   -7.0829    3.4482   -3.4320 O   0  0  0  0  0  0  0  0  0  0  0  0
   -7.9117    2.6671    1.5545 C   0  0  0  0  0  0  0  0  0  0  0  0
   -9.1795    3.1958    1.3151 O   0  0  0  0  0  0  0  0  0  0  0  0
   -7.4027    2.8846    2.6800 O   0  0  0  0  0  0  0  0  0  0  0  0
   12.0093   -3.4477   -0.0273 H   0  0  0  0  0  0  0  0  0  0  0  0
   11.4873   -2.3761   -1.4420 H   0  0  0  0  0  0  0  0  0  0  0  0
   10.2844   -3.3961   -0.5862 H   0  0  0  0  0  0  0  0  0  0  0  0
   11.8673   -1.3120    1.0156 H   0  0  0  0  0  0  0  0  0  0  0  0
   10.1676   -1.9503    1.2043 H   0  0  0  0  0  0  0  0  0  0  0  0
    9.5678   -0.7412   -0.9495 H   0  0  0  0  0  0  0  0  0  0  0  0
   11.2458   -0.1889   -1.1171 H   0  0  0  0  0  0  0  0  0  0  0  0
    9.9797    1.6107   -0.1160 H   0  0  0  0  0  0  0  0  0  0  0  0
   11.1701    0.9325    1.0922 H   0  0  0  0  0  0  0  0  0  0  0  0
    8.9055    1.3469    2.1063 H   0  0  0  0  0  0  0  0  0  0  0  0
    9.4597   -0.3752    2.2205 H   0  0  0  0  0  0  0  0  0  0  0  0
    7.1067   -0.2065    1.6557 H   0  0  0  0  0  0  0  0  0  0  0  0
    7.9880   -0.9336    0.2945 H   0  0  0  0  0  0  0  0  0  0  0  0
    7.2368    2.0314    0.6474 H   0  0  0  0  0  0  0  0  0  0  0  0
    8.1351    1.4024   -0.7902 H   0  0  0  0  0  0  0  0  0  0  0  0
    5.8772    1.4766   -1.5457 H   0  0  0  0  0  0  0  0  0  0  0  0
    6.3403   -0.1993   -1.2847 H   0  0  0  0  0  0  0  0  0  0  0  0
    5.3999   -0.4168    0.8509 H   0  0  0  0  0  0  0  0  0  0  0  0
    4.1749   -0.0969   -0.3619 H   0  0  0  0  0  0  0  0  0  0  0  0
    3.7572    1.0006    1.7894 H   0  0  0  0  0  0  0  0  0  0  0  0
    5.4087    1.5707    1.9186 H   0  0  0  0  0  0  0  0  0  0  0  0
    4.0091    3.4838    1.6828 H   0  0  0  0  0  0  0  0  0  0  0  0
    4.9839    3.3758    0.1931 H   0  0  0  0  0  0  0  0  0  0  0  0
    2.6871    4.1268   -0.1263 H   0  0  0  0  0  0  0  0  0  0  0  0
    2.0582    2.6215    0.5542 H   0  0  0  0  0  0  0  0  0  0  0  0
    3.0286    1.3616   -1.4097 H   0  0  0  0  0  0  0  0  0  0  0  0
    3.7417    2.9230   -2.0547 H   0  0  0  0  0  0  0  0  0  0  0  0
    1.7271    2.2887   -3.1421 H   0  0  0  0  0  0  0  0  0  0  0  0
    1.5658    3.8857   -2.2309 H   0  0  0  0  0  0  0  0  0  0  0  0
   -0.4348    2.4917   -2.0805 H   0  0  0  0  0  0  0  0  0  0  0  0
    0.3231    2.8085   -0.4763 H   0  0  0  0  0  0  0  0  0  0  0  0
    1.3939    0.4214   -0.7091 H   0  0  0  0  0  0  0  0  0  0  0  0
    0.5693    0.2773   -2.2654 H   0  0  0  0  0  0  0  0  0  0  0  0
   -0.5927   -0.8982   -0.5802 H   0  0  0  0  0  0  0  0  0  0  0  0
   -1.6004    0.5120   -1.1695 H   0  0  0  0  0  0  0  0  0  0  0  0
    0.1518    0.3937    1.3404 H   0  0  0  0  0  0  0  0  0  0  0  0
   -0.8019    1.8539    0.8421 H   0  0  0  0  0  0  0  0  0  0  0  0
   -3.2184    0.0985   -0.1187 H   0  0  0  0  0  0  0  0  0  0  0  0
   -3.2574    1.5449    0.9269 H   0  0  0  0  0  0  0  0  0  0  0  0
   -4.0605    0.2920    2.8123 H   0  0  0  0  0  0  0  0  0  0  0  0
   -4.1079   -2.0950    0.8712 H   0  0  0  0  0  0  0  0  0  0  0  0
   -2.9722   -1.9176    2.2567 H   0  0  0  0  0  0  0  0  0  0  0  0
   -3.5069   -4.4182    1.0610 H   0  0  0  0  0  0  0  0  0  0  0  0
   -5.4351   -4.7683    0.2540 H   0  0  0  0  0  0  0  0  0  0  0  0
   -5.0359   -6.2252    1.2178 H   0  0  0  0  0  0  0  0  0  0  0  0
   -7.4702   -6.8908    1.1591 H   0  0  0  0  0  0  0  0  0  0  0  0
   -5.6627   -7.3736   -0.4278 H   0  0  0  0  0  0  0  0  0  0  0  0
   -6.3211   -6.2455   -1.4789 H   0  0  0  0  0  0  0  0  0  0  0  0
   -9.0685   -5.8755   -1.7135 H   0  0  0  0  0  0  0  0  0  0  0  0
   -5.2714    2.2662    1.4112 H   0  0  0  0  0  0  0  0  0  0  0  0
   -7.7177    0.9307    0.2886 H   0  0  0  0  0  0  0  0  0  0  0  0
   -6.3531    3.5081   -0.6768 H   0  0  0  0  0  0  0  0  0  0  0  0
   -6.6170    1.9682   -1.5308 H   0  0  0  0  0  0  0  0  0  0  0  0
  -10.4889    3.4096   -2.9714 H   0  0  0  0  0  0  0  0  0  0  0  0
   -8.6571    5.7177   -1.3998 H   0  0  0  0  0  0  0  0  0  0  0  0
   -9.4250    4.1203    1.6550 H   0  0  0  0  0  0  0  0  0  0  0  0
  1  2  1  0
  2  3  1  0
  3  4  1  0
  4  5  1  0
  5  6  1  0
  6  7  1  0
  7  8  1  0
  8  9  1  0
  9 10  1  0
 10 11  1  0
 11 12  1  0
 12 13  1  0
 13 14  1  0
 14 15  1  0
 15 16  1  0
 16 17  1  0
 17 18  1  0
 18 19  1  0
 19 20  1  0
 20 21  1  0
 21 22  1  0
 22 23  1  0
 23 24  1  0
 24 25  1  0
 24 26  2  0
 24 27  1  0
 27 28  1  0
 28 29  1  0
 29 30  1  0
 29 31  1  0
 31 32  1  0
 31 33  2  0
 21 34  1  0
 34 35  2  0
 34 36  1  0
 36 37  1  0
 37 38  1  0
 38 39  1  0
 39 40  1  0
 40 41  1  0
 40 42  1  0
 40 43  2  0
 37 44  1  0
 44 45  1  0
 44 46  2  0
  1 47  1  0
  1 48  1  0
  1 49  1  0
  2 50  1  0
  2 51  1  0
  3 52  1  0
  3 53  1  0
  4 54  1  0
  4 55  1  0
  5 56  1  0
  5 57  1  0
  6 58  1  0
  6 59  1  0
  7 60  1  0
  7 61  1  0
  8 62  1  0
  8 63  1  0
  9 64  1  0
  9 65  1  0
 10 66  1  0
 10 67  1  0
 11 68  1  0
 11 69  1  0
 12 70  1  0
 12 71  1  0
 13 72  1  0
 13 73  1  0
 14 74  1  0
 14 75  1  0
 15 76  1  0
 15 77  1  0
 16 78  1  0
 16 79  1  0
 17 80  1  0
 17 81  1  0
 18 82  1  0
 18 83  1  0
 20 84  1  0
 20 85  1  0
 21 86  1  1
 22 87  1  0
 22 88  1  0
 25 89  1  0
 28 90  1  0
 28 91  1  0
 29 92  1  1
 30 93  1  0
 30 94  1  0
 32 95  1  0
 36 96  1  0
 37 97  1  6
 38 98  1  0
 38 99  1  0
 41100  1  0
 42101  1  0
 45102  1  0
M  END
$$$$
[H]c1nc(-c2nc(N3C([H])([H])C([H])([H])OC([H])([H])[C@@]3([H])C([H])([H])[H])c3nc([H])n(C([H])([H])[H])c3c2[H])c(C2([H])N([H])C([H])([H])C([H])([H])OC2([H])[H])nc1[H]
     RDKit          3D

 54 58  0  0  0  0  0  0  0  0999 V2000
    0.3077   -0.2776    3.5603 C   0  0  0  0  0  0  0  0  0  0  0  0
   -0.7342   -0.2832    2.4607 C   0  0  2  0  0  0  0  0  0  0  0  0
   -2.1079   -0.4396    3.0702 C   0  0  0  0  0  0  0  0  0  0  0  0
   -2.4457   -1.6296    3.5668 O   0  0  0  0  0  0  0  0  0  0  0  0
   -1.6943   -2.7424    3.4093 C   0  0  0  0  0  0  0  0  0  0  0  0
   -0.5374   -2.6659    2.4725 C   0  0  0  0  0  0  0  0  0  0  0  0
   -0.5923   -1.4825    1.6275 N   0  0  0  0  0  0  0  0  0  0  0  0
   -0.5195   -1.4271    0.2376 C   0  0  0  0  0  0  0  0  0  0  0  0
   -0.1797   -0.2909   -0.3914 N   0  0  0  0  0  0  0  0  0  0  0  0
   -0.0452   -0.1480   -1.6927 C   0  0  0  0  0  0  0  0  0  0  0  0
   -0.2745   -1.2601   -2.5144 C   0  0  0  0  0  0  0  0  0  0  0  0
   -0.6274   -2.4521   -1.9419 C   0  0  0  0  0  0  0  0  0  0  0  0
   -0.9163   -3.6503   -2.5281 N   0  0  0  0  0  0  0  0  0  0  0  0
   -0.9110   -3.8796   -3.9691 C   0  0  0  0  0  0  0  0  0  0  0  0
   -1.2060   -4.4529   -1.5205 C   0  0  0  0  0  0  0  0  0  0  0  0
   -1.1113   -3.8146   -0.3324 N   0  0  0  0  0  0  0  0  0  0  0  0
   -0.7513   -2.5510   -0.5594 C   0  0  0  0  0  0  0  0  0  0  0  0
    0.2808    1.1275   -2.3659 C   0  0  0  0  0  0  0  0  0  0  0  0
    0.3954    1.0519   -3.6928 N   0  0  0  0  0  0  0  0  0  0  0  0
    0.7129    2.0518   -4.5167 C   0  0  0  0  0  0  0  0  0  0  0  0
    0.9416    3.2849   -3.9028 C   0  0  0  0  0  0  0  0  0  0  0  0
    0.8331    3.3786   -2.5761 N   0  0  0  0  0  0  0  0  0  0  0  0
    0.5019    2.3190   -1.7583 C   0  0  0  0  0  0  0  0  0  0  0  0
    0.4294    2.4998   -0.3128 C   0  0  0  0  0  0  0  0  0  0  0  0
    0.5338    3.9912    0.0420 C   0  0  0  0  0  0  0  0  0  0  0  0
    1.8868    4.3316   -0.0086 O   0  0  0  0  0  0  0  0  0  0  0  0
    2.5183    3.9262    1.1770 C   0  0  0  0  0  0  0  0  0  0  0  0
    1.9687    2.5766    1.5683 C   0  0  0  0  0  0  0  0  0  0  0  0
    1.5861    1.9095    0.3429 N   0  0  0  0  0  0  0  0  0  0  0  0
   -0.0479   -0.8881    4.4265 H   0  0  0  0  0  0  0  0  0  0  0  0
    1.3017   -0.5635    3.2068 H   0  0  0  0  0  0  0  0  0  0  0  0
    0.3324    0.7957    3.9182 H   0  0  0  0  0  0  0  0  0  0  0  0
   -0.6964    0.6240    1.8933 H   0  0  0  0  0  0  0  0  0  0  0  0
   -2.2385    0.3675    3.8148 H   0  0  0  0  0  0  0  0  0  0  0  0
   -2.8191   -0.1744    2.2249 H   0  0  0  0  0  0  0  0  0  0  0  0
   -2.3570   -3.5666    3.0599 H   0  0  0  0  0  0  0  0  0  0  0  0
   -1.3429   -3.0833    4.4167 H   0  0  0  0  0  0  0  0  0  0  0  0
    0.3848   -2.4795    3.1185 H   0  0  0  0  0  0  0  0  0  0  0  0
   -0.2839   -3.5551    1.9072 H   0  0  0  0  0  0  0  0  0  0  0  0
   -0.1713   -1.1669   -3.5952 H   0  0  0  0  0  0  0  0  0  0  0  0
   -0.0781   -3.2712   -4.4178 H   0  0  0  0  0  0  0  0  0  0  0  0
   -0.7924   -4.9421   -4.1986 H   0  0  0  0  0  0  0  0  0  0  0  0
   -1.8587   -3.4910   -4.4334 H   0  0  0  0  0  0  0  0  0  0  0  0
   -1.4844   -5.5158   -1.6374 H   0  0  0  0  0  0  0  0  0  0  0  0
    0.7916    1.9204   -5.6064 H   0  0  0  0  0  0  0  0  0  0  0  0
    1.2030    4.0971   -4.5688 H   0  0  0  0  0  0  0  0  0  0  0  0
   -0.4837    2.1099    0.1481 H   0  0  0  0  0  0  0  0  0  0  0  0
    0.0919    4.0928    1.0537 H   0  0  0  0  0  0  0  0  0  0  0  0
   -0.0175    4.6203   -0.6465 H   0  0  0  0  0  0  0  0  0  0  0  0
    2.3469    4.7206    1.9053 H   0  0  0  0  0  0  0  0  0  0  0  0
    3.6009    3.8037    0.9744 H   0  0  0  0  0  0  0  0  0  0  0  0
    1.1512    2.6535    2.3153 H   0  0  0  0  0  0  0  0  0  0  0  0
    2.7820    1.9950    2.0359 H   0  0  0  0  0  0  0  0  0  0  0  0
    2.4430    1.8957   -0.2669 H   0  0  0  0  0  0  0  0  0  0  0  0
  1  2  1  0
  2  3  1  0
  3  4  1  0
  4  5  1  0
  5  6  1  0
  6  7  1  0
  7  8  1  0
  8  9  2  0
  9 10  1  0
 10 11  2  0
 11 12  1  0
 12 13  1  0
 13 14  1  0
 13 15  1  0
 15 16  2  0
 16 17  1  0
 10 18  1  0
 18 19  2  0
 19 20  1  0
 20 21  2  0
 21 22  1  0
 22 23  2  0
 23 24  1  0
 24 25  1  0
 25 26  1  0
 26 27  1  0
 27 28  1  0
 28 29  1  0
  7  2  1  0
 17  8  1  0
 23 18  1  0
 29 24  1  0
 17 12  2  0
  1 30  1  0
  1 31  1  0
  1 32  1  0
  2 33  1  6
  3 34  1  0
  3 35  1  0
  5 36  1  0
  5 37  1  0
  6 38  1  0
  6 39  1  0
 11 40  1  0
 14 41  1  0
 14 42  1  0
 14 43  1  0
 15 44  1  0
 20 45  1  0
 21 46  1  0
 24 47  1  0
 25 48  1  0
 25 49  1  0
 27 50  1  0
 27 51  1  0
 28 52  1  0
 28 53  1  0
 29 54  1  0
M  END
$$$$
[H]OC(=O)C([H])([H])Oc1c([H])c(C([H])([H])[H])c([H])c2c1c(C(=O)C(=O)N([H])[H])c(C([H])([H])C([H])([H])[H])n2C([H])([H])c1c([H])c([H])c([H])c([H])c1[H]
     RDKit          3D

 51 53  0  0  0  0  0  0  0  0999 V2000
    1.7187   -0.4236    3.4015 C   0  0  0  0  0  0  0  0  0  0  0  0
    1.6333   -1.4671    2.3391 C   0  0  0  0  0  0  0  0  0  0  0  0
    0.8435   -1.0334    1.1521 C   0  0  0  0  0  0  0  0  0  0  0  0
   -0.5396   -0.9327    1.1782 C   0  0  0  0  0  0  0  0  0  0  0  0
   -1.4422   -1.1780    2.2758 C   0  0  0  0  0  0  0  0  0  0  0  0
   -1.7455   -0.2381    3.0456 O   0  0  0  0  0  0  0  0  0  0  0  0
   -2.0364   -2.4907    2.5464 C   0  0  0  0  0  0  0  0  0  0  0  0
   -2.9203   -2.7043    3.6321 N   0  0  0  0  0  0  0  0  0  0  0  0
   -1.7659   -3.4752    1.8015 O   0  0  0  0  0  0  0  0  0  0  0  0
   -0.8945   -0.5394   -0.0916 C   0  0  0  0  0  0  0  0  0  0  0  0
   -2.1411   -0.2770   -0.6903 C   0  0  0  0  0  0  0  0  0  0  0  0
   -3.2255   -0.4336    0.1463 O   0  0  0  0  0  0  0  0  0  0  0  0
   -4.5666   -0.2380   -0.1366 C   0  0  0  0  0  0  0  0  0  0  0  0
   -4.9519    1.1387   -0.5057 C   0  0  0  0  0  0  0  0  0  0  0  0
   -6.2439    1.4202   -0.8775 O   0  0  0  0  0  0  0  0  0  0  0  0
   -4.1196    2.0755   -0.4894 O   0  0  0  0  0  0  0  0  0  0  0  0
   -2.2332    0.1024   -2.0129 C   0  0  0  0  0  0  0  0  0  0  0  0
   -1.1002    0.2350   -2.7829 C   0  0  0  0  0  0  0  0  0  0  0  0
   -1.2016    0.6501   -4.2277 C   0  0  0  0  0  0  0  0  0  0  0  0
    0.1086   -0.0238   -2.1843 C   0  0  0  0  0  0  0  0  0  0  0  0
    0.2346   -0.4063   -0.8601 C   0  0  0  0  0  0  0  0  0  0  0  0
    1.3032   -0.7172   -0.0685 N   0  0  0  0  0  0  0  0  0  0  0  0
    2.6473   -0.7013   -0.5514 C   0  0  0  0  0  0  0  0  0  0  0  0
    3.3840    0.5699   -0.3916 C   0  0  0  0  0  0  0  0  0  0  0  0
    3.3517    1.6286   -1.2619 C   0  0  0  0  0  0  0  0  0  0  0  0
    4.0932    2.7866   -1.0384 C   0  0  0  0  0  0  0  0  0  0  0  0
    4.8929    2.9152    0.0709 C   0  0  0  0  0  0  0  0  0  0  0  0
    4.9385    1.8639    0.9546 C   0  0  0  0  0  0  0  0  0  0  0  0
    4.2023    0.7236    0.7255 C   0  0  0  0  0  0  0  0  0  0  0  0
    1.0904    0.4524    3.0686 H   0  0  0  0  0  0  0  0  0  0  0  0
    1.3872   -0.7845    4.4020 H   0  0  0  0  0  0  0  0  0  0  0  0
    2.7756   -0.1110    3.5188 H   0  0  0  0  0  0  0  0  0  0  0  0
    2.6530   -1.7533    2.0105 H   0  0  0  0  0  0  0  0  0  0  0  0
    1.1913   -2.4098    2.7509 H   0  0  0  0  0  0  0  0  0  0  0  0
   -3.3059   -3.6495    3.8044 H   0  0  0  0  0  0  0  0  0  0  0  0
   -3.1587   -1.8889    4.2338 H   0  0  0  0  0  0  0  0  0  0  0  0
   -4.8478   -0.9480   -0.9531 H   0  0  0  0  0  0  0  0  0  0  0  0
   -5.1491   -0.5997    0.7589 H   0  0  0  0  0  0  0  0  0  0  0  0
   -6.8897    1.9812   -0.3577 H   0  0  0  0  0  0  0  0  0  0  0  0
   -3.1987    0.2878   -2.4626 H   0  0  0  0  0  0  0  0  0  0  0  0
   -0.3566    1.2636   -4.5428 H   0  0  0  0  0  0  0  0  0  0  0  0
   -1.2377   -0.2691   -4.8701 H   0  0  0  0  0  0  0  0  0  0  0  0
   -2.1668    1.1495   -4.3477 H   0  0  0  0  0  0  0  0  0  0  0  0
    0.9986    0.0768   -2.7932 H   0  0  0  0  0  0  0  0  0  0  0  0
    3.2688   -1.4890   -0.0647 H   0  0  0  0  0  0  0  0  0  0  0  0
    2.6268   -0.9292   -1.6474 H   0  0  0  0  0  0  0  0  0  0  0  0
    2.7410    1.5521   -2.1427 H   0  0  0  0  0  0  0  0  0  0  0  0
    4.0279    3.5859   -1.7566 H   0  0  0  0  0  0  0  0  0  0  0  0
    5.4886    3.7869    0.2961 H   0  0  0  0  0  0  0  0  0  0  0  0
    5.5673    1.9540    1.8355 H   0  0  0  0  0  0  0  0  0  0  0  0
    4.2708   -0.0883    1.4455 H   0  0  0  0  0  0  0  0  0  0  0  0
  1  2  1  0
  2  3  1  0
  3  4  2  0
  4  5  1  0
  5  6  2  0
  5  7  1  0
  7  8  1  0
  7  9  2  0
  4 10  1  0
 10 11  2  0
 11 12  1  0
 12 13  1  0
 13 14  1  0
 14 15  1  0
 14 16  2  0
 11 17  1  0
 17 18  2  0
 18 19  1  0
 18 20  1  0
 20 21  2  0
 21 22  1  0
 22 23  1  0
 23 24  1  0
 24 25  2  0
 25 26  1  0
 26 27  2  0
 27 28  1  0
 28 29  2  0
 22  3  1  0
 29 24  1  0
 21 10  1  0
  1 30  1  0
  1 31  1  0
  1 32  1  0
  2 33  1  0
  2 34  1  0
  8 35  1  0
  8 36  1  0
 13 37  1  0
 13 38  1  0
 15 39  1  0
 17 40  1  0
 19 41  1  0
 19 42  1  0
 19 43  1  0
 20 44  1  0
 23 45  1  0
 23 46  1  0
 25 47  1  0
 26 48  1  0
 27 49  1  0
 28 50  1  0
 29 51  1  0
M  END
$$$$
[H]c1nc2c([H])c([H])c(-c3c([H])c([H])c(OC([H])([H])C([H])([H])N4C([H])([H])C([H])([H])C([H])([H])C4([H])[H])c([H])c3[H])c([H])c2c(N([H])c2c([H])c([H])c(F)c([H])c2[H])c1C#N
     RDKit          3D

 59 63  0  0  0  0  0  0  0  0999 V2000
    4.7836    3.7290    3.3238 F   0  0  0  0  0  0  0  0  0  0  0  0
    4.7956    2.5125    2.7544 C   0  0  0  0  0  0  0  0  0  0  0  0
    4.5398    1.3357    3.4362 C   0  0  0  0  0  0  0  0  0  0  0  0
    4.5579    0.1043    2.8321 C   0  0  0  0  0  0  0  0  0  0  0  0
    4.8351   -0.0005    1.5101 C   0  0  0  0  0  0  0  0  0  0  0  0
    4.8815   -1.2335    0.7991 N   0  0  0  0  0  0  0  0  0  0  0  0
    5.1631   -1.2867   -0.5873 C   0  0  0  0  0  0  0  0  0  0  0  0
    6.4403   -1.3884   -1.0934 C   0  0  0  0  0  0  0  0  0  0  0  0
    6.7033   -1.4406   -2.4459 C   0  0  0  0  0  0  0  0  0  0  0  0
    5.6651   -1.3896   -3.3010 N   0  0  0  0  0  0  0  0  0  0  0  0
    4.4119   -1.2911   -2.8513 C   0  0  0  0  0  0  0  0  0  0  0  0
    3.3789   -1.2446   -3.7545 C   0  0  0  0  0  0  0  0  0  0  0  0
    2.1053   -1.1469   -3.2718 C   0  0  0  0  0  0  0  0  0  0  0  0
    1.7831   -1.0911   -1.9271 C   0  0  0  0  0  0  0  0  0  0  0  0
    2.8385   -1.1393   -1.0399 C   0  0  0  0  0  0  0  0  0  0  0  0
    4.1337   -1.2376   -1.4899 C   0  0  0  0  0  0  0  0  0  0  0  0
    0.3984   -0.9904   -1.4799 C   0  0  0  0  0  0  0  0  0  0  0  0
   -0.5367   -0.3228   -2.2378 C   0  0  0  0  0  0  0  0  0  0  0  0
   -1.8625   -0.2125   -1.8356 C   0  0  0  0  0  0  0  0  0  0  0  0
   -2.3081   -0.7677   -0.6544 C   0  0  0  0  0  0  0  0  0  0  0  0
   -3.6247   -0.6698   -0.2345 O   0  0  0  0  0  0  0  0  0  0  0  0
   -4.6330   -0.0168   -0.9357 C   0  0  0  0  0  0  0  0  0  0  0  0
   -5.9650   -0.0688   -0.2360 C   0  0  0  0  0  0  0  0  0  0  0  0
   -5.9905    0.5182    1.0478 N   0  0  0  0  0  0  0  0  0  0  0  0
   -5.8456    1.9232    1.1412 C   0  0  0  0  0  0  0  0  0  0  0  0
   -7.1460    2.4093    1.7595 C   0  0  0  0  0  0  0  0  0  0  0  0
   -7.9290    1.1709    2.1208 C   0  0  0  0  0  0  0  0  0  0  0  0
   -6.9550    0.0335    1.9651 C   0  0  0  0  0  0  0  0  0  0  0  0
   -1.3597   -1.4435    0.1121 C   0  0  0  0  0  0  0  0  0  0  0  0
   -0.0453   -1.5496   -0.2926 C   0  0  0  0  0  0  0  0  0  0  0  0
    7.5298   -1.4411   -0.1594 C   0  0  0  0  0  0  0  0  0  0  0  0
    8.4072   -1.4928    0.5747 N   0  0  0  0  0  0  0  0  0  0  0  0
    5.0960    1.1668    0.8010 C   0  0  0  0  0  0  0  0  0  0  0  0
    5.0787    2.4121    1.4069 C   0  0  0  0  0  0  0  0  0  0  0  0
    4.3190    1.4445    4.5038 H   0  0  0  0  0  0  0  0  0  0  0  0
    4.3486   -0.7643    3.4271 H   0  0  0  0  0  0  0  0  0  0  0  0
    4.7065   -2.1403    1.2924 H   0  0  0  0  0  0  0  0  0  0  0  0
    7.7162   -1.5197   -2.8050 H   0  0  0  0  0  0  0  0  0  0  0  0
    3.6185   -1.2870   -4.8028 H   0  0  0  0  0  0  0  0  0  0  0  0
    1.2905   -1.1103   -3.9813 H   0  0  0  0  0  0  0  0  0  0  0  0
    2.6535   -1.1002    0.0029 H   0  0  0  0  0  0  0  0  0  0  0  0
   -0.2101    0.1290   -3.1842 H   0  0  0  0  0  0  0  0  0  0  0  0
   -2.5924    0.3182   -2.4438 H   0  0  0  0  0  0  0  0  0  0  0  0
   -4.3617    1.0095   -1.2570 H   0  0  0  0  0  0  0  0  0  0  0  0
   -4.7866   -0.5862   -1.9002 H   0  0  0  0  0  0  0  0  0  0  0  0
   -6.2817   -1.1211   -0.1579 H   0  0  0  0  0  0  0  0  0  0  0  0
   -6.7023    0.4361   -0.8819 H   0  0  0  0  0  0  0  0  0  0  0  0
   -4.9606    2.2979    1.6679 H   0  0  0  0  0  0  0  0  0  0  0  0
   -5.8440    2.3330    0.0880 H   0  0  0  0  0  0  0  0  0  0  0  0
   -7.7535    3.0218    1.0569 H   0  0  0  0  0  0  0  0  0  0  0  0
   -6.9191    3.0460    2.6431 H   0  0  0  0  0  0  0  0  0  0  0  0
   -8.8047    1.0252    1.4325 H   0  0  0  0  0  0  0  0  0  0  0  0
   -8.2703    1.2905    3.1732 H   0  0  0  0  0  0  0  0  0  0  0  0
   -6.5636   -0.2839    2.9503 H   0  0  0  0  0  0  0  0  0  0  0  0
   -7.5024   -0.8123    1.4736 H   0  0  0  0  0  0  0  0  0  0  0  0
   -1.7107   -1.8852    1.0515 H   0  0  0  0  0  0  0  0  0  0  0  0
    0.6820   -2.0729    0.3042 H   0  0  0  0  0  0  0  0  0  0  0  0
    5.3185    1.0903   -0.2573 H   0  0  0  0  0  0  0  0  0  0  0  0
    5.2848    3.3332    0.8467 H   0  0  0  0  0  0  0  0  0  0  0  0
  1  2  1  0
  2  3  2  0
  3  4  1  0
  4  5  2  0
  5  6  1  0
  6  7  1  0
  7  8  2  0
  8  9  1  0
  9 10  2  0
 10 11  1  0
 11 12  2  0
 12 13  1  0
 13 14  2  0
 14 15  1  0
 15 16  2  0
 14 17  1  0
 17 18  2  0
 18 19  1  0
 19 20  2  0
 20 21  1  0
 21 22  1  0
 22 23  1  0
 23 24  1  0
 24 25  1  0
 25 26  1  0
 26 27  1  0
 27 28  1  0
 20 29  1  0
 29 30  2  0
  8 31  1  0
 31 32  3  0
  5 33  1  0
 33 34  2  0
 34  2  1  0
 16  7  1  0
 30 17  1  0
 16 11  1  0
 28 24  1  0
  3 35  1  0
  4 36  1  0
  6 37  1  0
  9 38  1  0
 12 39  1  0
 13 40  1  0
 15 41  1  0
 18 42  1  0
 19 43  1  0
 22 44  1  0
 22 45  1  0
 23 46  1  0
 23 47  1  0
 25 48  1  0
 25 49  1  0
 26 50  1  0
 26 51  1  0
 27 52  1  0
 27 53  1  0
 28 54  1  0
 28 55  1  0
 29 56  1  0
 30 57  1  0
 33 58  1  0
 34 59  1  0
M  END
$$$$
[H]OC([H])([H])[C@@]1(O[H])C([H])([H])C([H])([H])[C@@]2([H])O[C@]1(C([H])([H])[H])n1c3c([H])c([H])c([H])c([H])c3c3c4c(c5c6c([H])c([H])c([H])c([H])c6n2c5c31)C(=O)N([H])C4([H])[H]
     RDKit          3D

 57 64  0  0  0  0  0  0  0  0999 V2000
   -2.4153    0.9350   -2.2329 C   0  0  0  0  0  0  0  0  0  0  0  0
   -1.8423    0.1659   -1.0284 C   0  0  2  0  0  0  0  0  0  0  0  0
   -1.3237   -0.9588   -1.6613 O   0  0  0  0  0  0  0  0  0  0  0  0
   -0.8847   -1.9995   -0.9640 C   0  0  2  0  0  0  0  0  0  0  0  0
   -1.6658   -2.3839    0.2604 C   0  0  0  0  0  0  0  0  0  0  0  0
   -3.0126   -1.7253    0.1551 C   0  0  0  0  0  0  0  0  0  0  0  0
   -2.8663   -0.2040   -0.0219 C   0  0  1  0  0  0  0  0  0  0  0  0
   -2.5785    0.2751    1.2587 O   0  0  0  0  0  0  0  0  0  0  0  0
   -4.2842    0.2199   -0.3574 C   0  0  0  0  0  0  0  0  0  0  0  0
   -5.1125   -0.3669    0.6283 O   0  0  0  0  0  0  0  0  0  0  0  0
    0.5087   -1.8174   -0.5120 N   0  0  0  0  0  0  0  0  0  0  0  0
    1.4080   -2.7690   -0.3615 C   0  0  0  0  0  0  0  0  0  0  0  0
    1.2954   -4.1167   -0.5991 C   0  0  0  0  0  0  0  0  0  0  0  0
    2.3827   -4.9289   -0.3667 C   0  0  0  0  0  0  0  0  0  0  0  0
    3.5668   -4.4134    0.0950 C   0  0  0  0  0  0  0  0  0  0  0  0
    3.6915   -3.0389    0.3405 C   0  0  0  0  0  0  0  0  0  0  0  0
    2.6126   -2.2344    0.1097 C   0  0  0  0  0  0  0  0  0  0  0  0
    2.3910   -0.8705    0.2412 C   0  0  0  0  0  0  0  0  0  0  0  0
    3.1777    0.1779    0.6760 C   0  0  0  0  0  0  0  0  0  0  0  0
    4.5402    0.3159    1.1468 C   0  0  0  0  0  0  0  0  0  0  0  0
    5.4269   -0.5420    1.2937 O   0  0  0  0  0  0  0  0  0  0  0  0
    4.7317    1.7130    1.4447 N   0  0  0  0  0  0  0  0  0  0  0  0
    3.5455    2.4534    1.1810 C   0  0  0  0  0  0  0  0  0  0  0  0
    2.5699    1.4274    0.6862 C   0  0  0  0  0  0  0  0  0  0  0  0
    1.2644    1.6331    0.2903 C   0  0  0  0  0  0  0  0  0  0  0  0
    0.4619    2.7337    0.2223 C   0  0  0  0  0  0  0  0  0  0  0  0
    0.7106    4.0375    0.5469 C   0  0  0  0  0  0  0  0  0  0  0  0
   -0.2966    4.9627    0.3996 C   0  0  0  0  0  0  0  0  0  0  0  0
   -1.5320    4.5747   -0.0671 C   0  0  0  0  0  0  0  0  0  0  0  0
   -1.7479    3.2471   -0.3857 C   0  0  0  0  0  0  0  0  0  0  0  0
   -0.7705    2.2890   -0.2554 C   0  0  0  0  0  0  0  0  0  0  0  0
   -0.7426    0.9523   -0.4835 N   0  0  0  0  0  0  0  0  0  0  0  0
    0.5273    0.5727   -0.1323 C   0  0  0  0  0  0  0  0  0  0  0  0
    1.0757   -0.6672   -0.1576 C   0  0  0  0  0  0  0  0  0  0  0  0
   -1.7289    1.7462   -2.5440 H   0  0  0  0  0  0  0  0  0  0  0  0
   -3.4579    1.2374   -2.0986 H   0  0  0  0  0  0  0  0  0  0  0  0
   -2.4618    0.2741   -3.1560 H   0  0  0  0  0  0  0  0  0  0  0  0
   -0.8512   -2.8859   -1.6297 H   0  0  0  0  0  0  0  0  0  0  0  0
   -1.1690   -2.0956    1.2029 H   0  0  0  0  0  0  0  0  0  0  0  0
   -1.8453   -3.4778    0.3052 H   0  0  0  0  0  0  0  0  0  0  0  0
   -3.6469   -1.8833    1.0386 H   0  0  0  0  0  0  0  0  0  0  0  0
   -3.5044   -2.1045   -0.7635 H   0  0  0  0  0  0  0  0  0  0  0  0
   -2.8659   -0.3211    1.9746 H   0  0  0  0  0  0  0  0  0  0  0  0
   -4.6248   -0.2399   -1.3168 H   0  0  0  0  0  0  0  0  0  0  0  0
   -4.4491    1.2932   -0.2919 H   0  0  0  0  0  0  0  0  0  0  0  0
   -4.9912    0.2076    1.4287 H   0  0  0  0  0  0  0  0  0  0  0  0
    0.3670   -4.5173   -0.9606 H   0  0  0  0  0  0  0  0  0  0  0  0
    2.3239   -6.0075   -0.5466 H   0  0  0  0  0  0  0  0  0  0  0  0
    4.4324   -5.0205    0.2859 H   0  0  0  0  0  0  0  0  0  0  0  0
    4.6202   -2.6697    0.6967 H   0  0  0  0  0  0  0  0  0  0  0  0
    5.6243    2.1040    1.8026 H   0  0  0  0  0  0  0  0  0  0  0  0
    3.1599    2.9102    2.1335 H   0  0  0  0  0  0  0  0  0  0  0  0
    3.7525    3.2234    0.4086 H   0  0  0  0  0  0  0  0  0  0  0  0
    1.6727    4.3457    0.9118 H   0  0  0  0  0  0  0  0  0  0  0  0
   -0.1218    5.9883    0.6479 H   0  0  0  0  0  0  0  0  0  0  0  0
   -2.3370    5.2766   -0.1916 H   0  0  0  0  0  0  0  0  0  0  0  0
   -2.7107    2.9664   -0.7272 H   0  0  0  0  0  0  0  0  0  0  0  0
  2  1  1  6
  2  3  1  0
  3  4  1  0
  4  5  1  0
  5  6  1  0
  6  7  1  0
  7  8  1  1
  7  9  1  0
  9 10  1  0
  4 11  1  0
 11 12  1  0
 12 13  2  0
 13 14  1  0
 14 15  2  0
 15 16  1  0
 16 17  2  0
 17 18  1  0
 18 19  2  0
 19 20  1  0
 20 21  2  0
 20 22  1  0
 22 23  1  0
 23 24  1  0
 24 25  2  0
 25 26  1  0
 26 27  2  0
 27 28  1  0
 28 29  2  0
 29 30  1  0
 30 31  2  0
 31 32  1  0
 32 33  1  0
 33 34  2  0
  7  2  1  0
 34 11  1  0
 32  2  1  0
 17 12  1  0
 34 18  1  0
 24 19  1  0
 33 25  1  0
 31 26  1  0
  1 35  1  0
  1 36  1  0
  1 37  1  0
  4 38  1  6
  5 39  1  0
  5 40  1  0
  6 41  1  0
  6 42  1  0
  8 43  1  0
  9 44  1  0
  9 45  1  0
 10 46  1  0
 13 47  1  0
 14 48  1  0
 15 49  1  0
 16 50  1  0
 22 51  1  0
 23 52  1  0
 23 53  1  0
 27 54  1  0
 28 55  1  0
 29 56  1  0
 30 57  1  0
M  END
$$$$
[H]C1=C(c2c([H])n([H])c3c([H])c([H])c(OC([H])([H])[H])c([H])c23)C([H])([H])C([H])([H])N(C([H])([H])C([H])([H])C([H])([H])C([H])([H])N([H])S(=O)(=O)c2c([H])c([H])c([H])c(OC([H])([H])[H])c2OC([H])([H])[H])C1([H])[H]
     RDKit          3D

 68 71  0  0  0  0  0  0  0  0999 V2000
  -10.2653    0.3933    1.1692 C   0  0  0  0  0  0  0  0  0  0  0  0
   -8.9173    0.3657    0.8607 O   0  0  0  0  0  0  0  0  0  0  0  0
   -8.2241    1.2688    0.0853 C   0  0  0  0  0  0  0  0  0  0  0  0
   -8.8464    2.3489   -0.4920 C   0  0  0  0  0  0  0  0  0  0  0  0
   -8.0687    3.1929   -1.2474 C   0  0  0  0  0  0  0  0  0  0  0  0
   -6.7082    2.9866   -1.4355 C   0  0  0  0  0  0  0  0  0  0  0  0
   -5.7646    3.6424   -2.1121 N   0  0  0  0  0  0  0  0  0  0  0  0
   -4.5817    3.0400   -1.9948 C   0  0  0  0  0  0  0  0  0  0  0  0
   -4.7645    1.9086   -1.1829 C   0  0  0  0  0  0  0  0  0  0  0  0
   -3.6647    1.0195   -0.8695 C   0  0  0  0  0  0  0  0  0  0  0  0
   -3.6078    0.0080   -0.0705 C   0  0  0  0  0  0  0  0  0  0  0  0
   -2.4349   -0.8728    0.2075 C   0  0  0  0  0  0  0  0  0  0  0  0
   -1.2701   -0.6293   -0.5552 N   0  0  0  0  0  0  0  0  0  0  0  0
   -0.2533    0.1195    0.1000 C   0  0  0  0  0  0  0  0  0  0  0  0
    0.4327   -0.5424    1.2338 C   0  0  0  0  0  0  0  0  0  0  0  0
    1.1458   -1.8063    0.9396 C   0  0  0  0  0  0  0  0  0  0  0  0
    2.2367   -1.7317   -0.0714 C   0  0  0  0  0  0  0  0  0  0  0  0
    3.3082   -0.7999    0.2892 N   0  0  0  0  0  0  0  0  0  0  0  0
    4.4677   -0.8711   -1.0146 S   0  0  0  0  0  0  0  0  0  0  0  0
    3.9452   -1.7094   -2.1457 O   0  0  0  0  0  0  0  0  0  0  0  0
    4.6263    0.5264   -1.6096 O   0  0  0  0  0  0  0  0  0  0  0  0
    6.0047   -1.4768   -0.4807 C   0  0  0  0  0  0  0  0  0  0  0  0
    6.3891   -2.7419   -0.9293 C   0  0  0  0  0  0  0  0  0  0  0  0
    7.5604   -3.3223   -0.5536 C   0  0  0  0  0  0  0  0  0  0  0  0
    8.3951   -2.6087    0.3142 C   0  0  0  0  0  0  0  0  0  0  0  0
    8.0415   -1.3612    0.7708 C   0  0  0  0  0  0  0  0  0  0  0  0
    8.8643   -0.6777    1.6150 O   0  0  0  0  0  0  0  0  0  0  0  0
   10.0933   -1.1131    2.1045 C   0  0  0  0  0  0  0  0  0  0  0  0
    6.8405   -0.7954    0.3694 C   0  0  0  0  0  0  0  0  0  0  0  0
    6.5437    0.4405    0.8487 O   0  0  0  0  0  0  0  0  0  0  0  0
    5.8967    0.8338    2.0031 C   0  0  0  0  0  0  0  0  0  0  0  0
   -1.5905    0.0096   -1.8322 C   0  0  0  0  0  0  0  0  0  0  0  0
   -2.3543    1.2933   -1.5989 C   0  0  0  0  0  0  0  0  0  0  0  0
   -6.1006    1.8795   -0.8359 C   0  0  0  0  0  0  0  0  0  0  0  0
   -6.8477    1.0248   -0.0818 C   0  0  0  0  0  0  0  0  0  0  0  0
  -10.7878    1.2542    0.7433 H   0  0  0  0  0  0  0  0  0  0  0  0
  -10.3391    0.4057    2.3000 H   0  0  0  0  0  0  0  0  0  0  0  0
  -10.7472   -0.5540    0.8287 H   0  0  0  0  0  0  0  0  0  0  0  0
   -9.8915    2.5896   -0.4015 H   0  0  0  0  0  0  0  0  0  0  0  0
   -8.5118    4.0758   -1.7353 H   0  0  0  0  0  0  0  0  0  0  0  0
   -5.9746    4.5290   -2.6610 H   0  0  0  0  0  0  0  0  0  0  0  0
   -3.6673    3.4045   -2.4642 H   0  0  0  0  0  0  0  0  0  0  0  0
   -4.4800   -0.2526    0.4901 H   0  0  0  0  0  0  0  0  0  0  0  0
   -2.2699   -0.7619    1.3212 H   0  0  0  0  0  0  0  0  0  0  0  0
   -2.7394   -1.9436    0.0054 H   0  0  0  0  0  0  0  0  0  0  0  0
    0.5292    0.4004   -0.6627 H   0  0  0  0  0  0  0  0  0  0  0  0
   -0.7064    1.1076    0.4005 H   0  0  0  0  0  0  0  0  0  0  0  0
    1.1422    0.1318    1.7742 H   0  0  0  0  0  0  0  0  0  0  0  0
   -0.3573   -0.7797    2.0077 H   0  0  0  0  0  0  0  0  0  0  0  0
    1.6328   -2.1297    1.9077 H   0  0  0  0  0  0  0  0  0  0  0  0
    0.4929   -2.6570    0.6693 H   0  0  0  0  0  0  0  0  0  0  0  0
    1.8509   -1.5055   -1.0799 H   0  0  0  0  0  0  0  0  0  0  0  0
    2.7121   -2.7370   -0.1185 H   0  0  0  0  0  0  0  0  0  0  0  0
    3.7976   -1.1901    1.1433 H   0  0  0  0  0  0  0  0  0  0  0  0
    5.7247   -3.2705   -1.5982 H   0  0  0  0  0  0  0  0  0  0  0  0
    7.8144   -4.2982   -0.9244 H   0  0  0  0  0  0  0  0  0  0  0  0
    9.3297   -3.0547    0.6232 H   0  0  0  0  0  0  0  0  0  0  0  0
   10.7672   -1.3363    1.2247 H   0  0  0  0  0  0  0  0  0  0  0  0
   10.6140   -0.3575    2.7222 H   0  0  0  0  0  0  0  0  0  0  0  0
    9.9428   -2.0841    2.6132 H   0  0  0  0  0  0  0  0  0  0  0  0
    5.3540    0.0234    2.5353 H   0  0  0  0  0  0  0  0  0  0  0  0
    5.2056    1.6934    1.8852 H   0  0  0  0  0  0  0  0  0  0  0  0
    6.6795    1.1828    2.7396 H   0  0  0  0  0  0  0  0  0  0  0  0
   -0.6385    0.3012   -2.3181 H   0  0  0  0  0  0  0  0  0  0  0  0
   -2.1658   -0.6364   -2.4944 H   0  0  0  0  0  0  0  0  0  0  0  0
   -2.6496    1.6603   -2.6043 H   0  0  0  0  0  0  0  0  0  0  0  0
   -1.7865    2.0535   -1.0364 H   0  0  0  0  0  0  0  0  0  0  0  0
   -6.4042    0.1786    0.3668 H   0  0  0  0  0  0  0  0  0  0  0  0
  1  2  1  0
  2  3  1  0
  3  4  2  0
  4  5  1  0
  5  6  2  0
  6  7  1  0
  7  8  1  0
  8  9  2  0
  9 10  1  0
 10 11  2  0
 11 12  1  0
 12 13  1  0
 13 14  1  0
 14 15  1  0
 15 16  1  0
 16 17  1  0
 17 18  1  0
 18 19  1  0
 19 20  2  0
 19 21  2  0
 19 22  1  0
 22 23  2  0
 23 24  1  0
 24 25  2  0
 25 26  1  0
 26 27  1  0
 27 28  1  0
 26 29  2  0
 29 30  1  0
 30 31  1  0
 13 32  1  0
 32 33  1  0
  9 34  1  0
 34 35  2  0
 35  3  1  0
 34  6  1  0
 33 10  1  0
 29 22  1  0
  1 36  1  0
  1 37  1  0
  1 38  1  0
  4 39  1  0
  5 40  1  0
  7 41  1  0
  8 42  1  0
 11 43  1  0
 12 44  1  0
 12 45  1  0
 14 46  1  0
 14 47  1  0
 15 48  1  0
 15 49  1  0
 16 50  1  0
 16 51  1  0
 17 52  1  0
 17 53  1  0
 18 54  1  0
 23 55  1  0
 24 56  1  0
 25 57  1  0
 28 58  1  0
 28 59  1  0
 28 60  1  0
 31 61  1  0
 31 62  1  0
 31 63  1  0
 32 64  1  0
 32 65  1  0
 33 66  1  0
 33 67  1  0
 35 68  1  0
M  END
$$$$
[H]c1nc(N([H])c2c([H])c([H])c(-c3c([H])c([H])c([H])c([H])c3[H])c([H])c2Cl)c2c([H])c([H])c(C(=O)N([H])[H])c(=O)n2n1
     RDKit          3D

 42 45  0  0  0  0  0  0  0  0999 V2000
   -7.7590    1.2521    0.8782 N   0  0  0  0  0  0  0  0  0  0  0  0
   -7.2217    0.0839    0.2839 C   0  0  0  0  0  0  0  0  0  0  0  0
   -8.0312   -0.7807   -0.1209 O   0  0  0  0  0  0  0  0  0  0  0  0
   -5.7804   -0.1236    0.1394 C   0  0  0  0  0  0  0  0  0  0  0  0
   -4.9176    0.8497    0.5957 C   0  0  0  0  0  0  0  0  0  0  0  0
   -3.5408    0.6697    0.4671 C   0  0  0  0  0  0  0  0  0  0  0  0
   -3.0759   -0.4788   -0.1139 C   0  0  0  0  0  0  0  0  0  0  0  0
   -1.6797   -0.6825   -0.2540 C   0  0  0  0  0  0  0  0  0  0  0  0
   -0.7857    0.2890    0.1981 N   0  0  0  0  0  0  0  0  0  0  0  0
    0.6215    0.1946    0.1148 C   0  0  0  0  0  0  0  0  0  0  0  0
    1.3503   -0.8410   -0.3990 C   0  0  0  0  0  0  0  0  0  0  0  0
    2.7539   -0.8267   -0.4284 C   0  0  0  0  0  0  0  0  0  0  0  0
    3.4628    0.2399    0.0630 C   0  0  0  0  0  0  0  0  0  0  0  0
    2.7217    1.2752    0.5768 C   0  0  0  0  0  0  0  0  0  0  0  0
    1.3547    1.2835    0.6161 C   0  0  0  0  0  0  0  0  0  0  0  0
    0.5355    2.6879    1.3078 Cl  0  0  0  0  0  0  0  0  0  0  0  0
    4.9234    0.2819    0.0466 C   0  0  0  0  0  0  0  0  0  0  0  0
    5.6658   -0.3266   -0.9454 C   0  0  0  0  0  0  0  0  0  0  0  0
    7.0440   -0.2729   -0.9391 C   0  0  0  0  0  0  0  0  0  0  0  0
    7.6716    0.4046    0.0835 C   0  0  0  0  0  0  0  0  0  0  0  0
    6.9769    1.0356    1.1081 C   0  0  0  0  0  0  0  0  0  0  0  0
    5.5967    0.9489    1.0501 C   0  0  0  0  0  0  0  0  0  0  0  0
   -1.3414   -1.8130   -0.8218 N   0  0  0  0  0  0  0  0  0  0  0  0
   -2.1899   -2.7374   -1.2543 C   0  0  0  0  0  0  0  0  0  0  0  0
   -3.5000   -2.5221   -1.1110 N   0  0  0  0  0  0  0  0  0  0  0  0
   -3.9539   -1.4133   -0.5506 N   0  0  0  0  0  0  0  0  0  0  0  0
   -5.2945   -1.2734   -0.4429 C   0  0  0  0  0  0  0  0  0  0  0  0
   -6.0939   -2.1602   -0.8585 O   0  0  0  0  0  0  0  0  0  0  0  0
   -8.0167    2.0919    0.3154 H   0  0  0  0  0  0  0  0  0  0  0  0
   -7.9265    1.3373    1.9089 H   0  0  0  0  0  0  0  0  0  0  0  0
   -5.2389    1.7620    1.0562 H   0  0  0  0  0  0  0  0  0  0  0  0
   -2.8712    1.4259    0.8221 H   0  0  0  0  0  0  0  0  0  0  0  0
   -1.1207    1.1834    0.6456 H   0  0  0  0  0  0  0  0  0  0  0  0
    0.8749   -1.7293   -0.8103 H   0  0  0  0  0  0  0  0  0  0  0  0
    3.2765   -1.6737   -0.8468 H   0  0  0  0  0  0  0  0  0  0  0  0
    3.2834    2.1247    0.9681 H   0  0  0  0  0  0  0  0  0  0  0  0
    5.1319   -0.8459   -1.7258 H   0  0  0  0  0  0  0  0  0  0  0  0
    7.6351   -0.7548   -1.7253 H   0  0  0  0  0  0  0  0  0  0  0  0
    8.7498    0.4750    0.1332 H   0  0  0  0  0  0  0  0  0  0  0  0
    7.4893    1.5687    1.9119 H   0  0  0  0  0  0  0  0  0  0  0  0
    5.0034    1.4227    1.8231 H   0  0  0  0  0  0  0  0  0  0  0  0
   -1.7835   -3.6321   -1.7076 H   0  0  0  0  0  0  0  0  0  0  0  0
  1  2  1  0
  2  3  2  0
  2  4  1  0
  4  5  2  0
  5  6  1  0
  6  7  2  0
  7  8  1  0
  8  9  1  0
  9 10  1  0
 10 11  2  0
 11 12  1  0
 12 13  2  0
 13 14  1  0
 14 15  2  0
 15 16  1  0
 13 17  1  0
 17 18  2  0
 18 19  1  0
 19 20  2  0
 20 21  1  0
 21 22  2  0
  8 23  2  0
 23 24  1  0
 24 25  2  0
 25 26  1  0
 26 27  1  0
 27 28  2  0
 27  4  1  0
 26  7  1  0
 15 10  1  0
 22 17  1  0
  1 29  1  0
  1 30  1  0
  5 31  1  0
  6 32  1  0
  9 33  1  0
 11 34  1  0
 12 35  1  0
 14 36  1  0
 18 37  1  0
 19 38  1  0
 20 39  1  0
 21 40  1  0
 22 41  1  0
 24 42  1  0
M  END
$$$$
[H]c1c(OC([H])([H])[H])c(OC([H])([H])[H])c([H])c2c1OC([H])([H])C([H])([H])C2([H])C([H])([H])N1C([H])([H])C([H])([H])C([H])(C(=O)c2c([H])c([H])c(C([H])([H])[H])c(C([H])([H])[H])c2[H])C([H])([H])C1([H])[H]
     RDKit          3D

 64 67  0  0  0  0  0  0  0  0999 V2000
   -8.5854    1.1619    1.0560 C   0  0  0  0  0  0  0  0  0  0  0  0
   -7.9340    0.7623   -0.1347 O   0  0  0  0  0  0  0  0  0  0  0  0
   -6.5965    0.3821   -0.0226 C   0  0  0  0  0  0  0  0  0  0  0  0
   -5.9336    0.3866    1.1911 C   0  0  0  0  0  0  0  0  0  0  0  0
   -4.6099    0.0073    1.2808 C   0  0  0  0  0  0  0  0  0  0  0  0
   -3.8966   -0.0126    2.4516 O   0  0  0  0  0  0  0  0  0  0  0  0
   -2.7875   -0.8284    2.6526 C   0  0  0  0  0  0  0  0  0  0  0  0
   -2.5188   -1.6893    1.4579 C   0  0  0  0  0  0  0  0  0  0  0  0
   -2.5722   -0.7817    0.2120 C   0  0  0  0  0  0  0  0  0  0  0  0
   -1.6682    0.4013    0.4183 C   0  0  0  0  0  0  0  0  0  0  0  0
   -0.3071   -0.0753    0.6250 N   0  0  0  0  0  0  0  0  0  0  0  0
    0.5303    1.0372    1.0877 C   0  0  0  0  0  0  0  0  0  0  0  0
    1.9943    0.7058    0.7759 C   0  0  0  0  0  0  0  0  0  0  0  0
    2.2371    0.7842   -0.6950 C   0  0  0  0  0  0  0  0  0  0  0  0
    0.9684    0.3878   -1.4465 C   0  0  0  0  0  0  0  0  0  0  0  0
    0.2570   -0.6450   -0.5855 C   0  0  0  0  0  0  0  0  0  0  0  0
    3.3460   -0.0871   -1.1084 C   0  0  0  0  0  0  0  0  0  0  0  0
    3.1343   -1.1116   -1.8589 O   0  0  0  0  0  0  0  0  0  0  0  0
    4.7265    0.1282   -0.7084 C   0  0  0  0  0  0  0  0  0  0  0  0
    5.1562    1.2235    0.0038 C   0  0  0  0  0  0  0  0  0  0  0  0
    6.4792    1.4092    0.3965 C   0  0  0  0  0  0  0  0  0  0  0  0
    7.4128    0.4386    0.0508 C   0  0  0  0  0  0  0  0  0  0  0  0
    8.8321    0.5955    0.4485 C   0  0  0  0  0  0  0  0  0  0  0  0
    7.0257   -0.6825   -0.6679 C   0  0  0  0  0  0  0  0  0  0  0  0
    8.0452   -1.7160   -1.0333 C   0  0  0  0  0  0  0  0  0  0  0  0
    5.7144   -0.8020   -1.0203 C   0  0  0  0  0  0  0  0  0  0  0  0
   -4.0080   -0.3695    0.0843 C   0  0  0  0  0  0  0  0  0  0  0  0
   -4.6477   -0.3805   -1.1299 C   0  0  0  0  0  0  0  0  0  0  0  0
   -5.9874    0.0037   -1.2076 C   0  0  0  0  0  0  0  0  0  0  0  0
   -6.6921    0.0107   -2.3977 O   0  0  0  0  0  0  0  0  0  0  0  0
   -6.0465   -0.3984   -3.5862 C   0  0  0  0  0  0  0  0  0  0  0  0
   -8.4494    0.4205    1.8623 H   0  0  0  0  0  0  0  0  0  0  0  0
   -9.6544    1.4186    0.8926 H   0  0  0  0  0  0  0  0  0  0  0  0
   -8.0814    2.1230    1.3821 H   0  0  0  0  0  0  0  0  0  0  0  0
   -6.4465    0.6921    2.1031 H   0  0  0  0  0  0  0  0  0  0  0  0
   -3.0900   -1.5490    3.4747 H   0  0  0  0  0  0  0  0  0  0  0  0
   -1.8811   -0.2600    2.9771 H   0  0  0  0  0  0  0  0  0  0  0  0
   -1.4819   -2.0713    1.5262 H   0  0  0  0  0  0  0  0  0  0  0  0
   -3.2203   -2.5231    1.3469 H   0  0  0  0  0  0  0  0  0  0  0  0
   -2.3478   -1.3609   -0.6824 H   0  0  0  0  0  0  0  0  0  0  0  0
   -2.0028    0.9912    1.2919 H   0  0  0  0  0  0  0  0  0  0  0  0
   -1.7065    1.0924   -0.4706 H   0  0  0  0  0  0  0  0  0  0  0  0
    0.2246    2.0003    0.6645 H   0  0  0  0  0  0  0  0  0  0  0  0
    0.4553    1.1137    2.1808 H   0  0  0  0  0  0  0  0  0  0  0  0
    2.5895    1.3629    1.4043 H   0  0  0  0  0  0  0  0  0  0  0  0
    2.1300   -0.3616    1.1228 H   0  0  0  0  0  0  0  0  0  0  0  0
    2.4727    1.8447   -0.9962 H   0  0  0  0  0  0  0  0  0  0  0  0
    1.2658   -0.1111   -2.3817 H   0  0  0  0  0  0  0  0  0  0  0  0
    0.3508    1.2753   -1.6228 H   0  0  0  0  0  0  0  0  0  0  0  0
   -0.4874   -1.1630   -1.1886 H   0  0  0  0  0  0  0  0  0  0  0  0
    1.0691   -1.3552   -0.2518 H   0  0  0  0  0  0  0  0  0  0  0  0
    4.4691    2.0020    0.2743 H   0  0  0  0  0  0  0  0  0  0  0  0
    6.7456    2.3011    0.9588 H   0  0  0  0  0  0  0  0  0  0  0  0
    8.8611    1.3636    1.2635 H   0  0  0  0  0  0  0  0  0  0  0  0
    9.2813   -0.3523    0.7920 H   0  0  0  0  0  0  0  0  0  0  0  0
    9.4549    1.0217   -0.3667 H   0  0  0  0  0  0  0  0  0  0  0  0
    7.4723   -2.6162   -1.3749 H   0  0  0  0  0  0  0  0  0  0  0  0
    8.6112   -2.0276   -0.1563 H   0  0  0  0  0  0  0  0  0  0  0  0
    8.6849   -1.3783   -1.8611 H   0  0  0  0  0  0  0  0  0  0  0  0
    5.4222   -1.6861   -1.5854 H   0  0  0  0  0  0  0  0  0  0  0  0
   -4.1601   -0.6759   -2.0504 H   0  0  0  0  0  0  0  0  0  0  0  0
   -6.7182   -0.3274   -4.4698 H   0  0  0  0  0  0  0  0  0  0  0  0
   -5.8434   -1.5093   -3.4944 H   0  0  0  0  0  0  0  0  0  0  0  0
   -5.0575    0.0589   -3.7418 H   0  0  0  0  0  0  0  0  0  0  0  0
  1  2  1  0
  2  3  1  0
  3  4  2  0
  4  5  1  0
  5  6  1  0
  6  7  1  0
  7  8  1  0
  8  9  1  0
  9 10  1  0
 10 11  1  0
 11 12  1  0
 12 13  1  0
 13 14  1  0
 14 15  1  0
 15 16  1  0
 14 17  1  0
 17 18  2  0
 17 19  1  0
 19 20  2  0
 20 21  1  0
 21 22  2  0
 22 23  1  0
 22 24  1  0
 24 25  1  0
 24 26  2  0
  9 27  1  0
 27 28  1  0
 28 29  2  0
 29 30  1  0
 30 31  1  0
 29  3  1  0
 27  5  2  0
 16 11  1  0
 26 19  1  0
  1 32  1  0
  1 33  1  0
  1 34  1  0
  4 35  1  0
  7 36  1  0
  7 37  1  0
  8 38  1  0
  8 39  1  0
  9 40  1  0
 10 41  1  0
 10 42  1  0
 12 43  1  0
 12 44  1  0
 13 45  1  0
 13 46  1  0
 14 47  1  0
 15 48  1  0
 15 49  1  0
 16 50  1  0
 16 51  1  0
 20 52  1  0
 21 53  1  0
 23 54  1  0
 23 55  1  0
 23 56  1  0
 25 57  1  0
 25 58  1  0
 25 59  1  0
 26 60  1  0
 28 61  1  0
 31 62  1  0
 31 63  1  0
 31 64  1  0
M  END
$$$$
[H]OC([H])([H])[C@@]1(O[H])C([H])([H])[C@@]2([H])O[C@]1(C([H])([H])[H])n1c3c([H])c([H])c([H])c([H])c3c3c4c(c5c6c([H])c([H])c([H])c([H])c6n2c5c31)C(=O)N([H])C4([H])[H]
     RDKit          3D

 54 61  0  0  0  0  0  0  0  0999 V2000
    3.1800    0.8838    1.3878 C   0  0  0  0  0  0  0  0  0  0  0  0
    2.1176    0.2237    0.5774 C   0  0  2  0  0  0  0  0  0  0  0  0
    1.6968   -0.7870    1.4854 O   0  0  0  0  0  0  0  0  0  0  0  0
    1.2511   -1.8639    0.7986 C   0  0  2  0  0  0  0  0  0  0  0  0
    2.0328   -1.9517   -0.4419 C   0  0  0  0  0  0  0  0  0  0  0  0
    2.6347   -0.5714   -0.5849 C   0  0  1  0  0  0  0  0  0  0  0  0
    2.2138   -0.0799   -1.8115 O   0  0  0  0  0  0  0  0  0  0  0  0
    4.1191   -0.7109   -0.6110 C   0  0  0  0  0  0  0  0  0  0  0  0
    4.4589   -1.5975   -1.6334 O   0  0  0  0  0  0  0  0  0  0  0  0
   -0.2014   -1.7853    0.5955 N   0  0  0  0  0  0  0  0  0  0  0  0
   -1.1044   -2.7499    0.6347 C   0  0  0  0  0  0  0  0  0  0  0  0
   -0.9179   -4.0868    0.8734 C   0  0  0  0  0  0  0  0  0  0  0  0
   -2.0299   -4.9199    0.8648 C   0  0  0  0  0  0  0  0  0  0  0  0
   -3.2823   -4.4161    0.6235 C   0  0  0  0  0  0  0  0  0  0  0  0
   -3.4758   -3.0511    0.3794 C   0  0  0  0  0  0  0  0  0  0  0  0
   -2.3768   -2.2421    0.3902 C   0  0  0  0  0  0  0  0  0  0  0  0
   -2.2053   -0.8905    0.1945 C   0  0  0  0  0  0  0  0  0  0  0  0
   -3.0670    0.1511   -0.0975 C   0  0  0  0  0  0  0  0  0  0  0  0
   -4.5001    0.2660   -0.2996 C   0  0  0  0  0  0  0  0  0  0  0  0
   -5.3884   -0.5871   -0.2658 O   0  0  0  0  0  0  0  0  0  0  0  0
   -4.7851    1.6416   -0.5724 N   0  0  0  0  0  0  0  0  0  0  0  0
   -3.5735    2.4248   -0.5610 C   0  0  0  0  0  0  0  0  0  0  0  0
   -2.5314    1.4168   -0.2472 C   0  0  0  0  0  0  0  0  0  0  0  0
   -1.1701    1.6669   -0.1133 C   0  0  0  0  0  0  0  0  0  0  0  0
   -0.3770    2.7657   -0.2198 C   0  0  0  0  0  0  0  0  0  0  0  0
   -0.7006    4.0705   -0.5126 C   0  0  0  0  0  0  0  0  0  0  0  0
    0.3203    5.0230   -0.5829 C   0  0  0  0  0  0  0  0  0  0  0  0
    1.6233    4.6180   -0.3553 C   0  0  0  0  0  0  0  0  0  0  0  0
    1.9232    3.2989   -0.0625 C   0  0  0  0  0  0  0  0  0  0  0  0
    0.9354    2.3466    0.0129 C   0  0  0  0  0  0  0  0  0  0  0  0
    0.9590    1.0103    0.2643 N   0  0  0  0  0  0  0  0  0  0  0  0
   -0.3578    0.6223    0.1746 C   0  0  0  0  0  0  0  0  0  0  0  0
   -0.8544   -0.6533    0.3299 C   0  0  0  0  0  0  0  0  0  0  0  0
    4.0624    1.2462    0.8471 H   0  0  0  0  0  0  0  0  0  0  0  0
    3.5596    0.1949    2.1815 H   0  0  0  0  0  0  0  0  0  0  0  0
    2.7312    1.7230    1.9466 H   0  0  0  0  0  0  0  0  0  0  0  0
    1.4219   -2.7643    1.4120 H   0  0  0  0  0  0  0  0  0  0  0  0
    1.4720   -2.2700   -1.3403 H   0  0  0  0  0  0  0  0  0  0  0  0
    2.8377   -2.7359   -0.3258 H   0  0  0  0  0  0  0  0  0  0  0  0
    2.8799   -0.3390   -2.4928 H   0  0  0  0  0  0  0  0  0  0  0  0
    4.5238   -1.1579    0.3296 H   0  0  0  0  0  0  0  0  0  0  0  0
    4.6358    0.2581   -0.8438 H   0  0  0  0  0  0  0  0  0  0  0  0
    4.7979   -2.4633   -1.2908 H   0  0  0  0  0  0  0  0  0  0  0  0
    0.0592   -4.4684    1.0598 H   0  0  0  0  0  0  0  0  0  0  0  0
   -1.8569   -5.9719    1.0560 H   0  0  0  0  0  0  0  0  0  0  0  0
   -4.1224   -5.0759    0.6219 H   0  0  0  0  0  0  0  0  0  0  0  0
   -4.4721   -2.7398    0.2018 H   0  0  0  0  0  0  0  0  0  0  0  0
   -5.7336    2.0654   -0.7610 H   0  0  0  0  0  0  0  0  0  0  0  0
   -3.6366    3.2333    0.1993 H   0  0  0  0  0  0  0  0  0  0  0  0
   -3.3846    2.8954   -1.5673 H   0  0  0  0  0  0  0  0  0  0  0  0
   -1.7294    4.3700   -0.6881 H   0  0  0  0  0  0  0  0  0  0  0  0
    0.0587    6.0490   -0.8135 H   0  0  0  0  0  0  0  0  0  0  0  0
    2.3774    5.3965   -0.4223 H   0  0  0  0  0  0  0  0  0  0  0  0
    2.9510    3.0689    0.0761 H   0  0  0  0  0  0  0  0  0  0  0  0
  2  1  1  1
  2  3  1  0
  3  4  1  0
  4  5  1  0
  5  6  1  0
  6  7  1  6
  6  8  1  0
  8  9  1  0
  4 10  1  0
 10 11  1  0
 11 12  2  0
 12 13  1  0
 13 14  2  0
 14 15  1  0
 15 16  2  0
 16 17  1  0
 17 18  2  0
 18 19  1  0
 19 20  2  0
 19 21  1  0
 21 22  1  0
 22 23  1  0
 23 24  2  0
 24 25  1  0
 25 26  2  0
 26 27  1  0
 27 28  2  0
 28 29  1  0
 29 30  2  0
 30 31  1  0
 31 32  1  0
 32 33  2  0
  6  2  1  0
 33 10  1  0
 31  2  1  0
 16 11  1  0
 33 17  1  0
 23 18  1  0
 32 24  1  0
 30 25  1  0
  1 34  1  0
  1 35  1  0
  1 36  1  0
  4 37  1  1
  5 38  1  0
  5 39  1  0
  7 40  1  0
  8 41  1  0
  8 42  1  0
  9 43  1  0
 12 44  1  0
 13 45  1  0
 14 46  1  0
 15 47  1  0
 21 48  1  0
 22 49  1  0
 22 50  1  0
 26 51  1  0
 27 52  1  0
 28 53  1  0
 29 54  1  0
M  END
$$$$
[H]C([H])=C([H])C(=O)N([H])C([H])([H])c1c([H])c([H])c(Cl)c(N([H])c2nc([H])c([H])c(-c3c([H])n([H])c4nc([H])c(-c5c([H])nn(C6([H])C([H])([H])C([H])([H])N([H])C([H])([H])C6([H])[H])c5[H])c([H])c34)n2)c1[H]
     RDKit          3D

 68 73  0  0  0  0  0  0  0  0999 V2000
    5.3971    5.1823    1.4721 Cl  0  0  0  0  0  0  0  0  0  0  0  0
    5.5925    3.4893    1.0731 C   0  0  0  0  0  0  0  0  0  0  0  0
    6.8140    2.8984    1.2085 C   0  0  0  0  0  0  0  0  0  0  0  0
    7.0326    1.5852    0.9150 C   0  0  0  0  0  0  0  0  0  0  0  0
    5.9892    0.8231    0.4662 C   0  0  0  0  0  0  0  0  0  0  0  0
    6.1401   -0.6305    0.1203 C   0  0  0  0  0  0  0  0  0  0  0  0
    7.4645   -1.1158    0.4463 N   0  0  0  0  0  0  0  0  0  0  0  0
    7.8399   -1.4080    1.7778 C   0  0  0  0  0  0  0  0  0  0  0  0
    6.9778   -1.2335    2.6931 O   0  0  0  0  0  0  0  0  0  0  0  0
    9.1586   -1.8938    2.1284 C   0  0  0  0  0  0  0  0  0  0  0  0
   10.1202   -2.1080    1.2688 C   0  0  0  0  0  0  0  0  0  0  0  0
    4.7429    1.4450    0.3331 C   0  0  0  0  0  0  0  0  0  0  0  0
    4.5062    2.7450    0.6186 C   0  0  0  0  0  0  0  0  0  0  0  0
    3.2598    3.3800    0.4895 N   0  0  0  0  0  0  0  0  0  0  0  0
    2.0305    2.8907    0.0525 C   0  0  0  0  0  0  0  0  0  0  0  0
    0.9593    3.7396    0.0284 N   0  0  0  0  0  0  0  0  0  0  0  0
   -0.2501    3.3494   -0.3793 C   0  0  0  0  0  0  0  0  0  0  0  0
   -0.4287    2.0232   -0.7976 C   0  0  0  0  0  0  0  0  0  0  0  0
    0.6123    1.1463   -0.7872 C   0  0  0  0  0  0  0  0  0  0  0  0
    1.8012    1.6624   -0.3496 N   0  0  0  0  0  0  0  0  0  0  0  0
    0.6445   -0.2193   -1.2207 C   0  0  0  0  0  0  0  0  0  0  0  0
    1.7962   -0.9351   -1.6153 C   0  0  0  0  0  0  0  0  0  0  0  0
    1.4618   -2.1860   -1.9178 N   0  0  0  0  0  0  0  0  0  0  0  0
    0.1252   -2.3468   -1.7421 C   0  0  0  0  0  0  0  0  0  0  0  0
   -0.7021   -3.3888   -1.8900 N   0  0  0  0  0  0  0  0  0  0  0  0
   -2.0205   -3.3379   -1.6410 C   0  0  0  0  0  0  0  0  0  0  0  0
   -2.6012   -2.1703   -1.2064 C   0  0  0  0  0  0  0  0  0  0  0  0
   -1.7441   -1.0730   -1.0486 C   0  0  0  0  0  0  0  0  0  0  0  0
   -0.3896   -1.1181   -1.3047 C   0  0  0  0  0  0  0  0  0  0  0  0
   -4.0201   -2.0478   -0.9175 C   0  0  0  0  0  0  0  0  0  0  0  0
   -5.0130   -2.7410   -1.5653 C   0  0  0  0  0  0  0  0  0  0  0  0
   -6.1983   -2.3511   -1.0110 N   0  0  0  0  0  0  0  0  0  0  0  0
   -5.9704   -1.4511   -0.0544 N   0  0  0  0  0  0  0  0  0  0  0  0
   -4.6433   -1.2524    0.0178 C   0  0  0  0  0  0  0  0  0  0  0  0
   -6.9781   -0.7857    0.7804 C   0  0  0  0  0  0  0  0  0  0  0  0
   -6.5840    0.6551    1.0008 C   0  0  0  0  0  0  0  0  0  0  0  0
   -7.6015    1.5813    0.3935 C   0  0  0  0  0  0  0  0  0  0  0  0
   -8.9447    1.3029    0.8553 N   0  0  0  0  0  0  0  0  0  0  0  0
   -9.3746   -0.0289    0.5502 C   0  0  0  0  0  0  0  0  0  0  0  0
   -8.2959   -0.9567    0.1018 C   0  0  0  0  0  0  0  0  0  0  0  0
    7.6670    3.4829    1.5647 H   0  0  0  0  0  0  0  0  0  0  0  0
    8.0257    1.1348    1.0308 H   0  0  0  0  0  0  0  0  0  0  0  0
    5.4084   -1.1990    0.7485 H   0  0  0  0  0  0  0  0  0  0  0  0
    5.8964   -0.8043   -0.9399 H   0  0  0  0  0  0  0  0  0  0  0  0
    8.1471   -1.2477   -0.3335 H   0  0  0  0  0  0  0  0  0  0  0  0
    9.3775   -2.0981    3.1716 H   0  0  0  0  0  0  0  0  0  0  0  0
    9.9570   -1.9233    0.2325 H   0  0  0  0  0  0  0  0  0  0  0  0
   11.0911   -2.4709    1.5716 H   0  0  0  0  0  0  0  0  0  0  0  0
    3.9704    0.7842   -0.0229 H   0  0  0  0  0  0  0  0  0  0  0  0
    3.2353    4.4297    0.7751 H   0  0  0  0  0  0  0  0  0  0  0  0
   -1.0692    4.0485   -0.3838 H   0  0  0  0  0  0  0  0  0  0  0  0
   -1.3976    1.7299   -1.1548 H   0  0  0  0  0  0  0  0  0  0  0  0
    2.7651   -0.4949   -1.6502 H   0  0  0  0  0  0  0  0  0  0  0  0
    2.1027   -2.9601   -2.2456 H   0  0  0  0  0  0  0  0  0  0  0  0
   -2.6839   -4.1895   -1.7646 H   0  0  0  0  0  0  0  0  0  0  0  0
   -2.2026   -0.1629   -0.6819 H   0  0  0  0  0  0  0  0  0  0  0  0
   -4.9768   -3.4641   -2.3574 H   0  0  0  0  0  0  0  0  0  0  0  0
   -4.1692   -0.5561    0.7260 H   0  0  0  0  0  0  0  0  0  0  0  0
   -6.9544   -1.2956    1.7773 H   0  0  0  0  0  0  0  0  0  0  0  0
   -6.4043    0.8881    2.0726 H   0  0  0  0  0  0  0  0  0  0  0  0
   -5.6180    0.8568    0.4820 H   0  0  0  0  0  0  0  0  0  0  0  0
   -7.5629    1.4607   -0.7016 H   0  0  0  0  0  0  0  0  0  0  0  0
   -7.3648    2.6239    0.6881 H   0  0  0  0  0  0  0  0  0  0  0  0
   -9.0706    1.5759    1.8473 H   0  0  0  0  0  0  0  0  0  0  0  0
  -10.1008    0.0614   -0.3101 H   0  0  0  0  0  0  0  0  0  0  0  0
   -9.9927   -0.4378    1.3965 H   0  0  0  0  0  0  0  0  0  0  0  0
   -8.1399   -0.8883   -0.9947 H   0  0  0  0  0  0  0  0  0  0  0  0
   -8.6420   -2.0037    0.3124 H   0  0  0  0  0  0  0  0  0  0  0  0
  1  2  1  0
  2  3  2  0
  3  4  1  0
  4  5  2  0
  5  6  1  0
  6  7  1  0
  7  8  1  0
  8  9  2  0
  8 10  1  0
 10 11  2  3
  5 12  1  0
 12 13  2  0
 13 14  1  0
 14 15  1  0
 15 16  2  0
 16 17  1  0
 17 18  2  0
 18 19  1  0
 19 20  2  0
 19 21  1  0
 21 22  2  0
 22 23  1  0
 23 24  1  0
 24 25  2  0
 25 26  1  0
 26 27  2  0
 27 28  1  0
 28 29  2  0
 27 30  1  0
 30 31  1  0
 31 32  2  0
 32 33  1  0
 33 34  1  0
 33 35  1  0
 35 36  1  0
 36 37  1  0
 37 38  1  0
 38 39  1  0
 39 40  1  0
 13  2  1  0
 20 15  1  0
 29 21  1  0
 34 30  2  0
 40 35  1  0
 29 24  1  0
  3 41  1  0
  4 42  1  0
  6 43  1  0
  6 44  1  0
  7 45  1  0
 10 46  1  0
 11 47  1  0
 11 48  1  0
 12 49  1  0
 14 50  1  0
 17 51  1  0
 18 52  1  0
 22 53  1  0
 23 54  1  0
 26 55  1  0
 28 56  1  0
 31 57  1  0
 34 58  1  0
 35 59  1  0
 36 60  1  0
 36 61  1  0
 37 62  1  0
 37 63  1  0
 38 64  1  0
 39 65  1  0
 39 66  1  0
 40 67  1  0
 40 68  1  0
M  END
$$$$
[H]c1c([H])c([H])c(SC([H])([H])[C@]([H])(N([H])c2c([H])c([H])c(S(=O)(=O)N([H])C(=O)c3c([H])c([H])c(N4C([H])([H])c5c(C(=O)N([H])c6nc7c([H])c([H])c([H])c([H])c7s6)c([H])c([H])c([H])c5C([H])([H])C4([H])[H])c([H])c3[H])c([H])c2[N+](=O)[O-])C([H])([H])C([H])([H])N(C([H])([H])[H])C([H])([H])[H])c([H])c1[H]
     RDKit          3D

 99105  0  0  0  0  0  0  0  0999 V2000
  -10.0305    3.4412    1.7333 C   0  0  0  0  0  0  0  0  0  0  0  0
   -9.9031    2.0511    1.2585 N   0  0  0  0  0  0  0  0  0  0  0  0
  -11.0752    1.7488    0.4437 C   0  0  0  0  0  0  0  0  0  0  0  0
   -8.6820    1.8862    0.5278 C   0  0  0  0  0  0  0  0  0  0  0  0
   -8.4823    0.4276    0.0492 C   0  0  0  0  0  0  0  0  0  0  0  0
   -7.1544    0.3681   -0.7006 C   0  0  2  0  0  0  0  0  0  0  0  0
   -6.7892   -0.9890   -1.2074 C   0  0  0  0  0  0  0  0  0  0  0  0
   -6.6189   -2.2872   -0.0151 S   0  0  0  0  0  0  0  0  0  0  0  0
   -8.1600   -2.9973    0.4761 C   0  0  0  0  0  0  0  0  0  0  0  0
   -9.2811   -2.8332   -0.3033 C   0  0  0  0  0  0  0  0  0  0  0  0
  -10.4736   -3.3715    0.0744 C   0  0  0  0  0  0  0  0  0  0  0  0
  -10.5818   -4.0942    1.2477 C   0  0  0  0  0  0  0  0  0  0  0  0
   -9.4618   -4.2678    2.0411 C   0  0  0  0  0  0  0  0  0  0  0  0
   -8.2585   -3.7320    1.6737 C   0  0  0  0  0  0  0  0  0  0  0  0
   -6.1061    0.9148    0.1785 N   0  0  0  0  0  0  0  0  0  0  0  0
   -4.9391    1.5004   -0.3358 C   0  0  0  0  0  0  0  0  0  0  0  0
   -4.7527    1.5938   -1.7125 C   0  0  0  0  0  0  0  0  0  0  0  0
   -3.6471    2.1465   -2.3065 C   0  0  0  0  0  0  0  0  0  0  0  0
   -2.6569    2.6434   -1.5015 C   0  0  0  0  0  0  0  0  0  0  0  0
   -2.7841    2.5805   -0.1446 C   0  0  0  0  0  0  0  0  0  0  0  0
   -3.9396    2.0020    0.4575 C   0  0  0  0  0  0  0  0  0  0  0  0
   -3.9806    1.9702    1.8713 N   0  0  0  0  0  0  0  0  0  0  0  0
   -5.0794    2.0208    2.6498 O   0  0  0  0  0  0  0  0  0  0  0  0
   -2.8696    1.8801    2.5038 O   0  0  0  0  0  0  0  0  0  0  0  0
   -1.2374    3.3550   -2.2103 S   0  0  0  0  0  0  0  0  0  0  0  0
   -0.8576    4.6425   -1.5200 O   0  0  0  0  0  0  0  0  0  0  0  0
   -1.5096    3.6673   -3.6602 O   0  0  0  0  0  0  0  0  0  0  0  0
    0.0737    2.2267   -2.0787 N   0  0  0  0  0  0  0  0  0  0  0  0
    0.9297    2.3123   -0.9803 C   0  0  0  0  0  0  0  0  0  0  0  0
    0.7354    3.2045   -0.0945 O   0  0  0  0  0  0  0  0  0  0  0  0
    2.0655    1.4123   -0.7827 C   0  0  0  0  0  0  0  0  0  0  0  0
    3.1049    1.3527   -1.6709 C   0  0  0  0  0  0  0  0  0  0  0  0
    4.1818    0.5085   -1.4115 C   0  0  0  0  0  0  0  0  0  0  0  0
    4.2798   -0.2883   -0.3055 C   0  0  0  0  0  0  0  0  0  0  0  0
    3.2030   -0.2190    0.5958 C   0  0  0  0  0  0  0  0  0  0  0  0
    2.1330    0.6257    0.3329 C   0  0  0  0  0  0  0  0  0  0  0  0
    5.4104   -1.1013   -0.0525 N   0  0  0  0  0  0  0  0  0  0  0  0
    5.2719   -2.0689    1.0101 C   0  0  0  0  0  0  0  0  0  0  0  0
    6.4804   -2.8500    1.3552 C   0  0  0  0  0  0  0  0  0  0  0  0
    7.3941   -3.0065    0.2061 C   0  0  0  0  0  0  0  0  0  0  0  0
    8.2208   -4.1341    0.1034 C   0  0  0  0  0  0  0  0  0  0  0  0
    9.0972   -4.3419   -0.9184 C   0  0  0  0  0  0  0  0  0  0  0  0
    9.1885   -3.3930   -1.9216 C   0  0  0  0  0  0  0  0  0  0  0  0
    8.3860   -2.2343   -1.8810 C   0  0  0  0  0  0  0  0  0  0  0  0
    8.5843   -1.2423   -2.9200 C   0  0  0  0  0  0  0  0  0  0  0  0
    8.0366   -1.5579   -4.0474 O   0  0  0  0  0  0  0  0  0  0  0  0
    9.2757   -0.0363   -2.8523 N   0  0  0  0  0  0  0  0  0  0  0  0
    9.9793    0.3792   -1.6951 C   0  0  0  0  0  0  0  0  0  0  0  0
   10.1775   -0.2054   -0.5256 N   0  0  0  0  0  0  0  0  0  0  0  0
   10.8544    0.3771    0.4056 C   0  0  0  0  0  0  0  0  0  0  0  0
   11.1121   -0.1621    1.6970 C   0  0  0  0  0  0  0  0  0  0  0  0
   11.8322    0.5712    2.5785 C   0  0  0  0  0  0  0  0  0  0  0  0
   12.3577    1.8252    2.3484 C   0  0  0  0  0  0  0  0  0  0  0  0
   12.1085    2.3493    1.0977 C   0  0  0  0  0  0  0  0  0  0  0  0
   11.3640    1.6188    0.1530 C   0  0  0  0  0  0  0  0  0  0  0  0
   10.8273    1.8800   -1.4462 S   0  0  0  0  0  0  0  0  0  0  0  0
    7.5206   -2.0818   -0.8269 C   0  0  0  0  0  0  0  0  0  0  0  0
    6.6122   -0.9032   -0.8131 C   0  0  0  0  0  0  0  0  0  0  0  0
   -9.0136    3.8993    1.7867 H   0  0  0  0  0  0  0  0  0  0  0  0
  -10.6116    4.0349    1.0065 H   0  0  0  0  0  0  0  0  0  0  0  0
  -10.4363    3.4821    2.7582 H   0  0  0  0  0  0  0  0  0  0  0  0
  -11.9322    2.3282    0.8566 H   0  0  0  0  0  0  0  0  0  0  0  0
  -11.3154    0.6728    0.5284 H   0  0  0  0  0  0  0  0  0  0  0  0
  -10.9090    2.0388   -0.6317 H   0  0  0  0  0  0  0  0  0  0  0  0
   -8.6876    2.5730   -0.3630 H   0  0  0  0  0  0  0  0  0  0  0  0
   -7.7924    2.1644    1.1166 H   0  0  0  0  0  0  0  0  0  0  0  0
   -8.4058   -0.1620    0.9447 H   0  0  0  0  0  0  0  0  0  0  0  0
   -9.3213    0.1481   -0.5919 H   0  0  0  0  0  0  0  0  0  0  0  0
   -7.3025    1.0292   -1.5773 H   0  0  0  0  0  0  0  0  0  0  0  0
   -5.8673   -0.9027   -1.8403 H   0  0  0  0  0  0  0  0  0  0  0  0
   -7.5936   -1.2332   -1.9890 H   0  0  0  0  0  0  0  0  0  0  0  0
   -9.2663   -2.2868   -1.2363 H   0  0  0  0  0  0  0  0  0  0  0  0
  -11.3845   -3.2567   -0.5319 H   0  0  0  0  0  0  0  0  0  0  0  0
  -11.5314   -4.5202    1.5446 H   0  0  0  0  0  0  0  0  0  0  0  0
   -9.4978   -4.8262    2.9683 H   0  0  0  0  0  0  0  0  0  0  0  0
   -7.3355   -3.8181    2.2280 H   0  0  0  0  0  0  0  0  0  0  0  0
   -6.2553    0.8418    1.2147 H   0  0  0  0  0  0  0  0  0  0  0  0
   -5.5352    1.2308   -2.3591 H   0  0  0  0  0  0  0  0  0  0  0  0
   -3.5531    2.1911   -3.3679 H   0  0  0  0  0  0  0  0  0  0  0  0
   -2.0392    2.9562    0.5379 H   0  0  0  0  0  0  0  0  0  0  0  0
    0.2229    1.4983   -2.8027 H   0  0  0  0  0  0  0  0  0  0  0  0
    3.0797    1.9682   -2.5758 H   0  0  0  0  0  0  0  0  0  0  0  0
    4.9553    0.5324   -2.1766 H   0  0  0  0  0  0  0  0  0  0  0  0
    3.2087   -0.8199    1.4788 H   0  0  0  0  0  0  0  0  0  0  0  0
    1.2788    0.6940    1.0261 H   0  0  0  0  0  0  0  0  0  0  0  0
    4.4103   -2.7178    0.7500 H   0  0  0  0  0  0  0  0  0  0  0  0
    4.9553   -1.5206    1.9365 H   0  0  0  0  0  0  0  0  0  0  0  0
    6.1284   -3.9045    1.5946 H   0  0  0  0  0  0  0  0  0  0  0  0
    6.9935   -2.4857    2.2735 H   0  0  0  0  0  0  0  0  0  0  0  0
    8.1249   -4.8653    0.9140 H   0  0  0  0  0  0  0  0  0  0  0  0
    9.7377   -5.2217   -0.9911 H   0  0  0  0  0  0  0  0  0  0  0  0
    9.8583   -3.4984   -2.7549 H   0  0  0  0  0  0  0  0  0  0  0  0
    9.3277    0.5780   -3.6813 H   0  0  0  0  0  0  0  0  0  0  0  0
   10.7567   -1.1264    1.9900 H   0  0  0  0  0  0  0  0  0  0  0  0
   12.0338    0.1649    3.5751 H   0  0  0  0  0  0  0  0  0  0  0  0
   12.9224    2.3762    3.0684 H   0  0  0  0  0  0  0  0  0  0  0  0
   12.4495    3.3132    0.7702 H   0  0  0  0  0  0  0  0  0  0  0  0
    7.1971   -0.0479   -0.3444 H   0  0  0  0  0  0  0  0  0  0  0  0
    6.4596   -0.5871   -1.8592 H   0  0  0  0  0  0  0  0  0  0  0  0
  1  2  1  0
  2  3  1  0
  2  4  1  0
  4  5  1  0
  5  6  1  0
  6  7  1  0
  7  8  1  0
  8  9  1  0
  9 10  2  0
 10 11  1  0
 11 12  2  0
 12 13  1  0
 13 14  2  0
  6 15  1  0
 15 16  1  0
 16 17  2  0
 17 18  1  0
 18 19  2  0
 19 20  1  0
 20 21  2  0
 21 22  1  0
 22 23  1  0
 22 24  2  0
 19 25  1  0
 25 26  2  0
 25 27  2  0
 25 28  1  0
 28 29  1  0
 29 30  2  0
 29 31  1  0
 31 32  2  0
 32 33  1  0
 33 34  2  0
 34 35  1  0
 35 36  2  0
 34 37  1  0
 37 38  1  0
 38 39  1  0
 39 40  1  0
 40 41  2  0
 41 42  1  0
 42 43  2  0
 43 44  1  0
 44 45  1  0
 45 46  2  0
 45 47  1  0
 47 48  1  0
 48 49  2  0
 49 50  1  0
 50 51  2  0
 51 52  1  0
 52 53  2  0
 53 54  1  0
 54 55  2  0
 55 56  1  0
 44 57  2  0
 57 58  1  0
 14  9  1  0
 21 16  1  0
 36 31  1  0
 58 37  1  0
 57 40  1  0
 56 48  1  0
 55 50  1  0
  1 59  1  0
  1 60  1  0
  1 61  1  0
  3 62  1  0
  3 63  1  0
  3 64  1  0
  4 65  1  0
  4 66  1  0
  5 67  1  0
  5 68  1  0
  6 69  1  6
  7 70  1  0
  7 71  1  0
 10 72  1  0
 11 73  1  0
 12 74  1  0
 13 75  1  0
 14 76  1  0
 15 77  1  0
 17 78  1  0
 18 79  1  0
 20 80  1  0
 28 81  1  0
 32 82  1  0
 33 83  1  0
 35 84  1  0
 36 85  1  0
 38 86  1  0
 38 87  1  0
 39 88  1  0
 39 89  1  0
 41 90  1  0
 42 91  1  0
 43 92  1  0
 47 93  1  0
 51 94  1  0
 52 95  1  0
 53 96  1  0
 54 97  1  0
 58 98  1  0
 58 99  1  0
M  CHG  2  22   1  23  -1
M  END
$$$$
[H]O[C@@]([H])(C([H])([H])[H])C([H])([H])N1C([H])([H])C([H])([H])C([H])(c2c([H])c([H])c3c(nc(-c4nn([H])c5c([H])c(-c6c([H])nn([H])c6[H])c([H])c([H])c45)n3[H])c2[H])C1([H])[H]
     RDKit          3D

 57 62  0  0  0  0  0  0  0  0999 V2000
   -7.8634    1.5128    2.5371 C   0  0  0  0  0  0  0  0  0  0  0  0
   -7.2272    0.1538    2.5949 C   0  0  2  0  0  0  0  0  0  0  0  0
   -7.4765   -0.5234    3.7879 O   0  0  0  0  0  0  0  0  0  0  0  0
   -5.7364    0.3478    2.3551 C   0  0  0  0  0  0  0  0  0  0  0  0
   -5.5728    1.0486    1.1189 N   0  0  0  0  0  0  0  0  0  0  0  0
   -5.9406    0.2868   -0.0221 C   0  0  0  0  0  0  0  0  0  0  0  0
   -4.6878    0.1920   -0.8509 C   0  0  0  0  0  0  0  0  0  0  0  0
   -3.9745    1.4824   -0.5529 C   0  0  0  0  0  0  0  0  0  0  0  0
   -4.3046    1.6729    0.9198 C   0  0  0  0  0  0  0  0  0  0  0  0
   -2.5163    1.3077   -0.7624 C   0  0  0  0  0  0  0  0  0  0  0  0
   -1.8687    2.1465   -1.6424 C   0  0  0  0  0  0  0  0  0  0  0  0
   -0.4910    2.0021   -1.8598 C   0  0  0  0  0  0  0  0  0  0  0  0
    0.2219    1.0271   -1.1997 C   0  0  0  0  0  0  0  0  0  0  0  0
    1.5355    0.6534   -1.2060 N   0  0  0  0  0  0  0  0  0  0  0  0
    1.7194   -0.3606   -0.3823 C   0  0  0  0  0  0  0  0  0  0  0  0
    0.4980   -0.6315    0.1537 N   0  0  0  0  0  0  0  0  0  0  0  0
   -0.4302    0.1984   -0.3271 C   0  0  0  0  0  0  0  0  0  0  0  0
   -1.8085    0.3323   -0.1005 C   0  0  0  0  0  0  0  0  0  0  0  0
    2.9164   -1.1148   -0.0369 C   0  0  0  0  0  0  0  0  0  0  0  0
    2.9514   -2.1618    0.8528 N   0  0  0  0  0  0  0  0  0  0  0  0
    4.1610   -2.6415    0.9560 N   0  0  0  0  0  0  0  0  0  0  0  0
    5.0120   -1.9635    0.1568 C   0  0  0  0  0  0  0  0  0  0  0  0
    6.3582   -2.0572   -0.1069 C   0  0  0  0  0  0  0  0  0  0  0  0
    7.0000   -1.2120   -0.9967 C   0  0  0  0  0  0  0  0  0  0  0  0
    6.2138   -0.2656   -1.6082 C   0  0  0  0  0  0  0  0  0  0  0  0
    4.8655   -0.1697   -1.3460 C   0  0  0  0  0  0  0  0  0  0  0  0
    4.2104   -1.0016   -0.4641 C   0  0  0  0  0  0  0  0  0  0  0  0
    8.4268   -1.3265   -1.2647 C   0  0  0  0  0  0  0  0  0  0  0  0
    9.1182   -1.0481   -2.4197 C   0  0  0  0  0  0  0  0  0  0  0  0
   10.4143   -1.3130   -2.1720 N   0  0  0  0  0  0  0  0  0  0  0  0
   10.5855   -1.7418   -0.9309 N   0  0  0  0  0  0  0  0  0  0  0  0
    9.3616   -1.7547   -0.3582 C   0  0  0  0  0  0  0  0  0  0  0  0
   -8.3080    1.7090    1.5175 H   0  0  0  0  0  0  0  0  0  0  0  0
   -8.6226    1.6634    3.3261 H   0  0  0  0  0  0  0  0  0  0  0  0
   -7.1161    2.3468    2.6615 H   0  0  0  0  0  0  0  0  0  0  0  0
   -7.6164   -0.4245    1.7325 H   0  0  0  0  0  0  0  0  0  0  0  0
   -8.4067   -0.8587    3.7447 H   0  0  0  0  0  0  0  0  0  0  0  0
   -5.2764   -0.6674    2.3355 H   0  0  0  0  0  0  0  0  0  0  0  0
   -5.2585    0.8761    3.2061 H   0  0  0  0  0  0  0  0  0  0  0  0
   -6.2668   -0.7403    0.2545 H   0  0  0  0  0  0  0  0  0  0  0  0
   -6.7385    0.8330   -0.5688 H   0  0  0  0  0  0  0  0  0  0  0  0
   -4.1071   -0.6803   -0.4594 H   0  0  0  0  0  0  0  0  0  0  0  0
   -4.8965    0.0586   -1.9310 H   0  0  0  0  0  0  0  0  0  0  0  0
   -4.3933    2.2962   -1.1441 H   0  0  0  0  0  0  0  0  0  0  0  0
   -3.5076    1.3321    1.5798 H   0  0  0  0  0  0  0  0  0  0  0  0
   -4.4165    2.7811    1.0889 H   0  0  0  0  0  0  0  0  0  0  0  0
   -2.3756    2.9379   -2.1966 H   0  0  0  0  0  0  0  0  0  0  0  0
    0.0384    2.6476   -2.5449 H   0  0  0  0  0  0  0  0  0  0  0  0
    2.2040    1.1591   -1.8058 H   0  0  0  0  0  0  0  0  0  0  0  0
   -2.2873   -0.3392    0.5947 H   0  0  0  0  0  0  0  0  0  0  0  0
    4.4295   -3.4403    1.5736 H   0  0  0  0  0  0  0  0  0  0  0  0
    6.9744   -2.8047    0.3777 H   0  0  0  0  0  0  0  0  0  0  0  0
    6.6739    0.4256   -2.3190 H   0  0  0  0  0  0  0  0  0  0  0  0
    4.2627    0.5792   -1.8350 H   0  0  0  0  0  0  0  0  0  0  0  0
    8.7238   -0.6831   -3.3668 H   0  0  0  0  0  0  0  0  0  0  0  0
   11.4581   -2.0289   -0.4303 H   0  0  0  0  0  0  0  0  0  0  0  0
    9.1577   -2.0557    0.6530 H   0  0  0  0  0  0  0  0  0  0  0  0
  1  2  1  0
  2  3  1  0
  2  4  1  0
  4  5  1  0
  5  6  1  0
  6  7  1  0
  7  8  1  0
  8  9  1  0
  8 10  1  0
 10 11  2  0
 11 12  1  0
 12 13  2  0
 13 14  1  0
 14 15  1  0
 15 16  2  0
 16 17  1  0
 17 18  2  0
 15 19  1  0
 19 20  2  0
 20 21  1  0
 21 22  1  0
 22 23  2  0
 23 24  1  0
 24 25  2  0
 25 26  1  0
 26 27  2  0
 24 28  1  0
 28 29  1  0
 29 30  2  0
 30 31  1  0
 31 32  1  0
  9  5  1  0
 18 10  1  0
 27 19  1  0
 32 28  2  0
 17 13  1  0
 27 22  1  0
  1 33  1  0
  1 34  1  0
  1 35  1  0
  2 36  1  6
  3 37  1  0
  4 38  1  0
  4 39  1  0
  6 40  1  0
  6 41  1  0
  7 42  1  0
  7 43  1  0
  8 44  1  0
  9 45  1  0
  9 46  1  0
 11 47  1  0
 12 48  1  0
 14 49  1  0
 18 50  1  0
 21 51  1  0
 23 52  1  0
 25 53  1  0
 26 54  1  0
 29 55  1  0
 31 56  1  0
 32 57  1  0
M  END
$$$$
[H]Oc1c([H])c([H])c(-n2nc([H])c(C([H])([H])N3C([H])([H])C([H])([H])N(C(=O)[C@@]([H])(N([H])[H])C([H])([H])C([H])([H])C([H])([H])C([H])([H])O[H])C([H])([H])C3([H])[H])c2[H])c(O[H])c1[H]
     RDKit          3D

 58 60  0  0  0  0  0  0  0  0999 V2000
   -5.3695   -1.9350   -0.6832 N   0  0  0  0  0  0  0  0  0  0  0  0
   -4.2512   -0.9700   -0.6945 C   0  0  1  0  0  0  0  0  0  0  0  0
   -4.7872    0.3570   -0.1284 C   0  0  0  0  0  0  0  0  0  0  0  0
   -5.9167    0.7742   -1.0510 C   0  0  0  0  0  0  0  0  0  0  0  0
   -6.5516    2.0658   -0.6288 C   0  0  0  0  0  0  0  0  0  0  0  0
   -7.1342    1.9698    0.7597 C   0  0  0  0  0  0  0  0  0  0  0  0
   -8.1043    0.9557    0.7377 O   0  0  0  0  0  0  0  0  0  0  0  0
   -3.1366   -1.5053    0.1080 C   0  0  0  0  0  0  0  0  0  0  0  0
   -3.3557   -2.5852    0.7594 O   0  0  0  0  0  0  0  0  0  0  0  0
   -1.8487   -0.9289    0.2181 N   0  0  0  0  0  0  0  0  0  0  0  0
   -0.8228   -1.5327    1.0470 C   0  0  0  0  0  0  0  0  0  0  0  0
    0.2639   -2.0077    0.1067 C   0  0  0  0  0  0  0  0  0  0  0  0
    0.5102   -1.1170   -0.9676 N   0  0  0  0  0  0  0  0  0  0  0  0
    1.6721   -1.3139   -1.7327 C   0  0  0  0  0  0  0  0  0  0  0  0
    2.9580   -1.2342   -0.9930 C   0  0  0  0  0  0  0  0  0  0  0  0
    3.6133   -2.2878   -0.3724 C   0  0  0  0  0  0  0  0  0  0  0  0
    4.7233   -1.7934    0.1691 N   0  0  0  0  0  0  0  0  0  0  0  0
    4.8473   -0.5078   -0.0456 N   0  0  0  0  0  0  0  0  0  0  0  0
    3.7709   -0.1385   -0.7605 C   0  0  0  0  0  0  0  0  0  0  0  0
    5.9127    0.3544    0.3857 C   0  0  0  0  0  0  0  0  0  0  0  0
    5.7634    1.7171    0.3038 C   0  0  0  0  0  0  0  0  0  0  0  0
    6.7818    2.5572    0.7147 C   0  0  0  0  0  0  0  0  0  0  0  0
    7.9806    2.0721    1.2199 C   0  0  0  0  0  0  0  0  0  0  0  0
    9.0088    2.9152    1.6347 O   0  0  0  0  0  0  0  0  0  0  0  0
    8.0885    0.6979    1.2848 C   0  0  0  0  0  0  0  0  0  0  0  0
    7.0873   -0.1564    0.8813 C   0  0  0  0  0  0  0  0  0  0  0  0
    7.2503   -1.5474    0.9695 O   0  0  0  0  0  0  0  0  0  0  0  0
    0.0164    0.2087   -0.8222 C   0  0  0  0  0  0  0  0  0  0  0  0
   -1.4506    0.2741   -0.4747 C   0  0  0  0  0  0  0  0  0  0  0  0
   -5.8841   -1.9157   -1.5950 H   0  0  0  0  0  0  0  0  0  0  0  0
   -6.0376   -1.7108    0.0854 H   0  0  0  0  0  0  0  0  0  0  0  0
   -4.0183   -0.7855   -1.7433 H   0  0  0  0  0  0  0  0  0  0  0  0
   -3.9656    1.0650   -0.1420 H   0  0  0  0  0  0  0  0  0  0  0  0
   -5.1466    0.2129    0.8915 H   0  0  0  0  0  0  0  0  0  0  0  0
   -5.4465    0.9471   -2.0557 H   0  0  0  0  0  0  0  0  0  0  0  0
   -6.6188   -0.0505   -1.1652 H   0  0  0  0  0  0  0  0  0  0  0  0
   -7.3871    2.2667   -1.3264 H   0  0  0  0  0  0  0  0  0  0  0  0
   -5.8315    2.8898   -0.7333 H   0  0  0  0  0  0  0  0  0  0  0  0
   -7.6852    2.9149    0.9599 H   0  0  0  0  0  0  0  0  0  0  0  0
   -6.3283    1.7765    1.4761 H   0  0  0  0  0  0  0  0  0  0  0  0
   -7.6764    0.0687    0.5754 H   0  0  0  0  0  0  0  0  0  0  0  0
   -0.3945   -0.7178    1.6964 H   0  0  0  0  0  0  0  0  0  0  0  0
   -1.1838   -2.3624    1.6562 H   0  0  0  0  0  0  0  0  0  0  0  0
    1.1818   -2.1081    0.7246 H   0  0  0  0  0  0  0  0  0  0  0  0
   -0.0129   -3.0308   -0.2206 H   0  0  0  0  0  0  0  0  0  0  0  0
    1.5990   -2.2734   -2.2821 H   0  0  0  0  0  0  0  0  0  0  0  0
    1.6827   -0.5249   -2.5407 H   0  0  0  0  0  0  0  0  0  0  0  0
    3.2301   -3.3068   -0.3695 H   0  0  0  0  0  0  0  0  0  0  0  0
    3.5727    0.8636   -1.1011 H   0  0  0  0  0  0  0  0  0  0  0  0
    4.8349    2.1645   -0.0886 H   0  0  0  0  0  0  0  0  0  0  0  0
    6.6697    3.6313    0.6523 H   0  0  0  0  0  0  0  0  0  0  0  0
    8.9857    3.1963    2.6109 H   0  0  0  0  0  0  0  0  0  0  0  0
    9.0164    0.2983    1.6762 H   0  0  0  0  0  0  0  0  0  0  0  0
    8.1136   -1.9031    1.3336 H   0  0  0  0  0  0  0  0  0  0  0  0
    0.2732    0.7768   -1.7396 H   0  0  0  0  0  0  0  0  0  0  0  0
    0.5715    0.6848    0.0117 H   0  0  0  0  0  0  0  0  0  0  0  0
   -2.0311    0.4454   -1.4006 H   0  0  0  0  0  0  0  0  0  0  0  0
   -1.6026    1.1296    0.2108 H   0  0  0  0  0  0  0  0  0  0  0  0
  1  2  1  0
  2  3  1  0
  3  4  1  0
  4  5  1  0
  5  6  1  0
  6  7  1  0
  2  8  1  0
  8  9  2  0
  8 10  1  0
 10 11  1  0
 11 12  1  0
 12 13  1  0
 13 14  1  0
 14 15  1  0
 15 16  1  0
 16 17  2  0
 17 18  1  0
 18 19  1  0
 18 20  1  0
 20 21  2  0
 21 22  1  0
 22 23  2  0
 23 24  1  0
 23 25  1  0
 25 26  2  0
 26 27  1  0
 13 28  1  0
 28 29  1  0
 29 10  1  0
 19 15  2  0
 26 20  1  0
  1 30  1  0
  1 31  1  0
  2 32  1  6
  3 33  1  0
  3 34  1  0
  4 35  1  0
  4 36  1  0
  5 37  1  0
  5 38  1  0
  6 39  1  0
  6 40  1  0
  7 41  1  0
 11 42  1  0
 11 43  1  0
 12 44  1  0
 12 45  1  0
 14 46  1  0
 14 47  1  0
 16 48  1  0
 19 49  1  0
 21 50  1  0
 22 51  1  0
 24 52  1  0
 25 53  1  0
 27 54  1  0
 28 55  1  0
 28 56  1  0
 29 57  1  0
 29 58  1  0
M  END
$$$$
[H]Oc1c(N([H])[H])c([H])c([H])c2c([H])c([H])c(C([H])([H])N3C(=O)N(C(=O)C([H])([H])[H])C([H])([H])C3=O)nc12
     RDKit          3D

 37 39  0  0  0  0  0  0  0  0999 V2000
    5.8100    1.0664    0.4698 C   0  0  0  0  0  0  0  0  0  0  0  0
    4.6577    1.0829   -0.4588 C   0  0  0  0  0  0  0  0  0  0  0  0
    4.6961    1.8727   -1.4317 O   0  0  0  0  0  0  0  0  0  0  0  0
    3.5213    0.2454   -0.2901 N   0  0  0  0  0  0  0  0  0  0  0  0
    3.3100   -0.7321    0.7851 C   0  0  0  0  0  0  0  0  0  0  0  0
    2.5580   -1.7935    0.0665 C   0  0  0  0  0  0  0  0  0  0  0  0
    2.6269   -3.0552    0.2601 O   0  0  0  0  0  0  0  0  0  0  0  0
    1.7462   -1.1113   -0.8810 N   0  0  0  0  0  0  0  0  0  0  0  0
    0.5382   -1.6166   -1.5011 C   0  0  0  0  0  0  0  0  0  0  0  0
   -0.6795   -1.2775   -0.7122 C   0  0  0  0  0  0  0  0  0  0  0  0
   -1.1046   -2.1649    0.2606 C   0  0  0  0  0  0  0  0  0  0  0  0
   -2.2271   -1.8987    1.0200 C   0  0  0  0  0  0  0  0  0  0  0  0
   -2.9060   -0.7137    0.7693 C   0  0  0  0  0  0  0  0  0  0  0  0
   -4.0236   -0.4209    1.5061 C   0  0  0  0  0  0  0  0  0  0  0  0
   -4.7099    0.7342    1.2823 C   0  0  0  0  0  0  0  0  0  0  0  0
   -4.3095    1.6484    0.3117 C   0  0  0  0  0  0  0  0  0  0  0  0
   -5.0200    2.8498    0.0762 N   0  0  0  0  0  0  0  0  0  0  0  0
   -3.1709    1.3149   -0.4145 C   0  0  0  0  0  0  0  0  0  0  0  0
   -2.7411    2.2206   -1.4039 O   0  0  0  0  0  0  0  0  0  0  0  0
   -2.4657    0.1510   -0.2005 C   0  0  0  0  0  0  0  0  0  0  0  0
   -1.3513   -0.1362   -0.9386 N   0  0  0  0  0  0  0  0  0  0  0  0
    2.3536    0.1558   -1.0962 C   0  0  0  0  0  0  0  0  0  0  0  0
    1.9617    1.0878   -1.8668 O   0  0  0  0  0  0  0  0  0  0  0  0
    6.2821    2.0594    0.5933 H   0  0  0  0  0  0  0  0  0  0  0  0
    5.5684    0.6853    1.4701 H   0  0  0  0  0  0  0  0  0  0  0  0
    6.5776    0.3618    0.0423 H   0  0  0  0  0  0  0  0  0  0  0  0
    4.2788   -1.1147    1.1648 H   0  0  0  0  0  0  0  0  0  0  0  0
    2.7309   -0.2890    1.6211 H   0  0  0  0  0  0  0  0  0  0  0  0
    0.3986   -1.2211   -2.5361 H   0  0  0  0  0  0  0  0  0  0  0  0
    0.6281   -2.7307   -1.6232 H   0  0  0  0  0  0  0  0  0  0  0  0
   -0.5389   -3.0718    0.4137 H   0  0  0  0  0  0  0  0  0  0  0  0
   -2.5857   -2.5838    1.7965 H   0  0  0  0  0  0  0  0  0  0  0  0
   -4.3392   -1.1467    2.2747 H   0  0  0  0  0  0  0  0  0  0  0  0
   -5.5875    0.9564    1.8662 H   0  0  0  0  0  0  0  0  0  0  0  0
   -5.4864    3.0131   -0.8330 H   0  0  0  0  0  0  0  0  0  0  0  0
   -5.0820    3.5786    0.8083 H   0  0  0  0  0  0  0  0  0  0  0  0
   -1.9153    1.9941   -1.9414 H   0  0  0  0  0  0  0  0  0  0  0  0
  1  2  1  0
  2  3  2  0
  2  4  1  0
  4  5  1  0
  5  6  1  0
  6  7  2  0
  6  8  1  0
  8  9  1  0
  9 10  1  0
 10 11  2  0
 11 12  1  0
 12 13  2  0
 13 14  1  0
 14 15  2  0
 15 16  1  0
 16 17  1  0
 16 18  2  0
 18 19  1  0
 18 20  1  0
 20 21  2  0
  8 22  1  0
 22 23  2  0
 22  4  1  0
 21 10  1  0
 20 13  1  0
  1 24  1  0
  1 25  1  0
  1 26  1  0
  5 27  1  0
  5 28  1  0
  9 29  1  0
  9 30  1  0
 11 31  1  0
 12 32  1  0
 14 33  1  0
 15 34  1  0
 17 35  1  0
 17 36  1  0
 19 37  1  0
M  END
$$$$
[H]c1c([H])c([C@@]([H])(C(=O)N([H])C2(C(=O)N([H])[H])C([H])([H])C([H])([H])C([H])([H])C([H])([H])C2([H])[H])N([H])C(=O)c2nc(C(F)(F)F)n([H])c(=O)c2[H])c([H])c([H])c1C#N
     RDKit          3D

 56 58  0  0  0  0  0  0  0  0999 V2000
   -4.4792    1.5028    1.3326 N   0  0  0  0  0  0  0  0  0  0  0  0
   -3.5309    0.5008    1.4409 C   0  0  0  0  0  0  0  0  0  0  0  0
   -2.9138    0.4060    2.5730 O   0  0  0  0  0  0  0  0  0  0  0  0
   -3.0678   -0.5187    0.4165 C   0  0  0  0  0  0  0  0  0  0  0  0
   -3.5178   -0.2293   -0.9584 C   0  0  0  0  0  0  0  0  0  0  0  0
   -4.9895   -0.5029   -1.1608 C   0  0  0  0  0  0  0  0  0  0  0  0
   -5.5939   -1.4453   -0.1785 C   0  0  0  0  0  0  0  0  0  0  0  0
   -4.5507   -2.5262    0.0830 C   0  0  0  0  0  0  0  0  0  0  0  0
   -3.4630   -1.8877    0.9077 C   0  0  0  0  0  0  0  0  0  0  0  0
   -1.6342   -0.3830    0.5717 N   0  0  0  0  0  0  0  0  0  0  0  0
   -0.6420    0.1205   -0.3017 C   0  0  0  0  0  0  0  0  0  0  0  0
   -0.9024    0.4458   -1.4772 O   0  0  0  0  0  0  0  0  0  0  0  0
    0.7243    0.2909    0.2013 C   0  0  1  0  0  0  0  0  0  0  0  0
    1.8455   -0.1405   -0.4498 N   0  0  0  0  0  0  0  0  0  0  0  0
    2.3470   -1.4800   -0.4427 C   0  0  0  0  0  0  0  0  0  0  0  0
    1.7027   -2.4067    0.0587 O   0  0  0  0  0  0  0  0  0  0  0  0
    3.6559   -1.7133   -1.0113 C   0  0  0  0  0  0  0  0  0  0  0  0
    4.0964   -1.3463   -2.2195 C   0  0  0  0  0  0  0  0  0  0  0  0
    5.4742   -1.4349   -2.5462 C   0  0  0  0  0  0  0  0  0  0  0  0
    5.8906   -1.0886   -3.6834 O   0  0  0  0  0  0  0  0  0  0  0  0
    6.2859   -1.9043   -1.5755 N   0  0  0  0  0  0  0  0  0  0  0  0
    5.8137   -2.2700   -0.3742 C   0  0  0  0  0  0  0  0  0  0  0  0
    4.5359   -2.1939   -0.0686 N   0  0  0  0  0  0  0  0  0  0  0  0
    6.7722   -2.7202    0.7171 C   0  0  0  0  0  0  0  0  0  0  0  0
    6.0636   -3.3639    1.7223 F   0  0  0  0  0  0  0  0  0  0  0  0
    7.2520   -1.5563    1.3180 F   0  0  0  0  0  0  0  0  0  0  0  0
    7.7158   -3.5491    0.2643 F   0  0  0  0  0  0  0  0  0  0  0  0
    0.8633    1.8109    0.4488 C   0  0  0  0  0  0  0  0  0  0  0  0
    1.4895    2.6418   -0.4233 C   0  0  0  0  0  0  0  0  0  0  0  0
    1.5233    3.9957   -0.2171 C   0  0  0  0  0  0  0  0  0  0  0  0
    0.9080    4.5583    0.9045 C   0  0  0  0  0  0  0  0  0  0  0  0
    0.2730    3.7048    1.7903 C   0  0  0  0  0  0  0  0  0  0  0  0
    0.2543    2.3189    1.5546 C   0  0  0  0  0  0  0  0  0  0  0  0
    0.9682    5.9687    1.0637 C   0  0  0  0  0  0  0  0  0  0  0  0
    1.0317    7.1209    1.1823 N   0  0  0  0  0  0  0  0  0  0  0  0
   -5.3666    1.4219    0.8029 H   0  0  0  0  0  0  0  0  0  0  0  0
   -4.3864    2.4568    1.8136 H   0  0  0  0  0  0  0  0  0  0  0  0
   -2.8931   -0.8286   -1.6686 H   0  0  0  0  0  0  0  0  0  0  0  0
   -3.3597    0.8330   -1.1880 H   0  0  0  0  0  0  0  0  0  0  0  0
   -5.5682    0.4235   -1.3623 H   0  0  0  0  0  0  0  0  0  0  0  0
   -5.0351   -1.0622   -2.1575 H   0  0  0  0  0  0  0  0  0  0  0  0
   -6.5438   -1.8463   -0.5985 H   0  0  0  0  0  0  0  0  0  0  0  0
   -5.7955   -0.9478    0.7849 H   0  0  0  0  0  0  0  0  0  0  0  0
   -4.9429   -3.3930    0.6105 H   0  0  0  0  0  0  0  0  0  0  0  0
   -4.0979   -2.7593   -0.9166 H   0  0  0  0  0  0  0  0  0  0  0  0
   -2.5615   -2.5800    0.8182 H   0  0  0  0  0  0  0  0  0  0  0  0
   -3.7848   -1.9262    1.9427 H   0  0  0  0  0  0  0  0  0  0  0  0
   -1.2662   -0.7464    1.5280 H   0  0  0  0  0  0  0  0  0  0  0  0
    0.6582   -0.1707    1.2739 H   0  0  0  0  0  0  0  0  0  0  0  0
    2.4623    0.5193   -1.0033 H   0  0  0  0  0  0  0  0  0  0  0  0
    3.4228   -0.9566   -2.9944 H   0  0  0  0  0  0  0  0  0  0  0  0
    7.2812   -1.9823   -1.8008 H   0  0  0  0  0  0  0  0  0  0  0  0
    1.9850    2.2902   -1.3163 H   0  0  0  0  0  0  0  0  0  0  0  0
    2.0351    4.6370   -0.9470 H   0  0  0  0  0  0  0  0  0  0  0  0
   -0.1899    4.1532    2.6275 H   0  0  0  0  0  0  0  0  0  0  0  0
   -0.2549    1.7392    2.2878 H   0  0  0  0  0  0  0  0  0  0  0  0
  1  2  1  0
  2  3  2  0
  2  4  1  0
  4  5  1  0
  5  6  1  0
  6  7  1  0
  7  8  1  0
  8  9  1  0
  4 10  1  0
 10 11  1  0
 11 12  2  0
 11 13  1  0
 13 14  1  0
 14 15  1  0
 15 16  2  0
 15 17  1  0
 17 18  2  0
 18 19  1  0
 19 20  2  0
 19 21  1  0
 21 22  1  0
 22 23  2  0
 22 24  1  0
 24 25  1  0
 24 26  1  0
 24 27  1  0
 13 28  1  0
 28 29  2  0
 29 30  1  0
 30 31  2  0
 31 32  1  0
 32 33  2  0
 31 34  1  0
 34 35  3  0
  9  4  1  0
 23 17  1  0
 33 28  1  0
  1 36  1  0
  1 37  1  0
  5 38  1  0
  5 39  1  0
  6 40  1  0
  6 41  1  0
  7 42  1  0
  7 43  1  0
  8 44  1  0
  8 45  1  0
  9 46  1  0
  9 47  1  0
 10 48  1  0
 13 49  1  1
 14 50  1  0
 18 51  1  0
 21 52  1  0
 29 53  1  0
 30 54  1  0
 32 55  1  0
 33 56  1  0
M  END
$$$$
[H]c1c(-c2c([H])c([H])c(F)c([H])c2[H])oc(C([H])([H])N([H])C([H])([H])C([H])([H])C([H])([H])N2C([H])([H])C([H])([H])C([H])([H])C([H])([H])C2([H])[H])c1[H]
     RDKit          3D

 48 50  0  0  0  0  0  0  0  0999 V2000
   -9.6955    1.2165   -0.7495 F   0  0  0  0  0  0  0  0  0  0  0  0
   -8.4670    0.7310   -0.4562 C   0  0  0  0  0  0  0  0  0  0  0  0
   -7.3718    1.2210   -1.1537 C   0  0  0  0  0  0  0  0  0  0  0  0
   -6.1110    0.7380   -0.8708 C   0  0  0  0  0  0  0  0  0  0  0  0
   -5.8835   -0.2321    0.0964 C   0  0  0  0  0  0  0  0  0  0  0  0
   -6.9794   -0.7147    0.7867 C   0  0  0  0  0  0  0  0  0  0  0  0
   -8.2568   -0.2268    0.5016 C   0  0  0  0  0  0  0  0  0  0  0  0
   -4.5360   -0.7143    0.3494 C   0  0  0  0  0  0  0  0  0  0  0  0
   -4.1612   -1.6400    1.2929 C   0  0  0  0  0  0  0  0  0  0  0  0
   -2.7853   -1.7921    1.1771 C   0  0  0  0  0  0  0  0  0  0  0  0
   -2.4112   -0.9578    0.1797 C   0  0  0  0  0  0  0  0  0  0  0  0
   -1.0010   -0.7842   -0.3038 C   0  0  0  0  0  0  0  0  0  0  0  0
   -0.0545   -0.8357    0.7486 N   0  0  0  0  0  0  0  0  0  0  0  0
    1.3365   -0.6634    0.3150 C   0  0  0  0  0  0  0  0  0  0  0  0
    1.6083    0.7219   -0.1408 C   0  0  0  0  0  0  0  0  0  0  0  0
    2.9074    1.0801   -0.7026 C   0  0  0  0  0  0  0  0  0  0  0  0
    4.0453    0.8560    0.1466 N   0  0  0  0  0  0  0  0  0  0  0  0
    5.1456    1.7447   -0.3303 C   0  0  0  0  0  0  0  0  0  0  0  0
    6.2204    1.0312   -1.0582 C   0  0  0  0  0  0  0  0  0  0  0  0
    6.8930   -0.0219   -0.1795 C   0  0  0  0  0  0  0  0  0  0  0  0
    5.8718   -0.5424    0.8244 C   0  0  0  0  0  0  0  0  0  0  0  0
    4.5537   -0.5133    0.0483 C   0  0  0  0  0  0  0  0  0  0  0  0
   -3.4644   -0.3134   -0.3130 O   0  0  0  0  0  0  0  0  0  0  0  0
   -7.5154    1.9695   -1.9052 H   0  0  0  0  0  0  0  0  0  0  0  0
   -5.2244    1.1077   -1.4076 H   0  0  0  0  0  0  0  0  0  0  0  0
   -6.8371   -1.4639    1.5391 H   0  0  0  0  0  0  0  0  0  0  0  0
   -9.1244   -0.5955    1.0333 H   0  0  0  0  0  0  0  0  0  0  0  0
   -4.7853   -2.1594    1.9941 H   0  0  0  0  0  0  0  0  0  0  0  0
   -2.2188   -2.4739    1.8112 H   0  0  0  0  0  0  0  0  0  0  0  0
   -0.8107   -1.6936   -0.9540 H   0  0  0  0  0  0  0  0  0  0  0  0
   -0.9266    0.0922   -0.9508 H   0  0  0  0  0  0  0  0  0  0  0  0
   -0.2683   -0.2943    1.5944 H   0  0  0  0  0  0  0  0  0  0  0  0
    1.5783   -1.4666   -0.3833 H   0  0  0  0  0  0  0  0  0  0  0  0
    1.8965   -0.9012    1.2811 H   0  0  0  0  0  0  0  0  0  0  0  0
    0.7548    1.0583   -0.8234 H   0  0  0  0  0  0  0  0  0  0  0  0
    1.3656    1.3749    0.7869 H   0  0  0  0  0  0  0  0  0  0  0  0
    3.0578    0.6435   -1.7246 H   0  0  0  0  0  0  0  0  0  0  0  0
    2.8991    2.2075   -0.8731 H   0  0  0  0  0  0  0  0  0  0  0  0
    5.5509    2.2110    0.5745 H   0  0  0  0  0  0  0  0  0  0  0  0
    4.6863    2.5033   -0.9750 H   0  0  0  0  0  0  0  0  0  0  0  0
    5.9281    0.5922   -2.0321 H   0  0  0  0  0  0  0  0  0  0  0  0
    7.0182    1.7728   -1.2844 H   0  0  0  0  0  0  0  0  0  0  0  0
    7.7556    0.3698    0.3801 H   0  0  0  0  0  0  0  0  0  0  0  0
    7.2329   -0.8772   -0.7866 H   0  0  0  0  0  0  0  0  0  0  0  0
    6.1574   -1.5403    1.1458 H   0  0  0  0  0  0  0  0  0  0  0  0
    5.7945    0.2100    1.6242 H   0  0  0  0  0  0  0  0  0  0  0  0
    4.7279   -0.8207   -1.0042 H   0  0  0  0  0  0  0  0  0  0  0  0
    3.9038   -1.2141    0.5435 H   0  0  0  0  0  0  0  0  0  0  0  0
  1  2  1  0
  2  3  2  0
  3  4  1  0
  4  5  2  0
  5  6  1  0
  6  7  2  0
  5  8  1  0
  8  9  2  0
  9 10  1  0
 10 11  2  0
 11 12  1  0
 12 13  1  0
 13 14  1  0
 14 15  1  0
 15 16  1  0
 16 17  1  0
 17 18  1  0
 18 19  1  0
 19 20  1  0
 20 21  1  0
 21 22  1  0
 11 23  1  0
  7  2  1  0
 23  8  1  0
 22 17  1  0
  3 24  1  0
  4 25  1  0
  6 26  1  0
  7 27  1  0
  9 28  1  0
 10 29  1  0
 12 30  1  0
 12 31  1  0
 13 32  1  0
 14 33  1  0
 14 34  1  0
 15 35  1  0
 15 36  1  0
 16 37  1  0
 16 38  1  0
 18 39  1  0
 18 40  1  0
 19 41  1  0
 19 42  1  0
 20 43  1  0
 20 44  1  0
 21 45  1  0
 21 46  1  0
 22 47  1  0
 22 48  1  0
M  END
$$$$
[H]c1nc2c(OC([H])([H])[H])c([H])c(-c3c([H])nc(OC([H])([H])[H])c(N([H])S(=O)(=O)C([H])([H])[H])c3[H])nc2nc1F
     RDKit          3D

 40 42  0  0  0  0  0  0  0  0999 V2000
    4.3706   -2.5143   -2.6073 C   0  0  0  0  0  0  0  0  0  0  0  0
    4.1133   -1.2788   -2.0042 O   0  0  0  0  0  0  0  0  0  0  0  0
    2.8399   -1.0001   -1.4870 C   0  0  0  0  0  0  0  0  0  0  0  0
    1.8736   -1.9184   -1.5734 N   0  0  0  0  0  0  0  0  0  0  0  0
    0.6232   -1.7170   -1.0963 C   0  0  0  0  0  0  0  0  0  0  0  0
    0.3448   -0.5184   -0.5013 C   0  0  0  0  0  0  0  0  0  0  0  0
    1.3091    0.4646   -0.3868 C   0  0  0  0  0  0  0  0  0  0  0  0
    2.5609    0.2042   -0.8893 C   0  0  0  0  0  0  0  0  0  0  0  0
    3.5987    1.1881   -0.7977 N   0  0  0  0  0  0  0  0  0  0  0  0
    3.3375    2.6930   -0.0054 S   0  0  0  0  0  0  0  0  0  0  0  0
    2.9433    2.4774    1.6975 C   0  0  0  0  0  0  0  0  0  0  0  0
    4.6122    3.4979   -0.1043 O   0  0  0  0  0  0  0  0  0  0  0  0
    2.2160    3.4667   -0.6599 O   0  0  0  0  0  0  0  0  0  0  0  0
   -0.9820   -0.2632    0.0225 C   0  0  0  0  0  0  0  0  0  0  0  0
   -1.9836   -1.2037   -0.0561 C   0  0  0  0  0  0  0  0  0  0  0  0
   -3.2353   -0.9187    0.4578 C   0  0  0  0  0  0  0  0  0  0  0  0
   -4.3057   -1.7994    0.4261 O   0  0  0  0  0  0  0  0  0  0  0  0
   -4.1359   -3.0583   -0.1553 C   0  0  0  0  0  0  0  0  0  0  0  0
   -3.4346    0.3217    1.0404 C   0  0  0  0  0  0  0  0  0  0  0  0
   -4.6579    0.6070    1.5454 N   0  0  0  0  0  0  0  0  0  0  0  0
   -4.9340    1.7874    2.1272 C   0  0  0  0  0  0  0  0  0  0  0  0
   -3.9040    2.7020    2.1860 C   0  0  0  0  0  0  0  0  0  0  0  0
   -4.0832    3.9255    2.7550 F   0  0  0  0  0  0  0  0  0  0  0  0
   -2.6794    2.4493    1.6944 N   0  0  0  0  0  0  0  0  0  0  0  0
   -2.4137    1.2545    1.1098 C   0  0  0  0  0  0  0  0  0  0  0  0
   -1.2251    0.9445    0.6054 N   0  0  0  0  0  0  0  0  0  0  0  0
    4.8421   -3.1926   -1.8662 H   0  0  0  0  0  0  0  0  0  0  0  0
    4.9804   -2.3535   -3.5001 H   0  0  0  0  0  0  0  0  0  0  0  0
    3.4244   -3.0103   -2.9432 H   0  0  0  0  0  0  0  0  0  0  0  0
   -0.0803   -2.5279   -1.2193 H   0  0  0  0  0  0  0  0  0  0  0  0
    1.0718    1.4289    0.0972 H   0  0  0  0  0  0  0  0  0  0  0  0
    4.5354    1.0006   -1.2155 H   0  0  0  0  0  0  0  0  0  0  0  0
    3.5928    3.1322    2.2998 H   0  0  0  0  0  0  0  0  0  0  0  0
    1.8819    2.7496    1.9269 H   0  0  0  0  0  0  0  0  0  0  0  0
    3.1648    1.4285    2.0215 H   0  0  0  0  0  0  0  0  0  0  0  0
   -1.8654   -2.1717   -0.4999 H   0  0  0  0  0  0  0  0  0  0  0  0
   -3.1964   -3.5767    0.1233 H   0  0  0  0  0  0  0  0  0  0  0  0
   -4.9513   -3.7782    0.1495 H   0  0  0  0  0  0  0  0  0  0  0  0
   -4.2597   -2.9591   -1.2568 H   0  0  0  0  0  0  0  0  0  0  0  0
   -5.9089    2.0368    2.5395 H   0  0  0  0  0  0  0  0  0  0  0  0
  1  2  1  0
  2  3  1  0
  3  4  2  0
  4  5  1  0
  5  6  2  0
  6  7  1  0
  7  8  2  0
  8  9  1  0
  9 10  1  0
 10 11  1  0
 10 12  2  0
 10 13  2  0
  6 14  1  0
 14 15  2  0
 15 16  1  0
 16 17  1  0
 17 18  1  0
 16 19  2  0
 19 20  1  0
 20 21  2  0
 21 22  1  0
 22 23  1  0
 22 24  2  0
 24 25  1  0
 25 26  2  0
  8  3  1  0
 26 14  1  0
 25 19  1  0
  1 27  1  0
  1 28  1  0
  1 29  1  0
  5 30  1  0
  7 31  1  0
  9 32  1  0
 11 33  1  0
 11 34  1  0
 11 35  1  0
 15 36  1  0
 18 37  1  0
 18 38  1  0
 18 39  1  0
 21 40  1  0
M  END
$$$$
[H]OC(=O)c1c([H])c([H])c2nc(C([H])([H])[H])n(C([H])([H])c3c([H])c([H])c(-n4c([H])c([H])c(OC([H])([H])[H])c4[H])c([H])c3[H])c(=O)c2c1[H]
     RDKit          3D

 48 51  0  0  0  0  0  0  0  0999 V2000
    8.0545   -2.5359    1.8720 C   0  0  0  0  0  0  0  0  0  0  0  0
    6.9682   -2.7686    1.0260 O   0  0  0  0  0  0  0  0  0  0  0  0
    5.9734   -1.8065    0.8881 C   0  0  0  0  0  0  0  0  0  0  0  0
    5.9302   -0.5843    1.5218 C   0  0  0  0  0  0  0  0  0  0  0  0
    4.7825    0.0315    1.0950 C   0  0  0  0  0  0  0  0  0  0  0  0
    4.1108   -0.7473    0.2277 N   0  0  0  0  0  0  0  0  0  0  0  0
    4.8395   -1.8708    0.1018 C   0  0  0  0  0  0  0  0  0  0  0  0
    2.8832   -0.4037   -0.3998 C   0  0  0  0  0  0  0  0  0  0  0  0
    2.6646    0.7990   -1.0264 C   0  0  0  0  0  0  0  0  0  0  0  0
    1.4679    1.1206   -1.6319 C   0  0  0  0  0  0  0  0  0  0  0  0
    0.3871    0.2284   -1.6441 C   0  0  0  0  0  0  0  0  0  0  0  0
   -0.8569    0.6623   -2.3012 C   0  0  0  0  0  0  0  0  0  0  0  0
   -1.9542    0.9338   -1.4378 N   0  0  0  0  0  0  0  0  0  0  0  0
   -2.0951    2.1552   -0.8933 C   0  0  0  0  0  0  0  0  0  0  0  0
   -1.1880    3.2960   -1.1073 C   0  0  0  0  0  0  0  0  0  0  0  0
   -3.1607    2.4210   -0.0741 N   0  0  0  0  0  0  0  0  0  0  0  0
   -4.0970    1.5202    0.2277 C   0  0  0  0  0  0  0  0  0  0  0  0
   -5.1730    1.7983    1.0590 C   0  0  0  0  0  0  0  0  0  0  0  0
   -6.1165    0.8322    1.3414 C   0  0  0  0  0  0  0  0  0  0  0  0
   -6.0280   -0.4442    0.8104 C   0  0  0  0  0  0  0  0  0  0  0  0
   -4.9433   -0.6800   -0.0112 C   0  0  0  0  0  0  0  0  0  0  0  0
   -3.9889    0.2766   -0.3045 C   0  0  0  0  0  0  0  0  0  0  0  0
   -2.9118    0.0253   -1.1263 C   0  0  0  0  0  0  0  0  0  0  0  0
   -2.8118   -1.1192   -1.6227 O   0  0  0  0  0  0  0  0  0  0  0  0
   -7.0258   -1.4601    1.1112 C   0  0  0  0  0  0  0  0  0  0  0  0
   -8.0873   -1.1552    1.9426 O   0  0  0  0  0  0  0  0  0  0  0  0
   -6.9604   -2.6174    0.6398 O   0  0  0  0  0  0  0  0  0  0  0  0
    0.6028   -0.9725   -1.0204 C   0  0  0  0  0  0  0  0  0  0  0  0
    1.8280   -1.2821   -0.4097 C   0  0  0  0  0  0  0  0  0  0  0  0
    8.3328   -1.4635    1.7888 H   0  0  0  0  0  0  0  0  0  0  0  0
    7.8009   -2.6965    2.9459 H   0  0  0  0  0  0  0  0  0  0  0  0
    8.9469   -3.1293    1.6563 H   0  0  0  0  0  0  0  0  0  0  0  0
    6.6666   -0.1773    2.2305 H   0  0  0  0  0  0  0  0  0  0  0  0
    4.4340    1.0177    1.3985 H   0  0  0  0  0  0  0  0  0  0  0  0
    4.5580   -2.7028   -0.5357 H   0  0  0  0  0  0  0  0  0  0  0  0
    3.5093    1.5021   -1.0186 H   0  0  0  0  0  0  0  0  0  0  0  0
    1.3744    2.0779   -2.1239 H   0  0  0  0  0  0  0  0  0  0  0  0
   -1.1103   -0.1860   -3.0140 H   0  0  0  0  0  0  0  0  0  0  0  0
   -0.6616    1.5083   -3.0280 H   0  0  0  0  0  0  0  0  0  0  0  0
   -1.7568    4.2438   -1.0217 H   0  0  0  0  0  0  0  0  0  0  0  0
   -0.4321    3.3049   -0.2853 H   0  0  0  0  0  0  0  0  0  0  0  0
   -0.7227    3.3210   -2.1104 H   0  0  0  0  0  0  0  0  0  0  0  0
   -5.2249    2.8049    1.4656 H   0  0  0  0  0  0  0  0  0  0  0  0
   -6.9437    1.0711    1.9897 H   0  0  0  0  0  0  0  0  0  0  0  0
   -4.8297   -1.6622   -0.4505 H   0  0  0  0  0  0  0  0  0  0  0  0
   -8.7998   -0.5464    1.6050 H   0  0  0  0  0  0  0  0  0  0  0  0
   -0.1924   -1.6976   -1.0067 H   0  0  0  0  0  0  0  0  0  0  0  0
    1.9572   -2.2429    0.0730 H   0  0  0  0  0  0  0  0  0  0  0  0
  1  2  1  0
  2  3  1  0
  3  4  1  0
  4  5  2  0
  5  6  1  0
  6  7  1  0
  6  8  1  0
  8  9  2  0
  9 10  1  0
 10 11  2  0
 11 12  1  0
 12 13  1  0
 13 14  1  0
 14 15  1  0
 14 16  2  0
 16 17  1  0
 17 18  2  0
 18 19  1  0
 19 20  2  0
 20 21  1  0
 21 22  2  0
 22 23  1  0
 23 24  2  0
 20 25  1  0
 25 26  1  0
 25 27  2  0
 11 28  1  0
 28 29  2  0
  7  3  2  0
 29  8  1  0
 23 13  1  0
 22 17  1  0
  1 30  1  0
  1 31  1  0
  1 32  1  0
  4 33  1  0
  5 34  1  0
  7 35  1  0
  9 36  1  0
 10 37  1  0
 12 38  1  0
 12 39  1  0
 15 40  1  0
 15 41  1  0
 15 42  1  0
 18 43  1  0
 19 44  1  0
 21 45  1  0
 26 46  1  0
 28 47  1  0
 29 48  1  0
M  END
$$$$
[H]c1c([H])c([H])c(C([H])([H])OC(=O)N([H])C([H])([H])C#CC([H])([H])C([H])([H])C([H])([H])Oc2c([H])c([H])c(C([H])([H])N3C([H])([H])C([H])([H])N([H])C([H])([H])C3([H])[H])c([H])c2[H])c([H])c1[H]
     RDKit          3D

 62 64  0  0  0  0  0  0  0  0999 V2000
    5.5547    0.2479   -0.5385 O   0  0  0  0  0  0  0  0  0  0  0  0
    5.9678    1.3495   -1.0210 C   0  0  0  0  0  0  0  0  0  0  0  0
    5.2461    2.5582   -0.8415 N   0  0  0  0  0  0  0  0  0  0  0  0
    4.0138    2.5107   -0.0875 C   0  0  0  0  0  0  0  0  0  0  0  0
    3.0229    1.6169   -0.6928 C   0  0  0  0  0  0  0  0  0  0  0  0
    2.1912    0.8913   -1.1888 C   0  0  0  0  0  0  0  0  0  0  0  0
    1.1861    0.0344   -1.8000 C   0  0  0  0  0  0  0  0  0  0  0  0
    0.6753   -0.9287   -0.7150 C   0  0  0  0  0  0  0  0  0  0  0  0
   -0.3479   -1.7903   -1.3669 C   0  0  0  0  0  0  0  0  0  0  0  0
   -1.4541   -1.1965   -1.9042 O   0  0  0  0  0  0  0  0  0  0  0  0
   -2.4485   -0.5310   -1.2292 C   0  0  0  0  0  0  0  0  0  0  0  0
   -2.5347   -0.3737    0.1344 C   0  0  0  0  0  0  0  0  0  0  0  0
   -3.5796    0.3252    0.7390 C   0  0  0  0  0  0  0  0  0  0  0  0
   -4.5855    0.8964    0.0020 C   0  0  0  0  0  0  0  0  0  0  0  0
   -5.7055    1.6401    0.5930 C   0  0  0  0  0  0  0  0  0  0  0  0
   -6.8603    0.8683    0.8878 N   0  0  0  0  0  0  0  0  0  0  0  0
   -7.4483    0.2206   -0.2516 C   0  0  0  0  0  0  0  0  0  0  0  0
   -8.7906   -0.3710    0.0306 C   0  0  0  0  0  0  0  0  0  0  0  0
   -8.8424   -1.0829    1.2901 N   0  0  0  0  0  0  0  0  0  0  0  0
   -7.5304   -1.2373    1.8833 C   0  0  0  0  0  0  0  0  0  0  0  0
   -6.8326    0.0905    2.0774 C   0  0  0  0  0  0  0  0  0  0  0  0
   -4.5018    0.7389   -1.3659 C   0  0  0  0  0  0  0  0  0  0  0  0
   -3.4894    0.0603   -1.9796 C   0  0  0  0  0  0  0  0  0  0  0  0
    7.1475    1.3407   -1.7311 O   0  0  0  0  0  0  0  0  0  0  0  0
    7.8445    0.1269   -1.8932 C   0  0  0  0  0  0  0  0  0  0  0  0
    8.2226   -0.4224   -0.5910 C   0  0  0  0  0  0  0  0  0  0  0  0
    8.9093    0.3425    0.3211 C   0  0  0  0  0  0  0  0  0  0  0  0
    9.2690   -0.1741    1.5408 C   0  0  0  0  0  0  0  0  0  0  0  0
    8.9512   -1.4719    1.8817 C   0  0  0  0  0  0  0  0  0  0  0  0
    8.2669   -2.2453    0.9815 C   0  0  0  0  0  0  0  0  0  0  0  0
    7.9043   -1.7243   -0.2479 C   0  0  0  0  0  0  0  0  0  0  0  0
    5.6185    3.4332   -1.2516 H   0  0  0  0  0  0  0  0  0  0  0  0
    4.2807    2.0682    0.9160 H   0  0  0  0  0  0  0  0  0  0  0  0
    3.5699    3.5216    0.0281 H   0  0  0  0  0  0  0  0  0  0  0  0
    0.3579    0.6315   -2.1970 H   0  0  0  0  0  0  0  0  0  0  0  0
    1.6015   -0.5738   -2.6453 H   0  0  0  0  0  0  0  0  0  0  0  0
    0.2715   -0.3515    0.1065 H   0  0  0  0  0  0  0  0  0  0  0  0
    1.5356   -1.5204   -0.3101 H   0  0  0  0  0  0  0  0  0  0  0  0
    0.2156   -2.4254   -2.1172 H   0  0  0  0  0  0  0  0  0  0  0  0
   -0.6342   -2.5756   -0.5843 H   0  0  0  0  0  0  0  0  0  0  0  0
   -1.7697   -0.8393    0.7620 H   0  0  0  0  0  0  0  0  0  0  0  0
   -3.5971    0.4192    1.8118 H   0  0  0  0  0  0  0  0  0  0  0  0
   -6.0353    2.4966   -0.0662 H   0  0  0  0  0  0  0  0  0  0  0  0
   -5.4018    2.1559    1.5513 H   0  0  0  0  0  0  0  0  0  0  0  0
   -6.8092   -0.5800   -0.6753 H   0  0  0  0  0  0  0  0  0  0  0  0
   -7.5673    0.9861   -1.0500 H   0  0  0  0  0  0  0  0  0  0  0  0
   -9.6078    0.4043   -0.0106 H   0  0  0  0  0  0  0  0  0  0  0  0
   -9.0293   -1.0996   -0.7714 H   0  0  0  0  0  0  0  0  0  0  0  0
   -9.4607   -0.5593    1.9281 H   0  0  0  0  0  0  0  0  0  0  0  0
   -7.6403   -1.7091    2.8662 H   0  0  0  0  0  0  0  0  0  0  0  0
   -6.9284   -1.9042    1.2541 H   0  0  0  0  0  0  0  0  0  0  0  0
   -5.8410   -0.0867    2.4861 H   0  0  0  0  0  0  0  0  0  0  0  0
   -7.4176    0.6336    2.8634 H   0  0  0  0  0  0  0  0  0  0  0  0
   -5.2651    1.1633   -2.0355 H   0  0  0  0  0  0  0  0  0  0  0  0
   -3.4390   -0.0528   -3.0408 H   0  0  0  0  0  0  0  0  0  0  0  0
    8.7271    0.3335   -2.5359 H   0  0  0  0  0  0  0  0  0  0  0  0
    7.2370   -0.6239   -2.4660 H   0  0  0  0  0  0  0  0  0  0  0  0
    9.1780    1.3670    0.0920 H   0  0  0  0  0  0  0  0  0  0  0  0
    9.8031    0.4227    2.2488 H   0  0  0  0  0  0  0  0  0  0  0  0
    9.2508   -1.8343    2.8427 H   0  0  0  0  0  0  0  0  0  0  0  0
    8.0095   -3.2732    1.2392 H   0  0  0  0  0  0  0  0  0  0  0  0
    7.3659   -2.3380   -0.9520 H   0  0  0  0  0  0  0  0  0  0  0  0
  1  2  2  0
  2  3  1  0
  3  4  1  0
  4  5  1  0
  5  6  3  0
  6  7  1  0
  7  8  1  0
  8  9  1  0
  9 10  1  0
 10 11  1  0
 11 12  2  0
 12 13  1  0
 13 14  2  0
 14 15  1  0
 15 16  1  0
 16 17  1  0
 17 18  1  0
 18 19  1  0
 19 20  1  0
 20 21  1  0
 14 22  1  0
 22 23  2  0
  2 24  1  0
 24 25  1  0
 25 26  1  0
 26 27  2  0
 27 28  1  0
 28 29  2  0
 29 30  1  0
 30 31  2  0
 23 11  1  0
 31 26  1  0
 21 16  1  0
  3 32  1  0
  4 33  1  0
  4 34  1  0
  7 35  1  0
  7 36  1  0
  8 37  1  0
  8 38  1  0
  9 39  1  0
  9 40  1  0
 12 41  1  0
 13 42  1  0
 15 43  1  0
 15 44  1  0
 17 45  1  0
 17 46  1  0
 18 47  1  0
 18 48  1  0
 19 49  1  0
 20 50  1  0
 20 51  1  0
 21 52  1  0
 21 53  1  0
 22 54  1  0
 23 55  1  0
 25 56  1  0
 25 57  1  0
 27 58  1  0
 28 59  1  0
 29 60  1  0
 30 61  1  0
 31 62  1  0
M  END
$$$$
[H]c1c(N2C([H])([H])c3sc(C#Cc4c([H])c([H])c([H])c([H])c4F)nc3C([H])([H])C2([H])[H])nc(C([H])([H])[H])c([H])c1[H]
     RDKit          3D

 41 44  0  0  0  0  0  0  0  0999 V2000
    6.7332    1.8457    0.6828 C   0  0  0  0  0  0  0  0  0  0  0  0
    6.0558    0.5435    0.3614 C   0  0  0  0  0  0  0  0  0  0  0  0
    6.7641   -0.6340    0.3485 C   0  0  0  0  0  0  0  0  0  0  0  0
    6.1302   -1.8207    0.0524 C   0  0  0  0  0  0  0  0  0  0  0  0
    4.7763   -1.7690   -0.2249 C   0  0  0  0  0  0  0  0  0  0  0  0
    4.1141   -0.5839   -0.2017 C   0  0  0  0  0  0  0  0  0  0  0  0
    4.7613    0.5844    0.0949 N   0  0  0  0  0  0  0  0  0  0  0  0
    2.7274   -0.5088   -0.5007 N   0  0  0  0  0  0  0  0  0  0  0  0
    2.0701   -1.5364   -1.2319 C   0  0  0  0  0  0  0  0  0  0  0  0
    0.8495   -2.0647   -0.5125 C   0  0  0  0  0  0  0  0  0  0  0  0
   -0.0403   -0.8340   -0.2983 C   0  0  0  0  0  0  0  0  0  0  0  0
   -1.3599   -0.8662   -0.3153 N   0  0  0  0  0  0  0  0  0  0  0  0
   -2.0475    0.2235   -0.1247 C   0  0  0  0  0  0  0  0  0  0  0  0
   -0.8297    1.3974    0.0973 S   0  0  0  0  0  0  0  0  0  0  0  0
    0.5377    0.3849   -0.0736 C   0  0  0  0  0  0  0  0  0  0  0  0
    2.0056    0.6620   -0.0093 C   0  0  0  0  0  0  0  0  0  0  0  0
   -3.4943    0.4292   -0.0998 C   0  0  0  0  0  0  0  0  0  0  0  0
   -4.6895    0.5773   -0.0828 C   0  0  0  0  0  0  0  0  0  0  0  0
   -6.1157    0.7430   -0.0398 C   0  0  0  0  0  0  0  0  0  0  0  0
   -6.8769    0.9903   -1.1718 C   0  0  0  0  0  0  0  0  0  0  0  0
   -8.2490    1.1461   -1.1034 C   0  0  0  0  0  0  0  0  0  0  0  0
   -8.9183    1.0615    0.0980 C   0  0  0  0  0  0  0  0  0  0  0  0
   -8.1719    0.8161    1.2292 C   0  0  0  0  0  0  0  0  0  0  0  0
   -6.8040    0.6620    1.1522 C   0  0  0  0  0  0  0  0  0  0  0  0
   -6.0503    0.4178    2.2681 F   0  0  0  0  0  0  0  0  0  0  0  0
    7.7567    1.6393    1.0673 H   0  0  0  0  0  0  0  0  0  0  0  0
    6.1242    2.3600    1.4450 H   0  0  0  0  0  0  0  0  0  0  0  0
    6.7598    2.4799   -0.2086 H   0  0  0  0  0  0  0  0  0  0  0  0
    7.8399   -0.6251    0.5757 H   0  0  0  0  0  0  0  0  0  0  0  0
    6.6900   -2.7613    0.0408 H   0  0  0  0  0  0  0  0  0  0  0  0
    4.3227   -2.7225   -0.4410 H   0  0  0  0  0  0  0  0  0  0  0  0
    1.7163   -1.1826   -2.2461 H   0  0  0  0  0  0  0  0  0  0  0  0
    2.7430   -2.3656   -1.4490 H   0  0  0  0  0  0  0  0  0  0  0  0
    1.0925   -2.5361    0.4496 H   0  0  0  0  0  0  0  0  0  0  0  0
    0.3751   -2.7986   -1.1584 H   0  0  0  0  0  0  0  0  0  0  0  0
    2.2144    1.4725   -0.7177 H   0  0  0  0  0  0  0  0  0  0  0  0
    2.3494    0.8460    1.0170 H   0  0  0  0  0  0  0  0  0  0  0  0
   -6.3645    1.0569   -2.1046 H   0  0  0  0  0  0  0  0  0  0  0  0
   -8.8155    1.3395   -2.0136 H   0  0  0  0  0  0  0  0  0  0  0  0
  -10.0035    1.1868    0.1368 H   0  0  0  0  0  0  0  0  0  0  0  0
   -8.6785    0.7444    2.1940 H   0  0  0  0  0  0  0  0  0  0  0  0
  1  2  1  0
  2  3  2  0
  3  4  1  0
  4  5  2  0
  5  6  1  0
  6  7  2  0
  6  8  1  0
  8  9  1  0
  9 10  1  0
 10 11  1  0
 11 12  1  0
 12 13  2  0
 13 14  1  0
 14 15  1  0
 15 16  1  0
 13 17  1  0
 17 18  3  0
 18 19  1  0
 19 20  2  0
 20 21  1  0
 21 22  2  0
 22 23  1  0
 23 24  2  0
 24 25  1  0
  7  2  1  0
 16  8  1  0
 24 19  1  0
 15 11  2  0
  1 26  1  0
  1 27  1  0
  1 28  1  0
  3 29  1  0
  4 30  1  0
  5 31  1  0
  9 32  1  0
  9 33  1  0
 10 34  1  0
 10 35  1  0
 16 36  1  0
 16 37  1  0
 20 38  1  0
 21 39  1  0
 22 40  1  0
 23 41  1  0
M  END
$$$$
[H]c1c([H])c(N([H])C(=O)N([H])C2([H])C([H])([H])C([H])([H])C([H])([H])C([H])([H])C2([H])[H])c([H])c([H])c1SC([H])([H])C([H])([H])N1C([H])([H])C([H])([H])C([H])([H])C([H])([H])C1([H])[H]
     RDKit          3D

 56 58  0  0  0  0  0  0  0  0999 V2000
   -2.9398    1.1709   -0.7441 O   0  0  0  0  0  0  0  0  0  0  0  0
   -3.1080   -0.0224   -0.4254 C   0  0  0  0  0  0  0  0  0  0  0  0
   -4.4153   -0.3642    0.0380 N   0  0  0  0  0  0  0  0  0  0  0  0
   -5.4505    0.6292    0.1230 C   0  0  0  0  0  0  0  0  0  0  0  0
   -6.6104    0.1659   -0.7235 C   0  0  0  0  0  0  0  0  0  0  0  0
   -7.8011    1.0512   -0.4816 C   0  0  0  0  0  0  0  0  0  0  0  0
   -8.2352    0.9200    0.9585 C   0  0  0  0  0  0  0  0  0  0  0  0
   -7.1197    1.5043    1.8003 C   0  0  0  0  0  0  0  0  0  0  0  0
   -5.8379    0.7485    1.5871 C   0  0  0  0  0  0  0  0  0  0  0  0
   -2.1199   -1.0057   -0.4937 N   0  0  0  0  0  0  0  0  0  0  0  0
   -0.7842   -0.8508   -0.9174 C   0  0  0  0  0  0  0  0  0  0  0  0
    0.1264   -1.9019   -0.6773 C   0  0  0  0  0  0  0  0  0  0  0  0
    1.4360   -1.8469   -1.0550 C   0  0  0  0  0  0  0  0  0  0  0  0
    1.9230   -0.7377   -1.6959 C   0  0  0  0  0  0  0  0  0  0  0  0
    3.6480   -0.6321   -2.1417 S   0  0  0  0  0  0  0  0  0  0  0  0
    4.5848   -1.9857   -1.3601 C   0  0  0  0  0  0  0  0  0  0  0  0
    4.6618   -1.7516    0.1312 C   0  0  0  0  0  0  0  0  0  0  0  0
    5.3099   -0.5152    0.3861 N   0  0  0  0  0  0  0  0  0  0  0  0
    6.6881   -0.5141    0.0996 C   0  0  0  0  0  0  0  0  0  0  0  0
    7.3655    0.8224    0.3122 C   0  0  0  0  0  0  0  0  0  0  0  0
    6.8156    1.5972    1.4579 C   0  0  0  0  0  0  0  0  0  0  0  0
    5.3320    1.4821    1.6316 C   0  0  0  0  0  0  0  0  0  0  0  0
    5.0399   -0.0256    1.6958 C   0  0  0  0  0  0  0  0  0  0  0  0
    1.0779    0.3174   -1.9561 C   0  0  0  0  0  0  0  0  0  0  0  0
   -0.2603    0.2401   -1.5617 C   0  0  0  0  0  0  0  0  0  0  0  0
   -4.5827   -1.3727    0.3099 H   0  0  0  0  0  0  0  0  0  0  0  0
   -5.0524    1.5854   -0.2331 H   0  0  0  0  0  0  0  0  0  0  0  0
   -6.3189    0.3223   -1.7875 H   0  0  0  0  0  0  0  0  0  0  0  0
   -6.8445   -0.8956   -0.5256 H   0  0  0  0  0  0  0  0  0  0  0  0
   -8.6254    0.8183   -1.1898 H   0  0  0  0  0  0  0  0  0  0  0  0
   -7.5280    2.1072   -0.6593 H   0  0  0  0  0  0  0  0  0  0  0  0
   -8.3876   -0.1511    1.1683 H   0  0  0  0  0  0  0  0  0  0  0  0
   -9.1322    1.5209    1.1093 H   0  0  0  0  0  0  0  0  0  0  0  0
   -7.4138    1.3364    2.8640 H   0  0  0  0  0  0  0  0  0  0  0  0
   -7.0254    2.5691    1.5859 H   0  0  0  0  0  0  0  0  0  0  0  0
   -5.0252    1.3442    2.0533 H   0  0  0  0  0  0  0  0  0  0  0  0
   -5.8542   -0.2377    2.0740 H   0  0  0  0  0  0  0  0  0  0  0  0
   -2.4002   -1.9956   -0.1967 H   0  0  0  0  0  0  0  0  0  0  0  0
   -0.2370   -2.7739   -0.1761 H   0  0  0  0  0  0  0  0  0  0  0  0
    2.1188   -2.6732   -0.8810 H   0  0  0  0  0  0  0  0  0  0  0  0
    5.6015   -2.0494   -1.7603 H   0  0  0  0  0  0  0  0  0  0  0  0
    4.1073   -2.9685   -1.5724 H   0  0  0  0  0  0  0  0  0  0  0  0
    3.6334   -1.7519    0.5799 H   0  0  0  0  0  0  0  0  0  0  0  0
    5.1647   -2.6279    0.6022 H   0  0  0  0  0  0  0  0  0  0  0  0
    6.8658   -0.7649   -0.9648 H   0  0  0  0  0  0  0  0  0  0  0  0
    7.2200   -1.3216    0.6870 H   0  0  0  0  0  0  0  0  0  0  0  0
    7.4163    1.4228   -0.6249 H   0  0  0  0  0  0  0  0  0  0  0  0
    8.4369    0.5897    0.5729 H   0  0  0  0  0  0  0  0  0  0  0  0
    7.2809    1.3348    2.4442 H   0  0  0  0  0  0  0  0  0  0  0  0
    7.0400    2.6946    1.3103 H   0  0  0  0  0  0  0  0  0  0  0  0
    4.7737    1.8604    0.7555 H   0  0  0  0  0  0  0  0  0  0  0  0
    5.0405    1.9533    2.5848 H   0  0  0  0  0  0  0  0  0  0  0  0
    4.0115   -0.1990    2.0698 H   0  0  0  0  0  0  0  0  0  0  0  0
    5.8213   -0.4399    2.3879 H   0  0  0  0  0  0  0  0  0  0  0  0
    1.4533    1.1929   -2.4600 H   0  0  0  0  0  0  0  0  0  0  0  0
   -0.8847    1.0754   -1.7880 H   0  0  0  0  0  0  0  0  0  0  0  0
  1  2  2  0
  2  3  1  0
  3  4  1  0
  4  5  1  0
  5  6  1  0
  6  7  1  0
  7  8  1  0
  8  9  1  0
  2 10  1  0
 10 11  1  0
 11 12  2  0
 12 13  1  0
 13 14  2  0
 14 15  1  0
 15 16  1  0
 16 17  1  0
 17 18  1  0
 18 19  1  0
 19 20  1  0
 20 21  1  0
 21 22  1  0
 22 23  1  0
 14 24  1  0
 24 25  2  0
  9  4  1  0
 25 11  1  0
 23 18  1  0
  3 26  1  0
  4 27  1  0
  5 28  1  0
  5 29  1  0
  6 30  1  0
  6 31  1  0
  7 32  1  0
  7 33  1  0
  8 34  1  0
  8 35  1  0
  9 36  1  0
  9 37  1  0
 10 38  1  0
 12 39  1  0
 13 40  1  0
 16 41  1  0
 16 42  1  0
 17 43  1  0
 17 44  1  0
 19 45  1  0
 19 46  1  0
 20 47  1  0
 20 48  1  0
 21 49  1  0
 21 50  1  0
 22 51  1  0
 22 52  1  0
 23 53  1  0
 23 54  1  0
 24 55  1  0
 25 56  1  0
M  END
$$$$
[H]/C(C(=O)N1C([H])([H])C([H])([H])C([H])([H])C1([H])C(=O)N1C([H])([H])[C@]2([H])C([H])([H])[C@@]([H])(N(c3nc([H])nc4c3c([H])c([H])n4[H])C([H])([H])[H])C([H])([H])[C@]12[H])=C(/[H])C([H])([H])[H]
     RDKit          3D

 58 62  0  0  0  0  0  0  0  0999 V2000
   -7.2967    3.3441   -0.6693 C   0  0  0  0  0  0  0  0  0  0  0  0
   -6.3658    2.1897   -0.3812 C   0  0  0  0  0  0  0  0  0  0  0  0
   -5.1262    2.3768   -0.0823 C   0  0  0  0  0  0  0  0  0  0  0  0
   -4.1024    1.4240    0.2208 C   0  0  0  0  0  0  0  0  0  0  0  0
   -2.9250    1.9037    0.4497 O   0  0  0  0  0  0  0  0  0  0  0  0
   -4.1854    0.0191    0.3069 N   0  0  0  0  0  0  0  0  0  0  0  0
   -5.3852   -0.7705    0.2330 C   0  0  0  0  0  0  0  0  0  0  0  0
   -4.9433   -2.1491    0.7661 C   0  0  0  0  0  0  0  0  0  0  0  0
   -3.5764   -2.2170    0.1638 C   0  0  0  0  0  0  0  0  0  0  0  0
   -3.0149   -0.8392    0.4567 C   0  0  0  0  0  0  0  0  0  0  0  0
   -1.9513   -0.5233   -0.5524 C   0  0  0  0  0  0  0  0  0  0  0  0
   -2.1205    0.1797   -1.5644 O   0  0  0  0  0  0  0  0  0  0  0  0
   -0.6835   -1.0804   -0.2999 N   0  0  0  0  0  0  0  0  0  0  0  0
   -0.0011   -1.9190    0.6890 C   0  0  0  0  0  0  0  0  0  0  0  0
    0.9667   -2.3705   -0.3747 C   0  0  2  0  0  0  0  0  0  0  0  0
    2.4142   -2.2446   -0.1106 C   0  0  0  0  0  0  0  0  0  0  0  0
    2.7302   -0.7973    0.1420 C   0  0  2  0  0  0  0  0  0  0  0  0
    1.5658   -0.0621   -0.4483 C   0  0  0  0  0  0  0  0  0  0  0  0
    0.5912   -1.0432   -1.0051 C   0  0  2  0  0  0  0  0  0  0  0  0
    3.9903   -0.4212   -0.5058 N   0  0  0  0  0  0  0  0  0  0  0  0
    4.0053   -0.4768   -1.9547 C   0  0  0  0  0  0  0  0  0  0  0  0
    5.1686   -0.0468    0.1553 C   0  0  0  0  0  0  0  0  0  0  0  0
    6.3173   -0.7816    0.0526 N   0  0  0  0  0  0  0  0  0  0  0  0
    7.4483   -0.4463    0.6805 C   0  0  0  0  0  0  0  0  0  0  0  0
    7.4826    0.6474    1.4460 N   0  0  0  0  0  0  0  0  0  0  0  0
    6.4038    1.4353    1.6098 C   0  0  0  0  0  0  0  0  0  0  0  0
    6.1989    2.5650    2.3118 N   0  0  0  0  0  0  0  0  0  0  0  0
    4.9337    2.9610    2.1381 C   0  0  0  0  0  0  0  0  0  0  0  0
    4.3064    2.0529    1.2946 C   0  0  0  0  0  0  0  0  0  0  0  0
    5.2283    1.0699    0.9456 C   0  0  0  0  0  0  0  0  0  0  0  0
   -6.7283    4.2959   -0.7061 H   0  0  0  0  0  0  0  0  0  0  0  0
   -7.9999    3.3693    0.1725 H   0  0  0  0  0  0  0  0  0  0  0  0
   -7.8006    3.1329   -1.6426 H   0  0  0  0  0  0  0  0  0  0  0  0
   -6.8111    1.2326   -0.4634 H   0  0  0  0  0  0  0  0  0  0  0  0
   -4.8262    3.4475   -0.0625 H   0  0  0  0  0  0  0  0  0  0  0  0
   -6.1670   -0.3823    0.9394 H   0  0  0  0  0  0  0  0  0  0  0  0
   -5.7663   -0.9546   -0.7829 H   0  0  0  0  0  0  0  0  0  0  0  0
   -4.8510   -2.1291    1.8642 H   0  0  0  0  0  0  0  0  0  0  0  0
   -5.6264   -2.9364    0.3901 H   0  0  0  0  0  0  0  0  0  0  0  0
   -3.6368   -2.3233   -0.9521 H   0  0  0  0  0  0  0  0  0  0  0  0
   -2.9773   -3.0326    0.6126 H   0  0  0  0  0  0  0  0  0  0  0  0
   -2.6300   -0.8517    1.4914 H   0  0  0  0  0  0  0  0  0  0  0  0
    0.4297   -1.3919    1.5407 H   0  0  0  0  0  0  0  0  0  0  0  0
   -0.6544   -2.7386    1.0266 H   0  0  0  0  0  0  0  0  0  0  0  0
    0.6266   -3.2192   -0.9903 H   0  0  0  0  0  0  0  0  0  0  0  0
    2.7602   -2.8908    0.7287 H   0  0  0  0  0  0  0  0  0  0  0  0
    2.9409   -2.5547   -1.0632 H   0  0  0  0  0  0  0  0  0  0  0  0
    2.8862   -0.6071    1.2244 H   0  0  0  0  0  0  0  0  0  0  0  0
    1.9205    0.6621   -1.2203 H   0  0  0  0  0  0  0  0  0  0  0  0
    1.1239    0.5313    0.4114 H   0  0  0  0  0  0  0  0  0  0  0  0
    0.5283   -1.0460   -2.1104 H   0  0  0  0  0  0  0  0  0  0  0  0
    3.0078   -0.5608   -2.4084 H   0  0  0  0  0  0  0  0  0  0  0  0
    4.6562   -1.3563   -2.2416 H   0  0  0  0  0  0  0  0  0  0  0  0
    4.5570    0.4051   -2.3932 H   0  0  0  0  0  0  0  0  0  0  0  0
    8.3396   -1.0388    0.5860 H   0  0  0  0  0  0  0  0  0  0  0  0
    6.8890    3.0728    2.9032 H   0  0  0  0  0  0  0  0  0  0  0  0
    4.4319    3.8241    2.5528 H   0  0  0  0  0  0  0  0  0  0  0  0
    3.3036    2.0609    0.9438 H   0  0  0  0  0  0  0  0  0  0  0  0
  1  2  1  0
  2  3  2  0
  3  4  1  0
  4  5  2  0
  4  6  1  0
  6  7  1  0
  7  8  1  0
  8  9  1  0
  9 10  1  0
 10 11  1  0
 11 12  2  0
 11 13  1  0
 13 14  1  0
 14 15  1  0
 15 16  1  0
 16 17  1  0
 17 18  1  0
 18 19  1  0
 17 20  1  0
 20 21  1  0
 20 22  1  0
 22 23  2  0
 23 24  1  0
 24 25  2  0
 25 26  1  0
 26 27  1  0
 27 28  1  0
 28 29  2  0
 29 30  1  0
 10  6  1  0
 19 13  1  0
 30 22  1  0
 19 15  1  0
 30 26  2  0
  1 31  1  0
  1 32  1  0
  1 33  1  0
  2 34  1  0
  3 35  1  0
  7 36  1  0
  7 37  1  0
  8 38  1  0
  8 39  1  0
  9 40  1  0
  9 41  1  0
 10 42  1  0
 14 43  1  0
 14 44  1  0
 15 45  1  6
 16 46  1  0
 16 47  1  0
 17 48  1  1
 18 49  1  0
 18 50  1  0
 19 51  1  6
 21 52  1  0
 21 53  1  0
 21 54  1  0
 24 55  1  0
 27 56  1  0
 28 57  1  0
 29 58  1  0
M  END
$$$$
[H]OC1(c2c([H])c([H])c([H])c(OC([H])([H])[H])c2[H])C([H])([H])N2C([H])([H])C([H])([H])C1([H])C([H])([H])C2([H])[H]
     RDKit          3D

 36 38  0  0  0  0  0  0  0  0999 V2000
    5.3914    0.7430   -0.3643 C   0  0  0  0  0  0  0  0  0  0  0  0
    4.0321    0.8297   -0.5818 O   0  0  0  0  0  0  0  0  0  0  0  0
    3.0668   -0.0674   -0.2609 C   0  0  0  0  0  0  0  0  0  0  0  0
    3.2872   -1.3259    0.3020 C   0  0  0  0  0  0  0  0  0  0  0  0
    2.2406   -2.1448    0.6164 C   0  0  0  0  0  0  0  0  0  0  0  0
    0.9258   -1.7113    0.3784 C   0  0  0  0  0  0  0  0  0  0  0  0
    0.6484   -0.4752   -0.1688 C   0  0  0  0  0  0  0  0  0  0  0  0
    1.7081    0.3180   -0.4905 C   0  0  0  0  0  0  0  0  0  0  0  0
   -0.6841    0.1607   -0.2010 C   0  0  0  0  0  0  0  0  0  0  0  0
   -0.3569    1.5413    0.1487 O   0  0  0  0  0  0  0  0  0  0  0  0
   -1.4506    0.2594   -1.4457 C   0  0  0  0  0  0  0  0  0  0  0  0
   -2.7765    0.7355   -1.0984 N   0  0  0  0  0  0  0  0  0  0  0  0
   -2.8202    1.6802   -0.0111 C   0  0  0  0  0  0  0  0  0  0  0  0
   -2.3415    1.0635    1.3008 C   0  0  0  0  0  0  0  0  0  0  0  0
   -1.6252   -0.2494    0.9097 C   0  0  0  0  0  0  0  0  0  0  0  0
   -2.7549   -1.1491    0.4320 C   0  0  0  0  0  0  0  0  0  0  0  0
   -3.5482   -0.4284   -0.6254 C   0  0  0  0  0  0  0  0  0  0  0  0
    5.9000    1.3475   -1.1552 H   0  0  0  0  0  0  0  0  0  0  0  0
    5.5270    1.3087    0.6678 H   0  0  0  0  0  0  0  0  0  0  0  0
    5.7623   -0.2682   -0.2163 H   0  0  0  0  0  0  0  0  0  0  0  0
    4.3251   -1.6170    0.5115 H   0  0  0  0  0  0  0  0  0  0  0  0
    2.4350   -3.1248    1.0047 H   0  0  0  0  0  0  0  0  0  0  0  0
    0.1043   -2.3283    0.6442 H   0  0  0  0  0  0  0  0  0  0  0  0
    1.6352    1.2923   -0.9887 H   0  0  0  0  0  0  0  0  0  0  0  0
    0.1898    1.4205    0.9682 H   0  0  0  0  0  0  0  0  0  0  0  0
   -0.9791    0.8896   -2.2304 H   0  0  0  0  0  0  0  0  0  0  0  0
   -1.5795   -0.7339   -1.9106 H   0  0  0  0  0  0  0  0  0  0  0  0
   -3.9201    1.9031    0.1358 H   0  0  0  0  0  0  0  0  0  0  0  0
   -2.3786    2.6686   -0.2132 H   0  0  0  0  0  0  0  0  0  0  0  0
   -3.1776    0.8103    1.9728 H   0  0  0  0  0  0  0  0  0  0  0  0
   -1.6597    1.7607    1.8508 H   0  0  0  0  0  0  0  0  0  0  0  0
   -1.1086   -0.6889    1.7644 H   0  0  0  0  0  0  0  0  0  0  0  0
   -2.3950   -2.0940    0.0330 H   0  0  0  0  0  0  0  0  0  0  0  0
   -3.4002   -1.2794    1.3562 H   0  0  0  0  0  0  0  0  0  0  0  0
   -3.7593   -1.0500   -1.4871 H   0  0  0  0  0  0  0  0  0  0  0  0
   -4.4635    0.0034   -0.1483 H   0  0  0  0  0  0  0  0  0  0  0  0
  1  2  1  0
  2  3  1  0
  3  4  2  0
  4  5  1  0
  5  6  2  0
  6  7  1  0
  7  8  2  0
  7  9  1  0
  9 10  1  0
  9 11  1  0
 11 12  1  0
 12 13  1  0
 13 14  1  0
 14 15  1  0
 15 16  1  0
 16 17  1  0
  8  3  1  0
 15  9  1  0
 17 12  1  0
  1 18  1  0
  1 19  1  0
  1 20  1  0
  4 21  1  0
  5 22  1  0
  6 23  1  0
  8 24  1  0
 10 25  1  0
 11 26  1  0
 11 27  1  0
 13 28  1  0
 13 29  1  0
 14 30  1  0
 14 31  1  0
 15 32  1  0
 16 33  1  0
 16 34  1  0
 17 35  1  0
 17 36  1  0
M  END
$$$$
[H]c1c([H])c([H])c(C2([H])C([H])([H])N(C(=O)O[C@@]3(C([H])([H])[H])C(C([H])([H])[H])(C([H])([H])[H])C([H])(OC(=O)N4C([H])([H])C([H])([H])OC([H])([H])C4([H])[H])[C@@]([H])(C([H])([H])[H])C3([H])[H])C2([H])[H])c([H])c1[H]
     RDKit          3D

 65 68  0  0  0  0  0  0  0  0999 V2000
   -2.8107    2.8025   -1.3931 C   0  0  0  0  0  0  0  0  0  0  0  0
   -2.0352    1.5195   -1.5883 C   0  0  1  0  0  0  0  0  0  0  0  0
   -0.5443    1.7642   -1.6818 C   0  0  0  0  0  0  0  0  0  0  0  0
   -0.0395    0.3051   -1.6228 C   0  0  1  0  0  0  0  0  0  0  0  0
   -0.2025   -0.2105   -3.0475 C   0  0  0  0  0  0  0  0  0  0  0  0
    1.2922    0.3978   -1.2388 O   0  0  0  0  0  0  0  0  0  0  0  0
    2.2079   -0.6116   -1.0612 C   0  0  0  0  0  0  0  0  0  0  0  0
    1.8104   -1.7910   -1.2732 O   0  0  0  0  0  0  0  0  0  0  0  0
    3.5590   -0.3552   -0.6534 N   0  0  0  0  0  0  0  0  0  0  0  0
    4.3893    0.7770   -0.3221 C   0  0  0  0  0  0  0  0  0  0  0  0
    5.5862   -0.0409   -0.7786 C   0  0  0  0  0  0  0  0  0  0  0  0
    4.6978   -1.2056   -0.3974 C   0  0  0  0  0  0  0  0  0  0  0  0
    6.7893    0.1009    0.0415 C   0  0  0  0  0  0  0  0  0  0  0  0
    8.0087    0.2849   -0.5729 C   0  0  0  0  0  0  0  0  0  0  0  0
    9.1814    0.4239    0.1779 C   0  0  0  0  0  0  0  0  0  0  0  0
    9.1167    0.3763    1.5481 C   0  0  0  0  0  0  0  0  0  0  0  0
    7.9144    0.1944    2.1701 C   0  0  0  0  0  0  0  0  0  0  0  0
    6.7491    0.0567    1.4076 C   0  0  0  0  0  0  0  0  0  0  0  0
   -0.9641   -0.3592   -0.6488 C   0  0  0  0  0  0  0  0  0  0  0  0
   -0.3494   -0.6853    0.6790 C   0  0  0  0  0  0  0  0  0  0  0  0
   -1.5947   -1.6261   -1.2053 C   0  0  0  0  0  0  0  0  0  0  0  0
   -2.0986    0.6313   -0.3709 C   0  0  0  0  0  0  0  0  0  0  0  0
   -3.3459   -0.0228   -0.2542 O   0  0  0  0  0  0  0  0  0  0  0  0
   -4.1465    0.0741    0.8742 C   0  0  0  0  0  0  0  0  0  0  0  0
   -3.7159    0.7812    1.8164 O   0  0  0  0  0  0  0  0  0  0  0  0
   -5.3922   -0.5686    1.0105 N   0  0  0  0  0  0  0  0  0  0  0  0
   -5.9179   -1.3883   -0.0547 C   0  0  0  0  0  0  0  0  0  0  0  0
   -7.3907   -0.9836   -0.2081 C   0  0  0  0  0  0  0  0  0  0  0  0
   -8.0657   -1.2193    0.9578 O   0  0  0  0  0  0  0  0  0  0  0  0
   -7.6358   -0.4432    2.0239 C   0  0  0  0  0  0  0  0  0  0  0  0
   -6.1551   -0.4174    2.2114 C   0  0  0  0  0  0  0  0  0  0  0  0
   -3.7013    2.5662   -0.7720 H   0  0  0  0  0  0  0  0  0  0  0  0
   -3.1852    3.1935   -2.3622 H   0  0  0  0  0  0  0  0  0  0  0  0
   -2.2323    3.5634   -0.8372 H   0  0  0  0  0  0  0  0  0  0  0  0
   -2.3391    0.9879   -2.5114 H   0  0  0  0  0  0  0  0  0  0  0  0
   -0.2450    2.3083   -0.7687 H   0  0  0  0  0  0  0  0  0  0  0  0
   -0.2422    2.2556   -2.6089 H   0  0  0  0  0  0  0  0  0  0  0  0
    0.4816   -1.0650   -3.2166 H   0  0  0  0  0  0  0  0  0  0  0  0
    0.1345    0.5833   -3.7788 H   0  0  0  0  0  0  0  0  0  0  0  0
   -1.2184   -0.5306   -3.2694 H   0  0  0  0  0  0  0  0  0  0  0  0
    4.2066    1.6862   -0.9271 H   0  0  0  0  0  0  0  0  0  0  0  0
    4.4424    0.9358    0.7665 H   0  0  0  0  0  0  0  0  0  0  0  0
    5.7370   -0.0108   -1.8748 H   0  0  0  0  0  0  0  0  0  0  0  0
    4.8005   -2.0731   -1.0817 H   0  0  0  0  0  0  0  0  0  0  0  0
    4.8245   -1.4539    0.6822 H   0  0  0  0  0  0  0  0  0  0  0  0
    8.0924    0.3272   -1.6505 H   0  0  0  0  0  0  0  0  0  0  0  0
   10.1473    0.5690   -0.2883 H   0  0  0  0  0  0  0  0  0  0  0  0
    9.9996    0.4794    2.1681 H   0  0  0  0  0  0  0  0  0  0  0  0
    7.7992    0.1479    3.2471 H   0  0  0  0  0  0  0  0  0  0  0  0
    5.8048   -0.0862    1.8875 H   0  0  0  0  0  0  0  0  0  0  0  0
   -1.1092   -0.4534    1.4850 H   0  0  0  0  0  0  0  0  0  0  0  0
   -0.1389   -1.7650    0.8302 H   0  0  0  0  0  0  0  0  0  0  0  0
    0.5224   -0.0399    0.9143 H   0  0  0  0  0  0  0  0  0  0  0  0
   -2.6205   -1.4016   -1.5717 H   0  0  0  0  0  0  0  0  0  0  0  0
   -0.9561   -2.0734   -1.9715 H   0  0  0  0  0  0  0  0  0  0  0  0
   -1.6948   -2.3400   -0.3693 H   0  0  0  0  0  0  0  0  0  0  0  0
   -1.8229    1.2221    0.5068 H   0  0  0  0  0  0  0  0  0  0  0  0
   -5.9091   -2.4478    0.2865 H   0  0  0  0  0  0  0  0  0  0  0  0
   -5.3895   -1.2460   -1.0088 H   0  0  0  0  0  0  0  0  0  0  0  0
   -7.8200   -1.5929   -1.0082 H   0  0  0  0  0  0  0  0  0  0  0  0
   -7.3729    0.0989   -0.4427 H   0  0  0  0  0  0  0  0  0  0  0  0
   -7.9612    0.6058    1.8118 H   0  0  0  0  0  0  0  0  0  0  0  0
   -8.1780   -0.7416    2.9447 H   0  0  0  0  0  0  0  0  0  0  0  0
   -5.8488    0.4977    2.7561 H   0  0  0  0  0  0  0  0  0  0  0  0
   -5.9050   -1.2681    2.9100 H   0  0  0  0  0  0  0  0  0  0  0  0
  1  2  1  0
  2  3  1  0
  3  4  1  0
  4  5  1  0
  4  6  1  1
  6  7  1  0
  7  8  2  0
  7  9  1  0
  9 10  1  0
 10 11  1  0
 11 12  1  0
 11 13  1  0
 13 14  2  0
 14 15  1  0
 15 16  2  0
 16 17  1  0
 17 18  2  0
  4 19  1  0
 19 20  1  0
 19 21  1  0
 19 22  1  0
 22 23  1  0
 23 24  1  0
 24 25  2  0
 24 26  1  0
 26 27  1  0
 27 28  1  0
 28 29  1  0
 29 30  1  0
 30 31  1  0
 22  2  1  0
 31 26  1  0
 12  9  1  0
 18 13  1  0
  1 32  1  0
  1 33  1  0
  1 34  1  0
  2 35  1  6
  3 36  1  0
  3 37  1  0
  5 38  1  0
  5 39  1  0
  5 40  1  0
 10 41  1  0
 10 42  1  0
 11 43  1  0
 12 44  1  0
 12 45  1  0
 14 46  1  0
 15 47  1  0
 16 48  1  0
 17 49  1  0
 18 50  1  0
 20 51  1  0
 20 52  1  0
 20 53  1  0
 21 54  1  0
 21 55  1  0
 21 56  1  0
 22 57  1  0
 27 58  1  0
 27 59  1  0
 28 60  1  0
 28 61  1  0
 30 62  1  0
 30 63  1  0
 31 64  1  0
 31 65  1  0
M  END
$$$$
[H]c1nc(C#Cc2c([H])c(O[C@@]([H])(C([H])([H])[H])C([H])([H])OC([H])([H])[H])c([H])c(C(=O)N([H])c3nn(C([H])([H])[H])c([H])c3[H])c2[H])sc1[H]
     RDKit          3D

 48 50  0  0  0  0  0  0  0  0999 V2000
    0.6078    6.1240    0.1484 C   0  0  0  0  0  0  0  0  0  0  0  0
   -0.7506    6.2200    0.0416 O   0  0  0  0  0  0  0  0  0  0  0  0
   -1.4813    5.0849    0.2323 C   0  0  0  0  0  0  0  0  0  0  0  0
   -1.1591    3.9972   -0.7380 C   0  0  2  0  0  0  0  0  0  0  0  0
   -1.5208    4.5437   -2.1282 C   0  0  0  0  0  0  0  0  0  0  0  0
   -1.8995    2.8390   -0.5669 O   0  0  0  0  0  0  0  0  0  0  0  0
   -1.4429    1.5531   -0.3692 C   0  0  0  0  0  0  0  0  0  0  0  0
   -2.3608    0.5189   -0.2180 C   0  0  0  0  0  0  0  0  0  0  0  0
   -1.9801   -0.7868   -0.0178 C   0  0  0  0  0  0  0  0  0  0  0  0
   -0.6090   -1.0951    0.0372 C   0  0  0  0  0  0  0  0  0  0  0  0
    0.3156   -0.0920   -0.1093 C   0  0  0  0  0  0  0  0  0  0  0  0
   -0.1179    1.1973   -0.3073 C   0  0  0  0  0  0  0  0  0  0  0  0
    1.7434   -0.4364   -0.0454 C   0  0  0  0  0  0  0  0  0  0  0  0
    2.5262    0.5303   -0.2991 O   0  0  0  0  0  0  0  0  0  0  0  0
    2.2254   -1.6928    0.2612 N   0  0  0  0  0  0  0  0  0  0  0  0
    3.5961   -2.0179    0.3210 C   0  0  0  0  0  0  0  0  0  0  0  0
    4.6827   -1.2196    0.1039 C   0  0  0  0  0  0  0  0  0  0  0  0
    5.8169   -2.0158    0.2857 C   0  0  0  0  0  0  0  0  0  0  0  0
    5.4131   -3.2519    0.6017 N   0  0  0  0  0  0  0  0  0  0  0  0
    6.3267   -4.3525    0.8632 C   0  0  0  0  0  0  0  0  0  0  0  0
    4.1141   -3.2427    0.6198 N   0  0  0  0  0  0  0  0  0  0  0  0
   -2.9370   -1.8527    0.1381 C   0  0  0  0  0  0  0  0  0  0  0  0
   -3.7515   -2.7327    0.2579 C   0  0  0  0  0  0  0  0  0  0  0  0
   -4.7560   -3.7794    0.4001 C   0  0  0  0  0  0  0  0  0  0  0  0
   -4.5560   -5.0639    0.6467 N   0  0  0  0  0  0  0  0  0  0  0  0
   -5.5656   -5.8670    0.7438 C   0  0  0  0  0  0  0  0  0  0  0  0
   -6.8213   -5.3365    0.5828 C   0  0  0  0  0  0  0  0  0  0  0  0
   -6.4565   -3.6873    0.2974 S   0  0  0  0  0  0  0  0  0  0  0  0
    1.1042    5.4379   -0.5610 H   0  0  0  0  0  0  0  0  0  0  0  0
    1.0162    7.1452   -0.1118 H   0  0  0  0  0  0  0  0  0  0  0  0
    0.9580    5.8268    1.1607 H   0  0  0  0  0  0  0  0  0  0  0  0
   -1.3232    4.7620    1.2998 H   0  0  0  0  0  0  0  0  0  0  0  0
   -2.5604    5.3754    0.1685 H   0  0  0  0  0  0  0  0  0  0  0  0
   -0.0660    3.8204   -0.7044 H   0  0  0  0  0  0  0  0  0  0  0  0
   -0.6163    4.9991   -2.5643 H   0  0  0  0  0  0  0  0  0  0  0  0
   -2.3790    5.2424   -2.0532 H   0  0  0  0  0  0  0  0  0  0  0  0
   -1.8479    3.7122   -2.7950 H   0  0  0  0  0  0  0  0  0  0  0  0
   -3.4007    0.7784   -0.2636 H   0  0  0  0  0  0  0  0  0  0  0  0
   -0.3760   -2.1348    0.1948 H   0  0  0  0  0  0  0  0  0  0  0  0
    0.6301    1.9570   -0.4179 H   0  0  0  0  0  0  0  0  0  0  0  0
    1.5522   -2.4652    0.4649 H   0  0  0  0  0  0  0  0  0  0  0  0
    4.7385   -0.1936   -0.1540 H   0  0  0  0  0  0  0  0  0  0  0  0
    6.8284   -1.6544    0.1792 H   0  0  0  0  0  0  0  0  0  0  0  0
    6.8101   -4.1782    1.8434 H   0  0  0  0  0  0  0  0  0  0  0  0
    7.1465   -4.3554    0.1096 H   0  0  0  0  0  0  0  0  0  0  0  0
    5.8065   -5.3411    0.8386 H   0  0  0  0  0  0  0  0  0  0  0  0
   -5.4332   -6.9528    0.9504 H   0  0  0  0  0  0  0  0  0  0  0  0
   -7.7897   -5.8670    0.6317 H   0  0  0  0  0  0  0  0  0  0  0  0
  1  2  1  0
  2  3  1  0
  3  4  1  0
  4  5  1  0
  4  6  1  0
  6  7  1  0
  7  8  2  0
  8  9  1  0
  9 10  2  0
 10 11  1  0
 11 12  2  0
 11 13  1  0
 13 14  2  0
 13 15  1  0
 15 16  1  0
 16 17  1  0
 17 18  2  0
 18 19  1  0
 19 20  1  0
 19 21  1  0
  9 22  1  0
 22 23  3  0
 23 24  1  0
 24 25  2  0
 25 26  1  0
 26 27  2  0
 27 28  1  0
 12  7  1  0
 21 16  2  0
 28 24  1  0
  1 29  1  0
  1 30  1  0
  1 31  1  0
  3 32  1  0
  3 33  1  0
  4 34  1  6
  5 35  1  0
  5 36  1  0
  5 37  1  0
  8 38  1  0
 10 39  1  0
 12 40  1  0
 15 41  1  0
 17 42  1  0
 18 43  1  0
 20 44  1  0
 20 45  1  0
 20 46  1  0
 26 47  1  0
 27 48  1  0
M  END
$$$$
[H]c1nc([H])c(C(=O)N([H])[H])c([H])c1Oc1c([H])c(N2C([H])([H])C([H])([H])N([H])C([H])([H])C2([H])[H])nc2c([H])c([H])c([H])c([H])c12
     RDKit          3D

 45 48  0  0  0  0  0  0  0  0999 V2000
    7.1518    2.2900   -0.1927 N   0  0  0  0  0  0  0  0  0  0  0  0
    5.9827    2.0973    0.5815 C   0  0  0  0  0  0  0  0  0  0  0  0
    5.9800    2.5040    1.7690 O   0  0  0  0  0  0  0  0  0  0  0  0
    4.8028    1.4413    0.0189 C   0  0  0  0  0  0  0  0  0  0  0  0
    4.8246    0.9984   -1.2951 C   0  0  0  0  0  0  0  0  0  0  0  0
    3.7533    0.3913   -1.8392 N   0  0  0  0  0  0  0  0  0  0  0  0
    2.6397    0.2065   -1.1065 C   0  0  0  0  0  0  0  0  0  0  0  0
    2.5553    0.6237    0.2042 C   0  0  0  0  0  0  0  0  0  0  0  0
    1.4419    0.4463    0.9585 O   0  0  0  0  0  0  0  0  0  0  0  0
    0.3211   -0.2872    0.7204 C   0  0  0  0  0  0  0  0  0  0  0  0
   -0.9186    0.3139    0.5210 C   0  0  0  0  0  0  0  0  0  0  0  0
   -2.0772   -0.3689    0.2773 C   0  0  0  0  0  0  0  0  0  0  0  0
   -1.9971   -1.7013    0.2309 N   0  0  0  0  0  0  0  0  0  0  0  0
   -0.8128   -2.3508    0.4197 C   0  0  0  0  0  0  0  0  0  0  0  0
   -0.8236   -3.7490    0.3730 C   0  0  0  0  0  0  0  0  0  0  0  0
    0.3564   -4.4270    0.5802 C   0  0  0  0  0  0  0  0  0  0  0  0
    1.5283   -3.7449    0.8298 C   0  0  0  0  0  0  0  0  0  0  0  0
    1.5325   -2.3702    0.8740 C   0  0  0  0  0  0  0  0  0  0  0  0
    0.3643   -1.6774    0.6672 C   0  0  0  0  0  0  0  0  0  0  0  0
   -3.3303    0.3206    0.0792 N   0  0  0  0  0  0  0  0  0  0  0  0
   -4.5246   -0.4330   -0.1742 C   0  0  0  0  0  0  0  0  0  0  0  0
   -5.5073    0.2407   -1.0658 C   0  0  0  0  0  0  0  0  0  0  0  0
   -5.4641    1.6569   -1.0745 N   0  0  0  0  0  0  0  0  0  0  0  0
   -4.7166    2.2685   -0.0344 C   0  0  0  0  0  0  0  0  0  0  0  0
   -3.3287    1.7463    0.1448 C   0  0  0  0  0  0  0  0  0  0  0  0
    3.6612    1.2491    0.7621 C   0  0  0  0  0  0  0  0  0  0  0  0
    8.0880    1.9004    0.0414 H   0  0  0  0  0  0  0  0  0  0  0  0
    7.0958    2.8632   -1.0699 H   0  0  0  0  0  0  0  0  0  0  0  0
    5.7258    1.1489   -1.8853 H   0  0  0  0  0  0  0  0  0  0  0  0
    1.7517   -0.2809   -1.5116 H   0  0  0  0  0  0  0  0  0  0  0  0
   -0.9812    1.3970    0.5594 H   0  0  0  0  0  0  0  0  0  0  0  0
   -1.7546   -4.2327    0.1770 H   0  0  0  0  0  0  0  0  0  0  0  0
    0.3394   -5.5215    0.5414 H   0  0  0  0  0  0  0  0  0  0  0  0
    2.4527   -4.3180    0.9916 H   0  0  0  0  0  0  0  0  0  0  0  0
    2.4457   -1.8318    1.0958 H   0  0  0  0  0  0  0  0  0  0  0  0
   -5.0275   -0.7637    0.7758 H   0  0  0  0  0  0  0  0  0  0  0  0
   -4.2100   -1.3846   -0.6691 H   0  0  0  0  0  0  0  0  0  0  0  0
   -5.4082   -0.1261   -2.1056 H   0  0  0  0  0  0  0  0  0  0  0  0
   -6.5426   -0.0670   -0.7427 H   0  0  0  0  0  0  0  0  0  0  0  0
   -5.4495    2.1170   -1.9875 H   0  0  0  0  0  0  0  0  0  0  0  0
   -4.6192    3.3643   -0.2911 H   0  0  0  0  0  0  0  0  0  0  0  0
   -5.2792    2.2709    0.9445 H   0  0  0  0  0  0  0  0  0  0  0  0
   -2.9807    2.0418    1.1587 H   0  0  0  0  0  0  0  0  0  0  0  0
   -2.6705    2.1447   -0.6444 H   0  0  0  0  0  0  0  0  0  0  0  0
    3.6292    1.5930    1.7995 H   0  0  0  0  0  0  0  0  0  0  0  0
  1  2  1  0
  2  3  2  0
  2  4  1  0
  4  5  2  0
  5  6  1  0
  6  7  2  0
  7  8  1  0
  8  9  1  0
  9 10  1  0
 10 11  2  0
 11 12  1  0
 12 13  2  0
 13 14  1  0
 14 15  2  0
 15 16  1  0
 16 17  2  0
 17 18  1  0
 18 19  2  0
 12 20  1  0
 20 21  1  0
 21 22  1  0
 22 23  1  0
 23 24  1  0
 24 25  1  0
  8 26  2  0
 26  4  1  0
 19 10  1  0
 25 20  1  0
 19 14  1  0
  1 27  1  0
  1 28  1  0
  5 29  1  0
  7 30  1  0
 11 31  1  0
 15 32  1  0
 16 33  1  0
 17 34  1  0
 18 35  1  0
 21 36  1  0
 21 37  1  0
 22 38  1  0
 22 39  1  0
 23 40  1  0
 24 41  1  0
 24 42  1  0
 25 43  1  0
 25 44  1  0
 26 45  1  0
M  END
$$$$
[H]OC([H])([H])[C@@]1([H])O[C@@]([H])(O[C@]2([H])O[C@]([H])(C([H])([H])O[H])[C@@]([H])(O[H])[C@]([H])(O[H])[C@]2([H])O[H])C(=O)N([H])[C@]1([H])C([H])([H])C(=O)O[C@]1([H])O[C@]([H])(C([H])([H])O[H])[C@]([H])(O[H])[C@]([H])(O[H])[C@@]1([H])O[H]
     RDKit          3D

 67 69  0  0  0  0  0  0  0  0999 V2000
   -0.5441   -4.5786    0.5594 O   0  0  0  0  0  0  0  0  0  0  0  0
    0.1753   -3.7261   -0.3013 C   0  0  0  0  0  0  0  0  0  0  0  0
   -0.1401   -2.2815    0.1595 C   0  0  1  0  0  0  0  0  0  0  0  0
   -1.4824   -2.1332    0.0466 O   0  0  0  0  0  0  0  0  0  0  0  0
   -2.1021   -1.0539    0.6232 C   0  0  1  0  0  0  0  0  0  0  0  0
   -3.4763   -1.2590    0.4801 O   0  0  0  0  0  0  0  0  0  0  0  0
   -4.1474   -0.1587   -0.0525 C   0  0  2  0  0  0  0  0  0  0  0  0
   -5.1232    0.1837    0.8592 O   0  0  0  0  0  0  0  0  0  0  0  0
   -5.9499    1.2065    0.5621 C   0  0  2  0  0  0  0  0  0  0  0  0
   -7.2615    0.9489    1.3237 C   0  0  0  0  0  0  0  0  0  0  0  0
   -8.2099    1.9139    1.1074 O   0  0  0  0  0  0  0  0  0  0  0  0
   -6.2823    1.4808   -0.8477 C   0  0  1  0  0  0  0  0  0  0  0  0
   -6.1896    2.8434   -1.1353 O   0  0  0  0  0  0  0  0  0  0  0  0
   -5.4408    0.7634   -1.8652 C   0  0  2  0  0  0  0  0  0  0  0  0
   -6.1925    0.5106   -3.0361 O   0  0  0  0  0  0  0  0  0  0  0  0
   -4.8710   -0.5258   -1.3335 C   0  0  2  0  0  0  0  0  0  0  0  0
   -5.9563   -1.3282   -0.9734 O   0  0  0  0  0  0  0  0  0  0  0  0
   -1.8152   -1.1878    2.1065 C   0  0  0  0  0  0  0  0  0  0  0  0
   -2.5426   -0.5825    2.8998 O   0  0  0  0  0  0  0  0  0  0  0  0
   -0.7005   -2.0231    2.4782 N   0  0  0  0  0  0  0  0  0  0  0  0
    0.4251   -2.1016    1.5279 C   0  0  2  0  0  0  0  0  0  0  0  0
    1.2040   -0.8407    1.7358 C   0  0  0  0  0  0  0  0  0  0  0  0
    2.3872   -0.6630    0.8916 C   0  0  0  0  0  0  0  0  0  0  0  0
    2.7235   -1.5165    0.0513 O   0  0  0  0  0  0  0  0  0  0  0  0
    3.1553    0.4677    1.0192 O   0  0  0  0  0  0  0  0  0  0  0  0
    4.3097    0.7319    0.2606 C   0  0  2  0  0  0  0  0  0  0  0  0
    5.4473    0.8462    1.0487 O   0  0  0  0  0  0  0  0  0  0  0  0
    6.5654    0.5740    0.2792 C   0  0  2  0  0  0  0  0  0  0  0  0
    7.7650    1.3582    0.7778 C   0  0  0  0  0  0  0  0  0  0  0  0
    8.0320    1.0080    2.1113 O   0  0  0  0  0  0  0  0  0  0  0  0
    6.3779    0.7842   -1.1932 C   0  0  2  0  0  0  0  0  0  0  0  0
    7.6089    1.1105   -1.8040 O   0  0  0  0  0  0  0  0  0  0  0  0
    5.4383    1.9234   -1.5216 C   0  0  2  0  0  0  0  0  0  0  0  0
    6.1710    3.1049   -1.4484 O   0  0  0  0  0  0  0  0  0  0  0  0
    4.2313    1.9608   -0.5898 C   0  0  1  0  0  0  0  0  0  0  0  0
    3.0968    1.9880   -1.3973 O   0  0  0  0  0  0  0  0  0  0  0  0
   -0.4595   -5.5144    0.3039 H   0  0  0  0  0  0  0  0  0  0  0  0
   -0.2084   -3.8987   -1.3246 H   0  0  0  0  0  0  0  0  0  0  0  0
    1.2549   -3.9305   -0.2291 H   0  0  0  0  0  0  0  0  0  0  0  0
    0.3671   -1.5655   -0.5323 H   0  0  0  0  0  0  0  0  0  0  0  0
   -1.7475   -0.0747    0.3198 H   0  0  0  0  0  0  0  0  0  0  0  0
   -3.4600    0.6709   -0.2816 H   0  0  0  0  0  0  0  0  0  0  0  0
   -5.5433    2.1438    1.0418 H   0  0  0  0  0  0  0  0  0  0  0  0
   -7.0622    0.8973    2.4180 H   0  0  0  0  0  0  0  0  0  0  0  0
   -7.6645   -0.0467    1.0508 H   0  0  0  0  0  0  0  0  0  0  0  0
   -8.9161    1.5216    0.5126 H   0  0  0  0  0  0  0  0  0  0  0  0
   -7.3513    1.2066   -1.0806 H   0  0  0  0  0  0  0  0  0  0  0  0
   -6.7074    3.4025   -0.5056 H   0  0  0  0  0  0  0  0  0  0  0  0
   -4.5863    1.3887   -2.1982 H   0  0  0  0  0  0  0  0  0  0  0  0
   -5.6077    0.2539   -3.7818 H   0  0  0  0  0  0  0  0  0  0  0  0
   -4.2277   -0.9879   -2.0791 H   0  0  0  0  0  0  0  0  0  0  0  0
   -5.7205   -2.2630   -1.1131 H   0  0  0  0  0  0  0  0  0  0  0  0
   -0.7248   -2.5229    3.3653 H   0  0  0  0  0  0  0  0  0  0  0  0
    1.0202   -3.0006    1.8461 H   0  0  0  0  0  0  0  0  0  0  0  0
    1.5694   -0.7834    2.8039 H   0  0  0  0  0  0  0  0  0  0  0  0
    0.4821    0.0160    1.6181 H   0  0  0  0  0  0  0  0  0  0  0  0
    4.4455   -0.1406   -0.4258 H   0  0  0  0  0  0  0  0  0  0  0  0
    6.7928   -0.5207    0.4328 H   0  0  0  0  0  0  0  0  0  0  0  0
    7.5855    2.4350    0.7529 H   0  0  0  0  0  0  0  0  0  0  0  0
    8.6733    1.1354    0.2146 H   0  0  0  0  0  0  0  0  0  0  0  0
    8.7217    0.3159    2.1943 H   0  0  0  0  0  0  0  0  0  0  0  0
    6.0453   -0.1673   -1.7060 H   0  0  0  0  0  0  0  0  0  0  0  0
    7.5249    0.8565   -2.7527 H   0  0  0  0  0  0  0  0  0  0  0  0
    5.1297    1.7798   -2.5793 H   0  0  0  0  0  0  0  0  0  0  0  0
    6.2512    3.5344   -2.3181 H   0  0  0  0  0  0  0  0  0  0  0  0
    4.2747    2.9072   -0.0327 H   0  0  0  0  0  0  0  0  0  0  0  0
    3.1622    1.2024   -2.0251 H   0  0  0  0  0  0  0  0  0  0  0  0
  1  2  1  0
  2  3  1  0
  3  4  1  0
  4  5  1  0
  5  6  1  0
  6  7  1  0
  7  8  1  0
  8  9  1  0
  9 10  1  0
 10 11  1  0
  9 12  1  0
 12 13  1  0
 12 14  1  0
 14 15  1  0
 14 16  1  0
 16 17  1  0
  5 18  1  0
 18 19  2  0
 18 20  1  0
 20 21  1  0
 21 22  1  0
 22 23  1  0
 23 24  2  0
 23 25  1  0
 25 26  1  0
 26 27  1  0
 27 28  1  0
 28 29  1  0
 29 30  1  0
 28 31  1  0
 31 32  1  0
 31 33  1  0
 33 34  1  0
 33 35  1  0
 35 36  1  0
 21  3  1  0
 35 26  1  0
 16  7  1  0
  1 37  1  0
  2 38  1  0
  2 39  1  0
  3 40  1  6
  5 41  1  6
  7 42  1  6
  9 43  1  1
 10 44  1  0
 10 45  1  0
 11 46  1  0
 12 47  1  1
 13 48  1  0
 14 49  1  6
 15 50  1  0
 16 51  1  6
 17 52  1  0
 20 53  1  0
 21 54  1  1
 22 55  1  0
 22 56  1  0
 26 57  1  6
 28 58  1  6
 29 59  1  0
 29 60  1  0
 30 61  1  0
 31 62  1  6
 32 63  1  0
 33 64  1  6
 34 65  1  0
 35 66  1  1
 36 67  1  0
M  END
$$$$
[H]C([H])([H])C([H])([H])C([H])([H])C([H])([H])C([H])([H])C([H])([H])C([H])([H])[C@]1(C([H])([H])[H])C([H])([H])C([H])([H])[C@]2([H])[C@]([H])(C([H])([H])C([H])([H])[H])[C@@]([H])(OC(=O)N3C([H])([H])C([H])([H])C([H])([H])C3([H])[H])C([H])([H])C([H])([H])[C@@]21[H].[H]Cl
     RDKit          3D

 72 73  0  0  0  0  0  0  0  0999 V2000
    0.6866    0.0000    0.0000 Cl  0  0  0  0  0  0  0  0  0  0  0  0
   -2.6924    1.2874   -3.6885 C   0  0  0  0  0  0  0  0  0  0  0  0
   -2.3415   -0.0380   -3.1190 C   0  0  0  0  0  0  0  0  0  0  0  0
   -1.6149   -0.0233   -1.8026 C   0  0  2  0  0  0  0  0  0  0  0  0
   -2.4287    0.6502   -0.7589 C   0  0  1  0  0  0  0  0  0  0  0  0
   -3.3419   -0.2540   -0.1328 O   0  0  0  0  0  0  0  0  0  0  0  0
   -4.7062   -0.1332   -0.2578 C   0  0  0  0  0  0  0  0  0  0  0  0
   -5.1286    0.8207   -0.9546 O   0  0  0  0  0  0  0  0  0  0  0  0
   -5.6160   -1.0500    0.3754 N   0  0  0  0  0  0  0  0  0  0  0  0
   -5.2654   -2.1738    1.1889 C   0  0  0  0  0  0  0  0  0  0  0  0
   -6.5470   -2.6556    1.8280 C   0  0  0  0  0  0  0  0  0  0  0  0
   -7.6354   -2.1821    0.8818 C   0  0  0  0  0  0  0  0  0  0  0  0
   -7.0305   -0.9518    0.2699 C   0  0  0  0  0  0  0  0  0  0  0  0
   -1.7062    1.4154    0.2865 C   0  0  0  0  0  0  0  0  0  0  0  0
   -0.2696    1.1815    0.4724 C   0  0  0  0  0  0  0  0  0  0  0  0
    0.3575    0.1553   -0.4084 C   0  0  1  0  0  0  0  0  0  0  0  0
   -0.2012    0.3429   -1.8292 C   0  0  2  0  0  0  0  0  0  0  0  0
    0.2272    1.7106   -2.1344 C   0  0  0  0  0  0  0  0  0  0  0  0
    1.6236    1.7961   -1.4985 C   0  0  0  0  0  0  0  0  0  0  0  0
    1.8070    0.5439   -0.7031 C   0  0  2  0  0  0  0  0  0  0  0  0
    2.4145   -0.5353   -1.5786 C   0  0  0  0  0  0  0  0  0  0  0  0
    2.5202    0.7023    0.5934 C   0  0  0  0  0  0  0  0  0  0  0  0
    3.9626    1.0946    0.4503 C   0  0  0  0  0  0  0  0  0  0  0  0
    4.6135    1.2296    1.8026 C   0  0  0  0  0  0  0  0  0  0  0  0
    4.5912   -0.0311    2.6069 C   0  0  0  0  0  0  0  0  0  0  0  0
    5.3048   -1.1713    1.9311 C   0  0  0  0  0  0  0  0  0  0  0  0
    6.7565   -0.8556    1.6774 C   0  0  0  0  0  0  0  0  0  0  0  0
    7.4733   -0.5707    2.9818 C   0  0  0  0  0  0  0  0  0  0  0  0
   -0.6866    0.0000    0.0000 H   0  0  0  0  0  0  0  0  0  0  0  0
   -1.9021    2.0388   -3.7196 H   0  0  0  0  0  0  0  0  0  0  0  0
   -3.6515    1.6785   -3.2710 H   0  0  0  0  0  0  0  0  0  0  0  0
   -2.9476    1.0995   -4.7775 H   0  0  0  0  0  0  0  0  0  0  0  0
   -1.7775   -0.6138   -3.8880 H   0  0  0  0  0  0  0  0  0  0  0  0
   -3.2957   -0.6054   -2.9770 H   0  0  0  0  0  0  0  0  0  0  0  0
   -1.6207   -1.1319   -1.4973 H   0  0  0  0  0  0  0  0  0  0  0  0
   -3.1047    1.3675   -1.3160 H   0  0  0  0  0  0  0  0  0  0  0  0
   -4.7811   -2.9952    0.5916 H   0  0  0  0  0  0  0  0  0  0  0  0
   -4.5876   -1.8382    2.0033 H   0  0  0  0  0  0  0  0  0  0  0  0
   -6.7417   -2.1859    2.8064 H   0  0  0  0  0  0  0  0  0  0  0  0
   -6.6170   -3.7418    1.9089 H   0  0  0  0  0  0  0  0  0  0  0  0
   -8.5484   -1.8612    1.4595 H   0  0  0  0  0  0  0  0  0  0  0  0
   -7.8630   -2.9679    0.1586 H   0  0  0  0  0  0  0  0  0  0  0  0
   -7.3929   -0.9235   -0.7871 H   0  0  0  0  0  0  0  0  0  0  0  0
   -7.4396   -0.0172    0.7289 H   0  0  0  0  0  0  0  0  0  0  0  0
   -1.8621    2.5178    0.0837 H   0  0  0  0  0  0  0  0  0  0  0  0
   -2.2015    1.3113    1.3070 H   0  0  0  0  0  0  0  0  0  0  0  0
   -0.0367    0.8690    1.5278 H   0  0  0  0  0  0  0  0  0  0  0  0
    0.3172    2.1421    0.3676 H   0  0  0  0  0  0  0  0  0  0  0  0
    0.2584   -0.8750   -0.0740 H   0  0  0  0  0  0  0  0  0  0  0  0
    0.3474   -0.3515   -2.5154 H   0  0  0  0  0  0  0  0  0  0  0  0
   -0.3382    2.5464   -1.7398 H   0  0  0  0  0  0  0  0  0  0  0  0
    0.4007    1.9258   -3.2115 H   0  0  0  0  0  0  0  0  0  0  0  0
    2.4165    1.7895   -2.2984 H   0  0  0  0  0  0  0  0  0  0  0  0
    1.7663    2.7154   -0.9263 H   0  0  0  0  0  0  0  0  0  0  0  0
    1.7682   -1.4619   -1.5744 H   0  0  0  0  0  0  0  0  0  0  0  0
    3.3977   -0.8907   -1.2214 H   0  0  0  0  0  0  0  0  0  0  0  0
    2.5627   -0.1761   -2.6165 H   0  0  0  0  0  0  0  0  0  0  0  0
    2.4150   -0.2832    1.1310 H   0  0  0  0  0  0  0  0  0  0  0  0
    2.0138    1.4320    1.2199 H   0  0  0  0  0  0  0  0  0  0  0  0
    3.9913    2.1260   -0.0069 H   0  0  0  0  0  0  0  0  0  0  0  0
    4.5481    0.4613   -0.2422 H   0  0  0  0  0  0  0  0  0  0  0  0
    3.9945    1.9790    2.3759 H   0  0  0  0  0  0  0  0  0  0  0  0
    5.6450    1.5999    1.7466 H   0  0  0  0  0  0  0  0  0  0  0  0
    5.1170    0.1685    3.5591 H   0  0  0  0  0  0  0  0  0  0  0  0
    3.5539   -0.3534    2.8166 H   0  0  0  0  0  0  0  0  0  0  0  0
    4.8121   -1.5166    1.0226 H   0  0  0  0  0  0  0  0  0  0  0  0
    5.2817   -2.0255    2.6578 H   0  0  0  0  0  0  0  0  0  0  0  0
    6.8348   -0.0287    0.9659 H   0  0  0  0  0  0  0  0  0  0  0  0
    7.2423   -1.7470    1.2395 H   0  0  0  0  0  0  0  0  0  0  0  0
    8.5638   -0.5928    2.8577 H   0  0  0  0  0  0  0  0  0  0  0  0
    7.1973   -1.3212    3.7448 H   0  0  0  0  0  0  0  0  0  0  0  0
    7.1376    0.4329    3.3297 H   0  0  0  0  0  0  0  0  0  0  0  0
  2  3  1  0
  3  4  1  0
  4  5  1  0
  5  6  1  0
  6  7  1  0
  7  8  2  0
  7  9  1  0
  9 10  1  0
 10 11  1  0
 11 12  1  0
 12 13  1  0
  5 14  1  0
 14 15  1  0
 15 16  1  0
 16 17  1  0
 17 18  1  0
 18 19  1  0
 19 20  1  0
 20 21  1  6
 20 22  1  0
 22 23  1  0
 23 24  1  0
 24 25  1  0
 25 26  1  0
 26 27  1  0
 27 28  1  0
 17  4  1  0
 13  9  1  0
 20 16  1  0
  1 29  1  0
  2 30  1  0
  2 31  1  0
  2 32  1  0
  3 33  1  0
  3 34  1  0
  4 35  1  1
  5 36  1  6
 10 37  1  0
 10 38  1  0
 11 39  1  0
 11 40  1  0
 12 41  1  0
 12 42  1  0
 13 43  1  0
 13 44  1  0
 14 45  1  0
 14 46  1  0
 15 47  1  0
 15 48  1  0
 16 49  1  1
 17 50  1  6
 18 51  1  0
 18 52  1  0
 19 53  1  0
 19 54  1  0
 21 55  1  0
 21 56  1  0
 21 57  1  0
 22 58  1  0
 22 59  1  0
 23 60  1  0
 23 61  1  0
 24 62  1  0
 24 63  1  0
 25 64  1  0
 25 65  1  0
 26 66  1  0
 26 67  1  0
 27 68  1  0
 27 69  1  0
 28 70  1  0
 28 71  1  0
 28 72  1  0
M  END
$$$$
[H]Oc1nn(-c2c([H])c([H])c([H])c([H])c2[H])c([H])c1N([H])C(=O)N([H])c1c([H])c([H])c(Oc2c([H])c([H])c([H])c([H])c2[H])c([H])c1[H]
     RDKit          3D

 47 50  0  0  0  0  0  0  0  0999 V2000
    2.9356   -3.1324    1.0791 O   0  0  0  0  0  0  0  0  0  0  0  0
    3.7113   -2.1654    0.4387 C   0  0  0  0  0  0  0  0  0  0  0  0
    5.0185   -2.0333    0.3142 N   0  0  0  0  0  0  0  0  0  0  0  0
    5.3487   -0.9851   -0.3660 N   0  0  0  0  0  0  0  0  0  0  0  0
    4.2035   -0.3585   -0.7289 C   0  0  0  0  0  0  0  0  0  0  0  0
    3.0966   -1.0513   -0.2519 C   0  0  0  0  0  0  0  0  0  0  0  0
    1.7580   -0.8526   -0.2647 N   0  0  0  0  0  0  0  0  0  0  0  0
    0.4511   -0.6570   -0.2796 C   0  0  0  0  0  0  0  0  0  0  0  0
   -0.2553   -0.0294   -1.1662 O   0  0  0  0  0  0  0  0  0  0  0  0
   -0.3785   -1.1683    0.8053 N   0  0  0  0  0  0  0  0  0  0  0  0
   -1.7483   -0.8796    0.7878 C   0  0  0  0  0  0  0  0  0  0  0  0
   -2.1198    0.4250    0.5542 C   0  0  0  0  0  0  0  0  0  0  0  0
   -3.4523    0.7633    0.4863 C   0  0  0  0  0  0  0  0  0  0  0  0
   -4.4720   -0.1511    0.6452 C   0  0  0  0  0  0  0  0  0  0  0  0
   -5.7568    0.1218    0.5929 O   0  0  0  0  0  0  0  0  0  0  0  0
   -6.7189    1.0011    0.4945 C   0  0  0  0  0  0  0  0  0  0  0  0
   -8.0447    0.5858    0.3955 C   0  0  0  0  0  0  0  0  0  0  0  0
   -9.0873    1.4393    0.2875 C   0  0  0  0  0  0  0  0  0  0  0  0
   -8.8900    2.7933    0.2680 C   0  0  0  0  0  0  0  0  0  0  0  0
   -7.5985    3.2360    0.3634 C   0  0  0  0  0  0  0  0  0  0  0  0
   -6.5187    2.3815    0.4759 C   0  0  0  0  0  0  0  0  0  0  0  0
   -4.0785   -1.5125    0.8921 C   0  0  0  0  0  0  0  0  0  0  0  0
   -2.7339   -1.7941    0.9479 C   0  0  0  0  0  0  0  0  0  0  0  0
    6.6365   -0.4964   -0.7340 C   0  0  0  0  0  0  0  0  0  0  0  0
    7.7077   -1.3280   -0.6859 C   0  0  0  0  0  0  0  0  0  0  0  0
    8.9787   -0.9241   -1.0384 C   0  0  0  0  0  0  0  0  0  0  0  0
    9.1568    0.3916   -1.4585 C   0  0  0  0  0  0  0  0  0  0  0  0
    8.0881    1.2867   -1.5261 C   0  0  0  0  0  0  0  0  0  0  0  0
    6.8489    0.7989   -1.1552 C   0  0  0  0  0  0  0  0  0  0  0  0
    3.4315   -3.9659    1.4150 H   0  0  0  0  0  0  0  0  0  0  0  0
    4.1542    0.5642   -1.2999 H   0  0  0  0  0  0  0  0  0  0  0  0
    1.8592   -0.2717   -1.5211 H   0  0  0  0  0  0  0  0  0  0  0  0
    0.0898   -1.7156    1.5339 H   0  0  0  0  0  0  0  0  0  0  0  0
   -1.3791    1.1846    0.4510 H   0  0  0  0  0  0  0  0  0  0  0  0
   -3.6351    1.8206    0.2852 H   0  0  0  0  0  0  0  0  0  0  0  0
   -8.2091   -0.5028    0.4119 H   0  0  0  0  0  0  0  0  0  0  0  0
  -10.0850    1.0080    0.2177 H   0  0  0  0  0  0  0  0  0  0  0  0
   -9.7135    3.4939    0.1885 H   0  0  0  0  0  0  0  0  0  0  0  0
   -7.4543    4.3266    0.3371 H   0  0  0  0  0  0  0  0  0  0  0  0
   -5.5454    2.7839    0.5646 H   0  0  0  0  0  0  0  0  0  0  0  0
   -4.8765   -2.2247    1.0120 H   0  0  0  0  0  0  0  0  0  0  0  0
   -2.4589   -2.8296    1.1297 H   0  0  0  0  0  0  0  0  0  0  0  0
    7.5470   -2.3639   -0.3568 H   0  0  0  0  0  0  0  0  0  0  0  0
    9.8292   -1.5628   -1.0068 H   0  0  0  0  0  0  0  0  0  0  0  0
   10.1304    0.7904   -1.7640 H   0  0  0  0  0  0  0  0  0  0  0  0
    8.2503    2.3188   -1.8515 H   0  0  0  0  0  0  0  0  0  0  0  0
    5.9788    1.4411   -1.1943 H   0  0  0  0  0  0  0  0  0  0  0  0
  1  2  1  0
  2  3  2  0
  3  4  1  0
  4  5  1  0
  5  6  2  0
  6  7  1  0
  7  8  1  0
  8  9  2  0
  8 10  1  0
 10 11  1  0
 11 12  2  0
 12 13  1  0
 13 14  2  0
 14 15  1  0
 15 16  1  0
 16 17  2  0
 17 18  1  0
 18 19  2  0
 19 20  1  0
 20 21  2  0
 14 22  1  0
 22 23  2  0
  4 24  1  0
 24 25  2  0
 25 26  1  0
 26 27  2  0
 27 28  1  0
 28 29  2  0
  6  2  1  0
 23 11  1  0
 29 24  1  0
 21 16  1  0
  1 30  1  0
  5 31  1  0
  7 32  1  0
 10 33  1  0
 12 34  1  0
 13 35  1  0
 17 36  1  0
 18 37  1  0
 19 38  1  0
 20 39  1  0
 21 40  1  0
 22 41  1  0
 23 42  1  0
 25 43  1  0
 26 44  1  0
 27 45  1  0
 28 46  1  0
 29 47  1  0
M  END
$$$$
[H]Oc1c([H])c([H])c2c(c1[H])C(C#N)(c1c([H])c([H])c([H])c([H])c1[H])C([H])([H])N([H])C([H])([H])C([H])([H])N2[H]
     RDKit          3D

 38 40  0  0  0  0  0  0  0  0999 V2000
   -1.7953    3.9313    0.4140 O   0  0  0  0  0  0  0  0  0  0  0  0
   -1.8146    2.5878    0.0748 C   0  0  0  0  0  0  0  0  0  0  0  0
   -2.7610    2.0327   -0.7731 C   0  0  0  0  0  0  0  0  0  0  0  0
   -2.7736    0.6765   -1.1102 C   0  0  0  0  0  0  0  0  0  0  0  0
   -1.7922   -0.1188   -0.5624 C   0  0  0  0  0  0  0  0  0  0  0  0
   -2.0443   -1.4478   -1.0759 N   0  0  0  0  0  0  0  0  0  0  0  0
   -1.2566   -2.6497   -1.2279 C   0  0  0  0  0  0  0  0  0  0  0  0
   -0.8115   -3.4064   -0.0640 C   0  0  0  0  0  0  0  0  0  0  0  0
    0.3753   -2.8978    0.6912 N   0  0  0  0  0  0  0  0  0  0  0  0
    0.2465   -1.6016    0.7834 C   0  0  0  0  0  0  0  0  0  0  0  0
    0.3501   -0.2083    1.0412 C   0  0  0  0  0  0  0  0  0  0  0  0
    0.2026    0.0709    2.4790 C   0  0  0  0  0  0  0  0  0  0  0  0
    0.0710    0.3058    3.6134 N   0  0  0  0  0  0  0  0  0  0  0  0
    1.5691    0.4571    0.5275 C   0  0  0  0  0  0  0  0  0  0  0  0
    1.7966    0.4307   -0.8270 C   0  0  0  0  0  0  0  0  0  0  0  0
    2.9250    1.0324   -1.3804 C   0  0  0  0  0  0  0  0  0  0  0  0
    3.7989    1.6530   -0.5097 C   0  0  0  0  0  0  0  0  0  0  0  0
    3.5712    1.6792    0.8421 C   0  0  0  0  0  0  0  0  0  0  0  0
    2.4599    1.0854    1.3786 C   0  0  0  0  0  0  0  0  0  0  0  0
   -0.8227    0.4161    0.2982 C   0  0  0  0  0  0  0  0  0  0  0  0
   -0.8438    1.7477    0.6040 C   0  0  0  0  0  0  0  0  0  0  0  0
   -1.2651    4.5810   -0.1585 H   0  0  0  0  0  0  0  0  0  0  0  0
   -3.5015    2.7145   -1.1665 H   0  0  0  0  0  0  0  0  0  0  0  0
   -3.5141    0.2754   -1.7647 H   0  0  0  0  0  0  0  0  0  0  0  0
   -3.0158   -1.4911   -1.3890 H   0  0  0  0  0  0  0  0  0  0  0  0
   -1.9157   -3.3637   -1.8139 H   0  0  0  0  0  0  0  0  0  0  0  0
   -0.4115   -2.4808   -1.9687 H   0  0  0  0  0  0  0  0  0  0  0  0
   -1.6172   -3.4142    0.7039 H   0  0  0  0  0  0  0  0  0  0  0  0
   -0.6115   -4.4391   -0.3288 H   0  0  0  0  0  0  0  0  0  0  0  0
    0.3762   -3.4595    1.5646 H   0  0  0  0  0  0  0  0  0  0  0  0
   -0.8434   -1.6334    1.1747 H   0  0  0  0  0  0  0  0  0  0  0  0
    0.3343   -1.4504   -0.3554 H   0  0  0  0  0  0  0  0  0  0  0  0
    1.1336   -0.0412   -1.5335 H   0  0  0  0  0  0  0  0  0  0  0  0
    3.0837    0.9993   -2.4457 H   0  0  0  0  0  0  0  0  0  0  0  0
    4.6782    2.1202   -0.9555 H   0  0  0  0  0  0  0  0  0  0  0  0
    4.2594    2.1673    1.5232 H   0  0  0  0  0  0  0  0  0  0  0  0
    2.2431    1.0819    2.4284 H   0  0  0  0  0  0  0  0  0  0  0  0
   -0.0635    2.0573    1.2687 H   0  0  0  0  0  0  0  0  0  0  0  0
  1  2  1  0
  2  3  2  0
  3  4  1  0
  4  5  2  0
  5  6  1  0
  6  7  1  0
  7  8  1  0
  8  9  1  0
  9 10  1  0
 10 11  1  0
 11 12  1  0
 12 13  3  0
 11 14  1  0
 14 15  2  0
 15 16  1  0
 16 17  2  0
 17 18  1  0
 18 19  2  0
 11 20  1  0
 20 21  2  0
 21  2  1  0
 20  5  1  0
 19 14  1  0
  1 22  1  0
  3 23  1  0
  4 24  1  0
  6 25  1  0
  7 26  1  0
  7 27  1  0
  8 28  1  0
  8 29  1  0
  9 30  1  0
 10 31  1  0
 10 32  1  0
 15 33  1  0
 16 34  1  0
 17 35  1  0
 18 36  1  0
 19 37  1  0
 21 38  1  0
M  END
$$$$
[H]c1sc(C([H])([H])[H])c(-c2c([H])c(N(C([H])([H])[H])C([H])([H])[H])nc3c([H])c(N([H])C(=O)C4(c5c([H])c([H])c([H])c([H])c5[H])C([H])([H])C([H])([H])OC([H])([H])C4([H])[H])c([H])c([H])c23)c1[H]
     RDKit          3D

 63 67  0  0  0  0  0  0  0  0999 V2000
    5.6043   -3.0463   -0.8590 C   0  0  0  0  0  0  0  0  0  0  0  0
    4.1953   -2.8262   -0.7314 N   0  0  0  0  0  0  0  0  0  0  0  0
    3.2617   -3.9200   -1.0012 C   0  0  0  0  0  0  0  0  0  0  0  0
    3.6676   -1.5659   -0.3627 C   0  0  0  0  0  0  0  0  0  0  0  0
    4.4977   -0.4606   -0.2147 C   0  0  0  0  0  0  0  0  0  0  0  0
    3.9596    0.7355    0.1915 C   0  0  0  0  0  0  0  0  0  0  0  0
    4.8032    1.9418    0.4034 C   0  0  0  0  0  0  0  0  0  0  0  0
    5.3000    2.2803    1.6036 C   0  0  0  0  0  0  0  0  0  0  0  0
    6.1423    3.3582    1.6671 C   0  0  0  0  0  0  0  0  0  0  0  0
    6.2140    3.8717    0.0338 S   0  0  0  0  0  0  0  0  0  0  0  0
    5.1861    2.7182   -0.6696 C   0  0  0  0  0  0  0  0  0  0  0  0
    4.7724    2.5914   -2.1153 C   0  0  0  0  0  0  0  0  0  0  0  0
    2.6084    0.8149    0.4432 C   0  0  0  0  0  0  0  0  0  0  0  0
    1.9899    1.9860    0.8199 C   0  0  0  0  0  0  0  0  0  0  0  0
    0.5960    2.0443    1.0297 C   0  0  0  0  0  0  0  0  0  0  0  0
   -0.1706    0.9343    0.8619 C   0  0  0  0  0  0  0  0  0  0  0  0
   -1.6117    0.9261    1.0186 N   0  0  0  0  0  0  0  0  0  0  0  0
   -2.3817    0.3774   -0.0353 C   0  0  0  0  0  0  0  0  0  0  0  0
   -1.7040   -0.0414   -1.0497 O   0  0  0  0  0  0  0  0  0  0  0  0
   -3.8457    0.2552   -0.0521 C   0  0  0  0  0  0  0  0  0  0  0  0
   -4.1429   -0.7095   -1.2188 C   0  0  0  0  0  0  0  0  0  0  0  0
   -5.5936   -0.8331   -1.5049 C   0  0  0  0  0  0  0  0  0  0  0  0
   -6.1999    0.4115   -1.7266 O   0  0  0  0  0  0  0  0  0  0  0  0
   -5.2573    1.4372   -1.7339 C   0  0  0  0  0  0  0  0  0  0  0  0
   -4.5370    1.5294   -0.4025 C   0  0  0  0  0  0  0  0  0  0  0  0
   -4.3326   -0.4111    1.1942 C   0  0  0  0  0  0  0  0  0  0  0  0
   -5.5568   -0.1436    1.7737 C   0  0  0  0  0  0  0  0  0  0  0  0
   -5.9064   -0.8051    2.9620 C   0  0  0  0  0  0  0  0  0  0  0  0
   -5.0782   -1.6762    3.5224 C   0  0  0  0  0  0  0  0  0  0  0  0
   -3.8314   -1.9657    2.9558 C   0  0  0  0  0  0  0  0  0  0  0  0
   -3.4738   -1.3145    1.7770 C   0  0  0  0  0  0  0  0  0  0  0  0
    0.4501   -0.2428    0.4886 C   0  0  0  0  0  0  0  0  0  0  0  0
    1.8071   -0.3079    0.2827 C   0  0  0  0  0  0  0  0  0  0  0  0
    2.3545   -1.4452   -0.1101 N   0  0  0  0  0  0  0  0  0  0  0  0
    6.1033   -2.2963   -1.4988 H   0  0  0  0  0  0  0  0  0  0  0  0
    6.0985   -2.9880    0.1440 H   0  0  0  0  0  0  0  0  0  0  0  0
    5.8346   -4.0490   -1.2968 H   0  0  0  0  0  0  0  0  0  0  0  0
    2.3392   -3.4310   -1.3980 H   0  0  0  0  0  0  0  0  0  0  0  0
    3.0145   -4.4940   -0.0716 H   0  0  0  0  0  0  0  0  0  0  0  0
    3.6009   -4.6186   -1.7575 H   0  0  0  0  0  0  0  0  0  0  0  0
    5.5486   -0.5449   -0.4339 H   0  0  0  0  0  0  0  0  0  0  0  0
    5.0492    1.7255    2.5437 H   0  0  0  0  0  0  0  0  0  0  0  0
    6.6385    3.7571    2.5693 H   0  0  0  0  0  0  0  0  0  0  0  0
    3.6595    2.7514   -2.1878 H   0  0  0  0  0  0  0  0  0  0  0  0
    5.2433    3.4033   -2.6995 H   0  0  0  0  0  0  0  0  0  0  0  0
    5.1109    1.6310   -2.4948 H   0  0  0  0  0  0  0  0  0  0  0  0
    2.5991    2.8757    0.9623 H   0  0  0  0  0  0  0  0  0  0  0  0
    0.1232    2.9952    1.3228 H   0  0  0  0  0  0  0  0  0  0  0  0
   -2.0736    1.2785    1.8560 H   0  0  0  0  0  0  0  0  0  0  0  0
   -3.5457   -0.3919   -2.0804 H   0  0  0  0  0  0  0  0  0  0  0  0
   -3.7306   -1.6892   -0.9126 H   0  0  0  0  0  0  0  0  0  0  0  0
   -6.1058   -1.2830   -0.6271 H   0  0  0  0  0  0  0  0  0  0  0  0
   -5.7353   -1.5162   -2.3475 H   0  0  0  0  0  0  0  0  0  0  0  0
   -5.7845    2.3822   -1.9028 H   0  0  0  0  0  0  0  0  0  0  0  0
   -4.5476    1.2863   -2.5510 H   0  0  0  0  0  0  0  0  0  0  0  0
   -5.1382    1.9855    0.4017 H   0  0  0  0  0  0  0  0  0  0  0  0
   -3.7120    2.2926   -0.5926 H   0  0  0  0  0  0  0  0  0  0  0  0
   -6.2068    0.5460    1.3314 H   0  0  0  0  0  0  0  0  0  0  0  0
   -6.8869   -0.5853    3.3989 H   0  0  0  0  0  0  0  0  0  0  0  0
   -5.3835   -2.1772    4.4399 H   0  0  0  0  0  0  0  0  0  0  0  0
   -3.2129   -2.6615    3.4528 H   0  0  0  0  0  0  0  0  0  0  0  0
   -2.5108   -1.5487    1.3623 H   0  0  0  0  0  0  0  0  0  0  0  0
   -0.1753   -1.1338    0.3815 H   0  0  0  0  0  0  0  0  0  0  0  0
  1  2  1  0
  2  3  1  0
  2  4  1  0
  4  5  2  0
  5  6  1  0
  6  7  1  0
  7  8  1  0
  8  9  2  0
  9 10  1  0
 10 11  1  0
 11 12  1  0
  6 13  2  0
 13 14  1  0
 14 15  2  0
 15 16  1  0
 16 17  1  0
 17 18  1  0
 18 19  2  0
 18 20  1  0
 20 21  1  0
 21 22  1  0
 22 23  1  0
 23 24  1  0
 24 25  1  0
 20 26  1  0
 26 27  2  0
 27 28  1  0
 28 29  2  0
 29 30  1  0
 30 31  2  0
 16 32  2  0
 32 33  1  0
 33 34  2  0
 34  4  1  0
 11  7  2  0
 33 13  1  0
 25 20  1  0
 31 26  1  0
  1 35  1  0
  1 36  1  0
  1 37  1  0
  3 38  1  0
  3 39  1  0
  3 40  1  0
  5 41  1  0
  8 42  1  0
  9 43  1  0
 12 44  1  0
 12 45  1  0
 12 46  1  0
 14 47  1  0
 15 48  1  0
 17 49  1  0
 21 50  1  0
 21 51  1  0
 22 52  1  0
 22 53  1  0
 24 54  1  0
 24 55  1  0
 25 56  1  0
 25 57  1  0
 27 58  1  0
 28 59  1  0
 29 60  1  0
 30 61  1  0
 31 62  1  0
 32 63  1  0
M  END
$$$$
[H]/C(C(=O)N1C([H])([H])C([H])([H])C([H])([H])[C@@]([H])(n2nc(C(=O)N([H])c3nc4c([H])c(Cl)c([H])c([H])c4o3)c3c(N([H])[H])nc([H])nc32)C1([H])[H])=C(/[H])C([H])([H])N(C([H])([H])[H])C([H])([H])[H]
     RDKit          3D

 63 67  0  0  0  0  0  0  0  0999 V2000
   -7.3714    1.4970    1.0927 C   0  0  0  0  0  0  0  0  0  0  0  0
   -7.0083    2.3311    0.0015 N   0  0  0  0  0  0  0  0  0  0  0  0
   -6.6237    3.6498    0.3327 C   0  0  0  0  0  0  0  0  0  0  0  0
   -6.4723    1.7257   -1.1396 C   0  0  0  0  0  0  0  0  0  0  0  0
   -5.1295    1.1376   -1.0870 C   0  0  0  0  0  0  0  0  0  0  0  0
   -4.3706    1.1801   -0.0299 C   0  0  0  0  0  0  0  0  0  0  0  0
   -3.0740    0.6832    0.2275 C   0  0  0  0  0  0  0  0  0  0  0  0
   -2.6286    0.9621    1.4321 O   0  0  0  0  0  0  0  0  0  0  0  0
   -2.1886   -0.0439   -0.5622 N   0  0  0  0  0  0  0  0  0  0  0  0
   -2.4680   -0.5222   -1.8528 C   0  0  0  0  0  0  0  0  0  0  0  0
   -1.5441   -1.4762   -2.5149 C   0  0  0  0  0  0  0  0  0  0  0  0
   -0.1898   -1.4590   -1.9218 C   0  0  0  0  0  0  0  0  0  0  0  0
   -0.3487   -1.5789   -0.3846 C   0  0  2  0  0  0  0  0  0  0  0  0
   -0.8522   -0.2646    0.0554 C   0  0  0  0  0  0  0  0  0  0  0  0
    0.9118   -1.9949    0.1777 N   0  0  0  0  0  0  0  0  0  0  0  0
    1.9135   -2.4920   -0.5264 N   0  0  0  0  0  0  0  0  0  0  0  0
    2.9543   -2.7862    0.2675 C   0  0  0  0  0  0  0  0  0  0  0  0
    4.2449   -3.3619   -0.0749 C   0  0  0  0  0  0  0  0  0  0  0  0
    4.3374   -4.6310   -0.1758 O   0  0  0  0  0  0  0  0  0  0  0  0
    5.4199   -2.5973   -0.3075 N   0  0  0  0  0  0  0  0  0  0  0  0
    5.4569   -1.1898   -0.2539 C   0  0  0  0  0  0  0  0  0  0  0  0
    4.4411   -0.3238    0.0058 N   0  0  0  0  0  0  0  0  0  0  0  0
    4.9253    0.9266   -0.0451 C   0  0  0  0  0  0  0  0  0  0  0  0
    4.4275    2.2001    0.1191 C   0  0  0  0  0  0  0  0  0  0  0  0
    5.2417    3.3066   -0.0105 C   0  0  0  0  0  0  0  0  0  0  0  0
    4.5615    4.8878    0.2072 Cl  0  0  0  0  0  0  0  0  0  0  0  0
    6.5868    3.1935   -0.3091 C   0  0  0  0  0  0  0  0  0  0  0  0
    7.0865    1.9191   -0.4741 C   0  0  0  0  0  0  0  0  0  0  0  0
    6.2686    0.8074   -0.3439 C   0  0  0  0  0  0  0  0  0  0  0  0
    6.5226   -0.4530   -0.4545 O   0  0  0  0  0  0  0  0  0  0  0  0
    2.5614   -2.4463    1.5429 C   0  0  0  0  0  0  0  0  0  0  0  0
    3.1381   -2.4941    2.8071 C   0  0  0  0  0  0  0  0  0  0  0  0
    4.4523   -3.0014    2.9133 N   0  0  0  0  0  0  0  0  0  0  0  0
    2.4925   -2.0822    3.9177 N   0  0  0  0  0  0  0  0  0  0  0  0
    1.2437   -1.6034    3.8257 C   0  0  0  0  0  0  0  0  0  0  0  0
    0.6676   -1.5482    2.6164 N   0  0  0  0  0  0  0  0  0  0  0  0
    1.2569   -1.9433    1.4689 C   0  0  0  0  0  0  0  0  0  0  0  0
   -6.9184    1.8155    2.0681 H   0  0  0  0  0  0  0  0  0  0  0  0
   -8.4823    1.4791    1.2884 H   0  0  0  0  0  0  0  0  0  0  0  0
   -7.0525    0.4579    0.8596 H   0  0  0  0  0  0  0  0  0  0  0  0
   -5.5767    3.9111    0.0820 H   0  0  0  0  0  0  0  0  0  0  0  0
   -7.2677    4.3678   -0.2503 H   0  0  0  0  0  0  0  0  0  0  0  0
   -6.8468    3.8558    1.3999 H   0  0  0  0  0  0  0  0  0  0  0  0
   -6.5363    2.4650   -2.0078 H   0  0  0  0  0  0  0  0  0  0  0  0
   -7.1559    0.8962   -1.5072 H   0  0  0  0  0  0  0  0  0  0  0  0
   -4.7752    0.6711   -1.9755 H   0  0  0  0  0  0  0  0  0  0  0  0
   -4.8503    1.7410    0.8533 H   0  0  0  0  0  0  0  0  0  0  0  0
   -3.4745   -1.0617   -1.8618 H   0  0  0  0  0  0  0  0  0  0  0  0
   -2.5847    0.3713   -2.5233 H   0  0  0  0  0  0  0  0  0  0  0  0
   -1.4240   -1.1816   -3.5986 H   0  0  0  0  0  0  0  0  0  0  0  0
   -1.9688   -2.5128   -2.5664 H   0  0  0  0  0  0  0  0  0  0  0  0
    0.4671   -2.2814   -2.2348 H   0  0  0  0  0  0  0  0  0  0  0  0
    0.3213   -0.5111   -2.1309 H   0  0  0  0  0  0  0  0  0  0  0  0
   -1.1470   -2.3369   -0.2485 H   0  0  0  0  0  0  0  0  0  0  0  0
   -0.9339   -0.2315    1.1430 H   0  0  0  0  0  0  0  0  0  0  0  0
   -0.2263    0.5496   -0.3667 H   0  0  0  0  0  0  0  0  0  0  0  0
    6.3120   -3.1059   -0.5482 H   0  0  0  0  0  0  0  0  0  0  0  0
    3.3626    2.2688    0.3545 H   0  0  0  0  0  0  0  0  0  0  0  0
    7.2254    4.0773   -0.4107 H   0  0  0  0  0  0  0  0  0  0  0  0
    8.1508    1.8094   -0.7121 H   0  0  0  0  0  0  0  0  0  0  0  0
    5.2030   -2.3918    3.2680 H   0  0  0  0  0  0  0  0  0  0  0  0
    4.6438   -3.9750    2.6357 H   0  0  0  0  0  0  0  0  0  0  0  0
    0.6924   -1.2610    4.7085 H   0  0  0  0  0  0  0  0  0  0  0  0
  1  2  1  0
  2  3  1  0
  2  4  1  0
  4  5  1  0
  5  6  2  0
  6  7  1  0
  7  8  2  0
  7  9  1  0
  9 10  1  0
 10 11  1  0
 11 12  1  0
 12 13  1  0
 13 14  1  0
 13 15  1  0
 15 16  1  0
 16 17  2  0
 17 18  1  0
 18 19  2  0
 18 20  1  0
 20 21  1  0
 21 22  2  0
 22 23  1  0
 23 24  2  0
 24 25  1  0
 25 26  1  0
 25 27  2  0
 27 28  1  0
 28 29  2  0
 29 30  1  0
 17 31  1  0
 31 32  2  0
 32 33  1  0
 32 34  1  0
 34 35  2  0
 35 36  1  0
 36 37  2  0
 14  9  1  0
 37 15  1  0
 30 21  1  0
 37 31  1  0
 29 23  1  0
  1 38  1  0
  1 39  1  0
  1 40  1  0
  3 41  1  0
  3 42  1  0
  3 43  1  0
  4 44  1  0
  4 45  1  0
  5 46  1  0
  6 47  1  0
 10 48  1  0
 10 49  1  0
 11 50  1  0
 11 51  1  0
 12 52  1  0
 12 53  1  0
 13 54  1  6
 14 55  1  0
 14 56  1  0
 20 57  1  0
 24 58  1  0
 27 59  1  0
 28 60  1  0
 33 61  1  0
 33 62  1  0
 35 63  1  0
M  END
$$$$
[H]C(=O)[C@@]([H])(N([H])C(=O)[C@@]1([H])N(C(=O)[C@@]([H])(N([H])C(=O)OC([H])([H])c2c([H])c([H])c([H])c([H])c2[H])C([H])([H])c2c([H])n([H])c3c([H])c([H])c([H])c([H])c23)C([H])([H])C([H])([H])C1([H])[H])C([H])([H])C([H])(C([H])([H])[H])C([H])([H])[H]
     RDKit          3D

 75 78  0  0  0  0  0  0  0  0999 V2000
    7.8598    0.7873    0.6414 C   0  0  0  0  0  0  0  0  0  0  0  0
    6.7821    0.3132   -0.2797 C   0  0  0  0  0  0  0  0  0  0  0  0
    7.3018   -0.9282   -0.9890 C   0  0  0  0  0  0  0  0  0  0  0  0
    5.4818    0.0123    0.4201 C   0  0  0  0  0  0  0  0  0  0  0  0
    4.9035    1.1876    1.1281 C   0  0  2  0  0  0  0  0  0  0  0  0
    3.6725    0.8550    1.7778 N   0  0  0  0  0  0  0  0  0  0  0  0
    2.4818    0.3975    1.1789 C   0  0  0  0  0  0  0  0  0  0  0  0
    2.4352    0.2435   -0.0576 O   0  0  0  0  0  0  0  0  0  0  0  0
    1.2610    0.0861    1.9638 C   0  0  2  0  0  0  0  0  0  0  0  0
    1.5436   -0.9316    3.0186 C   0  0  0  0  0  0  0  0  0  0  0  0
    0.3976   -1.9130    2.9416 C   0  0  0  0  0  0  0  0  0  0  0  0
   -0.1682   -1.6990    1.5681 C   0  0  0  0  0  0  0  0  0  0  0  0
    0.1433   -0.3478    1.1674 N   0  0  0  0  0  0  0  0  0  0  0  0
   -0.5437    0.3991    0.1848 C   0  0  0  0  0  0  0  0  0  0  0  0
   -0.1077    1.5901   -0.0329 O   0  0  0  0  0  0  0  0  0  0  0  0
   -1.6866   -0.1240   -0.5470 C   0  0  2  0  0  0  0  0  0  0  0  0
   -1.4533   -0.6101   -1.9361 C   0  0  0  0  0  0  0  0  0  0  0  0
   -0.5425   -1.7169   -2.1514 C   0  0  0  0  0  0  0  0  0  0  0  0
    0.7455   -1.6134   -2.6283 C   0  0  0  0  0  0  0  0  0  0  0  0
    1.2297   -2.8577   -2.6936 N   0  0  0  0  0  0  0  0  0  0  0  0
    0.3124   -3.7475   -2.2814 C   0  0  0  0  0  0  0  0  0  0  0  0
    0.2775   -5.1281   -2.1466 C   0  0  0  0  0  0  0  0  0  0  0  0
   -0.8320   -5.8044   -1.6841 C   0  0  0  0  0  0  0  0  0  0  0  0
   -1.9582   -5.0883   -1.3388 C   0  0  0  0  0  0  0  0  0  0  0  0
   -1.9656   -3.7153   -1.4576 C   0  0  0  0  0  0  0  0  0  0  0  0
   -0.8314   -3.0715   -1.9262 C   0  0  0  0  0  0  0  0  0  0  0  0
   -2.6362    1.0143   -0.7214 N   0  0  0  0  0  0  0  0  0  0  0  0
   -3.9294    0.9420   -0.1360 C   0  0  0  0  0  0  0  0  0  0  0  0
   -4.2983   -0.0678    0.5321 O   0  0  0  0  0  0  0  0  0  0  0  0
   -4.8571    1.9642   -0.2604 O   0  0  0  0  0  0  0  0  0  0  0  0
   -6.1507    1.9303    0.3042 C   0  0  0  0  0  0  0  0  0  0  0  0
   -6.8367    3.1969   -0.0434 C   0  0  0  0  0  0  0  0  0  0  0  0
   -8.1580    3.3399    0.3044 C   0  0  0  0  0  0  0  0  0  0  0  0
   -8.8382    4.5066    0.0022 C   0  0  0  0  0  0  0  0  0  0  0  0
   -8.1394    5.4951   -0.6504 C   0  0  0  0  0  0  0  0  0  0  0  0
   -6.8142    5.3564   -1.0013 C   0  0  0  0  0  0  0  0  0  0  0  0
   -6.1561    4.1876   -0.6911 C   0  0  0  0  0  0  0  0  0  0  0  0
    4.6188    2.3202    0.1770 C   0  0  0  0  0  0  0  0  0  0  0  0
    3.5500    2.8428    0.0379 O   0  0  0  0  0  0  0  0  0  0  0  0
    8.8597    0.6075    0.1829 H   0  0  0  0  0  0  0  0  0  0  0  0
    7.8186    1.9021    0.8003 H   0  0  0  0  0  0  0  0  0  0  0  0
    7.8771    0.2398    1.6155 H   0  0  0  0  0  0  0  0  0  0  0  0
    6.6057    1.0767   -1.0618 H   0  0  0  0  0  0  0  0  0  0  0  0
    6.5599   -1.4202   -1.6146 H   0  0  0  0  0  0  0  0  0  0  0  0
    8.1481   -0.5923   -1.6500 H   0  0  0  0  0  0  0  0  0  0  0  0
    7.7768   -1.5789   -0.2272 H   0  0  0  0  0  0  0  0  0  0  0  0
    4.7518   -0.3626   -0.3196 H   0  0  0  0  0  0  0  0  0  0  0  0
    5.6739   -0.7946    1.1392 H   0  0  0  0  0  0  0  0  0  0  0  0
    5.6108    1.5616    1.9265 H   0  0  0  0  0  0  0  0  0  0  0  0
    3.6356    0.9605    2.8400 H   0  0  0  0  0  0  0  0  0  0  0  0
    0.9531    1.0731    2.4409 H   0  0  0  0  0  0  0  0  0  0  0  0
    1.6239   -0.4678    4.0282 H   0  0  0  0  0  0  0  0  0  0  0  0
    2.4765   -1.4691    2.8114 H   0  0  0  0  0  0  0  0  0  0  0  0
   -0.3024   -1.7328    3.7586 H   0  0  0  0  0  0  0  0  0  0  0  0
    0.7698   -2.9651    3.0625 H   0  0  0  0  0  0  0  0  0  0  0  0
   -1.2403   -1.9462    1.4967 H   0  0  0  0  0  0  0  0  0  0  0  0
    0.3604   -2.4272    0.8975 H   0  0  0  0  0  0  0  0  0  0  0  0
   -2.2082   -0.8737    0.0732 H   0  0  0  0  0  0  0  0  0  0  0  0
   -2.4807   -0.8849   -2.3373 H   0  0  0  0  0  0  0  0  0  0  0  0
   -1.1607    0.2755   -2.5566 H   0  0  0  0  0  0  0  0  0  0  0  0
    1.2947   -0.7003   -2.9090 H   0  0  0  0  0  0  0  0  0  0  0  0
    2.1837   -3.1212   -3.0167 H   0  0  0  0  0  0  0  0  0  0  0  0
    1.1658   -5.6754   -2.4207 H   0  0  0  0  0  0  0  0  0  0  0  0
   -0.8133   -6.8799   -1.5959 H   0  0  0  0  0  0  0  0  0  0  0  0
   -2.8332   -5.6405   -0.9723 H   0  0  0  0  0  0  0  0  0  0  0  0
   -2.8326   -3.1313   -1.1947 H   0  0  0  0  0  0  0  0  0  0  0  0
   -2.3448    1.8431   -1.2655 H   0  0  0  0  0  0  0  0  0  0  0  0
   -6.7413    1.0528   -0.0215 H   0  0  0  0  0  0  0  0  0  0  0  0
   -6.0613    1.9047    1.4148 H   0  0  0  0  0  0  0  0  0  0  0  0
   -8.7196    2.5688    0.8180 H   0  0  0  0  0  0  0  0  0  0  0  0
   -9.8960    4.6318    0.2757 H   0  0  0  0  0  0  0  0  0  0  0  0
   -8.6737    6.4274   -0.8949 H   0  0  0  0  0  0  0  0  0  0  0  0
   -6.3027    6.1808   -1.5230 H   0  0  0  0  0  0  0  0  0  0  0  0
   -5.1193    4.1064   -0.9772 H   0  0  0  0  0  0  0  0  0  0  0  0
    5.4897    2.6482   -0.4037 H   0  0  0  0  0  0  0  0  0  0  0  0
  1  2  1  0
  2  3  1  0
  2  4  1  0
  4  5  1  0
  5  6  1  0
  6  7  1  0
  7  8  2  0
  7  9  1  0
  9 10  1  0
 10 11  1  0
 11 12  1  0
 12 13  1  0
 13 14  1  0
 14 15  2  0
 14 16  1  0
 16 17  1  0
 17 18  1  0
 18 19  2  0
 19 20  1  0
 20 21  1  0
 21 22  2  0
 22 23  1  0
 23 24  2  0
 24 25  1  0
 25 26  2  0
 16 27  1  0
 27 28  1  0
 28 29  2  0
 28 30  1  0
 30 31  1  0
 31 32  1  0
 32 33  2  0
 33 34  1  0
 34 35  2  0
 35 36  1  0
 36 37  2  0
  5 38  1  0
 38 39  2  0
 13  9  1  0
 26 18  1  0
 37 32  1  0
 26 21  1  0
  1 40  1  0
  1 41  1  0
  1 42  1  0
  2 43  1  0
  3 44  1  0
  3 45  1  0
  3 46  1  0
  4 47  1  0
  4 48  1  0
  5 49  1  1
  6 50  1  0
  9 51  1  1
 10 52  1  0
 10 53  1  0
 11 54  1  0
 11 55  1  0
 12 56  1  0
 12 57  1  0
 16 58  1  1
 17 59  1  0
 17 60  1  0
 19 61  1  0
 20 62  1  0
 22 63  1  0
 23 64  1  0
 24 65  1  0
 25 66  1  0
 27 67  1  0
 31 68  1  0
 31 69  1  0
 33 70  1  0
 34 71  1  0
 35 72  1  0
 36 73  1  0
 37 74  1  0
 38 75  1  0
M  END
$$$$
[H]Oc1c([H])c([H])c2c(c1[H])C(=O)C([H])(C([H])([H])N([H])C([H])([H])C([H])([H])C([H])([H])Oc1c([H])c([H])c([H])c3c([H])c([H])c([H])c([H])c13)C([H])([H])C2([H])[H]
     RDKit          3D

 53 56  0  0  0  0  0  0  0  0999 V2000
    6.8061    3.1406   -1.5454 O   0  0  0  0  0  0  0  0  0  0  0  0
    5.8267    2.4828   -0.7887 C   0  0  0  0  0  0  0  0  0  0  0  0
    5.1613    3.1288    0.2310 C   0  0  0  0  0  0  0  0  0  0  0  0
    4.1978    2.4770    0.9732 C   0  0  0  0  0  0  0  0  0  0  0  0
    3.8527    1.1623    0.7389 C   0  0  0  0  0  0  0  0  0  0  0  0
    2.8140    0.4443    1.5339 C   0  0  0  0  0  0  0  0  0  0  0  0
    3.2479   -0.9838    1.7568 C   0  0  0  0  0  0  0  0  0  0  0  0
    3.5858   -1.7241    0.5170 C   0  0  0  0  0  0  0  0  0  0  0  0
    2.4475   -2.5682   -0.0132 C   0  0  0  0  0  0  0  0  0  0  0  0
    1.2889   -1.7875   -0.3314 N   0  0  0  0  0  0  0  0  0  0  0  0
    0.2174   -2.6179   -0.8352 C   0  0  0  0  0  0  0  0  0  0  0  0
   -1.0117   -1.7626   -1.1701 C   0  0  0  0  0  0  0  0  0  0  0  0
   -1.4735   -1.0615    0.0762 C   0  0  0  0  0  0  0  0  0  0  0  0
   -2.5717   -0.2509   -0.0420 O   0  0  0  0  0  0  0  0  0  0  0  0
   -3.8588   -0.4534   -0.3764 C   0  0  0  0  0  0  0  0  0  0  0  0
   -4.4511   -1.6450   -0.7029 C   0  0  0  0  0  0  0  0  0  0  0  0
   -5.7903   -1.7092   -1.0265 C   0  0  0  0  0  0  0  0  0  0  0  0
   -6.5969   -0.5955   -1.0393 C   0  0  0  0  0  0  0  0  0  0  0  0
   -6.0151    0.6249   -0.7102 C   0  0  0  0  0  0  0  0  0  0  0  0
   -6.8177    1.7619   -0.7181 C   0  0  0  0  0  0  0  0  0  0  0  0
   -6.2716    2.9857   -0.3968 C   0  0  0  0  0  0  0  0  0  0  0  0
   -4.9359    3.0649   -0.0719 C   0  0  0  0  0  0  0  0  0  0  0  0
   -4.1672    1.9182   -0.0735 C   0  0  0  0  0  0  0  0  0  0  0  0
   -4.6902    0.6830   -0.3912 C   0  0  0  0  0  0  0  0  0  0  0  0
    4.1734   -0.8762   -0.5532 C   0  0  0  0  0  0  0  0  0  0  0  0
    4.3863   -1.3268   -1.7079 O   0  0  0  0  0  0  0  0  0  0  0  0
    4.5196    0.5123   -0.2843 C   0  0  0  0  0  0  0  0  0  0  0  0
    5.4909    1.1693   -1.0326 C   0  0  0  0  0  0  0  0  0  0  0  0
    7.7871    3.1301   -1.2703 H   0  0  0  0  0  0  0  0  0  0  0  0
    5.4149    4.1702    0.4380 H   0  0  0  0  0  0  0  0  0  0  0  0
    3.6662    2.9932    1.7879 H   0  0  0  0  0  0  0  0  0  0  0  0
    2.7149    0.9089    2.5445 H   0  0  0  0  0  0  0  0  0  0  0  0
    1.8152    0.5248    1.0619 H   0  0  0  0  0  0  0  0  0  0  0  0
    2.4455   -1.5299    2.2876 H   0  0  0  0  0  0  0  0  0  0  0  0
    4.1418   -0.9438    2.4124 H   0  0  0  0  0  0  0  0  0  0  0  0
    4.3988   -2.4662    0.7784 H   0  0  0  0  0  0  0  0  0  0  0  0
    2.8195   -3.0054   -0.9828 H   0  0  0  0  0  0  0  0  0  0  0  0
    2.2350   -3.4080    0.6524 H   0  0  0  0  0  0  0  0  0  0  0  0
    1.5182   -1.0086   -0.9513 H   0  0  0  0  0  0  0  0  0  0  0  0
    0.5477   -3.0502   -1.8044 H   0  0  0  0  0  0  0  0  0  0  0  0
   -0.1194   -3.3607   -0.1122 H   0  0  0  0  0  0  0  0  0  0  0  0
   -0.6686   -0.9890   -1.9151 H   0  0  0  0  0  0  0  0  0  0  0  0
   -1.7736   -2.3524   -1.6934 H   0  0  0  0  0  0  0  0  0  0  0  0
   -0.6080   -0.4000    0.3945 H   0  0  0  0  0  0  0  0  0  0  0  0
   -1.5464   -1.7894    0.9410 H   0  0  0  0  0  0  0  0  0  0  0  0
   -3.8570   -2.5418   -0.6946 H   0  0  0  0  0  0  0  0  0  0  0  0
   -6.2566   -2.6702   -1.2876 H   0  0  0  0  0  0  0  0  0  0  0  0
   -7.6430   -0.6093   -1.2863 H   0  0  0  0  0  0  0  0  0  0  0  0
   -7.8652    1.6691   -0.9777 H   0  0  0  0  0  0  0  0  0  0  0  0
   -6.8922    3.8747   -0.4013 H   0  0  0  0  0  0  0  0  0  0  0  0
   -4.5142    4.0389    0.1808 H   0  0  0  0  0  0  0  0  0  0  0  0
   -3.1241    1.9838    0.1809 H   0  0  0  0  0  0  0  0  0  0  0  0
    5.9989    0.6379   -1.8287 H   0  0  0  0  0  0  0  0  0  0  0  0
  1  2  1  0
  2  3  2  0
  3  4  1  0
  4  5  2  0
  5  6  1  0
  6  7  1  0
  7  8  1  0
  8  9  1  0
  9 10  1  0
 10 11  1  0
 11 12  1  0
 12 13  1  0
 13 14  1  0
 14 15  1  0
 15 16  2  0
 16 17  1  0
 17 18  2  0
 18 19  1  0
 19 20  2  0
 20 21  1  0
 21 22  2  0
 22 23  1  0
 23 24  2  0
  8 25  1  0
 25 26  2  0
 25 27  1  0
 27 28  2  0
 28  2  1  0
 27  5  1  0
 24 15  1  0
 24 19  1  0
  1 29  1  0
  3 30  1  0
  4 31  1  0
  6 32  1  0
  6 33  1  0
  7 34  1  0
  7 35  1  0
  8 36  1  0
  9 37  1  0
  9 38  1  0
 10 39  1  0
 11 40  1  0
 11 41  1  0
 12 42  1  0
 12 43  1  0
 13 44  1  0
 13 45  1  0
 16 46  1  0
 17 47  1  0
 18 48  1  0
 20 49  1  0
 21 50  1  0
 22 51  1  0
 23 52  1  0
 28 53  1  0
M  END
$$$$
[H]c1c(F)c([H])c(C(F)(F)F)c([H])c1N([H])C(=O)N([H])C12C([H])([H])C3([H])C([H])([H])C([H])(C([H])([H])C([H])(C3([H])[H])C1([H])[H])C2([H])[H]
     RDKit          3D

 45 48  0  0  0  0  0  0  0  0999 V2000
    4.7943    1.9317    2.7624 F   0  0  0  0  0  0  0  0  0  0  0  0
    4.7231    1.1271    1.6870 C   0  0  0  0  0  0  0  0  0  0  0  0
    3.5010    0.5065    1.4247 C   0  0  0  0  0  0  0  0  0  0  0  0
    3.3065   -0.3152    0.3492 C   0  0  0  0  0  0  0  0  0  0  0  0
    2.1144   -0.8973   -0.0578 N   0  0  0  0  0  0  0  0  0  0  0  0
    0.8010   -0.3943    0.2452 C   0  0  0  0  0  0  0  0  0  0  0  0
    0.6512    0.5553    0.9607 O   0  0  0  0  0  0  0  0  0  0  0  0
   -0.3375   -1.0664   -0.3461 N   0  0  0  0  0  0  0  0  0  0  0  0
   -1.6829   -0.5778   -0.1477 C   0  0  0  0  0  0  0  0  0  0  0  0
   -2.1362   -0.6525    1.2519 C   0  0  0  0  0  0  0  0  0  0  0  0
   -3.5404   -0.0586    1.3841 C   0  0  0  0  0  0  0  0  0  0  0  0
   -3.3778    1.3843    0.9356 C   0  0  0  0  0  0  0  0  0  0  0  0
   -3.0519    1.4618   -0.5105 C   0  0  0  0  0  0  0  0  0  0  0  0
   -4.0893    0.7460   -1.3151 C   0  0  0  0  0  0  0  0  0  0  0  0
   -4.0266   -0.7215   -0.9312 C   0  0  0  0  0  0  0  0  0  0  0  0
   -4.4732   -0.8230    0.5106 C   0  0  0  0  0  0  0  0  0  0  0  0
   -2.6561   -1.3219   -1.0613 C   0  0  0  0  0  0  0  0  0  0  0  0
   -1.6780    0.8446   -0.7236 C   0  0  0  0  0  0  0  0  0  0  0  0
    4.4167   -0.5044   -0.4863 C   0  0  0  0  0  0  0  0  0  0  0  0
    5.6361    0.0968   -0.2478 C   0  0  0  0  0  0  0  0  0  0  0  0
    5.7945    0.9307    0.8627 C   0  0  0  0  0  0  0  0  0  0  0  0
    6.7456   -0.1345   -1.2051 C   0  0  0  0  0  0  0  0  0  0  0  0
    6.7399   -1.4593   -1.6086 F   0  0  0  0  0  0  0  0  0  0  0  0
    6.5527    0.6885   -2.3103 F   0  0  0  0  0  0  0  0  0  0  0  0
    7.9589    0.1186   -0.6097 F   0  0  0  0  0  0  0  0  0  0  0  0
    2.6914    0.6730    2.1170 H   0  0  0  0  0  0  0  0  0  0  0  0
    2.1249   -1.7864   -0.6345 H   0  0  0  0  0  0  0  0  0  0  0  0
   -0.2007   -1.9256   -0.9051 H   0  0  0  0  0  0  0  0  0  0  0  0
   -1.5080   -0.0443    1.9140 H   0  0  0  0  0  0  0  0  0  0  0  0
   -2.1755   -1.7237    1.5589 H   0  0  0  0  0  0  0  0  0  0  0  0
   -3.8226   -0.1143    2.4445 H   0  0  0  0  0  0  0  0  0  0  0  0
   -2.4686    1.7474    1.5066 H   0  0  0  0  0  0  0  0  0  0  0  0
   -4.2081    2.0281    1.2785 H   0  0  0  0  0  0  0  0  0  0  0  0
   -2.9836    2.5229   -0.7998 H   0  0  0  0  0  0  0  0  0  0  0  0
   -5.0700    1.1354   -1.0030 H   0  0  0  0  0  0  0  0  0  0  0  0
   -3.9480    0.8824   -2.4039 H   0  0  0  0  0  0  0  0  0  0  0  0
   -4.7490   -1.3148   -1.5293 H   0  0  0  0  0  0  0  0  0  0  0  0
   -5.5293   -0.4885    0.6169 H   0  0  0  0  0  0  0  0  0  0  0  0
   -4.4195   -1.8924    0.7765 H   0  0  0  0  0  0  0  0  0  0  0  0
   -2.3098   -1.2298   -2.0966 H   0  0  0  0  0  0  0  0  0  0  0  0
   -2.7333   -2.3782   -0.7957 H   0  0  0  0  0  0  0  0  0  0  0  0
   -0.9515    1.5016   -0.2877 H   0  0  0  0  0  0  0  0  0  0  0  0
   -1.5392    0.6960   -1.8369 H   0  0  0  0  0  0  0  0  0  0  0  0
    4.3378   -1.1454   -1.3527 H   0  0  0  0  0  0  0  0  0  0  0  0
    6.7767    1.3911    1.0261 H   0  0  0  0  0  0  0  0  0  0  0  0
  1  2  1  0
  2  3  2  0
  3  4  1  0
  4  5  1  0
  5  6  1  0
  6  7  2  0
  6  8  1  0
  8  9  1  0
  9 10  1  0
 10 11  1  0
 11 12  1  0
 12 13  1  0
 13 14  1  0
 14 15  1  0
 15 16  1  0
 15 17  1  0
 13 18  1  0
  4 19  2  0
 19 20  1  0
 20 21  2  0
 20 22  1  0
 22 23  1  0
 22 24  1  0
 22 25  1  0
 21  2  1  0
 17  9  1  0
 18  9  1  0
 16 11  1  0
  3 26  1  0
  5 27  1  0
  8 28  1  0
 10 29  1  0
 10 30  1  0
 11 31  1  0
 12 32  1  0
 12 33  1  0
 13 34  1  0
 14 35  1  0
 14 36  1  0
 15 37  1  0
 16 38  1  0
 16 39  1  0
 17 40  1  0
 17 41  1  0
 18 42  1  0
 18 43  1  0
 19 44  1  0
 21 45  1  0
M  END
$$$$
[H]ON([H])C(=O)[C@]([H])(N(C([H])([H])c1c([H])c([H])c([H])c(C(F)(F)F)c1[H])S(=O)(=O)c1c([H])n(C([H])([H])[H])c2c([H])c([H])c([H])c([H])c12)C([H])(C([H])([H])[H])C([H])([H])[H]
     RDKit          3D

 57 59  0  0  0  0  0  0  0  0999 V2000
   -0.7711    3.2446   -1.3737 C   0  0  0  0  0  0  0  0  0  0  0  0
   -1.3061    2.7046   -0.1190 C   0  0  0  0  0  0  0  0  0  0  0  0
   -2.8378    2.9180   -0.0593 C   0  0  0  0  0  0  0  0  0  0  0  0
   -0.8274    1.4796    0.4888 C   0  0  1  0  0  0  0  0  0  0  0  0
   -0.8451    0.1912   -0.0968 N   0  0  0  0  0  0  0  0  0  0  0  0
   -2.1473   -0.3326   -0.3508 C   0  0  0  0  0  0  0  0  0  0  0  0
   -2.5376   -1.5895    0.2907 C   0  0  0  0  0  0  0  0  0  0  0  0
   -1.6811   -2.3641    1.0009 C   0  0  0  0  0  0  0  0  0  0  0  0
   -2.0589   -3.5329    1.6247 C   0  0  0  0  0  0  0  0  0  0  0  0
   -3.3612   -3.9461    1.5315 C   0  0  0  0  0  0  0  0  0  0  0  0
   -4.2713   -3.1965    0.8247 C   0  0  0  0  0  0  0  0  0  0  0  0
   -3.8675   -2.0417    0.2152 C   0  0  0  0  0  0  0  0  0  0  0  0
   -5.6790   -3.6873    0.7507 C   0  0  0  0  0  0  0  0  0  0  0  0
   -5.7946   -4.8904    1.3650 F   0  0  0  0  0  0  0  0  0  0  0  0
   -6.5556   -2.7632    1.2981 F   0  0  0  0  0  0  0  0  0  0  0  0
   -5.9367   -3.8646   -0.6058 F   0  0  0  0  0  0  0  0  0  0  0  0
    0.1746   -0.1456   -1.4018 S   0  0  0  0  0  0  0  0  0  0  0  0
   -0.2374    0.4884   -2.7005 O   0  0  0  0  0  0  0  0  0  0  0  0
   -0.1107   -1.6565   -1.6949 O   0  0  0  0  0  0  0  0  0  0  0  0
    1.8691   -0.0037   -1.1826 C   0  0  0  0  0  0  0  0  0  0  0  0
    2.6502    1.0090   -1.7720 C   0  0  0  0  0  0  0  0  0  0  0  0
    3.9209    0.8892   -1.3975 N   0  0  0  0  0  0  0  0  0  0  0  0
    5.0473    1.7540   -1.7870 C   0  0  0  0  0  0  0  0  0  0  0  0
    4.0475   -0.1537   -0.5860 C   0  0  0  0  0  0  0  0  0  0  0  0
    5.1335   -0.7052    0.0589 C   0  0  0  0  0  0  0  0  0  0  0  0
    4.9772   -1.8206    0.8524 C   0  0  0  0  0  0  0  0  0  0  0  0
    3.7311   -2.3844    0.9994 C   0  0  0  0  0  0  0  0  0  0  0  0
    2.6771   -1.8089    0.3430 C   0  0  0  0  0  0  0  0  0  0  0  0
    2.7680   -0.7104   -0.4524 C   0  0  0  0  0  0  0  0  0  0  0  0
    0.3603    1.6685    1.3539 C   0  0  0  0  0  0  0  0  0  0  0  0
    0.7808    0.7326    2.1199 O   0  0  0  0  0  0  0  0  0  0  0  0
    1.1236    2.8462    1.4217 N   0  0  0  0  0  0  0  0  0  0  0  0
    2.2025    3.0026    2.2212 O   0  0  0  0  0  0  0  0  0  0  0  0
    0.2845    3.0601   -1.5835 H   0  0  0  0  0  0  0  0  0  0  0  0
   -1.3580    3.0467   -2.2868 H   0  0  0  0  0  0  0  0  0  0  0  0
   -0.8211    4.3893   -1.3071 H   0  0  0  0  0  0  0  0  0  0  0  0
   -1.0039    3.5218    0.6637 H   0  0  0  0  0  0  0  0  0  0  0  0
   -3.2910    2.4252    0.8039 H   0  0  0  0  0  0  0  0  0  0  0  0
   -3.0995    3.9965    0.0331 H   0  0  0  0  0  0  0  0  0  0  0  0
   -3.2737    2.5766   -1.0203 H   0  0  0  0  0  0  0  0  0  0  0  0
   -1.6620    1.3097    1.3308 H   0  0  0  0  0  0  0  0  0  0  0  0
   -2.1837   -0.5585   -1.4731 H   0  0  0  0  0  0  0  0  0  0  0  0
   -2.9950    0.3484   -0.2320 H   0  0  0  0  0  0  0  0  0  0  0  0
   -0.6472   -2.0789    1.1025 H   0  0  0  0  0  0  0  0  0  0  0  0
   -1.3883   -4.1531    2.1935 H   0  0  0  0  0  0  0  0  0  0  0  0
   -3.6832   -4.8786    2.0247 H   0  0  0  0  0  0  0  0  0  0  0  0
   -4.5807   -1.4557   -0.3422 H   0  0  0  0  0  0  0  0  0  0  0  0
    2.2820    1.7767   -2.4287 H   0  0  0  0  0  0  0  0  0  0  0  0
    5.2711    2.4550   -0.9547 H   0  0  0  0  0  0  0  0  0  0  0  0
    4.7639    2.3307   -2.7041 H   0  0  0  0  0  0  0  0  0  0  0  0
    5.9541    1.1951   -2.0339 H   0  0  0  0  0  0  0  0  0  0  0  0
    6.1352   -0.2705   -0.0463 H   0  0  0  0  0  0  0  0  0  0  0  0
    5.8137   -2.2932    1.3828 H   0  0  0  0  0  0  0  0  0  0  0  0
    3.5439   -3.2453    1.5988 H   0  0  0  0  0  0  0  0  0  0  0  0
    1.6744   -2.2356    0.4502 H   0  0  0  0  0  0  0  0  0  0  0  0
    0.8770    3.6529    0.8196 H   0  0  0  0  0  0  0  0  0  0  0  0
    2.7503    3.7543    1.8859 H   0  0  0  0  0  0  0  0  0  0  0  0
  1  2  1  0
  2  3  1  0
  2  4  1  0
  4  5  1  0
  5  6  1  0
  6  7  1  0
  7  8  2  0
  8  9  1  0
  9 10  2  0
 10 11  1  0
 11 12  2  0
 11 13  1  0
 13 14  1  0
 13 15  1  0
 13 16  1  0
  5 17  1  0
 17 18  2  0
 17 19  2  0
 17 20  1  0
 20 21  2  0
 21 22  1  0
 22 23  1  0
 22 24  1  0
 24 25  2  0
 25 26  1  0
 26 27  2  0
 27 28  1  0
 28 29  2  0
  4 30  1  0
 30 31  2  0
 30 32  1  0
 32 33  1  0
 12  7  1  0
 29 20  1  0
 29 24  1  0
  1 34  1  0
  1 35  1  0
  1 36  1  0
  2 37  1  0
  3 38  1  0
  3 39  1  0
  3 40  1  0
  4 41  1  1
  6 42  1  0
  6 43  1  0
  8 44  1  0
  9 45  1  0
 10 46  1  0
 12 47  1  0
 21 48  1  0
 23 49  1  0
 23 50  1  0
 23 51  1  0
 25 52  1  0
 26 53  1  0
 27 54  1  0
 28 55  1  0
 32 56  1  0
 33 57  1  0
M  END
$$$$
[H]c1c([H])c([H])c2c([H])c(-c3nn(C4([H])C(F)(F)C([H])([H])C([H])([H])[C@]([H])(C(=O)N([H])C5(C([H])(C([H])([H])[H])C([H])([H])[H])C([H])([H])C([H])([H])C([H])([H])C([H])([H])C5([H])[H])C4([H])[H])c4c3C([H])([H])C([H])([H])C([H])([H])C4([H])[H])c([H])c([H])c2c1[H]
     RDKit          3D

 80 85  0  0  0  0  0  0  0  0999 V2000
   -7.2140    1.9051   -0.1039 C   0  0  0  0  0  0  0  0  0  0  0  0
   -5.8967    1.4085   -0.6921 C   0  0  0  0  0  0  0  0  0  0  0  0
   -5.0141    2.5727   -0.8436 C   0  0  0  0  0  0  0  0  0  0  0  0
   -5.4323    0.1362   -0.1121 C   0  0  0  0  0  0  0  0  0  0  0  0
   -5.2246    0.2468    1.3985 C   0  0  0  0  0  0  0  0  0  0  0  0
   -6.3706   -0.1695    2.2332 C   0  0  0  0  0  0  0  0  0  0  0  0
   -6.8554   -1.5650    1.8971 C   0  0  0  0  0  0  0  0  0  0  0  0
   -7.2828   -1.5349    0.4619 C   0  0  0  0  0  0  0  0  0  0  0  0
   -6.3276   -1.0030   -0.5112 C   0  0  0  0  0  0  0  0  0  0  0  0
   -4.1044   -0.1970   -0.5895 N   0  0  0  0  0  0  0  0  0  0  0  0
   -2.8727    0.3248   -0.2214 C   0  0  0  0  0  0  0  0  0  0  0  0
   -2.7433    1.1958    0.6519 O   0  0  0  0  0  0  0  0  0  0  0  0
   -1.5838   -0.1296   -0.8598 C   0  0  1  0  0  0  0  0  0  0  0  0
   -1.6271    0.1491   -2.3584 C   0  0  0  0  0  0  0  0  0  0  0  0
   -0.3878   -0.5925   -2.8789 C   0  0  0  0  0  0  0  0  0  0  0  0
    0.7966    0.1794   -2.4264 C   0  0  0  0  0  0  0  0  0  0  0  0
    1.9362   -0.5684   -2.7560 F   0  0  0  0  0  0  0  0  0  0  0  0
    0.8911    1.2571   -3.3345 F   0  0  0  0  0  0  0  0  0  0  0  0
    0.8138    0.6283   -1.0127 C   0  0  0  0  0  0  0  0  0  0  0  0
   -0.3901    0.4862   -0.1905 C   0  0  0  0  0  0  0  0  0  0  0  0
    2.0493    0.1196   -0.3915 N   0  0  0  0  0  0  0  0  0  0  0  0
    3.1339    0.8265   -0.1203 N   0  0  0  0  0  0  0  0  0  0  0  0
    4.0808    0.0675    0.4412 C   0  0  0  0  0  0  0  0  0  0  0  0
    3.5924   -1.2129    0.5462 C   0  0  0  0  0  0  0  0  0  0  0  0
    4.2444   -2.4211    1.0917 C   0  0  0  0  0  0  0  0  0  0  0  0
    3.4742   -3.6850    0.6772 C   0  0  0  0  0  0  0  0  0  0  0  0
    2.0266   -3.3596    0.9869 C   0  0  0  0  0  0  0  0  0  0  0  0
    1.4850   -2.3555   -0.0426 C   0  0  0  0  0  0  0  0  0  0  0  0
    2.3187   -1.1528    0.0174 C   0  0  0  0  0  0  0  0  0  0  0  0
    5.4111    0.4981    0.8661 C   0  0  0  0  0  0  0  0  0  0  0  0
    5.9336    0.1467    2.0881 C   0  0  0  0  0  0  0  0  0  0  0  0
    7.2099    0.5678    2.4693 C   0  0  0  0  0  0  0  0  0  0  0  0
    7.9929    1.3464    1.6448 C   0  0  0  0  0  0  0  0  0  0  0  0
    9.2565    1.7427    2.0645 C   0  0  0  0  0  0  0  0  0  0  0  0
   10.0186    2.5123    1.2384 C   0  0  0  0  0  0  0  0  0  0  0  0
    9.5123    2.8801   -0.0008 C   0  0  0  0  0  0  0  0  0  0  0  0
    8.2599    2.4776   -0.3971 C   0  0  0  0  0  0  0  0  0  0  0  0
    7.4713    1.7002    0.4190 C   0  0  0  0  0  0  0  0  0  0  0  0
    6.2126    1.2853    0.0422 C   0  0  0  0  0  0  0  0  0  0  0  0
   -8.0259    1.1611   -0.1761 H   0  0  0  0  0  0  0  0  0  0  0  0
   -7.5362    2.7159   -0.8290 H   0  0  0  0  0  0  0  0  0  0  0  0
   -7.1068    2.4179    0.8484 H   0  0  0  0  0  0  0  0  0  0  0  0
   -6.2327    1.1396   -1.7731 H   0  0  0  0  0  0  0  0  0  0  0  0
   -4.1371    2.3105   -1.4757 H   0  0  0  0  0  0  0  0  0  0  0  0
   -4.6658    3.0821    0.0529 H   0  0  0  0  0  0  0  0  0  0  0  0
   -5.5763    3.4195   -1.4006 H   0  0  0  0  0  0  0  0  0  0  0  0
   -4.9935    1.3060    1.6313 H   0  0  0  0  0  0  0  0  0  0  0  0
   -4.3455   -0.3504    1.7075 H   0  0  0  0  0  0  0  0  0  0  0  0
   -7.2087    0.5484    2.3170 H   0  0  0  0  0  0  0  0  0  0  0  0
   -5.9724   -0.2540    3.2892 H   0  0  0  0  0  0  0  0  0  0  0  0
   -6.0276   -2.2665    2.1064 H   0  0  0  0  0  0  0  0  0  0  0  0
   -7.7468   -1.7636    2.5246 H   0  0  0  0  0  0  0  0  0  0  0  0
   -8.3068   -1.1018    0.4486 H   0  0  0  0  0  0  0  0  0  0  0  0
   -7.4726   -2.6257    0.1998 H   0  0  0  0  0  0  0  0  0  0  0  0
   -5.6993   -1.8610   -0.8963 H   0  0  0  0  0  0  0  0  0  0  0  0
   -6.8897   -0.6723   -1.4171 H   0  0  0  0  0  0  0  0  0  0  0  0
   -4.0376   -0.9691   -1.3556 H   0  0  0  0  0  0  0  0  0  0  0  0
   -1.5555   -1.2375   -0.7635 H   0  0  0  0  0  0  0  0  0  0  0  0
   -2.5526   -0.2868   -2.7498 H   0  0  0  0  0  0  0  0  0  0  0  0
   -1.5032    1.2246   -2.5498 H   0  0  0  0  0  0  0  0  0  0  0  0
   -0.3880   -0.6096   -3.9896 H   0  0  0  0  0  0  0  0  0  0  0  0
   -0.3334   -1.6205   -2.4742 H   0  0  0  0  0  0  0  0  0  0  0  0
    1.0051    1.7537   -1.0835 H   0  0  0  0  0  0  0  0  0  0  0  0
   -0.2658   -0.0375    0.7937 H   0  0  0  0  0  0  0  0  0  0  0  0
   -0.7733    1.5005    0.1576 H   0  0  0  0  0  0  0  0  0  0  0  0
    4.2508   -2.4563    2.2011 H   0  0  0  0  0  0  0  0  0  0  0  0
    5.2779   -2.5688    0.6838 H   0  0  0  0  0  0  0  0  0  0  0  0
    3.7611   -4.5336    1.3236 H   0  0  0  0  0  0  0  0  0  0  0  0
    3.5499   -3.8781   -0.3969 H   0  0  0  0  0  0  0  0  0  0  0  0
    1.3894   -4.2401    1.0763 H   0  0  0  0  0  0  0  0  0  0  0  0
    2.0179   -2.8269    1.9601 H   0  0  0  0  0  0  0  0  0  0  0  0
    1.4255   -2.8440   -1.0376 H   0  0  0  0  0  0  0  0  0  0  0  0
    0.4321   -2.2257    0.2744 H   0  0  0  0  0  0  0  0  0  0  0  0
    5.3819   -0.4580    2.7918 H   0  0  0  0  0  0  0  0  0  0  0  0
    7.6180    0.2893    3.4316 H   0  0  0  0  0  0  0  0  0  0  0  0
    9.6549    1.4523    3.0419 H   0  0  0  0  0  0  0  0  0  0  0  0
   10.9983    2.8191    1.5646 H   0  0  0  0  0  0  0  0  0  0  0  0
   10.0953    3.4888   -0.6733 H   0  0  0  0  0  0  0  0  0  0  0  0
    7.9023    2.7821   -1.3638 H   0  0  0  0  0  0  0  0  0  0  0  0
    5.7985    1.5626   -0.9237 H   0  0  0  0  0  0  0  0  0  0  0  0
  1  2  1  0
  2  3  1  0
  2  4  1  0
  4  5  1  0
  5  6  1  0
  6  7  1  0
  7  8  1  0
  8  9  1  0
  4 10  1  0
 10 11  1  0
 11 12  2  0
 11 13  1  0
 13 14  1  0
 14 15  1  0
 15 16  1  0
 16 17  1  0
 16 18  1  0
 16 19  1  0
 19 20  1  0
 19 21  1  0
 21 22  1  0
 22 23  2  0
 23 24  1  0
 24 25  1  0
 25 26  1  0
 26 27  1  0
 27 28  1  0
 28 29  1  0
 23 30  1  0
 30 31  2  0
 31 32  1  0
 32 33  2  0
 33 34  1  0
 34 35  2  0
 35 36  1  0
 36 37  2  0
 37 38  1  0
 38 39  2  0
  9  4  1  0
 20 13  1  0
 29 21  1  0
 39 30  1  0
 29 24  2  0
 38 33  1  0
  1 40  1  0
  1 41  1  0
  1 42  1  0
  2 43  1  0
  3 44  1  0
  3 45  1  0
  3 46  1  0
  5 47  1  0
  5 48  1  0
  6 49  1  0
  6 50  1  0
  7 51  1  0
  7 52  1  0
  8 53  1  0
  8 54  1  0
  9 55  1  0
  9 56  1  0
 10 57  1  0
 13 58  1  6
 14 59  1  0
 14 60  1  0
 15 61  1  0
 15 62  1  0
 19 63  1  0
 20 64  1  0
 20 65  1  0
 25 66  1  0
 25 67  1  0
 26 68  1  0
 26 69  1  0
 27 70  1  0
 27 71  1  0
 28 72  1  0
 28 73  1  0
 31 74  1  0
 32 75  1  0
 34 76  1  0
 35 77  1  0
 36 78  1  0
 37 79  1  0
 39 80  1  0
M  END
$$$$
[H]c1nc(N([H])c2c([H])c([H])c(N3C([H])([H])C([H])([H])N(C([H])([H])[H])C([H])([H])C3([H])[H])c([H])c2[H])nc2c1C([H])([H])C([H])([H])N(C(=O)N([H])[C@@]([H])(c1c([H])c([H])c([H])c([H])c1[H])C([H])([H])[H])C2([H])[H]
     RDKit          3D

 68 72  0  0  0  0  0  0  0  0999 V2000
   -7.4240   -2.0289   -1.4168 C   0  0  0  0  0  0  0  0  0  0  0  0
   -7.4304   -1.0456   -0.2507 C   0  0  1  0  0  0  0  0  0  0  0  0
   -6.0359   -0.7542    0.0314 N   0  0  0  0  0  0  0  0  0  0  0  0
   -5.5205   -1.1284    1.3003 C   0  0  0  0  0  0  0  0  0  0  0  0
   -6.2704   -1.6997    2.1514 O   0  0  0  0  0  0  0  0  0  0  0  0
   -4.1587   -0.8495    1.5894 N   0  0  0  0  0  0  0  0  0  0  0  0
   -3.6604   -1.2381    2.8931 C   0  0  0  0  0  0  0  0  0  0  0  0
   -2.5597   -0.2725    3.3356 C   0  0  0  0  0  0  0  0  0  0  0  0
   -1.5500   -0.1927    2.2562 C   0  0  0  0  0  0  0  0  0  0  0  0
   -0.1961   -0.1492    2.5391 C   0  0  0  0  0  0  0  0  0  0  0  0
    0.7062   -0.0811    1.5558 N   0  0  0  0  0  0  0  0  0  0  0  0
    0.3923   -0.0498    0.2565 C   0  0  0  0  0  0  0  0  0  0  0  0
    1.3156    0.0217   -0.8051 N   0  0  0  0  0  0  0  0  0  0  0  0
    2.6944    0.0900   -0.6818 C   0  0  0  0  0  0  0  0  0  0  0  0
    3.3270    0.5885    0.4230 C   0  0  0  0  0  0  0  0  0  0  0  0
    4.7260    0.6204    0.5336 C   0  0  0  0  0  0  0  0  0  0  0  0
    5.4920    0.1376   -0.4987 C   0  0  0  0  0  0  0  0  0  0  0  0
    4.8633   -0.3743   -1.6349 C   0  0  0  0  0  0  0  0  0  0  0  0
    3.4987   -0.4044   -1.7391 C   0  0  0  0  0  0  0  0  0  0  0  0
    6.9061    0.1707   -0.3973 N   0  0  0  0  0  0  0  0  0  0  0  0
    7.7020   -0.4619   -1.3961 C   0  0  0  0  0  0  0  0  0  0  0  0
    9.0908   -0.8296   -0.9626 C   0  0  0  0  0  0  0  0  0  0  0  0
    9.6670    0.0450    0.0057 N   0  0  0  0  0  0  0  0  0  0  0  0
   11.0368    0.4372   -0.3537 C   0  0  0  0  0  0  0  0  0  0  0  0
    8.9304    1.2477    0.2315 C   0  0  0  0  0  0  0  0  0  0  0  0
    7.5260    0.8459    0.7068 C   0  0  0  0  0  0  0  0  0  0  0  0
   -0.9551   -0.0936   -0.0078 N   0  0  0  0  0  0  0  0  0  0  0  0
   -1.9016   -0.1619    0.9303 C   0  0  0  0  0  0  0  0  0  0  0  0
   -3.3510   -0.2035    0.5901 C   0  0  0  0  0  0  0  0  0  0  0  0
   -8.1889    0.1647   -0.6059 C   0  0  0  0  0  0  0  0  0  0  0  0
   -9.4287    0.3825   -0.0557 C   0  0  0  0  0  0  0  0  0  0  0  0
  -10.1777    1.5181   -0.3684 C   0  0  0  0  0  0  0  0  0  0  0  0
   -9.6585    2.4283   -1.2423 C   0  0  0  0  0  0  0  0  0  0  0  0
   -8.4147    2.2008   -1.7885 C   0  0  0  0  0  0  0  0  0  0  0  0
   -7.6542    1.0724   -1.4869 C   0  0  0  0  0  0  0  0  0  0  0  0
   -8.3500   -2.6558   -1.4081 H   0  0  0  0  0  0  0  0  0  0  0  0
   -7.2608   -1.5307   -2.3806 H   0  0  0  0  0  0  0  0  0  0  0  0
   -6.5730   -2.7180   -1.2410 H   0  0  0  0  0  0  0  0  0  0  0  0
   -7.9024   -1.5342    0.5999 H   0  0  0  0  0  0  0  0  0  0  0  0
   -5.4224   -0.2821   -0.6730 H   0  0  0  0  0  0  0  0  0  0  0  0
   -4.4433   -1.2260    3.6682 H   0  0  0  0  0  0  0  0  0  0  0  0
   -3.2006   -2.2482    2.8923 H   0  0  0  0  0  0  0  0  0  0  0  0
   -2.9752    0.7028    3.6217 H   0  0  0  0  0  0  0  0  0  0  0  0
   -2.1295   -0.7313    4.2607 H   0  0  0  0  0  0  0  0  0  0  0  0
    0.0781   -0.1737    3.5837 H   0  0  0  0  0  0  0  0  0  0  0  0
    0.8599    0.0202   -1.7880 H   0  0  0  0  0  0  0  0  0  0  0  0
    2.7944    1.0110    1.2772 H   0  0  0  0  0  0  0  0  0  0  0  0
    5.1430    1.0295    1.4429 H   0  0  0  0  0  0  0  0  0  0  0  0
    5.4734   -0.7576   -2.4598 H   0  0  0  0  0  0  0  0  0  0  0  0
    2.9693   -0.7832   -2.5825 H   0  0  0  0  0  0  0  0  0  0  0  0
    7.6792    0.1136   -2.3518 H   0  0  0  0  0  0  0  0  0  0  0  0
    7.1967   -1.4404   -1.6527 H   0  0  0  0  0  0  0  0  0  0  0  0
    9.1425   -1.9071   -0.6470 H   0  0  0  0  0  0  0  0  0  0  0  0
    9.7352   -0.7880   -1.8847 H   0  0  0  0  0  0  0  0  0  0  0  0
   11.7694   -0.3232   -0.0775 H   0  0  0  0  0  0  0  0  0  0  0  0
   11.2960    1.3630    0.2105 H   0  0  0  0  0  0  0  0  0  0  0  0
   11.0284    0.6852   -1.4250 H   0  0  0  0  0  0  0  0  0  0  0  0
    9.4524    1.8641    0.9709 H   0  0  0  0  0  0  0  0  0  0  0  0
    8.8633    1.7893   -0.7380 H   0  0  0  0  0  0  0  0  0  0  0  0
    6.9840    1.7554    1.0416 H   0  0  0  0  0  0  0  0  0  0  0  0
    7.6269    0.1950    1.5797 H   0  0  0  0  0  0  0  0  0  0  0  0
   -3.4909   -0.8095   -0.3539 H   0  0  0  0  0  0  0  0  0  0  0  0
   -3.7275    0.8097    0.3249 H   0  0  0  0  0  0  0  0  0  0  0  0
   -9.8920   -0.2977    0.6392 H   0  0  0  0  0  0  0  0  0  0  0  0
  -11.1548    1.7052    0.0553 H   0  0  0  0  0  0  0  0  0  0  0  0
  -10.2304    3.3315   -1.5043 H   0  0  0  0  0  0  0  0  0  0  0  0
   -7.9914    2.9117   -2.4807 H   0  0  0  0  0  0  0  0  0  0  0  0
   -6.6863    0.9670   -1.9582 H   0  0  0  0  0  0  0  0  0  0  0  0
  1  2  1  0
  2  3  1  0
  3  4  1  0
  4  5  2  0
  4  6  1  0
  6  7  1  0
  7  8  1  0
  8  9  1  0
  9 10  2  0
 10 11  1  0
 11 12  2  0
 12 13  1  0
 13 14  1  0
 14 15  2  0
 15 16  1  0
 16 17  2  0
 17 18  1  0
 18 19  2  0
 17 20  1  0
 20 21  1  0
 21 22  1  0
 22 23  1  0
 23 24  1  0
 23 25  1  0
 25 26  1  0
 12 27  1  0
 27 28  2  0
 28 29  1  0
  2 30  1  0
 30 31  2  0
 31 32  1  0
 32 33  2  0
 33 34  1  0
 34 35  2  0
 29  6  1  0
 35 30  1  0
 28  9  1  0
 19 14  1  0
 26 20  1  0
  1 36  1  0
  1 37  1  0
  1 38  1  0
  2 39  1  1
  3 40  1  0
  7 41  1  0
  7 42  1  0
  8 43  1  0
  8 44  1  0
 10 45  1  0
 13 46  1  0
 15 47  1  0
 16 48  1  0
 18 49  1  0
 19 50  1  0
 21 51  1  0
 21 52  1  0
 22 53  1  0
 22 54  1  0
 24 55  1  0
 24 56  1  0
 24 57  1  0
 25 58  1  0
 25 59  1  0
 26 60  1  0
 26 61  1  0
 29 62  1  0
 29 63  1  0
 31 64  1  0
 32 65  1  0
 33 66  1  0
 34 67  1  0
 35 68  1  0
M  END
$$$$
[H]c1nc(N([H])c2c([H])c([H])c(N3C([H])([H])C([H])([H])N(C([H])([H])[H])C([H])([H])[C@]3([H])C([H])([H])[H])c([H])c2[H])nc(N([H])c2nc3c(c([H])c2[H])OC(C([H])([H])[H])(C([H])([H])[H])C(=O)N3[H])c1F
     RDKit          3D

 65 69  0  0  0  0  0  0  0  0999 V2000
   -6.0312    0.6308   -0.0732 C   0  0  0  0  0  0  0  0  0  0  0  0
   -5.2188   -0.6356   -0.1928 C   0  0  1  0  0  0  0  0  0  0  0  0
   -5.5472   -1.3469   -1.5010 C   0  0  0  0  0  0  0  0  0  0  0  0
   -4.9414   -2.6240   -1.5519 N   0  0  0  0  0  0  0  0  0  0  0  0
   -5.8242   -3.7261   -1.4201 C   0  0  0  0  0  0  0  0  0  0  0  0
   -3.7322   -2.7530   -0.8043 C   0  0  0  0  0  0  0  0  0  0  0  0
   -2.9689   -1.4322   -0.8086 C   0  0  0  0  0  0  0  0  0  0  0  0
   -3.8014   -0.4471   -0.1415 N   0  0  0  0  0  0  0  0  0  0  0  0
   -3.1129    0.6058    0.5168 C   0  0  0  0  0  0  0  0  0  0  0  0
   -1.8652    1.0175    0.0375 C   0  0  0  0  0  0  0  0  0  0  0  0
   -1.1308    2.0214    0.6219 C   0  0  0  0  0  0  0  0  0  0  0  0
   -1.5853    2.6864    1.7241 C   0  0  0  0  0  0  0  0  0  0  0  0
   -0.8999    3.7297    2.3904 N   0  0  0  0  0  0  0  0  0  0  0  0
    0.4785    3.9929    2.4077 C   0  0  0  0  0  0  0  0  0  0  0  0
    0.8621    5.1156    3.1067 N   0  0  0  0  0  0  0  0  0  0  0  0
    2.1530    5.4476    3.1891 C   0  0  0  0  0  0  0  0  0  0  0  0
    3.1174    4.7028    2.5965 C   0  0  0  0  0  0  0  0  0  0  0  0
    4.4080    5.0900    2.7152 F   0  0  0  0  0  0  0  0  0  0  0  0
    2.7641    3.5435    1.8724 C   0  0  0  0  0  0  0  0  0  0  0  0
    3.8068    2.8516    1.2689 N   0  0  0  0  0  0  0  0  0  0  0  0
    3.7677    1.6283    0.5593 C   0  0  0  0  0  0  0  0  0  0  0  0
    2.6585    0.8394    0.4484 C   0  0  0  0  0  0  0  0  0  0  0  0
    2.6338   -0.3630   -0.2753 C   0  0  0  0  0  0  0  0  0  0  0  0
    3.8074   -0.7347   -0.8912 C   0  0  0  0  0  0  0  0  0  0  0  0
    3.8175   -1.9248   -1.6173 O   0  0  0  0  0  0  0  0  0  0  0  0
    5.0833   -2.5912   -1.7290 C   0  0  0  0  0  0  0  0  0  0  0  0
    5.5324   -3.1148   -0.3848 C   0  0  0  0  0  0  0  0  0  0  0  0
    4.9965   -3.7365   -2.7071 C   0  0  0  0  0  0  0  0  0  0  0  0
    6.0772   -1.5732   -2.1518 C   0  0  0  0  0  0  0  0  0  0  0  0
    6.8413   -1.7778   -3.1051 O   0  0  0  0  0  0  0  0  0  0  0  0
    6.1267   -0.3542   -1.4302 N   0  0  0  0  0  0  0  0  0  0  0  0
    4.9135    0.0708   -0.7695 C   0  0  0  0  0  0  0  0  0  0  0  0
    4.9175    1.2032   -0.0820 N   0  0  0  0  0  0  0  0  0  0  0  0
    1.4551    3.3003    1.8499 N   0  0  0  0  0  0  0  0  0  0  0  0
   -2.8383    2.2735    2.2079 C   0  0  0  0  0  0  0  0  0  0  0  0
   -3.5740    1.2730    1.6285 C   0  0  0  0  0  0  0  0  0  0  0  0
   -6.8035    0.6590   -0.8979 H   0  0  0  0  0  0  0  0  0  0  0  0
   -6.5630    0.7640    0.8594 H   0  0  0  0  0  0  0  0  0  0  0  0
   -5.3771    1.4930   -0.2903 H   0  0  0  0  0  0  0  0  0  0  0  0
   -5.5172   -1.3244    0.6269 H   0  0  0  0  0  0  0  0  0  0  0  0
   -5.0806   -0.7340   -2.3235 H   0  0  0  0  0  0  0  0  0  0  0  0
   -6.6450   -1.3268   -1.6150 H   0  0  0  0  0  0  0  0  0  0  0  0
   -5.4545   -4.5435   -2.1057 H   0  0  0  0  0  0  0  0  0  0  0  0
   -6.8577   -3.5049   -1.8015 H   0  0  0  0  0  0  0  0  0  0  0  0
   -5.9321   -4.1489   -0.4012 H   0  0  0  0  0  0  0  0  0  0  0  0
   -3.8633   -3.1683    0.2188 H   0  0  0  0  0  0  0  0  0  0  0  0
   -3.0668   -3.4830   -1.3353 H   0  0  0  0  0  0  0  0  0  0  0  0
   -2.7251   -1.1967   -1.8458 H   0  0  0  0  0  0  0  0  0  0  0  0
   -2.0357   -1.6110   -0.2446 H   0  0  0  0  0  0  0  0  0  0  0  0
   -1.4588    0.5177   -0.8395 H   0  0  0  0  0  0  0  0  0  0  0  0
   -0.1571    2.3195    0.1994 H   0  0  0  0  0  0  0  0  0  0  0  0
   -1.5134    4.4063    2.9497 H   0  0  0  0  0  0  0  0  0  0  0  0
    2.4471    6.3369    3.7421 H   0  0  0  0  0  0  0  0  0  0  0  0
    4.7985    3.3023    1.3382 H   0  0  0  0  0  0  0  0  0  0  0  0
    1.7484    1.0988    0.9354 H   0  0  0  0  0  0  0  0  0  0  0  0
    1.7279   -0.9359   -0.3236 H   0  0  0  0  0  0  0  0  0  0  0  0
    6.4366   -3.7279   -0.5405 H   0  0  0  0  0  0  0  0  0  0  0  0
    5.7931   -2.2875    0.3060 H   0  0  0  0  0  0  0  0  0  0  0  0
    4.7591   -3.7779    0.0681 H   0  0  0  0  0  0  0  0  0  0  0  0
    4.1268   -3.6107   -3.3981 H   0  0  0  0  0  0  0  0  0  0  0  0
    4.8199   -4.6678   -2.1385 H   0  0  0  0  0  0  0  0  0  0  0  0
    5.9589   -3.7677   -3.2571 H   0  0  0  0  0  0  0  0  0  0  0  0
    7.0039    0.2161   -1.3752 H   0  0  0  0  0  0  0  0  0  0  0  0
   -3.1870    2.8097    3.0884 H   0  0  0  0  0  0  0  0  0  0  0  0
   -4.5288    1.0043    2.0628 H   0  0  0  0  0  0  0  0  0  0  0  0
  1  2  1  0
  2  3  1  0
  3  4  1  0
  4  5  1  0
  4  6  1  0
  6  7  1  0
  7  8  1  0
  8  9  1  0
  9 10  2  0
 10 11  1  0
 11 12  2  0
 12 13  1  0
 13 14  1  0
 14 15  2  0
 15 16  1  0
 16 17  2  0
 17 18  1  0
 17 19  1  0
 19 20  1  0
 20 21  1  0
 21 22  2  0
 22 23  1  0
 23 24  2  0
 24 25  1  0
 25 26  1  0
 26 27  1  0
 26 28  1  0
 26 29  1  0
 29 30  2  0
 29 31  1  0
 31 32  1  0
 32 33  2  0
 19 34  2  0
 12 35  1  0
 35 36  2  0
  8  2  1  0
 36  9  1  0
 34 14  1  0
 33 21  1  0
 32 24  1  0
  1 37  1  0
  1 38  1  0
  1 39  1  0
  2 40  1  1
  3 41  1  0
  3 42  1  0
  5 43  1  0
  5 44  1  0
  5 45  1  0
  6 46  1  0
  6 47  1  0
  7 48  1  0
  7 49  1  0
 10 50  1  0
 11 51  1  0
 13 52  1  0
 16 53  1  0
 20 54  1  0
 22 55  1  0
 23 56  1  0
 27 57  1  0
 27 58  1  0
 27 59  1  0
 28 60  1  0
 28 61  1  0
 28 62  1  0
 31 63  1  0
 35 64  1  0
 36 65  1  0
M  END
$$$$
[H]N=C(N([H])[H])N([H])C(=O)C([H])([H])C([H])([H])[C@@]([H])(C(=O)O[H])N([H])C(=O)c1c([H])c([H])c(C([H])([H])N(C([H])([H])[H])C([H])([H])C([H])([H])C([H])([H])C([H])([H])N([H])[H])c([H])c1[H]
     RDKit          3D

 59 59  0  0  0  0  0  0  0  0999 V2000
   -3.8111   -1.7641   -0.2324 C   0  0  0  0  0  0  0  0  0  0  0  0
   -3.7362   -0.9085   -1.3981 N   0  0  0  0  0  0  0  0  0  0  0  0
   -3.6296    0.4575   -1.0969 C   0  0  0  0  0  0  0  0  0  0  0  0
   -4.7952    1.1393   -0.5133 C   0  0  0  0  0  0  0  0  0  0  0  0
   -6.0706    1.1230   -1.2942 C   0  0  0  0  0  0  0  0  0  0  0  0
   -6.7899   -0.1685   -1.4643 C   0  0  0  0  0  0  0  0  0  0  0  0
   -7.2191   -0.6048   -0.1442 N   0  0  0  0  0  0  0  0  0  0  0  0
   -2.8032   -1.3631   -2.4085 C   0  0  0  0  0  0  0  0  0  0  0  0
   -1.4273   -1.5056   -1.8739 C   0  0  0  0  0  0  0  0  0  0  0  0
   -0.6129   -0.5044   -1.4939 C   0  0  0  0  0  0  0  0  0  0  0  0
    0.5946   -0.7844   -0.8956 C   0  0  0  0  0  0  0  0  0  0  0  0
    0.9848   -2.0385   -0.6824 C   0  0  0  0  0  0  0  0  0  0  0  0
    0.2151   -3.1245   -1.0500 C   0  0  0  0  0  0  0  0  0  0  0  0
   -0.9984   -2.8383   -1.6475 C   0  0  0  0  0  0  0  0  0  0  0  0
    2.2405   -2.2127    0.1185 C   0  0  0  0  0  0  0  0  0  0  0  0
    3.0438   -3.0519   -0.2875 O   0  0  0  0  0  0  0  0  0  0  0  0
    2.3116   -1.3828    1.2356 N   0  0  0  0  0  0  0  0  0  0  0  0
    3.1681   -1.1503    2.3048 C   0  0  1  0  0  0  0  0  0  0  0  0
    4.3987   -0.3549    2.0241 C   0  0  0  0  0  0  0  0  0  0  0  0
    4.2013    0.9682    1.3811 C   0  0  0  0  0  0  0  0  0  0  0  0
    5.4358    1.8509    1.4274 C   0  0  0  0  0  0  0  0  0  0  0  0
    6.1739    1.5181    2.5166 O   0  0  0  0  0  0  0  0  0  0  0  0
    5.7473    2.7612    0.6036 N   0  0  0  0  0  0  0  0  0  0  0  0
    6.1044    3.8011   -0.3365 C   0  0  0  0  0  0  0  0  0  0  0  0
    7.2661    4.5746   -0.1227 N   0  0  0  0  0  0  0  0  0  0  0  0
    5.4133    4.0571   -1.3690 N   0  0  0  0  0  0  0  0  0  0  0  0
    2.4748   -0.7375    3.5631 C   0  0  0  0  0  0  0  0  0  0  0  0
    3.1978    0.0844    4.4140 O   0  0  0  0  0  0  0  0  0  0  0  0
    1.3204   -1.0680    3.8886 O   0  0  0  0  0  0  0  0  0  0  0  0
   -4.0090   -1.1460    0.7072 H   0  0  0  0  0  0  0  0  0  0  0  0
   -2.8584   -2.2705   -0.0486 H   0  0  0  0  0  0  0  0  0  0  0  0
   -4.6109   -2.5163   -0.3196 H   0  0  0  0  0  0  0  0  0  0  0  0
   -2.7937    0.6261   -0.3163 H   0  0  0  0  0  0  0  0  0  0  0  0
   -3.2209    1.0161   -1.9620 H   0  0  0  0  0  0  0  0  0  0  0  0
   -4.5501    2.2384   -0.3056 H   0  0  0  0  0  0  0  0  0  0  0  0
   -5.0327    0.7203    0.5232 H   0  0  0  0  0  0  0  0  0  0  0  0
   -6.8321    1.8309   -0.8101 H   0  0  0  0  0  0  0  0  0  0  0  0
   -5.9302    1.5774   -2.3290 H   0  0  0  0  0  0  0  0  0  0  0  0
   -6.2741   -0.9682   -1.9626 H   0  0  0  0  0  0  0  0  0  0  0  0
   -7.7216    0.0695   -2.0411 H   0  0  0  0  0  0  0  0  0  0  0  0
   -8.1920   -0.9660   -0.1676 H   0  0  0  0  0  0  0  0  0  0  0  0
   -7.1379    0.2613    0.4775 H   0  0  0  0  0  0  0  0  0  0  0  0
   -2.8033   -0.6349   -3.2265 H   0  0  0  0  0  0  0  0  0  0  0  0
   -3.1832   -2.3276   -2.7619 H   0  0  0  0  0  0  0  0  0  0  0  0
   -0.8803    0.5254   -1.6382 H   0  0  0  0  0  0  0  0  0  0  0  0
    1.1928    0.0898   -0.6321 H   0  0  0  0  0  0  0  0  0  0  0  0
    0.5879   -4.1099   -0.8767 H   0  0  0  0  0  0  0  0  0  0  0  0
   -1.6342   -3.6636   -1.9580 H   0  0  0  0  0  0  0  0  0  0  0  0
    1.4276   -0.7010    1.2926 H   0  0  0  0  0  0  0  0  0  0  0  0
    3.6235   -2.1933    2.5877 H   0  0  0  0  0  0  0  0  0  0  0  0
    4.9994   -1.0175    1.2930 H   0  0  0  0  0  0  0  0  0  0  0  0
    5.0589   -0.2958    2.9131 H   0  0  0  0  0  0  0  0  0  0  0  0
    4.1178    0.7652    0.2519 H   0  0  0  0  0  0  0  0  0  0  0  0
    3.3389    1.5455    1.6601 H   0  0  0  0  0  0  0  0  0  0  0  0
    6.8201    3.1350    1.3889 H   0  0  0  0  0  0  0  0  0  0  0  0
    7.6480    5.2094   -0.8190 H   0  0  0  0  0  0  0  0  0  0  0  0
    7.7467    4.4685    0.8251 H   0  0  0  0  0  0  0  0  0  0  0  0
    4.5711    3.5615   -1.6174 H   0  0  0  0  0  0  0  0  0  0  0  0
    4.1333    0.0097    4.7050 H   0  0  0  0  0  0  0  0  0  0  0  0
  1  2  1  0
  2  3  1  0
  3  4  1  0
  4  5  1  0
  5  6  1  0
  6  7  1  0
  2  8  1  0
  8  9  1  0
  9 10  2  0
 10 11  1  0
 11 12  2  0
 12 13  1  0
 13 14  2  0
 12 15  1  0
 15 16  2  0
 15 17  1  0
 17 18  1  0
 18 19  1  0
 19 20  1  0
 20 21  1  0
 21 22  2  0
 21 23  1  0
 23 24  1  0
 24 25  1  0
 24 26  2  3
 18 27  1  0
 27 28  1  0
 27 29  2  0
 14  9  1  0
  1 30  1  0
  1 31  1  0
  1 32  1  0
  3 33  1  0
  3 34  1  0
  4 35  1  0
  4 36  1  0
  5 37  1  0
  5 38  1  0
  6 39  1  0
  6 40  1  0
  7 41  1  0
  7 42  1  0
  8 43  1  0
  8 44  1  0
 10 45  1  0
 11 46  1  0
 13 47  1  0
 14 48  1  0
 17 49  1  0
 18 50  1  1
 19 51  1  0
 19 52  1  0
 20 53  1  0
 20 54  1  0
 23 55  1  0
 25 56  1  0
 25 57  1  0
 26 58  1  0
 28 59  1  0
M  END
$$$$
[H]Oc1c([H])nc(C2([H])C([H])([H])C2([H])[H])c(Oc2c([H])c(F)c(C3([H])N(C([H])([H])[H])C(=O)C([H])([H])C3([H])[H])c(F)c2[H])c1[H]
     RDKit          3D

 44 47  0  0  0  0  0  0  0  0999 V2000
    2.5527   -2.0552   -1.5126 C   0  0  0  0  0  0  0  0  0  0  0  0
    3.5478   -1.2941   -0.8389 N   0  0  0  0  0  0  0  0  0  0  0  0
    3.4875   -0.2589    0.1831 C   0  0  0  0  0  0  0  0  0  0  0  0
    4.3931    0.7686   -0.4119 C   0  0  0  0  0  0  0  0  0  0  0  0
    5.6246   -0.1100   -0.7249 C   0  0  0  0  0  0  0  0  0  0  0  0
    4.9658   -1.4195   -1.0791 C   0  0  0  0  0  0  0  0  0  0  0  0
    5.5677   -2.4440   -1.5116 O   0  0  0  0  0  0  0  0  0  0  0  0
    2.1639    0.1451    0.5875 C   0  0  0  0  0  0  0  0  0  0  0  0
    1.4085   -0.8098    1.2720 C   0  0  0  0  0  0  0  0  0  0  0  0
    1.9020   -2.0416    1.5406 F   0  0  0  0  0  0  0  0  0  0  0  0
    0.1319   -0.5312    1.7027 C   0  0  0  0  0  0  0  0  0  0  0  0
   -0.4834    0.6719    1.5000 C   0  0  0  0  0  0  0  0  0  0  0  0
   -1.7445    1.0236    1.8947 O   0  0  0  0  0  0  0  0  0  0  0  0
   -2.8995    1.1847    1.1685 C   0  0  0  0  0  0  0  0  0  0  0  0
   -3.4447    2.4985    1.1941 C   0  0  0  0  0  0  0  0  0  0  0  0
   -4.5912    2.7195    0.4927 C   0  0  0  0  0  0  0  0  0  0  0  0
   -5.1759    3.9847    0.4775 O   0  0  0  0  0  0  0  0  0  0  0  0
   -5.1818    1.6907   -0.2081 C   0  0  0  0  0  0  0  0  0  0  0  0
   -4.6525    0.4616   -0.2191 N   0  0  0  0  0  0  0  0  0  0  0  0
   -3.5021    0.1975    0.4727 C   0  0  0  0  0  0  0  0  0  0  0  0
   -2.9568   -1.2073    0.4409 C   0  0  0  0  0  0  0  0  0  0  0  0
   -3.8411   -2.1642   -0.3853 C   0  0  0  0  0  0  0  0  0  0  0  0
   -2.4633   -1.8048   -0.8008 C   0  0  0  0  0  0  0  0  0  0  0  0
    0.2706    1.6251    0.8172 C   0  0  0  0  0  0  0  0  0  0  0  0
    1.5432    1.3433    0.3896 C   0  0  0  0  0  0  0  0  0  0  0  0
    2.2257    2.3087   -0.2664 F   0  0  0  0  0  0  0  0  0  0  0  0
    2.4773   -3.0912   -1.1249 H   0  0  0  0  0  0  0  0  0  0  0  0
    1.5351   -1.5851   -1.4692 H   0  0  0  0  0  0  0  0  0  0  0  0
    2.7495   -2.1687   -2.6115 H   0  0  0  0  0  0  0  0  0  0  0  0
    4.0134   -0.6927    1.0676 H   0  0  0  0  0  0  0  0  0  0  0  0
    4.7516    1.5308    0.2778 H   0  0  0  0  0  0  0  0  0  0  0  0
    4.0778    1.1348   -1.4073 H   0  0  0  0  0  0  0  0  0  0  0  0
    6.2716   -0.2089    0.1453 H   0  0  0  0  0  0  0  0  0  0  0  0
    6.1531    0.2336   -1.6238 H   0  0  0  0  0  0  0  0  0  0  0  0
   -0.4201   -1.2962    2.2372 H   0  0  0  0  0  0  0  0  0  0  0  0
   -2.9385    3.2835    1.7664 H   0  0  0  0  0  0  0  0  0  0  0  0
   -5.8677    4.2288    1.1906 H   0  0  0  0  0  0  0  0  0  0  0  0
   -6.1071    1.9207   -0.7591 H   0  0  0  0  0  0  0  0  0  0  0  0
   -2.7223   -1.6142    1.4470 H   0  0  0  0  0  0  0  0  0  0  0  0
   -4.0471   -3.1710    0.0394 H   0  0  0  0  0  0  0  0  0  0  0  0
   -4.6664   -1.7395   -0.9672 H   0  0  0  0  0  0  0  0  0  0  0  0
   -1.7194   -2.6431   -0.6624 H   0  0  0  0  0  0  0  0  0  0  0  0
   -2.2448   -1.2107   -1.6997 H   0  0  0  0  0  0  0  0  0  0  0  0
   -0.1442    2.6062    0.6156 H   0  0  0  0  0  0  0  0  0  0  0  0
  1  2  1  0
  2  3  1  0
  3  4  1  0
  4  5  1  0
  5  6  1  0
  6  7  2  0
  3  8  1  0
  8  9  2  0
  9 10  1  0
  9 11  1  0
 11 12  2  0
 12 13  1  0
 13 14  1  0
 14 15  2  0
 15 16  1  0
 16 17  1  0
 16 18  2  0
 18 19  1  0
 19 20  2  0
 20 21  1  0
 21 22  1  0
 22 23  1  0
 12 24  1  0
 24 25  2  0
 25 26  1  0
  6  2  1  0
 25  8  1  0
 20 14  1  0
 23 21  1  0
  1 27  1  0
  1 28  1  0
  1 29  1  0
  3 30  1  0
  4 31  1  0
  4 32  1  0
  5 33  1  0
  5 34  1  0
 11 35  1  0
 15 36  1  0
 17 37  1  0
 18 38  1  0
 21 39  1  0
 22 40  1  0
 22 41  1  0
 23 42  1  0
 23 43  1  0
 24 44  1  0
M  END
$$$$
[H]OC(=O)c1sc2c([H])c([H])c(C(=O)C([H])(N([H])C(=O)c3oc4c([H])c([H])c([H])c([H])c4c3[H])C([H])([H])C([H])([H])C(=O)O[H])c([H])c2c1[H]
     RDKit          3D

 49 52  0  0  0  0  0  0  0  0999 V2000
   -8.5337    2.2948    0.0800 O   0  0  0  0  0  0  0  0  0  0  0  0
   -7.2951    2.1244    0.6790 C   0  0  0  0  0  0  0  0  0  0  0  0
   -7.0999    2.5357    1.8239 O   0  0  0  0  0  0  0  0  0  0  0  0
   -6.2356    1.4397   -0.1003 C   0  0  0  0  0  0  0  0  0  0  0  0
   -4.9556    1.1681    0.2916 C   0  0  0  0  0  0  0  0  0  0  0  0
   -4.1610    0.5308   -0.5977 C   0  0  0  0  0  0  0  0  0  0  0  0
   -2.8182    0.1513   -0.4218 C   0  0  0  0  0  0  0  0  0  0  0  0
   -2.1164   -0.4921   -1.4074 C   0  0  0  0  0  0  0  0  0  0  0  0
   -2.6920   -0.8085   -2.6442 C   0  0  0  0  0  0  0  0  0  0  0  0
   -4.0065   -0.4335   -2.8078 C   0  0  0  0  0  0  0  0  0  0  0  0
   -4.7097    0.2159   -1.8084 C   0  0  0  0  0  0  0  0  0  0  0  0
   -6.3002    0.8069   -1.6822 S   0  0  0  0  0  0  0  0  0  0  0  0
   -0.7131   -0.8988   -1.2025 C   0  0  0  0  0  0  0  0  0  0  0  0
   -0.1257   -1.4141   -2.2153 O   0  0  0  0  0  0  0  0  0  0  0  0
    0.0282   -0.7525    0.0515 C   0  0  0  0  0  0  0  0  0  0  0  0
   -0.0297   -1.9937    0.9165 C   0  0  0  0  0  0  0  0  0  0  0  0
   -1.3783   -2.4307    1.3369 C   0  0  0  0  0  0  0  0  0  0  0  0
   -1.2340   -3.6503    2.1745 C   0  0  0  0  0  0  0  0  0  0  0  0
   -2.4366   -4.1948    2.6632 O   0  0  0  0  0  0  0  0  0  0  0  0
   -0.1454   -4.1907    2.4527 O   0  0  0  0  0  0  0  0  0  0  0  0
    1.4522   -0.5210   -0.1948 N   0  0  0  0  0  0  0  0  0  0  0  0
    2.1465    0.5860    0.2933 C   0  0  0  0  0  0  0  0  0  0  0  0
    1.4989    1.4329    0.9915 O   0  0  0  0  0  0  0  0  0  0  0  0
    3.5558    0.8571    0.0714 C   0  0  0  0  0  0  0  0  0  0  0  0
    4.2691    1.9340    0.5537 C   0  0  0  0  0  0  0  0  0  0  0  0
    5.5750    1.8354    0.1264 C   0  0  0  0  0  0  0  0  0  0  0  0
    6.6971    2.6112    0.3034 C   0  0  0  0  0  0  0  0  0  0  0  0
    7.9067    2.2583   -0.2583 C   0  0  0  0  0  0  0  0  0  0  0  0
    7.9579    1.1041   -1.0032 C   0  0  0  0  0  0  0  0  0  0  0  0
    6.8311    0.3320   -1.1767 C   0  0  0  0  0  0  0  0  0  0  0  0
    5.6069    0.6668   -0.6223 C   0  0  0  0  0  0  0  0  0  0  0  0
    4.4113    0.1355   -0.6243 O   0  0  0  0  0  0  0  0  0  0  0  0
   -8.6377    2.8102   -0.7955 H   0  0  0  0  0  0  0  0  0  0  0  0
   -4.6443    1.4877    1.3186 H   0  0  0  0  0  0  0  0  0  0  0  0
   -2.3122    0.3749    0.5004 H   0  0  0  0  0  0  0  0  0  0  0  0
   -2.1301   -1.3147   -3.4136 H   0  0  0  0  0  0  0  0  0  0  0  0
   -4.5042   -0.6563   -3.7552 H   0  0  0  0  0  0  0  0  0  0  0  0
   -0.3480    0.0897    0.6309 H   0  0  0  0  0  0  0  0  0  0  0  0
    0.5598   -1.7571    1.8422 H   0  0  0  0  0  0  0  0  0  0  0  0
    0.4980   -2.8508    0.4500 H   0  0  0  0  0  0  0  0  0  0  0  0
   -1.9066   -1.6798    1.9753 H   0  0  0  0  0  0  0  0  0  0  0  0
   -2.0139   -2.7497    0.4747 H   0  0  0  0  0  0  0  0  0  0  0  0
   -2.6718   -5.1662    2.5751 H   0  0  0  0  0  0  0  0  0  0  0  0
    1.9457   -1.2330   -0.7659 H   0  0  0  0  0  0  0  0  0  0  0  0
    3.9238    2.7596    1.1731 H   0  0  0  0  0  0  0  0  0  0  0  0
    6.6434    3.5257    0.8978 H   0  0  0  0  0  0  0  0  0  0  0  0
    8.8119    2.8459   -0.1396 H   0  0  0  0  0  0  0  0  0  0  0  0
    8.9223    0.8378   -1.4418 H   0  0  0  0  0  0  0  0  0  0  0  0
    6.9140   -0.5638   -1.7668 H   0  0  0  0  0  0  0  0  0  0  0  0
  1  2  1  0
  2  3  2  0
  2  4  1  0
  4  5  2  0
  5  6  1  0
  6  7  2  0
  7  8  1  0
  8  9  2  0
  9 10  1  0
 10 11  2  0
 11 12  1  0
  8 13  1  0
 13 14  2  0
 13 15  1  0
 15 16  1  0
 16 17  1  0
 17 18  1  0
 18 19  1  0
 18 20  2  0
 15 21  1  0
 21 22  1  0
 22 23  2  0
 22 24  1  0
 24 25  2  0
 25 26  1  0
 26 27  2  0
 27 28  1  0
 28 29  2  0
 29 30  1  0
 30 31  2  0
 31 32  1  0
 12  4  1  0
 32 24  1  0
 11  6  1  0
 31 26  1  0
  1 33  1  0
  5 34  1  0
  7 35  1  0
  9 36  1  0
 10 37  1  0
 15 38  1  0
 16 39  1  0
 16 40  1  0
 17 41  1  0
 17 42  1  0
 19 43  1  0
 21 44  1  0
 25 45  1  0
 27 46  1  0
 28 47  1  0
 29 48  1  0
 30 49  1  0
M  END
$$$$
[H]c1c(-c2c([H])c([H])c([H])c([H])c2[H])sc(S(=O)(=O)N([H])[C@@]([H])(C(=O)N([H])[C@]([H])(C(=O)N([H])[H])C([H])([H])c2c([H])c([H])c([H])c([H])c2[H])C([H])([H])C([H])([H])C([H])([H])N=C(N([H])[H])N([H])[H])c1[H]
     RDKit          3D

 67 69  0  0  0  0  0  0  0  0999 V2000
   -0.6264    7.3049    0.2682 N   0  0  0  0  0  0  0  0  0  0  0  0
   -1.1972    6.5535   -0.8070 C   0  0  0  0  0  0  0  0  0  0  0  0
   -1.7732    7.2459   -1.8790 N   0  0  0  0  0  0  0  0  0  0  0  0
   -1.1193    5.2435   -0.7071 N   0  0  0  0  0  0  0  0  0  0  0  0
   -0.4815    4.7608    0.4634 C   0  0  0  0  0  0  0  0  0  0  0  0
   -0.5440    3.2759    0.7361 C   0  0  0  0  0  0  0  0  0  0  0  0
    0.1591    2.5555   -0.3562 C   0  0  0  0  0  0  0  0  0  0  0  0
    0.2141    0.9464    0.0588 C   0  0  1  0  0  0  0  0  0  0  0  0
    0.8054    1.1214    1.3669 N   0  0  0  0  0  0  0  0  0  0  0  0
    2.4140    1.4512    1.4922 S   0  0  0  0  0  0  0  0  0  0  0  0
    2.7415    1.4393    3.0140 O   0  0  0  0  0  0  0  0  0  0  0  0
    2.8328    2.8757    1.1107 O   0  0  0  0  0  0  0  0  0  0  0  0
    3.5904    0.3094    0.8407 C   0  0  0  0  0  0  0  0  0  0  0  0
    4.5029    0.6270   -0.1761 C   0  0  0  0  0  0  0  0  0  0  0  0
    5.3587   -0.3073   -0.5399 C   0  0  0  0  0  0  0  0  0  0  0  0
    5.2879   -1.5252    0.1078 C   0  0  0  0  0  0  0  0  0  0  0  0
    4.0032   -1.2850    1.2049 S   0  0  0  0  0  0  0  0  0  0  0  0
    6.1243   -2.6945   -0.0948 C   0  0  0  0  0  0  0  0  0  0  0  0
    5.9291   -3.8713    0.5818 C   0  0  0  0  0  0  0  0  0  0  0  0
    6.7495   -4.9700    0.4175 C   0  0  0  0  0  0  0  0  0  0  0  0
    7.8069   -4.8582   -0.4675 C   0  0  0  0  0  0  0  0  0  0  0  0
    8.0440   -3.6992   -1.1670 C   0  0  0  0  0  0  0  0  0  0  0  0
    7.2113   -2.6482   -0.9729 C   0  0  0  0  0  0  0  0  0  0  0  0
   -1.1248    0.5435    0.0170 C   0  0  0  0  0  0  0  0  0  0  0  0
   -2.1121    1.3586   -0.1625 O   0  0  0  0  0  0  0  0  0  0  0  0
   -1.5746   -0.8136    0.1856 N   0  0  0  0  0  0  0  0  0  0  0  0
   -2.9903   -1.1827    0.1084 C   0  0  1  0  0  0  0  0  0  0  0  0
   -3.1403   -2.5208   -0.4824 C   0  0  0  0  0  0  0  0  0  0  0  0
   -4.5648   -2.9881   -0.6182 C   0  0  0  0  0  0  0  0  0  0  0  0
   -5.1567   -3.8540    0.2817 C   0  0  0  0  0  0  0  0  0  0  0  0
   -6.4613   -4.1904    0.1108 C   0  0  0  0  0  0  0  0  0  0  0  0
   -7.2675   -3.7279   -0.9153 C   0  0  0  0  0  0  0  0  0  0  0  0
   -6.6440   -2.8668   -1.7960 C   0  0  0  0  0  0  0  0  0  0  0  0
   -5.3215   -2.4942   -1.6651 C   0  0  0  0  0  0  0  0  0  0  0  0
   -3.6508   -0.9934    1.4053 C   0  0  0  0  0  0  0  0  0  0  0  0
   -5.0048   -1.1699    1.7374 N   0  0  0  0  0  0  0  0  0  0  0  0
   -2.9023   -0.6009    2.3827 O   0  0  0  0  0  0  0  0  0  0  0  0
   -1.1943    7.5388    1.1080 H   0  0  0  0  0  0  0  0  0  0  0  0
    0.3829    7.6431    0.2298 H   0  0  0  0  0  0  0  0  0  0  0  0
   -2.6582    6.8559   -2.3098 H   0  0  0  0  0  0  0  0  0  0  0  0
   -1.3996    8.1194   -2.2958 H   0  0  0  0  0  0  0  0  0  0  0  0
   -0.8130    5.2654    1.4050 H   0  0  0  0  0  0  0  0  0  0  0  0
    0.6259    5.0558    0.4111 H   0  0  0  0  0  0  0  0  0  0  0  0
   -1.5915    3.0598    0.9246 H   0  0  0  0  0  0  0  0  0  0  0  0
    0.0131    3.0623    1.7087 H   0  0  0  0  0  0  0  0  0  0  0  0
    1.1526    2.8447   -0.6110 H   0  0  0  0  0  0  0  0  0  0  0  0
   -0.4579    2.4844   -1.2486 H   0  0  0  0  0  0  0  0  0  0  0  0
    0.8784    0.6846   -0.7561 H   0  0  0  0  0  0  0  0  0  0  0  0
    0.5435    0.2517    1.9004 H   0  0  0  0  0  0  0  0  0  0  0  0
    4.4631    1.6396   -0.6363 H   0  0  0  0  0  0  0  0  0  0  0  0
    6.1262   -0.1626   -1.3443 H   0  0  0  0  0  0  0  0  0  0  0  0
    5.1072   -3.9351    1.2606 H   0  0  0  0  0  0  0  0  0  0  0  0
    6.5275   -5.8711    0.9879 H   0  0  0  0  0  0  0  0  0  0  0  0
    8.4395   -5.7304   -0.5669 H   0  0  0  0  0  0  0  0  0  0  0  0
    8.8801   -3.6582   -1.8454 H   0  0  0  0  0  0  0  0  0  0  0  0
    7.3878   -1.7345   -1.5125 H   0  0  0  0  0  0  0  0  0  0  0  0
   -0.8815   -1.5391    0.3567 H   0  0  0  0  0  0  0  0  0  0  0  0
   -3.4960   -0.4064   -0.5741 H   0  0  0  0  0  0  0  0  0  0  0  0
   -2.7001   -2.5968   -1.5175 H   0  0  0  0  0  0  0  0  0  0  0  0
   -2.6225   -3.3350    0.0818 H   0  0  0  0  0  0  0  0  0  0  0  0
   -4.5885   -4.2556    1.1142 H   0  0  0  0  0  0  0  0  0  0  0  0
   -6.8933   -4.8787    0.8597 H   0  0  0  0  0  0  0  0  0  0  0  0
   -8.2994   -4.0071   -1.0415 H   0  0  0  0  0  0  0  0  0  0  0  0
   -7.1772   -2.4220   -2.6443 H   0  0  0  0  0  0  0  0  0  0  0  0
   -4.8319   -1.8093   -2.3780 H   0  0  0  0  0  0  0  0  0  0  0  0
   -5.8176   -0.9099    1.1583 H   0  0  0  0  0  0  0  0  0  0  0  0
   -5.2232   -1.6047    2.6902 H   0  0  0  0  0  0  0  0  0  0  0  0
  1  2  1  0
  2  3  1  0
  2  4  2  3
  4  5  1  0
  5  6  1  0
  6  7  1  0
  7  8  1  0
  8  9  1  0
  9 10  1  0
 10 11  2  0
 10 12  2  0
 10 13  1  0
 13 14  2  0
 14 15  1  0
 15 16  2  0
 16 17  1  0
 16 18  1  0
 18 19  2  0
 19 20  1  0
 20 21  2  0
 21 22  1  0
 22 23  2  0
  8 24  1  0
 24 25  2  0
 24 26  1  0
 26 27  1  0
 27 28  1  0
 28 29  1  0
 29 30  2  0
 30 31  1  0
 31 32  2  0
 32 33  1  0
 33 34  2  0
 27 35  1  0
 35 36  1  0
 35 37  2  0
 17 13  1  0
 23 18  1  0
 34 29  1  0
  1 38  1  0
  1 39  1  0
  3 40  1  0
  3 41  1  0
  5 42  1  0
  5 43  1  0
  6 44  1  0
  6 45  1  0
  7 46  1  0
  7 47  1  0
  8 48  1  6
  9 49  1  0
 14 50  1  0
 15 51  1  0
 19 52  1  0
 20 53  1  0
 21 54  1  0
 22 55  1  0
 23 56  1  0
 26 57  1  0
 27 58  1  6
 28 59  1  0
 28 60  1  0
 30 61  1  0
 31 62  1  0
 32 63  1  0
 33 64  1  0
 34 65  1  0
 36 66  1  0
 36 67  1  0
M  END
$$$$
[H]c1c([H])c(S(=O)(=O)N([H])C2([H])C([H])([H])C2([H])[H])c([H])c(-c2c([H])c([H])c([H])c3nc(C([H])([H])[H])c([H])c([H])c23)c1N([H])[H]
     RDKit          3D

 44 47  0  0  0  0  0  0  0  0999 V2000
    3.3378    4.1722    2.5490 C   0  0  0  0  0  0  0  0  0  0  0  0
    3.0295    2.9164    1.8338 C   0  0  0  0  0  0  0  0  0  0  0  0
    1.7585    2.3672    1.8807 C   0  0  0  0  0  0  0  0  0  0  0  0
    1.4479    1.1984    1.2216 C   0  0  0  0  0  0  0  0  0  0  0  0
    2.3982    0.5112    0.4755 C   0  0  0  0  0  0  0  0  0  0  0  0
    2.1372   -0.6585   -0.1868 C   0  0  0  0  0  0  0  0  0  0  0  0
    3.1536   -1.2720   -0.8920 C   0  0  0  0  0  0  0  0  0  0  0  0
    4.4237   -0.7343   -0.9454 C   0  0  0  0  0  0  0  0  0  0  0  0
    4.6649    0.4376   -0.2766 C   0  0  0  0  0  0  0  0  0  0  0  0
    3.6726    1.0965    0.4506 C   0  0  0  0  0  0  0  0  0  0  0  0
    3.9359    2.2311    1.1026 N   0  0  0  0  0  0  0  0  0  0  0  0
    0.7969   -1.2188   -0.1628 C   0  0  0  0  0  0  0  0  0  0  0  0
   -0.1048   -1.0079   -1.1791 C   0  0  0  0  0  0  0  0  0  0  0  0
   -1.3826   -1.5598   -1.1602 C   0  0  0  0  0  0  0  0  0  0  0  0
   -1.7024   -2.3294   -0.0705 C   0  0  0  0  0  0  0  0  0  0  0  0
   -0.7917   -2.5539    0.9778 C   0  0  0  0  0  0  0  0  0  0  0  0
    0.4694   -1.9956    0.9343 C   0  0  0  0  0  0  0  0  0  0  0  0
    1.4056   -2.1952    1.9865 N   0  0  0  0  0  0  0  0  0  0  0  0
   -2.4938   -1.2553   -2.4800 S   0  0  0  0  0  0  0  0  0  0  0  0
   -3.1349   -2.5650   -2.8171 O   0  0  0  0  0  0  0  0  0  0  0  0
   -1.6212   -0.9135   -3.6804 O   0  0  0  0  0  0  0  0  0  0  0  0
   -3.5360    0.0298   -2.2568 N   0  0  0  0  0  0  0  0  0  0  0  0
   -4.4637    0.0060   -1.1849 C   0  0  0  0  0  0  0  0  0  0  0  0
   -5.0975    1.1216   -0.5144 C   0  0  0  0  0  0  0  0  0  0  0  0
   -5.9366    0.2415   -1.4609 C   0  0  0  0  0  0  0  0  0  0  0  0
    2.9135    5.0749    2.0659 H   0  0  0  0  0  0  0  0  0  0  0  0
    4.4584    4.2921    2.6060 H   0  0  0  0  0  0  0  0  0  0  0  0
    2.9791    4.1310    3.5786 H   0  0  0  0  0  0  0  0  0  0  0  0
    1.0027    2.8763    2.4527 H   0  0  0  0  0  0  0  0  0  0  0  0
    0.4347    0.7874    1.2786 H   0  0  0  0  0  0  0  0  0  0  0  0
    2.9553   -2.1865   -1.4100 H   0  0  0  0  0  0  0  0  0  0  0  0
    5.2273   -1.1956   -1.4855 H   0  0  0  0  0  0  0  0  0  0  0  0
    5.6430    0.8844   -0.2975 H   0  0  0  0  0  0  0  0  0  0  0  0
    0.1725   -0.3907   -2.0430 H   0  0  0  0  0  0  0  0  0  0  0  0
   -2.6956   -2.7665   -0.0347 H   0  0  0  0  0  0  0  0  0  0  0  0
   -1.0722   -3.1669    1.8302 H   0  0  0  0  0  0  0  0  0  0  0  0
    2.4380   -2.2670    1.8661 H   0  0  0  0  0  0  0  0  0  0  0  0
    1.0387   -2.2758    2.9611 H   0  0  0  0  0  0  0  0  0  0  0  0
   -4.0468    0.2306   -3.1409 H   0  0  0  0  0  0  0  0  0  0  0  0
   -4.3400   -0.9273   -0.5780 H   0  0  0  0  0  0  0  0  0  0  0  0
   -5.4739    1.0509    0.5437 H   0  0  0  0  0  0  0  0  0  0  0  0
   -5.0722    2.1723   -0.8616 H   0  0  0  0  0  0  0  0  0  0  0  0
   -6.2217    0.6634   -2.4462 H   0  0  0  0  0  0  0  0  0  0  0  0
   -6.7076   -0.4201   -1.0300 H   0  0  0  0  0  0  0  0  0  0  0  0
  1  2  1  0
  2  3  2  0
  3  4  1  0
  4  5  2  0
  5  6  1  0
  6  7  2  0
  7  8  1  0
  8  9  2  0
  9 10  1  0
 10 11  2  0
  6 12  1  0
 12 13  2  0
 13 14  1  0
 14 15  2  0
 15 16  1  0
 16 17  2  0
 17 18  1  0
 14 19  1  0
 19 20  2  0
 19 21  2  0
 19 22  1  0
 22 23  1  0
 23 24  1  0
 24 25  1  0
 11  2  1  0
 17 12  1  0
 25 23  1  0
 10  5  1  0
  1 26  1  0
  1 27  1  0
  1 28  1  0
  3 29  1  0
  4 30  1  0
  7 31  1  0
  8 32  1  0
  9 33  1  0
 13 34  1  0
 15 35  1  0
 16 36  1  0
 18 37  1  0
 18 38  1  0
 22 39  1  0
 23 40  1  0
 24 41  1  0
 24 42  1  0
 25 43  1  0
 25 44  1  0
M  END
$$$$
[H]C1=C(C(=O)N([H])C2([H])C([H])([H])C([H])([H])C([H])([H])C([H])([H])C([H])([H])C2([H])[H])C([H])([H])C(C(=O)c2c([H])c([H])c(F)c(C(F)(F)F)c2[H])=NC1([H])[H]
     RDKit          3D

 51 53  0  0  0  0  0  0  0  0999 V2000
    8.4827    0.9742   -1.7925 F   0  0  0  0  0  0  0  0  0  0  0  0
    7.2697    0.5570   -1.3508 C   0  0  0  0  0  0  0  0  0  0  0  0
    6.3342   -0.0180   -2.1814 C   0  0  0  0  0  0  0  0  0  0  0  0
    5.0837   -0.4487   -1.7285 C   0  0  0  0  0  0  0  0  0  0  0  0
    4.7875   -0.2857   -0.3956 C   0  0  0  0  0  0  0  0  0  0  0  0
    5.7589    0.3038    0.4314 C   0  0  0  0  0  0  0  0  0  0  0  0
    6.9873    0.7272   -0.0121 C   0  0  0  0  0  0  0  0  0  0  0  0
    7.9953    1.3476    0.8864 C   0  0  0  0  0  0  0  0  0  0  0  0
    9.1413    0.5510    0.8558 F   0  0  0  0  0  0  0  0  0  0  0  0
    7.5342    1.4425    2.1631 F   0  0  0  0  0  0  0  0  0  0  0  0
    8.3530    2.5674    0.3587 F   0  0  0  0  0  0  0  0  0  0  0  0
    3.5336   -0.6820    0.2224 C   0  0  0  0  0  0  0  0  0  0  0  0
    3.4404   -0.4466    1.4935 O   0  0  0  0  0  0  0  0  0  0  0  0
    2.3932   -1.2959   -0.3881 C   0  0  0  0  0  0  0  0  0  0  0  0
    2.2748   -1.6121   -1.6197 N   0  0  0  0  0  0  0  0  0  0  0  0
    1.0867   -2.2339   -2.1733 C   0  0  0  0  0  0  0  0  0  0  0  0
   -0.1256   -1.6383   -1.5537 C   0  0  0  0  0  0  0  0  0  0  0  0
   -0.0652   -1.3392   -0.2631 C   0  0  0  0  0  0  0  0  0  0  0  0
    1.1994   -1.6192    0.4630 C   0  0  0  0  0  0  0  0  0  0  0  0
   -1.2024   -0.7521    0.4315 C   0  0  0  0  0  0  0  0  0  0  0  0
   -1.0792   -0.4923    1.6557 O   0  0  0  0  0  0  0  0  0  0  0  0
   -2.4374   -0.4579   -0.1941 N   0  0  0  0  0  0  0  0  0  0  0  0
   -3.5036    0.1233    0.5810 C   0  0  0  0  0  0  0  0  0  0  0  0
   -4.6537   -0.8596    0.5815 C   0  0  0  0  0  0  0  0  0  0  0  0
   -5.8385   -0.3700    1.3608 C   0  0  0  0  0  0  0  0  0  0  0  0
   -6.6596    0.6348    0.5939 C   0  0  0  0  0  0  0  0  0  0  0  0
   -6.2051    2.0434    0.8016 C   0  0  0  0  0  0  0  0  0  0  0  0
   -4.7340    2.1554    1.1272 C   0  0  0  0  0  0  0  0  0  0  0  0
   -3.9672    1.4463    0.0297 C   0  0  0  0  0  0  0  0  0  0  0  0
    6.5387   -0.1558   -3.2180 H   0  0  0  0  0  0  0  0  0  0  0  0
    4.3920   -0.8894   -2.4142 H   0  0  0  0  0  0  0  0  0  0  0  0
    5.5823    0.4612    1.5045 H   0  0  0  0  0  0  0  0  0  0  0  0
    1.1690   -3.3118   -2.0381 H   0  0  0  0  0  0  0  0  0  0  0  0
    1.0528   -2.0197   -3.2606 H   0  0  0  0  0  0  0  0  0  0  0  0
   -0.9945   -1.4727   -2.1581 H   0  0  0  0  0  0  0  0  0  0  0  0
    1.2877   -1.0072    1.3816 H   0  0  0  0  0  0  0  0  0  0  0  0
    1.2495   -2.6825    0.7745 H   0  0  0  0  0  0  0  0  0  0  0  0
   -2.5747   -0.6611   -1.2116 H   0  0  0  0  0  0  0  0  0  0  0  0
   -3.1914    0.2680    1.6187 H   0  0  0  0  0  0  0  0  0  0  0  0
   -4.2911   -1.7891    1.0973 H   0  0  0  0  0  0  0  0  0  0  0  0
   -4.9842   -1.1482   -0.4215 H   0  0  0  0  0  0  0  0  0  0  0  0
   -6.5046   -1.2667    1.5236 H   0  0  0  0  0  0  0  0  0  0  0  0
   -5.6000    0.0093    2.3567 H   0  0  0  0  0  0  0  0  0  0  0  0
   -7.7125    0.5632    0.9559 H   0  0  0  0  0  0  0  0  0  0  0  0
   -6.7013    0.3422   -0.4840 H   0  0  0  0  0  0  0  0  0  0  0  0
   -6.7751    2.4938    1.6480 H   0  0  0  0  0  0  0  0  0  0  0  0
   -6.3944    2.6357   -0.1178 H   0  0  0  0  0  0  0  0  0  0  0  0
   -4.4684    3.2319    1.1169 H   0  0  0  0  0  0  0  0  0  0  0  0
   -4.5264    1.7289    2.1284 H   0  0  0  0  0  0  0  0  0  0  0  0
   -3.1356    2.0907   -0.3039 H   0  0  0  0  0  0  0  0  0  0  0  0
   -4.6022    1.2627   -0.8631 H   0  0  0  0  0  0  0  0  0  0  0  0
  1  2  1  0
  2  3  2  0
  3  4  1  0
  4  5  2  0
  5  6  1  0
  6  7  2  0
  7  8  1  0
  8  9  1  0
  8 10  1  0
  8 11  1  0
  5 12  1  0
 12 13  2  0
 12 14  1  0
 14 15  2  0
 15 16  1  0
 16 17  1  0
 17 18  2  0
 18 19  1  0
 18 20  1  0
 20 21  2  0
 20 22  1  0
 22 23  1  0
 23 24  1  0
 24 25  1  0
 25 26  1  0
 26 27  1  0
 27 28  1  0
 28 29  1  0
  7  2  1  0
 19 14  1  0
 29 23  1  0
  3 30  1  0
  4 31  1  0
  6 32  1  0
 16 33  1  0
 16 34  1  0
 17 35  1  0
 19 36  1  0
 19 37  1  0
 22 38  1  0
 23 39  1  0
 24 40  1  0
 24 41  1  0
 25 42  1  0
 25 43  1  0
 26 44  1  0
 26 45  1  0
 27 46  1  0
 27 47  1  0
 28 48  1  0
 28 49  1  0
 29 50  1  0
 29 51  1  0
M  END
$$$$
[H]c1nc(N([H])[H])c(-c2nc3c([H])c([H])c([H])c([H])c3n2[H])c(N([H])c2c([H])c([H])c(OC([H])([H])c3c([H])c([H])c([H])c([H])c3[H])c(Cl)c2[H])n1
     RDKit          3D

 51 55  0  0  0  0  0  0  0  0999 V2000
   -5.7499    1.8522    0.2670 N   0  0  0  0  0  0  0  0  0  0  0  0
   -4.3589    2.1233    0.3852 C   0  0  0  0  0  0  0  0  0  0  0  0
   -4.0710    3.4268    0.6897 N   0  0  0  0  0  0  0  0  0  0  0  0
   -2.7836    3.7589    0.7800 C   0  0  0  0  0  0  0  0  0  0  0  0
   -1.8207    2.8599    0.5831 N   0  0  0  0  0  0  0  0  0  0  0  0
   -2.0703    1.5399    0.2770 C   0  0  0  0  0  0  0  0  0  0  0  0
   -0.9993    0.6400    0.1791 N   0  0  0  0  0  0  0  0  0  0  0  0
    0.3584    1.1594    0.2201 C   0  0  0  0  0  0  0  0  0  0  0  0
    1.3311    0.4143    0.8966 C   0  0  0  0  0  0  0  0  0  0  0  0
    2.6461    0.8430    0.9356 C   0  0  0  0  0  0  0  0  0  0  0  0
    3.0545    2.0041    0.3207 C   0  0  0  0  0  0  0  0  0  0  0  0
    4.3533    2.3929    0.3821 O   0  0  0  0  0  0  0  0  0  0  0  0
    5.4343    1.7869    0.9903 C   0  0  0  0  0  0  0  0  0  0  0  0
    5.7788    0.4358    0.4798 C   0  0  0  0  0  0  0  0  0  0  0  0
    6.4663   -0.4938    1.2298 C   0  0  0  0  0  0  0  0  0  0  0  0
    6.7830   -1.7521    0.7154 C   0  0  0  0  0  0  0  0  0  0  0  0
    6.4151   -2.1025   -0.5643 C   0  0  0  0  0  0  0  0  0  0  0  0
    5.7295   -1.1813   -1.3182 C   0  0  0  0  0  0  0  0  0  0  0  0
    5.4207    0.0629   -0.7988 C   0  0  0  0  0  0  0  0  0  0  0  0
    2.0924    2.7297   -0.3420 C   0  0  0  0  0  0  0  0  0  0  0  0
    2.5013    4.2211   -1.1579 Cl  0  0  0  0  0  0  0  0  0  0  0  0
    0.7523    2.3117   -0.3937 C   0  0  0  0  0  0  0  0  0  0  0  0
   -3.3834    1.1639    0.1747 C   0  0  0  0  0  0  0  0  0  0  0  0
   -3.7360   -0.2184   -0.1158 C   0  0  0  0  0  0  0  0  0  0  0  0
   -2.9637   -1.1500   -0.7344 N   0  0  0  0  0  0  0  0  0  0  0  0
   -3.6788   -2.2618   -0.8849 C   0  0  0  0  0  0  0  0  0  0  0  0
   -3.3535   -3.4761   -1.4472 C   0  0  0  0  0  0  0  0  0  0  0  0
   -4.2918   -4.4770   -1.4771 C   0  0  0  0  0  0  0  0  0  0  0  0
   -5.5749   -4.2867   -0.9463 C   0  0  0  0  0  0  0  0  0  0  0  0
   -5.8875   -3.0577   -0.3832 C   0  0  0  0  0  0  0  0  0  0  0  0
   -4.9381   -2.0667   -0.3608 C   0  0  0  0  0  0  0  0  0  0  0  0
   -4.9309   -0.7864    0.1064 N   0  0  0  0  0  0  0  0  0  0  0  0
   -6.3792    1.8461    1.1067 H   0  0  0  0  0  0  0  0  0  0  0  0
   -6.1827    1.6532   -0.6471 H   0  0  0  0  0  0  0  0  0  0  0  0
   -2.5230    4.7778    1.0175 H   0  0  0  0  0  0  0  0  0  0  0  0
   -1.0278   -0.3883    0.0967 H   0  0  0  0  0  0  0  0  0  0  0  0
    1.0074   -0.5025    1.3816 H   0  0  0  0  0  0  0  0  0  0  0  0
    3.3219    0.1918    1.4953 H   0  0  0  0  0  0  0  0  0  0  0  0
    6.3508    2.4069    1.0139 H   0  0  0  0  0  0  0  0  0  0  0  0
    5.1620    1.6720    2.0842 H   0  0  0  0  0  0  0  0  0  0  0  0
    6.7734   -0.2720    2.2249 H   0  0  0  0  0  0  0  0  0  0  0  0
    7.3302   -2.4862    1.3184 H   0  0  0  0  0  0  0  0  0  0  0  0
    6.6709   -3.0980   -0.9582 H   0  0  0  0  0  0  0  0  0  0  0  0
    5.4445   -1.4742   -2.3318 H   0  0  0  0  0  0  0  0  0  0  0  0
    4.8865    0.7537   -1.4140 H   0  0  0  0  0  0  0  0  0  0  0  0
    0.0366    2.9141   -0.9552 H   0  0  0  0  0  0  0  0  0  0  0  0
   -2.3846   -3.6329   -1.8528 H   0  0  0  0  0  0  0  0  0  0  0  0
   -4.0516   -5.4277   -1.9121 H   0  0  0  0  0  0  0  0  0  0  0  0
   -6.3142   -5.0657   -0.9664 H   0  0  0  0  0  0  0  0  0  0  0  0
   -6.8594   -2.8620    0.0377 H   0  0  0  0  0  0  0  0  0  0  0  0
   -5.7866   -0.4173    0.5722 H   0  0  0  0  0  0  0  0  0  0  0  0
  1  2  1  0
  2  3  2  0
  3  4  1  0
  4  5  2  0
  5  6  1  0
  6  7  1  0
  7  8  1  0
  8  9  2  0
  9 10  1  0
 10 11  2  0
 11 12  1  0
 12 13  1  0
 13 14  1  0
 14 15  2  0
 15 16  1  0
 16 17  2  0
 17 18  1  0
 18 19  2  0
 11 20  1  0
 20 21  1  0
 20 22  2  0
  6 23  2  0
 23 24  1  0
 24 25  2  0
 25 26  1  0
 26 27  2  0
 27 28  1  0
 28 29  2  0
 29 30  1  0
 30 31  2  0
 31 32  1  0
 23  2  1  0
 32 24  1  0
 22  8  1  0
 31 26  1  0
 19 14  1  0
  1 33  1  0
  1 34  1  0
  4 35  1  0
  7 36  1  0
  9 37  1  0
 10 38  1  0
 13 39  1  0
 13 40  1  0
 15 41  1  0
 16 42  1  0
 17 43  1  0
 18 44  1  0
 19 45  1  0
 22 46  1  0
 27 47  1  0
 28 48  1  0
 29 49  1  0
 30 50  1  0
 32 51  1  0
M  END
$$$$
[H]C1=C([H])C([H])(F)C([H])([H])C([H])=C1N([H])C(=O)C1(C(=O)N([H])c2c([H])c([H])c(Oc3c([H])c([H])nc4c([H])c(OC([H])([H])C([H])([H])C([H])([H])C([H])([H])C([H])([H])N5C([H])([H])C([H])([H])OC([H])([H])C5([H])[H])c(OC([H])([H])[H])c([H])c34)c(F)c2[H])C([H])([H])C1([H])[H]
     RDKit          3D

 88 93  0  0  0  0  0  0  0  0999 V2000
   -1.6171   -2.0671   -1.6938 C   0  0  0  0  0  0  0  0  0  0  0  0
   -2.7590   -1.2741   -1.5420 O   0  0  0  0  0  0  0  0  0  0  0  0
   -2.7115    0.0052   -0.9635 C   0  0  0  0  0  0  0  0  0  0  0  0
   -1.4998    0.5353   -0.5144 C   0  0  0  0  0  0  0  0  0  0  0  0
   -1.3963    1.7819    0.0592 C   0  0  0  0  0  0  0  0  0  0  0  0
   -0.1282    2.2660    0.4938 C   0  0  0  0  0  0  0  0  0  0  0  0
    0.8867    1.4367    0.3025 O   0  0  0  0  0  0  0  0  0  0  0  0
    2.2183    1.3504    0.4424 C   0  0  0  0  0  0  0  0  0  0  0  0
    3.0863    2.3270    0.8611 C   0  0  0  0  0  0  0  0  0  0  0  0
    4.4696    2.1102    0.9709 C   0  0  0  0  0  0  0  0  0  0  0  0
    5.0365    0.9223    0.6708 C   0  0  0  0  0  0  0  0  0  0  0  0
    6.4160    0.5787    0.7776 N   0  0  0  0  0  0  0  0  0  0  0  0
    7.2673    1.1840    1.6887 C   0  0  0  0  0  0  0  0  0  0  0  0
    6.6989    2.0701    2.4709 O   0  0  0  0  0  0  0  0  0  0  0  0
    8.7095    0.9971    1.9335 C   0  0  0  0  0  0  0  0  0  0  0  0
    9.3617    2.1157    2.7068 C   0  0  0  0  0  0  0  0  0  0  0  0
    9.0827    0.8308    3.4014 C   0  0  0  0  0  0  0  0  0  0  0  0
    9.5569    0.2353    1.0209 C   0  0  0  0  0  0  0  0  0  0  0  0
   10.7610    0.0147    1.5220 O   0  0  0  0  0  0  0  0  0  0  0  0
    9.3665   -0.2920   -0.2447 N   0  0  0  0  0  0  0  0  0  0  0  0
   10.4728   -1.0202   -0.8421 C   0  0  0  0  0  0  0  0  0  0  0  0
   10.4005   -2.2587   -1.1974 C   0  0  0  0  0  0  0  0  0  0  0  0
   11.4474   -3.0445   -1.7942 C   0  0  0  0  0  0  0  0  0  0  0  0
   12.7399   -2.3658   -1.9836 C   0  0  0  0  0  0  0  0  0  0  0  0
   13.6995   -3.0577   -1.2064 F   0  0  0  0  0  0  0  0  0  0  0  0
   12.7690   -0.9596   -1.5665 C   0  0  0  0  0  0  0  0  0  0  0  0
   11.7404   -0.3269   -1.0414 C   0  0  0  0  0  0  0  0  0  0  0  0
    4.1771   -0.0900    0.2401 C   0  0  0  0  0  0  0  0  0  0  0  0
    2.8327    0.1130    0.1309 C   0  0  0  0  0  0  0  0  0  0  0  0
    2.0028   -0.8918   -0.2913 F   0  0  0  0  0  0  0  0  0  0  0  0
   -0.1166    3.5145    1.0475 C   0  0  0  0  0  0  0  0  0  0  0  0
   -1.3094    4.2252    1.1538 C   0  0  0  0  0  0  0  0  0  0  0  0
   -2.4790    3.7411    0.7367 N   0  0  0  0  0  0  0  0  0  0  0  0
   -2.5335    2.5106    0.1838 C   0  0  0  0  0  0  0  0  0  0  0  0
   -3.7663    2.0091   -0.2561 C   0  0  0  0  0  0  0  0  0  0  0  0
   -3.8466    0.7585   -0.8274 C   0  0  0  0  0  0  0  0  0  0  0  0
   -5.0504    0.2463   -1.2664 O   0  0  0  0  0  0  0  0  0  0  0  0
   -6.2685    0.9581   -1.1563 C   0  0  0  0  0  0  0  0  0  0  0  0
   -7.4530    0.2315   -1.6981 C   0  0  0  0  0  0  0  0  0  0  0  0
   -7.6468   -1.0725   -0.9798 C   0  0  0  0  0  0  0  0  0  0  0  0
   -8.8421   -1.8499   -1.4872 C   0  0  0  0  0  0  0  0  0  0  0  0
  -10.0999   -1.0601   -1.2959 C   0  0  0  0  0  0  0  0  0  0  0  0
  -10.2673   -0.8000    0.1256 N   0  0  0  0  0  0  0  0  0  0  0  0
  -11.4157    0.0242    0.3886 C   0  0  0  0  0  0  0  0  0  0  0  0
  -12.6819   -0.6764    0.6409 C   0  0  0  0  0  0  0  0  0  0  0  0
  -12.5704   -1.9510    1.1688 O   0  0  0  0  0  0  0  0  0  0  0  0
  -11.3835   -1.9710    1.9334 C   0  0  0  0  0  0  0  0  0  0  0  0
  -10.2666   -2.0246    0.8921 C   0  0  0  0  0  0  0  0  0  0  0  0
   -1.3359   -2.5567   -0.7346 H   0  0  0  0  0  0  0  0  0  0  0  0
   -1.8375   -2.8338   -2.4758 H   0  0  0  0  0  0  0  0  0  0  0  0
   -0.7339   -1.5032   -2.0537 H   0  0  0  0  0  0  0  0  0  0  0  0
   -0.6196   -0.0538   -0.6243 H   0  0  0  0  0  0  0  0  0  0  0  0
    2.7118    3.3118    1.1105 H   0  0  0  0  0  0  0  0  0  0  0  0
    5.0360    2.9539    1.2828 H   0  0  0  0  0  0  0  0  0  0  0  0
    6.7909   -0.1958    0.1576 H   0  0  0  0  0  0  0  0  0  0  0  0
    8.7277    2.9540    2.9851 H   0  0  0  0  0  0  0  0  0  0  0  0
   10.4165    2.4051    2.4651 H   0  0  0  0  0  0  0  0  0  0  0  0
    8.2835    0.7498    4.1548 H   0  0  0  0  0  0  0  0  0  0  0  0
    9.9760    0.2198    3.6550 H   0  0  0  0  0  0  0  0  0  0  0  0
    8.5497   -0.2174   -0.8450 H   0  0  0  0  0  0  0  0  0  0  0  0
    9.4271   -2.7660   -1.0213 H   0  0  0  0  0  0  0  0  0  0  0  0
   11.1135   -3.4129   -2.8319 H   0  0  0  0  0  0  0  0  0  0  0  0
   11.5861   -4.0326   -1.2454 H   0  0  0  0  0  0  0  0  0  0  0  0
   13.0721   -2.4791   -3.0573 H   0  0  0  0  0  0  0  0  0  0  0  0
   13.7000   -0.4110   -1.7013 H   0  0  0  0  0  0  0  0  0  0  0  0
   11.8503    0.7091   -0.7620 H   0  0  0  0  0  0  0  0  0  0  0  0
    4.6070   -1.0671   -0.0136 H   0  0  0  0  0  0  0  0  0  0  0  0
    0.7926    3.9437    1.4071 H   0  0  0  0  0  0  0  0  0  0  0  0
   -1.2708    5.2273    1.6027 H   0  0  0  0  0  0  0  0  0  0  0  0
   -4.6385    2.6221   -0.1362 H   0  0  0  0  0  0  0  0  0  0  0  0
   -6.4139    1.1291   -0.0528 H   0  0  0  0  0  0  0  0  0  0  0  0
   -6.1342    1.9627   -1.5963 H   0  0  0  0  0  0  0  0  0  0  0  0
   -8.3398    0.9108   -1.5387 H   0  0  0  0  0  0  0  0  0  0  0  0
   -7.3702    0.1068   -2.7922 H   0  0  0  0  0  0  0  0  0  0  0  0
   -6.7472   -1.7044   -1.1169 H   0  0  0  0  0  0  0  0  0  0  0  0
   -7.8241   -0.8413    0.0923 H   0  0  0  0  0  0  0  0  0  0  0  0
   -8.7160   -2.1247   -2.5556 H   0  0  0  0  0  0  0  0  0  0  0  0
   -8.9080   -2.7809   -0.9139 H   0  0  0  0  0  0  0  0  0  0  0  0
  -10.9782   -1.6101   -1.6975 H   0  0  0  0  0  0  0  0  0  0  0  0
  -10.0827   -0.0804   -1.8072 H   0  0  0  0  0  0  0  0  0  0  0  0
  -11.1392    0.6938    1.2571 H   0  0  0  0  0  0  0  0  0  0  0  0
  -11.5283    0.7091   -0.4775 H   0  0  0  0  0  0  0  0  0  0  0  0
  -13.2777   -0.0827    1.3963 H   0  0  0  0  0  0  0  0  0  0  0  0
  -13.3581   -0.7423   -0.2412 H   0  0  0  0  0  0  0  0  0  0  0  0
  -11.2436   -1.0706    2.5354 H   0  0  0  0  0  0  0  0  0  0  0  0
  -11.3779   -2.9227    2.5076 H   0  0  0  0  0  0  0  0  0  0  0  0
   -9.2915   -2.2728    1.3388 H   0  0  0  0  0  0  0  0  0  0  0  0
  -10.5650   -2.8865    0.2275 H   0  0  0  0  0  0  0  0  0  0  0  0
  1  2  1  0
  2  3  1  0
  3  4  2  0
  4  5  1  0
  5  6  2  0
  6  7  1  0
  7  8  1  0
  8  9  2  0
  9 10  1  0
 10 11  2  0
 11 12  1  0
 12 13  1  0
 13 14  2  0
 13 15  1  0
 15 16  1  0
 16 17  1  0
 15 18  1  0
 18 19  2  0
 18 20  1  0
 20 21  1  0
 21 22  2  0
 22 23  1  0
 23 24  1  0
 24 25  1  0
 24 26  1  0
 26 27  2  0
 11 28  1  0
 28 29  2  0
 29 30  1  0
  6 31  1  0
 31 32  2  0
 32 33  1  0
 33 34  2  0
 34 35  1  0
 35 36  2  0
 36 37  1  0
 37 38  1  0
 38 39  1  0
 39 40  1  0
 40 41  1  0
 41 42  1  0
 42 43  1  0
 43 44  1  0
 44 45  1  0
 45 46  1  0
 46 47  1  0
 47 48  1  0
 36  3  1  0
 48 43  1  0
 34  5  1  0
 29  8  1  0
 17 15  1  0
 27 21  1  0
  1 49  1  0
  1 50  1  0
  1 51  1  0
  4 52  1  0
  9 53  1  0
 10 54  1  0
 12 55  1  0
 16 56  1  0
 16 57  1  0
 17 58  1  0
 17 59  1  0
 20 60  1  0
 22 61  1  0
 23 62  1  0
 23 63  1  0
 24 64  1  0
 26 65  1  0
 27 66  1  0
 28 67  1  0
 31 68  1  0
 32 69  1  0
 35 70  1  0
 38 71  1  0
 38 72  1  0
 39 73  1  0
 39 74  1  0
 40 75  1  0
 40 76  1  0
 41 77  1  0
 41 78  1  0
 42 79  1  0
 42 80  1  0
 44 81  1  0
 44 82  1  0
 45 83  1  0
 45 84  1  0
 47 85  1  0
 47 86  1  0
 48 87  1  0
 48 88  1  0
M  END
$$$$
[H]c1nc([H])c2c([H])c([H])c([H])c(N([H])C(=O)N([H])[C@@]3([H])C([H])([H])c4c(OC([H])([H])c5c([H])c([H])c([H])c([H])c5[H])c([H])c([H])c([H])c4C([H])([H])C3([H])[H])c2c1[H]
     RDKit          3D

 57 61  0  0  0  0  0  0  0  0999 V2000
   -2.5386   -0.4993   -1.3671 O   0  0  0  0  0  0  0  0  0  0  0  0
   -2.6061   -0.7510   -0.1624 C   0  0  0  0  0  0  0  0  0  0  0  0
   -1.3738   -1.2225    0.4230 N   0  0  0  0  0  0  0  0  0  0  0  0
   -0.1583   -1.4010   -0.2752 C   0  0  2  0  0  0  0  0  0  0  0  0
    0.3901   -2.7982   -0.2545 C   0  0  0  0  0  0  0  0  0  0  0  0
    1.2846   -2.9096   -1.4988 C   0  0  0  0  0  0  0  0  0  0  0  0
    2.2166   -1.7453   -1.5515 C   0  0  0  0  0  0  0  0  0  0  0  0
    3.2707   -1.8313   -2.4537 C   0  0  0  0  0  0  0  0  0  0  0  0
    4.1826   -0.8045   -2.5729 C   0  0  0  0  0  0  0  0  0  0  0  0
    4.0393    0.3077   -1.7891 C   0  0  0  0  0  0  0  0  0  0  0  0
    2.9864    0.4015   -0.8824 C   0  0  0  0  0  0  0  0  0  0  0  0
    2.7878    1.4894   -0.0712 O   0  0  0  0  0  0  0  0  0  0  0  0
    3.5775    2.6292   -0.0027 C   0  0  0  0  0  0  0  0  0  0  0  0
    4.9616    2.2930    0.4629 C   0  0  0  0  0  0  0  0  0  0  0  0
    5.1280    1.1536    1.2002 C   0  0  0  0  0  0  0  0  0  0  0  0
    6.3859    0.8228    1.6448 C   0  0  0  0  0  0  0  0  0  0  0  0
    7.4819    1.6212    1.3592 C   0  0  0  0  0  0  0  0  0  0  0  0
    7.2755    2.7695    0.6087 C   0  0  0  0  0  0  0  0  0  0  0  0
    6.0280    3.1029    0.1646 C   0  0  0  0  0  0  0  0  0  0  0  0
    2.0640   -0.6352   -0.7612 C   0  0  0  0  0  0  0  0  0  0  0  0
    0.9629   -0.4862    0.2170 C   0  0  0  0  0  0  0  0  0  0  0  0
   -3.7713   -0.6001    0.5987 N   0  0  0  0  0  0  0  0  0  0  0  0
   -5.0159   -0.1558    0.1139 C   0  0  0  0  0  0  0  0  0  0  0  0
   -5.2910    0.1111   -1.2188 C   0  0  0  0  0  0  0  0  0  0  0  0
   -6.5341    0.5294   -1.6549 C   0  0  0  0  0  0  0  0  0  0  0  0
   -7.5226    0.6838   -0.7399 C   0  0  0  0  0  0  0  0  0  0  0  0
   -7.2793    0.4246    0.6030 C   0  0  0  0  0  0  0  0  0  0  0  0
   -8.3155    0.5962    1.5130 C   0  0  0  0  0  0  0  0  0  0  0  0
   -8.1027    0.3567    2.7988 N   0  0  0  0  0  0  0  0  0  0  0  0
   -6.9251   -0.0481    3.2777 C   0  0  0  0  0  0  0  0  0  0  0  0
   -5.8693   -0.2252    2.3661 C   0  0  0  0  0  0  0  0  0  0  0  0
   -6.0580    0.0134    1.0344 C   0  0  0  0  0  0  0  0  0  0  0  0
   -1.4093   -1.4421    1.4418 H   0  0  0  0  0  0  0  0  0  0  0  0
   -0.3228   -1.1062   -1.3528 H   0  0  0  0  0  0  0  0  0  0  0  0
   -0.3683   -3.5800   -0.3515 H   0  0  0  0  0  0  0  0  0  0  0  0
    1.0708   -2.9239    0.6123 H   0  0  0  0  0  0  0  0  0  0  0  0
    0.5735   -2.8183   -2.3648 H   0  0  0  0  0  0  0  0  0  0  0  0
    1.7855   -3.8716   -1.5654 H   0  0  0  0  0  0  0  0  0  0  0  0
    3.4096   -2.6921   -3.0823 H   0  0  0  0  0  0  0  0  0  0  0  0
    5.0150   -0.8384   -3.2651 H   0  0  0  0  0  0  0  0  0  0  0  0
    4.7531    1.1195   -1.8927 H   0  0  0  0  0  0  0  0  0  0  0  0
    3.6804    3.0471   -1.0276 H   0  0  0  0  0  0  0  0  0  0  0  0
    3.1483    3.4167    0.6512 H   0  0  0  0  0  0  0  0  0  0  0  0
    4.3120    0.5125    1.4415 H   0  0  0  0  0  0  0  0  0  0  0  0
    6.5770   -0.0747    2.2368 H   0  0  0  0  0  0  0  0  0  0  0  0
    8.4587    1.3366    1.7216 H   0  0  0  0  0  0  0  0  0  0  0  0
    8.1532    3.3902    0.3915 H   0  0  0  0  0  0  0  0  0  0  0  0
    5.8866    4.0029   -0.4196 H   0  0  0  0  0  0  0  0  0  0  0  0
    0.6298    0.5487    0.3598 H   0  0  0  0  0  0  0  0  0  0  0  0
    1.3120   -0.9129    1.1974 H   0  0  0  0  0  0  0  0  0  0  0  0
   -3.6680   -0.8634    1.6393 H   0  0  0  0  0  0  0  0  0  0  0  0
   -4.5295   -0.0064   -1.9763 H   0  0  0  0  0  0  0  0  0  0  0  0
   -6.6553    0.7132   -2.7102 H   0  0  0  0  0  0  0  0  0  0  0  0
   -8.4925    1.0085   -1.0702 H   0  0  0  0  0  0  0  0  0  0  0  0
   -9.2669    0.9239    1.1219 H   0  0  0  0  0  0  0  0  0  0  0  0
   -6.7548   -0.2414    4.3173 H   0  0  0  0  0  0  0  0  0  0  0  0
   -4.9604   -0.5458    2.8163 H   0  0  0  0  0  0  0  0  0  0  0  0
  1  2  2  0
  2  3  1  0
  3  4  1  0
  4  5  1  0
  5  6  1  0
  6  7  1  0
  7  8  2  0
  8  9  1  0
  9 10  2  0
 10 11  1  0
 11 12  1  0
 12 13  1  0
 13 14  1  0
 14 15  2  0
 15 16  1  0
 16 17  2  0
 17 18  1  0
 18 19  2  0
 11 20  2  0
 20 21  1  0
  2 22  1  0
 22 23  1  0
 23 24  2  0
 24 25  1  0
 25 26  2  0
 26 27  1  0
 27 28  2  0
 28 29  1  0
 29 30  2  0
 30 31  1  0
 31 32  2  0
 21  4  1  0
 32 23  1  0
 20  7  1  0
 32 27  1  0
 19 14  1  0
  3 33  1  0
  4 34  1  6
  5 35  1  0
  5 36  1  0
  6 37  1  0
  6 38  1  0
  8 39  1  0
  9 40  1  0
 10 41  1  0
 13 42  1  0
 13 43  1  0
 15 44  1  0
 16 45  1  0
 17 46  1  0
 18 47  1  0
 19 48  1  0
 21 49  1  0
 21 50  1  0
 22 51  1  0
 24 52  1  0
 25 53  1  0
 26 54  1  0
 28 55  1  0
 30 56  1  0
 31 57  1  0
M  END
$$$$
[H]c1nc(N([H])[H])c2c(-c3c([H])c([H])c(Oc4nc(C(F)(F)F)c([H])c([H])c4[H])c([H])c3[H])c([H])n([C@]3([H])C([H])([H])C([H])([H])[C@]([H])(N([H])[C@]4([H])C(=O)OC([H])([H])C4([H])[H])C([H])([H])C3([H])[H])c2n1
     RDKit          3D

 67 72  0  0  0  0  0  0  0  0999 V2000
    2.3863   -3.8624    0.0782 N   0  0  0  0  0  0  0  0  0  0  0  0
    1.0032   -3.6676    0.0318 C   0  0  0  0  0  0  0  0  0  0  0  0
    0.1375   -4.7201   -0.0664 N   0  0  0  0  0  0  0  0  0  0  0  0
   -1.1908   -4.5379   -0.0882 C   0  0  0  0  0  0  0  0  0  0  0  0
   -1.7392   -3.3187   -0.0134 N   0  0  0  0  0  0  0  0  0  0  0  0
   -0.9348   -2.2587    0.0860 C   0  0  0  0  0  0  0  0  0  0  0  0
   -1.2853   -0.9712    0.1986 N   0  0  0  0  0  0  0  0  0  0  0  0
   -0.1458   -0.2618    0.2912 C   0  0  0  0  0  0  0  0  0  0  0  0
    0.9421   -1.1447    0.2411 C   0  0  0  0  0  0  0  0  0  0  0  0
    2.3468   -0.7365    0.3617 C   0  0  0  0  0  0  0  0  0  0  0  0
    2.6221    0.0192    1.5266 C   0  0  0  0  0  0  0  0  0  0  0  0
    3.8446    0.4868    1.8043 C   0  0  0  0  0  0  0  0  0  0  0  0
    4.9232    0.2432    0.9430 C   0  0  0  0  0  0  0  0  0  0  0  0
    6.1508    0.7375    1.2809 O   0  0  0  0  0  0  0  0  0  0  0  0
    7.1268    1.3091    0.5552 C   0  0  0  0  0  0  0  0  0  0  0  0
    7.0964    2.6665    0.2695 C   0  0  0  0  0  0  0  0  0  0  0  0
    8.0781    3.2859   -0.4656 C   0  0  0  0  0  0  0  0  0  0  0  0
    9.1121    2.4979   -0.9178 C   0  0  0  0  0  0  0  0  0  0  0  0
    9.1603    1.1556   -0.6454 C   0  0  0  0  0  0  0  0  0  0  0  0
    8.1651    0.6092    0.0810 N   0  0  0  0  0  0  0  0  0  0  0  0
   10.3098    0.3494   -1.1366 C   0  0  0  0  0  0  0  0  0  0  0  0
   10.0447   -1.0013   -1.0347 F   0  0  0  0  0  0  0  0  0  0  0  0
   10.6393    0.7041   -2.4342 F   0  0  0  0  0  0  0  0  0  0  0  0
   11.4669    0.6029   -0.3862 F   0  0  0  0  0  0  0  0  0  0  0  0
    4.6488   -0.4899   -0.1887 C   0  0  0  0  0  0  0  0  0  0  0  0
    3.3797   -0.9696   -0.4741 C   0  0  0  0  0  0  0  0  0  0  0  0
    0.4615   -2.4077    0.1108 C   0  0  0  0  0  0  0  0  0  0  0  0
   -2.5694   -0.4030    0.3121 C   0  0  2  0  0  0  0  0  0  0  0  0
   -3.7462   -1.1044   -0.2432 C   0  0  0  0  0  0  0  0  0  0  0  0
   -4.9383   -0.5295    0.5876 C   0  0  0  0  0  0  0  0  0  0  0  0
   -4.8935    0.9348    0.6540 C   0  0  1  0  0  0  0  0  0  0  0  0
   -4.0090    1.4743   -0.4596 C   0  0  0  0  0  0  0  0  0  0  0  0
   -2.6002    1.0055   -0.2342 C   0  0  0  0  0  0  0  0  0  0  0  0
   -6.1685    1.5564    0.6570 N   0  0  0  0  0  0  0  0  0  0  0  0
   -6.9765    1.5324   -0.4788 C   0  0  1  0  0  0  0  0  0  0  0  0
   -7.4562    0.2062   -1.0269 C   0  0  0  0  0  0  0  0  0  0  0  0
   -8.6108    0.7337   -1.9205 C   0  0  0  0  0  0  0  0  0  0  0  0
   -9.1971    1.7130   -1.0976 O   0  0  0  0  0  0  0  0  0  0  0  0
   -8.3264    2.1126   -0.0971 C   0  0  0  0  0  0  0  0  0  0  0  0
   -8.6599    2.7998    0.8762 O   0  0  0  0  0  0  0  0  0  0  0  0
    2.9660   -4.1363   -0.7437 H   0  0  0  0  0  0  0  0  0  0  0  0
    2.9054   -3.7343    0.9921 H   0  0  0  0  0  0  0  0  0  0  0  0
   -1.8390   -5.4195   -0.1538 H   0  0  0  0  0  0  0  0  0  0  0  0
   -0.0197    0.8133    0.3905 H   0  0  0  0  0  0  0  0  0  0  0  0
    1.8083    0.2352    2.2405 H   0  0  0  0  0  0  0  0  0  0  0  0
    4.0673    1.0898    2.7147 H   0  0  0  0  0  0  0  0  0  0  0  0
    6.2564    3.2131    0.6523 H   0  0  0  0  0  0  0  0  0  0  0  0
    8.0076    4.3468   -0.6576 H   0  0  0  0  0  0  0  0  0  0  0  0
    9.8895    2.9605   -1.5080 H   0  0  0  0  0  0  0  0  0  0  0  0
    5.4669   -0.7103   -0.8941 H   0  0  0  0  0  0  0  0  0  0  0  0
    3.2149   -1.5330   -1.3896 H   0  0  0  0  0  0  0  0  0  0  0  0
   -2.8260   -0.2392    1.4381 H   0  0  0  0  0  0  0  0  0  0  0  0
   -3.9915   -0.7764   -1.2810 H   0  0  0  0  0  0  0  0  0  0  0  0
   -3.8636   -2.1709   -0.0474 H   0  0  0  0  0  0  0  0  0  0  0  0
   -5.8263   -1.0809    0.3809 H   0  0  0  0  0  0  0  0  0  0  0  0
   -4.6283   -0.9087    1.6434 H   0  0  0  0  0  0  0  0  0  0  0  0
   -4.3563    1.2857    1.6019 H   0  0  0  0  0  0  0  0  0  0  0  0
   -4.4124    1.2017   -1.4549 H   0  0  0  0  0  0  0  0  0  0  0  0
   -3.9813    2.5900   -0.3654 H   0  0  0  0  0  0  0  0  0  0  0  0
   -2.0779    1.0634   -1.2352 H   0  0  0  0  0  0  0  0  0  0  0  0
   -2.0426    1.7139    0.4052 H   0  0  0  0  0  0  0  0  0  0  0  0
   -6.7017    1.1979    1.4941 H   0  0  0  0  0  0  0  0  0  0  0  0
   -6.5578    2.1352   -1.3300 H   0  0  0  0  0  0  0  0  0  0  0  0
   -7.9599   -0.3763   -0.2614 H   0  0  0  0  0  0  0  0  0  0  0  0
   -6.7122   -0.3212   -1.6377 H   0  0  0  0  0  0  0  0  0  0  0  0
   -9.2703   -0.0667   -2.2514 H   0  0  0  0  0  0  0  0  0  0  0  0
   -8.1132    1.2763   -2.7465 H   0  0  0  0  0  0  0  0  0  0  0  0
  1  2  1  0
  2  3  2  0
  3  4  1  0
  4  5  2  0
  5  6  1  0
  6  7  1  0
  7  8  1  0
  8  9  2  0
  9 10  1  0
 10 11  2  0
 11 12  1  0
 12 13  2  0
 13 14  1  0
 14 15  1  0
 15 16  2  0
 16 17  1  0
 17 18  2  0
 18 19  1  0
 19 20  2  0
 19 21  1  0
 21 22  1  0
 21 23  1  0
 21 24  1  0
 13 25  1  0
 25 26  2  0
  9 27  1  0
  7 28  1  0
 28 29  1  0
 29 30  1  0
 30 31  1  0
 31 32  1  0
 32 33  1  0
 31 34  1  0
 34 35  1  0
 35 36  1  0
 36 37  1  0
 37 38  1  0
 38 39  1  0
 39 40  2  0
 27  2  1  0
 33 28  1  0
 39 35  1  0
 27  6  2  0
 26 10  1  0
 20 15  1  0
  1 41  1  0
  1 42  1  0
  4 43  1  0
  8 44  1  0
 11 45  1  0
 12 46  1  0
 16 47  1  0
 17 48  1  0
 18 49  1  0
 25 50  1  0
 26 51  1  0
 28 52  1  1
 29 53  1  0
 29 54  1  0
 30 55  1  0
 30 56  1  0
 31 57  1  1
 32 58  1  0
 32 59  1  0
 33 60  1  0
 33 61  1  0
 34 62  1  0
 35 63  1  6
 36 64  1  0
 36 65  1  0
 37 66  1  0
 37 67  1  0
M  END
$$$$
[H]Oc1c([H])c([H])c(C([H])([H])[C@@]([H])(C(=O)N([H])[C@@]([H])(C(=O)N([H])[C@]([H])(C(=O)N2C([H])([H])C([H])([H])C([H])([H])[C@@]2([H])C(=O)N([H])[C@]([H])(C(=O)N([H])[H])C([H])([H])c2c([H])c([H])c([H])c([H])c2[H])C([H])([H])c2c([H])c([H])c([H])c([H])c2[H])C([H])([H])C([H])([H])SC([H])([H])[H])N([H])[H])c([H])c1[H]
     RDKit          3D

 96 99  0  0  0  0  0  0  0  0999 V2000
    3.5230   -3.1983    3.3200 C   0  0  0  0  0  0  0  0  0  0  0  0
    4.2976   -2.2320    1.9770 S   0  0  0  0  0  0  0  0  0  0  0  0
    4.4077   -0.5211    2.4695 C   0  0  0  0  0  0  0  0  0  0  0  0
    3.1272    0.2328    2.5497 C   0  0  0  0  0  0  0  0  0  0  0  0
    2.3765    0.4269    1.2876 C   0  0  1  0  0  0  0  0  0  0  0  0
    3.2776    1.1510    0.3787 N   0  0  0  0  0  0  0  0  0  0  0  0
    3.0878    2.5116    0.0388 C   0  0  0  0  0  0  0  0  0  0  0  0
    2.1257    3.1322    0.5209 O   0  0  0  0  0  0  0  0  0  0  0  0
    4.0302    3.1816   -0.8828 C   0  0  1  0  0  0  0  0  0  0  0  0
    3.7199    4.5699   -1.0713 N   0  0  0  0  0  0  0  0  0  0  0  0
    5.4368    2.9570   -0.3623 C   0  0  0  0  0  0  0  0  0  0  0  0
    6.4440    3.6085   -1.2423 C   0  0  0  0  0  0  0  0  0  0  0  0
    6.8533    4.9007   -1.0225 C   0  0  0  0  0  0  0  0  0  0  0  0
    7.7791    5.4924   -1.8505 C   0  0  0  0  0  0  0  0  0  0  0  0
    8.2972    4.7748   -2.9097 C   0  0  0  0  0  0  0  0  0  0  0  0
    9.2235    5.3709   -3.7365 O   0  0  0  0  0  0  0  0  0  0  0  0
    7.8821    3.4681   -3.1299 C   0  0  0  0  0  0  0  0  0  0  0  0
    6.9530    2.8908   -2.2896 C   0  0  0  0  0  0  0  0  0  0  0  0
    1.7052   -0.6766    0.6459 C   0  0  0  0  0  0  0  0  0  0  0  0
    2.0142   -0.9056   -0.5815 O   0  0  0  0  0  0  0  0  0  0  0  0
    0.7508   -1.5043    1.2321 N   0  0  0  0  0  0  0  0  0  0  0  0
    0.1068   -2.5885    0.4165 C   0  0  1  0  0  0  0  0  0  0  0  0
    0.5876   -3.8352    0.9403 C   0  0  0  0  0  0  0  0  0  0  0  0
    0.2333   -5.1341    0.3923 C   0  0  0  0  0  0  0  0  0  0  0  0
    0.7483   -5.5337   -0.8429 C   0  0  0  0  0  0  0  0  0  0  0  0
    0.5184   -6.7951   -1.3447 C   0  0  0  0  0  0  0  0  0  0  0  0
   -0.2435   -7.7107   -0.6187 C   0  0  0  0  0  0  0  0  0  0  0  0
   -0.7574   -7.3314    0.6005 C   0  0  0  0  0  0  0  0  0  0  0  0
   -0.5013   -6.0645    1.0583 C   0  0  0  0  0  0  0  0  0  0  0  0
   -1.1901   -2.1299    0.0640 C   0  0  0  0  0  0  0  0  0  0  0  0
   -1.0941   -0.8396   -0.3985 O   0  0  0  0  0  0  0  0  0  0  0  0
   -2.5239   -2.5114    0.0196 N   0  0  0  0  0  0  0  0  0  0  0  0
   -3.3343   -3.6134    0.4152 C   0  0  0  0  0  0  0  0  0  0  0  0
   -4.2461   -3.9090   -0.7874 C   0  0  0  0  0  0  0  0  0  0  0  0
   -4.4063   -2.5345   -1.3645 C   0  0  0  0  0  0  0  0  0  0  0  0
   -3.5424   -1.6084   -0.6288 C   0  0  1  0  0  0  0  0  0  0  0  0
   -4.1505   -0.7068    0.3443 C   0  0  0  0  0  0  0  0  0  0  0  0
   -3.8244   -0.8211    1.5517 O   0  0  0  0  0  0  0  0  0  0  0  0
   -5.0899    0.3004    0.0230 N   0  0  0  0  0  0  0  0  0  0  0  0
   -5.6945    1.1976    0.9473 C   0  0  1  0  0  0  0  0  0  0  0  0
   -5.1789    2.6273    0.7674 C   0  0  0  0  0  0  0  0  0  0  0  0
   -5.4150    3.1712   -0.5708 C   0  0  0  0  0  0  0  0  0  0  0  0
   -6.5329    3.8657   -0.9485 C   0  0  0  0  0  0  0  0  0  0  0  0
   -6.7139    4.3622   -2.2414 C   0  0  0  0  0  0  0  0  0  0  0  0
   -5.7430    4.1598   -3.1976 C   0  0  0  0  0  0  0  0  0  0  0  0
   -4.6128    3.4637   -2.8331 C   0  0  0  0  0  0  0  0  0  0  0  0
   -4.4380    2.9744   -1.5535 C   0  0  0  0  0  0  0  0  0  0  0  0
   -7.1528    1.2317    0.9747 C   0  0  0  0  0  0  0  0  0  0  0  0
   -7.8108    2.0666    1.9147 N   0  0  0  0  0  0  0  0  0  0  0  0
   -7.8679    0.5502    0.2008 O   0  0  0  0  0  0  0  0  0  0  0  0
    4.1922   -3.3034    4.1832 H   0  0  0  0  0  0  0  0  0  0  0  0
    2.5604   -2.6905    3.5545 H   0  0  0  0  0  0  0  0  0  0  0  0
    3.2973   -4.1890    2.8948 H   0  0  0  0  0  0  0  0  0  0  0  0
    4.9659   -0.4941    3.4547 H   0  0  0  0  0  0  0  0  0  0  0  0
    5.1150   -0.0179    1.7679 H   0  0  0  0  0  0  0  0  0  0  0  0
    2.4765   -0.1496    3.3883 H   0  0  0  0  0  0  0  0  0  0  0  0
    3.4111    1.2734    2.9066 H   0  0  0  0  0  0  0  0  0  0  0  0
    1.5825    1.2190    1.5313 H   0  0  0  0  0  0  0  0  0  0  0  0
    4.0797    0.6118   -0.0135 H   0  0  0  0  0  0  0  0  0  0  0  0
    3.9462    2.6122   -1.8562 H   0  0  0  0  0  0  0  0  0  0  0  0
    4.0021    4.8463   -2.0380 H   0  0  0  0  0  0  0  0  0  0  0  0
    2.6739    4.6630   -0.9893 H   0  0  0  0  0  0  0  0  0  0  0  0
    5.6460    1.8682   -0.3613 H   0  0  0  0  0  0  0  0  0  0  0  0
    5.5264    3.4044    0.6541 H   0  0  0  0  0  0  0  0  0  0  0  0
    6.4577    5.4719   -0.2003 H   0  0  0  0  0  0  0  0  0  0  0  0
    8.1000    6.5031   -1.6801 H   0  0  0  0  0  0  0  0  0  0  0  0
    9.6470    4.9215   -4.5259 H   0  0  0  0  0  0  0  0  0  0  0  0
    8.3158    2.9517   -3.9686 H   0  0  0  0  0  0  0  0  0  0  0  0
    6.6489    1.8681   -2.4871 H   0  0  0  0  0  0  0  0  0  0  0  0
    0.4365   -1.4341    2.2155 H   0  0  0  0  0  0  0  0  0  0  0  0
    0.7260   -2.4555   -0.5890 H   0  0  0  0  0  0  0  0  0  0  0  0
    1.7458   -3.8048    0.8498 H   0  0  0  0  0  0  0  0  0  0  0  0
    0.5128   -3.9029    2.0872 H   0  0  0  0  0  0  0  0  0  0  0  0
    1.3344   -4.8190   -1.3960 H   0  0  0  0  0  0  0  0  0  0  0  0
    0.9074   -7.1250   -2.2982 H   0  0  0  0  0  0  0  0  0  0  0  0
   -0.4230   -8.7027   -1.0156 H   0  0  0  0  0  0  0  0  0  0  0  0
   -1.3481   -8.0342    1.1703 H   0  0  0  0  0  0  0  0  0  0  0  0
   -0.9365   -5.8179    2.0376 H   0  0  0  0  0  0  0  0  0  0  0  0
   -4.0387   -3.2360    1.2326 H   0  0  0  0  0  0  0  0  0  0  0  0
   -2.8901   -4.4899    0.8180 H   0  0  0  0  0  0  0  0  0  0  0  0
   -5.2038   -4.3424   -0.4277 H   0  0  0  0  0  0  0  0  0  0  0  0
   -3.6695   -4.5839   -1.4474 H   0  0  0  0  0  0  0  0  0  0  0  0
   -4.0654   -2.5918   -2.4404 H   0  0  0  0  0  0  0  0  0  0  0  0
   -5.4711   -2.2263   -1.4454 H   0  0  0  0  0  0  0  0  0  0  0  0
   -3.0078   -0.9509   -1.3705 H   0  0  0  0  0  0  0  0  0  0  0  0
   -5.3575    0.3824   -1.0002 H   0  0  0  0  0  0  0  0  0  0  0  0
   -5.2763    0.9041    1.9628 H   0  0  0  0  0  0  0  0  0  0  0  0
   -4.0866    2.6114    1.0370 H   0  0  0  0  0  0  0  0  0  0  0  0
   -5.6469    3.2444    1.5841 H   0  0  0  0  0  0  0  0  0  0  0  0
   -7.3374    4.0723   -0.2606 H   0  0  0  0  0  0  0  0  0  0  0  0
   -7.6093    4.9052   -2.5002 H   0  0  0  0  0  0  0  0  0  0  0  0
   -5.8589    4.5391   -4.2222 H   0  0  0  0  0  0  0  0  0  0  0  0
   -3.8657    3.3244   -3.6242 H   0  0  0  0  0  0  0  0  0  0  0  0
   -3.5236    2.4342   -1.3240 H   0  0  0  0  0  0  0  0  0  0  0  0
   -8.4875    1.6934    2.6234 H   0  0  0  0  0  0  0  0  0  0  0  0
   -7.6460    3.1014    1.9409 H   0  0  0  0  0  0  0  0  0  0  0  0
  1  2  1  0
  2  3  1  0
  3  4  1  0
  4  5  1  0
  5  6  1  0
  6  7  1  0
  7  8  2  0
  7  9  1  0
  9 10  1  0
  9 11  1  0
 11 12  1  0
 12 13  2  0
 13 14  1  0
 14 15  2  0
 15 16  1  0
 15 17  1  0
 17 18  2  0
  5 19  1  0
 19 20  2  0
 19 21  1  0
 21 22  1  0
 22 23  1  0
 23 24  1  0
 24 25  2  0
 25 26  1  0
 26 27  2  0
 27 28  1  0
 28 29  2  0
 22 30  1  0
 30 31  2  0
 30 32  1  0
 32 33  1  0
 33 34  1  0
 34 35  1  0
 35 36  1  0
 36 37  1  0
 37 38  2  0
 37 39  1  0
 39 40  1  0
 40 41  1  0
 41 42  1  0
 42 43  2  0
 43 44  1  0
 44 45  2  0
 45 46  1  0
 46 47  2  0
 40 48  1  0
 48 49  1  0
 48 50  2  0
 18 12  1  0
 29 24  1  0
 36 32  1  0
 47 42  1  0
  1 51  1  0
  1 52  1  0
  1 53  1  0
  3 54  1  0
  3 55  1  0
  4 56  1  0
  4 57  1  0
  5 58  1  1
  6 59  1  0
  9 60  1  6
 10 61  1  0
 10 62  1  0
 11 63  1  0
 11 64  1  0
 13 65  1  0
 14 66  1  0
 16 67  1  0
 17 68  1  0
 18 69  1  0
 21 70  1  0
 22 71  1  6
 23 72  1  0
 23 73  1  0
 25 74  1  0
 26 75  1  0
 27 76  1  0
 28 77  1  0
 29 78  1  0
 33 79  1  0
 33 80  1  0
 34 81  1  0
 34 82  1  0
 35 83  1  0
 35 84  1  0
 36 85  1  6
 39 86  1  0
 40 87  1  1
 41 88  1  0
 41 89  1  0
 43 90  1  0
 44 91  1  0
 45 92  1  0
 46 93  1  0
 47 94  1  0
 49 95  1  0
 49 96  1  0
M  END
$$$$
[H]OP(=O)(C([H])(SC([H])([H])C([H])([H])C([H])([H])c1c([H])c([H])c([H])c([H])c1[H])N([H])[H])C([H])([H])C([H])([H])c1c([H])c([H])c([H])c([H])c1[H]
     RDKit          3D

 47 48  0  0  0  0  0  0  0  0999 V2000
   -0.8890    3.1978   -1.0320 N   0  0  0  0  0  0  0  0  0  0  0  0
   -0.2085    1.9301   -0.7160 C   0  0  0  0  0  0  0  0  0  0  0  0
    0.5165    1.2477   -2.2310 S   0  0  0  0  0  0  0  0  0  0  0  0
    1.3597   -0.3025   -1.8166 C   0  0  0  0  0  0  0  0  0  0  0  0
    2.5326    0.0232   -0.9185 C   0  0  0  0  0  0  0  0  0  0  0  0
    3.3102   -1.1992   -0.5085 C   0  0  0  0  0  0  0  0  0  0  0  0
    4.4262   -0.7053    0.3701 C   0  0  0  0  0  0  0  0  0  0  0  0
    5.6512   -0.3457   -0.1505 C   0  0  0  0  0  0  0  0  0  0  0  0
    6.6733    0.1082    0.6627 C   0  0  0  0  0  0  0  0  0  0  0  0
    6.5047    0.2178    2.0250 C   0  0  0  0  0  0  0  0  0  0  0  0
    5.2783   -0.1418    2.5497 C   0  0  0  0  0  0  0  0  0  0  0  0
    4.2515   -0.5974    1.7368 C   0  0  0  0  0  0  0  0  0  0  0  0
   -1.4477    0.7687   -0.0148 P   0  0  0  0  0  0  0  0  0  0  0  0
   -0.5710   -0.4007    0.8206 O   0  0  0  0  0  0  0  0  0  0  0  0
   -2.3580    1.5621    0.8949 O   0  0  0  0  0  0  0  0  0  0  0  0
   -2.3267    0.0615   -1.4231 C   0  0  0  0  0  0  0  0  0  0  0  0
   -3.2519   -1.0438   -1.0882 C   0  0  0  0  0  0  0  0  0  0  0  0
   -4.3432   -0.7520   -0.1684 C   0  0  0  0  0  0  0  0  0  0  0  0
   -4.1498   -0.9392    1.1842 C   0  0  0  0  0  0  0  0  0  0  0  0
   -5.1341   -0.6844    2.1255 C   0  0  0  0  0  0  0  0  0  0  0  0
   -6.3621   -0.2210    1.6692 C   0  0  0  0  0  0  0  0  0  0  0  0
   -6.5597   -0.0327    0.3203 C   0  0  0  0  0  0  0  0  0  0  0  0
   -5.5746   -0.2896   -0.6014 C   0  0  0  0  0  0  0  0  0  0  0  0
   -0.1472    3.9365   -0.8522 H   0  0  0  0  0  0  0  0  0  0  0  0
   -1.0258    3.2248   -2.0843 H   0  0  0  0  0  0  0  0  0  0  0  0
    0.5778    2.0793    0.0474 H   0  0  0  0  0  0  0  0  0  0  0  0
    1.7196   -0.8194   -2.7367 H   0  0  0  0  0  0  0  0  0  0  0  0
    0.6410   -0.9277   -1.2509 H   0  0  0  0  0  0  0  0  0  0  0  0
    2.2226    0.5473   -0.0159 H   0  0  0  0  0  0  0  0  0  0  0  0
    3.2358    0.6817   -1.4699 H   0  0  0  0  0  0  0  0  0  0  0  0
    2.6911   -1.9458    0.0353 H   0  0  0  0  0  0  0  0  0  0  0  0
    3.7262   -1.6804   -1.4322 H   0  0  0  0  0  0  0  0  0  0  0  0
    5.7724   -0.4372   -1.2329 H   0  0  0  0  0  0  0  0  0  0  0  0
    7.6342    0.3862    0.2208 H   0  0  0  0  0  0  0  0  0  0  0  0
    7.3250    0.5784    2.6444 H   0  0  0  0  0  0  0  0  0  0  0  0
    5.1465   -0.0559    3.6159 H   0  0  0  0  0  0  0  0  0  0  0  0
    3.2779   -0.8826    2.1550 H   0  0  0  0  0  0  0  0  0  0  0  0
   -0.8972   -1.3262    0.5910 H   0  0  0  0  0  0  0  0  0  0  0  0
   -2.7686    0.8929   -1.9932 H   0  0  0  0  0  0  0  0  0  0  0  0
   -1.5328   -0.3716   -2.0967 H   0  0  0  0  0  0  0  0  0  0  0  0
   -2.6253   -1.8590   -0.6170 H   0  0  0  0  0  0  0  0  0  0  0  0
   -3.6808   -1.5448   -1.9908 H   0  0  0  0  0  0  0  0  0  0  0  0
   -3.2155   -1.2959    1.5640 H   0  0  0  0  0  0  0  0  0  0  0  0
   -4.9983   -0.8255    3.1811 H   0  0  0  0  0  0  0  0  0  0  0  0
   -7.1707   -0.0038    2.3543 H   0  0  0  0  0  0  0  0  0  0  0  0
   -7.5121    0.3316   -0.0866 H   0  0  0  0  0  0  0  0  0  0  0  0
   -5.7238   -0.1448   -1.6490 H   0  0  0  0  0  0  0  0  0  0  0  0
  1  2  1  0
  2  3  1  0
  3  4  1  0
  4  5  1  0
  5  6  1  0
  6  7  1  0
  7  8  2  0
  8  9  1  0
  9 10  2  0
 10 11  1  0
 11 12  2  0
  2 13  1  0
 13 14  1  0
 13 15  2  0
 13 16  1  0
 16 17  1  0
 17 18  1  0
 18 19  2  0
 19 20  1  0
 20 21  2  0
 21 22  1  0
 22 23  2  0
 12  7  1  0
 23 18  1  0
  1 24  1  0
  1 25  1  0
  2 26  1  0
  4 27  1  0
  4 28  1  0
  5 29  1  0
  5 30  1  0
  6 31  1  0
  6 32  1  0
  8 33  1  0
  9 34  1  0
 10 35  1  0
 11 36  1  0
 12 37  1  0
 14 38  1  0
 16 39  1  0
 16 40  1  0
 17 41  1  0
 17 42  1  0
 19 43  1  0
 20 44  1  0
 21 45  1  0
 22 46  1  0
 23 47  1  0
M  END
$$$$
[H]c1c([H])c([H])c(C(=O)N=NC([H])(c2c([H])c([H])c(Cl)c([H])c2[H])c2nc3c([H])c([H])c([H])c([H])c3n2[H])c([H])c1[H]
     RDKit          3D

 42 45  0  0  0  0  0  0  0  0999 V2000
   -2.4271    6.2012    0.9975 Cl  0  0  0  0  0  0  0  0  0  0  0  0
   -1.8155    4.6431    0.4368 C   0  0  0  0  0  0  0  0  0  0  0  0
   -1.9007    4.3463   -0.9078 C   0  0  0  0  0  0  0  0  0  0  0  0
   -1.4145    3.1218   -1.3141 C   0  0  0  0  0  0  0  0  0  0  0  0
   -0.8709    2.2361   -0.4310 C   0  0  0  0  0  0  0  0  0  0  0  0
   -0.8007    2.5624    0.9035 C   0  0  0  0  0  0  0  0  0  0  0  0
   -1.2819    3.7907    1.3516 C   0  0  0  0  0  0  0  0  0  0  0  0
   -0.3355    0.9016   -0.8401 C   0  0  0  0  0  0  0  0  0  0  0  0
    0.9283    0.7021   -0.1901 N   0  0  0  0  0  0  0  0  0  0  0  0
    1.1361   -0.3537    0.5198 N   0  0  0  0  0  0  0  0  0  0  0  0
    2.3761   -0.5684    1.1687 C   0  0  0  0  0  0  0  0  0  0  0  0
    2.4176   -0.4929    2.4120 O   0  0  0  0  0  0  0  0  0  0  0  0
    3.5803   -0.8712    0.4021 C   0  0  0  0  0  0  0  0  0  0  0  0
    4.7777   -1.0785    1.0290 C   0  0  0  0  0  0  0  0  0  0  0  0
    5.9468   -1.3685    0.3449 C   0  0  0  0  0  0  0  0  0  0  0  0
    5.9071   -1.4530   -1.0277 C   0  0  0  0  0  0  0  0  0  0  0  0
    4.7049   -1.2464   -1.6792 C   0  0  0  0  0  0  0  0  0  0  0  0
    3.5343   -0.9547   -0.9739 C   0  0  0  0  0  0  0  0  0  0  0  0
   -1.2849   -0.1657   -0.4385 C   0  0  0  0  0  0  0  0  0  0  0  0
   -1.0267   -1.4690   -0.3668 N   0  0  0  0  0  0  0  0  0  0  0  0
   -2.1422   -2.1310    0.0379 C   0  0  0  0  0  0  0  0  0  0  0  0
   -2.4070   -3.4783    0.2691 C   0  0  0  0  0  0  0  0  0  0  0  0
   -3.6703   -3.7979    0.6786 C   0  0  0  0  0  0  0  0  0  0  0  0
   -4.6455   -2.8391    0.8579 C   0  0  0  0  0  0  0  0  0  0  0  0
   -4.3879   -1.5044    0.6302 C   0  0  0  0  0  0  0  0  0  0  0  0
   -3.1078   -1.1624    0.2132 C   0  0  0  0  0  0  0  0  0  0  0  0
   -2.5622    0.0229   -0.0825 N   0  0  0  0  0  0  0  0  0  0  0  0
   -2.3377    5.0567   -1.6226 H   0  0  0  0  0  0  0  0  0  0  0  0
   -1.4627    2.8512   -2.3590 H   0  0  0  0  0  0  0  0  0  0  0  0
   -0.3705    1.8617    1.6035 H   0  0  0  0  0  0  0  0  0  0  0  0
   -1.2116    4.0114    2.3940 H   0  0  0  0  0  0  0  0  0  0  0  0
   -0.1758    0.9224   -1.9382 H   0  0  0  0  0  0  0  0  0  0  0  0
    4.8433   -1.0196    2.1037 H   0  0  0  0  0  0  0  0  0  0  0  0
    6.8933   -1.5326    0.8368 H   0  0  0  0  0  0  0  0  0  0  0  0
    6.7805   -1.6759   -1.6311 H   0  0  0  0  0  0  0  0  0  0  0  0
    4.6735   -1.3129   -2.7595 H   0  0  0  0  0  0  0  0  0  0  0  0
    2.5991   -0.7948   -1.4929 H   0  0  0  0  0  0  0  0  0  0  0  0
   -1.6573   -4.2178    0.1315 H   0  0  0  0  0  0  0  0  0  0  0  0
   -3.9216   -4.8309    0.8701 H   0  0  0  0  0  0  0  0  0  0  0  0
   -5.6514   -3.1206    1.1870 H   0  0  0  0  0  0  0  0  0  0  0  0
   -5.1549   -0.7430    0.7704 H   0  0  0  0  0  0  0  0  0  0  0  0
   -3.0741    0.9516   -0.0367 H   0  0  0  0  0  0  0  0  0  0  0  0
  1  2  1  0
  2  3  2  0
  3  4  1  0
  4  5  2  0
  5  6  1  0
  6  7  2  0
  5  8  1  0
  8  9  1  0
  9 10  2  3
 10 11  1  0
 11 12  2  0
 11 13  1  0
 13 14  2  0
 14 15  1  0
 15 16  2  0
 16 17  1  0
 17 18  2  0
  8 19  1  0
 19 20  2  0
 20 21  1  0
 21 22  2  0
 22 23  1  0
 23 24  2  0
 24 25  1  0
 25 26  2  0
 26 27  1  0
  7  2  1  0
 18 13  1  0
 27 19  1  0
 26 21  1  0
  3 28  1  0
  4 29  1  0
  6 30  1  0
  7 31  1  0
  8 32  1  0
 14 33  1  0
 15 34  1  0
 16 35  1  0
 17 36  1  0
 18 37  1  0
 22 38  1  0
 23 39  1  0
 24 40  1  0
 25 41  1  0
 27 42  1  0
M  END
$$$$
[H]OC(=O)c1c([H])c([H])c(C#N)c(N([H])C(=O)c2c([H])c(C([H])([H])[H])c(O[H])c([H])c2O[H])c1[H]
     RDKit          3D

 35 36  0  0  0  0  0  0  0  0999 V2000
   -3.5320   -3.2731    2.2752 C   0  0  0  0  0  0  0  0  0  0  0  0
   -2.4620   -3.0082    1.2792 C   0  0  0  0  0  0  0  0  0  0  0  0
   -1.8307   -1.8025    1.2065 C   0  0  0  0  0  0  0  0  0  0  0  0
   -0.8303   -1.5088    0.2615 C   0  0  0  0  0  0  0  0  0  0  0  0
   -0.2292   -0.1848    0.2682 C   0  0  0  0  0  0  0  0  0  0  0  0
   -0.6606    0.6463    1.1540 O   0  0  0  0  0  0  0  0  0  0  0  0
    0.7631    0.2880   -0.5822 N   0  0  0  0  0  0  0  0  0  0  0  0
    1.3532    1.5602   -0.6127 C   0  0  0  0  0  0  0  0  0  0  0  0
    1.0615    2.6393    0.1459 C   0  0  0  0  0  0  0  0  0  0  0  0
    1.6762    3.8908    0.0416 C   0  0  0  0  0  0  0  0  0  0  0  0
    2.6648    4.0537   -0.9117 C   0  0  0  0  0  0  0  0  0  0  0  0
    2.9965    2.9880   -1.7015 C   0  0  0  0  0  0  0  0  0  0  0  0
    2.3802    1.7710   -1.5802 C   0  0  0  0  0  0  0  0  0  0  0  0
    2.7970    0.7048   -2.4371 C   0  0  0  0  0  0  0  0  0  0  0  0
    3.1141   -0.1423   -3.1308 N   0  0  0  0  0  0  0  0  0  0  0  0
    1.3125    5.0138    0.8977 C   0  0  0  0  0  0  0  0  0  0  0  0
    1.9496    6.2542    0.7103 O   0  0  0  0  0  0  0  0  0  0  0  0
    0.4669    4.9383    1.7846 O   0  0  0  0  0  0  0  0  0  0  0  0
   -0.5052   -2.5251   -0.6172 C   0  0  0  0  0  0  0  0  0  0  0  0
    0.4358   -2.3685   -1.5497 O   0  0  0  0  0  0  0  0  0  0  0  0
   -1.1599   -3.7762   -0.5423 C   0  0  0  0  0  0  0  0  0  0  0  0
   -2.1163   -4.0229    0.3812 C   0  0  0  0  0  0  0  0  0  0  0  0
   -2.7837   -5.2247    0.4977 O   0  0  0  0  0  0  0  0  0  0  0  0
   -3.7355   -2.3746    2.8846 H   0  0  0  0  0  0  0  0  0  0  0  0
   -3.3200   -4.0966    2.9583 H   0  0  0  0  0  0  0  0  0  0  0  0
   -4.4918   -3.5037    1.7314 H   0  0  0  0  0  0  0  0  0  0  0  0
   -2.1154   -0.9985    1.9067 H   0  0  0  0  0  0  0  0  0  0  0  0
    1.1231   -0.4137   -1.3021 H   0  0  0  0  0  0  0  0  0  0  0  0
    0.2948    2.5921    0.9087 H   0  0  0  0  0  0  0  0  0  0  0  0
    3.1462    5.0187   -1.0151 H   0  0  0  0  0  0  0  0  0  0  0  0
    3.7806    3.1025   -2.4517 H   0  0  0  0  0  0  0  0  0  0  0  0
    2.0945    6.6275   -0.2070 H   0  0  0  0  0  0  0  0  0  0  0  0
    0.7329   -2.8843   -2.2909 H   0  0  0  0  0  0  0  0  0  0  0  0
   -0.8862   -4.5544   -1.2394 H   0  0  0  0  0  0  0  0  0  0  0  0
   -3.4848   -5.4267    1.1771 H   0  0  0  0  0  0  0  0  0  0  0  0
  1  2  1  0
  2  3  2  0
  3  4  1  0
  4  5  1  0
  5  6  2  0
  5  7  1  0
  7  8  1  0
  8  9  2  0
  9 10  1  0
 10 11  2  0
 11 12  1  0
 12 13  2  0
 13 14  1  0
 14 15  3  0
 10 16  1  0
 16 17  1  0
 16 18  2  0
  4 19  2  0
 19 20  1  0
 19 21  1  0
 21 22  2  0
 22 23  1  0
 22  2  1  0
 13  8  1  0
  1 24  1  0
  1 25  1  0
  1 26  1  0
  3 27  1  0
  7 28  1  0
  9 29  1  0
 11 30  1  0
 12 31  1  0
 17 32  1  0
 20 33  1  0
 21 34  1  0
 23 35  1  0
M  END
$$$$
[H]N(C(=O)[C@]([H])(N([H])C(=O)[C@@]1([H])N(C(=O)C([H])([H])N([H])C(=O)[C@@]([H])(N([H])C(=O)[C@@]([H])(N([H])C(=O)[C@@]([H])(N([H])C(=O)[C@@]([H])(N([H])[H])C([H])([H])C([H])(C([H])([H])[H])C([H])([H])[H])C([H])([H])C([H])(C([H])([H])[H])C([H])([H])[H])C([H])([H])C([H])(C([H])([H])[H])C([H])([H])[H])C([H])(C([H])([H])[H])C([H])([H])[H])C([H])([H])C([H])([H])C1([H])[H])C([H])([H])N([H])C([H])([H])[H])C([H])([H])C(=O)N([H])C([H])([H])C(=O)N([H])C([H])([H])C([H])([H])N([H])[H]
     RDKit          3D

135135  0  0  0  0  0  0  0  0999 V2000
    7.3905   -3.9434    3.5451 C   0  0  0  0  0  0  0  0  0  0  0  0
    6.1170   -3.8210    2.9615 N   0  0  0  0  0  0  0  0  0  0  0  0
    5.6759   -2.5814    2.4650 C   0  0  0  0  0  0  0  0  0  0  0  0
    6.3288   -2.0685    1.1938 C   0  0  1  0  0  0  0  0  0  0  0  0
    5.7083   -0.7648    0.8562 N   0  0  0  0  0  0  0  0  0  0  0  0
    4.5938   -0.7475   -0.0301 C   0  0  0  0  0  0  0  0  0  0  0  0
    4.1863   -1.8402   -0.4595 O   0  0  0  0  0  0  0  0  0  0  0  0
    4.0077    0.5798   -0.3745 C   0  0  2  0  0  0  0  0  0  0  0  0
    3.5414    1.3268    0.8120 C   0  0  0  0  0  0  0  0  0  0  0  0
    2.4123    2.1702    0.2356 C   0  0  0  0  0  0  0  0  0  0  0  0
    1.7724    1.1987   -0.7533 C   0  0  0  0  0  0  0  0  0  0  0  0
    2.9026    0.4939   -1.3077 N   0  0  0  0  0  0  0  0  0  0  0  0
    2.9422   -0.1312   -2.5882 C   0  0  0  0  0  0  0  0  0  0  0  0
    4.1463   -0.5815   -2.8874 O   0  0  0  0  0  0  0  0  0  0  0  0
    1.9807   -0.3744   -3.6106 C   0  0  0  0  0  0  0  0  0  0  0  0
    0.6227   -0.0520   -3.5529 N   0  0  0  0  0  0  0  0  0  0  0  0
   -0.4251   -0.5402   -2.7448 C   0  0  0  0  0  0  0  0  0  0  0  0
   -0.1524   -1.4391   -1.8884 O   0  0  0  0  0  0  0  0  0  0  0  0
   -1.8322   -0.1016   -2.7882 C   0  0  1  0  0  0  0  0  0  0  0  0
   -2.2977    0.1894   -1.4833 N   0  0  0  0  0  0  0  0  0  0  0  0
   -3.4142   -0.3963   -0.8141 C   0  0  0  0  0  0  0  0  0  0  0  0
   -4.0209   -1.2709   -1.4624 O   0  0  0  0  0  0  0  0  0  0  0  0
   -3.8150    0.0217    0.5512 C   0  0  2  0  0  0  0  0  0  0  0  0
   -2.6583    0.0476    1.4485 C   0  0  0  0  0  0  0  0  0  0  0  0
   -2.9393    0.4520    2.8727 C   0  0  0  0  0  0  0  0  0  0  0  0
   -3.5356    1.8430    2.9768 C   0  0  0  0  0  0  0  0  0  0  0  0
   -1.5589    0.5775    3.5413 C   0  0  0  0  0  0  0  0  0  0  0  0
   -4.9825   -0.7092    1.0101 N   0  0  0  0  0  0  0  0  0  0  0  0
   -6.2863   -0.4014    0.6418 C   0  0  0  0  0  0  0  0  0  0  0  0
   -6.3703    0.5974   -0.1792 O   0  0  0  0  0  0  0  0  0  0  0  0
   -7.5339   -1.0007    1.0348 C   0  0  2  0  0  0  0  0  0  0  0  0
   -7.9914   -2.3244    0.6344 C   0  0  0  0  0  0  0  0  0  0  0  0
   -7.3381   -3.5937    0.9169 C   0  0  0  0  0  0  0  0  0  0  0  0
   -5.9765   -3.8791    0.3866 C   0  0  0  0  0  0  0  0  0  0  0  0
   -7.2910   -3.9199    2.4178 C   0  0  0  0  0  0  0  0  0  0  0  0
   -8.6366   -0.0933    0.4997 N   0  0  0  0  0  0  0  0  0  0  0  0
   -9.3462    0.7706    1.3333 C   0  0  0  0  0  0  0  0  0  0  0  0
   -9.1058    0.8375    2.5534 O   0  0  0  0  0  0  0  0  0  0  0  0
  -10.3985    1.6146    0.7424 C   0  0  1  0  0  0  0  0  0  0  0  0
  -10.9969    2.4680    1.7273 N   0  0  0  0  0  0  0  0  0  0  0  0
   -9.8471    2.4143   -0.4363 C   0  0  0  0  0  0  0  0  0  0  0  0
  -11.0154    3.2488   -0.9657 C   0  0  0  0  0  0  0  0  0  0  0  0
  -12.1430    2.3647   -1.4112 C   0  0  0  0  0  0  0  0  0  0  0  0
  -10.4519    4.0600   -2.1146 C   0  0  0  0  0  0  0  0  0  0  0  0
   -2.0198    0.9564   -3.8369 C   0  0  0  0  0  0  0  0  0  0  0  0
   -3.4663    1.4641   -3.8386 C   0  0  0  0  0  0  0  0  0  0  0  0
   -1.9517    0.2132   -5.2011 C   0  0  0  0  0  0  0  0  0  0  0  0
    7.7741   -1.9148    1.2506 C   0  0  0  0  0  0  0  0  0  0  0  0
    8.3538   -0.9139    1.7692 O   0  0  0  0  0  0  0  0  0  0  0  0
    8.5899   -2.9387    0.6947 N   0  0  0  0  0  0  0  0  0  0  0  0
   10.0078   -2.8821    0.7019 C   0  0  0  0  0  0  0  0  0  0  0  0
   10.5654   -1.7839   -0.0765 C   0  0  0  0  0  0  0  0  0  0  0  0
   11.8411   -1.6410   -0.0569 O   0  0  0  0  0  0  0  0  0  0  0  0
    9.8184   -0.8848   -0.8393 N   0  0  0  0  0  0  0  0  0  0  0  0
   10.4854    0.1961   -1.5603 C   0  0  0  0  0  0  0  0  0  0  0  0
   11.1366    1.1069   -0.5652 C   0  0  0  0  0  0  0  0  0  0  0  0
   11.0087    0.8804    0.6568 O   0  0  0  0  0  0  0  0  0  0  0  0
   11.8977    2.2227   -0.9847 N   0  0  0  0  0  0  0  0  0  0  0  0
   12.5323    3.0950   -0.0475 C   0  0  0  0  0  0  0  0  0  0  0  0
   13.5497    2.3548    0.7693 C   0  0  0  0  0  0  0  0  0  0  0  0
   14.5502    1.7909   -0.1341 N   0  0  0  0  0  0  0  0  0  0  0  0
    8.0097   -4.7118    3.0095 H   0  0  0  0  0  0  0  0  0  0  0  0
    7.2546   -4.3133    4.6202 H   0  0  0  0  0  0  0  0  0  0  0  0
    8.0009   -3.0398    3.6479 H   0  0  0  0  0  0  0  0  0  0  0  0
    5.8278   -4.6601    2.4266 H   0  0  0  0  0  0  0  0  0  0  0  0
    4.5612   -2.6749    2.2872 H   0  0  0  0  0  0  0  0  0  0  0  0
    5.7660   -1.7919    3.2592 H   0  0  0  0  0  0  0  0  0  0  0  0
    6.0402   -2.7856    0.4041 H   0  0  0  0  0  0  0  0  0  0  0  0
    6.0834    0.1036    1.2592 H   0  0  0  0  0  0  0  0  0  0  0  0
    4.8355    1.1309   -0.9123 H   0  0  0  0  0  0  0  0  0  0  0  0
    3.1099    0.5920    1.5406 H   0  0  0  0  0  0  0  0  0  0  0  0
    4.3011    1.9547    1.2974 H   0  0  0  0  0  0  0  0  0  0  0  0
    1.6553    2.3995    0.9822 H   0  0  0  0  0  0  0  0  0  0  0  0
    2.7961    3.0251   -0.3395 H   0  0  0  0  0  0  0  0  0  0  0  0
    1.2798    1.7797   -1.5630 H   0  0  0  0  0  0  0  0  0  0  0  0
    1.0433    0.5455   -0.2257 H   0  0  0  0  0  0  0  0  0  0  0  0
    2.4286    0.0931   -4.5720 H   0  0  0  0  0  0  0  0  0  0  0  0
    2.1156   -1.4915   -3.8994 H   0  0  0  0  0  0  0  0  0  0  0  0
    0.3051    0.7338   -4.2277 H   0  0  0  0  0  0  0  0  0  0  0  0
   -2.4656   -0.9768   -3.2213 H   0  0  0  0  0  0  0  0  0  0  0  0
   -1.7695    0.9146   -0.9388 H   0  0  0  0  0  0  0  0  0  0  0  0
   -4.1902    1.1037    0.3947 H   0  0  0  0  0  0  0  0  0  0  0  0
   -2.1433   -0.9289    1.4851 H   0  0  0  0  0  0  0  0  0  0  0  0
   -1.9208    0.8004    1.0719 H   0  0  0  0  0  0  0  0  0  0  0  0
   -3.4935   -0.2862    3.4631 H   0  0  0  0  0  0  0  0  0  0  0  0
   -2.7367    2.6019    2.8213 H   0  0  0  0  0  0  0  0  0  0  0  0
   -3.9817    1.9124    3.9941 H   0  0  0  0  0  0  0  0  0  0  0  0
   -4.3706    1.9129    2.2556 H   0  0  0  0  0  0  0  0  0  0  0  0
   -0.8967    1.0354    2.7642 H   0  0  0  0  0  0  0  0  0  0  0  0
   -1.5853    1.2821    4.3880 H   0  0  0  0  0  0  0  0  0  0  0  0
   -1.1330   -0.4085    3.7594 H   0  0  0  0  0  0  0  0  0  0  0  0
   -4.7836   -1.4766    1.6792 H   0  0  0  0  0  0  0  0  0  0  0  0
   -7.6382   -0.8056    2.1481 H   0  0  0  0  0  0  0  0  0  0  0  0
   -8.1926   -2.2942   -0.4960 H   0  0  0  0  0  0  0  0  0  0  0  0
   -9.0917   -2.4756    0.9903 H   0  0  0  0  0  0  0  0  0  0  0  0
   -7.9802   -4.4692    0.5168 H   0  0  0  0  0  0  0  0  0  0  0  0
   -5.2321   -3.7195    1.1926 H   0  0  0  0  0  0  0  0  0  0  0  0
   -5.6941   -3.2748   -0.4758 H   0  0  0  0  0  0  0  0  0  0  0  0
   -5.8493   -4.9894    0.1529 H   0  0  0  0  0  0  0  0  0  0  0  0
   -6.4624   -3.4106    2.9340 H   0  0  0  0  0  0  0  0  0  0  0  0
   -7.0553   -5.0067    2.4792 H   0  0  0  0  0  0  0  0  0  0  0  0
   -8.2819   -3.7113    2.8195 H   0  0  0  0  0  0  0  0  0  0  0  0
   -8.7965   -0.1862   -0.5215 H   0  0  0  0  0  0  0  0  0  0  0  0
  -11.2189    0.9857    0.2844 H   0  0  0  0  0  0  0  0  0  0  0  0
  -11.0230    1.9541    2.6330 H   0  0  0  0  0  0  0  0  0  0  0  0
  -10.3335    3.2894    1.8802 H   0  0  0  0  0  0  0  0  0  0  0  0
   -9.5214    1.6840   -1.1951 H   0  0  0  0  0  0  0  0  0  0  0  0
   -9.0460    3.1108   -0.1331 H   0  0  0  0  0  0  0  0  0  0  0  0
  -11.3102    3.9060   -0.1156 H   0  0  0  0  0  0  0  0  0  0  0  0
  -12.8239    2.8715   -2.1245 H   0  0  0  0  0  0  0  0  0  0  0  0
  -12.7768    2.0737   -0.5235 H   0  0  0  0  0  0  0  0  0  0  0  0
  -11.8105    1.4284   -1.8853 H   0  0  0  0  0  0  0  0  0  0  0  0
   -9.8162    3.3627   -2.7088 H   0  0  0  0  0  0  0  0  0  0  0  0
  -11.2995    4.4400   -2.7051 H   0  0  0  0  0  0  0  0  0  0  0  0
   -9.8540    4.8786   -1.6512 H   0  0  0  0  0  0  0  0  0  0  0  0
   -1.3535    1.8024   -3.7904 H   0  0  0  0  0  0  0  0  0  0  0  0
   -3.6474    1.8645   -4.8573 H   0  0  0  0  0  0  0  0  0  0  0  0
   -4.1783    0.6533   -3.6442 H   0  0  0  0  0  0  0  0  0  0  0  0
   -3.6451    2.2743   -3.1354 H   0  0  0  0  0  0  0  0  0  0  0  0
   -2.9458   -0.0924   -5.5447 H   0  0  0  0  0  0  0  0  0  0  0  0
   -1.3986   -0.7253   -4.9994 H   0  0  0  0  0  0  0  0  0  0  0  0
   -1.3767    0.7860   -5.9389 H   0  0  0  0  0  0  0  0  0  0  0  0
    8.1276   -3.7748    0.2586 H   0  0  0  0  0  0  0  0  0  0  0  0
   10.3182   -2.7996    1.7982 H   0  0  0  0  0  0  0  0  0  0  0  0
   10.4516   -3.8818    0.3791 H   0  0  0  0  0  0  0  0  0  0  0  0
    8.7649   -0.9192   -0.9731 H   0  0  0  0  0  0  0  0  0  0  0  0
    9.7743    0.7834   -2.1716 H   0  0  0  0  0  0  0  0  0  0  0  0
   11.2686   -0.1746   -2.2431 H   0  0  0  0  0  0  0  0  0  0  0  0
   12.0043    2.4230   -2.0205 H   0  0  0  0  0  0  0  0  0  0  0  0
   11.7596    3.5335    0.6403 H   0  0  0  0  0  0  0  0  0  0  0  0
   13.0654    3.9345   -0.5626 H   0  0  0  0  0  0  0  0  0  0  0  0
   13.1339    1.5721    1.4168 H   0  0  0  0  0  0  0  0  0  0  0  0
   14.1094    3.1158    1.4065 H   0  0  0  0  0  0  0  0  0  0  0  0
   15.0779    1.0263    0.3569 H   0  0  0  0  0  0  0  0  0  0  0  0
   15.2132    2.5586   -0.4035 H   0  0  0  0  0  0  0  0  0  0  0  0
  1  2  1  0
  2  3  1  0
  3  4  1  0
  4  5  1  0
  5  6  1  0
  6  7  2  0
  6  8  1  0
  8  9  1  0
  9 10  1  0
 10 11  1  0
 11 12  1  0
 12 13  1  0
 13 14  2  0
 13 15  1  0
 15 16  1  0
 16 17  1  0
 17 18  2  0
 17 19  1  0
 19 20  1  0
 20 21  1  0
 21 22  2  0
 21 23  1  0
 23 24  1  0
 24 25  1  0
 25 26  1  0
 25 27  1  0
 23 28  1  0
 28 29  1  0
 29 30  2  0
 29 31  1  0
 31 32  1  0
 32 33  1  0
 33 34  1  0
 33 35  1  0
 31 36  1  0
 36 37  1  0
 37 38  2  0
 37 39  1  0
 39 40  1  0
 39 41  1  0
 41 42  1  0
 42 43  1  0
 42 44  1  0
 19 45  1  0
 45 46  1  0
 45 47  1  0
  4 48  1  0
 48 49  2  0
 48 50  1  0
 50 51  1  0
 51 52  1  0
 52 53  2  0
 52 54  1  0
 54 55  1  0
 55 56  1  0
 56 57  2  0
 56 58  1  0
 58 59  1  0
 59 60  1  0
 60 61  1  0
 12  8  1  0
  1 62  1  0
  1 63  1  0
  1 64  1  0
  2 65  1  0
  3 66  1  0
  3 67  1  0
  4 68  1  6
  5 69  1  0
  8 70  1  6
  9 71  1  0
  9 72  1  0
 10 73  1  0
 10 74  1  0
 11 75  1  0
 11 76  1  0
 15 77  1  0
 15 78  1  0
 16 79  1  0
 19 80  1  6
 20 81  1  0
 23 82  1  6
 24 83  1  0
 24 84  1  0
 25 85  1  0
 26 86  1  0
 26 87  1  0
 26 88  1  0
 27 89  1  0
 27 90  1  0
 27 91  1  0
 28 92  1  0
 31 93  1  1
 32 94  1  0
 32 95  1  0
 33 96  1  0
 34 97  1  0
 34 98  1  0
 34 99  1  0
 35100  1  0
 35101  1  0
 35102  1  0
 36103  1  0
 39104  1  6
 40105  1  0
 40106  1  0
 41107  1  0
 41108  1  0
 42109  1  0
 43110  1  0
 43111  1  0
 43112  1  0
 44113  1  0
 44114  1  0
 44115  1  0
 45116  1  0
 46117  1  0
 46118  1  0
 46119  1  0
 47120  1  0
 47121  1  0
 47122  1  0
 50123  1  0
 51124  1  0
 51125  1  0
 54126  1  0
 55127  1  0
 55128  1  0
 58129  1  0
 59130  1  0
 59131  1  0
 60132  1  0
 60133  1  0
 61134  1  0
 61135  1  0
M  END
$$$$
[H]Oc1c([H])c(Oc2c([H])c([H])c([H])c([H])c2[H])c(C#N)c(C([H])([H])C([H])([H])[H])c1[H]
     RDKit          3D

 31 32  0  0  0  0  0  0  0  0999 V2000
    3.3790    0.2673    1.6729 C   0  0  0  0  0  0  0  0  0  0  0  0
    3.3701    0.6168    0.2260 C   0  0  0  0  0  0  0  0  0  0  0  0
    2.3009   -0.0236   -0.5692 C   0  0  0  0  0  0  0  0  0  0  0  0
    2.5330   -1.1118   -1.3732 C   0  0  0  0  0  0  0  0  0  0  0  0
    1.5096   -1.6882   -2.0913 C   0  0  0  0  0  0  0  0  0  0  0  0
    1.7450   -2.7975   -2.9117 O   0  0  0  0  0  0  0  0  0  0  0  0
    0.2539   -1.1827   -2.0097 C   0  0  0  0  0  0  0  0  0  0  0  0
   -0.0346   -0.0638   -1.1956 C   0  0  0  0  0  0  0  0  0  0  0  0
   -1.3245    0.3517   -1.1956 O   0  0  0  0  0  0  0  0  0  0  0  0
   -2.2924    0.4333   -0.2416 C   0  0  0  0  0  0  0  0  0  0  0  0
   -2.7244    1.5915    0.3566 C   0  0  0  0  0  0  0  0  0  0  0  0
   -3.7026    1.5955    1.3077 C   0  0  0  0  0  0  0  0  0  0  0  0
   -4.3302    0.4296    1.7383 C   0  0  0  0  0  0  0  0  0  0  0  0
   -3.9099   -0.7423    1.1495 C   0  0  0  0  0  0  0  0  0  0  0  0
   -2.9312   -0.7484    0.1975 C   0  0  0  0  0  0  0  0  0  0  0  0
    0.9928    0.4821   -0.5020 C   0  0  0  0  0  0  0  0  0  0  0  0
    0.7939    1.6365    0.3092 C   0  0  0  0  0  0  0  0  0  0  0  0
    0.6648    2.5907    0.9647 N   0  0  0  0  0  0  0  0  0  0  0  0
    3.3048   -0.8416    1.7852 H   0  0  0  0  0  0  0  0  0  0  0  0
    2.6929    0.8082    2.3200 H   0  0  0  0  0  0  0  0  0  0  0  0
    4.4142    0.5294    2.0494 H   0  0  0  0  0  0  0  0  0  0  0  0
    4.3430    0.2628   -0.2141 H   0  0  0  0  0  0  0  0  0  0  0  0
    3.3389    1.7207    0.1249 H   0  0  0  0  0  0  0  0  0  0  0  0
    3.5492   -1.4929   -1.4166 H   0  0  0  0  0  0  0  0  0  0  0  0
    0.9910   -3.2136   -3.4339 H   0  0  0  0  0  0  0  0  0  0  0  0
   -0.5406   -1.6447   -2.5782 H   0  0  0  0  0  0  0  0  0  0  0  0
   -2.2519    2.5376    0.0431 H   0  0  0  0  0  0  0  0  0  0  0  0
   -4.0231    2.5378    1.7633 H   0  0  0  0  0  0  0  0  0  0  0  0
   -5.0988    0.4947    2.4948 H   0  0  0  0  0  0  0  0  0  0  0  0
   -4.4058   -1.6534    1.4915 H   0  0  0  0  0  0  0  0  0  0  0  0
   -2.6070   -1.6816   -0.2616 H   0  0  0  0  0  0  0  0  0  0  0  0
  1  2  1  0
  2  3  1  0
  3  4  2  0
  4  5  1  0
  5  6  1  0
  5  7  2  0
  7  8  1  0
  8  9  1  0
  9 10  1  0
 10 11  2  0
 11 12  1  0
 12 13  2  0
 13 14  1  0
 14 15  2  0
  8 16  2  0
 16 17  1  0
 17 18  3  0
 16  3  1  0
 15 10  1  0
  1 19  1  0
  1 20  1  0
  1 21  1  0
  2 22  1  0
  2 23  1  0
  4 24  1  0
  6 25  1  0
  7 26  1  0
 11 27  1  0
 12 28  1  0
 13 29  1  0
 14 30  1  0
 15 31  1  0
M  END
$$$$
[H]C1=C(C#N)C(C([H])([H])[H])(C([H])([H])[H])c2c([H])c([H])c([H])c([H])c2N(C([H])([H])C([H])([H])OC([H])(C([H])([H])[H])C([H])([H])[H])C1([H])[H]
     RDKit          3D

 45 46  0  0  0  0  0  0  0  0999 V2000
    5.4258    0.4847   -0.2603 C   0  0  0  0  0  0  0  0  0  0  0  0
    4.5293   -0.6005    0.2884 C   0  0  0  0  0  0  0  0  0  0  0  0
    5.3694   -1.4912    1.1769 C   0  0  0  0  0  0  0  0  0  0  0  0
    3.4377   -0.0761    0.9800 O   0  0  0  0  0  0  0  0  0  0  0  0
    2.2475   -0.4239    0.3541 C   0  0  0  0  0  0  0  0  0  0  0  0
    1.0617    0.1351    1.1047 C   0  0  0  0  0  0  0  0  0  0  0  0
   -0.1889   -0.1967    0.4838 N   0  0  0  0  0  0  0  0  0  0  0  0
   -0.5885   -1.6031    0.5502 C   0  0  0  0  0  0  0  0  0  0  0  0
   -1.6584   -1.9535   -0.3650 C   0  0  0  0  0  0  0  0  0  0  0  0
   -2.7746   -1.3837   -0.7783 C   0  0  0  0  0  0  0  0  0  0  0  0
   -3.5703   -2.1353   -1.7429 C   0  0  0  0  0  0  0  0  0  0  0  0
   -4.2032   -2.7368   -2.5060 N   0  0  0  0  0  0  0  0  0  0  0  0
   -3.3165   -0.0666   -0.3731 C   0  0  0  0  0  0  0  0  0  0  0  0
   -4.6159    0.2455   -1.0521 C   0  0  0  0  0  0  0  0  0  0  0  0
   -3.6827   -0.1722    1.1045 C   0  0  0  0  0  0  0  0  0  0  0  0
   -2.2718    0.9536   -0.5541 C   0  0  0  0  0  0  0  0  0  0  0  0
   -2.7295    2.1060   -1.1796 C   0  0  0  0  0  0  0  0  0  0  0  0
   -1.8932    3.1668   -1.4377 C   0  0  0  0  0  0  0  0  0  0  0  0
   -0.5687    3.0708   -1.0608 C   0  0  0  0  0  0  0  0  0  0  0  0
   -0.1283    1.9156   -0.4394 C   0  0  0  0  0  0  0  0  0  0  0  0
   -0.9502    0.8280   -0.1648 C   0  0  0  0  0  0  0  0  0  0  0  0
    6.2795    0.6044    0.4314 H   0  0  0  0  0  0  0  0  0  0  0  0
    5.8536    0.1413   -1.2250 H   0  0  0  0  0  0  0  0  0  0  0  0
    4.8797    1.4447   -0.4223 H   0  0  0  0  0  0  0  0  0  0  0  0
    4.1212   -1.1682   -0.5994 H   0  0  0  0  0  0  0  0  0  0  0  0
    4.9224   -2.5047    1.3056 H   0  0  0  0  0  0  0  0  0  0  0  0
    5.4777   -0.9856    2.1533 H   0  0  0  0  0  0  0  0  0  0  0  0
    6.3875   -1.5586    0.7123 H   0  0  0  0  0  0  0  0  0  0  0  0
    2.2456   -0.1197   -0.7249 H   0  0  0  0  0  0  0  0  0  0  0  0
    2.2379   -1.5395    0.3306 H   0  0  0  0  0  0  0  0  0  0  0  0
    1.1730    1.0768    1.6069 H   0  0  0  0  0  0  0  0  0  0  0  0
    1.0657   -0.5584    2.0280 H   0  0  0  0  0  0  0  0  0  0  0  0
   -0.8157   -1.8817    1.6244 H   0  0  0  0  0  0  0  0  0  0  0  0
    0.3219   -2.1917    0.3086 H   0  0  0  0  0  0  0  0  0  0  0  0
   -1.5303   -2.9298   -0.8458 H   0  0  0  0  0  0  0  0  0  0  0  0
   -4.5968    0.4336   -2.1093 H   0  0  0  0  0  0  0  0  0  0  0  0
   -5.2581   -0.6736   -0.9019 H   0  0  0  0  0  0  0  0  0  0  0  0
   -5.1954    1.0476   -0.5576 H   0  0  0  0  0  0  0  0  0  0  0  0
   -2.9276   -0.6311    1.7265 H   0  0  0  0  0  0  0  0  0  0  0  0
   -4.5820   -0.8550    1.1130 H   0  0  0  0  0  0  0  0  0  0  0  0
   -3.9564    0.8129    1.5325 H   0  0  0  0  0  0  0  0  0  0  0  0
   -3.7622    2.1566   -1.4620 H   0  0  0  0  0  0  0  0  0  0  0  0
   -2.2852    4.0643   -1.9346 H   0  0  0  0  0  0  0  0  0  0  0  0
    0.1169    3.8892   -1.2505 H   0  0  0  0  0  0  0  0  0  0  0  0
    0.8962    1.8593   -0.1662 H   0  0  0  0  0  0  0  0  0  0  0  0
  1  2  1  0
  2  3  1  0
  2  4  1  0
  4  5  1  0
  5  6  1  0
  6  7  1  0
  7  8  1  0
  8  9  1  0
  9 10  2  0
 10 11  1  0
 11 12  3  0
 10 13  1  0
 13 14  1  0
 13 15  1  0
 13 16  1  0
 16 17  2  0
 17 18  1  0
 18 19  2  0
 19 20  1  0
 20 21  2  0
 21  7  1  0
 21 16  1  0
  1 22  1  0
  1 23  1  0
  1 24  1  0
  2 25  1  0
  3 26  1  0
  3 27  1  0
  3 28  1  0
  5 29  1  0
  5 30  1  0
  6 31  1  0
  6 32  1  0
  8 33  1  0
  8 34  1  0
  9 35  1  0
 14 36  1  0
 14 37  1  0
 14 38  1  0
 15 39  1  0
 15 40  1  0
 15 41  1  0
 17 42  1  0
 18 43  1  0
 19 44  1  0
 20 45  1  0
M  END
$$$$
[H]c1nn(C([H])([H])[H])c(C(=O)N2C([H])([H])C([H])([H])C([H])(N([H])C(=O)N([H])c3c([H])c([H])c(Br)c([H])c3[H])C2([H])[H])c1[H]
     RDKit          3D

 42 44  0  0  0  0  0  0  0  0999 V2000
   -5.4703    2.6493   -0.0478 C   0  0  0  0  0  0  0  0  0  0  0  0
   -5.4684    1.3570    0.6265 N   0  0  0  0  0  0  0  0  0  0  0  0
   -6.4138    0.9384    1.4426 N   0  0  0  0  0  0  0  0  0  0  0  0
   -6.1616   -0.2657    1.9133 C   0  0  0  0  0  0  0  0  0  0  0  0
   -4.9518   -0.6648    1.3579 C   0  0  0  0  0  0  0  0  0  0  0  0
   -4.5203    0.3619    0.5483 C   0  0  0  0  0  0  0  0  0  0  0  0
   -3.3380    0.4945   -0.2758 C   0  0  0  0  0  0  0  0  0  0  0  0
   -3.2180    1.5855   -0.9467 O   0  0  0  0  0  0  0  0  0  0  0  0
   -2.3407   -0.4844   -0.3768 N   0  0  0  0  0  0  0  0  0  0  0  0
   -2.1898   -1.7699    0.2382 C   0  0  0  0  0  0  0  0  0  0  0  0
   -0.7856   -2.2812   -0.1500 C   0  0  0  0  0  0  0  0  0  0  0  0
   -0.1067   -0.9551   -0.3956 C   0  0  0  0  0  0  0  0  0  0  0  0
   -1.1594   -0.2949   -1.2567 C   0  0  0  0  0  0  0  0  0  0  0  0
    1.1658   -1.0376   -0.9837 N   0  0  0  0  0  0  0  0  0  0  0  0
    2.2979   -0.4432   -0.2985 C   0  0  0  0  0  0  0  0  0  0  0  0
    2.1281    0.1322    0.8014 O   0  0  0  0  0  0  0  0  0  0  0  0
    3.5857   -0.5068   -0.8579 N   0  0  0  0  0  0  0  0  0  0  0  0
    4.7245    0.0571   -0.2741 C   0  0  0  0  0  0  0  0  0  0  0  0
    5.9679   -0.4928   -0.6286 C   0  0  0  0  0  0  0  0  0  0  0  0
    7.1331    0.0118   -0.1273 C   0  0  0  0  0  0  0  0  0  0  0  0
    7.1228    1.0763    0.7420 C   0  0  0  0  0  0  0  0  0  0  0  0
    8.7330    1.8061    1.4621 Br  0  0  0  0  0  0  0  0  0  0  0  0
    5.9274    1.6424    1.1128 C   0  0  0  0  0  0  0  0  0  0  0  0
    4.7565    1.1193    0.5954 C   0  0  0  0  0  0  0  0  0  0  0  0
   -4.5792    3.2462    0.2403 H   0  0  0  0  0  0  0  0  0  0  0  0
   -5.4709    2.5411   -1.1529 H   0  0  0  0  0  0  0  0  0  0  0  0
   -6.3377    3.2404    0.3080 H   0  0  0  0  0  0  0  0  0  0  0  0
   -6.7063   -0.9129    2.5959 H   0  0  0  0  0  0  0  0  0  0  0  0
   -4.4480   -1.5949    1.5231 H   0  0  0  0  0  0  0  0  0  0  0  0
   -2.1261   -1.6755    1.3642 H   0  0  0  0  0  0  0  0  0  0  0  0
   -2.9503   -2.5143   -0.0470 H   0  0  0  0  0  0  0  0  0  0  0  0
   -0.3356   -2.8523    0.6747 H   0  0  0  0  0  0  0  0  0  0  0  0
   -0.9112   -2.8866   -1.0564 H   0  0  0  0  0  0  0  0  0  0  0  0
   -0.1168   -0.4158    0.5833 H   0  0  0  0  0  0  0  0  0  0  0  0
   -1.3105   -0.7885   -2.2205 H   0  0  0  0  0  0  0  0  0  0  0  0
   -0.9347    0.7617   -1.3934 H   0  0  0  0  0  0  0  0  0  0  0  0
    1.3513   -1.4991   -1.8829 H   0  0  0  0  0  0  0  0  0  0  0  0
    3.6929   -1.0149   -1.7861 H   0  0  0  0  0  0  0  0  0  0  0  0
    5.9438   -1.3346   -1.3171 H   0  0  0  0  0  0  0  0  0  0  0  0
    8.0732   -0.4348   -0.4206 H   0  0  0  0  0  0  0  0  0  0  0  0
    5.9105    2.4931    1.8068 H   0  0  0  0  0  0  0  0  0  0  0  0
    3.8373    1.6062    0.8980 H   0  0  0  0  0  0  0  0  0  0  0  0
  1  2  1  0
  2  3  1  0
  3  4  2  0
  4  5  1  0
  5  6  2  0
  6  7  1  0
  7  8  2  0
  7  9  1  0
  9 10  1  0
 10 11  1  0
 11 12  1  0
 12 13  1  0
 12 14  1  0
 14 15  1  0
 15 16  2  0
 15 17  1  0
 17 18  1  0
 18 19  2  0
 19 20  1  0
 20 21  2  0
 21 22  1  0
 21 23  1  0
 23 24  2  0
  6  2  1  0
 13  9  1  0
 24 18  1  0
  1 25  1  0
  1 26  1  0
  1 27  1  0
  4 28  1  0
  5 29  1  0
 10 30  1  0
 10 31  1  0
 11 32  1  0
 11 33  1  0
 12 34  1  0
 13 35  1  0
 13 36  1  0
 14 37  1  0
 17 38  1  0
 19 39  1  0
 20 40  1  0
 23 41  1  0
 24 42  1  0
M  END
$$$$
[H]c1c(Cl)c([H])c(N(C([H])([H])[H])C([H])([H])[H])c([H])c1N([H])c1nc(N([H])[C@]2([H])C([H])([H])C([H])([H])[C@]([H])(C([H])([H])N3C([H])([H])C([H])([H])N(C([H])([H])[H])C([H])([H])C3([H])[H])C([H])([H])C2([H])[H])c2c([H])c([H])n([H])c2n1
     RDKit          3D

 72 76  0  0  0  0  0  0  0  0999 V2000
   -8.3723    0.8250    0.1998 C   0  0  0  0  0  0  0  0  0  0  0  0
   -8.5618   -0.5518    0.5549 N   0  0  0  0  0  0  0  0  0  0  0  0
   -9.9117   -1.0679    0.6527 C   0  0  0  0  0  0  0  0  0  0  0  0
   -7.4310   -1.3659    0.7978 C   0  0  0  0  0  0  0  0  0  0  0  0
   -6.1328   -0.8672    0.6879 C   0  0  0  0  0  0  0  0  0  0  0  0
   -5.0094   -1.6201    0.9143 C   0  0  0  0  0  0  0  0  0  0  0  0
   -3.7034   -1.1618    0.7922 N   0  0  0  0  0  0  0  0  0  0  0  0
   -3.2584   -0.0095    0.1272 C   0  0  0  0  0  0  0  0  0  0  0  0
   -1.9211    0.2984    0.1185 N   0  0  0  0  0  0  0  0  0  0  0  0
   -1.4029    1.3656   -0.4986 C   0  0  0  0  0  0  0  0  0  0  0  0
   -0.0096    1.6494   -0.4823 N   0  0  0  0  0  0  0  0  0  0  0  0
    0.9647    0.8086    0.1886 C   0  0  2  0  0  0  0  0  0  0  0  0
    2.3440    1.3851    0.0532 C   0  0  0  0  0  0  0  0  0  0  0  0
    3.2662    0.4171    0.7686 C   0  0  0  0  0  0  0  0  0  0  0  0
    3.4103   -0.8556   -0.0305 C   0  0  2  0  0  0  0  0  0  0  0  0
    4.5660   -0.6830   -0.9687 C   0  0  0  0  0  0  0  0  0  0  0  0
    5.8307   -0.4237   -0.4051 N   0  0  0  0  0  0  0  0  0  0  0  0
    6.8837   -0.2350   -1.3551 C   0  0  0  0  0  0  0  0  0  0  0  0
    8.1858    0.2043   -0.7893 C   0  0  0  0  0  0  0  0  0  0  0  0
    8.4832   -0.4023    0.4953 N   0  0  0  0  0  0  0  0  0  0  0  0
    9.6977    0.1839    1.0095 C   0  0  0  0  0  0  0  0  0  0  0  0
    7.3703   -0.2546    1.4173 C   0  0  0  0  0  0  0  0  0  0  0  0
    6.2061   -1.0445    0.8045 C   0  0  0  0  0  0  0  0  0  0  0  0
    2.1682   -1.2087   -0.7923 C   0  0  0  0  0  0  0  0  0  0  0  0
    0.9145   -0.5686   -0.3326 C   0  0  0  0  0  0  0  0  0  0  0  0
   -2.2391    2.2339   -1.1800 C   0  0  0  0  0  0  0  0  0  0  0  0
   -2.0174    3.4032   -1.9050 C   0  0  0  0  0  0  0  0  0  0  0  0
   -3.2639    3.8003   -2.3401 C   0  0  0  0  0  0  0  0  0  0  0  0
   -4.1890    2.9236   -1.9048 N   0  0  0  0  0  0  0  0  0  0  0  0
   -3.5822    1.9496   -1.1877 C   0  0  0  0  0  0  0  0  0  0  0  0
   -4.0172    0.8613   -0.5451 N   0  0  0  0  0  0  0  0  0  0  0  0
   -5.2705   -2.9594    1.2738 C   0  0  0  0  0  0  0  0  0  0  0  0
   -6.5253   -3.4794    1.3908 C   0  0  0  0  0  0  0  0  0  0  0  0
   -6.8209   -5.1529    1.8391 Cl  0  0  0  0  0  0  0  0  0  0  0  0
   -7.6283   -2.6803    1.1514 C   0  0  0  0  0  0  0  0  0  0  0  0
   -8.0803    1.3695    1.1247 H   0  0  0  0  0  0  0  0  0  0  0  0
   -9.3120    1.3129   -0.1480 H   0  0  0  0  0  0  0  0  0  0  0  0
   -7.6435    0.9798   -0.6297 H   0  0  0  0  0  0  0  0  0  0  0  0
  -10.0234   -2.0659    0.1565 H   0  0  0  0  0  0  0  0  0  0  0  0
  -10.1594   -1.1957    1.7322 H   0  0  0  0  0  0  0  0  0  0  0  0
  -10.6347   -0.3724    0.1752 H   0  0  0  0  0  0  0  0  0  0  0  0
   -6.0900    0.1827    0.4194 H   0  0  0  0  0  0  0  0  0  0  0  0
   -2.9540   -1.7599    1.2659 H   0  0  0  0  0  0  0  0  0  0  0  0
    0.3333    2.4983   -0.9735 H   0  0  0  0  0  0  0  0  0  0  0  0
    0.6853    0.8251    1.2613 H   0  0  0  0  0  0  0  0  0  0  0  0
    2.4450    2.3593    0.6158 H   0  0  0  0  0  0  0  0  0  0  0  0
    2.6911    1.4607   -0.9843 H   0  0  0  0  0  0  0  0  0  0  0  0
    2.8230    0.2158    1.7635 H   0  0  0  0  0  0  0  0  0  0  0  0
    4.2522    0.8913    0.9410 H   0  0  0  0  0  0  0  0  0  0  0  0
    3.6604   -1.6546    0.6841 H   0  0  0  0  0  0  0  0  0  0  0  0
    4.6546   -1.6262   -1.5885 H   0  0  0  0  0  0  0  0  0  0  0  0
    4.3709    0.1156   -1.7372 H   0  0  0  0  0  0  0  0  0  0  0  0
    6.5632    0.5075   -2.1309 H   0  0  0  0  0  0  0  0  0  0  0  0
    7.0230   -1.1969   -1.9072 H   0  0  0  0  0  0  0  0  0  0  0  0
    8.2901    1.3207   -0.6891 H   0  0  0  0  0  0  0  0  0  0  0  0
    9.0223   -0.1002   -1.4795 H   0  0  0  0  0  0  0  0  0  0  0  0
    9.5595    1.2486    1.2592 H   0  0  0  0  0  0  0  0  0  0  0  0
   10.4601    0.1116    0.2093 H   0  0  0  0  0  0  0  0  0  0  0  0
   10.0578   -0.3798    1.9062 H   0  0  0  0  0  0  0  0  0  0  0  0
    7.6694   -0.6568    2.3984 H   0  0  0  0  0  0  0  0  0  0  0  0
    7.1388    0.8401    1.4660 H   0  0  0  0  0  0  0  0  0  0  0  0
    5.3794   -1.1397    1.4950 H   0  0  0  0  0  0  0  0  0  0  0  0
    6.6435   -2.0593    0.5653 H   0  0  0  0  0  0  0  0  0  0  0  0
    2.3338   -0.9485   -1.8595 H   0  0  0  0  0  0  0  0  0  0  0  0
    2.0564   -2.3131   -0.7699 H   0  0  0  0  0  0  0  0  0  0  0  0
    0.4362   -1.2202    0.4591 H   0  0  0  0  0  0  0  0  0  0  0  0
    0.1465   -0.5977   -1.1615 H   0  0  0  0  0  0  0  0  0  0  0  0
   -1.0722    3.8591   -2.0644 H   0  0  0  0  0  0  0  0  0  0  0  0
   -3.4969    4.6726   -2.9390 H   0  0  0  0  0  0  0  0  0  0  0  0
   -5.2219    2.9227   -2.0528 H   0  0  0  0  0  0  0  0  0  0  0  0
   -4.4004   -3.5698    1.4576 H   0  0  0  0  0  0  0  0  0  0  0  0
   -8.6301   -3.0768    1.2389 H   0  0  0  0  0  0  0  0  0  0  0  0
  1  2  1  0
  2  3  1  0
  2  4  1  0
  4  5  2  0
  5  6  1  0
  6  7  1  0
  7  8  1  0
  8  9  2  0
  9 10  1  0
 10 11  1  0
 11 12  1  0
 12 13  1  0
 13 14  1  0
 14 15  1  0
 15 16  1  0
 16 17  1  0
 17 18  1  0
 18 19  1  0
 19 20  1  0
 20 21  1  0
 20 22  1  0
 22 23  1  0
 15 24  1  0
 24 25  1  0
 10 26  2  0
 26 27  1  0
 27 28  2  0
 28 29  1  0
 29 30  1  0
 30 31  2  0
  6 32  2  0
 32 33  1  0
 33 34  1  0
 33 35  2  0
 35  4  1  0
 31  8  1  0
 25 12  1  0
 30 26  1  0
 23 17  1  0
  1 36  1  0
  1 37  1  0
  1 38  1  0
  3 39  1  0
  3 40  1  0
  3 41  1  0
  5 42  1  0
  7 43  1  0
 11 44  1  0
 12 45  1  1
 13 46  1  0
 13 47  1  0
 14 48  1  0
 14 49  1  0
 15 50  1  1
 16 51  1  0
 16 52  1  0
 18 53  1  0
 18 54  1  0
 19 55  1  0
 19 56  1  0
 21 57  1  0
 21 58  1  0
 21 59  1  0
 22 60  1  0
 22 61  1  0
 23 62  1  0
 23 63  1  0
 24 64  1  0
 24 65  1  0
 25 66  1  0
 25 67  1  0
 27 68  1  0
 28 69  1  0
 29 70  1  0
 32 71  1  0
 35 72  1  0
M  END
$$$$
[H]Oc1c([H])c([H])c(-n2nc([H])c3c(F)c([H])c(O[H])c(C#N)c32)c([H])c1[H]
     RDKit          3D

 28 30  0  0  0  0  0  0  0  0999 V2000
    5.2430    0.1610    0.3223 O   0  0  0  0  0  0  0  0  0  0  0  0
    3.8672   -0.1236    0.3115 C   0  0  0  0  0  0  0  0  0  0  0  0
    3.1129   -0.0204    1.4611 C   0  0  0  0  0  0  0  0  0  0  0  0
    1.7713   -0.2952    1.4628 C   0  0  0  0  0  0  0  0  0  0  0  0
    1.1538   -0.6817    0.3044 C   0  0  0  0  0  0  0  0  0  0  0  0
    1.9168   -0.7814   -0.8375 C   0  0  0  0  0  0  0  0  0  0  0  0
    3.2600   -0.5121   -0.8654 C   0  0  0  0  0  0  0  0  0  0  0  0
   -0.2271   -0.9999    0.2270 N   0  0  0  0  0  0  0  0  0  0  0  0
   -0.6700   -2.2356    0.4350 N   0  0  0  0  0  0  0  0  0  0  0  0
   -1.9950   -2.2998    0.3112 C   0  0  0  0  0  0  0  0  0  0  0  0
   -2.4449   -1.0357    0.0052 C   0  0  0  0  0  0  0  0  0  0  0  0
   -3.6692   -0.4600   -0.2395 C   0  0  0  0  0  0  0  0  0  0  0  0
   -4.7708   -1.2363   -0.1939 F   0  0  0  0  0  0  0  0  0  0  0  0
   -3.8142    0.8632   -0.5262 C   0  0  0  0  0  0  0  0  0  0  0  0
   -2.6861    1.6514   -0.5715 C   0  0  0  0  0  0  0  0  0  0  0  0
   -2.7534    3.0171   -0.8588 O   0  0  0  0  0  0  0  0  0  0  0  0
   -1.4224    1.0951   -0.3266 C   0  0  0  0  0  0  0  0  0  0  0  0
   -0.2732    1.9778   -0.3891 C   0  0  0  0  0  0  0  0  0  0  0  0
    0.6414    2.7189   -0.4468 N   0  0  0  0  0  0  0  0  0  0  0  0
   -1.2946   -0.2454   -0.0382 C   0  0  0  0  0  0  0  0  0  0  0  0
    5.8927   -0.5869    0.5158 H   0  0  0  0  0  0  0  0  0  0  0  0
    3.6502    0.2936    2.3700 H   0  0  0  0  0  0  0  0  0  0  0  0
    1.2150   -0.2080    2.3600 H   0  0  0  0  0  0  0  0  0  0  0  0
    1.4645   -1.0887   -1.7941 H   0  0  0  0  0  0  0  0  0  0  0  0
    3.8497   -0.5986   -1.7899 H   0  0  0  0  0  0  0  0  0  0  0  0
   -2.6273   -3.1729    0.4252 H   0  0  0  0  0  0  0  0  0  0  0  0
   -4.7761    1.3281   -0.7210 H   0  0  0  0  0  0  0  0  0  0  0  0
   -3.6139    3.4759   -1.0419 H   0  0  0  0  0  0  0  0  0  0  0  0
  1  2  1  0
  2  3  2  0
  3  4  1  0
  4  5  2  0
  5  6  1  0
  6  7  2  0
  5  8  1  0
  8  9  1  0
  9 10  2  0
 10 11  1  0
 11 12  2  0
 12 13  1  0
 12 14  1  0
 14 15  2  0
 15 16  1  0
 15 17  1  0
 17 18  1  0
 18 19  3  0
 17 20  2  0
  7  2  1  0
 20  8  1  0
 20 11  1  0
  1 21  1  0
  3 22  1  0
  4 23  1  0
  6 24  1  0
  7 25  1  0
 10 26  1  0
 14 27  1  0
 16 28  1  0
M  END
$$$$
[H]c1c([H])c([H])c(C([H])([H])C([H])([H])N([H])C(=O)N([H])[C@]([H])(C(=O)N([H])C2(C(=O)C(=O)N([H])[C@@]([H])(c3c([H])c([H])c([H])c([H])c3[H])C([H])([H])[H])C([H])([H])C([H])([H])C([H])([H])C([H])([H])C2([H])[H])C([H])([H])C([H])(C([H])([H])[H])C([H])([H])[H])c([H])c1[H]
     RDKit          3D

 81 83  0  0  0  0  0  0  0  0999 V2000
   -2.3184   -4.8268    3.7589 C   0  0  0  0  0  0  0  0  0  0  0  0
   -2.3231   -3.2619    3.5386 C   0  0  0  0  0  0  0  0  0  0  0  0
   -3.7948   -2.9628    3.5185 C   0  0  0  0  0  0  0  0  0  0  0  0
   -1.5510   -3.0164    2.3022 C   0  0  0  0  0  0  0  0  0  0  0  0
   -1.2805   -1.6828    1.7758 C   0  0  2  0  0  0  0  0  0  0  0  0
   -2.4036   -0.9051    1.4159 N   0  0  0  0  0  0  0  0  0  0  0  0
   -2.4777    0.3393    0.7685 C   0  0  0  0  0  0  0  0  0  0  0  0
   -1.4751    0.9068    0.2922 O   0  0  0  0  0  0  0  0  0  0  0  0
   -3.7660    0.9873    0.6381 N   0  0  0  0  0  0  0  0  0  0  0  0
   -3.9380    2.0867   -0.2484 C   0  0  0  0  0  0  0  0  0  0  0  0
   -5.4126    2.5532   -0.1905 C   0  0  0  0  0  0  0  0  0  0  0  0
   -5.5743    3.6670   -1.1268 C   0  0  0  0  0  0  0  0  0  0  0  0
   -5.3667    4.9658   -0.7278 C   0  0  0  0  0  0  0  0  0  0  0  0
   -5.5567    6.0374   -1.6258 C   0  0  0  0  0  0  0  0  0  0  0  0
   -5.9557    5.7911   -2.9205 C   0  0  0  0  0  0  0  0  0  0  0  0
   -6.1657    4.4959   -3.3301 C   0  0  0  0  0  0  0  0  0  0  0  0
   -5.9771    3.4597   -2.4463 C   0  0  0  0  0  0  0  0  0  0  0  0
   -0.2679   -1.7812    0.6184 C   0  0  0  0  0  0  0  0  0  0  0  0
   -0.5230   -1.3360   -0.4805 O   0  0  0  0  0  0  0  0  0  0  0  0
    0.9823   -2.3957    0.8922 N   0  0  0  0  0  0  0  0  0  0  0  0
    2.0794   -2.4593   -0.1036 C   0  0  0  0  0  0  0  0  0  0  0  0
    1.5378   -3.0178   -1.3519 C   0  0  0  0  0  0  0  0  0  0  0  0
    2.3560   -4.1929   -1.8175 C   0  0  0  0  0  0  0  0  0  0  0  0
    2.2136   -5.2814   -0.7619 C   0  0  0  0  0  0  0  0  0  0  0  0
    2.6412   -4.7879    0.5954 C   0  0  0  0  0  0  0  0  0  0  0  0
    3.1270   -3.3661    0.5438 C   0  0  0  0  0  0  0  0  0  0  0  0
    2.6101   -1.1126   -0.2354 C   0  0  0  0  0  0  0  0  0  0  0  0
    1.9148   -0.2069    0.4313 O   0  0  0  0  0  0  0  0  0  0  0  0
    3.7331   -0.5571   -0.9268 C   0  0  0  0  0  0  0  0  0  0  0  0
    4.4138   -1.2257   -1.7171 O   0  0  0  0  0  0  0  0  0  0  0  0
    4.0767    0.7965   -0.6869 N   0  0  0  0  0  0  0  0  0  0  0  0
    5.1757    1.5153   -1.2729 C   0  0  2  0  0  0  0  0  0  0  0  0
    6.3288    1.5650   -0.2585 C   0  0  0  0  0  0  0  0  0  0  0  0
    4.8472    2.9044   -1.6201 C   0  0  0  0  0  0  0  0  0  0  0  0
    3.6293    3.1977   -2.1946 C   0  0  0  0  0  0  0  0  0  0  0  0
    3.3393    4.5039   -2.4946 C   0  0  0  0  0  0  0  0  0  0  0  0
    4.2651    5.5101   -2.2206 C   0  0  0  0  0  0  0  0  0  0  0  0
    5.4784    5.2131   -1.6483 C   0  0  0  0  0  0  0  0  0  0  0  0
    5.7711    3.8982   -1.3465 C   0  0  0  0  0  0  0  0  0  0  0  0
   -3.0179   -5.2075    2.9959 H   0  0  0  0  0  0  0  0  0  0  0  0
   -2.7691   -4.9589    4.7564 H   0  0  0  0  0  0  0  0  0  0  0  0
   -1.2987   -5.1995    3.6991 H   0  0  0  0  0  0  0  0  0  0  0  0
   -1.8840   -2.8179    4.4610 H   0  0  0  0  0  0  0  0  0  0  0  0
   -3.9979   -1.9625    3.8747 H   0  0  0  0  0  0  0  0  0  0  0  0
   -4.2727   -3.1998    2.5225 H   0  0  0  0  0  0  0  0  0  0  0  0
   -4.3413   -3.6584    4.2328 H   0  0  0  0  0  0  0  0  0  0  0  0
   -2.0896   -3.6436    1.4890 H   0  0  0  0  0  0  0  0  0  0  0  0
   -0.5780   -3.6298    2.3798 H   0  0  0  0  0  0  0  0  0  0  0  0
   -0.6885   -1.0399    2.5395 H   0  0  0  0  0  0  0  0  0  0  0  0
   -3.3580   -1.3290    1.6575 H   0  0  0  0  0  0  0  0  0  0  0  0
   -4.5378    0.6128    1.2133 H   0  0  0  0  0  0  0  0  0  0  0  0
   -3.3151    2.9684    0.0410 H   0  0  0  0  0  0  0  0  0  0  0  0
   -3.7085    1.8632   -1.3014 H   0  0  0  0  0  0  0  0  0  0  0  0
   -6.0799    1.6907   -0.4028 H   0  0  0  0  0  0  0  0  0  0  0  0
   -5.6306    2.8405    0.8574 H   0  0  0  0  0  0  0  0  0  0  0  0
   -5.0572    5.1278    0.2885 H   0  0  0  0  0  0  0  0  0  0  0  0
   -5.3810    7.0298   -1.2530 H   0  0  0  0  0  0  0  0  0  0  0  0
   -6.0942    6.6595   -3.5840 H   0  0  0  0  0  0  0  0  0  0  0  0
   -6.4804    4.3211   -4.3460 H   0  0  0  0  0  0  0  0  0  0  0  0
   -6.1299    2.4099   -2.7227 H   0  0  0  0  0  0  0  0  0  0  0  0
    1.1496   -2.8210    1.8399 H   0  0  0  0  0  0  0  0  0  0  0  0
    1.5372   -2.1973   -2.1190 H   0  0  0  0  0  0  0  0  0  0  0  0
    0.5072   -3.4089   -1.1928 H   0  0  0  0  0  0  0  0  0  0  0  0
    3.3950   -3.8807   -1.9250 H   0  0  0  0  0  0  0  0  0  0  0  0
    1.9467   -4.6197   -2.7690 H   0  0  0  0  0  0  0  0  0  0  0  0
    2.9236   -6.0913   -1.0782 H   0  0  0  0  0  0  0  0  0  0  0  0
    1.1740   -5.6466   -0.7809 H   0  0  0  0  0  0  0  0  0  0  0  0
    3.3556   -5.4940    1.0343 H   0  0  0  0  0  0  0  0  0  0  0  0
    1.7243   -4.7915    1.2215 H   0  0  0  0  0  0  0  0  0  0  0  0
    3.4510   -2.9470    1.4906 H   0  0  0  0  0  0  0  0  0  0  0  0
    4.0068   -3.3407   -0.1282 H   0  0  0  0  0  0  0  0  0  0  0  0
    3.4857    1.3509   -0.0138 H   0  0  0  0  0  0  0  0  0  0  0  0
    5.5664    0.9773   -2.1308 H   0  0  0  0  0  0  0  0  0  0  0  0
    6.3273    0.5897    0.3003 H   0  0  0  0  0  0  0  0  0  0  0  0
    6.1980    2.3702    0.4861 H   0  0  0  0  0  0  0  0  0  0  0  0
    7.2810    1.6652   -0.7664 H   0  0  0  0  0  0  0  0  0  0  0  0
    2.9194    2.3883   -2.3957 H   0  0  0  0  0  0  0  0  0  0  0  0
    2.3858    4.7682   -2.9535 H   0  0  0  0  0  0  0  0  0  0  0  0
    4.0432    6.5327   -2.4484 H   0  0  0  0  0  0  0  0  0  0  0  0
    6.1885    6.0200   -1.4406 H   0  0  0  0  0  0  0  0  0  0  0  0
    6.7509    3.6808   -0.8948 H   0  0  0  0  0  0  0  0  0  0  0  0
  1  2  1  0
  2  3  1  0
  2  4  1  0
  4  5  1  0
  5  6  1  0
  6  7  1  0
  7  8  2  0
  7  9  1  0
  9 10  1  0
 10 11  1  0
 11 12  1  0
 12 13  2  0
 13 14  1  0
 14 15  2  0
 15 16  1  0
 16 17  2  0
  5 18  1  0
 18 19  2  0
 18 20  1  0
 20 21  1  0
 21 22  1  0
 22 23  1  0
 23 24  1  0
 24 25  1  0
 25 26  1  0
 21 27  1  0
 27 28  2  0
 27 29  1  0
 29 30  2  0
 29 31  1  0
 31 32  1  0
 32 33  1  0
 32 34  1  0
 34 35  2  0
 35 36  1  0
 36 37  2  0
 37 38  1  0
 38 39  2  0
 17 12  1  0
 26 21  1  0
 39 34  1  0
  1 40  1  0
  1 41  1  0
  1 42  1  0
  2 43  1  0
  3 44  1  0
  3 45  1  0
  3 46  1  0
  4 47  1  0
  4 48  1  0
  5 49  1  1
  6 50  1  0
  9 51  1  0
 10 52  1  0
 10 53  1  0
 11 54  1  0
 11 55  1  0
 13 56  1  0
 14 57  1  0
 15 58  1  0
 16 59  1  0
 17 60  1  0
 20 61  1  0
 22 62  1  0
 22 63  1  0
 23 64  1  0
 23 65  1  0
 24 66  1  0
 24 67  1  0
 25 68  1  0
 25 69  1  0
 26 70  1  0
 26 71  1  0
 31 72  1  0
 32 73  1  6
 33 74  1  0
 33 75  1  0
 33 76  1  0
 35 77  1  0
 36 78  1  0
 37 79  1  0
 38 80  1  0
 39 81  1  0
M  END
$$$$
[H]c1nc(Oc2c([H])c([H])c(N([H])/C(=C3\C(=O)N([H])c4c([H])c(C(=O)OC([H])([H])[H])c([H])c([H])c43)c3c([H])c([H])c([H])c([H])c3[H])c([H])c2[H])c([H])c(N([H])C([H])([H])[H])n1
     RDKit          3D

 60 64  0  0  0  0  0  0  0  0999 V2000
    9.0974   -1.9000    1.0810 C   0  0  0  0  0  0  0  0  0  0  0  0
    7.8176   -1.3816    0.7795 O   0  0  0  0  0  0  0  0  0  0  0  0
    6.8293   -2.0508    0.1213 C   0  0  0  0  0  0  0  0  0  0  0  0
    7.0392   -3.2269   -0.2631 O   0  0  0  0  0  0  0  0  0  0  0  0
    5.5199   -1.4444   -0.1569 C   0  0  0  0  0  0  0  0  0  0  0  0
    5.2093   -0.1722    0.2262 C   0  0  0  0  0  0  0  0  0  0  0  0
    3.9915    0.4240   -0.0210 C   0  0  0  0  0  0  0  0  0  0  0  0
    3.0283   -0.3125   -0.7007 C   0  0  0  0  0  0  0  0  0  0  0  0
    1.6574    0.0212   -1.0847 C   0  0  0  0  0  0  0  0  0  0  0  0
    1.0219    1.1757   -1.0269 C   0  0  0  0  0  0  0  0  0  0  0  0
   -0.3575    1.1857   -1.4640 N   0  0  0  0  0  0  0  0  0  0  0  0
   -1.3752    0.8565   -0.5274 C   0  0  0  0  0  0  0  0  0  0  0  0
   -1.1417    0.4558    0.7672 C   0  0  0  0  0  0  0  0  0  0  0  0
   -2.1567    0.1453    1.6431 C   0  0  0  0  0  0  0  0  0  0  0  0
   -3.4687    0.2293    1.2380 C   0  0  0  0  0  0  0  0  0  0  0  0
   -4.4834   -0.0838    2.1226 O   0  0  0  0  0  0  0  0  0  0  0  0
   -5.8073   -0.0206    1.7956 C   0  0  0  0  0  0  0  0  0  0  0  0
   -6.4101   -1.0814    1.1676 C   0  0  0  0  0  0  0  0  0  0  0  0
   -7.7469   -1.0175    0.8375 C   0  0  0  0  0  0  0  0  0  0  0  0
   -8.3789   -2.1136    0.1857 N   0  0  0  0  0  0  0  0  0  0  0  0
   -7.6034   -3.2963   -0.1283 C   0  0  0  0  0  0  0  0  0  0  0  0
   -8.4211    0.1010    1.1488 N   0  0  0  0  0  0  0  0  0  0  0  0
   -7.8102    1.1276    1.7639 C   0  0  0  0  0  0  0  0  0  0  0  0
   -6.5087    1.0816    2.0924 N   0  0  0  0  0  0  0  0  0  0  0  0
   -3.7457    0.6292   -0.0587 C   0  0  0  0  0  0  0  0  0  0  0  0
   -2.7130    0.9329   -0.9113 C   0  0  0  0  0  0  0  0  0  0  0  0
    1.6824    2.4083   -0.7338 C   0  0  0  0  0  0  0  0  0  0  0  0
    2.6259    2.8878   -1.6551 C   0  0  0  0  0  0  0  0  0  0  0  0
    3.2722    4.0746   -1.4723 C   0  0  0  0  0  0  0  0  0  0  0  0
    3.0091    4.8432   -0.3597 C   0  0  0  0  0  0  0  0  0  0  0  0
    2.0878    4.3891    0.5531 C   0  0  0  0  0  0  0  0  0  0  0  0
    1.4276    3.1743    0.3641 C   0  0  0  0  0  0  0  0  0  0  0  0
    1.1283   -1.1945   -1.7491 C   0  0  0  0  0  0  0  0  0  0  0  0
   -0.0261   -1.2835   -2.2106 O   0  0  0  0  0  0  0  0  0  0  0  0
    2.1627   -2.1586   -1.7392 N   0  0  0  0  0  0  0  0  0  0  0  0
    3.3034   -1.6068   -1.1032 C   0  0  0  0  0  0  0  0  0  0  0  0
    4.5613   -2.1494   -0.8182 C   0  0  0  0  0  0  0  0  0  0  0  0
    9.0299   -2.7416    1.8216 H   0  0  0  0  0  0  0  0  0  0  0  0
    9.6226   -1.0821    1.6552 H   0  0  0  0  0  0  0  0  0  0  0  0
    9.7048   -2.1387    0.2072 H   0  0  0  0  0  0  0  0  0  0  0  0
    5.9703    0.4012    0.7579 H   0  0  0  0  0  0  0  0  0  0  0  0
    3.8253    1.4016    0.3572 H   0  0  0  0  0  0  0  0  0  0  0  0
   -0.5587    1.4309   -2.4385 H   0  0  0  0  0  0  0  0  0  0  0  0
   -0.1099    0.3892    1.0873 H   0  0  0  0  0  0  0  0  0  0  0  0
   -1.9751   -0.1722    2.6667 H   0  0  0  0  0  0  0  0  0  0  0  0
   -5.8283   -1.9687    0.9333 H   0  0  0  0  0  0  0  0  0  0  0  0
   -9.3898   -2.0220   -0.0440 H   0  0  0  0  0  0  0  0  0  0  0  0
   -8.1989   -3.8491   -0.9054 H   0  0  0  0  0  0  0  0  0  0  0  0
   -6.6286   -3.0768   -0.5787 H   0  0  0  0  0  0  0  0  0  0  0  0
   -7.4942   -3.9799    0.7483 H   0  0  0  0  0  0  0  0  0  0  0  0
   -8.4167    1.9903    1.9808 H   0  0  0  0  0  0  0  0  0  0  0  0
   -4.7824    0.6910   -0.3637 H   0  0  0  0  0  0  0  0  0  0  0  0
   -2.9157    1.2510   -1.9407 H   0  0  0  0  0  0  0  0  0  0  0  0
    2.8474    2.3034   -2.5347 H   0  0  0  0  0  0  0  0  0  0  0  0
    4.0025    4.4554   -2.1759 H   0  0  0  0  0  0  0  0  0  0  0  0
    3.5201    5.8010   -0.1961 H   0  0  0  0  0  0  0  0  0  0  0  0
    1.8685    4.9786    1.4312 H   0  0  0  0  0  0  0  0  0  0  0  0
    0.7321    2.8919    1.1127 H   0  0  0  0  0  0  0  0  0  0  0  0
    2.1068   -3.1253   -2.1344 H   0  0  0  0  0  0  0  0  0  0  0  0
    4.7505   -3.1772   -1.1511 H   0  0  0  0  0  0  0  0  0  0  0  0
  1  2  1  0
  2  3  1  0
  3  4  2  0
  3  5  1  0
  5  6  2  0
  6  7  1  0
  7  8  2  0
  8  9  1  0
  9 10  2  0
 10 11  1  0
 11 12  1  0
 12 13  2  0
 13 14  1  0
 14 15  2  0
 15 16  1  0
 16 17  1  0
 17 18  2  0
 18 19  1  0
 19 20  1  0
 20 21  1  0
 19 22  2  0
 22 23  1  0
 23 24  2  0
 15 25  1  0
 25 26  2  0
 10 27  1  0
 27 28  2  0
 28 29  1  0
 29 30  2  0
 30 31  1  0
 31 32  2  0
  9 33  1  0
 33 34  2  0
 33 35  1  0
 35 36  1  0
 36 37  2  0
 37  5  1  0
 36  8  1  0
 26 12  1  0
 32 27  1  0
 24 17  1  0
  1 38  1  0
  1 39  1  0
  1 40  1  0
  6 41  1  0
  7 42  1  0
 11 43  1  0
 13 44  1  0
 14 45  1  0
 18 46  1  0
 20 47  1  0
 21 48  1  0
 21 49  1  0
 21 50  1  0
 23 51  1  0
 25 52  1  0
 26 53  1  0
 28 54  1  0
 29 55  1  0
 30 56  1  0
 31 57  1  0
 32 58  1  0
 35 59  1  0
 37 60  1  0
M  END
$$$$
[H]c1nc2c(c(Oc3c([H])c([H])c4c(c3[H])[C@]3([H])[C@]([H])(O4)[C@@]3([H])N([H])C(=O)c3c([H])c(N([H])C(=O)c4c([H])c(C([H])([H])[H])c(OC([H])([H])[H])c(C([H])([H])[H])c4[H])c([H])c([H])c3C([H])([H])[H])c1[H])C([H])([H])C([H])([H])C(=O)N2[H]
     RDKit          3D

 77 83  0  0  0  0  0  0  0  0999 V2000
   11.8789    1.5470    0.6716 C   0  0  0  0  0  0  0  0  0  0  0  0
   10.7402    2.2661    1.0737 O   0  0  0  0  0  0  0  0  0  0  0  0
    9.4825    1.9819    0.5907 C   0  0  0  0  0  0  0  0  0  0  0  0
    8.7139    1.0461    1.2976 C   0  0  0  0  0  0  0  0  0  0  0  0
    9.2906    0.4367    2.5148 C   0  0  0  0  0  0  0  0  0  0  0  0
    7.4485    0.7068    0.8809 C   0  0  0  0  0  0  0  0  0  0  0  0
    6.8938    1.2857   -0.2576 C   0  0  0  0  0  0  0  0  0  0  0  0
    7.6513    2.1925   -0.9313 C   0  0  0  0  0  0  0  0  0  0  0  0
    8.9311    2.5559   -0.5375 C   0  0  0  0  0  0  0  0  0  0  0  0
    9.7474    3.5410   -1.2864 C   0  0  0  0  0  0  0  0  0  0  0  0
    5.5368    0.8615   -0.6727 C   0  0  0  0  0  0  0  0  0  0  0  0
    4.6076    1.6605   -0.8010 O   0  0  0  0  0  0  0  0  0  0  0  0
    5.3887   -0.5155   -0.9085 N   0  0  0  0  0  0  0  0  0  0  0  0
    4.1504   -1.0712   -1.2970 C   0  0  0  0  0  0  0  0  0  0  0  0
    4.2223   -2.1627   -2.1741 C   0  0  0  0  0  0  0  0  0  0  0  0
    3.0909   -2.7796   -2.5575 C   0  0  0  0  0  0  0  0  0  0  0  0
    1.8374   -2.3616   -2.1056 C   0  0  0  0  0  0  0  0  0  0  0  0
    0.6911   -3.0757   -2.6577 C   0  0  0  0  0  0  0  0  0  0  0  0
    1.7163   -1.3037   -1.2478 C   0  0  0  0  0  0  0  0  0  0  0  0
    2.9140   -0.6748   -0.8631 C   0  0  0  0  0  0  0  0  0  0  0  0
    0.5118   -0.8354   -0.6151 C   0  0  0  0  0  0  0  0  0  0  0  0
    0.2682    0.3920   -0.6003 O   0  0  0  0  0  0  0  0  0  0  0  0
   -0.4376   -1.6914    0.0105 N   0  0  0  0  0  0  0  0  0  0  0  0
   -1.6750   -1.2201    0.6354 C   0  0  2  0  0  0  0  0  0  0  0  0
   -2.2333   -2.0451    1.7048 C   0  0  1  0  0  0  0  0  0  0  0  0
   -3.1807   -1.5248    2.5791 O   0  0  0  0  0  0  0  0  0  0  0  0
   -4.3762   -1.3703    1.9476 C   0  0  0  0  0  0  0  0  0  0  0  0
   -5.6319   -1.0082    2.4711 C   0  0  0  0  0  0  0  0  0  0  0  0
   -6.7365   -0.9005    1.6640 C   0  0  0  0  0  0  0  0  0  0  0  0
   -6.6336   -1.1468    0.3176 C   0  0  0  0  0  0  0  0  0  0  0  0
   -7.6900   -1.0599   -0.5348 O   0  0  0  0  0  0  0  0  0  0  0  0
   -8.9517   -0.6262   -0.2843 C   0  0  0  0  0  0  0  0  0  0  0  0
   -9.9933   -1.5898   -0.3471 C   0  0  0  0  0  0  0  0  0  0  0  0
  -11.2741   -1.1965   -0.1101 C   0  0  0  0  0  0  0  0  0  0  0  0
  -11.6283    0.0626    0.1853 N   0  0  0  0  0  0  0  0  0  0  0  0
  -10.6704    1.0243    0.2575 C   0  0  0  0  0  0  0  0  0  0  0  0
  -11.0740    2.3613    0.5233 N   0  0  0  0  0  0  0  0  0  0  0  0
  -10.0598    3.3552    0.5401 C   0  0  0  0  0  0  0  0  0  0  0  0
  -10.1402    4.3972    1.2335 O   0  0  0  0  0  0  0  0  0  0  0  0
   -8.8815    3.0483   -0.3474 C   0  0  0  0  0  0  0  0  0  0  0  0
   -8.2708    1.7130    0.0806 C   0  0  0  0  0  0  0  0  0  0  0  0
   -9.3430    0.6560    0.0197 C   0  0  0  0  0  0  0  0  0  0  0  0
   -5.3676   -1.5083   -0.1843 C   0  0  0  0  0  0  0  0  0  0  0  0
   -4.2440   -1.6235    0.6108 C   0  0  0  0  0  0  0  0  0  0  0  0
   -2.8698   -2.0269    0.3049 C   0  0  1  0  0  0  0  0  0  0  0  0
   12.2637    1.9346   -0.2807 H   0  0  0  0  0  0  0  0  0  0  0  0
   12.7223    1.6696    1.4075 H   0  0  0  0  0  0  0  0  0  0  0  0
   11.6521    0.4591    0.5252 H   0  0  0  0  0  0  0  0  0  0  0  0
    9.6861    1.2957    3.1358 H   0  0  0  0  0  0  0  0  0  0  0  0
    8.5201   -0.0582    3.1285 H   0  0  0  0  0  0  0  0  0  0  0  0
   10.1349   -0.2144    2.2502 H   0  0  0  0  0  0  0  0  0  0  0  0
    6.8400   -0.0177    1.4191 H   0  0  0  0  0  0  0  0  0  0  0  0
    7.2299    2.6476   -1.8157 H   0  0  0  0  0  0  0  0  0  0  0  0
    9.0841    4.2354   -1.8473 H   0  0  0  0  0  0  0  0  0  0  0  0
   10.4345    4.1016   -0.6173 H   0  0  0  0  0  0  0  0  0  0  0  0
   10.3258    2.9793   -2.0734 H   0  0  0  0  0  0  0  0  0  0  0  0
    6.2025   -1.1938   -0.8031 H   0  0  0  0  0  0  0  0  0  0  0  0
    5.1835   -2.5002   -2.5364 H   0  0  0  0  0  0  0  0  0  0  0  0
    3.1413   -3.6330   -3.2423 H   0  0  0  0  0  0  0  0  0  0  0  0
   -0.2426   -2.8178   -2.1725 H   0  0  0  0  0  0  0  0  0  0  0  0
    0.5667   -2.7587   -3.7387 H   0  0  0  0  0  0  0  0  0  0  0  0
    0.8385   -4.1804   -2.5996 H   0  0  0  0  0  0  0  0  0  0  0  0
    2.8696    0.1691   -0.1720 H   0  0  0  0  0  0  0  0  0  0  0  0
   -0.2068   -2.7153    0.0504 H   0  0  0  0  0  0  0  0  0  0  0  0
   -1.7997   -0.1445    0.6416 H   0  0  0  0  0  0  0  0  0  0  0  0
   -1.7860   -3.0282    1.9880 H   0  0  0  0  0  0  0  0  0  0  0  0
   -5.7729   -0.8058    3.5344 H   0  0  0  0  0  0  0  0  0  0  0  0
   -7.7090   -0.6145    2.0990 H   0  0  0  0  0  0  0  0  0  0  0  0
   -9.7075   -2.6094   -0.5815 H   0  0  0  0  0  0  0  0  0  0  0  0
  -12.0586   -1.9435   -0.1617 H   0  0  0  0  0  0  0  0  0  0  0  0
  -12.0705    2.6153    0.7063 H   0  0  0  0  0  0  0  0  0  0  0  0
   -8.1141    3.8270   -0.3084 H   0  0  0  0  0  0  0  0  0  0  0  0
   -9.2774    2.9024   -1.3643 H   0  0  0  0  0  0  0  0  0  0  0  0
   -7.5181    1.4422   -0.6737 H   0  0  0  0  0  0  0  0  0  0  0  0
   -7.8185    1.8052    1.0770 H   0  0  0  0  0  0  0  0  0  0  0  0
   -5.2717   -1.7017   -1.2455 H   0  0  0  0  0  0  0  0  0  0  0  0
   -2.6929   -2.9200   -0.3368 H   0  0  0  0  0  0  0  0  0  0  0  0
  1  2  1  0
  2  3  1  0
  3  4  2  0
  4  5  1  0
  4  6  1  0
  6  7  2  0
  7  8  1  0
  8  9  2  0
  9 10  1  0
  7 11  1  0
 11 12  2  0
 11 13  1  0
 13 14  1  0
 14 15  2  0
 15 16  1  0
 16 17  2  0
 17 18  1  0
 17 19  1  0
 19 20  2  0
 19 21  1  0
 21 22  2  0
 21 23  1  0
 23 24  1  0
 24 25  1  0
 25 26  1  0
 26 27  1  0
 27 28  2  0
 28 29  1  0
 29 30  2  0
 30 31  1  0
 31 32  1  0
 32 33  2  0
 33 34  1  0
 34 35  2  0
 35 36  1  0
 36 37  1  0
 37 38  1  0
 38 39  2  0
 38 40  1  0
 40 41  1  0
 41 42  1  0
 30 43  1  0
 43 44  2  0
 44 45  1  0
  9  3  1  0
 20 14  1  0
 45 24  1  0
 45 25  1  0
 44 27  1  0
 42 32  1  0
 42 36  2  0
  1 46  1  0
  1 47  1  0
  1 48  1  0
  5 49  1  0
  5 50  1  0
  5 51  1  0
  6 52  1  0
  8 53  1  0
 10 54  1  0
 10 55  1  0
 10 56  1  0
 13 57  1  0
 15 58  1  0
 16 59  1  0
 18 60  1  0
 18 61  1  0
 18 62  1  0
 20 63  1  0
 23 64  1  0
 24 65  1  1
 25 66  1  1
 28 67  1  0
 29 68  1  0
 33 69  1  0
 34 70  1  0
 37 71  1  0
 40 72  1  0
 40 73  1  0
 41 74  1  0
 41 75  1  0
 43 76  1  0
 45 77  1  6
M  END
$$$$
[H]c1c([H])c([H])c2c(c1[H])c1c3c(c4c5c([H])c([H])c([H])c([H])c5n5c4c1n2[C@@]1([H])O[C@]5(C([H])([H])[H])[C@@]([H])(OC([H])([H])[H])[C@@]([H])(N([H])C([H])([H])C([H])([H])[H])C1([H])[H])C([H])([H])N([H])C3=O
     RDKit          3D

 64 71  0  0  0  0  0  0  0  0999 V2000
   -4.1047    2.3598    1.1663 C   0  0  0  0  0  0  0  0  0  0  0  0
   -4.2462    0.9048    1.3938 C   0  0  0  0  0  0  0  0  0  0  0  0
   -3.1881    0.0706    1.0802 N   0  0  0  0  0  0  0  0  0  0  0  0
   -2.7923   -0.2031   -0.2622 C   0  0  1  0  0  0  0  0  0  0  0  0
   -2.2542    0.9753   -0.9346 C   0  0  0  0  0  0  0  0  0  0  0  0
   -1.0715    0.7633   -1.8000 C   0  0  2  0  0  0  0  0  0  0  0  0
   -0.7964   -0.4741   -2.1715 O   0  0  0  0  0  0  0  0  0  0  0  0
   -0.8531   -1.5270   -1.2694 C   0  0  2  0  0  0  0  0  0  0  0  0
   -0.9768   -2.7121   -2.2556 C   0  0  0  0  0  0  0  0  0  0  0  0
   -2.0248   -1.5007   -0.3856 C   0  0  1  0  0  0  0  0  0  0  0  0
   -1.8494   -1.9305    0.9237 O   0  0  0  0  0  0  0  0  0  0  0  0
   -2.7240   -3.0058    1.2225 C   0  0  0  0  0  0  0  0  0  0  0  0
    0.4139   -1.5397   -0.5628 N   0  0  0  0  0  0  0  0  0  0  0  0
    1.0381   -2.6027   -0.0393 C   0  0  0  0  0  0  0  0  0  0  0  0
    0.7306   -3.9318    0.0058 C   0  0  0  0  0  0  0  0  0  0  0  0
    1.5468   -4.8955    0.6189 C   0  0  0  0  0  0  0  0  0  0  0  0
    2.7178   -4.4908    1.2095 C   0  0  0  0  0  0  0  0  0  0  0  0
    3.0646   -3.1570    1.1864 C   0  0  0  0  0  0  0  0  0  0  0  0
    2.2281   -2.2411    0.5681 C   0  0  0  0  0  0  0  0  0  0  0  0
    2.3516   -0.8862    0.4173 C   0  0  0  0  0  0  0  0  0  0  0  0
    3.3119    0.0355    0.8168 C   0  0  0  0  0  0  0  0  0  0  0  0
    4.5802   -0.2061    1.5848 C   0  0  0  0  0  0  0  0  0  0  0  0
    5.1944    1.0906    1.7064 N   0  0  0  0  0  0  0  0  0  0  0  0
    4.3320    2.0608    1.0723 C   0  0  0  0  0  0  0  0  0  0  0  0
    4.6558    3.2634    1.0682 O   0  0  0  0  0  0  0  0  0  0  0  0
    3.1795    1.3807    0.5335 C   0  0  0  0  0  0  0  0  0  0  0  0
    2.0440    1.7599   -0.1669 C   0  0  0  0  0  0  0  0  0  0  0  0
    1.6022    3.0003   -0.6087 C   0  0  0  0  0  0  0  0  0  0  0  0
    2.0722    4.2848   -0.5357 C   0  0  0  0  0  0  0  0  0  0  0  0
    1.3674    5.3355   -1.0950 C   0  0  0  0  0  0  0  0  0  0  0  0
    0.1847    5.0780   -1.7278 C   0  0  0  0  0  0  0  0  0  0  0  0
   -0.3143    3.8010   -1.8182 C   0  0  0  0  0  0  0  0  0  0  0  0
    0.3870    2.7444   -1.2599 C   0  0  0  0  0  0  0  0  0  0  0  0
    0.1092    1.4463   -1.2165 N   0  0  0  0  0  0  0  0  0  0  0  0
    1.1023    0.8555   -0.5592 C   0  0  0  0  0  0  0  0  0  0  0  0
    1.2460   -0.4763   -0.2700 C   0  0  0  0  0  0  0  0  0  0  0  0
   -4.1758    2.6872    0.1162 H   0  0  0  0  0  0  0  0  0  0  0  0
   -3.1566    2.7444    1.5989 H   0  0  0  0  0  0  0  0  0  0  0  0
   -4.9236    2.9185    1.6995 H   0  0  0  0  0  0  0  0  0  0  0  0
   -5.1401    0.5843    0.7503 H   0  0  0  0  0  0  0  0  0  0  0  0
   -4.6306    0.7816    2.4484 H   0  0  0  0  0  0  0  0  0  0  0  0
   -2.5472   -0.2392    1.8097 H   0  0  0  0  0  0  0  0  0  0  0  0
   -3.8069   -0.3930   -0.7917 H   0  0  0  0  0  0  0  0  0  0  0  0
   -2.0006    1.7490   -0.1490 H   0  0  0  0  0  0  0  0  0  0  0  0
   -3.0476    1.4950   -1.5538 H   0  0  0  0  0  0  0  0  0  0  0  0
   -1.2375    1.3578   -2.7492 H   0  0  0  0  0  0  0  0  0  0  0  0
   -0.0233   -3.1667   -2.4882 H   0  0  0  0  0  0  0  0  0  0  0  0
   -1.4110   -2.3920   -3.2392 H   0  0  0  0  0  0  0  0  0  0  0  0
   -1.7675   -3.4039   -1.8644 H   0  0  0  0  0  0  0  0  0  0  0  0
   -2.7903   -2.2326   -0.8041 H   0  0  0  0  0  0  0  0  0  0  0  0
   -3.7819   -2.6356    1.0746 H   0  0  0  0  0  0  0  0  0  0  0  0
   -2.5385   -3.3490    2.2497 H   0  0  0  0  0  0  0  0  0  0  0  0
   -2.5986   -3.8183    0.4751 H   0  0  0  0  0  0  0  0  0  0  0  0
   -0.1673   -4.2969   -0.4190 H   0  0  0  0  0  0  0  0  0  0  0  0
    1.2401   -5.9158    0.6145 H   0  0  0  0  0  0  0  0  0  0  0  0
    3.3757   -5.1872    1.6924 H   0  0  0  0  0  0  0  0  0  0  0  0
    3.9735   -2.7858    1.6361 H   0  0  0  0  0  0  0  0  0  0  0  0
    4.3661   -0.6456    2.5872 H   0  0  0  0  0  0  0  0  0  0  0  0
    5.2718   -0.8636    1.0380 H   0  0  0  0  0  0  0  0  0  0  0  0
    6.1111    1.2800    2.1785 H   0  0  0  0  0  0  0  0  0  0  0  0
    2.9841    4.5204   -0.0543 H   0  0  0  0  0  0  0  0  0  0  0  0
    1.7672    6.3213   -1.0175 H   0  0  0  0  0  0  0  0  0  0  0  0
   -0.3617    5.8922   -2.1611 H   0  0  0  0  0  0  0  0  0  0  0  0
   -1.2478    3.5632   -2.3131 H   0  0  0  0  0  0  0  0  0  0  0  0
  1  2  1  0
  2  3  1  0
  3  4  1  0
  4  5  1  0
  5  6  1  0
  6  7  1  0
  7  8  1  0
  8  9  1  6
  8 10  1  0
 10 11  1  0
 11 12  1  0
  8 13  1  0
 13 14  1  0
 14 15  2  0
 15 16  1  0
 16 17  2  0
 17 18  1  0
 18 19  2  0
 19 20  1  0
 20 21  2  0
 21 22  1  0
 22 23  1  0
 23 24  1  0
 24 25  2  0
 24 26  1  0
 26 27  2  0
 27 28  1  0
 28 29  2  0
 29 30  1  0
 30 31  2  0
 31 32  1  0
 32 33  2  0
 33 34  1  0
 34 35  1  0
 35 36  2  0
 10  4  1  0
 36 13  1  0
 34  6  1  0
 19 14  1  0
 36 20  1  0
 26 21  1  0
 35 27  1  0
 33 28  1  0
  1 37  1  0
  1 38  1  0
  1 39  1  0
  2 40  1  0
  2 41  1  0
  3 42  1  0
  4 43  1  6
  5 44  1  0
  5 45  1  0
  6 46  1  6
  9 47  1  0
  9 48  1  0
  9 49  1  0
 10 50  1  6
 12 51  1  0
 12 52  1  0
 12 53  1  0
 15 54  1  0
 16 55  1  0
 17 56  1  0
 18 57  1  0
 22 58  1  0
 22 59  1  0
 23 60  1  0
 29 61  1  0
 30 62  1  0
 31 63  1  0
 32 64  1  0
M  END
$$$$
[H]Oc1nc(N([H])S(=O)(=O)c2c([H])c([H])c(O[H])c([H])c2[H])nc(N=Nc2c([H])c([H])c(O[H])c(O[H])c2[H])c1[H]
     RDKit          3D

 41 43  0  0  0  0  0  0  0  0999 V2000
    1.1183   -1.7870    2.6277 O   0  0  0  0  0  0  0  0  0  0  0  0
    0.7117   -1.3226    1.3909 C   0  0  0  0  0  0  0  0  0  0  0  0
   -0.5808   -0.8369    1.2463 C   0  0  0  0  0  0  0  0  0  0  0  0
   -0.9775   -0.3764    0.0114 C   0  0  0  0  0  0  0  0  0  0  0  0
   -2.2957    0.1261   -0.1633 N   0  0  0  0  0  0  0  0  0  0  0  0
   -3.3210   -0.3994    0.3536 N   0  0  0  0  0  0  0  0  0  0  0  0
   -4.5726    0.2417    0.0709 C   0  0  0  0  0  0  0  0  0  0  0  0
   -4.7407    1.5769    0.3958 C   0  0  0  0  0  0  0  0  0  0  0  0
   -5.9108    2.2562    0.1547 C   0  0  0  0  0  0  0  0  0  0  0  0
   -6.9510    1.5748   -0.4330 C   0  0  0  0  0  0  0  0  0  0  0  0
   -8.1676    2.1824   -0.7124 O   0  0  0  0  0  0  0  0  0  0  0  0
   -6.8171    0.2459   -0.7689 C   0  0  0  0  0  0  0  0  0  0  0  0
   -7.8675   -0.4636   -1.3686 O   0  0  0  0  0  0  0  0  0  0  0  0
   -5.6281   -0.4197   -0.5167 C   0  0  0  0  0  0  0  0  0  0  0  0
   -0.0826   -0.4251   -0.9882 N   0  0  0  0  0  0  0  0  0  0  0  0
    1.1698   -0.8875   -0.8796 C   0  0  0  0  0  0  0  0  0  0  0  0
    2.0613   -0.9039   -2.0060 N   0  0  0  0  0  0  0  0  0  0  0  0
    3.6613   -1.4675   -1.9651 S   0  0  0  0  0  0  0  0  0  0  0  0
    3.6702   -2.9336   -1.5850 O   0  0  0  0  0  0  0  0  0  0  0  0
    4.2477   -1.3286   -3.3563 O   0  0  0  0  0  0  0  0  0  0  0  0
    4.6681   -0.5532   -0.8656 C   0  0  0  0  0  0  0  0  0  0  0  0
    5.2596    0.6438   -1.2823 C   0  0  0  0  0  0  0  0  0  0  0  0
    6.0672    1.3916   -0.4533 C   0  0  0  0  0  0  0  0  0  0  0  0
    6.2906    0.9293    0.8310 C   0  0  0  0  0  0  0  0  0  0  0  0
    7.1092    1.7040    1.6453 O   0  0  0  0  0  0  0  0  0  0  0  0
    5.7125   -0.2500    1.2526 C   0  0  0  0  0  0  0  0  0  0  0  0
    4.8933   -1.0076    0.4098 C   0  0  0  0  0  0  0  0  0  0  0  0
    1.5396   -1.3322    0.3307 N   0  0  0  0  0  0  0  0  0  0  0  0
    0.7587   -2.7068    2.9119 H   0  0  0  0  0  0  0  0  0  0  0  0
   -1.2471   -0.8278    2.0944 H   0  0  0  0  0  0  0  0  0  0  0  0
   -3.8987    2.0725    0.8553 H   0  0  0  0  0  0  0  0  0  0  0  0
   -6.0307    3.3053    0.4145 H   0  0  0  0  0  0  0  0  0  0  0  0
   -8.2709    3.1634   -0.4661 H   0  0  0  0  0  0  0  0  0  0  0  0
   -7.7346   -1.4368   -1.6015 H   0  0  0  0  0  0  0  0  0  0  0  0
   -5.5215   -1.4806   -0.7850 H   0  0  0  0  0  0  0  0  0  0  0  0
    1.6507   -0.5287   -2.9063 H   0  0  0  0  0  0  0  0  0  0  0  0
    5.0390    0.9413   -2.3000 H   0  0  0  0  0  0  0  0  0  0  0  0
    6.5109    2.3186   -0.8119 H   0  0  0  0  0  0  0  0  0  0  0  0
    8.1014    1.5019    1.6237 H   0  0  0  0  0  0  0  0  0  0  0  0
    5.9136   -0.5741    2.2638 H   0  0  0  0  0  0  0  0  0  0  0  0
    4.4619   -1.9259    0.7667 H   0  0  0  0  0  0  0  0  0  0  0  0
  1  2  1  0
  2  3  2  0
  3  4  1  0
  4  5  1  0
  5  6  2  3
  6  7  1  0
  7  8  2  0
  8  9  1  0
  9 10  2  0
 10 11  1  0
 10 12  1  0
 12 13  1  0
 12 14  2  0
  4 15  2  0
 15 16  1  0
 16 17  1  0
 17 18  1  0
 18 19  2  0
 18 20  2  0
 18 21  1  0
 21 22  2  0
 22 23  1  0
 23 24  2  0
 24 25  1  0
 24 26  1  0
 26 27  2  0
 16 28  2  0
 28  2  1  0
 14  7  1  0
 27 21  1  0
  1 29  1  0
  3 30  1  0
  8 31  1  0
  9 32  1  0
 11 33  1  0
 13 34  1  0
 14 35  1  0
 17 36  1  0
 22 37  1  0
 23 38  1  0
 25 39  1  0
 26 40  1  0
 27 41  1  0
M  END
$$$$
[H]OC(=O)C([H])([H])C([H])([H])C([H])([H])C([H])([H])C([H])([H])C([H])([H])C(=O)N([H])[C@]([H])(C(=O)N([H])C([H])([H])C([H])([H])C([H])([H])C([H])([H])C([H])([H])N([H])C(=O)OC(C([H])([H])[H])(C([H])([H])[H])C([H])([H])[H])C([H])([H])c1c([H])c([H])c([H])c([H])c1[H]
     RDKit          3D

 79 79  0  0  0  0  0  0  0  0999 V2000
    7.3121   -3.0779   -3.3519 C   0  0  0  0  0  0  0  0  0  0  0  0
    7.9084   -1.7832   -2.9086 C   0  0  0  0  0  0  0  0  0  0  0  0
    9.4300   -1.8560   -2.8287 C   0  0  0  0  0  0  0  0  0  0  0  0
    7.5696   -0.6623   -3.8651 C   0  0  0  0  0  0  0  0  0  0  0  0
    7.4600   -1.4545   -1.5895 O   0  0  0  0  0  0  0  0  0  0  0  0
    6.1091   -1.2783   -1.2904 C   0  0  0  0  0  0  0  0  0  0  0  0
    5.2905   -1.4328   -2.2220 O   0  0  0  0  0  0  0  0  0  0  0  0
    5.7035   -0.9425   -0.0055 N   0  0  0  0  0  0  0  0  0  0  0  0
    4.2794   -0.7698    0.3385 C   0  0  0  0  0  0  0  0  0  0  0  0
    3.5757   -2.0688    0.1921 C   0  0  0  0  0  0  0  0  0  0  0  0
    2.1182   -2.1235    0.4640 C   0  0  0  0  0  0  0  0  0  0  0  0
    1.5995   -1.8155    1.8177 C   0  0  0  0  0  0  0  0  0  0  0  0
    1.7485   -0.4527    2.3644 C   0  0  0  0  0  0  0  0  0  0  0  0
    1.0610    0.5834    1.5754 N   0  0  0  0  0  0  0  0  0  0  0  0
   -0.3336    0.6566    1.5012 C   0  0  0  0  0  0  0  0  0  0  0  0
   -0.9252   -0.2946    2.2370 O   0  0  0  0  0  0  0  0  0  0  0  0
   -1.2395    1.5469    0.7999 C   0  0  2  0  0  0  0  0  0  0  0  0
   -0.9860    2.9631    0.7967 C   0  0  0  0  0  0  0  0  0  0  0  0
    0.1565    3.6297    0.2449 C   0  0  0  0  0  0  0  0  0  0  0  0
    0.2805    3.8879   -1.1210 C   0  0  0  0  0  0  0  0  0  0  0  0
    1.3386    4.5906   -1.6159 C   0  0  0  0  0  0  0  0  0  0  0  0
    2.3537    5.0910   -0.8046 C   0  0  0  0  0  0  0  0  0  0  0  0
    2.2322    4.8321    0.5646 C   0  0  0  0  0  0  0  0  0  0  0  0
    1.1596    4.1253    1.0393 C   0  0  0  0  0  0  0  0  0  0  0  0
   -2.6105    1.3286    1.2959 N   0  0  0  0  0  0  0  0  0  0  0  0
   -3.5522    0.6024    0.5647 C   0  0  0  0  0  0  0  0  0  0  0  0
   -3.2365    0.1132   -0.5452 O   0  0  0  0  0  0  0  0  0  0  0  0
   -4.9466    0.4106    1.1140 C   0  0  0  0  0  0  0  0  0  0  0  0
   -5.7787   -0.4588    0.2614 C   0  0  0  0  0  0  0  0  0  0  0  0
   -7.2007   -0.6275    0.8231 C   0  0  0  0  0  0  0  0  0  0  0  0
   -7.9532   -1.5402   -0.0877 C   0  0  0  0  0  0  0  0  0  0  0  0
   -9.3544   -1.8437    0.1621 C   0  0  0  0  0  0  0  0  0  0  0  0
   -9.7614   -2.5064    1.4288 C   0  0  0  0  0  0  0  0  0  0  0  0
   -9.4960   -1.6837    2.6057 C   0  0  0  0  0  0  0  0  0  0  0  0
   -9.8179   -0.3244    2.5652 O   0  0  0  0  0  0  0  0  0  0  0  0
   -8.9871   -2.1574    3.6557 O   0  0  0  0  0  0  0  0  0  0  0  0
    8.0812   -3.6644   -3.9250 H   0  0  0  0  0  0  0  0  0  0  0  0
    6.4270   -2.8788   -3.9795 H   0  0  0  0  0  0  0  0  0  0  0  0
    6.9810   -3.6771   -2.4496 H   0  0  0  0  0  0  0  0  0  0  0  0
    9.8292   -0.8452   -2.6396 H   0  0  0  0  0  0  0  0  0  0  0  0
    9.7052   -2.4781   -1.9561 H   0  0  0  0  0  0  0  0  0  0  0  0
    9.8810   -2.3228   -3.7434 H   0  0  0  0  0  0  0  0  0  0  0  0
    7.1327    0.1770   -3.2618 H   0  0  0  0  0  0  0  0  0  0  0  0
    8.4827   -0.2988   -4.3766 H   0  0  0  0  0  0  0  0  0  0  0  0
    6.8627   -0.9473   -4.6439 H   0  0  0  0  0  0  0  0  0  0  0  0
    6.4249   -0.8060    0.7553 H   0  0  0  0  0  0  0  0  0  0  0  0
    4.2066   -0.2733    1.3028 H   0  0  0  0  0  0  0  0  0  0  0  0
    3.8316   -0.0235   -0.4025 H   0  0  0  0  0  0  0  0  0  0  0  0
    4.1250   -2.8148    0.8806 H   0  0  0  0  0  0  0  0  0  0  0  0
    3.8173   -2.4971   -0.8203 H   0  0  0  0  0  0  0  0  0  0  0  0
    1.8010   -3.1927    0.2248 H   0  0  0  0  0  0  0  0  0  0  0  0
    1.5600   -1.5383   -0.3360 H   0  0  0  0  0  0  0  0  0  0  0  0
    0.5385   -2.1874    1.8494 H   0  0  0  0  0  0  0  0  0  0  0  0
    2.1172   -2.5727    2.5153 H   0  0  0  0  0  0  0  0  0  0  0  0
    1.0961   -0.5081    3.3569 H   0  0  0  0  0  0  0  0  0  0  0  0
    2.6810   -0.0979    2.7645 H   0  0  0  0  0  0  0  0  0  0  0  0
    1.6809    1.2306    1.0770 H   0  0  0  0  0  0  0  0  0  0  0  0
   -1.3051    1.0946   -0.2502 H   0  0  0  0  0  0  0  0  0  0  0  0
   -1.9010    3.4810    0.3194 H   0  0  0  0  0  0  0  0  0  0  0  0
   -1.1052    3.3612    1.8710 H   0  0  0  0  0  0  0  0  0  0  0  0
   -0.4714    3.5161   -1.7553 H   0  0  0  0  0  0  0  0  0  0  0  0
    1.4076    4.7805   -2.7022 H   0  0  0  0  0  0  0  0  0  0  0  0
    3.1696    5.6309   -1.2190 H   0  0  0  0  0  0  0  0  0  0  0  0
    3.0118    5.2129    1.1938 H   0  0  0  0  0  0  0  0  0  0  0  0
    1.1285    3.9619    2.1282 H   0  0  0  0  0  0  0  0  0  0  0  0
   -2.8688    1.7395    2.2105 H   0  0  0  0  0  0  0  0  0  0  0  0
   -4.8640    0.0142    2.1614 H   0  0  0  0  0  0  0  0  0  0  0  0
   -5.4003    1.4131    1.2386 H   0  0  0  0  0  0  0  0  0  0  0  0
   -5.3362   -1.4963    0.2497 H   0  0  0  0  0  0  0  0  0  0  0  0
   -5.8838   -0.1282   -0.7674 H   0  0  0  0  0  0  0  0  0  0  0  0
   -7.1279   -1.0804    1.8159 H   0  0  0  0  0  0  0  0  0  0  0  0
   -7.6309    0.3701    0.8692 H   0  0  0  0  0  0  0  0  0  0  0  0
   -7.3228   -2.5022   -0.1137 H   0  0  0  0  0  0  0  0  0  0  0  0
   -7.7746   -1.1429   -1.1382 H   0  0  0  0  0  0  0  0  0  0  0  0
  -10.0183   -0.9467   -0.0365 H   0  0  0  0  0  0  0  0  0  0  0  0
   -9.6849   -2.5674   -0.6701 H   0  0  0  0  0  0  0  0  0  0  0  0
   -9.3250   -3.5364    1.5210 H   0  0  0  0  0  0  0  0  0  0  0  0
  -10.8878   -2.6882    1.4034 H   0  0  0  0  0  0  0  0  0  0  0  0
   -9.5794    0.2922    3.3021 H   0  0  0  0  0  0  0  0  0  0  0  0
  1  2  1  0
  2  3  1  0
  2  4  1  0
  2  5  1  0
  5  6  1  0
  6  7  2  0
  6  8  1  0
  8  9  1  0
  9 10  1  0
 10 11  1  0
 11 12  1  0
 12 13  1  0
 13 14  1  0
 14 15  1  0
 15 16  2  0
 15 17  1  0
 17 18  1  0
 18 19  1  0
 19 20  2  0
 20 21  1  0
 21 22  2  0
 22 23  1  0
 23 24  2  0
 17 25  1  0
 25 26  1  0
 26 27  2  0
 26 28  1  0
 28 29  1  0
 29 30  1  0
 30 31  1  0
 31 32  1  0
 32 33  1  0
 33 34  1  0
 34 35  1  0
 34 36  2  0
 24 19  1  0
  1 37  1  0
  1 38  1  0
  1 39  1  0
  3 40  1  0
  3 41  1  0
  3 42  1  0
  4 43  1  0
  4 44  1  0
  4 45  1  0
  8 46  1  0
  9 47  1  0
  9 48  1  0
 10 49  1  0
 10 50  1  0
 11 51  1  0
 11 52  1  0
 12 53  1  0
 12 54  1  0
 13 55  1  0
 13 56  1  0
 14 57  1  0
 17 58  1  6
 18 59  1  0
 18 60  1  0
 20 61  1  0
 21 62  1  0
 22 63  1  0
 23 64  1  0
 24 65  1  0
 25 66  1  0
 28 67  1  0
 28 68  1  0
 29 69  1  0
 29 70  1  0
 30 71  1  0
 30 72  1  0
 31 73  1  0
 31 74  1  0
 32 75  1  0
 32 76  1  0
 33 77  1  0
 33 78  1  0
 35 79  1  0
M  END
$$$$
[H]O[C@@]([H])(C([H])([H])[H])[C@]([H])(c1nnc(-c2c([H])c([H])c(C([H])([H])N(C([H])([H])[H])C3([H])C([H])([H])C([H])([H])C([H])([H])C([H])([H])C3([H])[H])c([H])c2[H])o1)N([H])c1c([H])c([H])c([N+]#[C-])c(Cl)c1C([H])([H])[H]
     RDKit          3D

 67 70  0  0  0  0  0  0  0  0999 V2000
    5.5049   -3.3129    0.5089 C   0  0  0  0  0  0  0  0  0  0  0  0
    4.7301   -2.2817   -0.3175 C   0  0  2  0  0  0  0  0  0  0  0  0
    5.3010   -2.1093   -1.5336 O   0  0  0  0  0  0  0  0  0  0  0  0
    4.4863   -1.0558    0.5061 C   0  0  1  0  0  0  0  0  0  0  0  0
    5.5884   -0.2575    0.8676 N   0  0  0  0  0  0  0  0  0  0  0  0
    6.5025    0.5167    0.1492 C   0  0  0  0  0  0  0  0  0  0  0  0
    6.4550    0.8213   -1.1783 C   0  0  0  0  0  0  0  0  0  0  0  0
    7.4261    1.6314   -1.7878 C   0  0  0  0  0  0  0  0  0  0  0  0
    8.4720    2.1587   -1.0802 C   0  0  0  0  0  0  0  0  0  0  0  0
    9.4334    2.9567   -1.6716 N   0  0  0  0  0  0  0  0  0  0  0  0
   10.2353    3.6143   -2.1767 C   0  0  0  0  0  0  0  0  0  0  0  0
    8.5357    1.8626    0.2605 C   0  0  0  0  0  0  0  0  0  0  0  0
    9.8725    2.5306    1.1877 Cl  0  0  0  0  0  0  0  0  0  0  0  0
    7.5841    1.0702    0.8506 C   0  0  0  0  0  0  0  0  0  0  0  0
    7.7418    0.8046    2.3036 C   0  0  0  0  0  0  0  0  0  0  0  0
    3.2482   -0.3527    0.0988 C   0  0  0  0  0  0  0  0  0  0  0  0
    3.0994    0.7437   -0.6265 N   0  0  0  0  0  0  0  0  0  0  0  0
    1.8240    1.0404   -0.7608 N   0  0  0  0  0  0  0  0  0  0  0  0
    1.1456    0.1058   -0.1018 C   0  0  0  0  0  0  0  0  0  0  0  0
    2.0063   -0.7271    0.4115 O   0  0  0  0  0  0  0  0  0  0  0  0
   -0.3192    0.0071    0.0385 C   0  0  0  0  0  0  0  0  0  0  0  0
   -0.8698   -1.0247    0.7686 C   0  0  0  0  0  0  0  0  0  0  0  0
   -2.2377   -1.1230    0.9041 C   0  0  0  0  0  0  0  0  0  0  0  0
   -3.0647   -0.1967    0.3149 C   0  0  0  0  0  0  0  0  0  0  0  0
   -4.5140   -0.2719    0.4447 C   0  0  0  0  0  0  0  0  0  0  0  0
   -5.2177    0.0264   -0.7548 N   0  0  0  0  0  0  0  0  0  0  0  0
   -4.9172   -0.8503   -1.8528 C   0  0  0  0  0  0  0  0  0  0  0  0
   -6.6080    0.2661   -0.5866 C   0  0  0  0  0  0  0  0  0  0  0  0
   -6.8356    1.4718    0.2758 C   0  0  0  0  0  0  0  0  0  0  0  0
   -8.2383    1.9923    0.0121 C   0  0  0  0  0  0  0  0  0  0  0  0
   -9.1625    0.7998   -0.0424 C   0  0  0  0  0  0  0  0  0  0  0  0
   -8.5765   -0.3918    0.6805 C   0  0  0  0  0  0  0  0  0  0  0  0
   -7.3967   -0.9364   -0.1293 C   0  0  0  0  0  0  0  0  0  0  0  0
   -2.4877    0.8199   -0.4063 C   0  0  0  0  0  0  0  0  0  0  0  0
   -1.1221    0.9619   -0.5715 C   0  0  0  0  0  0  0  0  0  0  0  0
    4.9507   -3.4467    1.4448 H   0  0  0  0  0  0  0  0  0  0  0  0
    5.5762   -4.2434   -0.0822 H   0  0  0  0  0  0  0  0  0  0  0  0
    6.5397   -2.9464    0.6625 H   0  0  0  0  0  0  0  0  0  0  0  0
    3.7258   -2.7592   -0.4843 H   0  0  0  0  0  0  0  0  0  0  0  0
    4.7786   -2.4603   -2.2714 H   0  0  0  0  0  0  0  0  0  0  0  0
    4.1554   -1.5363    1.5619 H   0  0  0  0  0  0  0  0  0  0  0  0
    5.7640   -0.2274    1.9553 H   0  0  0  0  0  0  0  0  0  0  0  0
    5.6613    0.4632   -1.8134 H   0  0  0  0  0  0  0  0  0  0  0  0
    7.3684    1.8586   -2.8402 H   0  0  0  0  0  0  0  0  0  0  0  0
    8.6662    1.2237    2.7104 H   0  0  0  0  0  0  0  0  0  0  0  0
    6.8710    1.3058    2.8075 H   0  0  0  0  0  0  0  0  0  0  0  0
    7.7386   -0.2987    2.4986 H   0  0  0  0  0  0  0  0  0  0  0  0
   -0.1965   -1.7590    1.2346 H   0  0  0  0  0  0  0  0  0  0  0  0
   -2.6037   -1.9560    1.4903 H   0  0  0  0  0  0  0  0  0  0  0  0
   -4.9121    0.4276    1.2385 H   0  0  0  0  0  0  0  0  0  0  0  0
   -4.7690   -1.2905    0.8594 H   0  0  0  0  0  0  0  0  0  0  0  0
   -5.0714   -1.9252   -1.5812 H   0  0  0  0  0  0  0  0  0  0  0  0
   -5.6622   -0.6473   -2.6579 H   0  0  0  0  0  0  0  0  0  0  0  0
   -3.9271   -0.6541   -2.2725 H   0  0  0  0  0  0  0  0  0  0  0  0
   -7.0238    0.5289   -1.6048 H   0  0  0  0  0  0  0  0  0  0  0  0
   -6.7999    1.1692    1.3335 H   0  0  0  0  0  0  0  0  0  0  0  0
   -6.0949    2.2396   -0.0049 H   0  0  0  0  0  0  0  0  0  0  0  0
   -8.2871    2.4876   -0.9862 H   0  0  0  0  0  0  0  0  0  0  0  0
   -8.4927    2.6783    0.8425 H   0  0  0  0  0  0  0  0  0  0  0  0
   -9.3825    0.4820   -1.0771 H   0  0  0  0  0  0  0  0  0  0  0  0
  -10.1110    1.0931    0.4360 H   0  0  0  0  0  0  0  0  0  0  0  0
   -9.3739   -1.1649    0.7390 H   0  0  0  0  0  0  0  0  0  0  0  0
   -8.2935   -0.1619    1.7193 H   0  0  0  0  0  0  0  0  0  0  0  0
   -6.8476   -1.6125    0.5208 H   0  0  0  0  0  0  0  0  0  0  0  0
   -7.8100   -1.5245   -0.9674 H   0  0  0  0  0  0  0  0  0  0  0  0
   -3.0921    1.5942   -0.9033 H   0  0  0  0  0  0  0  0  0  0  0  0
   -0.6696    1.7513   -1.1316 H   0  0  0  0  0  0  0  0  0  0  0  0
  1  2  1  0
  2  3  1  0
  2  4  1  0
  4  5  1  0
  5  6  1  0
  6  7  2  0
  7  8  1  0
  8  9  2  0
  9 10  1  0
 10 11  3  0
  9 12  1  0
 12 13  1  0
 12 14  2  0
 14 15  1  0
  4 16  1  0
 16 17  2  0
 17 18  1  0
 18 19  2  0
 19 20  1  0
 19 21  1  0
 21 22  2  0
 22 23  1  0
 23 24  2  0
 24 25  1  0
 25 26  1  0
 26 27  1  0
 26 28  1  0
 28 29  1  0
 29 30  1  0
 30 31  1  0
 31 32  1  0
 32 33  1  0
 24 34  1  0
 34 35  2  0
 14  6  1  0
 20 16  1  0
 35 21  1  0
 33 28  1  0
  1 36  1  0
  1 37  1  0
  1 38  1  0
  2 39  1  6
  3 40  1  0
  4 41  1  1
  5 42  1  0
  7 43  1  0
  8 44  1  0
 15 45  1  0
 15 46  1  0
 15 47  1  0
 22 48  1  0
 23 49  1  0
 25 50  1  0
 25 51  1  0
 27 52  1  0
 27 53  1  0
 27 54  1  0
 28 55  1  0
 29 56  1  0
 29 57  1  0
 30 58  1  0
 30 59  1  0
 31 60  1  0
 31 61  1  0
 32 62  1  0
 32 63  1  0
 33 64  1  0
 33 65  1  0
 34 66  1  0
 35 67  1  0
M  CHG  2  10   1  11  -1
M  END
$$$$
[H]c1nonc1C([H])([H])C([H])([H])C([H])([H])N(C(=O)c1nn(C([H])([H])[H])c2c1C([H])([H])C([H])([H])c1c([H])c([H])c(Cl)c([H])c1-2)C([H])([H])[H]
     RDKit          3D

 47 50  0  0  0  0  0  0  0  0999 V2000
    2.0781   -1.7653   -0.0847 C   0  0  0  0  0  0  0  0  0  0  0  0
    2.1044   -0.3389   -0.2657 N   0  0  0  0  0  0  0  0  0  0  0  0
    3.3773    0.3276   -0.4204 C   0  0  0  0  0  0  0  0  0  0  0  0
    3.9176    0.7430    0.9105 C   0  0  0  0  0  0  0  0  0  0  0  0
    5.2383    1.4412    0.7707 C   0  0  0  0  0  0  0  0  0  0  0  0
    6.2835    0.5998    0.1382 C   0  0  0  0  0  0  0  0  0  0  0  0
    7.1471   -0.2283    0.7494 N   0  0  0  0  0  0  0  0  0  0  0  0
    7.8784   -0.7547   -0.1817 O   0  0  0  0  0  0  0  0  0  0  0  0
    7.5664   -0.3412   -1.3500 N   0  0  0  0  0  0  0  0  0  0  0  0
    6.5517    0.5276   -1.2047 C   0  0  0  0  0  0  0  0  0  0  0  0
    0.8816    0.3771   -0.2871 C   0  0  0  0  0  0  0  0  0  0  0  0
    0.9959    1.6374   -0.4525 O   0  0  0  0  0  0  0  0  0  0  0  0
   -0.4184   -0.2556   -0.1341 C   0  0  0  0  0  0  0  0  0  0  0  0
   -0.7034   -1.5249    0.0441 N   0  0  0  0  0  0  0  0  0  0  0  0
   -2.0349   -1.7362    0.1471 N   0  0  0  0  0  0  0  0  0  0  0  0
   -2.5257   -3.0261    0.3344 C   0  0  0  0  0  0  0  0  0  0  0  0
   -2.6322   -0.5513    0.0288 C   0  0  0  0  0  0  0  0  0  0  0  0
   -1.6520    0.4165   -0.1483 C   0  0  0  0  0  0  0  0  0  0  0  0
   -2.0050    1.8330   -0.2334 C   0  0  0  0  0  0  0  0  0  0  0  0
   -3.3736    2.0963   -0.6985 C   0  0  0  0  0  0  0  0  0  0  0  0
   -4.3815    1.1131   -0.2690 C   0  0  0  0  0  0  0  0  0  0  0  0
   -5.7206    1.4962   -0.2048 C   0  0  0  0  0  0  0  0  0  0  0  0
   -6.6786    0.5843    0.0930 C   0  0  0  0  0  0  0  0  0  0  0  0
   -6.3304   -0.7302    0.3344 C   0  0  0  0  0  0  0  0  0  0  0  0
   -7.5874   -1.8973    0.7164 Cl  0  0  0  0  0  0  0  0  0  0  0  0
   -5.0047   -1.1485    0.2812 C   0  0  0  0  0  0  0  0  0  0  0  0
   -4.0529   -0.1978   -0.0225 C   0  0  0  0  0  0  0  0  0  0  0  0
    3.1340   -2.1394   -0.1381 H   0  0  0  0  0  0  0  0  0  0  0  0
    1.5490   -2.3208   -0.8850 H   0  0  0  0  0  0  0  0  0  0  0  0
    1.6528   -2.0565    0.9085 H   0  0  0  0  0  0  0  0  0  0  0  0
    3.3159    1.1742   -1.1458 H   0  0  0  0  0  0  0  0  0  0  0  0
    4.0760   -0.4065   -0.8939 H   0  0  0  0  0  0  0  0  0  0  0  0
    3.1630    1.3462    1.4156 H   0  0  0  0  0  0  0  0  0  0  0  0
    4.0447   -0.1838    1.5130 H   0  0  0  0  0  0  0  0  0  0  0  0
    5.1397    2.4057    0.2551 H   0  0  0  0  0  0  0  0  0  0  0  0
    5.6024    1.6470    1.8144 H   0  0  0  0  0  0  0  0  0  0  0  0
    6.0731    1.0447   -2.0258 H   0  0  0  0  0  0  0  0  0  0  0  0
   -3.2117   -3.4749   -0.3765 H   0  0  0  0  0  0  0  0  0  0  0  0
   -1.6770   -3.7905    0.3861 H   0  0  0  0  0  0  0  0  0  0  0  0
   -2.9708   -3.1263    1.3613 H   0  0  0  0  0  0  0  0  0  0  0  0
   -1.9459    2.2257    0.8334 H   0  0  0  0  0  0  0  0  0  0  0  0
   -1.2372    2.3999   -0.8481 H   0  0  0  0  0  0  0  0  0  0  0  0
   -3.3564    2.1673   -1.8435 H   0  0  0  0  0  0  0  0  0  0  0  0
   -3.7210    3.1386   -0.4267 H   0  0  0  0  0  0  0  0  0  0  0  0
   -5.9657    2.5219   -0.3959 H   0  0  0  0  0  0  0  0  0  0  0  0
   -7.7311    0.9047    0.1392 H   0  0  0  0  0  0  0  0  0  0  0  0
   -4.8531   -2.1741    0.4876 H   0  0  0  0  0  0  0  0  0  0  0  0
  1  2  1  0
  2  3  1  0
  3  4  1  0
  4  5  1  0
  5  6  1  0
  6  7  2  0
  7  8  1  0
  8  9  1  0
  9 10  2  0
  2 11  1  0
 11 12  2  0
 11 13  1  0
 13 14  2  0
 14 15  1  0
 15 16  1  0
 15 17  1  0
 17 18  2  0
 18 19  1  0
 19 20  1  0
 20 21  1  0
 21 22  2  0
 22 23  1  0
 23 24  2  0
 24 25  1  0
 24 26  1  0
 26 27  2  0
 10  6  1  0
 18 13  1  0
 27 21  1  0
 17 27  1  0
  1 28  1  0
  1 29  1  0
  1 30  1  0
  3 31  1  0
  3 32  1  0
  4 33  1  0
  4 34  1  0
  5 35  1  0
  5 36  1  0
 10 37  1  0
 16 38  1  0
 16 39  1  0
 16 40  1  0
 19 41  1  0
 19 42  1  0
 20 43  1  0
 20 44  1  0
 22 45  1  0
 23 46  1  0
 26 47  1  0
M  END
$$$$
[H]c1c([H])c([H])c(C23C([H])([H])N(C([H])([H])C2([H])[H])C([H])([H])C3([H])[H])c(OC([H])([H])[H])c1[H]
     RDKit          3D

 32 34  0  0  0  0  0  0  0  0999 V2000
    1.5510    0.7204   -3.0373 C   0  0  0  0  0  0  0  0  0  0  0  0
    1.0204    0.4251   -1.7371 O   0  0  0  0  0  0  0  0  0  0  0  0
   -0.3442    0.3341   -1.5543 C   0  0  0  0  0  0  0  0  0  0  0  0
   -1.2100    0.5302   -2.6388 C   0  0  0  0  0  0  0  0  0  0  0  0
   -2.5781    0.4375   -2.4486 C   0  0  0  0  0  0  0  0  0  0  0  0
   -3.0386    0.1517   -1.1813 C   0  0  0  0  0  0  0  0  0  0  0  0
   -2.1635   -0.0420   -0.1066 C   0  0  0  0  0  0  0  0  0  0  0  0
   -0.7983    0.0519   -0.3030 C   0  0  0  0  0  0  0  0  0  0  0  0
    0.1117   -0.1488    0.7981 C   0  0  0  0  0  0  0  0  0  0  0  0
    1.0913   -1.2749    0.6520 C   0  0  0  0  0  0  0  0  0  0  0  0
    1.3792   -1.6425    2.0888 C   0  0  0  0  0  0  0  0  0  0  0  0
    0.6162   -0.6915    2.9127 N   0  0  0  0  0  0  0  0  0  0  0  0
    1.1627    0.6427    2.7345 C   0  0  0  0  0  0  0  0  0  0  0  0
    0.8494    1.0539    1.2939 C   0  0  0  0  0  0  0  0  0  0  0  0
   -0.6014   -0.5870    2.0857 C   0  0  0  0  0  0  0  0  0  0  0  0
    1.4272    1.8041   -3.2651 H   0  0  0  0  0  0  0  0  0  0  0  0
    2.6471    0.5379   -3.0328 H   0  0  0  0  0  0  0  0  0  0  0  0
    1.0869    0.1419   -3.8338 H   0  0  0  0  0  0  0  0  0  0  0  0
   -0.8462    0.7546   -3.6324 H   0  0  0  0  0  0  0  0  0  0  0  0
   -3.2723    0.5836   -3.2654 H   0  0  0  0  0  0  0  0  0  0  0  0
   -4.1156    0.0835   -1.0546 H   0  0  0  0  0  0  0  0  0  0  0  0
   -2.5611   -0.2631    0.8669 H   0  0  0  0  0  0  0  0  0  0  0  0
    0.5430   -2.1160    0.1460 H   0  0  0  0  0  0  0  0  0  0  0  0
    1.9920   -1.0218    0.0736 H   0  0  0  0  0  0  0  0  0  0  0  0
    0.9893   -2.6510    2.3260 H   0  0  0  0  0  0  0  0  0  0  0  0
    2.4599   -1.5634    2.2680 H   0  0  0  0  0  0  0  0  0  0  0  0
    0.6403    1.3086    3.4531 H   0  0  0  0  0  0  0  0  0  0  0  0
    2.2576    0.6623    2.9183 H   0  0  0  0  0  0  0  0  0  0  0  0
    0.2477    1.9741    1.3093 H   0  0  0  0  0  0  0  0  0  0  0  0
    1.7989    1.1305    0.7633 H   0  0  0  0  0  0  0  0  0  0  0  0
   -1.2467    0.2217    2.4430 H   0  0  0  0  0  0  0  0  0  0  0  0
   -1.0958   -1.5482    1.9577 H   0  0  0  0  0  0  0  0  0  0  0  0
  1  2  1  0
  2  3  1  0
  3  4  2  0
  4  5  1  0
  5  6  2  0
  6  7  1  0
  7  8  2  0
  8  9  1  0
  9 10  1  0
 10 11  1  0
 11 12  1  0
 12 13  1  0
 13 14  1  0
 12 15  1  0
  8  3  1  0
 14  9  1  0
 15  9  1  0
  1 16  1  0
  1 17  1  0
  1 18  1  0
  4 19  1  0
  5 20  1  0
  6 21  1  0
  7 22  1  0
 10 23  1  0
 10 24  1  0
 11 25  1  0
 11 26  1  0
 13 27  1  0
 13 28  1  0
 14 29  1  0
 14 30  1  0
 15 31  1  0
 15 32  1  0
M  END
$$$$
[H]OC(=O)C([H])([H])C([H])([H])[C@@]([H])(C(=O)N([H])[C@]([H])(C(=O)N([H])C([H])([H])c1c([H])c([H])nc([H])c1[H])C([H])([H])C(=O)N([H])[H])N([H])C(=O)[C@@]([H])(N([H])C(=O)[C@]([H])(N([H])S(=O)(=O)c1c([H])c([H])c(Cl)c([H])c1[H])C([H])([H])c1c([H])n([H])c2c([H])c([H])c([H])c([H])c12)C([H])([H])C([H])([H])C([H])([H])C([H])([H])N([H])C(=O)N([H])[H]
     RDKit          3D

108111  0  0  0  0  0  0  0  0999 V2000
   -5.7874    6.1787   -2.3283 N   0  0  0  0  0  0  0  0  0  0  0  0
   -4.4535    6.3715   -2.7518 C   0  0  0  0  0  0  0  0  0  0  0  0
   -4.2084    7.1574   -3.6898 O   0  0  0  0  0  0  0  0  0  0  0  0
   -3.4003    5.6786   -2.1210 N   0  0  0  0  0  0  0  0  0  0  0  0
   -2.0214    5.8590   -2.5507 C   0  0  0  0  0  0  0  0  0  0  0  0
   -1.1480    4.9730   -1.7045 C   0  0  0  0  0  0  0  0  0  0  0  0
   -1.5010    3.5071   -1.7959 C   0  0  0  0  0  0  0  0  0  0  0  0
   -0.4970    2.7948   -0.8903 C   0  0  0  0  0  0  0  0  0  0  0  0
   -0.7219    1.3290   -0.8559 C   0  0  2  0  0  0  0  0  0  0  0  0
   -2.0383    1.0734   -0.3689 N   0  0  0  0  0  0  0  0  0  0  0  0
   -2.9296    0.0717   -0.8226 C   0  0  0  0  0  0  0  0  0  0  0  0
   -2.5738   -0.7135   -1.7108 O   0  0  0  0  0  0  0  0  0  0  0  0
   -4.3089   -0.0628   -0.2487 C   0  0  1  0  0  0  0  0  0  0  0  0
   -5.0718    1.1725   -0.6832 C   0  0  0  0  0  0  0  0  0  0  0  0
   -6.4658    1.1841   -0.2081 C   0  0  0  0  0  0  0  0  0  0  0  0
   -6.9599    1.7985    0.9159 C   0  0  0  0  0  0  0  0  0  0  0  0
   -8.2744    1.5657    1.0063 N   0  0  0  0  0  0  0  0  0  0  0  0
   -8.7041    0.7996   -0.0378 C   0  0  0  0  0  0  0  0  0  0  0  0
   -9.9429    0.3206   -0.3837 C   0  0  0  0  0  0  0  0  0  0  0  0
  -10.0981   -0.4278   -1.5252 C   0  0  0  0  0  0  0  0  0  0  0  0
   -8.9862   -0.6794   -2.3004 C   0  0  0  0  0  0  0  0  0  0  0  0
   -7.7326   -0.1825   -1.9285 C   0  0  0  0  0  0  0  0  0  0  0  0
   -7.5700    0.5592   -0.8008 C   0  0  0  0  0  0  0  0  0  0  0  0
   -4.9476   -1.2940   -0.5151 N   0  0  0  0  0  0  0  0  0  0  0  0
   -5.1801   -2.2529    0.9142 S   0  0  0  0  0  0  0  0  0  0  0  0
   -5.8153   -3.5809    0.5038 O   0  0  0  0  0  0  0  0  0  0  0  0
   -5.9743   -1.5765    1.9581 O   0  0  0  0  0  0  0  0  0  0  0  0
   -3.6131   -2.6293    1.5791 C   0  0  0  0  0  0  0  0  0  0  0  0
   -2.9134   -1.8367    2.4419 C   0  0  0  0  0  0  0  0  0  0  0  0
   -1.6623   -2.1848    2.9455 C   0  0  0  0  0  0  0  0  0  0  0  0
   -1.0804   -3.3614    2.5838 C   0  0  0  0  0  0  0  0  0  0  0  0
    0.5057   -3.8386    3.2078 Cl  0  0  0  0  0  0  0  0  0  0  0  0
   -1.7585   -4.1997    1.7074 C   0  0  0  0  0  0  0  0  0  0  0  0
   -2.9957   -3.8440    1.2149 C   0  0  0  0  0  0  0  0  0  0  0  0
    0.3731    0.6018   -0.1590 C   0  0  0  0  0  0  0  0  0  0  0  0
    0.1147   -0.5816    0.1546 O   0  0  0  0  0  0  0  0  0  0  0  0
    1.6279    1.1530    0.1472 N   0  0  0  0  0  0  0  0  0  0  0  0
    2.7973    0.6674    0.7260 C   0  0  1  0  0  0  0  0  0  0  0  0
    3.0970    0.7519    2.1574 C   0  0  0  0  0  0  0  0  0  0  0  0
    3.2041    2.0908    2.7853 C   0  0  0  0  0  0  0  0  0  0  0  0
    2.0455    2.9536    2.8559 C   0  0  0  0  0  0  0  0  0  0  0  0
    2.1913    4.3171    3.2466 O   0  0  0  0  0  0  0  0  0  0  0  0
    0.8848    2.6242    2.6032 O   0  0  0  0  0  0  0  0  0  0  0  0
    3.3069   -0.6611    0.2345 C   0  0  0  0  0  0  0  0  0  0  0  0
    2.6000   -1.6296   -0.0080 O   0  0  0  0  0  0  0  0  0  0  0  0
    4.7033   -0.7750    0.0374 N   0  0  0  0  0  0  0  0  0  0  0  0
    5.3075   -2.0332   -0.4586 C   0  0  1  0  0  0  0  0  0  0  0  0
    5.3995   -1.9790   -1.9558 C   0  0  0  0  0  0  0  0  0  0  0  0
    5.8928   -3.1975   -2.6027 C   0  0  0  0  0  0  0  0  0  0  0  0
    6.2750   -3.1358   -3.9638 N   0  0  0  0  0  0  0  0  0  0  0  0
    5.9983   -4.3147   -2.0067 O   0  0  0  0  0  0  0  0  0  0  0  0
    6.5881   -2.1684    0.2343 C   0  0  0  0  0  0  0  0  0  0  0  0
    6.5343   -1.9462    1.5066 O   0  0  0  0  0  0  0  0  0  0  0  0
    7.8582   -2.4866   -0.2483 N   0  0  0  0  0  0  0  0  0  0  0  0
    9.0402   -2.5719    0.6001 C   0  0  0  0  0  0  0  0  0  0  0  0
    9.1384   -3.7944    1.3931 C   0  0  0  0  0  0  0  0  0  0  0  0
   10.1484   -3.9286    2.3161 C   0  0  0  0  0  0  0  0  0  0  0  0
   10.3011   -5.0611    3.0891 C   0  0  0  0  0  0  0  0  0  0  0  0
    9.4294   -6.0942    2.9477 N   0  0  0  0  0  0  0  0  0  0  0  0
    8.4149   -6.0036    2.0468 C   0  0  0  0  0  0  0  0  0  0  0  0
    8.2754   -4.8548    1.2751 C   0  0  0  0  0  0  0  0  0  0  0  0
   -6.2647    5.2515   -2.3686 H   0  0  0  0  0  0  0  0  0  0  0  0
   -6.2774    7.0407   -1.9631 H   0  0  0  0  0  0  0  0  0  0  0  0
   -3.6425    5.0260   -1.3297 H   0  0  0  0  0  0  0  0  0  0  0  0
   -1.7615    6.9159   -2.2311 H   0  0  0  0  0  0  0  0  0  0  0  0
   -1.8691    5.7016   -3.6189 H   0  0  0  0  0  0  0  0  0  0  0  0
   -0.0706    5.1125   -1.8727 H   0  0  0  0  0  0  0  0  0  0  0  0
   -1.3315    5.2491   -0.6252 H   0  0  0  0  0  0  0  0  0  0  0  0
   -2.5300    3.2722   -1.5578 H   0  0  0  0  0  0  0  0  0  0  0  0
   -1.2572    3.1744   -2.8473 H   0  0  0  0  0  0  0  0  0  0  0  0
    0.4946    3.0668   -1.3656 H   0  0  0  0  0  0  0  0  0  0  0  0
   -0.5154    3.2117    0.1157 H   0  0  0  0  0  0  0  0  0  0  0  0
   -0.7434    0.9329   -1.9415 H   0  0  0  0  0  0  0  0  0  0  0  0
   -2.4347    1.6873    0.4252 H   0  0  0  0  0  0  0  0  0  0  0  0
   -4.1509    0.0396    0.8466 H   0  0  0  0  0  0  0  0  0  0  0  0
   -5.0488    1.3059   -1.7880 H   0  0  0  0  0  0  0  0  0  0  0  0
   -4.5259    2.0542   -0.2308 H   0  0  0  0  0  0  0  0  0  0  0  0
   -6.3742    2.3874    1.6281 H   0  0  0  0  0  0  0  0  0  0  0  0
   -8.9487    1.8942    1.7489 H   0  0  0  0  0  0  0  0  0  0  0  0
  -10.8079    0.5228    0.2167 H   0  0  0  0  0  0  0  0  0  0  0  0
  -11.0900   -0.8173   -1.8209 H   0  0  0  0  0  0  0  0  0  0  0  0
   -9.0854   -1.2604   -3.1952 H   0  0  0  0  0  0  0  0  0  0  0  0
   -6.8746   -0.3819   -2.5581 H   0  0  0  0  0  0  0  0  0  0  0  0
   -4.5238   -1.8809   -1.2299 H   0  0  0  0  0  0  0  0  0  0  0  0
   -3.3159   -0.9021    2.7767 H   0  0  0  0  0  0  0  0  0  0  0  0
   -1.1341   -1.5301    3.6294 H   0  0  0  0  0  0  0  0  0  0  0  0
   -1.2752   -5.1276    1.4394 H   0  0  0  0  0  0  0  0  0  0  0  0
   -3.5009   -4.5282    0.5350 H   0  0  0  0  0  0  0  0  0  0  0  0
    1.6561    2.2269   -0.1382 H   0  0  0  0  0  0  0  0  0  0  0  0
    3.6384    1.3621    0.2372 H   0  0  0  0  0  0  0  0  0  0  0  0
    2.3900    0.1591    2.8024 H   0  0  0  0  0  0  0  0  0  0  0  0
    4.0969    0.2258    2.3900 H   0  0  0  0  0  0  0  0  0  0  0  0
    3.9793    2.6516    2.1750 H   0  0  0  0  0  0  0  0  0  0  0  0
    3.7209    1.9919    3.7939 H   0  0  0  0  0  0  0  0  0  0  0  0
    1.5875    5.0288    2.8982 H   0  0  0  0  0  0  0  0  0  0  0  0
    5.3406    0.0039    0.2324 H   0  0  0  0  0  0  0  0  0  0  0  0
    4.6086   -2.8364   -0.2054 H   0  0  0  0  0  0  0  0  0  0  0  0
    5.9158   -1.0561   -2.3126 H   0  0  0  0  0  0  0  0  0  0  0  0
    4.3355   -1.8293   -2.3099 H   0  0  0  0  0  0  0  0  0  0  0  0
    5.7291   -2.4964   -4.6002 H   0  0  0  0  0  0  0  0  0  0  0  0
    7.0556   -3.6724   -4.4007 H   0  0  0  0  0  0  0  0  0  0  0  0
    8.0301   -2.6546   -1.2564 H   0  0  0  0  0  0  0  0  0  0  0  0
    9.9467   -2.4829   -0.0004 H   0  0  0  0  0  0  0  0  0  0  0  0
    8.9642   -1.7145    1.3400 H   0  0  0  0  0  0  0  0  0  0  0  0
   10.8521   -3.1268    2.4561 H   0  0  0  0  0  0  0  0  0  0  0  0
   11.0852   -5.1934    3.8189 H   0  0  0  0  0  0  0  0  0  0  0  0
    7.7587   -6.8520    1.9830 H   0  0  0  0  0  0  0  0  0  0  0  0
    7.4512   -4.8259    0.5681 H   0  0  0  0  0  0  0  0  0  0  0  0
  1  2  1  0
  2  3  2  0
  2  4  1  0
  4  5  1  0
  5  6  1  0
  6  7  1  0
  7  8  1  0
  8  9  1  0
  9 10  1  0
 10 11  1  0
 11 12  2  0
 11 13  1  0
 13 14  1  0
 14 15  1  0
 15 16  2  0
 16 17  1  0
 17 18  1  0
 18 19  2  0
 19 20  1  0
 20 21  2  0
 21 22  1  0
 22 23  2  0
 13 24  1  0
 24 25  1  0
 25 26  2  0
 25 27  2  0
 25 28  1  0
 28 29  2  0
 29 30  1  0
 30 31  2  0
 31 32  1  0
 31 33  1  0
 33 34  2  0
  9 35  1  0
 35 36  2  0
 35 37  1  0
 37 38  1  0
 38 39  1  0
 39 40  1  0
 40 41  1  0
 41 42  1  0
 41 43  2  0
 38 44  1  0
 44 45  2  0
 44 46  1  0
 46 47  1  0
 47 48  1  0
 48 49  1  0
 49 50  1  0
 49 51  2  0
 47 52  1  0
 52 53  2  0
 52 54  1  0
 54 55  1  0
 55 56  1  0
 56 57  2  0
 57 58  1  0
 58 59  2  0
 59 60  1  0
 60 61  2  0
 23 15  1  0
 34 28  1  0
 61 56  1  0
 23 18  1  0
  1 62  1  0
  1 63  1  0
  4 64  1  0
  5 65  1  0
  5 66  1  0
  6 67  1  0
  6 68  1  0
  7 69  1  0
  7 70  1  0
  8 71  1  0
  8 72  1  0
  9 73  1  6
 10 74  1  0
 13 75  1  1
 14 76  1  0
 14 77  1  0
 16 78  1  0
 17 79  1  0
 19 80  1  0
 20 81  1  0
 21 82  1  0
 22 83  1  0
 24 84  1  0
 29 85  1  0
 30 86  1  0
 33 87  1  0
 34 88  1  0
 37 89  1  0
 38 90  1  6
 39 91  1  0
 39 92  1  0
 40 93  1  0
 40 94  1  0
 42 95  1  0
 46 96  1  0
 47 97  1  6
 48 98  1  0
 48 99  1  0
 50100  1  0
 50101  1  0
 54102  1  0
 55103  1  0
 55104  1  0
 57105  1  0
 58106  1  0
 60107  1  0
 61108  1  0
M  END
$$$$
[H]c1nc(N([H])[H])c2c(-c3c([H])c([H])c(Oc4c([H])c([H])c([H])c([H])c4[H])c([H])c3[H])c([H])n([C@]3([H])C([H])([H])[C@@]([H])(C([H])([H])N4C([H])([H])C([H])([H])N([H])C([H])([H])C4([H])[H])C3([H])[H])c2n1
     RDKit          3D

 64 69  0  0  0  0  0  0  0  0999 V2000
    2.8208   -2.4634   -3.4220 N   0  0  0  0  0  0  0  0  0  0  0  0
    1.4256   -2.5414   -3.1752 C   0  0  0  0  0  0  0  0  0  0  0  0
    0.6067   -3.2935   -3.9048 N   0  0  0  0  0  0  0  0  0  0  0  0
   -0.7144   -3.3620   -3.7050 C   0  0  0  0  0  0  0  0  0  0  0  0
   -1.2145   -2.6230   -2.7098 N   0  0  0  0  0  0  0  0  0  0  0  0
   -0.4846   -1.8379   -1.9212 C   0  0  0  0  0  0  0  0  0  0  0  0
   -0.7627   -1.0132   -0.8861 N   0  0  0  0  0  0  0  0  0  0  0  0
    0.3527   -0.4395   -0.4418 C   0  0  0  0  0  0  0  0  0  0  0  0
    1.4275   -0.9080   -1.2218 C   0  0  0  0  0  0  0  0  0  0  0  0
    2.8227   -0.5542   -1.0249 C   0  0  0  0  0  0  0  0  0  0  0  0
    3.2801    0.7414   -1.1859 C   0  0  0  0  0  0  0  0  0  0  0  0
    4.5974    1.0373   -0.9426 C   0  0  0  0  0  0  0  0  0  0  0  0
    5.4936    0.0703   -0.5367 C   0  0  0  0  0  0  0  0  0  0  0  0
    6.8210    0.4182   -0.3018 O   0  0  0  0  0  0  0  0  0  0  0  0
    7.1656    0.8215    0.9798 C   0  0  0  0  0  0  0  0  0  0  0  0
    7.5833   -0.0787    1.9344 C   0  0  0  0  0  0  0  0  0  0  0  0
    7.9183    0.3616    3.2011 C   0  0  0  0  0  0  0  0  0  0  0  0
    7.8363    1.6910    3.5099 C   0  0  0  0  0  0  0  0  0  0  0  0
    7.4167    2.6149    2.5591 C   0  0  0  0  0  0  0  0  0  0  0  0
    7.0892    2.1404    1.3020 C   0  0  0  0  0  0  0  0  0  0  0  0
    5.0465   -1.2205   -0.3742 C   0  0  0  0  0  0  0  0  0  0  0  0
    3.7313   -1.5044   -0.6193 C   0  0  0  0  0  0  0  0  0  0  0  0
    0.9030   -1.7760   -2.1415 C   0  0  0  0  0  0  0  0  0  0  0  0
   -2.0953   -0.8105   -0.3660 C   0  0  2  0  0  0  0  0  0  0  0  0
   -2.9992   -0.0764   -1.3598 C   0  0  0  0  0  0  0  0  0  0  0  0
   -3.5015    0.7528   -0.1811 C   0  0  1  0  0  0  0  0  0  0  0  0
   -4.6957    0.0474    0.4096 C   0  0  0  0  0  0  0  0  0  0  0  0
   -5.2080    0.7643    1.5213 N   0  0  0  0  0  0  0  0  0  0  0  0
   -6.2961   -0.0421    2.0826 C   0  0  0  0  0  0  0  0  0  0  0  0
   -7.4742   -0.0656    1.1629 C   0  0  0  0  0  0  0  0  0  0  0  0
   -7.9309    1.2907    0.9433 N   0  0  0  0  0  0  0  0  0  0  0  0
   -6.8702    2.0442    0.2631 C   0  0  0  0  0  0  0  0  0  0  0  0
   -5.6682    2.0745    1.1876 C   0  0  0  0  0  0  0  0  0  0  0  0
   -2.2183    0.3784    0.5599 C   0  0  0  0  0  0  0  0  0  0  0  0
    3.4267   -3.2870   -3.2548 H   0  0  0  0  0  0  0  0  0  0  0  0
    3.2831   -1.5963   -3.7729 H   0  0  0  0  0  0  0  0  0  0  0  0
   -1.3608   -4.0003   -4.3337 H   0  0  0  0  0  0  0  0  0  0  0  0
    0.5094    0.2682    0.3623 H   0  0  0  0  0  0  0  0  0  0  0  0
    2.5718    1.4994   -1.5054 H   0  0  0  0  0  0  0  0  0  0  0  0
    4.9076    2.0777   -1.0854 H   0  0  0  0  0  0  0  0  0  0  0  0
    7.6592   -1.1352    1.7236 H   0  0  0  0  0  0  0  0  0  0  0  0
    8.2467   -0.3220    3.9613 H   0  0  0  0  0  0  0  0  0  0  0  0
    8.0975    2.0567    4.5058 H   0  0  0  0  0  0  0  0  0  0  0  0
    7.3521    3.6526    2.7980 H   0  0  0  0  0  0  0  0  0  0  0  0
    6.7631    2.8642    0.5656 H   0  0  0  0  0  0  0  0  0  0  0  0
    5.7443   -2.0027   -0.0524 H   0  0  0  0  0  0  0  0  0  0  0  0
    3.3981   -2.5465   -0.4726 H   0  0  0  0  0  0  0  0  0  0  0  0
   -2.5725   -1.7386    0.0118 H   0  0  0  0  0  0  0  0  0  0  0  0
   -3.7547   -0.7117   -1.8293 H   0  0  0  0  0  0  0  0  0  0  0  0
   -2.4135    0.5241   -2.0857 H   0  0  0  0  0  0  0  0  0  0  0  0
   -3.5930    1.8075   -0.4282 H   0  0  0  0  0  0  0  0  0  0  0  0
   -5.4850   -0.0801   -0.3922 H   0  0  0  0  0  0  0  0  0  0  0  0
   -4.4384   -1.0031    0.7034 H   0  0  0  0  0  0  0  0  0  0  0  0
   -5.8731   -1.0853    2.1384 H   0  0  0  0  0  0  0  0  0  0  0  0
   -6.6138    0.3469    3.0512 H   0  0  0  0  0  0  0  0  0  0  0  0
   -8.2996   -0.5943    1.7293 H   0  0  0  0  0  0  0  0  0  0  0  0
   -7.3192   -0.6263    0.2191 H   0  0  0  0  0  0  0  0  0  0  0  0
   -7.9823    1.7284    1.9108 H   0  0  0  0  0  0  0  0  0  0  0  0
   -6.5904    1.6083   -0.6979 H   0  0  0  0  0  0  0  0  0  0  0  0
   -7.2247    3.0912    0.1748 H   0  0  0  0  0  0  0  0  0  0  0  0
   -5.9495    2.6077    2.1429 H   0  0  0  0  0  0  0  0  0  0  0  0
   -4.8710    2.6670    0.7398 H   0  0  0  0  0  0  0  0  0  0  0  0
   -1.4445    1.1501    0.3551 H   0  0  0  0  0  0  0  0  0  0  0  0
   -2.3779    0.1409    1.6226 H   0  0  0  0  0  0  0  0  0  0  0  0
  1  2  1  0
  2  3  2  0
  3  4  1  0
  4  5  2  0
  5  6  1  0
  6  7  1  0
  7  8  1  0
  8  9  2  0
  9 10  1  0
 10 11  2  0
 11 12  1  0
 12 13  2  0
 13 14  1  0
 14 15  1  0
 15 16  2  0
 16 17  1  0
 17 18  2  0
 18 19  1  0
 19 20  2  0
 13 21  1  0
 21 22  2  0
  9 23  1  0
  7 24  1  0
 24 25  1  0
 25 26  1  0
 26 27  1  0
 27 28  1  0
 28 29  1  0
 29 30  1  0
 30 31  1  0
 31 32  1  0
 32 33  1  0
 26 34  1  0
 23  2  1  0
 34 24  1  0
 23  6  2  0
 33 28  1  0
 22 10  1  0
 20 15  1  0
  1 35  1  0
  1 36  1  0
  4 37  1  0
  8 38  1  0
 11 39  1  0
 12 40  1  0
 16 41  1  0
 17 42  1  0
 18 43  1  0
 19 44  1  0
 20 45  1  0
 21 46  1  0
 22 47  1  0
 24 48  1  1
 25 49  1  0
 25 50  1  0
 26 51  1  6
 27 52  1  0
 27 53  1  0
 29 54  1  0
 29 55  1  0
 30 56  1  0
 30 57  1  0
 31 58  1  0
 32 59  1  0
 32 60  1  0
 33 61  1  0
 33 62  1  0
 34 63  1  0
 34 64  1  0
M  END
$$$$
