[H]c1nc2c([H])c(OC([H])([H])C([H])([H])C([H])([H])N3C([H])([H])C([H])([H])OC([H])([H])C3([H])[H])c(OC([H])([H])[H])c([H])c2c(Oc2c([H])c([H])c(N([H])C(=O)N([H])c3c(F)c([H])c([H])c([H])c3F)c([H])c2F)c1[H]
     RDKit          3D

 71 75  0  0  0  0  0  0  0  0999 V2000
    2.2684    2.4175   -0.2532 C   0  0  0  0  0  0  0  0  0  0  0  0
    3.1339    1.3494    0.1281 O   0  0  0  0  0  0  0  0  0  0  0  0
    2.5614    0.0944    0.3003 C   0  0  0  0  0  0  0  0  0  0  0  0
    1.2120   -0.1396    0.1180 C   0  0  0  0  0  0  0  0  0  0  0  0
    0.6476   -1.3921    0.2909 C   0  0  0  0  0  0  0  0  0  0  0  0
   -0.7295   -1.5906    0.0970 C   0  0  0  0  0  0  0  0  0  0  0  0
   -1.4406   -0.4831   -0.2646 O   0  0  0  0  0  0  0  0  0  0  0  0
   -2.7726   -0.3774   -0.5657 C   0  0  0  0  0  0  0  0  0  0  0  0
   -3.6093    0.3909    0.2138 C   0  0  0  0  0  0  0  0  0  0  0  0
   -4.9541    0.4986   -0.0912 C   0  0  0  0  0  0  0  0  0  0  0  0
   -5.5361   -0.1368   -1.1657 C   0  0  0  0  0  0  0  0  0  0  0  0
   -6.9019   -0.0668   -1.4949 N   0  0  0  0  0  0  0  0  0  0  0  0
   -7.9489    0.3511   -0.6743 C   0  0  0  0  0  0  0  0  0  0  0  0
   -7.8151    0.7304    0.5222 O   0  0  0  0  0  0  0  0  0  0  0  0
   -9.3128    0.3873   -1.1351 N   0  0  0  0  0  0  0  0  0  0  0  0
  -10.3989    0.7975   -0.3407 C   0  0  0  0  0  0  0  0  0  0  0  0
  -11.0892   -0.1455    0.4244 C   0  0  0  0  0  0  0  0  0  0  0  0
  -10.7191   -1.4487    0.4094 F   0  0  0  0  0  0  0  0  0  0  0  0
  -12.1459    0.3133    1.1818 C   0  0  0  0  0  0  0  0  0  0  0  0
  -12.5247    1.6255    1.2037 C   0  0  0  0  0  0  0  0  0  0  0  0
  -11.8118    2.5329    0.4278 C   0  0  0  0  0  0  0  0  0  0  0  0
  -10.7456    2.1348   -0.3502 C   0  0  0  0  0  0  0  0  0  0  0  0
  -10.0448    3.0342   -1.1145 F   0  0  0  0  0  0  0  0  0  0  0  0
   -4.6728   -0.9072   -1.9406 C   0  0  0  0  0  0  0  0  0  0  0  0
   -3.3484   -1.0184   -1.6477 C   0  0  0  0  0  0  0  0  0  0  0  0
   -2.5081   -1.7682   -2.4386 F   0  0  0  0  0  0  0  0  0  0  0  0
   -1.2623   -2.8320    0.2734 C   0  0  0  0  0  0  0  0  0  0  0  0
   -0.4151   -3.8674    0.6421 C   0  0  0  0  0  0  0  0  0  0  0  0
    0.9037   -3.6931    0.8311 N   0  0  0  0  0  0  0  0  0  0  0  0
    1.4260   -2.4635    0.6559 C   0  0  0  0  0  0  0  0  0  0  0  0
    2.7874   -2.2244    0.8391 C   0  0  0  0  0  0  0  0  0  0  0  0
    3.3539   -0.9726    0.6674 C   0  0  0  0  0  0  0  0  0  0  0  0
    4.7105   -0.7500    0.8548 O   0  0  0  0  0  0  0  0  0  0  0  0
    5.6117   -1.7647    1.2318 C   0  0  0  0  0  0  0  0  0  0  0  0
    7.0057   -1.1367    1.3451 C   0  0  0  0  0  0  0  0  0  0  0  0
    7.3604   -0.5790    0.0097 C   0  0  0  0  0  0  0  0  0  0  0  0
    8.6606    0.0491   -0.0269 N   0  0  0  0  0  0  0  0  0  0  0  0
    8.9297    0.5445   -1.3652 C   0  0  0  0  0  0  0  0  0  0  0  0
    9.6770    1.8480   -1.3376 C   0  0  0  0  0  0  0  0  0  0  0  0
   10.6668    1.8797   -0.3800 O   0  0  0  0  0  0  0  0  0  0  0  0
   10.2486    1.5833    0.8916 C   0  0  0  0  0  0  0  0  0  0  0  0
    8.8186    1.0853    0.9695 C   0  0  0  0  0  0  0  0  0  0  0  0
    1.5132    2.5805    0.5352 H   0  0  0  0  0  0  0  0  0  0  0  0
    1.7242    2.1701   -1.1938 H   0  0  0  0  0  0  0  0  0  0  0  0
    2.8475    3.3348   -0.4765 H   0  0  0  0  0  0  0  0  0  0  0  0
    0.5732    0.6705   -0.1668 H   0  0  0  0  0  0  0  0  0  0  0  0
   -3.2152    0.9244    1.0841 H   0  0  0  0  0  0  0  0  0  0  0  0
   -5.5567    1.1416    0.5726 H   0  0  0  0  0  0  0  0  0  0  0  0
   -7.1673   -0.3643   -2.4826 H   0  0  0  0  0  0  0  0  0  0  0  0
   -9.4720    0.0854   -2.1192 H   0  0  0  0  0  0  0  0  0  0  0  0
  -12.6954   -0.3976    1.7810 H   0  0  0  0  0  0  0  0  0  0  0  0
  -13.3534    2.0006    1.7931 H   0  0  0  0  0  0  0  0  0  0  0  0
  -12.0873    3.5903    0.4215 H   0  0  0  0  0  0  0  0  0  0  0  0
   -5.0959   -1.4221   -2.7959 H   0  0  0  0  0  0  0  0  0  0  0  0
   -2.3267   -2.9937    0.1366 H   0  0  0  0  0  0  0  0  0  0  0  0
   -0.9033   -4.8442    0.7681 H   0  0  0  0  0  0  0  0  0  0  0  0
    3.4130   -3.0536    1.1247 H   0  0  0  0  0  0  0  0  0  0  0  0
    5.3033   -2.0970    2.2576 H   0  0  0  0  0  0  0  0  0  0  0  0
    5.6141   -2.6270    0.5586 H   0  0  0  0  0  0  0  0  0  0  0  0
    6.9508   -0.3428    2.1470 H   0  0  0  0  0  0  0  0  0  0  0  0
    7.7534   -1.9166    1.6152 H   0  0  0  0  0  0  0  0  0  0  0  0
    6.6294    0.1242   -0.3985 H   0  0  0  0  0  0  0  0  0  0  0  0
    7.4302   -1.4554   -0.6918 H   0  0  0  0  0  0  0  0  0  0  0  0
    7.9979    0.6656   -1.9373 H   0  0  0  0  0  0  0  0  0  0  0  0
    9.5693   -0.2047   -1.8978 H   0  0  0  0  0  0  0  0  0  0  0  0
   10.1991    1.9404   -2.3331 H   0  0  0  0  0  0  0  0  0  0  0  0
    9.0292    2.7377   -1.2611 H   0  0  0  0  0  0  0  0  0  0  0  0
   10.8941    0.8147    1.3864 H   0  0  0  0  0  0  0  0  0  0  0  0
   10.2992    2.5192    1.4930 H   0  0  0  0  0  0  0  0  0  0  0  0
    8.1294    1.9198    0.8458 H   0  0  0  0  0  0  0  0  0  0  0  0
    8.7264    0.6092    1.9681 H   0  0  0  0  0  0  0  0  0  0  0  0
  1  2  1  0
  2  3  1  0
  3  4  2  0
  4  5  1  0
  5  6  2  0
  6  7  1  0
  7  8  1  0
  8  9  2  0
  9 10  1  0
 10 11  2  0
 11 12  1  0
 12 13  1  0
 13 14  2  0
 13 15  1  0
 15 16  1  0
 16 17  2  0
 17 18  1  0
 17 19  1  0
 19 20  2  0
 20 21  1  0
 21 22  2  0
 22 23  1  0
 11 24  1  0
 24 25  2  0
 25 26  1  0
  6 27  1  0
 27 28  2  0
 28 29  1  0
 29 30  2  0
 30 31  1  0
 31 32  2  0
 32 33  1  0
 33 34  1  0
 34 35  1  0
 35 36  1  0
 36 37  1  0
 37 38  1  0
 38 39  1  0
 39 40  1  0
 40 41  1  0
 41 42  1  0
 32  3  1  0
 42 37  1  0
 30  5  1  0
 25  8  1  0
 22 16  1  0
  1 43  1  0
  1 44  1  0
  1 45  1  0
  4 46  1  0
  9 47  1  0
 10 48  1  0
 12 49  1  0
 15 50  1  0
 19 51  1  0
 20 52  1  0
 21 53  1  0
 24 54  1  0
 27 55  1  0
 28 56  1  0
 31 57  1  0
 34 58  1  0
 34 59  1  0
 35 60  1  0
 35 61  1  0
 36 62  1  0
 36 63  1  0
 38 64  1  0
 38 65  1  0
 39 66  1  0
 39 67  1  0
 41 68  1  0
 41 69  1  0
 42 70  1  0
 42 71  1  0
M  END
$$$$
[H]c1nc2c([H])c(OC([H])([H])C([H])([H])C([H])([H])N3C([H])([H])C([H])([H])OC([H])([H])C3([H])[H])c(OC([H])([H])[H])c([H])c2c(Oc2c([H])c([H])c(N([H])C(=O)N([H])c3c(Cl)c([H])c([H])c([H])c3Cl)c([H])c2F)c1[H]
     RDKit          3D

 71 75  0  0  0  0  0  0  0  0999 V2000
    1.6998    4.9294    1.0614 C   0  0  0  0  0  0  0  0  0  0  0  0
    2.5792    4.0229    0.4303 O   0  0  0  0  0  0  0  0  0  0  0  0
    2.1484    2.7568    0.0185 C   0  0  0  0  0  0  0  0  0  0  0  0
    0.8437    2.3132    0.2086 C   0  0  0  0  0  0  0  0  0  0  0  0
    0.4000    1.0625   -0.1972 C   0  0  0  0  0  0  0  0  0  0  0  0
   -0.8884    0.6304   -0.0267 C   0  0  0  0  0  0  0  0  0  0  0  0
   -1.8189    1.4613    0.6050 O   0  0  0  0  0  0  0  0  0  0  0  0
   -3.1640    1.0489    0.6517 C   0  0  0  0  0  0  0  0  0  0  0  0
   -3.7183    0.6483    1.8396 C   0  0  0  0  0  0  0  0  0  0  0  0
   -5.0409    0.2331    1.8844 C   0  0  0  0  0  0  0  0  0  0  0  0
   -5.8473    0.2068    0.7508 C   0  0  0  0  0  0  0  0  0  0  0  0
   -7.1578   -0.3440    0.7264 N   0  0  0  0  0  0  0  0  0  0  0  0
   -7.2441   -1.7153    1.2402 C   0  0  0  0  0  0  0  0  0  0  0  0
   -6.0915   -2.1767    1.6512 O   0  0  0  0  0  0  0  0  0  0  0  0
   -8.3818   -2.3938    1.2577 N   0  0  0  0  0  0  0  0  0  0  0  0
   -9.5198   -3.1572    1.3040 C   0  0  0  0  0  0  0  0  0  0  0  0
   -9.9947   -3.8895    0.2268 C   0  0  0  0  0  0  0  0  0  0  0  0
   -9.0798   -3.8589   -1.2519 Cl  0  0  0  0  0  0  0  0  0  0  0  0
  -11.1416   -4.6234    0.2910 C   0  0  0  0  0  0  0  0  0  0  0  0
  -11.8665   -4.6503    1.4629 C   0  0  0  0  0  0  0  0  0  0  0  0
  -11.4185   -3.9353    2.5453 C   0  0  0  0  0  0  0  0  0  0  0  0
  -10.2561   -3.1861    2.4910 C   0  0  0  0  0  0  0  0  0  0  0  0
   -9.7263   -2.3014    3.9046 Cl  0  0  0  0  0  0  0  0  0  0  0  0
   -5.2380    0.6262   -0.4149 C   0  0  0  0  0  0  0  0  0  0  0  0
   -3.9390    1.0389   -0.4921 C   0  0  0  0  0  0  0  0  0  0  0  0
   -3.3492    1.4497   -1.6638 F   0  0  0  0  0  0  0  0  0  0  0  0
   -1.3043   -0.6354   -0.4707 C   0  0  0  0  0  0  0  0  0  0  0  0
   -0.3508   -1.4084   -1.0791 C   0  0  0  0  0  0  0  0  0  0  0  0
    0.9091   -0.9852   -1.2437 N   0  0  0  0  0  0  0  0  0  0  0  0
    1.3181    0.2281   -0.8208 C   0  0  0  0  0  0  0  0  0  0  0  0
    2.6133    0.6579   -1.0124 C   0  0  0  0  0  0  0  0  0  0  0  0
    3.0360    1.9058   -0.6031 C   0  0  0  0  0  0  0  0  0  0  0  0
    4.3443    2.3261   -0.8027 O   0  0  0  0  0  0  0  0  0  0  0  0
    5.3359    1.5434   -1.3906 C   0  0  0  0  0  0  0  0  0  0  0  0
    6.6365    2.3219   -1.4138 C   0  0  0  0  0  0  0  0  0  0  0  0
    7.7279    1.5496   -2.0517 C   0  0  0  0  0  0  0  0  0  0  0  0
    8.0823    0.3149   -1.4821 N   0  0  0  0  0  0  0  0  0  0  0  0
    9.1139   -0.4284   -2.1044 C   0  0  0  0  0  0  0  0  0  0  0  0
   10.3968   -0.4859   -1.3178 C   0  0  0  0  0  0  0  0  0  0  0  0
   10.1092   -1.0209   -0.0695 O   0  0  0  0  0  0  0  0  0  0  0  0
    9.2865   -0.1492    0.6255 C   0  0  0  0  0  0  0  0  0  0  0  0
    7.9653    0.1191   -0.0879 C   0  0  0  0  0  0  0  0  0  0  0  0
    1.2476    4.4353    1.9470 H   0  0  0  0  0  0  0  0  0  0  0  0
    0.8991    5.2631    0.3469 H   0  0  0  0  0  0  0  0  0  0  0  0
    2.2392    5.8716    1.3100 H   0  0  0  0  0  0  0  0  0  0  0  0
    0.1176    2.9429    0.6935 H   0  0  0  0  0  0  0  0  0  0  0  0
   -3.1272    0.6447    2.7728 H   0  0  0  0  0  0  0  0  0  0  0  0
   -5.5057   -0.0985    2.8093 H   0  0  0  0  0  0  0  0  0  0  0  0
   -7.9749    0.1254    0.3950 H   0  0  0  0  0  0  0  0  0  0  0  0
   -7.7279   -3.5331    1.7231 H   0  0  0  0  0  0  0  0  0  0  0  0
  -11.5239   -5.1962   -0.5446 H   0  0  0  0  0  0  0  0  0  0  0  0
  -12.7747   -5.2300    1.5270 H   0  0  0  0  0  0  0  0  0  0  0  0
  -11.9826   -3.9563    3.4585 H   0  0  0  0  0  0  0  0  0  0  0  0
   -5.8518    0.6213   -1.3091 H   0  0  0  0  0  0  0  0  0  0  0  0
   -2.3127   -0.9400   -0.3120 H   0  0  0  0  0  0  0  0  0  0  0  0
   -0.6655   -2.3924   -1.4260 H   0  0  0  0  0  0  0  0  0  0  0  0
    3.3153   -0.0118   -1.4963 H   0  0  0  0  0  0  0  0  0  0  0  0
    5.0853    1.2385   -2.4321 H   0  0  0  0  0  0  0  0  0  0  0  0
    5.4204    0.6117   -0.8076 H   0  0  0  0  0  0  0  0  0  0  0  0
    6.4403    3.2076   -2.0768 H   0  0  0  0  0  0  0  0  0  0  0  0
    6.8751    2.7580   -0.4224 H   0  0  0  0  0  0  0  0  0  0  0  0
    8.6765    2.1639   -2.1179 H   0  0  0  0  0  0  0  0  0  0  0  0
    7.4439    1.3852   -3.1268 H   0  0  0  0  0  0  0  0  0  0  0  0
    9.3505   -0.0266   -3.1241 H   0  0  0  0  0  0  0  0  0  0  0  0
    8.7447   -1.4924   -2.2059 H   0  0  0  0  0  0  0  0  0  0  0  0
   11.0746   -1.1922   -1.8338 H   0  0  0  0  0  0  0  0  0  0  0  0
   10.8901    0.5148   -1.2652 H   0  0  0  0  0  0  0  0  0  0  0  0
    9.8082    0.7829    0.9035 H   0  0  0  0  0  0  0  0  0  0  0  0
    9.0209   -0.6663    1.5779 H   0  0  0  0  0  0  0  0  0  0  0  0
    7.3508   -0.8092    0.0827 H   0  0  0  0  0  0  0  0  0  0  0  0
    7.4384    0.9280    0.4488 H   0  0  0  0  0  0  0  0  0  0  0  0
  1  2  1  0
  2  3  1  0
  3  4  2  0
  4  5  1  0
  5  6  2  0
  6  7  1  0
  7  8  1  0
  8  9  2  0
  9 10  1  0
 10 11  2  0
 11 12  1  0
 12 13  1  0
 13 14  2  0
 13 15  1  0
 15 16  1  0
 16 17  2  0
 17 18  1  0
 17 19  1  0
 19 20  2  0
 20 21  1  0
 21 22  2  0
 22 23  1  0
 11 24  1  0
 24 25  2  0
 25 26  1  0
  6 27  1  0
 27 28  2  0
 28 29  1  0
 29 30  2  0
 30 31  1  0
 31 32  2  0
 32 33  1  0
 33 34  1  0
 34 35  1  0
 35 36  1  0
 36 37  1  0
 37 38  1  0
 38 39  1  0
 39 40  1  0
 40 41  1  0
 41 42  1  0
 32  3  1  0
 42 37  1  0
 30  5  1  0
 25  8  1  0
 22 16  1  0
  1 43  1  0
  1 44  1  0
  1 45  1  0
  4 46  1  0
  9 47  1  0
 10 48  1  0
 12 49  1  0
 15 50  1  0
 19 51  1  0
 20 52  1  0
 21 53  1  0
 24 54  1  0
 27 55  1  0
 28 56  1  0
 31 57  1  0
 34 58  1  0
 34 59  1  0
 35 60  1  0
 35 61  1  0
 36 62  1  0
 36 63  1  0
 38 64  1  0
 38 65  1  0
 39 66  1  0
 39 67  1  0
 41 68  1  0
 41 69  1  0
 42 70  1  0
 42 71  1  0
M  END
$$$$
[H]c1nc2c([H])c(OC([H])([H])C([H])([H])C([H])([H])N3C([H])([H])C([H])([H])OC([H])([H])C3([H])[H])c(OC([H])([H])[H])c([H])c2c(Oc2c([H])c([H])c(N([H])C(=O)c3c(F)c([H])c([H])c([H])c3F)c([H])c2F)c1[H]
     RDKit          3D

 69 73  0  0  0  0  0  0  0  0999 V2000
   -1.9921   -3.1908    0.1707 C   0  0  0  0  0  0  0  0  0  0  0  0
   -2.8403   -2.1656    0.6457 O   0  0  0  0  0  0  0  0  0  0  0  0
   -2.3233   -0.9183    0.9959 C   0  0  0  0  0  0  0  0  0  0  0  0
   -0.9865   -0.6930    0.8762 C   0  0  0  0  0  0  0  0  0  0  0  0
   -0.4390    0.5159    1.2086 C   0  0  0  0  0  0  0  0  0  0  0  0
    0.9423    0.7214    1.0771 C   0  0  0  0  0  0  0  0  0  0  0  0
    1.7123   -0.2872    0.6217 O   0  0  0  0  0  0  0  0  0  0  0  0
    3.0462   -0.3974    0.4349 C   0  0  0  0  0  0  0  0  0  0  0  0
    3.5645   -0.6044   -0.8202 C   0  0  0  0  0  0  0  0  0  0  0  0
    4.9529   -0.7179   -0.9931 C   0  0  0  0  0  0  0  0  0  0  0  0
    5.8382   -0.6306    0.0441 C   0  0  0  0  0  0  0  0  0  0  0  0
    7.2641   -0.7042   -0.0709 N   0  0  0  0  0  0  0  0  0  0  0  0
    7.9568   -0.2840   -1.1934 C   0  0  0  0  0  0  0  0  0  0  0  0
    7.2504    0.2013   -2.1492 O   0  0  0  0  0  0  0  0  0  0  0  0
    9.3910   -0.3189   -1.4351 C   0  0  0  0  0  0  0  0  0  0  0  0
   10.3237   -0.8326   -0.5793 C   0  0  0  0  0  0  0  0  0  0  0  0
    9.9431   -1.3811    0.6028 F   0  0  0  0  0  0  0  0  0  0  0  0
   11.6901   -0.8446   -0.8337 C   0  0  0  0  0  0  0  0  0  0  0  0
   12.1568   -0.3170   -2.0037 C   0  0  0  0  0  0  0  0  0  0  0  0
   11.2484    0.2098   -2.8918 C   0  0  0  0  0  0  0  0  0  0  0  0
    9.9088    0.2137   -2.6262 C   0  0  0  0  0  0  0  0  0  0  0  0
    9.0538    0.7372   -3.5185 F   0  0  0  0  0  0  0  0  0  0  0  0
    5.2922   -0.4194    1.3231 C   0  0  0  0  0  0  0  0  0  0  0  0
    3.9296   -0.3093    1.4887 C   0  0  0  0  0  0  0  0  0  0  0  0
    3.5260   -0.1213    2.7899 F   0  0  0  0  0  0  0  0  0  0  0  0
    1.4466    1.9453    1.4221 C   0  0  0  0  0  0  0  0  0  0  0  0
    0.5997    2.9421    1.8875 C   0  0  0  0  0  0  0  0  0  0  0  0
   -0.7248    2.7364    2.0110 N   0  0  0  0  0  0  0  0  0  0  0  0
   -1.2559    1.5235    1.6733 C   0  0  0  0  0  0  0  0  0  0  0  0
   -2.6239    1.3329    1.8098 C   0  0  0  0  0  0  0  0  0  0  0  0
   -3.1516    0.1068    1.4679 C   0  0  0  0  0  0  0  0  0  0  0  0
   -4.4777   -0.2269    1.5458 O   0  0  0  0  0  0  0  0  0  0  0  0
   -5.5903    0.4577    1.9088 C   0  0  0  0  0  0  0  0  0  0  0  0
   -5.9971    1.6411    1.0631 C   0  0  0  0  0  0  0  0  0  0  0  0
   -6.2869    1.2596   -0.3566 C   0  0  0  0  0  0  0  0  0  0  0  0
   -7.3475    0.3236   -0.5279 N   0  0  0  0  0  0  0  0  0  0  0  0
   -7.5673   -0.0294   -1.9157 C   0  0  0  0  0  0  0  0  0  0  0  0
   -8.4874   -1.1906   -2.0857 C   0  0  0  0  0  0  0  0  0  0  0  0
   -9.4043   -1.2933   -1.0385 O   0  0  0  0  0  0  0  0  0  0  0  0
   -9.7264   -0.0377   -0.5251 C   0  0  0  0  0  0  0  0  0  0  0  0
   -8.5560    0.6245    0.1707 C   0  0  0  0  0  0  0  0  0  0  0  0
   -2.5196   -4.1491    0.0780 H   0  0  0  0  0  0  0  0  0  0  0  0
   -1.1887   -3.3445    0.9428 H   0  0  0  0  0  0  0  0  0  0  0  0
   -1.4729   -2.8669   -0.7477 H   0  0  0  0  0  0  0  0  0  0  0  0
   -0.2859   -1.4460    0.5159 H   0  0  0  0  0  0  0  0  0  0  0  0
    2.9374   -0.6866   -1.7098 H   0  0  0  0  0  0  0  0  0  0  0  0
    5.2833   -0.9033   -2.0039 H   0  0  0  0  0  0  0  0  0  0  0  0
    7.7361   -1.1108    0.7845 H   0  0  0  0  0  0  0  0  0  0  0  0
   12.3379   -1.2675   -0.1040 H   0  0  0  0  0  0  0  0  0  0  0  0
   13.2071   -0.3051   -2.2418 H   0  0  0  0  0  0  0  0  0  0  0  0
   11.6652    0.6252   -3.8233 H   0  0  0  0  0  0  0  0  0  0  0  0
    5.9917   -0.3508    2.1417 H   0  0  0  0  0  0  0  0  0  0  0  0
    2.5026    2.1180    1.3165 H   0  0  0  0  0  0  0  0  0  0  0  0
    1.0428    3.9066    2.1530 H   0  0  0  0  0  0  0  0  0  0  0  0
   -3.2453    2.1277    2.1917 H   0  0  0  0  0  0  0  0  0  0  0  0
   -5.4400    0.8331    2.9673 H   0  0  0  0  0  0  0  0  0  0  0  0
   -6.4438   -0.2647    1.9844 H   0  0  0  0  0  0  0  0  0  0  0  0
   -5.1680    2.3573    1.0300 H   0  0  0  0  0  0  0  0  0  0  0  0
   -6.8397    2.2064    1.5327 H   0  0  0  0  0  0  0  0  0  0  0  0
   -5.3656    0.8360   -0.7940 H   0  0  0  0  0  0  0  0  0  0  0  0
   -6.5438    2.1883   -0.9067 H   0  0  0  0  0  0  0  0  0  0  0  0
   -7.9149    0.8782   -2.4451 H   0  0  0  0  0  0  0  0  0  0  0  0
   -6.5743   -0.3193   -2.3460 H   0  0  0  0  0  0  0  0  0  0  0  0
   -7.9188   -2.1329   -2.1787 H   0  0  0  0  0  0  0  0  0  0  0  0
   -9.0234   -1.0519   -3.0698 H   0  0  0  0  0  0  0  0  0  0  0  0
  -10.1551    0.6290   -1.3014 H   0  0  0  0  0  0  0  0  0  0  0  0
  -10.5305   -0.1883    0.2226 H   0  0  0  0  0  0  0  0  0  0  0  0
   -8.7289    1.7301    0.0581 H   0  0  0  0  0  0  0  0  0  0  0  0
   -8.6038    0.3742    1.2232 H   0  0  0  0  0  0  0  0  0  0  0  0
  1  2  1  0
  2  3  1  0
  3  4  2  0
  4  5  1  0
  5  6  2  0
  6  7  1  0
  7  8  1  0
  8  9  2  0
  9 10  1  0
 10 11  2  0
 11 12  1  0
 12 13  1  0
 13 14  2  0
 13 15  1  0
 15 16  2  0
 16 17  1  0
 16 18  1  0
 18 19  2  0
 19 20  1  0
 20 21  2  0
 21 22  1  0
 11 23  1  0
 23 24  2  0
 24 25  1  0
  6 26  1  0
 26 27  2  0
 27 28  1  0
 28 29  2  0
 29 30  1  0
 30 31  2  0
 31 32  1  0
 32 33  1  0
 33 34  1  0
 34 35  1  0
 35 36  1  0
 36 37  1  0
 37 38  1  0
 38 39  1  0
 39 40  1  0
 40 41  1  0
 31  3  1  0
 41 36  1  0
 29  5  1  0
 24  8  1  0
 21 15  1  0
  1 42  1  0
  1 43  1  0
  1 44  1  0
  4 45  1  0
  9 46  1  0
 10 47  1  0
 12 48  1  0
 18 49  1  0
 19 50  1  0
 20 51  1  0
 23 52  1  0
 26 53  1  0
 27 54  1  0
 30 55  1  0
 33 56  1  0
 33 57  1  0
 34 58  1  0
 34 59  1  0
 35 60  1  0
 35 61  1  0
 37 62  1  0
 37 63  1  0
 38 64  1  0
 38 65  1  0
 40 66  1  0
 40 67  1  0
 41 68  1  0
 41 69  1  0
M  END
$$$$
[H]c1nc2c([H])c(OC([H])([H])[H])c(OC([H])([H])[H])c([H])c2c(Oc2c([H])c([H])c(N([H])C(=O)N([H])c3c(F)c([H])c([H])c([H])c3F)c([H])c2F)c1[H]
     RDKit          3D

 52 55  0  0  0  0  0  0  0  0999 V2000
    8.6360   -1.9494   -0.0419 C   0  0  0  0  0  0  0  0  0  0  0  0
    7.9647   -0.7652    0.3171 O   0  0  0  0  0  0  0  0  0  0  0  0
    6.5997   -0.6604    0.0829 C   0  0  0  0  0  0  0  0  0  0  0  0
    5.8989   -1.6976   -0.4940 C   0  0  0  0  0  0  0  0  0  0  0  0
    4.5270   -1.6261   -0.7435 C   0  0  0  0  0  0  0  0  0  0  0  0
    3.8874   -2.6669   -1.3095 N   0  0  0  0  0  0  0  0  0  0  0  0
    2.5660   -2.5876   -1.5458 C   0  0  0  0  0  0  0  0  0  0  0  0
    1.8423   -1.4404   -1.2133 C   0  0  0  0  0  0  0  0  0  0  0  0
    2.4539   -0.3719   -0.6407 C   0  0  0  0  0  0  0  0  0  0  0  0
    1.8447    0.7900   -0.2754 O   0  0  0  0  0  0  0  0  0  0  0  0
    0.4843    0.9688   -0.3943 C   0  0  0  0  0  0  0  0  0  0  0  0
   -0.0291    1.9317   -1.2761 C   0  0  0  0  0  0  0  0  0  0  0  0
   -1.3823    2.0918   -1.3750 C   0  0  0  0  0  0  0  0  0  0  0  0
   -2.3159    1.3449   -0.6407 C   0  0  0  0  0  0  0  0  0  0  0  0
   -3.6681    1.6287   -0.8251 N   0  0  0  0  0  0  0  0  0  0  0  0
   -4.7061    0.7494   -0.4573 C   0  0  0  0  0  0  0  0  0  0  0  0
   -4.5276   -0.3658    0.0599 O   0  0  0  0  0  0  0  0  0  0  0  0
   -6.0864    1.1484   -0.6871 N   0  0  0  0  0  0  0  0  0  0  0  0
   -7.1529    0.2850   -0.3275 C   0  0  0  0  0  0  0  0  0  0  0  0
   -7.6882    0.3930    0.9545 C   0  0  0  0  0  0  0  0  0  0  0  0
   -7.2196    1.2934    1.8565 F   0  0  0  0  0  0  0  0  0  0  0  0
   -8.7266   -0.4295    1.3416 C   0  0  0  0  0  0  0  0  0  0  0  0
   -9.2081   -1.3537    0.4170 C   0  0  0  0  0  0  0  0  0  0  0  0
   -8.6873   -1.4699   -0.8530 C   0  0  0  0  0  0  0  0  0  0  0  0
   -7.6480   -0.6420   -1.2311 C   0  0  0  0  0  0  0  0  0  0  0  0
   -7.1265   -0.7523   -2.4903 F   0  0  0  0  0  0  0  0  0  0  0  0
   -1.7970    0.4144    0.2123 C   0  0  0  0  0  0  0  0  0  0  0  0
   -0.4090    0.2274    0.3354 C   0  0  0  0  0  0  0  0  0  0  0  0
    0.0704   -0.6946    1.2235 F   0  0  0  0  0  0  0  0  0  0  0  0
    3.8343   -0.4907   -0.4093 C   0  0  0  0  0  0  0  0  0  0  0  0
    4.5375    0.5535    0.1711 C   0  0  0  0  0  0  0  0  0  0  0  0
    5.8922    0.4756    0.4144 C   0  0  0  0  0  0  0  0  0  0  0  0
    6.5721    1.5287    0.9937 O   0  0  0  0  0  0  0  0  0  0  0  0
    5.8992    2.7240    1.3570 C   0  0  0  0  0  0  0  0  0  0  0  0
    8.1835   -2.7661    0.5878 H   0  0  0  0  0  0  0  0  0  0  0  0
    9.7126   -1.8862    0.1383 H   0  0  0  0  0  0  0  0  0  0  0  0
    8.4567   -2.2220   -1.0971 H   0  0  0  0  0  0  0  0  0  0  0  0
    6.4017   -2.6160   -0.7760 H   0  0  0  0  0  0  0  0  0  0  0  0
    1.9989   -3.3893   -1.9969 H   0  0  0  0  0  0  0  0  0  0  0  0
    0.7886   -1.4077   -1.4306 H   0  0  0  0  0  0  0  0  0  0  0  0
    0.6924    2.5043   -1.8393 H   0  0  0  0  0  0  0  0  0  0  0  0
   -1.7295    2.8581   -2.0792 H   0  0  0  0  0  0  0  0  0  0  0  0
   -3.9159    2.5760   -1.2699 H   0  0  0  0  0  0  0  0  0  0  0  0
   -6.2225    2.0811   -1.1192 H   0  0  0  0  0  0  0  0  0  0  0  0
   -9.1688   -0.3750    2.3299 H   0  0  0  0  0  0  0  0  0  0  0  0
  -10.0270   -2.0024    0.7219 H   0  0  0  0  0  0  0  0  0  0  0  0
   -9.0993   -2.2061   -1.5334 H   0  0  0  0  0  0  0  0  0  0  0  0
   -2.4110   -0.2161    0.8465 H   0  0  0  0  0  0  0  0  0  0  0  0
    3.9592    1.4414    0.4250 H   0  0  0  0  0  0  0  0  0  0  0  0
    5.3443    3.0890    0.4690 H   0  0  0  0  0  0  0  0  0  0  0  0
    5.2362    2.4977    2.2110 H   0  0  0  0  0  0  0  0  0  0  0  0
    6.6678    3.4547    1.7110 H   0  0  0  0  0  0  0  0  0  0  0  0
  1  2  1  0
  2  3  1  0
  3  4  2  0
  4  5  1  0
  5  6  2  0
  6  7  1  0
  7  8  2  0
  8  9  1  0
  9 10  1  0
 10 11  1  0
 11 12  2  0
 12 13  1  0
 13 14  2  0
 14 15  1  0
 15 16  1  0
 16 17  2  0
 16 18  1  0
 18 19  1  0
 19 20  2  0
 20 21  1  0
 20 22  1  0
 22 23  2  0
 23 24  1  0
 24 25  2  0
 25 26  1  0
 14 27  1  0
 27 28  2  0
 28 29  1  0
  9 30  2  0
 30 31  1  0
 31 32  2  0
 32 33  1  0
 33 34  1  0
 32  3  1  0
 30  5  1  0
 28 11  1  0
 25 19  1  0
  1 35  1  0
  1 36  1  0
  1 37  1  0
  4 38  1  0
  7 39  1  0
  8 40  1  0
 12 41  1  0
 13 42  1  0
 15 43  1  0
 18 44  1  0
 22 45  1  0
 23 46  1  0
 24 47  1  0
 27 48  1  0
 31 49  1  0
 34 50  1  0
 34 51  1  0
 34 52  1  0
M  END
$$$$
[H]c1nc2c([H])c(OC([H])([H])C([H])([H])C([H])([H])N3C([H])([H])C([H])([H])OC([H])([H])C3([H])[H])c(OC([H])([H])[H])c([H])c2c(Oc2c([H])c([H])c(N([H])C(=O)N([H])c3c(F)c([H])c([H])c([H])c3C([H])([H])[H])c([H])c2F)c1[H]
     RDKit          3D

 74 78  0  0  0  0  0  0  0  0999 V2000
    2.2539    1.0334   -3.5227 C   0  0  0  0  0  0  0  0  0  0  0  0
    3.2112    1.0321   -2.4848 O   0  0  0  0  0  0  0  0  0  0  0  0
    2.8011    0.8485   -1.1740 C   0  0  0  0  0  0  0  0  0  0  0  0
    1.4858    0.6642   -0.8300 C   0  0  0  0  0  0  0  0  0  0  0  0
    1.0692    0.4800    0.4793 C   0  0  0  0  0  0  0  0  0  0  0  0
   -0.2956    0.2900    0.7856 C   0  0  0  0  0  0  0  0  0  0  0  0
   -1.1106    0.3171   -0.3191 O   0  0  0  0  0  0  0  0  0  0  0  0
   -2.4621    0.1862   -0.3858 C   0  0  0  0  0  0  0  0  0  0  0  0
   -2.9838   -0.8912   -1.0756 C   0  0  0  0  0  0  0  0  0  0  0  0
   -4.3285   -1.0957   -1.1900 C   0  0  0  0  0  0  0  0  0  0  0  0
   -5.2676   -0.2164   -0.6091 C   0  0  0  0  0  0  0  0  0  0  0  0
   -6.5605   -0.3704   -0.6927 N   0  0  0  0  0  0  0  0  0  0  0  0
   -7.9208   -0.5329   -0.7818 C   0  0  0  0  0  0  0  0  0  0  0  0
   -8.5943   -0.9161   -1.7981 O   0  0  0  0  0  0  0  0  0  0  0  0
   -8.7261   -0.2429    0.4022 N   0  0  0  0  0  0  0  0  0  0  0  0
  -10.1283   -0.4138    0.2774 C   0  0  0  0  0  0  0  0  0  0  0  0
  -10.7516   -1.6137    0.5186 C   0  0  0  0  0  0  0  0  0  0  0  0
   -9.9224   -2.7745    0.9393 C   0  0  0  0  0  0  0  0  0  0  0  0
  -12.1331   -1.7904    0.3845 C   0  0  0  0  0  0  0  0  0  0  0  0
  -12.9318   -0.7195   -0.0095 C   0  0  0  0  0  0  0  0  0  0  0  0
  -12.2983    0.4752   -0.2474 C   0  0  0  0  0  0  0  0  0  0  0  0
  -10.9439    0.6520   -0.1165 C   0  0  0  0  0  0  0  0  0  0  0  0
  -10.3319    1.8511   -0.3581 F   0  0  0  0  0  0  0  0  0  0  0  0
   -4.6861    0.8730    0.0863 C   0  0  0  0  0  0  0  0  0  0  0  0
   -3.3419    1.0701    0.1957 C   0  0  0  0  0  0  0  0  0  0  0  0
   -2.8487    2.1507    0.8657 F   0  0  0  0  0  0  0  0  0  0  0  0
   -0.6891    0.1018    2.0850 C   0  0  0  0  0  0  0  0  0  0  0  0
    0.2615    0.1029    3.0899 C   0  0  0  0  0  0  0  0  0  0  0  0
    1.5791    0.2897    2.7783 N   0  0  0  0  0  0  0  0  0  0  0  0
    1.9709    0.4730    1.5094 C   0  0  0  0  0  0  0  0  0  0  0  0
    3.3172    0.6599    1.1747 C   0  0  0  0  0  0  0  0  0  0  0  0
    3.7320    0.8435   -0.1258 C   0  0  0  0  0  0  0  0  0  0  0  0
    5.0391    1.0350   -0.5052 O   0  0  0  0  0  0  0  0  0  0  0  0
    6.1683    1.0975    0.3319 C   0  0  0  0  0  0  0  0  0  0  0  0
    7.4114    1.3238   -0.5248 C   0  0  0  0  0  0  0  0  0  0  0  0
    8.6672    1.4736    0.2641 C   0  0  0  0  0  0  0  0  0  0  0  0
    8.9575    0.3469    1.0736 N   0  0  0  0  0  0  0  0  0  0  0  0
   10.1793    0.5287    1.8395 C   0  0  0  0  0  0  0  0  0  0  0  0
   11.3464   -0.2069    1.3011 C   0  0  0  0  0  0  0  0  0  0  0  0
   11.1005   -1.5013    0.8656 O   0  0  0  0  0  0  0  0  0  0  0  0
   10.1437   -1.4238   -0.1396 C   0  0  0  0  0  0  0  0  0  0  0  0
    8.8606   -0.9423    0.4860 C   0  0  0  0  0  0  0  0  0  0  0  0
    1.7549    0.0247   -3.6008 H   0  0  0  0  0  0  0  0  0  0  0  0
    2.7291    1.1940   -4.5152 H   0  0  0  0  0  0  0  0  0  0  0  0
    1.4369    1.7473   -3.3032 H   0  0  0  0  0  0  0  0  0  0  0  0
    0.7509    0.6659   -1.6487 H   0  0  0  0  0  0  0  0  0  0  0  0
   -2.2777   -1.5915   -1.5400 H   0  0  0  0  0  0  0  0  0  0  0  0
   -4.7145   -1.9533   -1.7277 H   0  0  0  0  0  0  0  0  0  0  0  0
   -6.5151   -0.5811   -2.0665 H   0  0  0  0  0  0  0  0  0  0  0  0
   -8.2419    0.0668    1.2508 H   0  0  0  0  0  0  0  0  0  0  0  0
  -10.4614   -3.4245    1.6598 H   0  0  0  0  0  0  0  0  0  0  0  0
   -9.5691   -3.3340    0.0303 H   0  0  0  0  0  0  0  0  0  0  0  0
   -9.0050   -2.4156    1.4605 H   0  0  0  0  0  0  0  0  0  0  0  0
  -12.6027   -2.7544    0.5822 H   0  0  0  0  0  0  0  0  0  0  0  0
  -13.9961   -0.8739   -0.1084 H   0  0  0  0  0  0  0  0  0  0  0  0
  -12.9377    1.3169   -0.5593 H   0  0  0  0  0  0  0  0  0  0  0  0
   -5.4051    1.5548    0.5391 H   0  0  0  0  0  0  0  0  0  0  0  0
   -1.7378   -0.0546    2.3096 H   0  0  0  0  0  0  0  0  0  0  0  0
   -0.0454   -0.0467    4.1116 H   0  0  0  0  0  0  0  0  0  0  0  0
    4.0355    0.6565    1.9664 H   0  0  0  0  0  0  0  0  0  0  0  0
    6.0704    1.9794    1.0087 H   0  0  0  0  0  0  0  0  0  0  0  0
    6.2704    0.2217    0.9766 H   0  0  0  0  0  0  0  0  0  0  0  0
    7.4309    0.5529   -1.3122 H   0  0  0  0  0  0  0  0  0  0  0  0
    7.2188    2.2823   -1.1215 H   0  0  0  0  0  0  0  0  0  0  0  0
    8.5772    2.3787    0.9315 H   0  0  0  0  0  0  0  0  0  0  0  0
    9.5385    1.7205   -0.4024 H   0  0  0  0  0  0  0  0  0  0  0  0
   10.3904    1.6172    1.8095 H   0  0  0  0  0  0  0  0  0  0  0  0
   10.0257    0.2528    2.8990 H   0  0  0  0  0  0  0  0  0  0  0  0
   11.7894    0.3390    0.4307 H   0  0  0  0  0  0  0  0  0  0  0  0
   12.1861   -0.2628    2.0424 H   0  0  0  0  0  0  0  0  0  0  0  0
   10.4248   -0.7310   -0.9548 H   0  0  0  0  0  0  0  0  0  0  0  0
    9.9167   -2.4432   -0.5667 H   0  0  0  0  0  0  0  0  0  0  0  0
    8.6226   -1.6700    1.3140 H   0  0  0  0  0  0  0  0  0  0  0  0
    8.0412   -0.9831   -0.2371 H   0  0  0  0  0  0  0  0  0  0  0  0
  1  2  1  0
  2  3  1  0
  3  4  2  0
  4  5  1  0
  5  6  2  0
  6  7  1  0
  7  8  1  0
  8  9  2  0
  9 10  1  0
 10 11  2  0
 11 12  1  0
 12 13  1  0
 13 14  2  0
 13 15  1  0
 15 16  1  0
 16 17  2  0
 17 18  1  0
 17 19  1  0
 19 20  2  0
 20 21  1  0
 21 22  2  0
 22 23  1  0
 11 24  1  0
 24 25  2  0
 25 26  1  0
  6 27  1  0
 27 28  2  0
 28 29  1  0
 29 30  2  0
 30 31  1  0
 31 32  2  0
 32 33  1  0
 33 34  1  0
 34 35  1  0
 35 36  1  0
 36 37  1  0
 37 38  1  0
 38 39  1  0
 39 40  1  0
 40 41  1  0
 41 42  1  0
 32  3  1  0
 42 37  1  0
 30  5  1  0
 25  8  1  0
 22 16  1  0
  1 43  1  0
  1 44  1  0
  1 45  1  0
  4 46  1  0
  9 47  1  0
 10 48  1  0
 12 49  1  0
 15 50  1  0
 18 51  1  0
 18 52  1  0
 18 53  1  0
 19 54  1  0
 20 55  1  0
 21 56  1  0
 24 57  1  0
 27 58  1  0
 28 59  1  0
 31 60  1  0
 34 61  1  0
 34 62  1  0
 35 63  1  0
 35 64  1  0
 36 65  1  0
 36 66  1  0
 38 67  1  0
 38 68  1  0
 39 69  1  0
 39 70  1  0
 41 71  1  0
 41 72  1  0
 42 73  1  0
 42 74  1  0
M  END
$$$$
[H]c1nc2c([H])c(OC([H])([H])C([H])([H])C([H])([H])N3C([H])([H])C([H])([H])OC([H])([H])C3([H])[H])c(OC([H])([H])[H])c([H])c2c(Oc2c([H])c([H])c(N([H])C(=O)c3c(Cl)c([H])c([H])c([H])c3Cl)c([H])c2F)c1[H]
     RDKit          3D

 69 73  0  0  0  0  0  0  0  0999 V2000
   -1.5927   -2.3607    1.7840 C   0  0  0  0  0  0  0  0  0  0  0  0
   -2.5208   -1.3269    1.6520 O   0  0  0  0  0  0  0  0  0  0  0  0
   -2.1704   -0.0348    1.2714 C   0  0  0  0  0  0  0  0  0  0  0  0
   -0.8851    0.2960    1.0037 C   0  0  0  0  0  0  0  0  0  0  0  0
   -0.5476    1.5904    0.6244 C   0  0  0  0  0  0  0  0  0  0  0  0
    0.7996    1.9365    0.3425 C   0  0  0  0  0  0  0  0  0  0  0  0
    1.6895    0.9603    0.4655 O   0  0  0  0  0  0  0  0  0  0  0  0
    2.9744    0.6510    0.3483 C   0  0  0  0  0  0  0  0  0  0  0  0
    3.9842    1.4767   -0.0505 C   0  0  0  0  0  0  0  0  0  0  0  0
    5.3354    1.0830   -0.1533 C   0  0  0  0  0  0  0  0  0  0  0  0
    5.6774   -0.1816    0.1544 C   0  0  0  0  0  0  0  0  0  0  0  0
    7.0017   -0.7012    0.0497 N   0  0  0  0  0  0  0  0  0  0  0  0
    7.9776   -0.2544   -0.8277 C   0  0  0  0  0  0  0  0  0  0  0  0
    7.6493    0.7118   -1.6032 O   0  0  0  0  0  0  0  0  0  0  0  0
    9.3425   -0.7383   -0.9834 C   0  0  0  0  0  0  0  0  0  0  0  0
    9.7941   -1.9728   -0.6270 C   0  0  0  0  0  0  0  0  0  0  0  0
    8.6896   -3.2103   -0.0515 Cl  0  0  0  0  0  0  0  0  0  0  0  0
   11.1425   -2.3585   -0.7430 C   0  0  0  0  0  0  0  0  0  0  0  0
   12.0674   -1.4752   -1.2353 C   0  0  0  0  0  0  0  0  0  0  0  0
   11.6129   -0.2181   -1.6016 C   0  0  0  0  0  0  0  0  0  0  0  0
   10.3122    0.1484   -1.4867 C   0  0  0  0  0  0  0  0  0  0  0  0
    9.7918    1.7354   -1.9573 Cl  0  0  0  0  0  0  0  0  0  0  0  0
    4.6785   -1.0540    0.5654 C   0  0  0  0  0  0  0  0  0  0  0  0
    3.3657   -0.6689    0.6652 C   0  0  0  0  0  0  0  0  0  0  0  0
    2.4183   -1.5561    1.0737 F   0  0  0  0  0  0  0  0  0  0  0  0
    1.0603    3.2347   -0.0282 C   0  0  0  0  0  0  0  0  0  0  0  0
    0.0306    4.1613   -0.1186 C   0  0  0  0  0  0  0  0  0  0  0  0
   -1.2103    3.8191    0.1473 N   0  0  0  0  0  0  0  0  0  0  0  0
   -1.5170    2.5491    0.5174 C   0  0  0  0  0  0  0  0  0  0  0  0
   -2.8411    2.2306    0.7881 C   0  0  0  0  0  0  0  0  0  0  0  0
   -3.1635    0.9517    1.1605 C   0  0  0  0  0  0  0  0  0  0  0  0
   -4.4219    0.5317    1.4438 O   0  0  0  0  0  0  0  0  0  0  0  0
   -5.6276    1.1384    1.4262 C   0  0  0  0  0  0  0  0  0  0  0  0
   -6.1632    1.6336    0.1040 C   0  0  0  0  0  0  0  0  0  0  0  0
   -6.3214    0.5106   -0.8801 C   0  0  0  0  0  0  0  0  0  0  0  0
   -7.1888   -0.5292   -0.5169 N   0  0  0  0  0  0  0  0  0  0  0  0
   -7.2127   -1.5325   -1.5856 C   0  0  0  0  0  0  0  0  0  0  0  0
   -7.7941   -2.8405   -1.0885 C   0  0  0  0  0  0  0  0  0  0  0  0
   -8.6246   -2.6127    0.0137 O   0  0  0  0  0  0  0  0  0  0  0  0
   -9.3692   -1.4416   -0.1698 C   0  0  0  0  0  0  0  0  0  0  0  0
   -8.4801   -0.2023   -0.0570 C   0  0  0  0  0  0  0  0  0  0  0  0
   -1.0193   -2.1740    2.7389 H   0  0  0  0  0  0  0  0  0  0  0  0
   -0.8511   -2.4029    0.9597 H   0  0  0  0  0  0  0  0  0  0  0  0
   -2.1072   -3.3357    1.8093 H   0  0  0  0  0  0  0  0  0  0  0  0
   -0.0911   -0.4228    1.0737 H   0  0  0  0  0  0  0  0  0  0  0  0
    3.7760    2.4876   -0.3103 H   0  0  0  0  0  0  0  0  0  0  0  0
    6.0494    1.8491   -0.4662 H   0  0  0  0  0  0  0  0  0  0  0  0
    7.2374   -1.4702    0.7351 H   0  0  0  0  0  0  0  0  0  0  0  0
   11.4498   -3.3505   -0.4438 H   0  0  0  0  0  0  0  0  0  0  0  0
   13.1088   -1.7454   -1.3342 H   0  0  0  0  0  0  0  0  0  0  0  0
   12.3977    0.4505   -1.9911 H   0  0  0  0  0  0  0  0  0  0  0  0
    4.9795   -2.0744    0.8104 H   0  0  0  0  0  0  0  0  0  0  0  0
    2.0264    3.6409   -0.2687 H   0  0  0  0  0  0  0  0  0  0  0  0
    0.2185    5.1928   -0.4104 H   0  0  0  0  0  0  0  0  0  0  0  0
   -3.5762    3.0292    0.7092 H   0  0  0  0  0  0  0  0  0  0  0  0
   -5.6185    2.0138    2.1418 H   0  0  0  0  0  0  0  0  0  0  0  0
   -6.3960    0.4545    1.9071 H   0  0  0  0  0  0  0  0  0  0  0  0
   -5.4444    2.3328   -0.3346 H   0  0  0  0  0  0  0  0  0  0  0  0
   -7.1021    2.2194    0.2357 H   0  0  0  0  0  0  0  0  0  0  0  0
   -5.3133    0.1061   -1.0893 H   0  0  0  0  0  0  0  0  0  0  0  0
   -6.6717    0.9470   -1.8543 H   0  0  0  0  0  0  0  0  0  0  0  0
   -7.8038   -1.1896   -2.4418 H   0  0  0  0  0  0  0  0  0  0  0  0
   -6.1539   -1.7010   -1.8851 H   0  0  0  0  0  0  0  0  0  0  0  0
   -6.9556   -3.4686   -0.7341 H   0  0  0  0  0  0  0  0  0  0  0  0
   -8.3469   -3.3109   -1.9212 H   0  0  0  0  0  0  0  0  0  0  0  0
  -10.1379   -1.4254    0.6342 H   0  0  0  0  0  0  0  0  0  0  0  0
   -9.9001   -1.4435   -1.1456 H   0  0  0  0  0  0  0  0  0  0  0  0
   -8.9229    0.5507   -0.7722 H   0  0  0  0  0  0  0  0  0  0  0  0
   -8.5745    0.1605    0.9573 H   0  0  0  0  0  0  0  0  0  0  0  0
  1  2  1  0
  2  3  1  0
  3  4  2  0
  4  5  1  0
  5  6  2  0
  6  7  1  0
  7  8  1  0
  8  9  2  0
  9 10  1  0
 10 11  2  0
 11 12  1  0
 12 13  1  0
 13 14  2  0
 13 15  1  0
 15 16  2  0
 16 17  1  0
 16 18  1  0
 18 19  2  0
 19 20  1  0
 20 21  2  0
 21 22  1  0
 11 23  1  0
 23 24  2  0
 24 25  1  0
  6 26  1  0
 26 27  2  0
 27 28  1  0
 28 29  2  0
 29 30  1  0
 30 31  2  0
 31 32  1  0
 32 33  1  0
 33 34  1  0
 34 35  1  0
 35 36  1  0
 36 37  1  0
 37 38  1  0
 38 39  1  0
 39 40  1  0
 40 41  1  0
 31  3  1  0
 41 36  1  0
 29  5  1  0
 24  8  1  0
 21 15  1  0
  1 42  1  0
  1 43  1  0
  1 44  1  0
  4 45  1  0
  9 46  1  0
 10 47  1  0
 12 48  1  0
 18 49  1  0
 19 50  1  0
 20 51  1  0
 23 52  1  0
 26 53  1  0
 27 54  1  0
 30 55  1  0
 33 56  1  0
 33 57  1  0
 34 58  1  0
 34 59  1  0
 35 60  1  0
 35 61  1  0
 37 62  1  0
 37 63  1  0
 38 64  1  0
 38 65  1  0
 40 66  1  0
 40 67  1  0
 41 68  1  0
 41 69  1  0
M  END
$$$$
[H]c1nc2c([H])c(OC([H])([H])C([H])([H])C([H])([H])N3C([H])([H])C([H])([H])OC([H])([H])C3([H])[H])c(OC([H])([H])[H])c([H])c2c(Oc2c([H])c([H])c(N([H])C(=O)N([H])c3c(Cl)c([H])c([H])c([H])c3Cl)c([H])c2Cl)c1[H]
     RDKit          3D

 71 75  0  0  0  0  0  0  0  0999 V2000
    2.3204    3.1996   -1.4622 C   0  0  0  0  0  0  0  0  0  0  0  0
    3.0835    2.0461   -1.2049 O   0  0  0  0  0  0  0  0  0  0  0  0
    2.4955    0.8395   -0.8594 C   0  0  0  0  0  0  0  0  0  0  0  0
    1.1489    0.6385   -0.7082 C   0  0  0  0  0  0  0  0  0  0  0  0
    0.5714   -0.5662   -0.3713 C   0  0  0  0  0  0  0  0  0  0  0  0
   -0.8008   -0.7328   -0.2252 C   0  0  0  0  0  0  0  0  0  0  0  0
   -1.5968    0.3784   -0.4303 O   0  0  0  0  0  0  0  0  0  0  0  0
   -2.9824    0.3891   -0.4192 C   0  0  0  0  0  0  0  0  0  0  0  0
   -3.6446    1.0746    0.5730 C   0  0  0  0  0  0  0  0  0  0  0  0
   -5.0238    1.1093    0.6131 C   0  0  0  0  0  0  0  0  0  0  0  0
   -5.8150    0.4773   -0.3120 C   0  0  0  0  0  0  0  0  0  0  0  0
   -7.2218    0.4284   -0.3152 N   0  0  0  0  0  0  0  0  0  0  0  0
   -7.9964    0.2623    0.9080 C   0  0  0  0  0  0  0  0  0  0  0  0
   -7.3143    0.1822    1.9872 O   0  0  0  0  0  0  0  0  0  0  0  0
   -9.3458    0.2017    0.8341 N   0  0  0  0  0  0  0  0  0  0  0  0
  -10.7013    0.1408    0.7601 C   0  0  0  0  0  0  0  0  0  0  0  0
  -11.3784   -1.0806    0.5581 C   0  0  0  0  0  0  0  0  0  0  0  0
  -10.4175   -2.5452    0.4618 Cl  0  0  0  0  0  0  0  0  0  0  0  0
  -12.7317   -1.1605    0.4369 C   0  0  0  0  0  0  0  0  0  0  0  0
  -13.4632    0.0205    0.5180 C   0  0  0  0  0  0  0  0  0  0  0  0
  -12.8234    1.2193    0.7136 C   0  0  0  0  0  0  0  0  0  0  0  0
  -11.4534    1.3042    0.8373 C   0  0  0  0  0  0  0  0  0  0  0  0
  -10.7034    2.8582    1.0829 Cl  0  0  0  0  0  0  0  0  0  0  0  0
   -5.1115   -0.2167   -1.3204 C   0  0  0  0  0  0  0  0  0  0  0  0
   -3.7497   -0.2559   -1.3670 C   0  0  0  0  0  0  0  0  0  0  0  0
   -2.9232   -1.1220   -2.6829 Cl  0  0  0  0  0  0  0  0  0  0  0  0
   -1.3515   -1.9514    0.1112 C   0  0  0  0  0  0  0  0  0  0  0  0
   -0.4811   -3.0157    0.3027 C   0  0  0  0  0  0  0  0  0  0  0  0
    0.8429   -2.8422    0.1604 N   0  0  0  0  0  0  0  0  0  0  0  0
    1.3987   -1.6689   -0.1657 C   0  0  0  0  0  0  0  0  0  0  0  0
    2.7619   -1.4885   -0.3111 C   0  0  0  0  0  0  0  0  0  0  0  0
    3.3417   -0.2821   -0.6476 C   0  0  0  0  0  0  0  0  0  0  0  0
    4.6524   -0.0345   -0.8032 O   0  0  0  0  0  0  0  0  0  0  0  0
    5.8560   -0.6524   -0.7499 C   0  0  0  0  0  0  0  0  0  0  0  0
    6.9571    0.3815   -1.0730 C   0  0  0  0  0  0  0  0  0  0  0  0
    8.3058   -0.1751   -1.0369 C   0  0  0  0  0  0  0  0  0  0  0  0
    8.8230   -0.7432    0.1329 N   0  0  0  0  0  0  0  0  0  0  0  0
   10.2021   -1.1598    0.0415 C   0  0  0  0  0  0  0  0  0  0  0  0
   11.1470   -0.0974    0.5809 C   0  0  0  0  0  0  0  0  0  0  0  0
   10.8506   -0.0285    1.9714 O   0  0  0  0  0  0  0  0  0  0  0  0
    9.6086    0.5871    2.0677 C   0  0  0  0  0  0  0  0  0  0  0  0
    8.5044   -0.2031    1.3943 C   0  0  0  0  0  0  0  0  0  0  0  0
    3.0308    4.0623   -1.4875 H   0  0  0  0  0  0  0  0  0  0  0  0
    1.5955    3.4214   -0.6598 H   0  0  0  0  0  0  0  0  0  0  0  0
    1.7675    3.1234   -2.4327 H   0  0  0  0  0  0  0  0  0  0  0  0
    0.4725    1.4824   -0.8586 H   0  0  0  0  0  0  0  0  0  0  0  0
   -3.0708    1.6102    1.3551 H   0  0  0  0  0  0  0  0  0  0  0  0
   -5.5217    1.6724    1.4189 H   0  0  0  0  0  0  0  0  0  0  0  0
   -7.7430    0.5081   -1.1995 H   0  0  0  0  0  0  0  0  0  0  0  0
   -9.4679    0.0365    2.1904 H   0  0  0  0  0  0  0  0  0  0  0  0
  -13.2730   -2.0882    0.2745 H   0  0  0  0  0  0  0  0  0  0  0  0
  -14.5219   -0.0408    0.4197 H   0  0  0  0  0  0  0  0  0  0  0  0
  -13.3982    2.1320    0.7739 H   0  0  0  0  0  0  0  0  0  0  0  0
   -5.7121   -0.7314   -2.0703 H   0  0  0  0  0  0  0  0  0  0  0  0
   -2.4307   -2.0800    0.2357 H   0  0  0  0  0  0  0  0  0  0  0  0
   -0.9426   -3.9719    0.5693 H   0  0  0  0  0  0  0  0  0  0  0  0
    3.4046   -2.3458   -0.1460 H   0  0  0  0  0  0  0  0  0  0  0  0
    6.0197   -1.4934   -1.4640 H   0  0  0  0  0  0  0  0  0  0  0  0
    6.0174   -1.0785    0.2618 H   0  0  0  0  0  0  0  0  0  0  0  0
    6.7223    0.6819   -2.1361 H   0  0  0  0  0  0  0  0  0  0  0  0
    6.7946    1.3043   -0.4804 H   0  0  0  0  0  0  0  0  0  0  0  0
    9.0690    0.5864   -1.3935 H   0  0  0  0  0  0  0  0  0  0  0  0
    8.3802   -0.9619   -1.8511 H   0  0  0  0  0  0  0  0  0  0  0  0
   10.5081   -1.3888   -0.9854 H   0  0  0  0  0  0  0  0  0  0  0  0
   10.3315   -2.0574    0.6759 H   0  0  0  0  0  0  0  0  0  0  0  0
   12.1668   -0.5222    0.5214 H   0  0  0  0  0  0  0  0  0  0  0  0
   11.0394    0.8779    0.1098 H   0  0  0  0  0  0  0  0  0  0  0  0
    9.6727    1.6379    1.7743 H   0  0  0  0  0  0  0  0  0  0  0  0
    9.3624    0.5859    3.1736 H   0  0  0  0  0  0  0  0  0  0  0  0
    8.3031   -1.0809    2.0801 H   0  0  0  0  0  0  0  0  0  0  0  0
    7.5827    0.4021    1.4254 H   0  0  0  0  0  0  0  0  0  0  0  0
  1  2  1  0
  2  3  1  0
  3  4  2  0
  4  5  1  0
  5  6  2  0
  6  7  1  0
  7  8  1  0
  8  9  2  0
  9 10  1  0
 10 11  2  0
 11 12  1  0
 12 13  1  0
 13 14  2  0
 13 15  1  0
 15 16  1  0
 16 17  2  0
 17 18  1  0
 17 19  1  0
 19 20  2  0
 20 21  1  0
 21 22  2  0
 22 23  1  0
 11 24  1  0
 24 25  2  0
 25 26  1  0
  6 27  1  0
 27 28  2  0
 28 29  1  0
 29 30  2  0
 30 31  1  0
 31 32  2  0
 32 33  1  0
 33 34  1  0
 34 35  1  0
 35 36  1  0
 36 37  1  0
 37 38  1  0
 38 39  1  0
 39 40  1  0
 40 41  1  0
 41 42  1  0
 32  3  1  0
 42 37  1  0
 30  5  1  0
 25  8  1  0
 22 16  1  0
  1 43  1  0
  1 44  1  0
  1 45  1  0
  4 46  1  0
  9 47  1  0
 10 48  1  0
 12 49  1  0
 15 50  1  0
 19 51  1  0
 20 52  1  0
 21 53  1  0
 24 54  1  0
 27 55  1  0
 28 56  1  0
 31 57  1  0
 34 58  1  0
 34 59  1  0
 35 60  1  0
 35 61  1  0
 36 62  1  0
 36 63  1  0
 38 64  1  0
 38 65  1  0
 39 66  1  0
 39 67  1  0
 41 68  1  0
 41 69  1  0
 42 70  1  0
 42 71  1  0
M  END
$$$$
[H]c1nc2c([H])c(OC([H])([H])[H])c(OC([H])([H])[H])c([H])c2c(Oc2c([H])c([H])c(N([H])C(=O)N([H])c3c(Cl)c([H])c([H])c([H])c3Cl)c([H])c2F)c1[H]
     RDKit          3D

 52 55  0  0  0  0  0  0  0  0999 V2000
    8.7310   -1.5236    0.4207 C   0  0  0  0  0  0  0  0  0  0  0  0
    7.9492   -0.3613    0.6185 O   0  0  0  0  0  0  0  0  0  0  0  0
    6.5950   -0.4036    0.2697 C   0  0  0  0  0  0  0  0  0  0  0  0
    6.0298   -1.5442   -0.2535 C   0  0  0  0  0  0  0  0  0  0  0  0
    4.6909   -1.6159   -0.6084 C   0  0  0  0  0  0  0  0  0  0  0  0
    4.1638   -2.7547   -1.1217 N   0  0  0  0  0  0  0  0  0  0  0  0
    2.8652   -2.8164   -1.4636 C   0  0  0  0  0  0  0  0  0  0  0  0
    2.0398   -1.7027   -1.2933 C   0  0  0  0  0  0  0  0  0  0  0  0
    2.5210   -0.5365   -0.7814 C   0  0  0  0  0  0  0  0  0  0  0  0
    1.7784    0.6098   -0.5760 O   0  0  0  0  0  0  0  0  0  0  0  0
    0.4300    0.6290   -0.8137 C   0  0  0  0  0  0  0  0  0  0  0  0
   -0.1251    1.4249   -1.8222 C   0  0  0  0  0  0  0  0  0  0  0  0
   -1.4735    1.4422   -2.0524 C   0  0  0  0  0  0  0  0  0  0  0  0
   -2.3683    0.6656   -1.2922 C   0  0  0  0  0  0  0  0  0  0  0  0
   -3.7277    0.7404   -1.6337 N   0  0  0  0  0  0  0  0  0  0  0  0
   -4.7647    0.4329   -0.7363 C   0  0  0  0  0  0  0  0  0  0  0  0
   -4.5202    0.0802    0.4331 O   0  0  0  0  0  0  0  0  0  0  0  0
   -6.1441    0.5153   -1.1389 N   0  0  0  0  0  0  0  0  0  0  0  0
   -7.1955    0.2052   -0.2346 C   0  0  0  0  0  0  0  0  0  0  0  0
   -7.7057    1.2339    0.5339 C   0  0  0  0  0  0  0  0  0  0  0  0
   -7.1104    2.8664    0.4290 Cl  0  0  0  0  0  0  0  0  0  0  0  0
   -8.7374    0.9592    1.4294 C   0  0  0  0  0  0  0  0  0  0  0  0
   -9.2213   -0.3434    1.5215 C   0  0  0  0  0  0  0  0  0  0  0  0
   -8.6890   -1.3495    0.7386 C   0  0  0  0  0  0  0  0  0  0  0  0
   -7.6571   -1.0916   -0.1619 C   0  0  0  0  0  0  0  0  0  0  0  0
   -7.0098   -2.3889   -1.1346 Cl  0  0  0  0  0  0  0  0  0  0  0  0
   -1.8185   -0.1077   -0.3111 C   0  0  0  0  0  0  0  0  0  0  0  0
   -0.4330   -0.1295   -0.0684 C   0  0  0  0  0  0  0  0  0  0  0  0
    0.0477   -0.8959    0.9410 F   0  0  0  0  0  0  0  0  0  0  0  0
    3.8850   -0.5225   -0.4397 C   0  0  0  0  0  0  0  0  0  0  0  0
    4.4486    0.6264    0.0859 C   0  0  0  0  0  0  0  0  0  0  0  0
    5.7804    0.6971    0.4387 C   0  0  0  0  0  0  0  0  0  0  0  0
    6.3409    1.8445    0.9631 O   0  0  0  0  0  0  0  0  0  0  0  0
    5.6371    3.0389    1.1910 C   0  0  0  0  0  0  0  0  0  0  0  0
    8.3916   -2.2945    1.1536 H   0  0  0  0  0  0  0  0  0  0  0  0
    9.7982   -1.2654    0.6648 H   0  0  0  0  0  0  0  0  0  0  0  0
    8.6236   -1.9560   -0.5756 H   0  0  0  0  0  0  0  0  0  0  0  0
    6.6434   -2.4205   -0.3967 H   0  0  0  0  0  0  0  0  0  0  0  0
    2.3936   -3.6963   -1.8761 H   0  0  0  0  0  0  0  0  0  0  0  0
    0.9991   -1.7738   -1.5920 H   0  0  0  0  0  0  0  0  0  0  0  0
    0.5849    2.0192   -2.4001 H   0  0  0  0  0  0  0  0  0  0  0  0
   -1.8832    2.0787   -2.8531 H   0  0  0  0  0  0  0  0  0  0  0  0
   -3.9684    1.0448   -2.6324 H   0  0  0  0  0  0  0  0  0  0  0  0
   -6.3310    0.8103   -2.1156 H   0  0  0  0  0  0  0  0  0  0  0  0
   -9.1486    1.7473    2.0373 H   0  0  0  0  0  0  0  0  0  0  0  0
  -10.0271   -0.5924    2.2114 H   0  0  0  0  0  0  0  0  0  0  0  0
   -9.0952   -2.3566    0.8400 H   0  0  0  0  0  0  0  0  0  0  0  0
   -2.4236   -0.7568    0.3177 H   0  0  0  0  0  0  0  0  0  0  0  0
    3.7872    1.4801    0.2097 H   0  0  0  0  0  0  0  0  0  0  0  0
    5.0256    3.2527    0.2779 H   0  0  0  0  0  0  0  0  0  0  0  0
    5.0101    2.8999    2.0925 H   0  0  0  0  0  0  0  0  0  0  0  0
    6.3873    3.8552    1.3648 H   0  0  0  0  0  0  0  0  0  0  0  0
  1  2  1  0
  2  3  1  0
  3  4  2  0
  4  5  1  0
  5  6  2  0
  6  7  1  0
  7  8  2  0
  8  9  1  0
  9 10  1  0
 10 11  1  0
 11 12  2  0
 12 13  1  0
 13 14  2  0
 14 15  1  0
 15 16  1  0
 16 17  2  0
 16 18  1  0
 18 19  1  0
 19 20  2  0
 20 21  1  0
 20 22  1  0
 22 23  2  0
 23 24  1  0
 24 25  2  0
 25 26  1  0
 14 27  1  0
 27 28  2  0
 28 29  1  0
  9 30  2  0
 30 31  1  0
 31 32  2  0
 32 33  1  0
 33 34  1  0
 32  3  1  0
 30  5  1  0
 28 11  1  0
 25 19  1  0
  1 35  1  0
  1 36  1  0
  1 37  1  0
  4 38  1  0
  7 39  1  0
  8 40  1  0
 12 41  1  0
 13 42  1  0
 15 43  1  0
 18 44  1  0
 22 45  1  0
 23 46  1  0
 24 47  1  0
 27 48  1  0
 31 49  1  0
 34 50  1  0
 34 51  1  0
 34 52  1  0
M  END
$$$$
[H]c1nc2c([H])c(OC([H])([H])C([H])([H])C([H])([H])N3C([H])([H])C([H])([H])OC([H])([H])C3([H])[H])c(OC([H])([H])[H])c([H])c2c(Oc2c([H])c([H])c(N([H])C(=O)N([H])c3c(Cl)c([H])c([H])c([H])c3C([H])([H])[H])c([H])c2F)c1[H]
     RDKit          3D

 74 78  0  0  0  0  0  0  0  0999 V2000
    3.3090    2.6285   -0.5493 C   0  0  0  0  0  0  0  0  0  0  0  0
    3.7584    1.3432   -0.2748 O   0  0  0  0  0  0  0  0  0  0  0  0
    3.0316    0.3481    0.3379 C   0  0  0  0  0  0  0  0  0  0  0  0
    1.7326    0.4594    0.7735 C   0  0  0  0  0  0  0  0  0  0  0  0
    1.0186   -0.5697    1.3963 C   0  0  0  0  0  0  0  0  0  0  0  0
   -0.2939   -0.4578    1.7821 C   0  0  0  0  0  0  0  0  0  0  0  0
   -0.9429    0.7755    1.5626 O   0  0  0  0  0  0  0  0  0  0  0  0
   -2.3333    0.8606    1.7455 C   0  0  0  0  0  0  0  0  0  0  0  0
   -2.9375    1.6316    2.6902 C   0  0  0  0  0  0  0  0  0  0  0  0
   -4.3345    1.6751    2.8244 C   0  0  0  0  0  0  0  0  0  0  0  0
   -5.1428    0.9452    2.0128 C   0  0  0  0  0  0  0  0  0  0  0  0
   -6.5560    0.9439    2.0777 N   0  0  0  0  0  0  0  0  0  0  0  0
   -7.3016    2.0286    1.5602 C   0  0  0  0  0  0  0  0  0  0  0  0
   -6.7190    3.0444    1.0476 O   0  0  0  0  0  0  0  0  0  0  0  0
   -8.7365    1.9825    1.6041 N   0  0  0  0  0  0  0  0  0  0  0  0
   -9.4824    3.0737    1.0772 C   0  0  0  0  0  0  0  0  0  0  0  0
   -9.7443    3.1677   -0.2674 C   0  0  0  0  0  0  0  0  0  0  0  0
   -9.2333    2.1137   -1.1852 C   0  0  0  0  0  0  0  0  0  0  0  0
  -10.4728    4.1994   -0.8497 C   0  0  0  0  0  0  0  0  0  0  0  0
  -10.9686    5.1965   -0.0283 C   0  0  0  0  0  0  0  0  0  0  0  0
  -10.7124    5.1142    1.3335 C   0  0  0  0  0  0  0  0  0  0  0  0
   -9.9856    4.0795    1.8855 C   0  0  0  0  0  0  0  0  0  0  0  0
   -9.6901    4.0216    3.5905 Cl  0  0  0  0  0  0  0  0  0  0  0  0
   -4.5090    0.1538    1.0414 C   0  0  0  0  0  0  0  0  0  0  0  0
   -3.1531    0.1039    0.8997 C   0  0  0  0  0  0  0  0  0  0  0  0
   -2.5785   -0.6459   -0.0762 F   0  0  0  0  0  0  0  0  0  0  0  0
   -0.9957   -1.5082    2.3615 C   0  0  0  0  0  0  0  0  0  0  0  0
   -0.2996   -2.7143    2.5407 C   0  0  0  0  0  0  0  0  0  0  0  0
    0.9751   -2.8071    2.1591 N   0  0  0  0  0  0  0  0  0  0  0  0
    1.6477   -1.7872    1.5986 C   0  0  0  0  0  0  0  0  0  0  0  0
    2.9420   -1.9210    1.1724 C   0  0  0  0  0  0  0  0  0  0  0  0
    3.6513   -0.8876    0.5443 C   0  0  0  0  0  0  0  0  0  0  0  0
    4.9374   -1.1091    0.1341 O   0  0  0  0  0  0  0  0  0  0  0  0
    5.9704   -1.8337    0.0062 C   0  0  0  0  0  0  0  0  0  0  0  0
    7.1729   -1.0991   -0.6426 C   0  0  0  0  0  0  0  0  0  0  0  0
    8.3401   -2.0133   -0.8556 C   0  0  0  0  0  0  0  0  0  0  0  0
    7.9454   -3.0644   -1.7781 N   0  0  0  0  0  0  0  0  0  0  0  0
    7.7056   -2.5753   -3.1016 C   0  0  0  0  0  0  0  0  0  0  0  0
    8.7896   -2.9076   -4.0866 C   0  0  0  0  0  0  0  0  0  0  0  0
    9.9825   -3.2570   -3.4439 O   0  0  0  0  0  0  0  0  0  0  0  0
    9.7141   -4.4720   -2.8100 C   0  0  0  0  0  0  0  0  0  0  0  0
    8.7523   -4.2407   -1.7076 C   0  0  0  0  0  0  0  0  0  0  0  0
    2.2802    2.7890   -0.2198 H   0  0  0  0  0  0  0  0  0  0  0  0
    3.3901    2.8651   -1.6511 H   0  0  0  0  0  0  0  0  0  0  0  0
    3.9338    3.3871    0.0283 H   0  0  0  0  0  0  0  0  0  0  0  0
    1.2019    1.4001    0.6298 H   0  0  0  0  0  0  0  0  0  0  0  0
   -2.3190    2.2185    3.3627 H   0  0  0  0  0  0  0  0  0  0  0  0
   -4.7655    2.3057    3.5942 H   0  0  0  0  0  0  0  0  0  0  0  0
   -7.0759    0.1404    2.5085 H   0  0  0  0  0  0  0  0  0  0  0  0
   -9.1979    1.1502    2.0205 H   0  0  0  0  0  0  0  0  0  0  0  0
  -10.0856    1.5085   -1.6185 H   0  0  0  0  0  0  0  0  0  0  0  0
   -8.6456    2.5688   -2.0031 H   0  0  0  0  0  0  0  0  0  0  0  0
   -8.5813    1.4010   -0.6720 H   0  0  0  0  0  0  0  0  0  0  0  0
  -10.6627    4.2550   -1.9034 H   0  0  0  0  0  0  0  0  0  0  0  0
  -11.5299    6.0056   -0.4635 H   0  0  0  0  0  0  0  0  0  0  0  0
  -11.1232    5.9114    1.9356 H   0  0  0  0  0  0  0  0  0  0  0  0
   -5.1738   -0.4317    0.4038 H   0  0  0  0  0  0  0  0  0  0  0  0
   -2.0106   -1.4233    2.6669 H   0  0  0  0  0  0  0  0  0  0  0  0
   -0.8393   -3.5343    2.9853 H   0  0  0  0  0  0  0  0  0  0  0  0
    3.4326   -2.8636    1.3285 H   0  0  0  0  0  0  0  0  0  0  0  0
    6.4181   -2.2111    0.9936 H   0  0  0  0  0  0  0  0  0  0  0  0
    5.8696   -2.8319   -0.5619 H   0  0  0  0  0  0  0  0  0  0  0  0
    6.8025   -0.5707   -1.5247 H   0  0  0  0  0  0  0  0  0  0  0  0
    7.4815   -0.2689    0.0725 H   0  0  0  0  0  0  0  0  0  0  0  0
    8.6108   -2.4948    0.1263 H   0  0  0  0  0  0  0  0  0  0  0  0
    9.2398   -1.5095   -1.2032 H   0  0  0  0  0  0  0  0  0  0  0  0
    6.7529   -3.0079   -3.4676 H   0  0  0  0  0  0  0  0  0  0  0  0
    7.5857   -1.4755   -3.0946 H   0  0  0  0  0  0  0  0  0  0  0  0
    8.4948   -3.7743   -4.7045 H   0  0  0  0  0  0  0  0  0  0  0  0
    8.9559   -2.0502   -4.7752 H   0  0  0  0  0  0  0  0  0  0  0  0
    9.3188   -5.1806   -3.5760 H   0  0  0  0  0  0  0  0  0  0  0  0
   10.6685   -4.8747   -2.4007 H   0  0  0  0  0  0  0  0  0  0  0  0
    9.2809   -4.3056   -0.7317 H   0  0  0  0  0  0  0  0  0  0  0  0
    8.0391   -5.1175   -1.6868 H   0  0  0  0  0  0  0  0  0  0  0  0
  1  2  1  0
  2  3  1  0
  3  4  2  0
  4  5  1  0
  5  6  2  0
  6  7  1  0
  7  8  1  0
  8  9  2  0
  9 10  1  0
 10 11  2  0
 11 12  1  0
 12 13  1  0
 13 14  2  0
 13 15  1  0
 15 16  1  0
 16 17  2  0
 17 18  1  0
 17 19  1  0
 19 20  2  0
 20 21  1  0
 21 22  2  0
 22 23  1  0
 11 24  1  0
 24 25  2  0
 25 26  1  0
  6 27  1  0
 27 28  2  0
 28 29  1  0
 29 30  2  0
 30 31  1  0
 31 32  2  0
 32 33  1  0
 33 34  1  0
 34 35  1  0
 35 36  1  0
 36 37  1  0
 37 38  1  0
 38 39  1  0
 39 40  1  0
 40 41  1  0
 41 42  1  0
 32  3  1  0
 42 37  1  0
 30  5  1  0
 25  8  1  0
 22 16  1  0
  1 43  1  0
  1 44  1  0
  1 45  1  0
  4 46  1  0
  9 47  1  0
 10 48  1  0
 12 49  1  0
 15 50  1  0
 18 51  1  0
 18 52  1  0
 18 53  1  0
 19 54  1  0
 20 55  1  0
 21 56  1  0
 24 57  1  0
 27 58  1  0
 28 59  1  0
 31 60  1  0
 34 61  1  0
 34 62  1  0
 35 63  1  0
 35 64  1  0
 36 65  1  0
 36 66  1  0
 38 67  1  0
 38 68  1  0
 39 69  1  0
 39 70  1  0
 41 71  1  0
 41 72  1  0
 42 73  1  0
 42 74  1  0
M  END
$$$$
[H]c1nc2c([H])c(OC([H])([H])C([H])([H])C([H])([H])N3C([H])([H])C([H])([H])C([H])([H])C3([H])[H])c(OC([H])([H])[H])c([H])c2c(Oc2c([H])c([H])c(N([H])C(=O)N([H])c3c(F)c([H])c([H])c([H])c3F)c([H])c2F)c1[H]
     RDKit          3D

 70 74  0  0  0  0  0  0  0  0999 V2000
   -2.8737    3.0010   -1.0199 C   0  0  0  0  0  0  0  0  0  0  0  0
   -3.4285    1.7344   -0.8467 O   0  0  0  0  0  0  0  0  0  0  0  0
   -2.7293    0.5415   -0.6086 C   0  0  0  0  0  0  0  0  0  0  0  0
   -1.4023    0.5636   -0.3918 C   0  0  0  0  0  0  0  0  0  0  0  0
   -0.7876   -0.6757   -0.1704 C   0  0  0  0  0  0  0  0  0  0  0  0
    0.5666   -0.6847    0.0165 C   0  0  0  0  0  0  0  0  0  0  0  0
    1.2424    0.5693    0.0034 O   0  0  0  0  0  0  0  0  0  0  0  0
    2.6350    0.3957   -0.1281 C   0  0  0  0  0  0  0  0  0  0  0  0
    3.5154    0.6850    0.8342 C   0  0  0  0  0  0  0  0  0  0  0  0
    4.8835    0.4549    0.5833 C   0  0  0  0  0  0  0  0  0  0  0  0
    5.2855   -0.0655   -0.6581 C   0  0  0  0  0  0  0  0  0  0  0  0
    6.6717   -0.3293   -0.6869 N   0  0  0  0  0  0  0  0  0  0  0  0
    7.5359    0.7702   -0.3171 C   0  0  0  0  0  0  0  0  0  0  0  0
    6.9901    1.8882   -0.1590 O   0  0  0  0  0  0  0  0  0  0  0  0
    8.8510    0.5209   -0.1346 N   0  0  0  0  0  0  0  0  0  0  0  0
   10.1955    0.2820    0.0559 C   0  0  0  0  0  0  0  0  0  0  0  0
   11.1576    1.1251    0.5335 C   0  0  0  0  0  0  0  0  0  0  0  0
   10.8494    2.4152    0.8905 F   0  0  0  0  0  0  0  0  0  0  0  0
   12.4733    0.7597    0.6985 C   0  0  0  0  0  0  0  0  0  0  0  0
   12.8926   -0.4992    0.3706 C   0  0  0  0  0  0  0  0  0  0  0  0
   11.9411   -1.3928   -0.1184 C   0  0  0  0  0  0  0  0  0  0  0  0
   10.6538   -1.0150   -0.2631 C   0  0  0  0  0  0  0  0  0  0  0  0
    9.7022   -1.9111   -0.8235 F   0  0  0  0  0  0  0  0  0  0  0  0
    4.3846   -0.3522   -1.6375 C   0  0  0  0  0  0  0  0  0  0  0  0
    3.0511   -0.1046   -1.3324 C   0  0  0  0  0  0  0  0  0  0  0  0
    2.1892   -0.3911   -2.3286 F   0  0  0  0  0  0  0  0  0  0  0  0
    1.2119   -1.8674    0.1950 C   0  0  0  0  0  0  0  0  0  0  0  0
    0.4620   -3.0219    0.1818 C   0  0  0  0  0  0  0  0  0  0  0  0
   -0.9035   -3.0284   -0.0019 N   0  0  0  0  0  0  0  0  0  0  0  0
   -1.5025   -1.8565   -0.1746 C   0  0  0  0  0  0  0  0  0  0  0  0
   -2.8816   -1.7860   -0.4127 C   0  0  0  0  0  0  0  0  0  0  0  0
   -3.5732   -0.6123   -0.6414 C   0  0  0  0  0  0  0  0  0  0  0  0
   -4.8136   -0.4745   -0.8870 O   0  0  0  0  0  0  0  0  0  0  0  0
   -6.0634   -0.4776   -1.1479 C   0  0  0  0  0  0  0  0  0  0  0  0
   -6.7660    0.8729   -0.7704 C   0  0  0  0  0  0  0  0  0  0  0  0
   -6.9995    0.8358    0.7551 C   0  0  0  0  0  0  0  0  0  0  0  0
   -8.1342    0.1760    1.1011 N   0  0  0  0  0  0  0  0  0  0  0  0
   -8.6802   -1.0504    1.0197 C   0  0  0  0  0  0  0  0  0  0  0  0
  -10.1135   -0.6278    0.4022 C   0  0  0  0  0  0  0  0  0  0  0  0
  -10.4504    0.3309    1.5376 C   0  0  0  0  0  0  0  0  0  0  0  0
   -9.1628    0.9878    1.8457 C   0  0  0  0  0  0  0  0  0  0  0  0
   -2.7454    3.2244   -2.1234 H   0  0  0  0  0  0  0  0  0  0  0  0
   -3.5220    3.7950   -0.6331 H   0  0  0  0  0  0  0  0  0  0  0  0
   -1.8172    3.1114   -0.6413 H   0  0  0  0  0  0  0  0  0  0  0  0
   -0.7937    1.4748   -0.3712 H   0  0  0  0  0  0  0  0  0  0  0  0
    3.2195    1.1044    1.7862 H   0  0  0  0  0  0  0  0  0  0  0  0
    5.6151    0.6544    1.3379 H   0  0  0  0  0  0  0  0  0  0  0  0
    7.0258   -1.2463   -0.9476 H   0  0  0  0  0  0  0  0  0  0  0  0
    9.0097    1.8194    0.1662 H   0  0  0  0  0  0  0  0  0  0  0  0
   13.2506    1.3936    1.0885 H   0  0  0  0  0  0  0  0  0  0  0  0
   13.8669   -0.8653    0.4792 H   0  0  0  0  0  0  0  0  0  0  0  0
   12.2411   -2.4150   -0.4198 H   0  0  0  0  0  0  0  0  0  0  0  0
    4.6771   -0.7233   -2.5991 H   0  0  0  0  0  0  0  0  0  0  0  0
    2.2620   -1.8948    0.3533 H   0  0  0  0  0  0  0  0  0  0  0  0
    0.9990   -3.9551    0.3206 H   0  0  0  0  0  0  0  0  0  0  0  0
   -3.4387   -2.7150   -0.4315 H   0  0  0  0  0  0  0  0  0  0  0  0
   -6.3016   -0.4756   -2.2849 H   0  0  0  0  0  0  0  0  0  0  0  0
   -6.6919   -1.3221   -0.8032 H   0  0  0  0  0  0  0  0  0  0  0  0
   -7.6897    0.9808   -1.3560 H   0  0  0  0  0  0  0  0  0  0  0  0
   -6.0917    1.6582   -0.9853 H   0  0  0  0  0  0  0  0  0  0  0  0
   -7.0170    1.8944    1.0798 H   0  0  0  0  0  0  0  0  0  0  0  0
   -6.1427    0.3777    1.2189 H   0  0  0  0  0  0  0  0  0  0  0  0
   -8.3192   -1.9223    0.5111 H   0  0  0  0  0  0  0  0  0  0  0  0
   -9.0401   -1.4191    2.0347 H   0  0  0  0  0  0  0  0  0  0  0  0
  -10.6942   -1.5110    0.2892 H   0  0  0  0  0  0  0  0  0  0  0  0
   -9.8948   -0.0075   -0.4949 H   0  0  0  0  0  0  0  0  0  0  0  0
  -10.8325   -0.3021    2.4047 H   0  0  0  0  0  0  0  0  0  0  0  0
  -11.2279    1.0501    1.1977 H   0  0  0  0  0  0  0  0  0  0  0  0
   -8.9241    0.9064    2.8708 H   0  0  0  0  0  0  0  0  0  0  0  0
   -9.0583    2.0738    1.5888 H   0  0  0  0  0  0  0  0  0  0  0  0
  1  2  1  0
  2  3  1  0
  3  4  2  0
  4  5  1  0
  5  6  2  0
  6  7  1  0
  7  8  1  0
  8  9  2  0
  9 10  1  0
 10 11  2  0
 11 12  1  0
 12 13  1  0
 13 14  2  0
 13 15  1  0
 15 16  1  0
 16 17  2  0
 17 18  1  0
 17 19  1  0
 19 20  2  0
 20 21  1  0
 21 22  2  0
 22 23  1  0
 11 24  1  0
 24 25  2  0
 25 26  1  0
  6 27  1  0
 27 28  2  0
 28 29  1  0
 29 30  2  0
 30 31  1  0
 31 32  2  0
 32 33  1  0
 33 34  1  0
 34 35  1  0
 35 36  1  0
 36 37  1  0
 37 38  1  0
 38 39  1  0
 39 40  1  0
 40 41  1  0
 32  3  1  0
 41 37  1  0
 30  5  1  0
 25  8  1  0
 22 16  1  0
  1 42  1  0
  1 43  1  0
  1 44  1  0
  4 45  1  0
  9 46  1  0
 10 47  1  0
 12 48  1  0
 15 49  1  0
 19 50  1  0
 20 51  1  0
 21 52  1  0
 24 53  1  0
 27 54  1  0
 28 55  1  0
 31 56  1  0
 34 57  1  0
 34 58  1  0
 35 59  1  0
 35 60  1  0
 36 61  1  0
 36 62  1  0
 38 63  1  0
 38 64  1  0
 39 65  1  0
 39 66  1  0
 40 67  1  0
 40 68  1  0
 41 69  1  0
 41 70  1  0
M  END
$$$$
[H]c1nc2c([H])c(OC([H])([H])C([H])([H])C([H])([H])N3C([H])([H])C([H])([H])OC([H])([H])C3([H])[H])c(OC([H])([H])[H])c([H])c2c(Oc2c([H])c([H])c(N([H])C(=O)N([H])c3c(Cl)c([H])c([H])c([H])c3Cl)c([H])c2[H])c1[H]
     RDKit          3D

 71 75  0  0  0  0  0  0  0  0999 V2000
    0.6103   -4.2150   -0.6881 C   0  0  0  0  0  0  0  0  0  0  0  0
   -0.5848   -3.5763   -0.6215 O   0  0  0  0  0  0  0  0  0  0  0  0
   -0.9595   -2.8872    0.5794 C   0  0  0  0  0  0  0  0  0  0  0  0
   -0.1319   -3.0292    1.6647 C   0  0  0  0  0  0  0  0  0  0  0  0
   -0.5225   -2.2552    2.8493 C   0  0  0  0  0  0  0  0  0  0  0  0
    0.2413   -2.2470    3.9614 C   0  0  0  0  0  0  0  0  0  0  0  0
    1.4594   -3.0660    3.9683 O   0  0  0  0  0  0  0  0  0  0  0  0
    2.4189   -2.4944    3.1067 C   0  0  0  0  0  0  0  0  0  0  0  0
    3.5360   -3.1134    2.6902 C   0  0  0  0  0  0  0  0  0  0  0  0
    4.5037   -2.5464    1.8415 C   0  0  0  0  0  0  0  0  0  0  0  0
    4.2940   -1.2715    1.3814 C   0  0  0  0  0  0  0  0  0  0  0  0
    5.1225   -0.6434    0.4054 N   0  0  0  0  0  0  0  0  0  0  0  0
    5.1157    0.7344    0.1929 C   0  0  0  0  0  0  0  0  0  0  0  0
    4.4138    1.5648    1.0381 O   0  0  0  0  0  0  0  0  0  0  0  0
    5.6695    1.4245   -0.7663 N   0  0  0  0  0  0  0  0  0  0  0  0
    6.2719    2.1825   -1.8104 C   0  0  0  0  0  0  0  0  0  0  0  0
    7.5844    2.5563   -1.9360 C   0  0  0  0  0  0  0  0  0  0  0  0
    8.6951    2.1224   -0.6824 Cl  0  0  0  0  0  0  0  0  0  0  0  0
    8.0349    3.2797   -3.0447 C   0  0  0  0  0  0  0  0  0  0  0  0
    7.1289    3.6275   -4.0424 C   0  0  0  0  0  0  0  0  0  0  0  0
    5.8211    3.2619   -3.9176 C   0  0  0  0  0  0  0  0  0  0  0  0
    5.4076    2.5605   -2.8384 C   0  0  0  0  0  0  0  0  0  0  0  0
    3.7129    2.0934   -2.7107 Cl  0  0  0  0  0  0  0  0  0  0  0  0
    3.1342   -0.5975    1.7769 C   0  0  0  0  0  0  0  0  0  0  0  0
    2.2380   -1.2062    2.6228 C   0  0  0  0  0  0  0  0  0  0  0  0
   -0.0918   -1.5005    5.0400 C   0  0  0  0  0  0  0  0  0  0  0  0
   -1.2826   -0.7063    4.9435 C   0  0  0  0  0  0  0  0  0  0  0  0
   -1.9801   -0.7608    3.8312 N   0  0  0  0  0  0  0  0  0  0  0  0
   -1.6378   -1.5256    2.7556 C   0  0  0  0  0  0  0  0  0  0  0  0
   -2.4386   -1.4336    1.6433 C   0  0  0  0  0  0  0  0  0  0  0  0
   -2.0927   -2.1201    0.5350 C   0  0  0  0  0  0  0  0  0  0  0  0
   -2.7657   -2.1400   -0.7087 O   0  0  0  0  0  0  0  0  0  0  0  0
   -3.8603   -1.1443   -0.7787 C   0  0  0  0  0  0  0  0  0  0  0  0
   -3.2774    0.2117   -0.7107 C   0  0  0  0  0  0  0  0  0  0  0  0
   -4.1583    1.3470   -0.5191 C   0  0  0  0  0  0  0  0  0  0  0  0
   -5.1917    1.7030   -1.4618 N   0  0  0  0  0  0  0  0  0  0  0  0
   -5.6372    3.0655   -1.0672 C   0  0  0  0  0  0  0  0  0  0  0  0
   -6.9595    3.4609   -1.6054 C   0  0  0  0  0  0  0  0  0  0  0  0
   -7.9176    2.5860   -1.1206 O   0  0  0  0  0  0  0  0  0  0  0  0
   -7.6661    1.2936   -1.5395 C   0  0  0  0  0  0  0  0  0  0  0  0
   -6.3029    0.7863   -1.1858 C   0  0  0  0  0  0  0  0  0  0  0  0
    0.5779   -5.1468   -1.2901 H   0  0  0  0  0  0  0  0  0  0  0  0
    1.3788   -3.4982   -1.1983 H   0  0  0  0  0  0  0  0  0  0  0  0
    1.1385   -4.4357    0.2435 H   0  0  0  0  0  0  0  0  0  0  0  0
    0.6783   -3.6428    1.7672 H   0  0  0  0  0  0  0  0  0  0  0  0
    3.7200   -4.1642    2.9818 H   0  0  0  0  0  0  0  0  0  0  0  0
    5.3767   -3.1205    1.5506 H   0  0  0  0  0  0  0  0  0  0  0  0
    5.7923   -1.2773   -0.1334 H   0  0  0  0  0  0  0  0  0  0  0  0
    5.5186    2.6220   -0.1074 H   0  0  0  0  0  0  0  0  0  0  0  0
    9.0615    3.5707   -3.1321 H   0  0  0  0  0  0  0  0  0  0  0  0
    7.4483    4.1781   -4.9220 H   0  0  0  0  0  0  0  0  0  0  0  0
    5.1494    3.5848   -4.7393 H   0  0  0  0  0  0  0  0  0  0  0  0
    2.9185    0.3409    1.3363 H   0  0  0  0  0  0  0  0  0  0  0  0
    1.4049   -0.6302    2.9368 H   0  0  0  0  0  0  0  0  0  0  0  0
    0.4783   -1.4712    5.9234 H   0  0  0  0  0  0  0  0  0  0  0  0
   -1.5914   -0.0567    5.7566 H   0  0  0  0  0  0  0  0  0  0  0  0
   -3.3625   -0.8472    1.6563 H   0  0  0  0  0  0  0  0  0  0  0  0
   -4.6048   -1.3720   -0.0226 H   0  0  0  0  0  0  0  0  0  0  0  0
   -4.2401   -1.3499   -1.8199 H   0  0  0  0  0  0  0  0  0  0  0  0
   -2.8306    0.3815   -1.8023 H   0  0  0  0  0  0  0  0  0  0  0  0
   -2.3205    0.2674   -0.1178 H   0  0  0  0  0  0  0  0  0  0  0  0
   -4.7422    1.1720    0.5074 H   0  0  0  0  0  0  0  0  0  0  0  0
   -3.6003    2.2959   -0.2655 H   0  0  0  0  0  0  0  0  0  0  0  0
   -5.5502    3.1904    0.0198 H   0  0  0  0  0  0  0  0  0  0  0  0
   -4.8658    3.7266   -1.5454 H   0  0  0  0  0  0  0  0  0  0  0  0
   -6.9697    3.5747   -2.7193 H   0  0  0  0  0  0  0  0  0  0  0  0
   -7.2204    4.4632   -1.1791 H   0  0  0  0  0  0  0  0  0  0  0  0
   -7.8697    1.1643   -2.6212 H   0  0  0  0  0  0  0  0  0  0  0  0
   -8.4631    0.6725   -1.0273 H   0  0  0  0  0  0  0  0  0  0  0  0
   -6.1153   -0.1718   -1.6942 H   0  0  0  0  0  0  0  0  0  0  0  0
   -6.2508    0.5976   -0.0748 H   0  0  0  0  0  0  0  0  0  0  0  0
  1  2  1  0
  2  3  1  0
  3  4  2  0
  4  5  1  0
  5  6  2  0
  6  7  1  0
  7  8  1  0
  8  9  2  0
  9 10  1  0
 10 11  2  0
 11 12  1  0
 12 13  1  0
 13 14  2  0
 13 15  1  0
 15 16  1  0
 16 17  2  0
 17 18  1  0
 17 19  1  0
 19 20  2  0
 20 21  1  0
 21 22  2  0
 22 23  1  0
 11 24  1  0
 24 25  2  0
  6 26  1  0
 26 27  2  0
 27 28  1  0
 28 29  2  0
 29 30  1  0
 30 31  2  0
 31 32  1  0
 32 33  1  0
 33 34  1  0
 34 35  1  0
 35 36  1  0
 36 37  1  0
 37 38  1  0
 38 39  1  0
 39 40  1  0
 40 41  1  0
 31  3  1  0
 41 36  1  0
 29  5  1  0
 25  8  1  0
 22 16  1  0
  1 42  1  0
  1 43  1  0
  1 44  1  0
  4 45  1  0
  9 46  1  0
 10 47  1  0
 12 48  1  0
 15 49  1  0
 19 50  1  0
 20 51  1  0
 21 52  1  0
 24 53  1  0
 25 54  1  0
 26 55  1  0
 27 56  1  0
 30 57  1  0
 33 58  1  0
 33 59  1  0
 34 60  1  0
 34 61  1  0
 35 62  1  0
 35 63  1  0
 37 64  1  0
 37 65  1  0
 38 66  1  0
 38 67  1  0
 40 68  1  0
 40 69  1  0
 41 70  1  0
 41 71  1  0
M  END
$$$$
[H]c1nc2c([H])c(OC([H])([H])C([H])([H])C([H])([H])N3C([H])([H])C([H])([H])C([H])([H])C3([H])[H])c(OC([H])([H])[H])c([H])c2c(Oc2c([H])c([H])c(N([H])C(=O)N([H])c3c(Cl)c([H])c([H])c([H])c3Cl)c([H])c2F)c1[H]
     RDKit          3D

 70 74  0  0  0  0  0  0  0  0999 V2000
   -2.5408    2.2933    1.9580 C   0  0  0  0  0  0  0  0  0  0  0  0
   -3.2117    1.5614    0.9538 O   0  0  0  0  0  0  0  0  0  0  0  0
   -2.6106    0.6166    0.1573 C   0  0  0  0  0  0  0  0  0  0  0  0
   -1.2678    0.3008    0.2830 C   0  0  0  0  0  0  0  0  0  0  0  0
   -0.6912   -0.6564   -0.5361 C   0  0  0  0  0  0  0  0  0  0  0  0
    0.6732   -0.9736   -0.4115 C   0  0  0  0  0  0  0  0  0  0  0  0
    1.3911   -0.2942    0.5550 O   0  0  0  0  0  0  0  0  0  0  0  0
    2.7556   -0.4861    0.6638 C   0  0  0  0  0  0  0  0  0  0  0  0
    3.3229   -1.0705    1.7865 C   0  0  0  0  0  0  0  0  0  0  0  0
    4.6782   -1.2503    1.8775 C   0  0  0  0  0  0  0  0  0  0  0  0
    5.5801   -0.8698    0.8755 C   0  0  0  0  0  0  0  0  0  0  0  0
    6.9512   -1.1111    1.0002 N   0  0  0  0  0  0  0  0  0  0  0  0
    7.9333   -0.2933    0.4487 C   0  0  0  0  0  0  0  0  0  0  0  0
    7.6492    0.7362   -0.1969 O   0  0  0  0  0  0  0  0  0  0  0  0
    9.3080   -0.6284    0.6171 N   0  0  0  0  0  0  0  0  0  0  0  0
   10.2873    0.2209    0.0449 C   0  0  0  0  0  0  0  0  0  0  0  0
   10.7971    1.2486    0.7936 C   0  0  0  0  0  0  0  0  0  0  0  0
   10.2873    1.5155    2.4234 Cl  0  0  0  0  0  0  0  0  0  0  0  0
   11.7556    2.1076    0.2492 C   0  0  0  0  0  0  0  0  0  0  0  0
   12.1737    1.9051   -1.0375 C   0  0  0  0  0  0  0  0  0  0  0  0
   11.6796    0.8840   -1.8086 C   0  0  0  0  0  0  0  0  0  0  0  0
   10.7379    0.0521   -1.2519 C   0  0  0  0  0  0  0  0  0  0  0  0
   10.0654   -1.2691   -2.1808 Cl  0  0  0  0  0  0  0  0  0  0  0  0
    5.0156   -0.2927   -0.2312 C   0  0  0  0  0  0  0  0  0  0  0  0
    3.6300   -0.1080   -0.3265 C   0  0  0  0  0  0  0  0  0  0  0  0
    3.1535    0.4901   -1.4355 F   0  0  0  0  0  0  0  0  0  0  0  0
    1.1877   -1.9276   -1.2566 C   0  0  0  0  0  0  0  0  0  0  0  0
    0.3849   -2.5488   -2.1941 C   0  0  0  0  0  0  0  0  0  0  0  0
   -0.9318   -2.2114   -2.2806 N   0  0  0  0  0  0  0  0  0  0  0  0
   -1.4625   -1.2919   -1.4770 C   0  0  0  0  0  0  0  0  0  0  0  0
   -2.8246   -0.9935   -1.6276 C   0  0  0  0  0  0  0  0  0  0  0  0
   -3.3626   -0.0373   -0.7957 C   0  0  0  0  0  0  0  0  0  0  0  0
   -4.6942    0.2837   -0.9136 O   0  0  0  0  0  0  0  0  0  0  0  0
   -5.5982   -0.2758   -1.8179 C   0  0  0  0  0  0  0  0  0  0  0  0
   -6.9431    0.4240   -1.5551 C   0  0  0  0  0  0  0  0  0  0  0  0
   -7.2867    0.0979   -0.1205 C   0  0  0  0  0  0  0  0  0  0  0  0
   -8.5321    0.6900    0.3030 N   0  0  0  0  0  0  0  0  0  0  0  0
   -9.6757    0.1239   -0.3622 C   0  0  0  0  0  0  0  0  0  0  0  0
  -10.8244    0.6392    0.4937 C   0  0  0  0  0  0  0  0  0  0  0  0
  -10.2011    0.6231    1.8850 C   0  0  0  0  0  0  0  0  0  0  0  0
   -8.7679    0.2000    1.6736 C   0  0  0  0  0  0  0  0  0  0  0  0
   -1.9762    1.6557    2.6492 H   0  0  0  0  0  0  0  0  0  0  0  0
   -1.8575    3.0377    1.4521 H   0  0  0  0  0  0  0  0  0  0  0  0
   -3.3158    2.9131    2.4674 H   0  0  0  0  0  0  0  0  0  0  0  0
   -0.6567    0.8007    1.0239 H   0  0  0  0  0  0  0  0  0  0  0  0
    2.7172   -1.4003    2.6207 H   0  0  0  0  0  0  0  0  0  0  0  0
    5.1419   -1.7113    2.7574 H   0  0  0  0  0  0  0  0  0  0  0  0
    7.2162   -1.9821    1.5523 H   0  0  0  0  0  0  0  0  0  0  0  0
    9.6192   -1.4753    1.1463 H   0  0  0  0  0  0  0  0  0  0  0  0
   12.1368    2.9087    0.8691 H   0  0  0  0  0  0  0  0  0  0  0  0
   12.9223    2.5691   -1.4753 H   0  0  0  0  0  0  0  0  0  0  0  0
   12.0345    0.7571   -2.8212 H   0  0  0  0  0  0  0  0  0  0  0  0
    5.6295    0.0215   -1.0694 H   0  0  0  0  0  0  0  0  0  0  0  0
    2.2226   -2.2028   -1.1778 H   0  0  0  0  0  0  0  0  0  0  0  0
    0.8156   -3.3072   -2.8594 H   0  0  0  0  0  0  0  0  0  0  0  0
   -3.4051   -1.5044   -2.3677 H   0  0  0  0  0  0  0  0  0  0  0  0
   -5.3165   -0.3043   -2.8647 H   0  0  0  0  0  0  0  0  0  0  0  0
   -5.7825   -1.3321   -1.4409 H   0  0  0  0  0  0  0  0  0  0  0  0
   -7.6992    0.1445   -2.2826 H   0  0  0  0  0  0  0  0  0  0  0  0
   -6.7441    1.5182   -1.6867 H   0  0  0  0  0  0  0  0  0  0  0  0
   -6.4320    0.4429    0.4962 H   0  0  0  0  0  0  0  0  0  0  0  0
   -7.3240   -1.0202   -0.0409 H   0  0  0  0  0  0  0  0  0  0  0  0
   -9.7402    0.5265   -1.3973 H   0  0  0  0  0  0  0  0  0  0  0  0
   -9.6794   -0.9620   -0.2982 H   0  0  0  0  0  0  0  0  0  0  0  0
  -11.7091    0.0061    0.4350 H   0  0  0  0  0  0  0  0  0  0  0  0
  -11.0371    1.7010    0.2007 H   0  0  0  0  0  0  0  0  0  0  0  0
  -10.6970   -0.1112    2.5515 H   0  0  0  0  0  0  0  0  0  0  0  0
  -10.2671    1.6291    2.3511 H   0  0  0  0  0  0  0  0  0  0  0  0
   -8.7295   -0.9181    1.5955 H   0  0  0  0  0  0  0  0  0  0  0  0
   -8.0581    0.6056    2.3885 H   0  0  0  0  0  0  0  0  0  0  0  0
  1  2  1  0
  2  3  1  0
  3  4  2  0
  4  5  1  0
  5  6  2  0
  6  7  1  0
  7  8  1  0
  8  9  2  0
  9 10  1  0
 10 11  2  0
 11 12  1  0
 12 13  1  0
 13 14  2  0
 13 15  1  0
 15 16  1  0
 16 17  2  0
 17 18  1  0
 17 19  1  0
 19 20  2  0
 20 21  1  0
 21 22  2  0
 22 23  1  0
 11 24  1  0
 24 25  2  0
 25 26  1  0
  6 27  1  0
 27 28  2  0
 28 29  1  0
 29 30  2  0
 30 31  1  0
 31 32  2  0
 32 33  1  0
 33 34  1  0
 34 35  1  0
 35 36  1  0
 36 37  1  0
 37 38  1  0
 38 39  1  0
 39 40  1  0
 40 41  1  0
 32  3  1  0
 41 37  1  0
 30  5  1  0
 25  8  1  0
 22 16  1  0
  1 42  1  0
  1 43  1  0
  1 44  1  0
  4 45  1  0
  9 46  1  0
 10 47  1  0
 12 48  1  0
 15 49  1  0
 19 50  1  0
 20 51  1  0
 21 52  1  0
 24 53  1  0
 27 54  1  0
 28 55  1  0
 31 56  1  0
 34 57  1  0
 34 58  1  0
 35 59  1  0
 35 60  1  0
 36 61  1  0
 36 62  1  0
 38 63  1  0
 38 64  1  0
 39 65  1  0
 39 66  1  0
 40 67  1  0
 40 68  1  0
 41 69  1  0
 41 70  1  0
M  END
$$$$
[H]c1nc2c([H])c(OC([H])([H])C([H])([H])C([H])([H])N3C([H])([H])C([H])([H])N(C([H])([H])[H])C([H])([H])C3([H])[H])c(OC([H])([H])[H])c([H])c2c(Oc2c([H])c([H])c(N([H])C(=O)N([H])c3c([H])c([H])c([H])c([H])c3[H])c([H])c2F)c1[H]
     RDKit          3D

 75 79  0  0  0  0  0  0  0  0999 V2000
   -1.1858    4.8121    0.3673 C   0  0  0  0  0  0  0  0  0  0  0  0
   -2.2897    3.8995    0.4639 O   0  0  0  0  0  0  0  0  0  0  0  0
   -2.0357    2.5459    0.3675 C   0  0  0  0  0  0  0  0  0  0  0  0
   -0.7572    2.0682    0.1823 C   0  0  0  0  0  0  0  0  0  0  0  0
   -0.5425    0.7107    0.0908 C   0  0  0  0  0  0  0  0  0  0  0  0
    0.7339    0.1616   -0.0981 C   0  0  0  0  0  0  0  0  0  0  0  0
    1.7586    1.0535   -0.1843 O   0  0  0  0  0  0  0  0  0  0  0  0
    3.0958    0.8329   -0.3247 C   0  0  0  0  0  0  0  0  0  0  0  0
    3.7061    1.3094   -1.4739 C   0  0  0  0  0  0  0  0  0  0  0  0
    5.0400    1.1042   -1.6386 C   0  0  0  0  0  0  0  0  0  0  0  0
    5.8540    0.4299   -0.7056 C   0  0  0  0  0  0  0  0  0  0  0  0
    7.2155    0.2573   -0.9681 N   0  0  0  0  0  0  0  0  0  0  0  0
    8.2438   -0.2067   -0.1151 C   0  0  0  0  0  0  0  0  0  0  0  0
    8.0143   -0.5361    1.0714 O   0  0  0  0  0  0  0  0  0  0  0  0
    9.5815   -0.3179   -0.5704 N   0  0  0  0  0  0  0  0  0  0  0  0
   10.6819   -0.7623    0.1556 C   0  0  0  0  0  0  0  0  0  0  0  0
   11.9627   -0.4780   -0.3503 C   0  0  0  0  0  0  0  0  0  0  0  0
   13.1064   -0.8880    0.2819 C   0  0  0  0  0  0  0  0  0  0  0  0
   13.0647   -1.6016    1.4485 C   0  0  0  0  0  0  0  0  0  0  0  0
   11.8324   -1.9033    1.9803 C   0  0  0  0  0  0  0  0  0  0  0  0
   10.6731   -1.4768    1.3213 C   0  0  0  0  0  0  0  0  0  0  0  0
    5.2073   -0.0199    0.4084 C   0  0  0  0  0  0  0  0  0  0  0  0
    3.8321    0.1679    0.6241 C   0  0  0  0  0  0  0  0  0  0  0  0
    3.2776   -0.3097    1.7874 F   0  0  0  0  0  0  0  0  0  0  0  0
    0.9051   -1.2009   -0.1851 C   0  0  0  0  0  0  0  0  0  0  0  0
   -0.1822   -2.0467   -0.0865 C   0  0  0  0  0  0  0  0  0  0  0  0
   -1.3993   -1.5069    0.0946 N   0  0  0  0  0  0  0  0  0  0  0  0
   -1.5937   -0.1589    0.1834 C   0  0  0  0  0  0  0  0  0  0  0  0
   -2.8722    0.3467    0.3701 C   0  0  0  0  0  0  0  0  0  0  0  0
   -3.1474    1.6883    0.4683 C   0  0  0  0  0  0  0  0  0  0  0  0
   -4.3317    2.1775    0.6407 O   0  0  0  0  0  0  0  0  0  0  0  0
   -5.6368    2.1545    0.7977 C   0  0  0  0  0  0  0  0  0  0  0  0
   -6.5658    1.6187   -0.2220 C   0  0  0  0  0  0  0  0  0  0  0  0
   -6.4783    0.2157   -0.6296 C   0  0  0  0  0  0  0  0  0  0  0  0
   -6.6714   -0.7667    0.3939 N   0  0  0  0  0  0  0  0  0  0  0  0
   -6.5532   -2.0777   -0.2126 C   0  0  0  0  0  0  0  0  0  0  0  0
   -7.7975   -2.4955   -0.9658 C   0  0  0  0  0  0  0  0  0  0  0  0
   -8.9470   -2.5098   -0.0946 N   0  0  0  0  0  0  0  0  0  0  0  0
  -10.0423   -1.7161   -0.5631 C   0  0  0  0  0  0  0  0  0  0  0  0
   -8.5444   -2.0601    1.2039 C   0  0  0  0  0  0  0  0  0  0  0  0
   -7.8871   -0.6812    1.1158 C   0  0  0  0  0  0  0  0  0  0  0  0
   -0.7614    4.6774   -0.6490 H   0  0  0  0  0  0  0  0  0  0  0  0
   -0.4002    4.5680    1.0933 H   0  0  0  0  0  0  0  0  0  0  0  0
   -1.5597    5.8560    0.4355 H   0  0  0  0  0  0  0  0  0  0  0  0
    0.0967    2.7124    0.1043 H   0  0  0  0  0  0  0  0  0  0  0  0
    3.1486    1.8424   -2.2474 H   0  0  0  0  0  0  0  0  0  0  0  0
    5.5032    1.4775   -2.5315 H   0  0  0  0  0  0  0  0  0  0  0  0
    7.5353    0.5096   -1.9609 H   0  0  0  0  0  0  0  0  0  0  0  0
    9.7340   -0.0274   -1.5868 H   0  0  0  0  0  0  0  0  0  0  0  0
   12.0147    0.0906   -1.2780 H   0  0  0  0  0  0  0  0  0  0  0  0
   14.0711   -0.6348   -0.1636 H   0  0  0  0  0  0  0  0  0  0  0  0
   13.9904   -1.9206    1.9401 H   0  0  0  0  0  0  0  0  0  0  0  0
   11.7595   -2.4684    2.9048 H   0  0  0  0  0  0  0  0  0  0  0  0
    9.7646   -1.7626    1.7919 H   0  0  0  0  0  0  0  0  0  0  0  0
    5.7388   -0.5573    1.1839 H   0  0  0  0  0  0  0  0  0  0  0  0
    1.8784   -1.6323   -0.3397 H   0  0  0  0  0  0  0  0  0  0  0  0
   -0.0745   -3.1311   -0.1523 H   0  0  0  0  0  0  0  0  0  0  0  0
   -3.6619   -0.4188    0.4427 H   0  0  0  0  0  0  0  0  0  0  0  0
   -5.8764    1.5532    1.7534 H   0  0  0  0  0  0  0  0  0  0  0  0
   -6.1040    3.1632    1.1163 H   0  0  0  0  0  0  0  0  0  0  0  0
   -6.4340    2.2366   -1.1643 H   0  0  0  0  0  0  0  0  0  0  0  0
   -7.6364    1.8517    0.0611 H   0  0  0  0  0  0  0  0  0  0  0  0
   -5.5595   -0.0391   -1.1969 H   0  0  0  0  0  0  0  0  0  0  0  0
   -7.3012    0.0554   -1.3943 H   0  0  0  0  0  0  0  0  0  0  0  0
   -5.7324   -2.0415   -0.9885 H   0  0  0  0  0  0  0  0  0  0  0  0
   -6.2218   -2.8524    0.5060 H   0  0  0  0  0  0  0  0  0  0  0  0
   -7.9251   -1.8326   -1.8386 H   0  0  0  0  0  0  0  0  0  0  0  0
   -7.6255   -3.5500   -1.2810 H   0  0  0  0  0  0  0  0  0  0  0  0
   -9.7099   -0.9922   -1.3208 H   0  0  0  0  0  0  0  0  0  0  0  0
  -10.8823   -2.3609   -0.9560 H   0  0  0  0  0  0  0  0  0  0  0  0
  -10.4887   -1.1645    0.2911 H   0  0  0  0  0  0  0  0  0  0  0  0
   -9.4575   -1.9025    1.8355 H   0  0  0  0  0  0  0  0  0  0  0  0
   -7.8556   -2.7203    1.7342 H   0  0  0  0  0  0  0  0  0  0  0  0
   -8.6476   -0.0070    0.6784 H   0  0  0  0  0  0  0  0  0  0  0  0
   -7.6448   -0.4109    2.1703 H   0  0  0  0  0  0  0  0  0  0  0  0
  1  2  1  0
  2  3  1  0
  3  4  2  0
  4  5  1  0
  5  6  2  0
  6  7  1  0
  7  8  1  0
  8  9  2  0
  9 10  1  0
 10 11  2  0
 11 12  1  0
 12 13  1  0
 13 14  2  0
 13 15  1  0
 15 16  1  0
 16 17  2  0
 17 18  1  0
 18 19  2  0
 19 20  1  0
 20 21  2  0
 11 22  1  0
 22 23  2  0
 23 24  1  0
  6 25  1  0
 25 26  2  0
 26 27  1  0
 27 28  2  0
 28 29  1  0
 29 30  2  0
 30 31  1  0
 31 32  1  0
 32 33  1  0
 33 34  1  0
 34 35  1  0
 35 36  1  0
 36 37  1  0
 37 38  1  0
 38 39  1  0
 38 40  1  0
 40 41  1  0
 30  3  1  0
 41 35  1  0
 28  5  1  0
 23  8  1  0
 21 16  1  0
  1 42  1  0
  1 43  1  0
  1 44  1  0
  4 45  1  0
  9 46  1  0
 10 47  1  0
 12 48  1  0
 15 49  1  0
 17 50  1  0
 18 51  1  0
 19 52  1  0
 20 53  1  0
 21 54  1  0
 22 55  1  0
 25 56  1  0
 26 57  1  0
 29 58  1  0
 32 59  1  0
 32 60  1  0
 33 61  1  0
 33 62  1  0
 34 63  1  0
 34 64  1  0
 36 65  1  0
 36 66  1  0
 37 67  1  0
 37 68  1  0
 39 69  1  0
 39 70  1  0
 39 71  1  0
 40 72  1  0
 40 73  1  0
 41 74  1  0
 41 75  1  0
M  END
$$$$
[H]c1nc2c([H])c(OC([H])([H])[H])c(OC([H])([H])[H])c([H])c2c(Oc2c([H])c([H])c(N([H])C(=O)N([H])c3c(Cl)c([H])c([H])c([H])c3Cl)c([H])c2Cl)c1[H]
     RDKit          3D

 52 55  0  0  0  0  0  0  0  0999 V2000
    8.7591   -1.4957    0.2509 C   0  0  0  0  0  0  0  0  0  0  0  0
    7.9762   -0.3500    0.4625 O   0  0  0  0  0  0  0  0  0  0  0  0
    6.6196   -0.3922    0.1364 C   0  0  0  0  0  0  0  0  0  0  0  0
    6.0491   -1.5343   -0.3849 C   0  0  0  0  0  0  0  0  0  0  0  0
    4.6955   -1.5961   -0.7170 C   0  0  0  0  0  0  0  0  0  0  0  0
    4.1655   -2.7312   -1.2266 N   0  0  0  0  0  0  0  0  0  0  0  0
    2.8619   -2.7976   -1.5491 C   0  0  0  0  0  0  0  0  0  0  0  0
    2.0385   -1.6954   -1.3620 C   0  0  0  0  0  0  0  0  0  0  0  0
    2.5194   -0.5265   -0.8515 C   0  0  0  0  0  0  0  0  0  0  0  0
    1.7906    0.6235   -0.6232 O   0  0  0  0  0  0  0  0  0  0  0  0
    0.4380    0.6600   -0.8274 C   0  0  0  0  0  0  0  0  0  0  0  0
   -0.1549    1.4330   -1.8171 C   0  0  0  0  0  0  0  0  0  0  0  0
   -1.4946    1.4802   -2.0278 C   0  0  0  0  0  0  0  0  0  0  0  0
   -2.3788    0.7279   -1.2330 C   0  0  0  0  0  0  0  0  0  0  0  0
   -3.7541    0.7886   -1.5056 N   0  0  0  0  0  0  0  0  0  0  0  0
   -4.7522    0.4511   -0.5822 C   0  0  0  0  0  0  0  0  0  0  0  0
   -4.5241    0.0666    0.5885 O   0  0  0  0  0  0  0  0  0  0  0  0
   -6.1423    0.5406   -0.9711 N   0  0  0  0  0  0  0  0  0  0  0  0
   -7.1960    0.2109   -0.0762 C   0  0  0  0  0  0  0  0  0  0  0  0
   -7.7269    1.1979    0.7281 C   0  0  0  0  0  0  0  0  0  0  0  0
   -7.1747    2.8437    0.7109 Cl  0  0  0  0  0  0  0  0  0  0  0  0
   -8.7581    0.8500    1.5960 C   0  0  0  0  0  0  0  0  0  0  0  0
   -9.2201   -0.4515    1.6337 C   0  0  0  0  0  0  0  0  0  0  0  0
   -8.6748   -1.4270    0.8192 C   0  0  0  0  0  0  0  0  0  0  0  0
   -7.6418   -1.0963   -0.0557 C   0  0  0  0  0  0  0  0  0  0  0  0
   -6.9540   -2.3392   -1.0869 Cl  0  0  0  0  0  0  0  0  0  0  0  0
   -1.8097   -0.0347   -0.2582 C   0  0  0  0  0  0  0  0  0  0  0  0
   -0.4165   -0.0722   -0.0512 C   0  0  0  0  0  0  0  0  0  0  0  0
    0.2208   -1.0421    1.2721 Cl  0  0  0  0  0  0  0  0  0  0  0  0
    3.8864   -0.5029   -0.5294 C   0  0  0  0  0  0  0  0  0  0  0  0
    4.4674    0.6393   -0.0056 C   0  0  0  0  0  0  0  0  0  0  0  0
    5.8023    0.7014    0.3223 C   0  0  0  0  0  0  0  0  0  0  0  0
    6.3624    1.8555    0.8453 O   0  0  0  0  0  0  0  0  0  0  0  0
    5.5903    3.0267    1.0681 C   0  0  0  0  0  0  0  0  0  0  0  0
    8.3289   -2.3089    0.8794 H   0  0  0  0  0  0  0  0  0  0  0  0
    9.8008   -1.3088    0.5762 H   0  0  0  0  0  0  0  0  0  0  0  0
    8.7599   -1.8329   -0.8077 H   0  0  0  0  0  0  0  0  0  0  0  0
    6.6605   -2.4031   -0.5412 H   0  0  0  0  0  0  0  0  0  0  0  0
    2.3981   -3.6837   -1.9584 H   0  0  0  0  0  0  0  0  0  0  0  0
    0.9967   -1.7525   -1.6359 H   0  0  0  0  0  0  0  0  0  0  0  0
    0.5505    2.0128   -2.4269 H   0  0  0  0  0  0  0  0  0  0  0  0
   -1.9298    2.0988   -2.8150 H   0  0  0  0  0  0  0  0  0  0  0  0
   -4.0295    1.1145   -2.4910 H   0  0  0  0  0  0  0  0  0  0  0  0
   -6.3275    0.8591   -1.9405 H   0  0  0  0  0  0  0  0  0  0  0  0
   -9.1820    1.6348    2.2373 H   0  0  0  0  0  0  0  0  0  0  0  0
  -10.0266   -0.7330    2.3096 H   0  0  0  0  0  0  0  0  0  0  0  0
   -9.0676   -2.4373    0.8807 H   0  0  0  0  0  0  0  0  0  0  0  0
   -2.4000   -0.6781    0.4128 H   0  0  0  0  0  0  0  0  0  0  0  0
    3.8027    1.5003    0.1358 H   0  0  0  0  0  0  0  0  0  0  0  0
    5.0889    3.2610    0.1018 H   0  0  0  0  0  0  0  0  0  0  0  0
    4.8295    2.8003    1.8263 H   0  0  0  0  0  0  0  0  0  0  0  0
    6.2771    3.8448    1.3686 H   0  0  0  0  0  0  0  0  0  0  0  0
  1  2  1  0
  2  3  1  0
  3  4  2  0
  4  5  1  0
  5  6  2  0
  6  7  1  0
  7  8  2  0
  8  9  1  0
  9 10  1  0
 10 11  1  0
 11 12  2  0
 12 13  1  0
 13 14  2  0
 14 15  1  0
 15 16  1  0
 16 17  2  0
 16 18  1  0
 18 19  1  0
 19 20  2  0
 20 21  1  0
 20 22  1  0
 22 23  2  0
 23 24  1  0
 24 25  2  0
 25 26  1  0
 14 27  1  0
 27 28  2  0
 28 29  1  0
  9 30  2  0
 30 31  1  0
 31 32  2  0
 32 33  1  0
 33 34  1  0
 32  3  1  0
 30  5  1  0
 28 11  1  0
 25 19  1  0
  1 35  1  0
  1 36  1  0
  1 37  1  0
  4 38  1  0
  7 39  1  0
  8 40  1  0
 12 41  1  0
 13 42  1  0
 15 43  1  0
 18 44  1  0
 22 45  1  0
 23 46  1  0
 24 47  1  0
 27 48  1  0
 31 49  1  0
 34 50  1  0
 34 51  1  0
 34 52  1  0
M  END
$$$$
[H]c1nc2c([H])c(OC([H])([H])C([H])([H])C([H])([H])N3C([H])([H])C([H])([H])OC([H])([H])C3([H])[H])c(OC([H])([H])[H])c([H])c2c(Oc2c([H])c([H])c(N([H])C(=O)N([H])c3c([H])c([H])c([H])c([H])c3[H])c([H])c2F)c1[H]
     RDKit          3D

 71 75  0  0  0  0  0  0  0  0999 V2000
   -1.6792   -3.9080    2.0100 C   0  0  0  0  0  0  0  0  0  0  0  0
   -2.6964   -3.5027    1.1251 O   0  0  0  0  0  0  0  0  0  0  0  0
   -2.4899   -2.5075    0.1709 C   0  0  0  0  0  0  0  0  0  0  0  0
   -1.2964   -1.8523    0.0183 C   0  0  0  0  0  0  0  0  0  0  0  0
   -1.0995   -0.8694   -0.9269 C   0  0  0  0  0  0  0  0  0  0  0  0
    0.1218   -0.2023   -1.0781 C   0  0  0  0  0  0  0  0  0  0  0  0
    1.1122   -0.6069   -0.2027 O   0  0  0  0  0  0  0  0  0  0  0  0
    2.3538   -0.0045   -0.1608 C   0  0  0  0  0  0  0  0  0  0  0  0
    3.4941   -0.6993   -0.4943 C   0  0  0  0  0  0  0  0  0  0  0  0
    4.7736   -0.1170   -0.4605 C   0  0  0  0  0  0  0  0  0  0  0  0
    4.9290    1.1849   -0.0864 C   0  0  0  0  0  0  0  0  0  0  0  0
    6.1775    1.8231   -0.0077 N   0  0  0  0  0  0  0  0  0  0  0  0
    7.4055    1.1549    0.2024 C   0  0  0  0  0  0  0  0  0  0  0  0
    7.3781   -0.0740    0.3349 O   0  0  0  0  0  0  0  0  0  0  0  0
    8.5795    1.9400    0.2457 N   0  0  0  0  0  0  0  0  0  0  0  0
    9.8657    1.4255    0.4478 C   0  0  0  0  0  0  0  0  0  0  0  0
   10.9589    2.2569    0.1214 C   0  0  0  0  0  0  0  0  0  0  0  0
   12.2576    1.8578    0.2973 C   0  0  0  0  0  0  0  0  0  0  0  0
   12.5778    0.6231    0.8025 C   0  0  0  0  0  0  0  0  0  0  0  0
   11.5409   -0.2076    1.1295 C   0  0  0  0  0  0  0  0  0  0  0  0
   10.2120    0.2014    0.9496 C   0  0  0  0  0  0  0  0  0  0  0  0
    3.7683    1.9072    0.2578 C   0  0  0  0  0  0  0  0  0  0  0  0
    2.5415    1.3134    0.2147 C   0  0  0  0  0  0  0  0  0  0  0  0
    1.4091    2.0181    0.5816 F   0  0  0  0  0  0  0  0  0  0  0  0
    0.2720    0.7772   -2.0407 C   0  0  0  0  0  0  0  0  0  0  0  0
   -0.8103    1.1029   -2.8696 C   0  0  0  0  0  0  0  0  0  0  0  0
   -1.9694    0.4499   -2.7049 N   0  0  0  0  0  0  0  0  0  0  0  0
   -2.1248   -0.5103   -1.7659 C   0  0  0  0  0  0  0  0  0  0  0  0
   -3.3445   -1.1703   -1.6211 C   0  0  0  0  0  0  0  0  0  0  0  0
   -3.5589   -2.1517   -0.6837 C   0  0  0  0  0  0  0  0  0  0  0  0
   -4.7296   -2.8224   -0.4970 O   0  0  0  0  0  0  0  0  0  0  0  0
   -5.9140   -2.6260   -1.1557 C   0  0  0  0  0  0  0  0  0  0  0  0
   -6.5764   -1.2940   -0.9157 C   0  0  0  0  0  0  0  0  0  0  0  0
   -6.8842   -1.1570    0.5675 C   0  0  0  0  0  0  0  0  0  0  0  0
   -7.5188    0.0663    0.9231 N   0  0  0  0  0  0  0  0  0  0  0  0
   -8.8541    0.2109    0.4288 C   0  0  0  0  0  0  0  0  0  0  0  0
   -9.5629    1.2555    1.2581 C   0  0  0  0  0  0  0  0  0  0  0  0
   -8.6946    2.1987    1.7955 O   0  0  0  0  0  0  0  0  0  0  0  0
   -7.6392    2.4890    0.9449 C   0  0  0  0  0  0  0  0  0  0  0  0
   -6.7633    1.2568    0.7053 C   0  0  0  0  0  0  0  0  0  0  0  0
   -1.0095   -4.6873    1.5895 H   0  0  0  0  0  0  0  0  0  0  0  0
   -2.2118   -4.3161    2.9141 H   0  0  0  0  0  0  0  0  0  0  0  0
   -1.0660   -3.0657    2.3362 H   0  0  0  0  0  0  0  0  0  0  0  0
   -0.4542   -2.0972    0.6546 H   0  0  0  0  0  0  0  0  0  0  0  0
    3.3664   -1.7422   -0.7926 H   0  0  0  0  0  0  0  0  0  0  0  0
    5.5768   -0.7791   -0.7707 H   0  0  0  0  0  0  0  0  0  0  0  0
    6.2416    2.8859   -0.1098 H   0  0  0  0  0  0  0  0  0  0  0  0
    8.4752    2.9780    0.1207 H   0  0  0  0  0  0  0  0  0  0  0  0
   10.7391    3.2405   -0.2814 H   0  0  0  0  0  0  0  0  0  0  0  0
   13.0655    2.5437    0.0264 H   0  0  0  0  0  0  0  0  0  0  0  0
   13.6177    0.3596    0.9205 H   0  0  0  0  0  0  0  0  0  0  0  0
   11.7024   -1.1879    1.5294 H   0  0  0  0  0  0  0  0  0  0  0  0
    9.4188   -0.4840    1.2339 H   0  0  0  0  0  0  0  0  0  0  0  0
    3.8986    2.9187    0.5466 H   0  0  0  0  0  0  0  0  0  0  0  0
    1.2184    1.2648   -2.1489 H   0  0  0  0  0  0  0  0  0  0  0  0
   -0.6367    1.8744   -3.6021 H   0  0  0  0  0  0  0  0  0  0  0  0
   -4.1067   -0.8713   -2.3228 H   0  0  0  0  0  0  0  0  0  0  0  0
   -5.7893   -2.6890   -2.2833 H   0  0  0  0  0  0  0  0  0  0  0  0
   -6.6677   -3.4236   -0.8854 H   0  0  0  0  0  0  0  0  0  0  0  0
   -7.5094   -1.2760   -1.5217 H   0  0  0  0  0  0  0  0  0  0  0  0
   -5.9562   -0.4472   -1.1885 H   0  0  0  0  0  0  0  0  0  0  0  0
   -7.5827   -1.9841    0.8203 H   0  0  0  0  0  0  0  0  0  0  0  0
   -5.9686   -1.3280    1.1408 H   0  0  0  0  0  0  0  0  0  0  0  0
   -9.4312   -0.7481    0.5232 H   0  0  0  0  0  0  0  0  0  0  0  0
   -8.7947    0.5303   -0.6500 H   0  0  0  0  0  0  0  0  0  0  0  0
  -10.3571    1.7057    0.6277 H   0  0  0  0  0  0  0  0  0  0  0  0
  -10.0108    0.7188    2.1401 H   0  0  0  0  0  0  0  0  0  0  0  0
   -7.0567    3.3088    1.4168 H   0  0  0  0  0  0  0  0  0  0  0  0
   -7.9855    2.8818   -0.0469 H   0  0  0  0  0  0  0  0  0  0  0  0
   -6.3766    1.3358   -0.3223 H   0  0  0  0  0  0  0  0  0  0  0  0
   -5.8715    1.3498    1.3906 H   0  0  0  0  0  0  0  0  0  0  0  0
  1  2  1  0
  2  3  1  0
  3  4  2  0
  4  5  1  0
  5  6  2  0
  6  7  1  0
  7  8  1  0
  8  9  2  0
  9 10  1  0
 10 11  2  0
 11 12  1  0
 12 13  1  0
 13 14  2  0
 13 15  1  0
 15 16  1  0
 16 17  2  0
 17 18  1  0
 18 19  2  0
 19 20  1  0
 20 21  2  0
 11 22  1  0
 22 23  2  0
 23 24  1  0
  6 25  1  0
 25 26  2  0
 26 27  1  0
 27 28  2  0
 28 29  1  0
 29 30  2  0
 30 31  1  0
 31 32  1  0
 32 33  1  0
 33 34  1  0
 34 35  1  0
 35 36  1  0
 36 37  1  0
 37 38  1  0
 38 39  1  0
 39 40  1  0
 30  3  1  0
 40 35  1  0
 28  5  1  0
 23  8  1  0
 21 16  1  0
  1 41  1  0
  1 42  1  0
  1 43  1  0
  4 44  1  0
  9 45  1  0
 10 46  1  0
 12 47  1  0
 15 48  1  0
 17 49  1  0
 18 50  1  0
 19 51  1  0
 20 52  1  0
 21 53  1  0
 22 54  1  0
 25 55  1  0
 26 56  1  0
 29 57  1  0
 32 58  1  0
 32 59  1  0
 33 60  1  0
 33 61  1  0
 34 62  1  0
 34 63  1  0
 36 64  1  0
 36 65  1  0
 37 66  1  0
 37 67  1  0
 39 68  1  0
 39 69  1  0
 40 70  1  0
 40 71  1  0
M  END
$$$$
[H]c1nc2c([H])c(OC([H])([H])C([H])([H])C([H])([H])N3C([H])([H])C([H])([H])OC([H])([H])C3([H])[H])c(OC([H])([H])[H])c([H])c2c(Oc2c([H])c([H])c(N([H])C(=O)N([H])c3c([H])c([H])c([H])c([H])c3[H])c([H])c2[H])c1[H]
     RDKit          3D

 71 75  0  0  0  0  0  0  0  0999 V2000
   -1.5141   -4.2812   -3.0643 C   0  0  0  0  0  0  0  0  0  0  0  0
   -2.6252   -3.9164   -2.2664 O   0  0  0  0  0  0  0  0  0  0  0  0
   -2.4309   -2.8906   -1.3482 C   0  0  0  0  0  0  0  0  0  0  0  0
   -1.2299   -2.2395   -1.1950 C   0  0  0  0  0  0  0  0  0  0  0  0
   -0.9983   -1.2335   -0.3093 C   0  0  0  0  0  0  0  0  0  0  0  0
    0.2343   -0.6379   -0.2231 C   0  0  0  0  0  0  0  0  0  0  0  0
    1.2921   -1.0513   -1.0516 O   0  0  0  0  0  0  0  0  0  0  0  0
    2.5368   -0.3999   -0.9223 C   0  0  0  0  0  0  0  0  0  0  0  0
    2.8069    0.7208   -1.6670 C   0  0  0  0  0  0  0  0  0  0  0  0
    4.0106    1.3817   -1.5619 C   0  0  0  0  0  0  0  0  0  0  0  0
    5.0212    0.9384   -0.6862 C   0  0  0  0  0  0  0  0  0  0  0  0
    6.2069    1.6939   -0.6226 N   0  0  0  0  0  0  0  0  0  0  0  0
    7.4545    1.3117   -0.0812 C   0  0  0  0  0  0  0  0  0  0  0  0
    7.5988    0.1687    0.3944 O   0  0  0  0  0  0  0  0  0  0  0  0
    8.5660    2.1770   -0.0508 N   0  0  0  0  0  0  0  0  0  0  0  0
    9.8509    1.8944    0.4328 C   0  0  0  0  0  0  0  0  0  0  0  0
   10.6218    2.9933    0.8634 C   0  0  0  0  0  0  0  0  0  0  0  0
   11.9012    2.8060    1.3309 C   0  0  0  0  0  0  0  0  0  0  0  0
   12.4469    1.5385    1.3833 C   0  0  0  0  0  0  0  0  0  0  0  0
   11.7030    0.4555    0.9640 C   0  0  0  0  0  0  0  0  0  0  0  0
   10.3994    0.6455    0.4869 C   0  0  0  0  0  0  0  0  0  0  0  0
    4.7295   -0.1838    0.0474 C   0  0  0  0  0  0  0  0  0  0  0  0
    3.4998   -0.8563   -0.0618 C   0  0  0  0  0  0  0  0  0  0  0  0
    0.4282    0.3791    0.6890 C   0  0  0  0  0  0  0  0  0  0  0  0
   -0.6439    0.7474    1.4776 C   0  0  0  0  0  0  0  0  0  0  0  0
   -1.8414    0.1509    1.3761 N   0  0  0  0  0  0  0  0  0  0  0  0
   -2.0619   -0.8518    0.4878 C   0  0  0  0  0  0  0  0  0  0  0  0
   -3.2961   -1.4598    0.3902 C   0  0  0  0  0  0  0  0  0  0  0  0
   -3.4852   -2.4707   -0.5195 C   0  0  0  0  0  0  0  0  0  0  0  0
   -4.6908   -3.1150   -0.6759 O   0  0  0  0  0  0  0  0  0  0  0  0
   -5.8302   -2.7445    0.0300 C   0  0  0  0  0  0  0  0  0  0  0  0
   -6.3692   -1.3836   -0.3213 C   0  0  0  0  0  0  0  0  0  0  0  0
   -7.5716   -1.0938    0.5664 C   0  0  0  0  0  0  0  0  0  0  0  0
   -8.1393    0.1994    0.2619 N   0  0  0  0  0  0  0  0  0  0  0  0
   -9.2466    0.4462    1.1358 C   0  0  0  0  0  0  0  0  0  0  0  0
   -9.4429    1.8775    1.5305 C   0  0  0  0  0  0  0  0  0  0  0  0
   -8.2438    2.5554    1.7609 O   0  0  0  0  0  0  0  0  0  0  0  0
   -7.5869    2.5938    0.5367 C   0  0  0  0  0  0  0  0  0  0  0  0
   -7.1040    1.1808    0.2694 C   0  0  0  0  0  0  0  0  0  0  0  0
   -0.7025   -4.5437   -2.3282 H   0  0  0  0  0  0  0  0  0  0  0  0
   -1.1463   -3.3716   -3.5824 H   0  0  0  0  0  0  0  0  0  0  0  0
   -1.7338   -5.1319   -3.7281 H   0  0  0  0  0  0  0  0  0  0  0  0
   -0.4101   -2.5636   -1.8390 H   0  0  0  0  0  0  0  0  0  0  0  0
    2.0227    1.0695   -2.3516 H   0  0  0  0  0  0  0  0  0  0  0  0
    4.2035    2.2552   -2.1476 H   0  0  0  0  0  0  0  0  0  0  0  0
    6.1994    2.6899   -1.0266 H   0  0  0  0  0  0  0  0  0  0  0  0
    8.3794    3.1555   -0.4522 H   0  0  0  0  0  0  0  0  0  0  0  0
   10.1637    3.9667    0.8084 H   0  0  0  0  0  0  0  0  0  0  0  0
   12.4714    3.6854    1.6580 H   0  0  0  0  0  0  0  0  0  0  0  0
   13.4614    1.4041    1.7558 H   0  0  0  0  0  0  0  0  0  0  0  0
   12.1356   -0.5314    1.0070 H   0  0  0  0  0  0  0  0  0  0  0  0
    9.8673   -0.2445    0.1558 H   0  0  0  0  0  0  0  0  0  0  0  0
    5.4439   -0.5724    0.7404 H   0  0  0  0  0  0  0  0  0  0  0  0
    3.2818   -1.7348    0.5181 H   0  0  0  0  0  0  0  0  0  0  0  0
    1.3978    0.8469    0.7535 H   0  0  0  0  0  0  0  0  0  0  0  0
   -0.5044    1.5305    2.1883 H   0  0  0  0  0  0  0  0  0  0  0  0
   -4.0477   -1.1103    1.0751 H   0  0  0  0  0  0  0  0  0  0  0  0
   -6.6509   -3.5133   -0.0989 H   0  0  0  0  0  0  0  0  0  0  0  0
   -5.6023   -2.8133    1.1306 H   0  0  0  0  0  0  0  0  0  0  0  0
   -6.7596   -1.4482   -1.3984 H   0  0  0  0  0  0  0  0  0  0  0  0
   -5.6755   -0.5642   -0.3356 H   0  0  0  0  0  0  0  0  0  0  0  0
   -8.2851   -1.9222    0.5011 H   0  0  0  0  0  0  0  0  0  0  0  0
   -7.1521   -0.9955    1.6111 H   0  0  0  0  0  0  0  0  0  0  0  0
   -9.2056   -0.2165    2.0459 H   0  0  0  0  0  0  0  0  0  0  0  0
  -10.1704    0.1266    0.5906 H   0  0  0  0  0  0  0  0  0  0  0  0
   -9.9870    2.4591    0.7622 H   0  0  0  0  0  0  0  0  0  0  0  0
  -10.0274    1.8943    2.4761 H   0  0  0  0  0  0  0  0  0  0  0  0
   -6.6830    3.2400    0.5508 H   0  0  0  0  0  0  0  0  0  0  0  0
   -8.2991    2.8529   -0.2706 H   0  0  0  0  0  0  0  0  0  0  0  0
   -6.3420    0.8721    1.0334 H   0  0  0  0  0  0  0  0  0  0  0  0
   -6.5997    1.1825   -0.7245 H   0  0  0  0  0  0  0  0  0  0  0  0
  1  2  1  0
  2  3  1  0
  3  4  2  0
  4  5  1  0
  5  6  2  0
  6  7  1  0
  7  8  1  0
  8  9  2  0
  9 10  1  0
 10 11  2  0
 11 12  1  0
 12 13  1  0
 13 14  2  0
 13 15  1  0
 15 16  1  0
 16 17  2  0
 17 18  1  0
 18 19  2  0
 19 20  1  0
 20 21  2  0
 11 22  1  0
 22 23  2  0
  6 24  1  0
 24 25  2  0
 25 26  1  0
 26 27  2  0
 27 28  1  0
 28 29  2  0
 29 30  1  0
 30 31  1  0
 31 32  1  0
 32 33  1  0
 33 34  1  0
 34 35  1  0
 35 36  1  0
 36 37  1  0
 37 38  1  0
 38 39  1  0
 29  3  1  0
 39 34  1  0
 27  5  1  0
 23  8  1  0
 21 16  1  0
  1 40  1  0
  1 41  1  0
  1 42  1  0
  4 43  1  0
  9 44  1  0
 10 45  1  0
 12 46  1  0
 15 47  1  0
 17 48  1  0
 18 49  1  0
 19 50  1  0
 20 51  1  0
 21 52  1  0
 22 53  1  0
 23 54  1  0
 24 55  1  0
 25 56  1  0
 28 57  1  0
 31 58  1  0
 31 59  1  0
 32 60  1  0
 32 61  1  0
 33 62  1  0
 33 63  1  0
 35 64  1  0
 35 65  1  0
 36 66  1  0
 36 67  1  0
 38 68  1  0
 38 69  1  0
 39 70  1  0
 39 71  1  0
M  END
$$$$
[H]C([H])=C([H])C(=O)N([H])c1c([H])c([H])c(Oc2c([H])c([H])nc3c([H])c(OC([H])([H])C([H])([H])C([H])([H])N4C([H])([H])C([H])([H])N(C([H])([H])[H])C([H])([H])C4([H])[H])c(OC([H])([H])[H])c([H])c23)c([H])c1[H]
     RDKit          3D

 67 70  0  0  0  0  0  0  0  0999 V2000
    0.2720   -1.9622   -2.4893 C   0  0  0  0  0  0  0  0  0  0  0  0
   -0.6733   -1.2871   -1.6564 O   0  0  0  0  0  0  0  0  0  0  0  0
   -0.1566   -0.5185   -0.6042 C   0  0  0  0  0  0  0  0  0  0  0  0
    1.1876   -0.4031   -0.3746 C   0  0  0  0  0  0  0  0  0  0  0  0
    1.6507    0.3665    0.6745 C   0  0  0  0  0  0  0  0  0  0  0  0
    3.0360    0.4610    0.8999 C   0  0  0  0  0  0  0  0  0  0  0  0
    3.8255   -0.2114    0.0365 O   0  0  0  0  0  0  0  0  0  0  0  0
    5.1712   -0.2849    0.0094 C   0  0  0  0  0  0  0  0  0  0  0  0
    5.9874    0.8226   -0.0580 C   0  0  0  0  0  0  0  0  0  0  0  0
    7.3610    0.7258   -0.1001 C   0  0  0  0  0  0  0  0  0  0  0  0
    7.9621   -0.4949   -0.0750 C   0  0  0  0  0  0  0  0  0  0  0  0
    9.3509   -0.6448   -0.1295 N   0  0  0  0  0  0  0  0  0  0  0  0
   10.2729    0.2577    0.4188 C   0  0  0  0  0  0  0  0  0  0  0  0
    9.8401    1.2792    1.0371 O   0  0  0  0  0  0  0  0  0  0  0  0
   11.6933    0.0471    0.2933 C   0  0  0  0  0  0  0  0  0  0  0  0
   12.2107   -0.9681   -0.3317 C   0  0  0  0  0  0  0  0  0  0  0  0
    7.1528   -1.6343   -0.0049 C   0  0  0  0  0  0  0  0  0  0  0  0
    5.8021   -1.5431    0.0360 C   0  0  0  0  0  0  0  0  0  0  0  0
    3.5145    1.2116    1.9492 C   0  0  0  0  0  0  0  0  0  0  0  0
    2.5776    1.8531    2.7497 C   0  0  0  0  0  0  0  0  0  0  0  0
    1.2581    1.7399    2.5016 N   0  0  0  0  0  0  0  0  0  0  0  0
    0.7674    1.0137    1.4849 C   0  0  0  0  0  0  0  0  0  0  0  0
   -0.5960    0.9014    1.2551 C   0  0  0  0  0  0  0  0  0  0  0  0
   -1.1215    0.1340    0.2058 C   0  0  0  0  0  0  0  0  0  0  0  0
   -2.3627   -0.0084   -0.0591 O   0  0  0  0  0  0  0  0  0  0  0  0
   -3.6417   -0.1520   -0.3281 C   0  0  0  0  0  0  0  0  0  0  0  0
   -4.3701   -0.6928    0.8676 C   0  0  0  0  0  0  0  0  0  0  0  0
   -5.7799   -1.0521    0.8120 C   0  0  0  0  0  0  0  0  0  0  0  0
   -6.7123   -0.0080    0.4780 N   0  0  0  0  0  0  0  0  0  0  0  0
   -8.0547   -0.4341    0.8837 C   0  0  0  0  0  0  0  0  0  0  0  0
   -9.1865    0.3676    0.4357 C   0  0  0  0  0  0  0  0  0  0  0  0
   -8.9740    1.0719   -0.8124 N   0  0  0  0  0  0  0  0  0  0  0  0
   -8.8193    2.4780   -0.6838 C   0  0  0  0  0  0  0  0  0  0  0  0
   -8.0002    0.4098   -1.6208 C   0  0  0  0  0  0  0  0  0  0  0  0
   -6.6933    0.4075   -0.8984 C   0  0  0  0  0  0  0  0  0  0  0  0
    0.9961   -2.5653   -1.8663 H   0  0  0  0  0  0  0  0  0  0  0  0
    0.8311   -1.2439   -3.1018 H   0  0  0  0  0  0  0  0  0  0  0  0
   -0.2998   -2.6979   -3.0896 H   0  0  0  0  0  0  0  0  0  0  0  0
    1.9031   -0.9101   -1.0050 H   0  0  0  0  0  0  0  0  0  0  0  0
    5.4972    1.7964   -0.0720 H   0  0  0  0  0  0  0  0  0  0  0  0
    7.9250    1.6595   -0.1755 H   0  0  0  0  0  0  0  0  0  0  0  0
    9.7045   -1.5225   -0.6383 H   0  0  0  0  0  0  0  0  0  0  0  0
   12.3882    0.7736    0.7446 H   0  0  0  0  0  0  0  0  0  0  0  0
   13.3019   -1.0935   -0.4043 H   0  0  0  0  0  0  0  0  0  0  0  0
   11.6382   -1.7442   -0.8156 H   0  0  0  0  0  0  0  0  0  0  0  0
    7.6501   -2.5890    0.0163 H   0  0  0  0  0  0  0  0  0  0  0  0
    5.1971   -2.4567    0.0870 H   0  0  0  0  0  0  0  0  0  0  0  0
    4.5714    1.2853    2.1339 H   0  0  0  0  0  0  0  0  0  0  0  0
    2.9870    2.4427    3.5773 H   0  0  0  0  0  0  0  0  0  0  0  0
   -1.2852    1.4084    1.8879 H   0  0  0  0  0  0  0  0  0  0  0  0
   -4.1064    0.8266   -0.6892 H   0  0  0  0  0  0  0  0  0  0  0  0
   -3.7978   -0.8201   -1.2281 H   0  0  0  0  0  0  0  0  0  0  0  0
   -3.7746   -1.5487    1.3267 H   0  0  0  0  0  0  0  0  0  0  0  0
   -4.2032    0.1267    1.6679 H   0  0  0  0  0  0  0  0  0  0  0  0
   -5.9363   -1.9463    0.1206 H   0  0  0  0  0  0  0  0  0  0  0  0
   -6.1206   -1.4811    1.8165 H   0  0  0  0  0  0  0  0  0  0  0  0
   -8.1567   -1.4857    0.5538 H   0  0  0  0  0  0  0  0  0  0  0  0
   -8.0029   -0.4810    2.0167 H   0  0  0  0  0  0  0  0  0  0  0  0
   -9.5395    1.1066    1.1795 H   0  0  0  0  0  0  0  0  0  0  0  0
  -10.0906   -0.2930    0.2251 H   0  0  0  0  0  0  0  0  0  0  0  0
   -8.8695    2.7835    0.3856 H   0  0  0  0  0  0  0  0  0  0  0  0
   -9.7168    2.9465   -1.1832 H   0  0  0  0  0  0  0  0  0  0  0  0
   -7.8993    2.8864   -1.1769 H   0  0  0  0  0  0  0  0  0  0  0  0
   -7.8760    1.0431   -2.5370 H   0  0  0  0  0  0  0  0  0  0  0  0
   -8.3259   -0.6181   -1.8630 H   0  0  0  0  0  0  0  0  0  0  0  0
   -6.3160    1.4547   -0.9230 H   0  0  0  0  0  0  0  0  0  0  0  0
   -6.0256   -0.2914   -1.4421 H   0  0  0  0  0  0  0  0  0  0  0  0
  1  2  1  0
  2  3  1  0
  3  4  2  0
  4  5  1  0
  5  6  2  0
  6  7  1  0
  7  8  1  0
  8  9  2  0
  9 10  1  0
 10 11  2  0
 11 12  1  0
 12 13  1  0
 13 14  2  0
 13 15  1  0
 15 16  2  3
 11 17  1  0
 17 18  2  0
  6 19  1  0
 19 20  2  0
 20 21  1  0
 21 22  2  0
 22 23  1  0
 23 24  2  0
 24 25  1  0
 25 26  1  0
 26 27  1  0
 27 28  1  0
 28 29  1  0
 29 30  1  0
 30 31  1  0
 31 32  1  0
 32 33  1  0
 32 34  1  0
 34 35  1  0
 24  3  1  0
 35 29  1  0
 22  5  1  0
 18  8  1  0
  1 36  1  0
  1 37  1  0
  1 38  1  0
  4 39  1  0
  9 40  1  0
 10 41  1  0
 12 42  1  0
 15 43  1  0
 16 44  1  0
 16 45  1  0
 17 46  1  0
 18 47  1  0
 19 48  1  0
 20 49  1  0
 23 50  1  0
 26 51  1  0
 26 52  1  0
 27 53  1  0
 27 54  1  0
 28 55  1  0
 28 56  1  0
 30 57  1  0
 30 58  1  0
 31 59  1  0
 31 60  1  0
 33 61  1  0
 33 62  1  0
 33 63  1  0
 34 64  1  0
 34 65  1  0
 35 66  1  0
 35 67  1  0
M  END
$$$$
[H]C([H])=C([H])C(=O)N([H])c1c([H])c([H])c(Oc2c([H])c([H])nc3c([H])c(OC([H])([H])C([H])([H])C([H])([H])N4C([H])([H])C([H])([H])OC([H])([H])C4([H])[H])c(OC([H])([H])[H])c([H])c23)c(F)c1[H]
     RDKit          3D

 63 66  0  0  0  0  0  0  0  0999 V2000
    0.5870    0.8342    3.5872 C   0  0  0  0  0  0  0  0  0  0  0  0
   -0.6639    0.6816    2.9181 O   0  0  0  0  0  0  0  0  0  0  0  0
   -0.7048    0.1173    1.6510 C   0  0  0  0  0  0  0  0  0  0  0  0
    0.3802   -0.3160    0.9622 C   0  0  0  0  0  0  0  0  0  0  0  0
    0.3676   -0.8841   -0.3058 C   0  0  0  0  0  0  0  0  0  0  0  0
    1.5280   -1.3126   -0.9038 C   0  0  0  0  0  0  0  0  0  0  0  0
    2.7369   -1.2568   -0.4806 O   0  0  0  0  0  0  0  0  0  0  0  0
    3.9370   -1.1151   -0.0687 C   0  0  0  0  0  0  0  0  0  0  0  0
    4.8956   -1.8783   -0.8413 C   0  0  0  0  0  0  0  0  0  0  0  0
    6.2227   -1.8763   -0.5847 C   0  0  0  0  0  0  0  0  0  0  0  0
    6.7487   -1.1454    0.4328 C   0  0  0  0  0  0  0  0  0  0  0  0
    8.1034   -1.1052    0.7879 N   0  0  0  0  0  0  0  0  0  0  0  0
    9.0899   -2.0232    0.4129 C   0  0  0  0  0  0  0  0  0  0  0  0
    8.8166   -3.0118   -0.3074 O   0  0  0  0  0  0  0  0  0  0  0  0
   10.4917   -1.8401    0.8674 C   0  0  0  0  0  0  0  0  0  0  0  0
   11.4007   -2.7181    0.5022 C   0  0  0  0  0  0  0  0  0  0  0  0
    5.8451   -0.3975    1.1957 C   0  0  0  0  0  0  0  0  0  0  0  0
    4.4925   -0.3910    0.9430 C   0  0  0  0  0  0  0  0  0  0  0  0
    3.7974    0.4277    1.7853 F   0  0  0  0  0  0  0  0  0  0  0  0
    1.3183   -1.9109   -2.2022 C   0  0  0  0  0  0  0  0  0  0  0  0
    0.0883   -2.0160   -2.7423 C   0  0  0  0  0  0  0  0  0  0  0  0
   -0.9804   -1.5672   -2.0861 N   0  0  0  0  0  0  0  0  0  0  0  0
   -0.8727   -1.0042   -0.8829 C   0  0  0  0  0  0  0  0  0  0  0  0
   -2.0246   -0.5752   -0.2200 C   0  0  0  0  0  0  0  0  0  0  0  0
   -1.9794   -0.0143    1.0357 C   0  0  0  0  0  0  0  0  0  0  0  0
   -3.0633    0.3956    1.6667 O   0  0  0  0  0  0  0  0  0  0  0  0
   -4.3335    0.6458    1.8292 C   0  0  0  0  0  0  0  0  0  0  0  0
   -5.0994    1.6652    1.0388 C   0  0  0  0  0  0  0  0  0  0  0  0
   -5.1077    1.4080   -0.4267 C   0  0  0  0  0  0  0  0  0  0  0  0
   -5.9432    2.4613   -1.0533 N   0  0  0  0  0  0  0  0  0  0  0  0
   -5.9665    2.2530   -2.4900 C   0  0  0  0  0  0  0  0  0  0  0  0
   -7.0841    1.3655   -2.9577 C   0  0  0  0  0  0  0  0  0  0  0  0
   -8.3370    1.8337   -2.5940 O   0  0  0  0  0  0  0  0  0  0  0  0
   -8.2685    2.7386   -1.5384 C   0  0  0  0  0  0  0  0  0  0  0  0
   -7.2606    2.3105   -0.4975 C   0  0  0  0  0  0  0  0  0  0  0  0
    0.4246    1.3894    4.5277 H   0  0  0  0  0  0  0  0  0  0  0  0
    1.0612   -0.1586    3.7409 H   0  0  0  0  0  0  0  0  0  0  0  0
    1.2780    1.4074    2.9207 H   0  0  0  0  0  0  0  0  0  0  0  0
    1.3459   -0.2518    1.4096 H   0  0  0  0  0  0  0  0  0  0  0  0
    4.5048   -2.4679   -1.6541 H   0  0  0  0  0  0  0  0  0  0  0  0
    6.8734   -2.4710   -1.2354 H   0  0  0  0  0  0  0  0  0  0  0  0
    8.4328   -0.3033    1.3976 H   0  0  0  0  0  0  0  0  0  0  0  0
   10.6924   -0.9906    1.4771 H   0  0  0  0  0  0  0  0  0  0  0  0
   11.1563   -3.5560   -0.1097 H   0  0  0  0  0  0  0  0  0  0  0  0
   12.4006   -2.5511    0.8504 H   0  0  0  0  0  0  0  0  0  0  0  0
    6.2722    0.1977    2.0195 H   0  0  0  0  0  0  0  0  0  0  0  0
    2.1873   -2.2677   -2.7171 H   0  0  0  0  0  0  0  0  0  0  0  0
   -0.0457   -2.4729   -3.7302 H   0  0  0  0  0  0  0  0  0  0  0  0
   -2.9586   -0.7330   -0.7713 H   0  0  0  0  0  0  0  0  0  0  0  0
   -5.0128   -0.2955    1.7446 H   0  0  0  0  0  0  0  0  0  0  0  0
   -4.4953    0.9955    2.9272 H   0  0  0  0  0  0  0  0  0  0  0  0
   -6.1720    1.5834    1.4081 H   0  0  0  0  0  0  0  0  0  0  0  0
   -4.7277    2.7052    1.2373 H   0  0  0  0  0  0  0  0  0  0  0  0
   -5.4715    0.4057   -0.7050 H   0  0  0  0  0  0  0  0  0  0  0  0
   -4.0563    1.5824   -0.7847 H   0  0  0  0  0  0  0  0  0  0  0  0
   -5.9040    3.1999   -3.0208 H   0  0  0  0  0  0  0  0  0  0  0  0
   -5.0070    1.6925   -2.7154 H   0  0  0  0  0  0  0  0  0  0  0  0
   -7.0434    1.3953   -4.0772 H   0  0  0  0  0  0  0  0  0  0  0  0
   -6.9013    0.3031   -2.6787 H   0  0  0  0  0  0  0  0  0  0  0  0
   -9.2570    2.9061   -1.0661 H   0  0  0  0  0  0  0  0  0  0  0  0
   -7.9248    3.7054   -1.9571 H   0  0  0  0  0  0  0  0  0  0  0  0
   -7.4524    1.2777   -0.1389 H   0  0  0  0  0  0  0  0  0  0  0  0
   -7.3578    2.9941    0.3633 H   0  0  0  0  0  0  0  0  0  0  0  0
  1  2  1  0
  2  3  1  0
  3  4  2  0
  4  5  1  0
  5  6  2  0
  6  7  1  0
  7  8  1  0
  8  9  2  0
  9 10  1  0
 10 11  2  0
 11 12  1  0
 12 13  1  0
 13 14  2  0
 13 15  1  0
 15 16  2  3
 11 17  1  0
 17 18  2  0
 18 19  1  0
  6 20  1  0
 20 21  2  0
 21 22  1  0
 22 23  2  0
 23 24  1  0
 24 25  2  0
 25 26  1  0
 26 27  1  0
 27 28  1  0
 28 29  1  0
 29 30  1  0
 30 31  1  0
 31 32  1  0
 32 33  1  0
 33 34  1  0
 34 35  1  0
 25  3  1  0
 35 30  1  0
 23  5  1  0
 18  8  1  0
  1 36  1  0
  1 37  1  0
  1 38  1  0
  4 39  1  0
  9 40  1  0
 10 41  1  0
 12 42  1  0
 15 43  1  0
 16 44  1  0
 16 45  1  0
 17 46  1  0
 20 47  1  0
 21 48  1  0
 24 49  1  0
 27 50  1  0
 27 51  1  0
 28 52  1  0
 28 53  1  0
 29 54  1  0
 29 55  1  0
 31 56  1  0
 31 57  1  0
 32 58  1  0
 32 59  1  0
 34 60  1  0
 34 61  1  0
 35 62  1  0
 35 63  1  0
M  END
$$$$
[H]c1nc2c([H])c(OC([H])([H])[H])c(OC([H])([H])[H])c([H])c2c(Oc2c([H])c([H])c(N([H])C(=O)N([H])c3c(Cl)c([H])c([H])c([H])c3Cl)c([H])c2F)c1[H]
     RDKit          3D

 52 55  0  0  0  0  0  0  0  0999 V2000
   -5.2596   -2.8283   -2.1030 C   0  0  0  0  0  0  0  0  0  0  0  0
   -6.1711   -1.7968   -1.7089 O   0  0  0  0  0  0  0  0  0  0  0  0
   -5.7221   -0.6967   -1.0008 C   0  0  0  0  0  0  0  0  0  0  0  0
   -4.3875   -0.5979   -0.6751 C   0  0  0  0  0  0  0  0  0  0  0  0
   -3.9476    0.5052    0.0328 C   0  0  0  0  0  0  0  0  0  0  0  0
   -2.5885    0.6015    0.3621 C   0  0  0  0  0  0  0  0  0  0  0  0
   -1.7684   -0.4118   -0.0377 O   0  0  0  0  0  0  0  0  0  0  0  0
   -0.4086   -0.5102    0.2464 C   0  0  0  0  0  0  0  0  0  0  0  0
    0.5462   -0.4919   -0.7284 C   0  0  0  0  0  0  0  0  0  0  0  0
    1.8807   -0.5927   -0.4200 C   0  0  0  0  0  0  0  0  0  0  0  0
    2.2933   -0.7146    0.8844 C   0  0  0  0  0  0  0  0  0  0  0  0
    3.6549   -0.7973    1.2709 N   0  0  0  0  0  0  0  0  0  0  0  0
    4.7657   -0.3984    0.5197 C   0  0  0  0  0  0  0  0  0  0  0  0
    4.6713    0.0971   -0.6089 O   0  0  0  0  0  0  0  0  0  0  0  0
    6.0714   -0.5733    1.0864 N   0  0  0  0  0  0  0  0  0  0  0  0
    7.1865   -0.1641    0.3125 C   0  0  0  0  0  0  0  0  0  0  0  0
    7.8108   -1.0450   -0.5589 C   0  0  0  0  0  0  0  0  0  0  0  0
    7.1624   -2.6781   -0.6596 Cl  0  0  0  0  0  0  0  0  0  0  0  0
    8.8967   -0.6653   -1.3200 C   0  0  0  0  0  0  0  0  0  0  0  0
    9.4048    0.6223   -1.2380 C   0  0  0  0  0  0  0  0  0  0  0  0
    8.7952    1.5097   -0.3763 C   0  0  0  0  0  0  0  0  0  0  0  0
    7.7093    1.1180    0.3800 C   0  0  0  0  0  0  0  0  0  0  0  0
    6.9396    2.2450    1.4705 Cl  0  0  0  0  0  0  0  0  0  0  0  0
    1.3057   -0.7340    1.8904 C   0  0  0  0  0  0  0  0  0  0  0  0
   -0.0179   -0.6329    1.5600 C   0  0  0  0  0  0  0  0  0  0  0  0
   -0.9009   -0.6824    2.6062 F   0  0  0  0  0  0  0  0  0  0  0  0
   -2.2141    1.7134    1.0610 C   0  0  0  0  0  0  0  0  0  0  0  0
   -3.1344    2.6790    1.4167 C   0  0  0  0  0  0  0  0  0  0  0  0
   -4.4294    2.5607    1.0885 N   0  0  0  0  0  0  0  0  0  0  0  0
   -4.8350    1.4868    0.4039 C   0  0  0  0  0  0  0  0  0  0  0  0
   -6.1801    1.3503    0.0550 C   0  0  0  0  0  0  0  0  0  0  0  0
   -6.6236    0.2708   -0.6405 C   0  0  0  0  0  0  0  0  0  0  0  0
   -7.9466    0.1181   -0.9940 O   0  0  0  0  0  0  0  0  0  0  0  0
   -8.9035    1.1005   -0.6366 C   0  0  0  0  0  0  0  0  0  0  0  0
   -5.8305   -3.5510   -2.6925 H   0  0  0  0  0  0  0  0  0  0  0  0
   -4.4539   -2.4041   -2.7621 H   0  0  0  0  0  0  0  0  0  0  0  0
   -4.8105   -3.3080   -1.2001 H   0  0  0  0  0  0  0  0  0  0  0  0
   -3.6666   -1.3527   -0.9526 H   0  0  0  0  0  0  0  0  0  0  0  0
    0.2340   -0.3952   -1.7686 H   0  0  0  0  0  0  0  0  0  0  0  0
    2.6094   -0.5879   -1.2558 H   0  0  0  0  0  0  0  0  0  0  0  0
    3.8266   -1.2176    2.2437 H   0  0  0  0  0  0  0  0  0  0  0  0
    6.2001   -0.9883    2.0379 H   0  0  0  0  0  0  0  0  0  0  0  0
    9.3850   -1.3612   -2.0043 H   0  0  0  0  0  0  0  0  0  0  0  0
   10.2574    0.9041   -1.8421 H   0  0  0  0  0  0  0  0  0  0  0  0
    9.2125    2.5167   -0.3289 H   0  0  0  0  0  0  0  0  0  0  0  0
    1.6549   -0.8296    2.9029 H   0  0  0  0  0  0  0  0  0  0  0  0
   -1.1825    1.8589    1.3369 H   0  0  0  0  0  0  0  0  0  0  0  0
   -2.8512    3.5651    1.9712 H   0  0  0  0  0  0  0  0  0  0  0  0
   -6.8385    2.1409    0.3652 H   0  0  0  0  0  0  0  0  0  0  0  0
   -9.9293    0.7291   -0.8726 H   0  0  0  0  0  0  0  0  0  0  0  0
   -8.6898    2.0228   -1.2252 H   0  0  0  0  0  0  0  0  0  0  0  0
   -8.7825    1.2915    0.4483 H   0  0  0  0  0  0  0  0  0  0  0  0
  1  2  1  0
  2  3  1  0
  3  4  2  0
  4  5  1  0
  5  6  2  0
  6  7  1  0
  7  8  1  0
  8  9  2  0
  9 10  1  0
 10 11  2  0
 11 12  1  0
 12 13  1  0
 13 14  2  0
 13 15  1  0
 15 16  1  0
 16 17  2  0
 17 18  1  0
 17 19  1  0
 19 20  2  0
 20 21  1  0
 21 22  2  0
 22 23  1  0
 11 24  1  0
 24 25  2  0
 25 26  1  0
  6 27  1  0
 27 28  2  0
 28 29  1  0
 29 30  2  0
 30 31  1  0
 31 32  2  0
 32 33  1  0
 33 34  1  0
 32  3  1  0
 30  5  1  0
 25  8  1  0
 22 16  1  0
  1 35  1  0
  1 36  1  0
  1 37  1  0
  4 38  1  0
  9 39  1  0
 10 40  1  0
 12 41  1  0
 15 42  1  0
 19 43  1  0
 20 44  1  0
 21 45  1  0
 24 46  1  0
 27 47  1  0
 28 48  1  0
 31 49  1  0
 34 50  1  0
 34 51  1  0
 34 52  1  0
M  END
$$$$
[H]C([H])=C([H])C(=O)N([H])c1c([H])c([H])c(Oc2c([H])c([H])nc3c([H])c(OC([H])([H])C([H])([H])C([H])([H])N4C([H])([H])C([H])([H])OC([H])([H])C4([H])[H])c(OC([H])([H])[H])c([H])c23)c([H])c1[H]
     RDKit          3D

 63 66  0  0  0  0  0  0  0  0999 V2000
   -0.5825   -3.1092    1.2696 C   0  0  0  0  0  0  0  0  0  0  0  0
   -1.3903   -1.9651    1.1053 O   0  0  0  0  0  0  0  0  0  0  0  0
   -0.8810   -0.7245    0.7695 C   0  0  0  0  0  0  0  0  0  0  0  0
    0.4722   -0.5447    0.5752 C   0  0  0  0  0  0  0  0  0  0  0  0
    1.0246    0.6881    0.2364 C   0  0  0  0  0  0  0  0  0  0  0  0
    2.3858    0.8380    0.0487 C   0  0  0  0  0  0  0  0  0  0  0  0
    3.1817   -0.2829    0.2093 O   0  0  0  0  0  0  0  0  0  0  0  0
    4.5352   -0.3255    0.0679 C   0  0  0  0  0  0  0  0  0  0  0  0
    5.1214   -0.6060   -1.1507 C   0  0  0  0  0  0  0  0  0  0  0  0
    6.4862   -0.6505   -1.3027 C   0  0  0  0  0  0  0  0  0  0  0  0
    7.3339   -0.4101   -0.2147 C   0  0  0  0  0  0  0  0  0  0  0  0
    8.7328   -0.4938   -0.4411 N   0  0  0  0  0  0  0  0  0  0  0  0
    9.7347    0.0382    0.3702 C   0  0  0  0  0  0  0  0  0  0  0  0
    9.4730    0.6697    1.4109 O   0  0  0  0  0  0  0  0  0  0  0  0
   11.1390   -0.1252    0.0299 C   0  0  0  0  0  0  0  0  0  0  0  0
   11.6060   -0.7604   -1.0255 C   0  0  0  0  0  0  0  0  0  0  0  0
    6.7720   -0.1305    1.0040 C   0  0  0  0  0  0  0  0  0  0  0  0
    5.3824   -0.0927    1.1247 C   0  0  0  0  0  0  0  0  0  0  0  0
    2.8951    2.0743   -0.2853 C   0  0  0  0  0  0  0  0  0  0  0  0
    2.0010    3.1141   -0.4164 C   0  0  0  0  0  0  0  0  0  0  0  0
    0.6797    2.9339   -0.2263 N   0  0  0  0  0  0  0  0  0  0  0  0
    0.1482    1.7439    0.0999 C   0  0  0  0  0  0  0  0  0  0  0  0
   -1.2041    1.5556    0.2960 C   0  0  0  0  0  0  0  0  0  0  0  0
   -1.7538    0.3348    0.6319 C   0  0  0  0  0  0  0  0  0  0  0  0
   -3.1287    0.1757    0.8240 O   0  0  0  0  0  0  0  0  0  0  0  0
   -3.9614    1.3092    0.6657 C   0  0  0  0  0  0  0  0  0  0  0  0
   -5.4021    1.0062    0.8970 C   0  0  0  0  0  0  0  0  0  0  0  0
   -5.9397   -0.0409   -0.0526 C   0  0  0  0  0  0  0  0  0  0  0  0
   -7.3274   -0.3292    0.1718 N   0  0  0  0  0  0  0  0  0  0  0  0
   -8.1973    0.7745   -0.1696 C   0  0  0  0  0  0  0  0  0  0  0  0
   -9.5455    0.1983   -0.5517 C   0  0  0  0  0  0  0  0  0  0  0  0
   -9.4022   -0.3313   -1.8389 O   0  0  0  0  0  0  0  0  0  0  0  0
   -8.1283   -0.8712   -2.0316 C   0  0  0  0  0  0  0  0  0  0  0  0
   -7.6813   -1.4474   -0.7039 C   0  0  0  0  0  0  0  0  0  0  0  0
   -1.1768   -3.9103    1.7573 H   0  0  0  0  0  0  0  0  0  0  0  0
    0.2979   -2.9170    1.9093 H   0  0  0  0  0  0  0  0  0  0  0  0
   -0.3266   -3.4863    0.2636 H   0  0  0  0  0  0  0  0  0  0  0  0
    1.1792   -1.3712    0.6798 H   0  0  0  0  0  0  0  0  0  0  0  0
    4.5019   -0.8017   -2.0328 H   0  0  0  0  0  0  0  0  0  0  0  0
    6.8999   -0.8747   -2.2778 H   0  0  0  0  0  0  0  0  0  0  0  0
    9.0322   -1.0220   -1.3197 H   0  0  0  0  0  0  0  0  0  0  0  0
   11.9084    0.3161    0.7039 H   0  0  0  0  0  0  0  0  0  0  0  0
   10.9447   -1.2181   -1.7327 H   0  0  0  0  0  0  0  0  0  0  0  0
   12.6601   -0.8474   -1.2234 H   0  0  0  0  0  0  0  0  0  0  0  0
    7.3470    0.0542    1.9008 H   0  0  0  0  0  0  0  0  0  0  0  0
    4.9487    0.1262    2.0754 H   0  0  0  0  0  0  0  0  0  0  0  0
    3.9469    2.2146   -0.4353 H   0  0  0  0  0  0  0  0  0  0  0  0
    2.3363    4.1292   -0.6813 H   0  0  0  0  0  0  0  0  0  0  0  0
   -1.8664    2.3975    0.1827 H   0  0  0  0  0  0  0  0  0  0  0  0
   -3.6418    2.0444    1.4353 H   0  0  0  0  0  0  0  0  0  0  0  0
   -3.7389    1.7428   -0.3158 H   0  0  0  0  0  0  0  0  0  0  0  0
   -5.9750    1.9444    0.8634 H   0  0  0  0  0  0  0  0  0  0  0  0
   -5.4966    0.6207    1.9476 H   0  0  0  0  0  0  0  0  0  0  0  0
   -5.3709   -0.9791    0.1156 H   0  0  0  0  0  0  0  0  0  0  0  0
   -5.7280    0.2615   -1.0987 H   0  0  0  0  0  0  0  0  0  0  0  0
   -8.3841    1.4466    0.7138 H   0  0  0  0  0  0  0  0  0  0  0  0
   -7.8455    1.3637   -1.0173 H   0  0  0  0  0  0  0  0  0  0  0  0
  -10.2875    1.0191   -0.6135 H   0  0  0  0  0  0  0  0  0  0  0  0
   -9.9125   -0.5366    0.1765 H   0  0  0  0  0  0  0  0  0  0  0  0
   -8.1780   -1.6564   -2.8173 H   0  0  0  0  0  0  0  0  0  0  0  0
   -7.4082   -0.1227   -2.3651 H   0  0  0  0  0  0  0  0  0  0  0  0
   -6.7874   -2.0640   -0.8425 H   0  0  0  0  0  0  0  0  0  0  0  0
   -8.4582   -2.0870   -0.2538 H   0  0  0  0  0  0  0  0  0  0  0  0
  1  2  1  0
  2  3  1  0
  3  4  2  0
  4  5  1  0
  5  6  2  0
  6  7  1  0
  7  8  1  0
  8  9  2  0
  9 10  1  0
 10 11  2  0
 11 12  1  0
 12 13  1  0
 13 14  2  0
 13 15  1  0
 15 16  2  3
 11 17  1  0
 17 18  2  0
  6 19  1  0
 19 20  2  0
 20 21  1  0
 21 22  2  0
 22 23  1  0
 23 24  2  0
 24 25  1  0
 25 26  1  0
 26 27  1  0
 27 28  1  0
 28 29  1  0
 29 30  1  0
 30 31  1  0
 31 32  1  0
 32 33  1  0
 33 34  1  0
 24  3  1  0
 34 29  1  0
 22  5  1  0
 18  8  1  0
  1 35  1  0
  1 36  1  0
  1 37  1  0
  4 38  1  0
  9 39  1  0
 10 40  1  0
 12 41  1  0
 15 42  1  0
 16 43  1  0
 16 44  1  0
 17 45  1  0
 18 46  1  0
 19 47  1  0
 20 48  1  0
 23 49  1  0
 26 50  1  0
 26 51  1  0
 27 52  1  0
 27 53  1  0
 28 54  1  0
 28 55  1  0
 30 56  1  0
 30 57  1  0
 31 58  1  0
 31 59  1  0
 33 60  1  0
 33 61  1  0
 34 62  1  0
 34 63  1  0
M  END
$$$$
