[H]c1c([H])c([H])c(-c2c([H])c([H])c3c(c2[H])N(C(=O)c2c([H])c([H])c([H])c([H])c2C([H])([H])[H])C([H])([H])C([H])([H])C([H])([H])O3)c([H])c1[H]
     RDKit          3D

 47 50  0  0  0  0  0  0  0  0999 V2000
   -2.5759   -0.1557    1.9643 C   0  0  0  0  0  0  0  0  0  0  0  0
   -2.3623    1.0817    1.2153 C   0  0  0  0  0  0  0  0  0  0  0  0
   -2.4793    2.2992    1.8445 C   0  0  0  0  0  0  0  0  0  0  0  0
   -2.2802    3.4890    1.1512 C   0  0  0  0  0  0  0  0  0  0  0  0
   -1.9654    3.4215   -0.1701 C   0  0  0  0  0  0  0  0  0  0  0  0
   -1.8561    2.2048   -0.7668 C   0  0  0  0  0  0  0  0  0  0  0  0
   -2.0410    0.9926   -0.1351 C   0  0  0  0  0  0  0  0  0  0  0  0
   -2.0302   -0.2381   -0.8565 C   0  0  0  0  0  0  0  0  0  0  0  0
   -3.1082   -0.3264   -1.6372 O   0  0  0  0  0  0  0  0  0  0  0  0
   -1.2783   -1.3657   -0.9943 N   0  0  0  0  0  0  0  0  0  0  0  0
   -1.9229   -2.5196   -1.6564 C   0  0  0  0  0  0  0  0  0  0  0  0
   -2.0870   -3.5914   -0.5845 C   0  0  0  0  0  0  0  0  0  0  0  0
   -0.8637   -4.4516   -0.5720 C   0  0  0  0  0  0  0  0  0  0  0  0
    0.1027   -3.8501    0.3201 O   0  0  0  0  0  0  0  0  0  0  0  0
    0.6569   -2.5606    0.1458 C   0  0  0  0  0  0  0  0  0  0  0  0
    1.9232   -2.4962    0.6506 C   0  0  0  0  0  0  0  0  0  0  0  0
    2.6399   -1.3049    0.5681 C   0  0  0  0  0  0  0  0  0  0  0  0
    1.9902   -0.2295   -0.0457 C   0  0  0  0  0  0  0  0  0  0  0  0
    0.7158   -0.3058   -0.5509 C   0  0  0  0  0  0  0  0  0  0  0  0
    0.0255   -1.4943   -0.4547 C   0  0  0  0  0  0  0  0  0  0  0  0
    2.7571    1.0008   -0.1335 C   0  0  0  0  0  0  0  0  0  0  0  0
    4.1256    0.9785   -0.2883 C   0  0  0  0  0  0  0  0  0  0  0  0
    4.8809    2.1262   -0.3663 C   0  0  0  0  0  0  0  0  0  0  0  0
    4.2604    3.3441   -0.2883 C   0  0  0  0  0  0  0  0  0  0  0  0
    2.8998    3.4001   -0.1340 C   0  0  0  0  0  0  0  0  0  0  0  0
    2.1597    2.2309   -0.0577 C   0  0  0  0  0  0  0  0  0  0  0  0
   -3.2964   -0.8347    1.4540 H   0  0  0  0  0  0  0  0  0  0  0  0
   -3.0719    0.0656    2.9575 H   0  0  0  0  0  0  0  0  0  0  0  0
   -1.6381   -0.6739    2.2517 H   0  0  0  0  0  0  0  0  0  0  0  0
   -2.7279    2.3927    2.8922 H   0  0  0  0  0  0  0  0  0  0  0  0
   -2.3660    4.4468    1.6231 H   0  0  0  0  0  0  0  0  0  0  0  0
   -1.7999    4.3324   -0.7566 H   0  0  0  0  0  0  0  0  0  0  0  0
   -1.6001    2.1787   -1.8371 H   0  0  0  0  0  0  0  0  0  0  0  0
   -2.9012   -2.2275   -2.0558 H   0  0  0  0  0  0  0  0  0  0  0  0
   -1.3463   -2.9328   -2.4809 H   0  0  0  0  0  0  0  0  0  0  0  0
   -2.2084   -3.1416    0.4311 H   0  0  0  0  0  0  0  0  0  0  0  0
   -3.0267   -4.1780   -0.7634 H   0  0  0  0  0  0  0  0  0  0  0  0
   -0.4401   -4.6435   -1.5726 H   0  0  0  0  0  0  0  0  0  0  0  0
   -1.1118   -5.4392   -0.1383 H   0  0  0  0  0  0  0  0  0  0  0  0
    2.4082   -3.3356    1.1191 H   0  0  0  0  0  0  0  0  0  0  0  0
    3.6401   -1.2207    0.9571 H   0  0  0  0  0  0  0  0  0  0  0  0
    0.2577    0.5100   -1.0545 H   0  0  0  0  0  0  0  0  0  0  0  0
    4.6138    0.0051   -0.3500 H   0  0  0  0  0  0  0  0  0  0  0  0
    5.9484    2.0554   -0.4883 H   0  0  0  0  0  0  0  0  0  0  0  0
    4.8294    4.2442   -0.3474 H   0  0  0  0  0  0  0  0  0  0  0  0
    2.4448    4.3748   -0.0764 H   0  0  0  0  0  0  0  0  0  0  0  0
    1.1054    2.3422    0.0678 H   0  0  0  0  0  0  0  0  0  0  0  0
  1  2  1  0
  2  3  2  0
  3  4  1  0
  4  5  2  0
  5  6  1  0
  6  7  2  0
  7  8  1  0
  8  9  2  0
  8 10  1  0
 10 11  1  0
 11 12  1  0
 12 13  1  0
 13 14  1  0
 14 15  1  0
 15 16  2  0
 16 17  1  0
 17 18  2  0
 18 19  1  0
 19 20  2  0
 18 21  1  0
 21 22  2  0
 22 23  1  0
 23 24  2  0
 24 25  1  0
 25 26  2  0
  7  2  1  0
 20 10  1  0
 26 21  1  0
 20 15  1  0
  1 27  1  0
  1 28  1  0
  1 29  1  0
  3 30  1  0
  4 31  1  0
  5 32  1  0
  6 33  1  0
 11 34  1  0
 11 35  1  0
 12 36  1  0
 12 37  1  0
 13 38  1  0
 13 39  1  0
 16 40  1  0
 17 41  1  0
 19 42  1  0
 22 43  1  0
 23 44  1  0
 24 45  1  0
 25 46  1  0
 26 47  1  0
M  END
$$$$
[H]Oc1c([H])c([H])c(C#CC(=NN([H])C(=O)N([H])c2c([H])c([H])c(C3([H])C([H])([H])N(C([H])([H])[H])C([H])([H])C3([H])[H])c([H])c2[H])C([H])([H])[H])c([H])c1[H]
     RDKit          3D

 52 54  0  0  0  0  0  0  0  0999 V2000
   -9.0964   -0.3169    0.3680 C   0  0  0  0  0  0  0  0  0  0  0  0
   -8.0782    0.6087   -0.0373 N   0  0  0  0  0  0  0  0  0  0  0  0
   -6.8156    0.2952    0.5791 C   0  0  0  0  0  0  0  0  0  0  0  0
   -5.8124    0.8785   -0.3702 C   0  0  0  0  0  0  0  0  0  0  0  0
   -6.4021    0.5150   -1.7198 C   0  0  0  0  0  0  0  0  0  0  0  0
   -7.8873    0.6877   -1.4485 C   0  0  0  0  0  0  0  0  0  0  0  0
   -4.4499    0.3445   -0.1954 C   0  0  0  0  0  0  0  0  0  0  0  0
   -3.3522    1.1625   -0.0306 C   0  0  0  0  0  0  0  0  0  0  0  0
   -2.0558    0.6671    0.1359 C   0  0  0  0  0  0  0  0  0  0  0  0
   -1.8266   -0.6690    0.1409 C   0  0  0  0  0  0  0  0  0  0  0  0
   -0.5633   -1.2437    0.2881 N   0  0  0  0  0  0  0  0  0  0  0  0
    0.6743   -0.5962    0.2588 C   0  0  0  0  0  0  0  0  0  0  0  0
    0.8471    0.6248    0.0887 O   0  0  0  0  0  0  0  0  0  0  0  0
    1.8856   -1.3601    0.4351 N   0  0  0  0  0  0  0  0  0  0  0  0
    3.1123   -0.7396    0.4092 N   0  0  0  0  0  0  0  0  0  0  0  0
    4.1376   -1.3414   -0.0687 C   0  0  0  0  0  0  0  0  0  0  0  0
    3.9732   -2.7179   -0.5916 C   0  0  0  0  0  0  0  0  0  0  0  0
    5.3886   -0.6371   -0.0660 C   0  0  0  0  0  0  0  0  0  0  0  0
    6.4453   -0.0537   -0.0799 C   0  0  0  0  0  0  0  0  0  0  0  0
    7.7054    0.6336   -0.1175 C   0  0  0  0  0  0  0  0  0  0  0  0
    7.7514    1.9926   -0.3441 C   0  0  0  0  0  0  0  0  0  0  0  0
    8.9712    2.6359   -0.3767 C   0  0  0  0  0  0  0  0  0  0  0  0
   10.1590    1.9748   -0.1911 C   0  0  0  0  0  0  0  0  0  0  0  0
   11.3921    2.6578   -0.2296 O   0  0  0  0  0  0  0  0  0  0  0  0
   10.1256    0.6175    0.0360 C   0  0  0  0  0  0  0  0  0  0  0  0
    8.9094   -0.0140    0.0669 C   0  0  0  0  0  0  0  0  0  0  0  0
   -2.9264   -1.5041   -0.0244 C   0  0  0  0  0  0  0  0  0  0  0  0
   -4.1968   -1.0071   -0.1871 C   0  0  0  0  0  0  0  0  0  0  0  0
   -8.9570   -0.6432    1.4158 H   0  0  0  0  0  0  0  0  0  0  0  0
  -10.1164    0.1649    0.3458 H   0  0  0  0  0  0  0  0  0  0  0  0
   -9.1097   -1.2339   -0.2723 H   0  0  0  0  0  0  0  0  0  0  0  0
   -6.7331    0.6556    1.6079 H   0  0  0  0  0  0  0  0  0  0  0  0
   -6.6827   -0.8050    0.5692 H   0  0  0  0  0  0  0  0  0  0  0  0
   -5.7497    1.9795   -0.3403 H   0  0  0  0  0  0  0  0  0  0  0  0
   -6.0471    1.1716   -2.5281 H   0  0  0  0  0  0  0  0  0  0  0  0
   -6.2458   -0.5606   -1.9276 H   0  0  0  0  0  0  0  0  0  0  0  0
   -8.5071   -0.0178   -2.0381 H   0  0  0  0  0  0  0  0  0  0  0  0
   -8.1278    1.7362   -1.7917 H   0  0  0  0  0  0  0  0  0  0  0  0
   -3.4723    2.2379   -0.0262 H   0  0  0  0  0  0  0  0  0  0  0  0
   -1.2686    1.3874    0.2654 H   0  0  0  0  0  0  0  0  0  0  0  0
   -0.5192   -2.3161    0.4471 H   0  0  0  0  0  0  0  0  0  0  0  0
    1.7545   -2.3949    0.5800 H   0  0  0  0  0  0  0  0  0  0  0  0
    4.8219   -2.9075   -1.2741 H   0  0  0  0  0  0  0  0  0  0  0  0
    4.0852   -3.4157    0.2560 H   0  0  0  0  0  0  0  0  0  0  0  0
    2.9881   -2.7931   -1.0908 H   0  0  0  0  0  0  0  0  0  0  0  0
    6.8316    2.5781   -0.5002 H   0  0  0  0  0  0  0  0  0  0  0  0
    9.0314    3.7211   -0.5562 H   0  0  0  0  0  0  0  0  0  0  0  0
   11.8083    2.6996   -1.1689 H   0  0  0  0  0  0  0  0  0  0  0  0
   11.0361    0.0616    0.1866 H   0  0  0  0  0  0  0  0  0  0  0  0
    8.9344   -1.0949    0.2509 H   0  0  0  0  0  0  0  0  0  0  0  0
   -2.7712   -2.5786   -0.0244 H   0  0  0  0  0  0  0  0  0  0  0  0
   -4.9991   -1.7273   -0.3098 H   0  0  0  0  0  0  0  0  0  0  0  0
  1  2  1  0
  2  3  1  0
  3  4  1  0
  4  5  1  0
  5  6  1  0
  4  7  1  0
  7  8  2  0
  8  9  1  0
  9 10  2  0
 10 11  1  0
 11 12  1  0
 12 13  2  0
 12 14  1  0
 14 15  1  0
 15 16  2  3
 16 17  1  0
 16 18  1  0
 18 19  3  0
 19 20  1  0
 20 21  2  0
 21 22  1  0
 22 23  2  0
 23 24  1  0
 23 25  1  0
 25 26  2  0
 10 27  1  0
 27 28  2  0
  6  2  1  0
 28  7  1  0
 26 20  1  0
  1 29  1  0
  1 30  1  0
  1 31  1  0
  3 32  1  0
  3 33  1  0
  4 34  1  0
  5 35  1  0
  5 36  1  0
  6 37  1  0
  6 38  1  0
  8 39  1  0
  9 40  1  0
 11 41  1  0
 14 42  1  0
 17 43  1  0
 17 44  1  0
 17 45  1  0
 21 46  1  0
 22 47  1  0
 24 48  1  0
 25 49  1  0
 26 50  1  0
 27 51  1  0
 28 52  1  0
M  END
$$$$
[H]c1c([H])c(C([H])([H])[H])c([H])c(C([H])([H])N([H])C(=O)c2c([H])c(C(=O)N([H])[H])c(OC([H])([H])C([H])(C([H])([H])[H])C([H])([H])[H])c([H])c2C([H])([H])[H])c1[H]
     RDKit          3D

 52 53  0  0  0  0  0  0  0  0999 V2000
   -7.4406   -0.8713   -0.2813 C   0  0  0  0  0  0  0  0  0  0  0  0
   -6.2100   -0.3146   -0.9036 C   0  0  0  0  0  0  0  0  0  0  0  0
   -5.8225   -0.7283   -2.1476 C   0  0  0  0  0  0  0  0  0  0  0  0
   -4.6616   -0.1747   -2.6830 C   0  0  0  0  0  0  0  0  0  0  0  0
   -3.9180    0.7568   -1.9986 C   0  0  0  0  0  0  0  0  0  0  0  0
   -4.3585    1.1342   -0.7497 C   0  0  0  0  0  0  0  0  0  0  0  0
   -3.5723    2.1350    0.0039 C   0  0  0  0  0  0  0  0  0  0  0  0
   -2.1464    1.8335   -0.1404 N   0  0  0  0  0  0  0  0  0  0  0  0
   -1.5845    0.7492    0.6054 C   0  0  0  0  0  0  0  0  0  0  0  0
   -2.3245    0.0692    1.3761 O   0  0  0  0  0  0  0  0  0  0  0  0
   -0.1797    0.4330    0.4790 C   0  0  0  0  0  0  0  0  0  0  0  0
    0.4134    0.5480   -0.7771 C   0  0  0  0  0  0  0  0  0  0  0  0
    1.7568    0.2504   -0.9271 C   0  0  0  0  0  0  0  0  0  0  0  0
    2.4239    0.3549   -2.2188 C   0  0  0  0  0  0  0  0  0  0  0  0
    1.6960    0.7723   -3.3661 N   0  0  0  0  0  0  0  0  0  0  0  0
    3.6340    0.0781   -2.3196 O   0  0  0  0  0  0  0  0  0  0  0  0
    2.4703   -0.1552    0.1886 C   0  0  0  0  0  0  0  0  0  0  0  0
    3.8153   -0.4487    0.0170 O   0  0  0  0  0  0  0  0  0  0  0  0
    4.5913   -0.8676    1.1225 C   0  0  0  0  0  0  0  0  0  0  0  0
    6.0106   -1.1221    0.6765 C   0  0  0  0  0  0  0  0  0  0  0  0
    6.0368   -2.1892   -0.3729 C   0  0  0  0  0  0  0  0  0  0  0  0
    6.5979    0.1457    0.0630 C   0  0  0  0  0  0  0  0  0  0  0  0
    1.8890   -0.2706    1.4327 C   0  0  0  0  0  0  0  0  0  0  0  0
    0.5379    0.0290    1.5825 C   0  0  0  0  0  0  0  0  0  0  0  0
   -0.1412   -0.0762    2.8949 C   0  0  0  0  0  0  0  0  0  0  0  0
   -5.4868    0.6156   -0.1950 C   0  0  0  0  0  0  0  0  0  0  0  0
   -7.1311   -1.3518    0.6905 H   0  0  0  0  0  0  0  0  0  0  0  0
   -7.9053   -1.6627   -0.8796 H   0  0  0  0  0  0  0  0  0  0  0  0
   -8.1978   -0.0705   -0.1041 H   0  0  0  0  0  0  0  0  0  0  0  0
   -6.3866   -1.4570   -2.7058 H   0  0  0  0  0  0  0  0  0  0  0  0
   -4.3261   -0.4769   -3.6613 H   0  0  0  0  0  0  0  0  0  0  0  0
   -3.0188    1.2053   -2.3785 H   0  0  0  0  0  0  0  0  0  0  0  0
   -3.8752    2.1192    1.0635 H   0  0  0  0  0  0  0  0  0  0  0  0
   -3.7481    3.1729   -0.3943 H   0  0  0  0  0  0  0  0  0  0  0  0
   -1.5482    2.3928   -0.7708 H   0  0  0  0  0  0  0  0  0  0  0  0
   -0.1498    0.8663   -1.6515 H   0  0  0  0  0  0  0  0  0  0  0  0
    0.7364    0.4000   -3.5340 H   0  0  0  0  0  0  0  0  0  0  0  0
    2.0669    1.4454   -4.0721 H   0  0  0  0  0  0  0  0  0  0  0  0
    4.5342   -0.1394    1.9438 H   0  0  0  0  0  0  0  0  0  0  0  0
    4.2129   -1.8336    1.5381 H   0  0  0  0  0  0  0  0  0  0  0  0
    6.6193   -1.4385    1.5626 H   0  0  0  0  0  0  0  0  0  0  0  0
    5.3369   -2.9984   -0.0924 H   0  0  0  0  0  0  0  0  0  0  0  0
    5.6498   -1.7493   -1.3244 H   0  0  0  0  0  0  0  0  0  0  0  0
    7.0833   -2.5558   -0.5064 H   0  0  0  0  0  0  0  0  0  0  0  0
    7.3733    0.5536    0.7477 H   0  0  0  0  0  0  0  0  0  0  0  0
    5.8022    0.9153    0.0036 H   0  0  0  0  0  0  0  0  0  0  0  0
    7.0826   -0.0669   -0.8906 H   0  0  0  0  0  0  0  0  0  0  0  0
    2.4587   -0.5905    2.3057 H   0  0  0  0  0  0  0  0  0  0  0  0
    0.6546   -0.0871    3.6943 H   0  0  0  0  0  0  0  0  0  0  0  0
   -0.7663    0.8081    3.1336 H   0  0  0  0  0  0  0  0  0  0  0  0
   -0.7564   -0.9966    2.9473 H   0  0  0  0  0  0  0  0  0  0  0  0
   -5.8282    0.9102    0.7779 H   0  0  0  0  0  0  0  0  0  0  0  0
  1  2  1  0
  2  3  2  0
  3  4  1  0
  4  5  2  0
  5  6  1  0
  6  7  1  0
  7  8  1  0
  8  9  1  0
  9 10  2  0
  9 11  1  0
 11 12  2  0
 12 13  1  0
 13 14  1  0
 14 15  1  0
 14 16  2  0
 13 17  2  0
 17 18  1  0
 18 19  1  0
 19 20  1  0
 20 21  1  0
 20 22  1  0
 17 23  1  0
 23 24  2  0
 24 25  1  0
  6 26  2  0
 26  2  1  0
 24 11  1  0
  1 27  1  0
  1 28  1  0
  1 29  1  0
  3 30  1  0
  4 31  1  0
  5 32  1  0
  7 33  1  0
  7 34  1  0
  8 35  1  0
 12 36  1  0
 15 37  1  0
 15 38  1  0
 19 39  1  0
 19 40  1  0
 20 41  1  0
 21 42  1  0
 21 43  1  0
 21 44  1  0
 22 45  1  0
 22 46  1  0
 22 47  1  0
 23 48  1  0
 25 49  1  0
 25 50  1  0
 25 51  1  0
 26 52  1  0
M  END
$$$$
[H]c1nc([H])c(C([H])([H])N([H])C(=O)c2c([H])c(C3([H])C([H])([H])C3([H])[H])c(N([H])c3nc([H])c(C#N)c([H])c3[H])c([H])c2C([H])([H])[H])c(C([H])([H])[H])c1[H]
     RDKit          3D

 53 56  0  0  0  0  0  0  0  0999 V2000
    6.8914   -0.0755   -1.4994 C   0  0  0  0  0  0  0  0  0  0  0  0
    6.2445    0.5584   -0.3070 C   0  0  0  0  0  0  0  0  0  0  0  0
    6.9637    1.4001    0.4996 C   0  0  0  0  0  0  0  0  0  0  0  0
    6.4364    2.0172    1.5978 C   0  0  0  0  0  0  0  0  0  0  0  0
    5.1443    1.7734    1.8868 N   0  0  0  0  0  0  0  0  0  0  0  0
    4.4008    0.9394    1.1031 C   0  0  0  0  0  0  0  0  0  0  0  0
    4.9202    0.3134   -0.0057 C   0  0  0  0  0  0  0  0  0  0  0  0
    4.1504   -0.5997   -0.8168 C   0  0  0  0  0  0  0  0  0  0  0  0
    2.7664   -0.7829   -0.5284 N   0  0  0  0  0  0  0  0  0  0  0  0
    1.7867    0.2420   -0.6480 C   0  0  0  0  0  0  0  0  0  0  0  0
    2.2245    1.3853   -1.0209 O   0  0  0  0  0  0  0  0  0  0  0  0
    0.3810    0.1258   -0.3977 C   0  0  0  0  0  0  0  0  0  0  0  0
   -0.3056    1.0839    0.3620 C   0  0  0  0  0  0  0  0  0  0  0  0
   -1.6522    0.9580    0.6481 C   0  0  0  0  0  0  0  0  0  0  0  0
   -2.3291    1.9456    1.4884 C   0  0  0  0  0  0  0  0  0  0  0  0
   -1.5728    3.2635    1.6431 C   0  0  0  0  0  0  0  0  0  0  0  0
   -2.9856    3.1723    1.0554 C   0  0  0  0  0  0  0  0  0  0  0  0
   -2.3914   -0.1493    0.1817 C   0  0  0  0  0  0  0  0  0  0  0  0
   -3.7454   -0.2638    0.5244 N   0  0  0  0  0  0  0  0  0  0  0  0
   -4.7840   -0.9691   -0.0898 C   0  0  0  0  0  0  0  0  0  0  0  0
   -4.7848   -1.5830   -1.3082 C   0  0  0  0  0  0  0  0  0  0  0  0
   -5.8700   -2.3019   -1.8097 C   0  0  0  0  0  0  0  0  0  0  0  0
   -7.0106   -2.4097   -1.0547 C   0  0  0  0  0  0  0  0  0  0  0  0
   -7.0041   -1.7903    0.1682 C   0  0  0  0  0  0  0  0  0  0  0  0
   -5.9445   -1.1062    0.6240 N   0  0  0  0  0  0  0  0  0  0  0  0
   -8.1541   -3.1479   -1.5532 C   0  0  0  0  0  0  0  0  0  0  0  0
   -9.0708   -3.7187   -1.9642 N   0  0  0  0  0  0  0  0  0  0  0  0
   -1.7156   -1.0786   -0.5549 C   0  0  0  0  0  0  0  0  0  0  0  0
   -0.3434   -0.9460   -0.8462 C   0  0  0  0  0  0  0  0  0  0  0  0
    0.3258   -1.9625   -1.6945 C   0  0  0  0  0  0  0  0  0  0  0  0
    6.8875   -1.1772   -1.3286 H   0  0  0  0  0  0  0  0  0  0  0  0
    7.9547    0.2146   -1.5735 H   0  0  0  0  0  0  0  0  0  0  0  0
    6.4047    0.2024   -2.4412 H   0  0  0  0  0  0  0  0  0  0  0  0
    8.0227    1.5884    0.2466 H   0  0  0  0  0  0  0  0  0  0  0  0
    7.0556    2.6706    2.2033 H   0  0  0  0  0  0  0  0  0  0  0  0
    3.3828    0.8079    1.4456 H   0  0  0  0  0  0  0  0  0  0  0  0
    4.6523   -1.6183   -0.6893 H   0  0  0  0  0  0  0  0  0  0  0  0
    4.2701   -0.4295   -1.9266 H   0  0  0  0  0  0  0  0  0  0  0  0
    2.4390   -1.7163   -0.1932 H   0  0  0  0  0  0  0  0  0  0  0  0
    0.3134    1.9032    0.6967 H   0  0  0  0  0  0  0  0  0  0  0  0
   -2.6234    1.5346    2.4971 H   0  0  0  0  0  0  0  0  0  0  0  0
   -1.4801    3.6975    2.6537 H   0  0  0  0  0  0  0  0  0  0  0  0
   -0.7694    3.5259    0.9197 H   0  0  0  0  0  0  0  0  0  0  0  0
   -3.8029    3.5679    1.7241 H   0  0  0  0  0  0  0  0  0  0  0  0
   -3.0636    3.4981    0.0167 H   0  0  0  0  0  0  0  0  0  0  0  0
   -4.0304    0.2868    1.4161 H   0  0  0  0  0  0  0  0  0  0  0  0
   -3.9395   -1.4800   -1.9367 H   0  0  0  0  0  0  0  0  0  0  0  0
   -5.8224   -2.7735   -2.7875 H   0  0  0  0  0  0  0  0  0  0  0  0
   -7.9351   -1.8992    0.7487 H   0  0  0  0  0  0  0  0  0  0  0  0
   -2.1661   -2.0023   -0.9325 H   0  0  0  0  0  0  0  0  0  0  0  0
    0.6401   -2.8665   -1.1755 H   0  0  0  0  0  0  0  0  0  0  0  0
    1.1015   -1.5066   -2.3632 H   0  0  0  0  0  0  0  0  0  0  0  0
   -0.4633   -2.3219   -2.4333 H   0  0  0  0  0  0  0  0  0  0  0  0
  1  2  1  0
  2  3  2  0
  3  4  1  0
  4  5  2  0
  5  6  1  0
  6  7  2  0
  7  8  1  0
  8  9  1  0
  9 10  1  0
 10 11  2  0
 10 12  1  0
 12 13  2  0
 13 14  1  0
 14 15  1  0
 15 16  1  0
 16 17  1  0
 14 18  2  0
 18 19  1  0
 19 20  1  0
 20 21  2  0
 21 22  1  0
 22 23  2  0
 23 24  1  0
 24 25  2  0
 23 26  1  0
 26 27  3  0
 18 28  1  0
 28 29  2  0
 29 30  1  0
  7  2  1  0
 29 12  1  0
 17 15  1  0
 25 20  1  0
  1 31  1  0
  1 32  1  0
  1 33  1  0
  3 34  1  0
  4 35  1  0
  6 36  1  0
  8 37  1  0
  8 38  1  0
  9 39  1  0
 13 40  1  0
 15 41  1  0
 16 42  1  0
 16 43  1  0
 17 44  1  0
 17 45  1  0
 19 46  1  0
 21 47  1  0
 22 48  1  0
 24 49  1  0
 28 50  1  0
 30 51  1  0
 30 52  1  0
 30 53  1  0
M  END
$$$$
[H]c1nc(N([H])C(=O)[C@]([H])(N([H])C(=O)c2c([H])c([H])c([H])c(C(=O)N([H])C([H])([H])c3c([H])c([H])c(C(C#N)(C([H])([H])[H])C([H])([H])[H])c([H])c3[H])c2[H])C([H])([H])[H])c([H])c(C(F)(F)F)c1[H]
     RDKit          3D

 65 67  0  0  0  0  0  0  0  0999 V2000
   -3.3641   -0.3767    0.2845 C   0  0  0  0  0  0  0  0  0  0  0  0
   -4.0756   -1.7646    0.0175 C   0  0  2  0  0  0  0  0  0  0  0  0
   -5.0907   -2.0052    1.0377 C   0  0  0  0  0  0  0  0  0  0  0  0
   -4.8571   -3.0349    1.8010 O   0  0  0  0  0  0  0  0  0  0  0  0
   -6.2623   -1.3048    1.3140 N   0  0  0  0  0  0  0  0  0  0  0  0
   -6.8466   -0.2244    0.6126 C   0  0  0  0  0  0  0  0  0  0  0  0
   -7.9949    0.4141    1.1297 C   0  0  0  0  0  0  0  0  0  0  0  0
   -8.6156    1.4608    0.4880 C   0  0  0  0  0  0  0  0  0  0  0  0
   -8.1228    1.9249   -0.7029 C   0  0  0  0  0  0  0  0  0  0  0  0
   -6.9970    1.2964   -1.2141 C   0  0  0  0  0  0  0  0  0  0  0  0
   -6.4412    0.2883   -0.5433 N   0  0  0  0  0  0  0  0  0  0  0  0
   -9.8533    2.0898    1.1080 C   0  0  0  0  0  0  0  0  0  0  0  0
  -10.1999    3.1644    0.3172 F   0  0  0  0  0  0  0  0  0  0  0  0
  -10.8819    1.1658    1.0347 F   0  0  0  0  0  0  0  0  0  0  0  0
   -9.6375    2.5178    2.3839 F   0  0  0  0  0  0  0  0  0  0  0  0
   -3.1570   -2.6375   -0.3024 N   0  0  0  0  0  0  0  0  0  0  0  0
   -2.1483   -3.6237   -0.6700 C   0  0  0  0  0  0  0  0  0  0  0  0
   -2.3271   -4.6331   -1.2984 O   0  0  0  0  0  0  0  0  0  0  0  0
   -0.7708   -3.2764   -0.1681 C   0  0  0  0  0  0  0  0  0  0  0  0
   -0.4589   -3.5882    1.1330 C   0  0  0  0  0  0  0  0  0  0  0  0
    0.7794   -3.1584    1.6690 C   0  0  0  0  0  0  0  0  0  0  0  0
    1.6350   -2.4436    0.8512 C   0  0  0  0  0  0  0  0  0  0  0  0
    1.3266   -2.1324   -0.4500 C   0  0  0  0  0  0  0  0  0  0  0  0
    0.0973   -2.5663   -0.9568 C   0  0  0  0  0  0  0  0  0  0  0  0
    2.2133   -1.3020   -1.2456 C   0  0  0  0  0  0  0  0  0  0  0  0
    3.1152   -1.6056   -1.9803 O   0  0  0  0  0  0  0  0  0  0  0  0
    1.9465    0.1376   -1.1259 N   0  0  0  0  0  0  0  0  0  0  0  0
    2.7645    1.0419   -1.8716 C   0  0  0  0  0  0  0  0  0  0  0  0
    4.0889    1.2169   -1.2427 C   0  0  0  0  0  0  0  0  0  0  0  0
    5.0726    1.9092   -1.9423 C   0  0  0  0  0  0  0  0  0  0  0  0
    6.3289    2.0741   -1.3601 C   0  0  0  0  0  0  0  0  0  0  0  0
    6.5883    1.5590   -0.1157 C   0  0  0  0  0  0  0  0  0  0  0  0
    5.5956    0.8800    0.5426 C   0  0  0  0  0  0  0  0  0  0  0  0
    4.3350    0.6914    0.0068 C   0  0  0  0  0  0  0  0  0  0  0  0
    7.9018    1.7630    0.5074 C   0  0  0  0  0  0  0  0  0  0  0  0
    8.0327    1.0645    1.8674 C   0  0  0  0  0  0  0  0  0  0  0  0
    8.0506    3.2509    0.8266 C   0  0  0  0  0  0  0  0  0  0  0  0
    8.9218    1.3162   -0.4299 C   0  0  0  0  0  0  0  0  0  0  0  0
    9.7609    0.9791   -1.1657 N   0  0  0  0  0  0  0  0  0  0  0  0
   -3.7551    0.3788   -0.3492 H   0  0  0  0  0  0  0  0  0  0  0  0
   -2.3106   -0.5793   -0.1310 H   0  0  0  0  0  0  0  0  0  0  0  0
   -3.3648   -0.1159    1.3346 H   0  0  0  0  0  0  0  0  0  0  0  0
   -4.7282   -1.5109   -0.9170 H   0  0  0  0  0  0  0  0  0  0  0  0
   -6.8498   -1.6865    2.1449 H   0  0  0  0  0  0  0  0  0  0  0  0
   -8.3761    0.0471    2.0504 H   0  0  0  0  0  0  0  0  0  0  0  0
   -8.6219    2.7345   -1.1802 H   0  0  0  0  0  0  0  0  0  0  0  0
   -6.6049    1.6656   -2.1689 H   0  0  0  0  0  0  0  0  0  0  0  0
   -4.0929   -3.5251   -0.7419 H   0  0  0  0  0  0  0  0  0  0  0  0
   -1.1567   -4.1585    1.7656 H   0  0  0  0  0  0  0  0  0  0  0  0
    1.0365   -3.3824    2.6816 H   0  0  0  0  0  0  0  0  0  0  0  0
    2.5997   -2.1097    1.2656 H   0  0  0  0  0  0  0  0  0  0  0  0
   -0.1934   -2.3613   -1.9725 H   0  0  0  0  0  0  0  0  0  0  0  0
    1.1989    0.4392   -0.5181 H   0  0  0  0  0  0  0  0  0  0  0  0
    2.8786    0.6160   -2.8809 H   0  0  0  0  0  0  0  0  0  0  0  0
    2.2509    2.0316   -2.0348 H   0  0  0  0  0  0  0  0  0  0  0  0
    4.8122    2.2898   -2.9203 H   0  0  0  0  0  0  0  0  0  0  0  0
    7.0596    2.6022   -1.9267 H   0  0  0  0  0  0  0  0  0  0  0  0
    5.7667    0.4457    1.5425 H   0  0  0  0  0  0  0  0  0  0  0  0
    3.5894    0.1388    0.5651 H   0  0  0  0  0  0  0  0  0  0  0  0
    7.2861    1.5833    2.5135 H   0  0  0  0  0  0  0  0  0  0  0  0
    7.8133   -0.0035    1.7924 H   0  0  0  0  0  0  0  0  0  0  0  0
    9.0482    1.2568    2.2616 H   0  0  0  0  0  0  0  0  0  0  0  0
    7.1573    3.5129    1.4190 H   0  0  0  0  0  0  0  0  0  0  0  0
    8.9681    3.3153    1.4793 H   0  0  0  0  0  0  0  0  0  0  0  0
    8.1365    3.8470   -0.1022 H   0  0  0  0  0  0  0  0  0  0  0  0
  1  2  1  0
  2  3  1  0
  3  4  2  0
  3  5  1  0
  5  6  1  0
  6  7  2  0
  7  8  1  0
  8  9  2  0
  9 10  1  0
 10 11  2  0
  8 12  1  0
 12 13  1  0
 12 14  1  0
 12 15  1  0
  2 16  1  0
 16 17  1  0
 17 18  2  0
 17 19  1  0
 19 20  2  0
 20 21  1  0
 21 22  2  0
 22 23  1  0
 23 24  2  0
 23 25  1  0
 25 26  2  0
 25 27  1  0
 27 28  1  0
 28 29  1  0
 29 30  2  0
 30 31  1  0
 31 32  2  0
 32 33  1  0
 33 34  2  0
 32 35  1  0
 35 36  1  0
 35 37  1  0
 35 38  1  0
 38 39  3  0
 11  6  1  0
 24 19  1  0
 34 29  1  0
  1 40  1  0
  1 41  1  0
  1 42  1  0
  2 43  1  6
  5 44  1  0
  7 45  1  0
  9 46  1  0
 10 47  1  0
 16 48  1  0
 20 49  1  0
 21 50  1  0
 22 51  1  0
 24 52  1  0
 27 53  1  0
 28 54  1  0
 28 55  1  0
 30 56  1  0
 31 57  1  0
 33 58  1  0
 34 59  1  0
 36 60  1  0
 36 61  1  0
 36 62  1  0
 37 63  1  0
 37 64  1  0
 37 65  1  0
M  END
$$$$
[H]c1nc(OC([H])([H])[H])c([H])c(-c2c([H])c(F)c([H])c([H])c2O[C@]2([H])C([H])([H])N(C(=O)[C@]3([H])N(C(=O)C([H])([H])C([H])([H])c4c([H])c([H])c(S(=O)(=O)c5c([H])c([H])c([H])c([H])c5[H])c([H])c4N([H])[H])C([H])([H])C([H])([H])C3([H])[H])C([H])([H])C2([H])[H])n1
     RDKit          3D

 84 89  0  0  0  0  0  0  0  0999 V2000
   -9.2461    0.5391    5.1049 C   0  0  0  0  0  0  0  0  0  0  0  0
   -8.6256    1.3973    4.1373 O   0  0  0  0  0  0  0  0  0  0  0  0
   -7.6398    1.0040    3.2812 C   0  0  0  0  0  0  0  0  0  0  0  0
   -7.1537    1.9504    2.3820 C   0  0  0  0  0  0  0  0  0  0  0  0
   -6.1762    1.6611    1.4829 C   0  0  0  0  0  0  0  0  0  0  0  0
   -5.6894    0.4117    1.5000 N   0  0  0  0  0  0  0  0  0  0  0  0
   -6.1322   -0.5154    2.3483 C   0  0  0  0  0  0  0  0  0  0  0  0
   -7.1024   -0.2448    3.2442 N   0  0  0  0  0  0  0  0  0  0  0  0
   -5.7582    2.6366    0.4693 C   0  0  0  0  0  0  0  0  0  0  0  0
   -6.1415    3.9539    0.5565 C   0  0  0  0  0  0  0  0  0  0  0  0
   -5.8675    4.8572   -0.4472 C   0  0  0  0  0  0  0  0  0  0  0  0
   -6.2499    6.1414   -0.3535 F   0  0  0  0  0  0  0  0  0  0  0  0
   -5.1893    4.3936   -1.5539 C   0  0  0  0  0  0  0  0  0  0  0  0
   -4.8040    3.0584   -1.6295 C   0  0  0  0  0  0  0  0  0  0  0  0
   -5.0582    2.1288   -0.6497 C   0  0  0  0  0  0  0  0  0  0  0  0
   -4.7392    0.8376   -0.6276 O   0  0  0  0  0  0  0  0  0  0  0  0
   -4.3319   -0.1633   -1.4188 C   0  0  1  0  0  0  0  0  0  0  0  0
   -3.6913    0.2542   -2.7709 C   0  0  0  0  0  0  0  0  0  0  0  0
   -3.3659   -1.1940   -3.2308 C   0  0  0  0  0  0  0  0  0  0  0  0
   -2.5454   -1.6101   -2.0695 N   0  0  0  0  0  0  0  0  0  0  0  0
   -3.3159   -1.1445   -0.9114 C   0  0  0  0  0  0  0  0  0  0  0  0
   -1.3260   -2.2665   -2.1972 C   0  0  0  0  0  0  0  0  0  0  0  0
   -0.9410   -2.5170   -3.3967 O   0  0  0  0  0  0  0  0  0  0  0  0
   -0.4025   -2.7127   -1.1252 C   0  0  1  0  0  0  0  0  0  0  0  0
   -0.8425   -4.0305   -0.5142 C   0  0  0  0  0  0  0  0  0  0  0  0
   -0.5890   -4.9394   -1.7140 C   0  0  0  0  0  0  0  0  0  0  0  0
    0.6967   -4.3777   -2.3207 C   0  0  0  0  0  0  0  0  0  0  0  0
    0.8692   -3.1150   -1.6801 N   0  0  0  0  0  0  0  0  0  0  0  0
    2.0662   -2.3538   -1.5967 C   0  0  0  0  0  0  0  0  0  0  0  0
    2.0515   -1.2325   -0.9650 O   0  0  0  0  0  0  0  0  0  0  0  0
    3.3160   -2.7690   -2.2022 C   0  0  0  0  0  0  0  0  0  0  0  0
    4.6083   -2.6142   -1.5359 C   0  0  0  0  0  0  0  0  0  0  0  0
    5.0221   -1.3171   -1.0149 C   0  0  0  0  0  0  0  0  0  0  0  0
    5.5439   -0.3376   -1.8388 C   0  0  0  0  0  0  0  0  0  0  0  0
    5.8529    0.9319   -1.3389 C   0  0  0  0  0  0  0  0  0  0  0  0
    5.6470    1.2273   -0.0323 C   0  0  0  0  0  0  0  0  0  0  0  0
    5.1372    0.2795    0.7961 C   0  0  0  0  0  0  0  0  0  0  0  0
    4.8186   -1.0094    0.3116 C   0  0  0  0  0  0  0  0  0  0  0  0
    4.3510   -1.9425    1.2885 N   0  0  0  0  0  0  0  0  0  0  0  0
    6.0056    2.8021    0.6837 S   0  0  0  0  0  0  0  0  0  0  0  0
    5.0380    3.0047    1.8447 O   0  0  0  0  0  0  0  0  0  0  0  0
    5.7474    3.8552   -0.3211 O   0  0  0  0  0  0  0  0  0  0  0  0
    7.5952    2.8317    1.3576 C   0  0  0  0  0  0  0  0  0  0  0  0
    8.6460    3.1820    0.5477 C   0  0  0  0  0  0  0  0  0  0  0  0
    9.9479    3.2020    1.0823 C   0  0  0  0  0  0  0  0  0  0  0  0
   10.0822    2.8686    2.3895 C   0  0  0  0  0  0  0  0  0  0  0  0
    9.0332    2.5109    3.2297 C   0  0  0  0  0  0  0  0  0  0  0  0
    7.7890    2.5049    2.6627 C   0  0  0  0  0  0  0  0  0  0  0  0
   -9.6472    1.0839    5.9553 H   0  0  0  0  0  0  0  0  0  0  0  0
  -10.0823   -0.0290    4.5894 H   0  0  0  0  0  0  0  0  0  0  0  0
   -8.4899   -0.2270    5.3893 H   0  0  0  0  0  0  0  0  0  0  0  0
   -7.5981    2.9564    2.4190 H   0  0  0  0  0  0  0  0  0  0  0  0
   -5.7285   -1.5382    2.3666 H   0  0  0  0  0  0  0  0  0  0  0  0
   -6.6689    4.3476    1.4189 H   0  0  0  0  0  0  0  0  0  0  0  0
   -4.9834    5.0966   -2.3323 H   0  0  0  0  0  0  0  0  0  0  0  0
   -4.2594    2.7590   -2.5186 H   0  0  0  0  0  0  0  0  0  0  0  0
   -5.2746   -0.6848   -1.8283 H   0  0  0  0  0  0  0  0  0  0  0  0
   -2.7722    0.8034   -2.6476 H   0  0  0  0  0  0  0  0  0  0  0  0
   -4.4646    0.6908   -3.4057 H   0  0  0  0  0  0  0  0  0  0  0  0
   -2.8077   -1.1517   -4.1555 H   0  0  0  0  0  0  0  0  0  0  0  0
   -4.3371   -1.7123   -3.2466 H   0  0  0  0  0  0  0  0  0  0  0  0
   -2.6205   -0.6270   -0.1960 H   0  0  0  0  0  0  0  0  0  0  0  0
   -3.8502   -1.9659   -0.4022 H   0  0  0  0  0  0  0  0  0  0  0  0
   -0.3200   -1.8900   -0.3915 H   0  0  0  0  0  0  0  0  0  0  0  0
   -0.1431   -4.2822    0.3085 H   0  0  0  0  0  0  0  0  0  0  0  0
   -1.8520   -4.0556   -0.1334 H   0  0  0  0  0  0  0  0  0  0  0  0
   -0.4335   -5.9431   -1.2931 H   0  0  0  0  0  0  0  0  0  0  0  0
   -1.4072   -4.9600   -2.4236 H   0  0  0  0  0  0  0  0  0  0  0  0
    0.6765   -4.3294   -3.4174 H   0  0  0  0  0  0  0  0  0  0  0  0
    1.5055   -5.1070   -2.0790 H   0  0  0  0  0  0  0  0  0  0  0  0
    3.3974   -2.4327   -3.2739 H   0  0  0  0  0  0  0  0  0  0  0  0
    3.1951   -3.9135   -2.3516 H   0  0  0  0  0  0  0  0  0  0  0  0
    4.7726   -3.4462   -0.7783 H   0  0  0  0  0  0  0  0  0  0  0  0
    5.3984   -2.8978   -2.3196 H   0  0  0  0  0  0  0  0  0  0  0  0
    5.7231   -0.5318   -2.8818 H   0  0  0  0  0  0  0  0  0  0  0  0
    6.2570    1.6974   -1.9853 H   0  0  0  0  0  0  0  0  0  0  0  0
    4.9702    0.4977    1.8645 H   0  0  0  0  0  0  0  0  0  0  0  0
    3.9362   -1.5669    2.1604 H   0  0  0  0  0  0  0  0  0  0  0  0
    4.4176   -2.9580    1.1388 H   0  0  0  0  0  0  0  0  0  0  0  0
    8.5447    3.4524   -0.4928 H   0  0  0  0  0  0  0  0  0  0  0  0
   10.7590    3.4814    0.4230 H   0  0  0  0  0  0  0  0  0  0  0  0
   11.0904    2.8816    2.7990 H   0  0  0  0  0  0  0  0  0  0  0  0
    9.2222    2.2586    4.2626 H   0  0  0  0  0  0  0  0  0  0  0  0
    6.9339    2.2241    3.2947 H   0  0  0  0  0  0  0  0  0  0  0  0
  1  2  1  0
  2  3  1  0
  3  4  2  0
  4  5  1  0
  5  6  2  0
  6  7  1  0
  7  8  2  0
  5  9  1  0
  9 10  2  0
 10 11  1  0
 11 12  1  0
 11 13  2  0
 13 14  1  0
 14 15  2  0
 15 16  1  0
 16 17  1  0
 17 18  1  0
 18 19  1  0
 19 20  1  0
 20 21  1  0
 20 22  1  0
 22 23  2  0
 22 24  1  0
 24 25  1  0
 25 26  1  0
 26 27  1  0
 27 28  1  0
 28 29  1  0
 29 30  2  0
 29 31  1  0
 31 32  1  0
 32 33  1  0
 33 34  2  0
 34 35  1  0
 35 36  2  0
 36 37  1  0
 37 38  2  0
 38 39  1  0
 36 40  1  0
 40 41  2  0
 40 42  2  0
 40 43  1  0
 43 44  2  0
 44 45  1  0
 45 46  2  0
 46 47  1  0
 47 48  2  0
  8  3  1  0
 15  9  1  0
 21 17  1  0
 28 24  1  0
 38 33  1  0
 48 43  1  0
  1 49  1  0
  1 50  1  0
  1 51  1  0
  4 52  1  0
  7 53  1  0
 10 54  1  0
 13 55  1  0
 14 56  1  0
 17 57  1  6
 18 58  1  0
 18 59  1  0
 19 60  1  0
 19 61  1  0
 21 62  1  0
 21 63  1  0
 24 64  1  1
 25 65  1  0
 25 66  1  0
 26 67  1  0
 26 68  1  0
 27 69  1  0
 27 70  1  0
 31 71  1  0
 31 72  1  0
 32 73  1  0
 32 74  1  0
 34 75  1  0
 35 76  1  0
 37 77  1  0
 39 78  1  0
 39 79  1  0
 44 80  1  0
 45 81  1  0
 46 82  1  0
 47 83  1  0
 48 84  1  0
M  END
$$$$
[H]c1nc(C([H])(C([H])([H])[H])C([H])([H])[H])oc1-c1c([H])c([H])c([H])c(C([H])([H])N([H])C(=O)c2c([H])nc3c(c2[H])c([H])c([H])n3[H])c1[H]
     RDKit          3D

 47 50  0  0  0  0  0  0  0  0999 V2000
   -7.6511    0.2287    0.7908 C   0  0  0  0  0  0  0  0  0  0  0  0
   -6.7579   -0.5946   -0.1017 C   0  0  0  0  0  0  0  0  0  0  0  0
   -6.9462   -2.0698    0.0896 C   0  0  0  0  0  0  0  0  0  0  0  0
   -5.3221   -0.1915    0.1119 C   0  0  0  0  0  0  0  0  0  0  0  0
   -4.6468   -0.3167    1.2650 N   0  0  0  0  0  0  0  0  0  0  0  0
   -3.3995    0.1466    1.0723 C   0  0  0  0  0  0  0  0  0  0  0  0
   -3.3177    0.5631   -0.2314 C   0  0  0  0  0  0  0  0  0  0  0  0
   -4.5006    0.3326   -0.7475 O   0  0  0  0  0  0  0  0  0  0  0  0
   -2.1658    1.1420   -0.9144 C   0  0  0  0  0  0  0  0  0  0  0  0
   -2.2100    1.5210   -2.2385 C   0  0  0  0  0  0  0  0  0  0  0  0
   -1.1219    2.0711   -2.8911 C   0  0  0  0  0  0  0  0  0  0  0  0
    0.0481    2.2435   -2.1831 C   0  0  0  0  0  0  0  0  0  0  0  0
    0.1367    1.8755   -0.8473 C   0  0  0  0  0  0  0  0  0  0  0  0
    1.4081    2.0806   -0.1358 C   0  0  0  0  0  0  0  0  0  0  0  0
    2.2970    0.9430   -0.2157 N   0  0  0  0  0  0  0  0  0  0  0  0
    3.5543    0.9834    0.3938 C   0  0  0  0  0  0  0  0  0  0  0  0
    3.8895    2.0400    1.0140 O   0  0  0  0  0  0  0  0  0  0  0  0
    4.5063   -0.1207    0.3585 C   0  0  0  0  0  0  0  0  0  0  0  0
    4.2226   -1.3195   -0.2631 C   0  0  0  0  0  0  0  0  0  0  0  0
    5.1642   -2.3024   -0.2529 N   0  0  0  0  0  0  0  0  0  0  0  0
    6.3534   -2.1805    0.3239 C   0  0  0  0  0  0  0  0  0  0  0  0
    7.4319   -2.9684    0.4754 N   0  0  0  0  0  0  0  0  0  0  0  0
    8.3955   -2.3341    1.1642 C   0  0  0  0  0  0  0  0  0  0  0  0
    7.9370   -1.0741    1.4826 C   0  0  0  0  0  0  0  0  0  0  0  0
    6.6599   -0.9897    0.9524 C   0  0  0  0  0  0  0  0  0  0  0  0
    5.7390    0.0126    0.9594 C   0  0  0  0  0  0  0  0  0  0  0  0
   -0.9842    1.3244   -0.2269 C   0  0  0  0  0  0  0  0  0  0  0  0
   -8.7034   -0.0374    0.5428 H   0  0  0  0  0  0  0  0  0  0  0  0
   -7.4628    1.3013    0.5163 H   0  0  0  0  0  0  0  0  0  0  0  0
   -7.4279    0.0318    1.8593 H   0  0  0  0  0  0  0  0  0  0  0  0
   -7.0022   -0.3504   -1.1556 H   0  0  0  0  0  0  0  0  0  0  0  0
   -6.9237   -2.6270   -0.8808 H   0  0  0  0  0  0  0  0  0  0  0  0
   -6.1914   -2.4792    0.7781 H   0  0  0  0  0  0  0  0  0  0  0  0
   -7.9406   -2.3207    0.5363 H   0  0  0  0  0  0  0  0  0  0  0  0
   -2.5983    0.1823    1.8253 H   0  0  0  0  0  0  0  0  0  0  0  0
   -3.1298    1.3811   -2.7811 H   0  0  0  0  0  0  0  0  0  0  0  0
   -1.1252    2.3780   -3.9277 H   0  0  0  0  0  0  0  0  0  0  0  0
    0.9247    2.6697   -2.6518 H   0  0  0  0  0  0  0  0  0  0  0  0
    1.9271    3.0046   -0.4752 H   0  0  0  0  0  0  0  0  0  0  0  0
    1.1769    2.2250    0.9509 H   0  0  0  0  0  0  0  0  0  0  0  0
    2.0006    0.0901   -0.7290 H   0  0  0  0  0  0  0  0  0  0  0  0
    3.2697   -1.4840   -0.7530 H   0  0  0  0  0  0  0  0  0  0  0  0
    7.5214   -3.9396    0.1134 H   0  0  0  0  0  0  0  0  0  0  0  0
    9.3856   -2.7166    1.4441 H   0  0  0  0  0  0  0  0  0  0  0  0
    8.4890   -0.3349    2.0325 H   0  0  0  0  0  0  0  0  0  0  0  0
    5.9996    0.9414    1.4588 H   0  0  0  0  0  0  0  0  0  0  0  0
   -0.9091    1.0386    0.8175 H   0  0  0  0  0  0  0  0  0  0  0  0
  1  2  1  0
  2  3  1  0
  2  4  1  0
  4  5  2  0
  5  6  1  0
  6  7  2  0
  7  8  1  0
  7  9  1  0
  9 10  2  0
 10 11  1  0
 11 12  2  0
 12 13  1  0
 13 14  1  0
 14 15  1  0
 15 16  1  0
 16 17  2  0
 16 18  1  0
 18 19  2  0
 19 20  1  0
 20 21  2  0
 21 22  1  0
 22 23  1  0
 23 24  2  0
 24 25  1  0
 25 26  2  0
 13 27  2  0
  8  4  1  0
 27  9  1  0
 26 18  1  0
 25 21  1  0
  1 28  1  0
  1 29  1  0
  1 30  1  0
  2 31  1  0
  3 32  1  0
  3 33  1  0
  3 34  1  0
  6 35  1  0
 10 36  1  0
 11 37  1  0
 12 38  1  0
 14 39  1  0
 14 40  1  0
 15 41  1  0
 19 42  1  0
 22 43  1  0
 23 44  1  0
 24 45  1  0
 26 46  1  0
 27 47  1  0
M  END
$$$$
[H]c1nc(N([H])c2c([H])c([H])c(F)c(C#Cc3c([H])c([H])c([H])c([H])c3[H])c2[H])c2c([H])c(OC([H])([H])[H])c(OC([H])([H])[H])c([H])c2n1
     RDKit          3D

 48 51  0  0  0  0  0  0  0  0999 V2000
   -8.0905    0.7259   -0.5620 C   0  0  0  0  0  0  0  0  0  0  0  0
   -6.8900    1.0878    0.0637 O   0  0  0  0  0  0  0  0  0  0  0  0
   -5.6870    0.4403   -0.1652 C   0  0  0  0  0  0  0  0  0  0  0  0
   -5.5897   -0.6116   -1.0307 C   0  0  0  0  0  0  0  0  0  0  0  0
   -4.3579   -1.2134   -1.2132 C   0  0  0  0  0  0  0  0  0  0  0  0
   -4.2349   -2.2577   -2.0635 N   0  0  0  0  0  0  0  0  0  0  0  0
   -3.0798   -2.8928   -2.2929 C   0  0  0  0  0  0  0  0  0  0  0  0
   -2.0013   -2.4575   -1.6377 N   0  0  0  0  0  0  0  0  0  0  0  0
   -1.9815   -1.4452   -0.7766 C   0  0  0  0  0  0  0  0  0  0  0  0
   -0.8282   -0.9868   -0.1209 N   0  0  0  0  0  0  0  0  0  0  0  0
    0.4653   -1.5474   -0.2147 C   0  0  0  0  0  0  0  0  0  0  0  0
    0.6876   -2.8462   -0.5272 C   0  0  0  0  0  0  0  0  0  0  0  0
    1.9836   -3.3638   -0.6410 C   0  0  0  0  0  0  0  0  0  0  0  0
    3.0835   -2.5598   -0.4356 C   0  0  0  0  0  0  0  0  0  0  0  0
    4.3546   -2.9973   -0.5301 F   0  0  0  0  0  0  0  0  0  0  0  0
    2.8651   -1.2194   -0.1121 C   0  0  0  0  0  0  0  0  0  0  0  0
    1.5846   -0.7198   -0.0030 C   0  0  0  0  0  0  0  0  0  0  0  0
    4.0088   -0.3790    0.1030 C   0  0  0  0  0  0  0  0  0  0  0  0
    4.9724    0.3265    0.2772 C   0  0  0  0  0  0  0  0  0  0  0  0
    6.1362    1.1538    0.4830 C   0  0  0  0  0  0  0  0  0  0  0  0
    6.2630    2.0167    1.5463 C   0  0  0  0  0  0  0  0  0  0  0  0
    7.3767    2.8101    1.7455 C   0  0  0  0  0  0  0  0  0  0  0  0
    8.3921    2.7182    0.8288 C   0  0  0  0  0  0  0  0  0  0  0  0
    8.3237    1.8676   -0.2635 C   0  0  0  0  0  0  0  0  0  0  0  0
    7.1915    1.0921   -0.4242 C   0  0  0  0  0  0  0  0  0  0  0  0
   -3.2011   -0.7902   -0.5473 C   0  0  0  0  0  0  0  0  0  0  0  0
   -3.3290    0.2641    0.3123 C   0  0  0  0  0  0  0  0  0  0  0  0
   -4.5552    0.8648    0.4954 C   0  0  0  0  0  0  0  0  0  0  0  0
   -4.6465    1.9505    1.3912 O   0  0  0  0  0  0  0  0  0  0  0  0
   -3.5024    2.3808    2.0599 C   0  0  0  0  0  0  0  0  0  0  0  0
   -8.1844   -0.3651   -0.7230 H   0  0  0  0  0  0  0  0  0  0  0  0
   -8.9247    1.0593    0.1198 H   0  0  0  0  0  0  0  0  0  0  0  0
   -8.1850    1.2073   -1.5587 H   0  0  0  0  0  0  0  0  0  0  0  0
   -6.4421   -0.9916   -1.5792 H   0  0  0  0  0  0  0  0  0  0  0  0
   -3.0112   -3.7400   -2.9909 H   0  0  0  0  0  0  0  0  0  0  0  0
   -0.8741   -0.1352    0.5275 H   0  0  0  0  0  0  0  0  0  0  0  0
   -0.0913   -3.5510   -0.6857 H   0  0  0  0  0  0  0  0  0  0  0  0
    2.1279   -4.4008   -0.8915 H   0  0  0  0  0  0  0  0  0  0  0  0
    1.3824    0.3063    0.2433 H   0  0  0  0  0  0  0  0  0  0  0  0
    5.4456    2.0728    2.2601 H   0  0  0  0  0  0  0  0  0  0  0  0
    7.4163    3.4714    2.6053 H   0  0  0  0  0  0  0  0  0  0  0  0
    9.2592    3.3389    0.9879 H   0  0  0  0  0  0  0  0  0  0  0  0
    9.1635    1.8483   -0.9452 H   0  0  0  0  0  0  0  0  0  0  0  0
    7.1308    0.4226   -1.2786 H   0  0  0  0  0  0  0  0  0  0  0  0
   -2.4917    0.6460    0.8607 H   0  0  0  0  0  0  0  0  0  0  0  0
   -3.6600    3.2277    2.7302 H   0  0  0  0  0  0  0  0  0  0  0  0
   -2.6851    2.6526    1.3314 H   0  0  0  0  0  0  0  0  0  0  0  0
   -3.0896    1.5190    2.6541 H   0  0  0  0  0  0  0  0  0  0  0  0
  1  2  1  0
  2  3  1  0
  3  4  2  0
  4  5  1  0
  5  6  2  0
  6  7  1  0
  7  8  2  0
  8  9  1  0
  9 10  1  0
 10 11  1  0
 11 12  2  0
 12 13  1  0
 13 14  2  0
 14 15  1  0
 14 16  1  0
 16 17  2  0
 16 18  1  0
 18 19  3  0
 19 20  1  0
 20 21  2  0
 21 22  1  0
 22 23  2  0
 23 24  1  0
 24 25  2  0
  9 26  2  0
 26 27  1  0
 27 28  2  0
 28 29  1  0
 29 30  1  0
 28  3  1  0
 26  5  1  0
 17 11  1  0
 25 20  1  0
  1 31  1  0
  1 32  1  0
  1 33  1  0
  4 34  1  0
  7 35  1  0
 10 36  1  0
 12 37  1  0
 13 38  1  0
 17 39  1  0
 21 40  1  0
 22 41  1  0
 23 42  1  0
 24 43  1  0
 25 44  1  0
 27 45  1  0
 30 46  1  0
 30 47  1  0
 30 48  1  0
M  END
$$$$
[H]c1c([H])c(C([H])([H])c2c([H])c([H])c(C(=O)N([H])c3c([H])c([H])c(C([H])(N4C([H])([H])C([H])([H])N(C([H])([H])C([H])([H])N(C([H])([H])[H])C([H])([H])[H])C([H])([H])C4([H])[H])C([H])([H])C(=O)N4C([H])([H])C([H])([H])C([H])(C(C([H])([H])[H])(C([H])([H])[H])C([H])([H])[H])C([H])([H])C4([H])[H])c([H])c3[H])c([H])c2[H])c([H])c([H])c1F
     RDKit          3D

102106  0  0  0  0  0  0  0  0999 V2000
   -4.4928   -6.7818    1.6190 C   0  0  0  0  0  0  0  0  0  0  0  0
   -4.3214   -7.6493    0.4984 N   0  0  0  0  0  0  0  0  0  0  0  0
   -5.4271   -8.6221    0.5642 C   0  0  0  0  0  0  0  0  0  0  0  0
   -4.3383   -7.0401   -0.7702 C   0  0  0  0  0  0  0  0  0  0  0  0
   -3.1975   -6.1626   -1.1569 C   0  0  0  0  0  0  0  0  0  0  0  0
   -3.0612   -5.0268   -0.3346 N   0  0  0  0  0  0  0  0  0  0  0  0
   -4.0468   -4.0297   -0.4273 C   0  0  0  0  0  0  0  0  0  0  0  0
   -3.6392   -2.7042   -1.0174 C   0  0  0  0  0  0  0  0  0  0  0  0
   -2.3411   -2.2920   -0.5847 N   0  0  0  0  0  0  0  0  0  0  0  0
   -1.4021   -3.3542   -1.0004 C   0  0  0  0  0  0  0  0  0  0  0  0
   -1.7124   -4.5531   -0.1699 C   0  0  0  0  0  0  0  0  0  0  0  0
   -1.8910   -1.0197   -1.1393 C   0  0  0  0  0  0  0  0  0  0  0  0
   -2.8063    0.0765   -0.6615 C   0  0  0  0  0  0  0  0  0  0  0  0
   -2.4618    1.4179   -1.1523 C   0  0  0  0  0  0  0  0  0  0  0  0
   -1.5118    1.6411   -1.9177 O   0  0  0  0  0  0  0  0  0  0  0  0
   -3.2460    2.5690   -0.7479 N   0  0  0  0  0  0  0  0  0  0  0  0
   -4.3561    2.3619    0.1351 C   0  0  0  0  0  0  0  0  0  0  0  0
   -4.9693    3.5357    0.7845 C   0  0  0  0  0  0  0  0  0  0  0  0
   -4.2950    4.8387    0.4981 C   0  0  0  0  0  0  0  0  0  0  0  0
   -4.0142    4.8730   -0.9909 C   0  0  0  0  0  0  0  0  0  0  0  0
   -2.9040    3.8799   -1.2395 C   0  0  0  0  0  0  0  0  0  0  0  0
   -5.1535    6.0091    0.9308 C   0  0  0  0  0  0  0  0  0  0  0  0
   -6.4906    6.0169    0.2096 C   0  0  0  0  0  0  0  0  0  0  0  0
   -4.4844    7.3236    0.5929 C   0  0  0  0  0  0  0  0  0  0  0  0
   -5.3773    5.9865    2.4242 C   0  0  0  0  0  0  0  0  0  0  0  0
   -0.4691   -0.7927   -0.7191 C   0  0  0  0  0  0  0  0  0  0  0  0
   -0.1196   -0.8597    0.6209 C   0  0  0  0  0  0  0  0  0  0  0  0
    1.1702   -0.6667    1.0256 C   0  0  0  0  0  0  0  0  0  0  0  0
    2.1329   -0.3968    0.0364 C   0  0  0  0  0  0  0  0  0  0  0  0
    3.4591   -0.2089    0.4951 N   0  0  0  0  0  0  0  0  0  0  0  0
    4.3961    0.6165   -0.1407 C   0  0  0  0  0  0  0  0  0  0  0  0
    4.1555    1.2796   -1.1807 O   0  0  0  0  0  0  0  0  0  0  0  0
    5.7729    0.7732    0.3812 C   0  0  0  0  0  0  0  0  0  0  0  0
    6.4220   -0.2099    1.0920 C   0  0  0  0  0  0  0  0  0  0  0  0
    7.7196    0.0179    1.5686 C   0  0  0  0  0  0  0  0  0  0  0  0
    8.3850    1.2112    1.3503 C   0  0  0  0  0  0  0  0  0  0  0  0
    9.7701    1.4267    1.8607 C   0  0  0  0  0  0  0  0  0  0  0  0
   10.7923    1.1946    0.8078 C   0  0  0  0  0  0  0  0  0  0  0  0
   11.2352    2.2134    0.0154 C   0  0  0  0  0  0  0  0  0  0  0  0
   12.1775    1.9815   -0.9512 C   0  0  0  0  0  0  0  0  0  0  0  0
   12.6874    0.7028   -1.1284 C   0  0  0  0  0  0  0  0  0  0  0  0
   13.6348    0.4954   -2.1063 F   0  0  0  0  0  0  0  0  0  0  0  0
   12.2480   -0.3294   -0.3364 C   0  0  0  0  0  0  0  0  0  0  0  0
   11.2860   -0.0741    0.6454 C   0  0  0  0  0  0  0  0  0  0  0  0
    7.7189    2.1847    0.6364 C   0  0  0  0  0  0  0  0  0  0  0  0
    6.4423    1.9623    0.1661 C   0  0  0  0  0  0  0  0  0  0  0  0
    1.7937   -0.3312   -1.2906 C   0  0  0  0  0  0  0  0  0  0  0  0
    0.4750   -0.5326   -1.6643 C   0  0  0  0  0  0  0  0  0  0  0  0
   -3.6083   -6.1845    1.8246 H   0  0  0  0  0  0  0  0  0  0  0  0
   -5.3762   -6.1201    1.4082 H   0  0  0  0  0  0  0  0  0  0  0  0
   -4.7672   -7.4066    2.5401 H   0  0  0  0  0  0  0  0  0  0  0  0
   -6.3127   -8.0889    1.0133 H   0  0  0  0  0  0  0  0  0  0  0  0
   -5.2066   -9.4531    1.2468 H   0  0  0  0  0  0  0  0  0  0  0  0
   -5.6666   -8.9677   -0.4473 H   0  0  0  0  0  0  0  0  0  0  0  0
   -4.5026   -7.8407   -1.5551 H   0  0  0  0  0  0  0  0  0  0  0  0
   -5.3044   -6.4408   -0.8265 H   0  0  0  0  0  0  0  0  0  0  0  0
   -3.3373   -5.8399   -2.2343 H   0  0  0  0  0  0  0  0  0  0  0  0
   -2.2167   -6.7315   -1.0869 H   0  0  0  0  0  0  0  0  0  0  0  0
   -4.8876   -4.4109   -1.0786 H   0  0  0  0  0  0  0  0  0  0  0  0
   -4.5112   -3.8356    0.5645 H   0  0  0  0  0  0  0  0  0  0  0  0
   -3.7048   -2.7607   -2.1228 H   0  0  0  0  0  0  0  0  0  0  0  0
   -4.3931   -1.9575   -0.6547 H   0  0  0  0  0  0  0  0  0  0  0  0
   -1.5877   -3.5531   -2.0931 H   0  0  0  0  0  0  0  0  0  0  0  0
   -0.3559   -3.0791   -0.8439 H   0  0  0  0  0  0  0  0  0  0  0  0
   -1.5589   -4.2780    0.8986 H   0  0  0  0  0  0  0  0  0  0  0  0
   -1.0086   -5.3814   -0.3813 H   0  0  0  0  0  0  0  0  0  0  0  0
   -1.9708   -1.0879   -2.2329 H   0  0  0  0  0  0  0  0  0  0  0  0
   -3.8495   -0.1842   -0.9803 H   0  0  0  0  0  0  0  0  0  0  0  0
   -2.8557    0.0527    0.4617 H   0  0  0  0  0  0  0  0  0  0  0  0
   -4.0540    1.5798    0.9077 H   0  0  0  0  0  0  0  0  0  0  0  0
   -5.1176    1.7723   -0.4796 H   0  0  0  0  0  0  0  0  0  0  0  0
   -4.9637    3.3577    1.8966 H   0  0  0  0  0  0  0  0  0  0  0  0
   -6.0442    3.5891    0.4322 H   0  0  0  0  0  0  0  0  0  0  0  0
   -3.3438    4.9216    1.0268 H   0  0  0  0  0  0  0  0  0  0  0  0
   -3.7585    5.8851   -1.3541 H   0  0  0  0  0  0  0  0  0  0  0  0
   -4.9342    4.4919   -1.5103 H   0  0  0  0  0  0  0  0  0  0  0  0
   -2.7006    3.7975   -2.3376 H   0  0  0  0  0  0  0  0  0  0  0  0
   -1.9432    4.2503   -0.8072 H   0  0  0  0  0  0  0  0  0  0  0  0
   -6.9279    7.0477    0.2877 H   0  0  0  0  0  0  0  0  0  0  0  0
   -7.2213    5.3241    0.6580 H   0  0  0  0  0  0  0  0  0  0  0  0
   -6.3449    5.8177   -0.8740 H   0  0  0  0  0  0  0  0  0  0  0  0
   -3.4111    7.2818    0.8712 H   0  0  0  0  0  0  0  0  0  0  0  0
   -4.5863    7.5828   -0.4761 H   0  0  0  0  0  0  0  0  0  0  0  0
   -4.9478    8.0937    1.2552 H   0  0  0  0  0  0  0  0  0  0  0  0
   -6.2514    5.3972    2.7363 H   0  0  0  0  0  0  0  0  0  0  0  0
   -5.5370    7.0118    2.7744 H   0  0  0  0  0  0  0  0  0  0  0  0
   -4.4310    5.6217    2.8801 H   0  0  0  0  0  0  0  0  0  0  0  0
   -0.9144   -1.0699    1.3184 H   0  0  0  0  0  0  0  0  0  0  0  0
    1.4470   -0.7169    2.0550 H   0  0  0  0  0  0  0  0  0  0  0  0
    3.7583   -0.7144    1.3549 H   0  0  0  0  0  0  0  0  0  0  0  0
    5.9037   -1.1294    1.2566 H   0  0  0  0  0  0  0  0  0  0  0  0
    8.2089   -0.7755    2.1267 H   0  0  0  0  0  0  0  0  0  0  0  0
    9.8981    0.7231    2.7198 H   0  0  0  0  0  0  0  0  0  0  0  0
    9.8650    2.4570    2.2276 H   0  0  0  0  0  0  0  0  0  0  0  0
   10.8488    3.2064    0.1415 H   0  0  0  0  0  0  0  0  0  0  0  0
   12.5321    2.8055   -1.5878 H   0  0  0  0  0  0  0  0  0  0  0  0
   12.6401   -1.3487   -0.4631 H   0  0  0  0  0  0  0  0  0  0  0  0
   10.9589   -0.9334    1.2596 H   0  0  0  0  0  0  0  0  0  0  0  0
    8.2527    3.1119    0.4744 H   0  0  0  0  0  0  0  0  0  0  0  0
    5.9439    2.7653   -0.3999 H   0  0  0  0  0  0  0  0  0  0  0  0
    2.5439   -0.1371   -2.0704 H   0  0  0  0  0  0  0  0  0  0  0  0
    0.2693   -0.4702   -2.7364 H   0  0  0  0  0  0  0  0  0  0  0  0
  1  2  1  0
  2  3  1  0
  2  4  1  0
  4  5  1  0
  5  6  1  0
  6  7  1  0
  7  8  1  0
  8  9  1  0
  9 10  1  0
 10 11  1  0
  9 12  1  0
 12 13  1  0
 13 14  1  0
 14 15  2  0
 14 16  1  0
 16 17  1  0
 17 18  1  0
 18 19  1  0
 19 20  1  0
 20 21  1  0
 19 22  1  0
 22 23  1  0
 22 24  1  0
 22 25  1  0
 12 26  1  0
 26 27  2  0
 27 28  1  0
 28 29  2  0
 29 30  1  0
 30 31  1  0
 31 32  2  0
 31 33  1  0
 33 34  2  0
 34 35  1  0
 35 36  2  0
 36 37  1  0
 37 38  1  0
 38 39  2  0
 39 40  1  0
 40 41  2  0
 41 42  1  0
 41 43  1  0
 43 44  2  0
 36 45  1  0
 45 46  2  0
 29 47  1  0
 47 48  2  0
 11  6  1  0
 21 16  1  0
 48 26  1  0
 46 33  1  0
 44 38  1  0
  1 49  1  0
  1 50  1  0
  1 51  1  0
  3 52  1  0
  3 53  1  0
  3 54  1  0
  4 55  1  0
  4 56  1  0
  5 57  1  0
  5 58  1  0
  7 59  1  0
  7 60  1  0
  8 61  1  0
  8 62  1  0
 10 63  1  0
 10 64  1  0
 11 65  1  0
 11 66  1  0
 12 67  1  0
 13 68  1  0
 13 69  1  0
 17 70  1  0
 17 71  1  0
 18 72  1  0
 18 73  1  0
 19 74  1  0
 20 75  1  0
 20 76  1  0
 21 77  1  0
 21 78  1  0
 23 79  1  0
 23 80  1  0
 23 81  1  0
 24 82  1  0
 24 83  1  0
 24 84  1  0
 25 85  1  0
 25 86  1  0
 25 87  1  0
 27 88  1  0
 28 89  1  0
 30 90  1  0
 34 91  1  0
 35 92  1  0
 37 93  1  0
 37 94  1  0
 39 95  1  0
 40 96  1  0
 43 97  1  0
 44 98  1  0
 45 99  1  0
 46100  1  0
 47101  1  0
 48102  1  0
M  END
$$$$
[H]c1c([H])c(OC([H])([H])[H])c([H])c(-n2c(-c3c([H])c([H])c(OC([H])([H])C([H])([H])[H])c([H])c3[H])nc3c(C([H])([H])[H])c([H])c(N4C([H])([H])C([H])([H])C(C([H])([H])[H])(C([H])([H])[H])C([H])([H])C4([H])[H])n32)c1[H]
     RDKit          3D

 68 72  0  0  0  0  0  0  0  0999 V2000
    9.3679   -1.7137    0.4429 C   0  0  0  0  0  0  0  0  0  0  0  0
    7.9688   -1.8875   -0.0917 C   0  0  0  0  0  0  0  0  0  0  0  0
    7.1037   -0.8794    0.3586 O   0  0  0  0  0  0  0  0  0  0  0  0
    5.7519   -0.8456   -0.0073 C   0  0  0  0  0  0  0  0  0  0  0  0
    5.2178   -1.8114   -0.8367 C   0  0  0  0  0  0  0  0  0  0  0  0
    3.9117   -1.7598   -1.1729 C   0  0  0  0  0  0  0  0  0  0  0  0
    3.0131   -0.7571   -0.7262 C   0  0  0  0  0  0  0  0  0  0  0  0
    3.5607    0.1712    0.0775 C   0  0  0  0  0  0  0  0  0  0  0  0
    4.9172    0.1400    0.4434 C   0  0  0  0  0  0  0  0  0  0  0  0
    1.6485   -0.8504   -1.2124 C   0  0  0  0  0  0  0  0  0  0  0  0
    1.2494   -1.6488   -2.2610 N   0  0  0  0  0  0  0  0  0  0  0  0
   -0.0752   -1.5393   -2.4120 C   0  0  0  0  0  0  0  0  0  0  0  0
   -1.1410   -1.9812   -3.1678 C   0  0  0  0  0  0  0  0  0  0  0  0
   -1.0519   -2.9311   -4.3047 C   0  0  0  0  0  0  0  0  0  0  0  0
   -2.2321   -1.3630   -2.6517 C   0  0  0  0  0  0  0  0  0  0  0  0
   -1.8681   -0.5318   -1.5753 C   0  0  0  0  0  0  0  0  0  0  0  0
   -0.5409   -0.6726   -1.4657 N   0  0  0  0  0  0  0  0  0  0  0  0
    0.5444   -0.2794   -0.7577 N   0  0  0  0  0  0  0  0  0  0  0  0
    0.3694    0.6023    0.3511 C   0  0  0  0  0  0  0  0  0  0  0  0
    0.1304    1.9443    0.1506 C   0  0  0  0  0  0  0  0  0  0  0  0
   -0.0640    2.8483    1.1740 C   0  0  0  0  0  0  0  0  0  0  0  0
   -0.0193    2.3984    2.4889 C   0  0  0  0  0  0  0  0  0  0  0  0
    0.2196    1.0586    2.6756 C   0  0  0  0  0  0  0  0  0  0  0  0
    0.2591    0.6391    4.0174 O   0  0  0  0  0  0  0  0  0  0  0  0
    0.0691    1.5099    5.0970 C   0  0  0  0  0  0  0  0  0  0  0  0
    0.4132    0.1566    1.6566 C   0  0  0  0  0  0  0  0  0  0  0  0
   -2.7741    0.2471   -0.8224 N   0  0  0  0  0  0  0  0  0  0  0  0
   -3.1915   -0.1490    0.4841 C   0  0  0  0  0  0  0  0  0  0  0  0
   -4.6756   -0.2249    0.6488 C   0  0  0  0  0  0  0  0  0  0  0  0
   -5.2924    1.0492    0.1275 C   0  0  0  0  0  0  0  0  0  0  0  0
   -6.3189    0.6566   -0.9158 C   0  0  0  0  0  0  0  0  0  0  0  0
   -6.0707    1.6768    1.2690 C   0  0  0  0  0  0  0  0  0  0  0  0
   -4.2906    2.0271   -0.3900 C   0  0  0  0  0  0  0  0  0  0  0  0
   -3.3199    1.4469   -1.3975 C   0  0  0  0  0  0  0  0  0  0  0  0
   10.0250   -1.4717   -0.4174 H   0  0  0  0  0  0  0  0  0  0  0  0
    9.3419   -0.8823    1.1797 H   0  0  0  0  0  0  0  0  0  0  0  0
    9.7041   -2.6305    0.9586 H   0  0  0  0  0  0  0  0  0  0  0  0
    7.9437   -1.8409   -1.2181 H   0  0  0  0  0  0  0  0  0  0  0  0
    7.6328   -2.9077    0.1633 H   0  0  0  0  0  0  0  0  0  0  0  0
    5.8362   -2.6027   -1.2142 H   0  0  0  0  0  0  0  0  0  0  0  0
    3.5229   -2.5326   -1.8230 H   0  0  0  0  0  0  0  0  0  0  0  0
    2.9810    0.9797    0.4390 H   0  0  0  0  0  0  0  0  0  0  0  0
    5.2970    0.9200    1.0985 H   0  0  0  0  0  0  0  0  0  0  0  0
   -0.0402   -3.3438   -4.3807 H   0  0  0  0  0  0  0  0  0  0  0  0
   -1.8111   -3.7582   -4.1835 H   0  0  0  0  0  0  0  0  0  0  0  0
   -1.2699   -2.3842   -5.2716 H   0  0  0  0  0  0  0  0  0  0  0  0
   -3.2486   -1.4519   -2.9708 H   0  0  0  0  0  0  0  0  0  0  0  0
    0.0862    2.3460   -0.8739 H   0  0  0  0  0  0  0  0  0  0  0  0
   -0.2501    3.8927    0.9630 H   0  0  0  0  0  0  0  0  0  0  0  0
   -0.1732    3.0977    3.3197 H   0  0  0  0  0  0  0  0  0  0  0  0
   -0.0240    0.9421    6.0633 H   0  0  0  0  0  0  0  0  0  0  0  0
   -0.8171    2.1518    5.0154 H   0  0  0  0  0  0  0  0  0  0  0  0
    0.9537    2.1929    5.1924 H   0  0  0  0  0  0  0  0  0  0  0  0
    0.5981   -0.8832    1.8315 H   0  0  0  0  0  0  0  0  0  0  0  0
   -2.7507    0.5078    1.2871 H   0  0  0  0  0  0  0  0  0  0  0  0
   -2.7792   -1.1753    0.7266 H   0  0  0  0  0  0  0  0  0  0  0  0
   -4.8931   -0.4028    1.7214 H   0  0  0  0  0  0  0  0  0  0  0  0
   -5.0289   -1.1240    0.1076 H   0  0  0  0  0  0  0  0  0  0  0  0
   -5.8468    0.5703   -1.9165 H   0  0  0  0  0  0  0  0  0  0  0  0
   -7.1954    1.3352   -0.8961 H   0  0  0  0  0  0  0  0  0  0  0  0
   -6.6885   -0.3549   -0.6484 H   0  0  0  0  0  0  0  0  0  0  0  0
   -6.5687    0.8206    1.8065 H   0  0  0  0  0  0  0  0  0  0  0  0
   -5.4110    2.1544    2.0234 H   0  0  0  0  0  0  0  0  0  0  0  0
   -6.8724    2.3441    0.9264 H   0  0  0  0  0  0  0  0  0  0  0  0
   -3.7242    2.4207    0.4740 H   0  0  0  0  0  0  0  0  0  0  0  0
   -4.8240    2.8825   -0.8442 H   0  0  0  0  0  0  0  0  0  0  0  0
   -3.9281    1.2333   -2.3130 H   0  0  0  0  0  0  0  0  0  0  0  0
   -2.5669    2.2087   -1.6202 H   0  0  0  0  0  0  0  0  0  0  0  0
  1  2  1  0
  2  3  1  0
  3  4  1  0
  4  5  2  0
  5  6  1  0
  6  7  2  0
  7  8  1  0
  8  9  2  0
  7 10  1  0
 10 11  2  0
 11 12  1  0
 12 13  2  0
 13 14  1  0
 13 15  1  0
 15 16  2  0
 16 17  1  0
 17 18  1  0
 18 19  1  0
 19 20  2  0
 20 21  1  0
 21 22  2  0
 22 23  1  0
 23 24  1  0
 24 25  1  0
 23 26  2  0
 16 27  1  0
 27 28  1  0
 28 29  1  0
 29 30  1  0
 30 31  1  0
 30 32  1  0
 30 33  1  0
 33 34  1  0
  9  4  1  0
 18 10  1  0
 26 19  1  0
 34 27  1  0
 17 12  1  0
  1 35  1  0
  1 36  1  0
  1 37  1  0
  2 38  1  0
  2 39  1  0
  5 40  1  0
  6 41  1  0
  8 42  1  0
  9 43  1  0
 14 44  1  0
 14 45  1  0
 14 46  1  0
 15 47  1  0
 20 48  1  0
 21 49  1  0
 22 50  1  0
 25 51  1  0
 25 52  1  0
 25 53  1  0
 26 54  1  0
 28 55  1  0
 28 56  1  0
 29 57  1  0
 29 58  1  0
 31 59  1  0
 31 60  1  0
 31 61  1  0
 32 62  1  0
 32 63  1  0
 32 64  1  0
 33 65  1  0
 33 66  1  0
 34 67  1  0
 34 68  1  0
M  END
$$$$
[H]c1c([H])c(F)c([H])c(C([H])([H])N(C2=C(Cl)C(Cl)=C2Cl)c2c([H])c([H])c3sc(C([H])([H])[H])nc3c2[H])c1[H]
     RDKit          3D

 38 41  0  0  0  0  0  0  0  0999 V2000
    6.5447   -0.3251   -0.3102 C   0  0  0  0  0  0  0  0  0  0  0  0
    5.0630   -0.5711   -0.1493 C   0  0  0  0  0  0  0  0  0  0  0  0
    4.0643    0.2654   -0.3313 N   0  0  0  0  0  0  0  0  0  0  0  0
    2.8319   -0.1258   -0.1236 C   0  0  0  0  0  0  0  0  0  0  0  0
    1.6924    0.6883   -0.2684 C   0  0  0  0  0  0  0  0  0  0  0  0
    0.4486    0.1515    0.0046 C   0  0  0  0  0  0  0  0  0  0  0  0
    0.2219   -1.1301    0.4098 C   0  0  0  0  0  0  0  0  0  0  0  0
    1.3595   -1.9343    0.5507 C   0  0  0  0  0  0  0  0  0  0  0  0
    2.6315   -1.4085    0.2802 C   0  0  0  0  0  0  0  0  0  0  0  0
    4.2434   -2.0065    0.3447 S   0  0  0  0  0  0  0  0  0  0  0  0
   -0.6831    1.0287   -0.1316 N   0  0  0  0  0  0  0  0  0  0  0  0
   -1.6505    0.8615   -1.1454 C   0  0  0  0  0  0  0  0  0  0  0  0
   -2.5938   -0.2737   -0.9764 C   0  0  0  0  0  0  0  0  0  0  0  0
   -2.6182   -1.3869   -1.7924 C   0  0  0  0  0  0  0  0  0  0  0  0
   -3.5136   -2.4189   -1.6191 C   0  0  0  0  0  0  0  0  0  0  0  0
   -4.4285   -2.3456   -0.5888 C   0  0  0  0  0  0  0  0  0  0  0  0
   -4.4429   -1.2494    0.2556 C   0  0  0  0  0  0  0  0  0  0  0  0
   -5.3693   -1.2307    1.2547 F   0  0  0  0  0  0  0  0  0  0  0  0
   -3.5419   -0.2417    0.0575 C   0  0  0  0  0  0  0  0  0  0  0  0
   -0.7950    2.1143    0.8154 C   0  0  0  0  0  0  0  0  0  0  0  0
   -1.5508    3.1573    0.9551 C   0  0  0  0  0  0  0  0  0  0  0  0
   -2.8995    3.9151    0.1073 Cl  0  0  0  0  0  0  0  0  0  0  0  0
   -0.8527    3.5497    2.1750 C   0  0  0  0  0  0  0  0  0  0  0  0
   -0.9715    4.8597    3.3299 Cl  0  0  0  0  0  0  0  0  0  0  0  0
   -0.0857    2.4859    2.0253 C   0  0  0  0  0  0  0  0  0  0  0  0
    1.2611    1.8151    2.9502 Cl  0  0  0  0  0  0  0  0  0  0  0  0
    6.6996    0.7542   -0.0743 H   0  0  0  0  0  0  0  0  0  0  0  0
    6.9126   -0.5213   -1.3116 H   0  0  0  0  0  0  0  0  0  0  0  0
    7.0886   -0.8705    0.5039 H   0  0  0  0  0  0  0  0  0  0  0  0
    1.7503    1.7182   -0.5843 H   0  0  0  0  0  0  0  0  0  0  0  0
   -0.7336   -1.5556    0.6328 H   0  0  0  0  0  0  0  0  0  0  0  0
    1.3230   -2.9525    0.8549 H   0  0  0  0  0  0  0  0  0  0  0  0
   -1.0991    0.6506   -2.1013 H   0  0  0  0  0  0  0  0  0  0  0  0
   -2.2519    1.7695   -1.3663 H   0  0  0  0  0  0  0  0  0  0  0  0
   -1.8821   -1.4333   -2.6060 H   0  0  0  0  0  0  0  0  0  0  0  0
   -3.5021   -3.2676   -2.2677 H   0  0  0  0  0  0  0  0  0  0  0  0
   -5.1281   -3.1485   -0.4532 H   0  0  0  0  0  0  0  0  0  0  0  0
   -3.5425    0.6127    0.6933 H   0  0  0  0  0  0  0  0  0  0  0  0
  1  2  1  0
  2  3  2  0
  3  4  1  0
  4  5  2  0
  5  6  1  0
  6  7  2  0
  7  8  1  0
  8  9  2  0
  9 10  1  0
  6 11  1  0
 11 12  1  0
 12 13  1  0
 13 14  2  0
 14 15  1  0
 15 16  2  0
 16 17  1  0
 17 18  1  0
 17 19  2  0
 11 20  1  0
 20 21  2  0
 21 22  1  0
 21 23  1  0
 23 24  1  0
 23 25  2  0
 25 26  1  0
 10  2  1  0
 19 13  1  0
 25 20  1  0
  9  4  1  0
  1 27  1  0
  1 28  1  0
  1 29  1  0
  5 30  1  0
  7 31  1  0
  8 32  1  0
 12 33  1  0
 12 34  1  0
 14 35  1  0
 15 36  1  0
 16 37  1  0
 19 38  1  0
M  END
$$$$
[H]c1nc(OC([H])([H])C([H])([H])N2C([H])([H])C([H])([H])OC([H])([H])C2([H])[H])nc([H])c1-c1nn([H])c2c([H])c(SC([H])([H])[H])c([H])c(C#CC([H])([H])C([H])([H])C([H])([H])N([H])[H])c12
     RDKit          3D

 60 63  0  0  0  0  0  0  0  0999 V2000
   -6.3676   -5.4576    0.1113 C   0  0  0  0  0  0  0  0  0  0  0  0
   -6.4077   -3.6538    0.2100 S   0  0  0  0  0  0  0  0  0  0  0  0
   -4.7574   -2.9995    0.0491 C   0  0  0  0  0  0  0  0  0  0  0  0
   -4.4930   -1.6505    0.0958 C   0  0  0  0  0  0  0  0  0  0  0  0
   -3.1752   -1.1631   -0.0377 C   0  0  0  0  0  0  0  0  0  0  0  0
   -2.9860    0.2617    0.1007 C   0  0  0  0  0  0  0  0  0  0  0  0
   -2.8824    1.4625    0.2469 C   0  0  0  0  0  0  0  0  0  0  0  0
   -2.7562    2.9247    0.3981 C   0  0  0  0  0  0  0  0  0  0  0  0
   -4.1932    3.4483    0.3445 C   0  0  0  0  0  0  0  0  0  0  0  0
   -4.7670    3.0399   -0.9969 C   0  0  0  0  0  0  0  0  0  0  0  0
   -6.1294    3.5313   -1.0543 N   0  0  0  0  0  0  0  0  0  0  0  0
   -2.1476   -2.0174   -0.2169 C   0  0  0  0  0  0  0  0  0  0  0  0
   -0.8094   -1.8861   -0.3647 C   0  0  0  0  0  0  0  0  0  0  0  0
   -0.3289   -3.1719   -0.4856 N   0  0  0  0  0  0  0  0  0  0  0  0
   -1.2972   -4.0458   -0.4227 N   0  0  0  0  0  0  0  0  0  0  0  0
   -2.4440   -3.3843   -0.2585 C   0  0  0  0  0  0  0  0  0  0  0  0
   -3.7172   -3.8962   -0.1311 C   0  0  0  0  0  0  0  0  0  0  0  0
    0.0677   -0.7397   -0.3949 C   0  0  0  0  0  0  0  0  0  0  0  0
    0.0375    0.2803   -1.3017 C   0  0  0  0  0  0  0  0  0  0  0  0
    0.8800    1.3251   -1.2614 N   0  0  0  0  0  0  0  0  0  0  0  0
    1.8443    1.4324   -0.2837 C   0  0  0  0  0  0  0  0  0  0  0  0
    2.6703    2.5314   -0.2923 O   0  0  0  0  0  0  0  0  0  0  0  0
    3.6829    2.8567    0.5317 C   0  0  0  0  0  0  0  0  0  0  0  0
    4.9772    2.1828    0.6009 C   0  0  0  0  0  0  0  0  0  0  0  0
    5.0879    0.7832    0.8207 N   0  0  0  0  0  0  0  0  0  0  0  0
    6.4430    0.5731    1.3938 C   0  0  0  0  0  0  0  0  0  0  0  0
    6.9441   -0.8257    1.1257 C   0  0  0  0  0  0  0  0  0  0  0  0
    7.3161   -0.9416   -0.2289 O   0  0  0  0  0  0  0  0  0  0  0  0
    6.6520    0.0528   -0.9655 C   0  0  0  0  0  0  0  0  0  0  0  0
    5.2293    0.1674   -0.5348 C   0  0  0  0  0  0  0  0  0  0  0  0
    1.8721    0.4303    0.6040 N   0  0  0  0  0  0  0  0  0  0  0  0
    1.0463   -0.6246    0.5912 C   0  0  0  0  0  0  0  0  0  0  0  0
   -5.6786   -5.7485   -0.7251 H   0  0  0  0  0  0  0  0  0  0  0  0
   -7.3787   -5.8869   -0.0603 H   0  0  0  0  0  0  0  0  0  0  0  0
   -5.9298   -5.9165    1.0319 H   0  0  0  0  0  0  0  0  0  0  0  0
   -5.3114   -0.9715    0.2359 H   0  0  0  0  0  0  0  0  0  0  0  0
   -2.1821    3.3897   -0.4200 H   0  0  0  0  0  0  0  0  0  0  0  0
   -2.3144    3.1910    1.3773 H   0  0  0  0  0  0  0  0  0  0  0  0
   -4.7872    3.0951    1.1845 H   0  0  0  0  0  0  0  0  0  0  0  0
   -4.1553    4.5546    0.3754 H   0  0  0  0  0  0  0  0  0  0  0  0
   -4.7462    1.9225   -1.0680 H   0  0  0  0  0  0  0  0  0  0  0  0
   -4.1760    3.4268   -1.8372 H   0  0  0  0  0  0  0  0  0  0  0  0
   -6.1889    4.3735   -0.4421 H   0  0  0  0  0  0  0  0  0  0  0  0
   -6.7793    2.7786   -0.7248 H   0  0  0  0  0  0  0  0  0  0  0  0
   -1.2056   -5.0968   -0.4878 H   0  0  0  0  0  0  0  0  0  0  0  0
   -3.8886   -4.9584   -0.1709 H   0  0  0  0  0  0  0  0  0  0  0  0
   -0.7294    0.1975   -2.0853 H   0  0  0  0  0  0  0  0  0  0  0  0
    3.8891    3.9836    0.3802 H   0  0  0  0  0  0  0  0  0  0  0  0
    3.2499    2.9025    1.6162 H   0  0  0  0  0  0  0  0  0  0  0  0
    5.5754    2.7205    1.4199 H   0  0  0  0  0  0  0  0  0  0  0  0
    5.5747    2.4979   -0.3233 H   0  0  0  0  0  0  0  0  0  0  0  0
    7.1697    1.2933    0.9904 H   0  0  0  0  0  0  0  0  0  0  0  0
    6.3725    0.7173    2.4849 H   0  0  0  0  0  0  0  0  0  0  0  0
    7.8678   -0.9529    1.7208 H   0  0  0  0  0  0  0  0  0  0  0  0
    6.2298   -1.5979    1.4349 H   0  0  0  0  0  0  0  0  0  0  0  0
    6.6387   -0.3254   -2.0191 H   0  0  0  0  0  0  0  0  0  0  0  0
    7.2154    0.9958   -1.0050 H   0  0  0  0  0  0  0  0  0  0  0  0
    4.7613   -0.8195   -0.5493 H   0  0  0  0  0  0  0  0  0  0  0  0
    4.7031    0.8208   -1.2509 H   0  0  0  0  0  0  0  0  0  0  0  0
    1.1130   -1.4128    1.3390 H   0  0  0  0  0  0  0  0  0  0  0  0
  1  2  1  0
  2  3  1  0
  3  4  2  0
  4  5  1  0
  5  6  1  0
  6  7  3  0
  7  8  1  0
  8  9  1  0
  9 10  1  0
 10 11  1  0
  5 12  2  0
 12 13  1  0
 13 14  2  0
 14 15  1  0
 15 16  1  0
 16 17  2  0
 13 18  1  0
 18 19  2  0
 19 20  1  0
 20 21  2  0
 21 22  1  0
 22 23  1  0
 23 24  1  0
 24 25  1  0
 25 26  1  0
 26 27  1  0
 27 28  1  0
 28 29  1  0
 29 30  1  0
 21 31  1  0
 31 32  2  0
 17  3  1  0
 32 18  1  0
 16 12  1  0
 30 25  1  0
  1 33  1  0
  1 34  1  0
  1 35  1  0
  4 36  1  0
  8 37  1  0
  8 38  1  0
  9 39  1  0
  9 40  1  0
 10 41  1  0
 10 42  1  0
 11 43  1  0
 11 44  1  0
 15 45  1  0
 17 46  1  0
 19 47  1  0
 23 48  1  0
 23 49  1  0
 24 50  1  0
 24 51  1  0
 26 52  1  0
 26 53  1  0
 27 54  1  0
 27 55  1  0
 29 56  1  0
 29 57  1  0
 30 58  1  0
 30 59  1  0
 32 60  1  0
M  END
$$$$
[H]c1c([H])c(S(=O)(=O)N([H])[C@]([H])(C(=O)N([H])[C@]([H])(C(F)(F)F)C([H])([H])c2c([H])c([H])c(S(=O)(=O)C([H])([H])[H])c([H])c2[H])C([H])([H])c2c([H])n([H])c3c([H])c([H])c([H])c([H])c23)c([H])c([H])c1OC([H])([H])[H]
     RDKit          3D

 70 73  0  0  0  0  0  0  0  0999 V2000
   -8.2518   -4.5926   -0.5001 C   0  0  0  0  0  0  0  0  0  0  0  0
   -7.7133   -3.6456    0.4205 O   0  0  0  0  0  0  0  0  0  0  0  0
   -6.4259   -3.1736    0.3713 C   0  0  0  0  0  0  0  0  0  0  0  0
   -5.9360   -2.2401    1.2978 C   0  0  0  0  0  0  0  0  0  0  0  0
   -4.6507   -1.7807    1.2502 C   0  0  0  0  0  0  0  0  0  0  0  0
   -3.8055   -2.2221    0.2913 C   0  0  0  0  0  0  0  0  0  0  0  0
   -4.2942   -3.1506   -0.6362 C   0  0  0  0  0  0  0  0  0  0  0  0
   -5.5688   -3.6166   -0.5997 C   0  0  0  0  0  0  0  0  0  0  0  0
   -2.1262   -1.7477    0.2217 S   0  0  0  0  0  0  0  0  0  0  0  0
   -1.2986   -2.7398    0.9360 O   0  0  0  0  0  0  0  0  0  0  0  0
   -1.7789   -1.8744   -1.2875 O   0  0  0  0  0  0  0  0  0  0  0  0
   -1.9188   -0.1317    0.7632 N   0  0  0  0  0  0  0  0  0  0  0  0
   -1.3681    0.6999   -0.2889 C   0  0  1  0  0  0  0  0  0  0  0  0
   -2.3184    1.7439   -0.7020 C   0  0  0  0  0  0  0  0  0  0  0  0
   -2.8254    2.7691    0.1793 C   0  0  0  0  0  0  0  0  0  0  0  0
   -3.7177    2.6914    1.2247 C   0  0  0  0  0  0  0  0  0  0  0  0
   -3.9069    3.9097    1.8232 N   0  0  0  0  0  0  0  0  0  0  0  0
   -3.1386    4.7870    1.1739 C   0  0  0  0  0  0  0  0  0  0  0  0
   -3.0435    6.1730    1.3734 C   0  0  0  0  0  0  0  0  0  0  0  0
   -2.2408    6.8808    0.5171 C   0  0  0  0  0  0  0  0  0  0  0  0
   -1.5465    6.2538   -0.5031 C   0  0  0  0  0  0  0  0  0  0  0  0
   -1.6556    4.8902   -0.6807 C   0  0  0  0  0  0  0  0  0  0  0  0
   -2.4624    4.1257    0.1615 C   0  0  0  0  0  0  0  0  0  0  0  0
    0.0762    1.0489   -0.0414 C   0  0  0  0  0  0  0  0  0  0  0  0
    0.4060    2.0707    0.5322 O   0  0  0  0  0  0  0  0  0  0  0  0
    1.0297    0.0900   -0.5075 N   0  0  0  0  0  0  0  0  0  0  0  0
    2.4430   -0.0292   -0.5558 C   0  0  1  0  0  0  0  0  0  0  0  0
    3.0629   -0.4022    0.7612 C   0  0  0  0  0  0  0  0  0  0  0  0
    4.5314   -0.5263    0.6374 C   0  0  0  0  0  0  0  0  0  0  0  0
    5.3317    0.5244    0.2462 C   0  0  0  0  0  0  0  0  0  0  0  0
    6.6746    0.3502    0.0950 C   0  0  0  0  0  0  0  0  0  0  0  0
    7.3118   -0.8502    0.3148 C   0  0  0  0  0  0  0  0  0  0  0  0
    6.5543   -1.9201    0.7111 C   0  0  0  0  0  0  0  0  0  0  0  0
    5.1740   -1.7358    0.8634 C   0  0  0  0  0  0  0  0  0  0  0  0
    9.0408   -0.9558   -0.0995 S   0  0  0  0  0  0  0  0  0  0  0  0
    9.6467   -2.5868    0.0763 C   0  0  0  0  0  0  0  0  0  0  0  0
    9.0711   -0.6746   -1.6315 O   0  0  0  0  0  0  0  0  0  0  0  0
    9.8727    0.0936    0.5366 O   0  0  0  0  0  0  0  0  0  0  0  0
    2.7272   -1.1619   -1.5535 C   0  0  0  0  0  0  0  0  0  0  0  0
    4.0207   -1.4484   -1.7755 F   0  0  0  0  0  0  0  0  0  0  0  0
    2.1275   -0.8258   -2.7818 F   0  0  0  0  0  0  0  0  0  0  0  0
    2.1153   -2.3612   -1.0623 F   0  0  0  0  0  0  0  0  0  0  0  0
   -9.1566   -5.0627   -0.0338 H   0  0  0  0  0  0  0  0  0  0  0  0
   -7.4770   -5.3849   -0.6369 H   0  0  0  0  0  0  0  0  0  0  0  0
   -8.4946   -4.1575   -1.4804 H   0  0  0  0  0  0  0  0  0  0  0  0
   -6.6041   -1.8729    2.0570 H   0  0  0  0  0  0  0  0  0  0  0  0
   -4.3485   -1.0328    2.0148 H   0  0  0  0  0  0  0  0  0  0  0  0
   -3.5631   -3.4834   -1.3884 H   0  0  0  0  0  0  0  0  0  0  0  0
   -5.8900   -4.3506   -1.3391 H   0  0  0  0  0  0  0  0  0  0  0  0
   -2.7916    0.2115    1.1052 H   0  0  0  0  0  0  0  0  0  0  0  0
   -1.2805    0.0163   -1.1978 H   0  0  0  0  0  0  0  0  0  0  0  0
   -1.8208    2.2800   -1.5934 H   0  0  0  0  0  0  0  0  0  0  0  0
   -3.1567    1.1969   -1.2482 H   0  0  0  0  0  0  0  0  0  0  0  0
   -4.2261    1.7828    1.5220 H   0  0  0  0  0  0  0  0  0  0  0  0
   -4.5352    4.0677    2.6353 H   0  0  0  0  0  0  0  0  0  0  0  0
   -3.5974    6.6321    2.1907 H   0  0  0  0  0  0  0  0  0  0  0  0
   -2.1467    7.9692    0.5993 H   0  0  0  0  0  0  0  0  0  0  0  0
   -0.9213    6.8053   -1.2051 H   0  0  0  0  0  0  0  0  0  0  0  0
   -1.1481    4.3691   -1.4644 H   0  0  0  0  0  0  0  0  0  0  0  0
    0.4814   -0.8129   -0.8660 H   0  0  0  0  0  0  0  0  0  0  0  0
    2.8289    0.9563   -0.8890 H   0  0  0  0  0  0  0  0  0  0  0  0
    2.6314   -1.4127    1.0559 H   0  0  0  0  0  0  0  0  0  0  0  0
    2.7835    0.3051    1.5502 H   0  0  0  0  0  0  0  0  0  0  0  0
    4.8826    1.4648    0.0661 H   0  0  0  0  0  0  0  0  0  0  0  0
    7.2994    1.2067   -0.2176 H   0  0  0  0  0  0  0  0  0  0  0  0
    7.0355   -2.8890    0.9134 H   0  0  0  0  0  0  0  0  0  0  0  0
    4.6501   -2.6270    1.1688 H   0  0  0  0  0  0  0  0  0  0  0  0
    8.8148   -3.2780   -0.0439 H   0  0  0  0  0  0  0  0  0  0  0  0
   10.3426   -2.8245   -0.7939 H   0  0  0  0  0  0  0  0  0  0  0  0
   10.1828   -2.7831    1.0068 H   0  0  0  0  0  0  0  0  0  0  0  0
  1  2  1  0
  2  3  1  0
  3  4  2  0
  4  5  1  0
  5  6  2  0
  6  7  1  0
  7  8  2  0
  6  9  1  0
  9 10  2  0
  9 11  2  0
  9 12  1  0
 12 13  1  0
 13 14  1  0
 14 15  1  0
 15 16  2  0
 16 17  1  0
 17 18  1  0
 18 19  2  0
 19 20  1  0
 20 21  2  0
 21 22  1  0
 22 23  2  0
 13 24  1  0
 24 25  2  0
 24 26  1  0
 26 27  1  0
 27 28  1  0
 28 29  1  0
 29 30  2  0
 30 31  1  0
 31 32  2  0
 32 33  1  0
 33 34  2  0
 32 35  1  0
 35 36  1  0
 35 37  2  0
 35 38  2  0
 27 39  1  0
 39 40  1  0
 39 41  1  0
 39 42  1  0
  8  3  1  0
 23 15  1  0
 34 29  1  0
 23 18  1  0
  1 43  1  0
  1 44  1  0
  1 45  1  0
  4 46  1  0
  5 47  1  0
  7 48  1  0
  8 49  1  0
 12 50  1  0
 13 51  1  6
 14 52  1  0
 14 53  1  0
 16 54  1  0
 17 55  1  0
 19 56  1  0
 20 57  1  0
 21 58  1  0
 22 59  1  0
 26 60  1  0
 27 61  1  6
 28 62  1  0
 28 63  1  0
 30 64  1  0
 31 65  1  0
 33 66  1  0
 34 67  1  0
 36 68  1  0
 36 69  1  0
 36 70  1  0
M  END
$$$$
[H]c1c(C#N)nc(C([H])([H])OC([H])([H])[H])c(N2C([H])([H])N(C(=O)c3c([H])c([H])c(C([H])([H])[H])c(Cl)c3[H])C([H])([H])[C@@]([H])(C([H])([H])[H])C2([H])[H])c1[H]
     RDKit          3D

 51 53  0  0  0  0  0  0  0  0999 V2000
   -2.4679    2.5388    2.3291 C   0  0  0  0  0  0  0  0  0  0  0  0
   -2.1798    1.2252    2.5746 O   0  0  0  0  0  0  0  0  0  0  0  0
   -1.9118    0.4133    1.5026 C   0  0  0  0  0  0  0  0  0  0  0  0
   -3.0613    0.1842    0.6071 C   0  0  0  0  0  0  0  0  0  0  0  0
   -4.2870    0.7128    0.9266 N   0  0  0  0  0  0  0  0  0  0  0  0
   -5.3781    0.5394    0.1739 C   0  0  0  0  0  0  0  0  0  0  0  0
   -5.2617   -0.2037   -0.9727 C   0  0  0  0  0  0  0  0  0  0  0  0
   -4.0547   -0.7501   -1.3283 C   0  0  0  0  0  0  0  0  0  0  0  0
   -2.9140   -0.5615   -0.5287 C   0  0  0  0  0  0  0  0  0  0  0  0
   -1.6781   -1.1534   -0.9035 N   0  0  0  0  0  0  0  0  0  0  0  0
   -1.2985   -2.4093   -0.3254 C   0  0  0  0  0  0  0  0  0  0  0  0
    0.1374   -2.7381   -0.2127 C   0  0  2  0  0  0  0  0  0  0  0  0
    0.6340   -2.6366    1.1912 C   0  0  0  0  0  0  0  0  0  0  0  0
    0.9787   -1.9925   -1.2301 C   0  0  0  0  0  0  0  0  0  0  0  0
    0.6103   -0.6337   -1.3472 N   0  0  0  0  0  0  0  0  0  0  0  0
   -0.8117   -0.5144   -1.8746 C   0  0  0  0  0  0  0  0  0  0  0  0
    1.2860    0.5182   -1.0605 C   0  0  0  0  0  0  0  0  0  0  0  0
    0.6360    1.6384   -1.3371 O   0  0  0  0  0  0  0  0  0  0  0  0
    2.5876    0.7505   -0.5090 C   0  0  0  0  0  0  0  0  0  0  0  0
    3.0872    2.0741   -0.4882 C   0  0  0  0  0  0  0  0  0  0  0  0
    4.2971    2.3958    0.0432 C   0  0  0  0  0  0  0  0  0  0  0  0
    5.1097    1.4432    0.5948 C   0  0  0  0  0  0  0  0  0  0  0  0
    6.4203    1.8200    1.1649 C   0  0  0  0  0  0  0  0  0  0  0  0
    4.6561    0.1506    0.5916 C   0  0  0  0  0  0  0  0  0  0  0  0
    5.6979   -1.0820    1.3009 Cl  0  0  0  0  0  0  0  0  0  0  0  0
    3.4300   -0.1707    0.0530 C   0  0  0  0  0  0  0  0  0  0  0  0
   -6.6575    1.1260    0.5633 C   0  0  0  0  0  0  0  0  0  0  0  0
   -7.6682    1.5864    0.8788 N   0  0  0  0  0  0  0  0  0  0  0  0
   -1.6076    3.0455    1.7829 H   0  0  0  0  0  0  0  0  0  0  0  0
   -3.4061    2.7672    1.8222 H   0  0  0  0  0  0  0  0  0  0  0  0
   -2.5483    3.1187    3.3144 H   0  0  0  0  0  0  0  0  0  0  0  0
   -1.1290    0.9491    0.8973 H   0  0  0  0  0  0  0  0  0  0  0  0
   -1.4993   -0.5411    1.9086 H   0  0  0  0  0  0  0  0  0  0  0  0
   -6.1255   -0.3567   -1.5944 H   0  0  0  0  0  0  0  0  0  0  0  0
   -3.8959   -1.3477   -2.2221 H   0  0  0  0  0  0  0  0  0  0  0  0
   -1.7366   -2.5058    0.7155 H   0  0  0  0  0  0  0  0  0  0  0  0
   -1.8537   -3.2389   -0.8911 H   0  0  0  0  0  0  0  0  0  0  0  0
    0.2440   -3.8288   -0.4909 H   0  0  0  0  0  0  0  0  0  0  0  0
   -0.2262   -2.8426    1.8765 H   0  0  0  0  0  0  0  0  0  0  0  0
    1.0169   -1.6447    1.4680 H   0  0  0  0  0  0  0  0  0  0  0  0
    1.4062   -3.4177    1.4342 H   0  0  0  0  0  0  0  0  0  0  0  0
    1.9944   -2.3071   -1.1720 H   0  0  0  0  0  0  0  0  0  0  0  0
    0.6105   -2.4878   -2.2348 H   0  0  0  0  0  0  0  0  0  0  0  0
   -0.8470   -1.0635   -2.8355 H   0  0  0  0  0  0  0  0  0  0  0  0
   -1.0101    0.5343   -2.0562 H   0  0  0  0  0  0  0  0  0  0  0  0
    2.5085    2.8812   -0.9048 H   0  0  0  0  0  0  0  0  0  0  0  0
    4.6447    3.4317    0.0385 H   0  0  0  0  0  0  0  0  0  0  0  0
    6.3764    1.8941    2.2720 H   0  0  0  0  0  0  0  0  0  0  0  0
    7.2282    1.0916    0.9070 H   0  0  0  0  0  0  0  0  0  0  0  0
    6.7764    2.7975    0.7598 H   0  0  0  0  0  0  0  0  0  0  0  0
    3.1412   -1.1992    0.1120 H   0  0  0  0  0  0  0  0  0  0  0  0
  1  2  1  0
  2  3  1  0
  3  4  1  0
  4  5  2  0
  5  6  1  0
  6  7  2  0
  7  8  1  0
  8  9  2  0
  9 10  1  0
 10 11  1  0
 11 12  1  0
 12 13  1  0
 12 14  1  0
 14 15  1  0
 15 16  1  0
 15 17  1  0
 17 18  2  0
 17 19  1  0
 19 20  2  0
 20 21  1  0
 21 22  2  0
 22 23  1  0
 22 24  1  0
 24 25  1  0
 24 26  2  0
  6 27  1  0
 27 28  3  0
  9  4  1  0
 16 10  1  0
 26 19  1  0
  1 29  1  0
  1 30  1  0
  1 31  1  0
  3 32  1  0
  3 33  1  0
  7 34  1  0
  8 35  1  0
 11 36  1  0
 11 37  1  0
 12 38  1  6
 13 39  1  0
 13 40  1  0
 13 41  1  0
 14 42  1  0
 14 43  1  0
 16 44  1  0
 16 45  1  0
 20 46  1  0
 21 47  1  0
 23 48  1  0
 23 49  1  0
 23 50  1  0
 26 51  1  0
M  END
$$$$
[H]c1c(N([H])c2nc(OC([H])([H])[H])c(C(F)(F)F)c(OC([H])([H])C([H])([H])C([H])([H])C([H])([H])N3C([H])([H])C([H])([H])N(C([H])(C([H])([H])[H])C([H])([H])[H])C([H])([H])C3([H])[H])n2)c([H])c2c([H])nn(C([H])([H])C(=O)N([H])C([H])([H])C(F)(F)F)c2c1[H]
     RDKit          3D

 81 84  0  0  0  0  0  0  0  0999 V2000
    8.8091   -0.5576    0.8621 C   0  0  0  0  0  0  0  0  0  0  0  0
    9.0144    0.4036   -0.2758 C   0  0  0  0  0  0  0  0  0  0  0  0
    9.8370    1.5817    0.1674 C   0  0  0  0  0  0  0  0  0  0  0  0
    7.8650    0.8179   -0.9522 N   0  0  0  0  0  0  0  0  0  0  0  0
    6.8542    1.5291   -0.2747 C   0  0  0  0  0  0  0  0  0  0  0  0
    5.6311    0.6610    0.0430 C   0  0  0  0  0  0  0  0  0  0  0  0
    5.7997   -0.6699   -0.4494 N   0  0  0  0  0  0  0  0  0  0  0  0
    4.6861   -1.5254   -0.1981 C   0  0  0  0  0  0  0  0  0  0  0  0
    4.5159   -1.8479    1.2704 C   0  0  0  0  0  0  0  0  0  0  0  0
    3.3551   -2.7476    1.5168 C   0  0  0  0  0  0  0  0  0  0  0  0
    2.0227   -2.2165    1.0991 C   0  0  0  0  0  0  0  0  0  0  0  0
    1.6686   -1.0287    1.7524 O   0  0  0  0  0  0  0  0  0  0  0  0
    0.4638   -0.3907    1.5129 C   0  0  0  0  0  0  0  0  0  0  0  0
   -0.4522   -0.8454    0.6534 N   0  0  0  0  0  0  0  0  0  0  0  0
   -1.6322   -0.1760    0.4541 C   0  0  0  0  0  0  0  0  0  0  0  0
   -2.5756   -0.6728   -0.4627 N   0  0  0  0  0  0  0  0  0  0  0  0
   -3.8257   -0.1376   -0.7796 C   0  0  0  0  0  0  0  0  0  0  0  0
   -4.4704   -0.6413   -1.9218 C   0  0  0  0  0  0  0  0  0  0  0  0
   -5.7113   -0.2269   -2.3412 C   0  0  0  0  0  0  0  0  0  0  0  0
   -6.3829    0.7479   -1.6028 C   0  0  0  0  0  0  0  0  0  0  0  0
   -7.5835    1.3359   -1.7609 N   0  0  0  0  0  0  0  0  0  0  0  0
   -8.5248    1.0616   -2.8260 C   0  0  0  0  0  0  0  0  0  0  0  0
   -9.4716   -0.0337   -2.4693 C   0  0  0  0  0  0  0  0  0  0  0  0
  -10.3167   -0.3295   -3.3320 O   0  0  0  0  0  0  0  0  0  0  0  0
   -9.3895   -0.6657   -1.2416 N   0  0  0  0  0  0  0  0  0  0  0  0
  -10.1771   -1.7176   -0.6892 C   0  0  0  0  0  0  0  0  0  0  0  0
  -11.6242   -1.4626   -0.4904 C   0  0  0  0  0  0  0  0  0  0  0  0
  -11.7902   -0.3836    0.3597 F   0  0  0  0  0  0  0  0  0  0  0  0
  -12.3008   -1.3873   -1.6558 F   0  0  0  0  0  0  0  0  0  0  0  0
  -12.1045   -2.5653    0.2619 F   0  0  0  0  0  0  0  0  0  0  0  0
   -7.7649    2.2031   -0.7817 N   0  0  0  0  0  0  0  0  0  0  0  0
   -6.6870    2.1835    0.0161 C   0  0  0  0  0  0  0  0  0  0  0  0
   -5.7872    1.2681   -0.4774 C   0  0  0  0  0  0  0  0  0  0  0  0
   -4.5269    0.8122   -0.0969 C   0  0  0  0  0  0  0  0  0  0  0  0
   -1.7730    0.9323    1.1736 N   0  0  0  0  0  0  0  0  0  0  0  0
   -0.9221    1.4538    2.0427 C   0  0  0  0  0  0  0  0  0  0  0  0
   -1.2065    2.6253    2.7234 O   0  0  0  0  0  0  0  0  0  0  0  0
   -2.4347    3.2824    2.4864 C   0  0  0  0  0  0  0  0  0  0  0  0
    0.2630    0.7815    2.2435 C   0  0  0  0  0  0  0  0  0  0  0  0
    1.2427    1.3096    3.1931 C   0  0  0  0  0  0  0  0  0  0  0  0
    2.4336    1.5789    2.5293 F   0  0  0  0  0  0  0  0  0  0  0  0
    0.8153    2.5226    3.6948 F   0  0  0  0  0  0  0  0  0  0  0  0
    1.4552    0.4864    4.2833 F   0  0  0  0  0  0  0  0  0  0  0  0
    6.1960   -0.7358   -1.8162 C   0  0  0  0  0  0  0  0  0  0  0  0
    7.4454    0.0844   -2.0938 C   0  0  0  0  0  0  0  0  0  0  0  0
    8.1337   -0.1825    1.6445 H   0  0  0  0  0  0  0  0  0  0  0  0
    8.5456   -1.5859    0.5269 H   0  0  0  0  0  0  0  0  0  0  0  0
    9.8134   -0.6831    1.3527 H   0  0  0  0  0  0  0  0  0  0  0  0
    9.6641   -0.1590   -1.0144 H   0  0  0  0  0  0  0  0  0  0  0  0
   10.4024    1.9427   -0.7430 H   0  0  0  0  0  0  0  0  0  0  0  0
    9.2174    2.3931    0.5505 H   0  0  0  0  0  0  0  0  0  0  0  0
   10.6048    1.2406    0.9007 H   0  0  0  0  0  0  0  0  0  0  0  0
    6.4844    2.3425   -0.9332 H   0  0  0  0  0  0  0  0  0  0  0  0
    7.2283    2.0247    0.6385 H   0  0  0  0  0  0  0  0  0  0  0  0
    4.7108    1.0705   -0.4701 H   0  0  0  0  0  0  0  0  0  0  0  0
    5.4422    0.7248    1.1122 H   0  0  0  0  0  0  0  0  0  0  0  0
    4.8754   -2.4904   -0.7113 H   0  0  0  0  0  0  0  0  0  0  0  0
    3.7316   -1.0875   -0.5357 H   0  0  0  0  0  0  0  0  0  0  0  0
    4.3236   -0.8962    1.8436 H   0  0  0  0  0  0  0  0  0  0  0  0
    5.4109   -2.3183    1.7252 H   0  0  0  0  0  0  0  0  0  0  0  0
    3.3581   -3.0361    2.5895 H   0  0  0  0  0  0  0  0  0  0  0  0
    3.5399   -3.7016    0.9660 H   0  0  0  0  0  0  0  0  0  0  0  0
    1.2741   -3.0285    1.3127 H   0  0  0  0  0  0  0  0  0  0  0  0
    2.0041   -2.0909   -0.0136 H   0  0  0  0  0  0  0  0  0  0  0  0
   -2.2946   -1.5730   -0.9706 H   0  0  0  0  0  0  0  0  0  0  0  0
   -3.9844   -1.3996   -2.5266 H   0  0  0  0  0  0  0  0  0  0  0  0
   -6.1954   -0.6230   -3.2214 H   0  0  0  0  0  0  0  0  0  0  0  0
   -7.9812    0.7943   -3.7470 H   0  0  0  0  0  0  0  0  0  0  0  0
   -9.1596    1.9523   -3.0775 H   0  0  0  0  0  0  0  0  0  0  0  0
   -8.6088   -0.3178   -0.5803 H   0  0  0  0  0  0  0  0  0  0  0  0
  -10.0081   -2.6112   -1.3557 H   0  0  0  0  0  0  0  0  0  0  0  0
   -9.7769   -2.0777    0.3046 H   0  0  0  0  0  0  0  0  0  0  0  0
   -6.5733    2.7956    0.8928 H   0  0  0  0  0  0  0  0  0  0  0  0
   -4.1251    1.2502    0.7907 H   0  0  0  0  0  0  0  0  0  0  0  0
   -2.2940    4.3448    2.8148 H   0  0  0  0  0  0  0  0  0  0  0  0
   -3.2683    2.8648    3.0893 H   0  0  0  0  0  0  0  0  0  0  0  0
   -2.7584    3.2335    1.4294 H   0  0  0  0  0  0  0  0  0  0  0  0
    6.4317   -1.7833   -2.0937 H   0  0  0  0  0  0  0  0  0  0  0  0
    5.3782   -0.4218   -2.5155 H   0  0  0  0  0  0  0  0  0  0  0  0
    7.2279    0.8119   -2.9111 H   0  0  0  0  0  0  0  0  0  0  0  0
    8.2868   -0.5580   -2.4142 H   0  0  0  0  0  0  0  0  0  0  0  0
  1  2  1  0
  2  3  1  0
  2  4  1  0
  4  5  1  0
  5  6  1  0
  6  7  1  0
  7  8  1  0
  8  9  1  0
  9 10  1  0
 10 11  1  0
 11 12  1  0
 12 13  1  0
 13 14  2  0
 14 15  1  0
 15 16  1  0
 16 17  1  0
 17 18  2  0
 18 19  1  0
 19 20  2  0
 20 21  1  0
 21 22  1  0
 22 23  1  0
 23 24  2  0
 23 25  1  0
 25 26  1  0
 26 27  1  0
 27 28  1  0
 27 29  1  0
 27 30  1  0
 21 31  1  0
 31 32  2  0
 32 33  1  0
 33 34  2  0
 15 35  2  0
 35 36  1  0
 36 37  1  0
 37 38  1  0
 36 39  2  0
 39 40  1  0
 40 41  1  0
 40 42  1  0
 40 43  1  0
  7 44  1  0
 44 45  1  0
 45  4  1  0
 39 13  1  0
 34 17  1  0
 33 20  1  0
  1 46  1  0
  1 47  1  0
  1 48  1  0
  2 49  1  0
  3 50  1  0
  3 51  1  0
  3 52  1  0
  5 53  1  0
  5 54  1  0
  6 55  1  0
  6 56  1  0
  8 57  1  0
  8 58  1  0
  9 59  1  0
  9 60  1  0
 10 61  1  0
 10 62  1  0
 11 63  1  0
 11 64  1  0
 16 65  1  0
 18 66  1  0
 19 67  1  0
 22 68  1  0
 22 69  1  0
 25 70  1  0
 26 71  1  0
 26 72  1  0
 32 73  1  0
 34 74  1  0
 38 75  1  0
 38 76  1  0
 38 77  1  0
 44 78  1  0
 44 79  1  0
 45 80  1  0
 45 81  1  0
M  END
$$$$
[H]OC(Oc1c([H])c([H])c([H])c([H])c1[H])(c1c([H])c([H])c(-c2c([H])c([H])c3c(nc(-c4sc([H])c([H])c4[H])n3[H])c2[H])c([H])c1[H])C([H])([H])[H]
     RDKit          3D

 50 54  0  0  0  0  0  0  0  0999 V2000
   -4.5676   -0.8516    1.9160 C   0  0  0  0  0  0  0  0  0  0  0  0
   -4.1807   -1.2140    0.4900 C   0  0  0  0  0  0  0  0  0  0  0  0
   -4.7394   -2.5597    0.3021 O   0  0  0  0  0  0  0  0  0  0  0  0
   -2.7776   -1.4134    0.2651 C   0  0  0  0  0  0  0  0  0  0  0  0
   -1.8485   -1.0598    1.2196 C   0  0  0  0  0  0  0  0  0  0  0  0
   -0.5194   -1.2745    1.0564 C   0  0  0  0  0  0  0  0  0  0  0  0
   -0.0237   -1.8700   -0.1064 C   0  0  0  0  0  0  0  0  0  0  0  0
   -0.9156   -2.2309   -1.0649 C   0  0  0  0  0  0  0  0  0  0  0  0
   -2.2709   -2.0102   -0.8887 C   0  0  0  0  0  0  0  0  0  0  0  0
    1.4240   -1.8417   -0.3569 C   0  0  0  0  0  0  0  0  0  0  0  0
    1.9781   -2.0711   -1.6126 C   0  0  0  0  0  0  0  0  0  0  0  0
    3.2919   -1.7305   -1.9006 C   0  0  0  0  0  0  0  0  0  0  0  0
    4.0712   -1.1507   -0.9247 C   0  0  0  0  0  0  0  0  0  0  0  0
    5.3205   -0.5954   -0.9213 N   0  0  0  0  0  0  0  0  0  0  0  0
    5.5951   -0.0389    0.2531 C   0  0  0  0  0  0  0  0  0  0  0  0
    4.4974   -0.2499    1.0268 N   0  0  0  0  0  0  0  0  0  0  0  0
    3.5715   -0.9153    0.3231 C   0  0  0  0  0  0  0  0  0  0  0  0
    2.2430   -1.2716    0.5951 C   0  0  0  0  0  0  0  0  0  0  0  0
    6.7155    0.7976    0.6785 C   0  0  0  0  0  0  0  0  0  0  0  0
    7.7626    1.2437   -0.0601 C   0  0  0  0  0  0  0  0  0  0  0  0
    8.6332    2.0997    0.5299 C   0  0  0  0  0  0  0  0  0  0  0  0
    8.3968    2.4542    1.8137 C   0  0  0  0  0  0  0  0  0  0  0  0
    6.9603    1.5820    2.1955 S   0  0  0  0  0  0  0  0  0  0  0  0
   -4.9219   -0.4207   -0.3579 O   0  0  0  0  0  0  0  0  0  0  0  0
   -5.0748    0.9458   -0.3270 C   0  0  0  0  0  0  0  0  0  0  0  0
   -6.1681    1.4639    0.4124 C   0  0  0  0  0  0  0  0  0  0  0  0
   -6.4048    2.8038    0.4932 C   0  0  0  0  0  0  0  0  0  0  0  0
   -5.5248    3.6430   -0.1776 C   0  0  0  0  0  0  0  0  0  0  0  0
   -4.4510    3.1567   -0.9010 C   0  0  0  0  0  0  0  0  0  0  0  0
   -4.2370    1.7925   -0.9661 C   0  0  0  0  0  0  0  0  0  0  0  0
   -4.0068   -1.4408    2.6402 H   0  0  0  0  0  0  0  0  0  0  0  0
   -5.6484   -1.0557    2.0273 H   0  0  0  0  0  0  0  0  0  0  0  0
   -4.3606    0.2391    1.9987 H   0  0  0  0  0  0  0  0  0  0  0  0
   -4.6454   -2.7650   -0.6660 H   0  0  0  0  0  0  0  0  0  0  0  0
   -2.1834   -0.5980    2.1530 H   0  0  0  0  0  0  0  0  0  0  0  0
    0.1340   -0.9685    1.8875 H   0  0  0  0  0  0  0  0  0  0  0  0
   -0.5973   -2.7029   -2.0228 H   0  0  0  0  0  0  0  0  0  0  0  0
   -2.9547   -2.3105   -1.6784 H   0  0  0  0  0  0  0  0  0  0  0  0
    1.3896   -2.5215   -2.3787 H   0  0  0  0  0  0  0  0  0  0  0  0
    3.7133   -1.9175   -2.8696 H   0  0  0  0  0  0  0  0  0  0  0  0
    5.9851   -0.6140   -1.7418 H   0  0  0  0  0  0  0  0  0  0  0  0
    1.9390   -1.0683    1.6035 H   0  0  0  0  0  0  0  0  0  0  0  0
    7.9128    0.9272   -1.1259 H   0  0  0  0  0  0  0  0  0  0  0  0
    9.5085    2.5417   -0.0121 H   0  0  0  0  0  0  0  0  0  0  0  0
    8.9778    3.1404    2.4633 H   0  0  0  0  0  0  0  0  0  0  0  0
   -6.8284    0.7335    0.9027 H   0  0  0  0  0  0  0  0  0  0  0  0
   -7.2568    3.1716    1.0612 H   0  0  0  0  0  0  0  0  0  0  0  0
   -5.7575    4.6963   -0.0904 H   0  0  0  0  0  0  0  0  0  0  0  0
   -3.7908    3.8344   -1.3996 H   0  0  0  0  0  0  0  0  0  0  0  0
   -3.3653    1.4657   -1.5488 H   0  0  0  0  0  0  0  0  0  0  0  0
  1  2  1  0
  2  3  1  0
  2  4  1  0
  4  5  2  0
  5  6  1  0
  6  7  2  0
  7  8  1  0
  8  9  2  0
  7 10  1  0
 10 11  2  0
 11 12  1  0
 12 13  2  0
 13 14  1  0
 14 15  1  0
 15 16  2  0
 16 17  1  0
 17 18  2  0
 15 19  1  0
 19 20  2  0
 20 21  1  0
 21 22  2  0
 22 23  1  0
  2 24  1  0
 24 25  1  0
 25 26  2  0
 26 27  1  0
 27 28  2  0
 28 29  1  0
 29 30  2  0
  9  4  1  0
 18 10  1  0
 23 19  1  0
 30 25  1  0
 17 13  1  0
  1 31  1  0
  1 32  1  0
  1 33  1  0
  3 34  1  0
  5 35  1  0
  6 36  1  0
  8 37  1  0
  9 38  1  0
 11 39  1  0
 12 40  1  0
 14 41  1  0
 18 42  1  0
 20 43  1  0
 21 44  1  0
 22 45  1  0
 26 46  1  0
 27 47  1  0
 28 48  1  0
 29 49  1  0
 30 50  1  0
M  END
$$$$
[H]c1c([H])c([H])c(C([H])([H])[H])c(Oc2c([H])c(-c3c([H])c([H])c(C(=O)N4C([H])([H])C([H])([H])C([H])([H])C4([H])[H])c([H])c3[H])c([H])c(C([H])([H])N([H])C(=O)c3c([H])c([H])c(C(=O)C([H])([H])[H])c([H])c3Cl)c2[H])c1[H]
     RDKit          3D

 72 76  0  0  0  0  0  0  0  0999 V2000
   -1.4756    5.0044    2.2168 C   0  0  0  0  0  0  0  0  0  0  0  0
   -0.9572    5.6743    1.0138 C   0  0  0  0  0  0  0  0  0  0  0  0
   -1.7067    6.7328    0.4795 C   0  0  0  0  0  0  0  0  0  0  0  0
   -1.2824    7.4157   -0.6270 C   0  0  0  0  0  0  0  0  0  0  0  0
   -0.0907    7.0436   -1.2180 C   0  0  0  0  0  0  0  0  0  0  0  0
    0.6339    6.0107   -0.6915 C   0  0  0  0  0  0  0  0  0  0  0  0
    0.2273    5.2932    0.4374 C   0  0  0  0  0  0  0  0  0  0  0  0
    0.9884    4.2797    0.9141 O   0  0  0  0  0  0  0  0  0  0  0  0
    0.6987    2.9484    1.0286 C   0  0  0  0  0  0  0  0  0  0  0  0
    1.6365    2.1625    1.7084 C   0  0  0  0  0  0  0  0  0  0  0  0
    1.4728    0.8083    1.8958 C   0  0  0  0  0  0  0  0  0  0  0  0
    2.4891    0.0037    2.6178 C   0  0  0  0  0  0  0  0  0  0  0  0
    3.2861   -0.8337    1.7698 N   0  0  0  0  0  0  0  0  0  0  0  0
    4.3256   -0.2901    0.9805 C   0  0  0  0  0  0  0  0  0  0  0  0
    4.5942    0.9600    0.9911 O   0  0  0  0  0  0  0  0  0  0  0  0
    5.1629   -1.0874    0.1057 C   0  0  0  0  0  0  0  0  0  0  0  0
    4.7831   -1.2884   -1.1952 C   0  0  0  0  0  0  0  0  0  0  0  0
    5.5560   -2.0506   -2.0762 C   0  0  0  0  0  0  0  0  0  0  0  0
    6.7251   -2.6003   -1.5919 C   0  0  0  0  0  0  0  0  0  0  0  0
    7.1364   -2.4158   -0.2839 C   0  0  0  0  0  0  0  0  0  0  0  0
    6.3282   -1.6444    0.5604 C   0  0  0  0  0  0  0  0  0  0  0  0
    6.8761   -1.4310    2.2063 Cl  0  0  0  0  0  0  0  0  0  0  0  0
    7.5387   -3.4014   -2.5136 C   0  0  0  0  0  0  0  0  0  0  0  0
    8.8196   -4.0163   -2.0203 C   0  0  0  0  0  0  0  0  0  0  0  0
    7.1953   -3.5871   -3.7005 O   0  0  0  0  0  0  0  0  0  0  0  0
    0.3225    0.2056    1.3837 C   0  0  0  0  0  0  0  0  0  0  0  0
   -0.6306    0.9344    0.7069 C   0  0  0  0  0  0  0  0  0  0  0  0
   -0.3949    2.2957    0.5574 C   0  0  0  0  0  0  0  0  0  0  0  0
   -1.8404    0.3055    0.1668 C   0  0  0  0  0  0  0  0  0  0  0  0
   -2.3591   -0.7640    0.8394 C   0  0  0  0  0  0  0  0  0  0  0  0
   -3.5104   -1.4395    0.4129 C   0  0  0  0  0  0  0  0  0  0  0  0
   -4.1523   -1.0277   -0.7174 C   0  0  0  0  0  0  0  0  0  0  0  0
   -3.5976    0.0788   -1.3937 C   0  0  0  0  0  0  0  0  0  0  0  0
   -2.4668    0.7306   -0.9610 C   0  0  0  0  0  0  0  0  0  0  0  0
   -5.3109   -1.6785   -1.2373 C   0  0  0  0  0  0  0  0  0  0  0  0
   -5.8566   -1.0574   -2.2473 O   0  0  0  0  0  0  0  0  0  0  0  0
   -5.9732   -2.8562   -0.8710 N   0  0  0  0  0  0  0  0  0  0  0  0
   -7.1966   -3.2902   -1.5645 C   0  0  0  0  0  0  0  0  0  0  0  0
   -7.0061   -4.7876   -1.6269 C   0  0  0  0  0  0  0  0  0  0  0  0
   -6.5726   -5.0314   -0.1697 C   0  0  0  0  0  0  0  0  0  0  0  0
   -5.6680   -3.8281    0.1156 C   0  0  0  0  0  0  0  0  0  0  0  0
   -2.3344    4.3288    2.0060 H   0  0  0  0  0  0  0  0  0  0  0  0
   -0.6688    4.4925    2.8001 H   0  0  0  0  0  0  0  0  0  0  0  0
   -1.8853    5.7787    2.9265 H   0  0  0  0  0  0  0  0  0  0  0  0
   -2.6515    7.0297    0.9457 H   0  0  0  0  0  0  0  0  0  0  0  0
   -1.8870    8.2169   -1.0006 H   0  0  0  0  0  0  0  0  0  0  0  0
    0.2042    7.6124   -2.0895 H   0  0  0  0  0  0  0  0  0  0  0  0
    1.5587    5.7342   -1.1640 H   0  0  0  0  0  0  0  0  0  0  0  0
    2.5335    2.6385    2.1097 H   0  0  0  0  0  0  0  0  0  0  0  0
    3.1147    0.7186    3.2107 H   0  0  0  0  0  0  0  0  0  0  0  0
    1.9448   -0.5971    3.4025 H   0  0  0  0  0  0  0  0  0  0  0  0
    3.1103   -1.8568    1.7229 H   0  0  0  0  0  0  0  0  0  0  0  0
    3.8641   -0.8719   -1.6230 H   0  0  0  0  0  0  0  0  0  0  0  0
    5.2388   -2.1926   -3.0840 H   0  0  0  0  0  0  0  0  0  0  0  0
    8.0551   -2.8542    0.0763 H   0  0  0  0  0  0  0  0  0  0  0  0
    9.3810   -3.2416   -1.4255 H   0  0  0  0  0  0  0  0  0  0  0  0
    8.5305   -4.8566   -1.3725 H   0  0  0  0  0  0  0  0  0  0  0  0
    9.4557   -4.3234   -2.8571 H   0  0  0  0  0  0  0  0  0  0  0  0
    0.1872   -0.8696    1.5299 H   0  0  0  0  0  0  0  0  0  0  0  0
   -1.1445    2.8663    0.0130 H   0  0  0  0  0  0  0  0  0  0  0  0
   -1.8642   -1.1168    1.7494 H   0  0  0  0  0  0  0  0  0  0  0  0
   -3.8600   -2.2714    1.0283 H   0  0  0  0  0  0  0  0  0  0  0  0
   -4.0909    0.4302   -2.3024 H   0  0  0  0  0  0  0  0  0  0  0  0
   -2.0689    1.5801   -1.5096 H   0  0  0  0  0  0  0  0  0  0  0  0
   -7.3184   -2.8222   -2.5408 H   0  0  0  0  0  0  0  0  0  0  0  0
   -8.0384   -3.0925   -0.8673 H   0  0  0  0  0  0  0  0  0  0  0  0
   -7.9333   -5.3287   -1.8632 H   0  0  0  0  0  0  0  0  0  0  0  0
   -6.1740   -4.9913   -2.3293 H   0  0  0  0  0  0  0  0  0  0  0  0
   -7.5018   -4.9782    0.4304 H   0  0  0  0  0  0  0  0  0  0  0  0
   -6.0226   -5.9692   -0.1097 H   0  0  0  0  0  0  0  0  0  0  0  0
   -4.5989   -4.1785    0.0673 H   0  0  0  0  0  0  0  0  0  0  0  0
   -5.8835   -3.4950    1.1567 H   0  0  0  0  0  0  0  0  0  0  0  0
  1  2  1  0
  2  3  2  0
  3  4  1  0
  4  5  2  0
  5  6  1  0
  6  7  2  0
  7  8  1  0
  8  9  1  0
  9 10  2  0
 10 11  1  0
 11 12  1  0
 12 13  1  0
 13 14  1  0
 14 15  2  0
 14 16  1  0
 16 17  2  0
 17 18  1  0
 18 19  2  0
 19 20  1  0
 20 21  2  0
 21 22  1  0
 19 23  1  0
 23 24  1  0
 23 25  2  0
 11 26  2  0
 26 27  1  0
 27 28  2  0
 27 29  1  0
 29 30  2  0
 30 31  1  0
 31 32  2  0
 32 33  1  0
 33 34  2  0
 32 35  1  0
 35 36  2  0
 35 37  1  0
 37 38  1  0
 38 39  1  0
 39 40  1  0
 40 41  1  0
  7  2  1  0
 28  9  1  0
 34 29  1  0
 41 37  1  0
 21 16  1  0
  1 42  1  0
  1 43  1  0
  1 44  1  0
  3 45  1  0
  4 46  1  0
  5 47  1  0
  6 48  1  0
 10 49  1  0
 12 50  1  0
 12 51  1  0
 13 52  1  0
 17 53  1  0
 18 54  1  0
 20 55  1  0
 24 56  1  0
 24 57  1  0
 24 58  1  0
 26 59  1  0
 28 60  1  0
 30 61  1  0
 31 62  1  0
 33 63  1  0
 34 64  1  0
 38 65  1  0
 38 66  1  0
 39 67  1  0
 39 68  1  0
 40 69  1  0
 40 70  1  0
 41 71  1  0
 41 72  1  0
M  END
$$$$
[H]c1nc(N([H])c2c([H])c([H])c(C(=O)SC([H])([H])[H])c([H])c2[H])nc(C(=O)C([H])([H])C([H])([H])C([H])([H])C([H])([H])C([H])([H])C([H])([H])C([H])([H])N2C([H])([H])[C@@]3([H])C([H])([H])C([H])([H])O[C@@]2([H])C([H])([H])C3([H])[H])c1Cl
     RDKit          2D

 71 74  0  0  0  0  0  0  0  0999 V2000
    1.7286    0.0000    0.0000 C   0  0  0  0  0  0  0  0  0  0  0  0
    1.0777    1.3515    0.0000 C   0  0  0  0  0  0  0  0  0  0  0  0
   -0.3846    1.6852    0.0000 O   0  0  0  0  0  0  0  0  0  0  0  0
   -1.5574    0.7500    0.0000 C   0  0  0  0  0  0  0  0  0  0  0  0
   -1.5574   -0.7500    0.0000 C   0  0  0  0  0  0  0  0  0  0  0  0
   -0.3846   -1.6852    0.0000 C   0  0  0  0  0  0  0  0  0  0  0  0
    1.0777   -1.3515    0.0000 C   0  0  0  0  0  0  0  0  0  0  0  0
    0.4471   -0.1552    0.0000 C   0  0  0  0  0  0  0  0  0  0  0  0
   -0.2508    0.4013    0.0000 N   0  0  0  0  0  0  0  0  0  0  0  0
    0.2388    2.5462    0.0000 C   0  0  0  0  0  0  0  0  0  0  0  0
    0.5726    4.0086    0.0000 C   0  0  0  0  0  0  0  0  0  0  0  0
    0.9063    5.4710    0.0000 C   0  0  0  0  0  0  0  0  0  0  0  0
    1.2401    6.9333    0.0000 C   0  0  0  0  0  0  0  0  0  0  0  0
    1.5739    8.3957    0.0000 C   0  0  0  0  0  0  0  0  0  0  0  0
    1.9077    9.8581    0.0000 C   0  0  0  0  0  0  0  0  0  0  0  0
    2.2415   11.3205    0.0000 C   0  0  0  0  0  0  0  0  0  0  0  0
    2.5753   12.7829    0.0000 C   0  0  0  0  0  0  0  0  0  0  0  0
    4.0086   13.2250    0.0000 O   0  0  0  0  0  0  0  0  0  0  0  0
    1.4757   13.8032    0.0000 C   0  0  0  0  0  0  0  0  0  0  0  0
    1.8095   15.2656    0.0000 N   0  0  0  0  0  0  0  0  0  0  0  0
    0.7099   16.2858    0.0000 C   0  0  0  0  0  0  0  0  0  0  0  0
    1.0437   17.7482    0.0000 N   0  0  0  0  0  0  0  0  0  0  0  0
    2.4770   18.1904    0.0000 C   0  0  0  0  0  0  0  0  0  0  0  0
    3.5766   17.1701    0.0000 C   0  0  0  0  0  0  0  0  0  0  0  0
    5.0100   17.6122    0.0000 C   0  0  0  0  0  0  0  0  0  0  0  0
    5.3437   19.0746    0.0000 C   0  0  0  0  0  0  0  0  0  0  0  0
    4.2442   20.0949    0.0000 C   0  0  0  0  0  0  0  0  0  0  0  0
    2.8108   19.6527    0.0000 C   0  0  0  0  0  0  0  0  0  0  0  0
    6.7771   19.5167    0.0000 C   0  0  0  0  0  0  0  0  0  0  0  0
    7.1109   20.9791    0.0000 O   0  0  0  0  0  0  0  0  0  0  0  0
    7.8767   18.4965    0.0000 S   0  0  0  0  0  0  0  0  0  0  0  0
    9.3100   18.9386    0.0000 C   0  0  0  0  0  0  0  0  0  0  0  0
   -0.7235   15.8437    0.0000 N   0  0  0  0  0  0  0  0  0  0  0  0
   -1.0573   14.3813    0.0000 C   0  0  0  0  0  0  0  0  0  0  0  0
    0.0423   13.3610    0.0000 C   0  0  0  0  0  0  0  0  0  0  0  0
   -0.2915   11.8987    0.0000 Cl  0  0  0  0  0  0  0  0  0  0  0  0
    2.8788    0.7068    0.0000 H   0  0  0  0  0  0  0  0  0  0  0  0
    2.7786   -1.0712    0.0000 H   0  0  0  0  0  0  0  0  0  0  0  0
    1.2606    2.8403    0.0000 H   0  0  0  0  0  0  0  0  0  0  0  0
    2.4159    2.0292    0.0000 H   0  0  0  0  0  0  0  0  0  0  0  0
   -2.9088    1.4008    0.0000 H   0  0  0  0  0  0  0  0  0  0  0  0
   -2.3681   -2.0120    0.0000 H   0  0  0  0  0  0  0  0  0  0  0  0
   -3.0198   -0.4162    0.0000 H   0  0  0  0  0  0  0  0  0  0  0  0
    0.2662   -3.0367    0.0000 H   0  0  0  0  0  0  0  0  0  0  0  0
   -1.4346   -2.7564    0.0000 H   0  0  0  0  0  0  0  0  0  0  0  0
    2.0130   -2.5242    0.0000 H   0  0  0  0  0  0  0  0  0  0  0  0
    1.2695   -0.0968    0.0000 H   0  0  0  0  0  0  0  0  0  0  0  0
    1.7286    1.5000    0.0000 H   0  0  0  0  0  0  0  0  0  0  0  0
    1.7385    2.5762    0.0000 H   0  0  0  0  0  0  0  0  0  0  0  0
   -1.2236    2.8800    0.0000 H   0  0  0  0  0  0  0  0  0  0  0  0
   -0.8898    4.3423    0.0000 H   0  0  0  0  0  0  0  0  0  0  0  0
    2.0350    3.6748    0.0000 H   0  0  0  0  0  0  0  0  0  0  0  0
    2.3687    5.1372    0.0000 H   0  0  0  0  0  0  0  0  0  0  0  0
   -0.5560    5.8047    0.0000 H   0  0  0  0  0  0  0  0  0  0  0  0
   -0.2223    7.2671    0.0000 H   0  0  0  0  0  0  0  0  0  0  0  0
    2.7025    6.5996    0.0000 H   0  0  0  0  0  0  0  0  0  0  0  0
    3.0363    8.0620    0.0000 H   0  0  0  0  0  0  0  0  0  0  0  0
    0.1115    8.7295    0.0000 H   0  0  0  0  0  0  0  0  0  0  0  0
    0.4453   10.1919    0.0000 H   0  0  0  0  0  0  0  0  0  0  0  0
    3.3701    9.5244    0.0000 H   0  0  0  0  0  0  0  0  0  0  0  0
    0.7791   11.6543    0.0000 H   0  0  0  0  0  0  0  0  0  0  0  0
    3.7039   10.9867    0.0000 H   0  0  0  0  0  0  0  0  0  0  0  0
   -0.0559   18.7685    0.0000 H   0  0  0  0  0  0  0  0  0  0  0  0
    3.2428   15.7077    0.0000 H   0  0  0  0  0  0  0  0  0  0  0  0
    6.1095   16.5920    0.0000 H   0  0  0  0  0  0  0  0  0  0  0  0
    4.5779   21.5573    0.0000 H   0  0  0  0  0  0  0  0  0  0  0  0
    1.7112   20.6730    0.0000 H   0  0  0  0  0  0  0  0  0  0  0  0
   10.7434   19.3808    0.0000 H   0  0  0  0  0  0  0  0  0  0  0  0
    9.7522   17.5053    0.0000 H   0  0  0  0  0  0  0  0  0  0  0  0
    8.8679   20.3720    0.0000 H   0  0  0  0  0  0  0  0  0  0  0  0
   -2.4906   13.9392    0.0000 H   0  0  0  0  0  0  0  0  0  0  0  0
  1  2  1  0
  2  3  1  0
  3  4  1  0
  4  5  1  0
  5  6  1  0
  6  7  1  0
  7  8  1  0
  8  9  1  0
  9 10  1  0
 10 11  1  0
 11 12  1  0
 12 13  1  0
 13 14  1  0
 14 15  1  0
 15 16  1  0
 16 17  1  0
 17 18  2  0
 17 19  1  0
 19 20  2  0
 20 21  1  0
 21 22  1  0
 22 23  1  0
 23 24  2  0
 24 25  1  0
 25 26  2  0
 26 27  1  0
 27 28  2  0
 26 29  1  0
 29 30  2  0
 29 31  1  0
 31 32  1  0
 21 33  2  0
 33 34  1  0
 34 35  2  0
 35 36  1  0
  7  1  1  0
 35 19  1  0
  9  4  1  0
 28 23  1  0
  1 37  1  0
  1 38  1  0
  2 39  1  0
  2 40  1  0
  4 41  1  1
  5 42  1  0
  5 43  1  0
  6 44  1  0
  6 45  1  0
  7 46  1  6
  8 47  1  0
  8 48  1  0
 10 49  1  0
 10 50  1  0
 11 51  1  0
 11 52  1  0
 12 53  1  0
 12 54  1  0
 13 55  1  0
 13 56  1  0
 14 57  1  0
 14 58  1  0
 15 59  1  0
 15 60  1  0
 16 61  1  0
 16 62  1  0
 22 63  1  0
 24 64  1  0
 25 65  1  0
 27 66  1  0
 28 67  1  0
 32 68  1  0
 32 69  1  0
 32 70  1  0
 34 71  1  0
M  END
$$$$
[H]c1sc2c([H])c(OC([H])([H])c3c([H])c([H])c([H])c([H])c3[H])c([H])c([H])c2c1C(=O)N([H])[C@]1([H])C([H])([H])N(C(=O)C([H])([H])[H])C([H])([H])C([H])([H])[C@]1([H])C([H])([H])[H]
     RDKit          3D

 56 59  0  0  0  0  0  0  0  0999 V2000
   -5.0727   -2.5542   -0.3082 C   0  0  0  0  0  0  0  0  0  0  0  0
   -5.7593   -1.5047    0.4766 C   0  0  0  0  0  0  0  0  0  0  0  0
   -7.0259   -1.5218    0.4711 O   0  0  0  0  0  0  0  0  0  0  0  0
   -5.0302   -0.5280    1.1993 N   0  0  0  0  0  0  0  0  0  0  0  0
   -5.6559    0.5076    1.9736 C   0  0  0  0  0  0  0  0  0  0  0  0
   -5.0054    1.8397    1.6735 C   0  0  0  0  0  0  0  0  0  0  0  0
   -4.1265    1.7799    0.4428 C   0  0  2  0  0  0  0  0  0  0  0  0
   -4.8965    1.5883   -0.8208 C   0  0  0  0  0  0  0  0  0  0  0  0
   -3.0557    0.7405    0.6837 C   0  0  2  0  0  0  0  0  0  0  0  0
   -2.2397    0.5125   -0.4753 N   0  0  0  0  0  0  0  0  0  0  0  0
   -0.8701    0.7975   -0.4482 C   0  0  0  0  0  0  0  0  0  0  0  0
   -0.3591    1.2566    0.6034 O   0  0  0  0  0  0  0  0  0  0  0  0
   -0.0183    0.5569   -1.6647 C   0  0  0  0  0  0  0  0  0  0  0  0
   -0.5232    0.8705   -2.8964 C   0  0  0  0  0  0  0  0  0  0  0  0
    0.7355    0.4538   -3.9542 S   0  0  0  0  0  0  0  0  0  0  0  0
    1.8807   -0.1116   -2.8116 C   0  0  0  0  0  0  0  0  0  0  0  0
    3.1764   -0.6278   -2.9207 C   0  0  0  0  0  0  0  0  0  0  0  0
    3.8930   -1.0182   -1.8019 C   0  0  0  0  0  0  0  0  0  0  0  0
    5.1716   -1.5261   -1.9451 O   0  0  0  0  0  0  0  0  0  0  0  0
    6.0254   -1.9451   -0.9379 C   0  0  0  0  0  0  0  0  0  0  0  0
    6.3462   -0.8038   -0.0503 C   0  0  0  0  0  0  0  0  0  0  0  0
    6.2456    0.5252   -0.4637 C   0  0  0  0  0  0  0  0  0  0  0  0
    6.5468    1.5658    0.3694 C   0  0  0  0  0  0  0  0  0  0  0  0
    6.9598    1.2997    1.6479 C   0  0  0  0  0  0  0  0  0  0  0  0
    7.0664   -0.0155    2.0782 C   0  0  0  0  0  0  0  0  0  0  0  0
    6.7610   -1.0719    1.2340 C   0  0  0  0  0  0  0  0  0  0  0  0
    3.2320   -0.8567   -0.6083 C   0  0  0  0  0  0  0  0  0  0  0  0
    1.9591   -0.3517   -0.4743 C   0  0  0  0  0  0  0  0  0  0  0  0
    1.2316    0.0460   -1.6188 C   0  0  0  0  0  0  0  0  0  0  0  0
   -3.5859   -0.5769    1.1566 C   0  0  0  0  0  0  0  0  0  0  0  0
   -4.3384   -3.1143    0.3393 H   0  0  0  0  0  0  0  0  0  0  0  0
   -5.7613   -3.2754   -0.7585 H   0  0  0  0  0  0  0  0  0  0  0  0
   -4.5147   -2.0585   -1.1462 H   0  0  0  0  0  0  0  0  0  0  0  0
   -6.7400    0.6194    1.7792 H   0  0  0  0  0  0  0  0  0  0  0  0
   -5.5522    0.2413    3.0486 H   0  0  0  0  0  0  0  0  0  0  0  0
   -4.3393    2.1391    2.5168 H   0  0  0  0  0  0  0  0  0  0  0  0
   -5.7596    2.6310    1.4835 H   0  0  0  0  0  0  0  0  0  0  0  0
   -3.6045    2.7671    0.3877 H   0  0  0  0  0  0  0  0  0  0  0  0
   -4.6146    0.7267   -1.4238 H   0  0  0  0  0  0  0  0  0  0  0  0
   -5.9760    1.4674   -0.5373 H   0  0  0  0  0  0  0  0  0  0  0  0
   -4.8870    2.5230   -1.4476 H   0  0  0  0  0  0  0  0  0  0  0  0
   -2.4389    1.1520    1.5388 H   0  0  0  0  0  0  0  0  0  0  0  0
   -2.6665    0.1355   -1.3343 H   0  0  0  0  0  0  0  0  0  0  0  0
   -1.5123    1.2915   -3.1217 H   0  0  0  0  0  0  0  0  0  0  0  0
    3.5827   -0.7059   -3.8965 H   0  0  0  0  0  0  0  0  0  0  0  0
    6.9423   -2.3752   -1.4071 H   0  0  0  0  0  0  0  0  0  0  0  0
    5.5282   -2.7732   -0.3768 H   0  0  0  0  0  0  0  0  0  0  0  0
    5.9150    0.7032   -1.4857 H   0  0  0  0  0  0  0  0  0  0  0  0
    6.4625    2.5768    0.0312 H   0  0  0  0  0  0  0  0  0  0  0  0
    7.2168    2.0556    2.3693 H   0  0  0  0  0  0  0  0  0  0  0  0
    7.3851   -0.2538    3.0676 H   0  0  0  0  0  0  0  0  0  0  0  0
    6.8393   -2.1027    1.5554 H   0  0  0  0  0  0  0  0  0  0  0  0
    3.7566   -1.1656    0.3122 H   0  0  0  0  0  0  0  0  0  0  0  0
    1.5479   -0.2750    0.5264 H   0  0  0  0  0  0  0  0  0  0  0  0
   -3.2240   -1.4162    0.5244 H   0  0  0  0  0  0  0  0  0  0  0  0
   -3.2540   -0.8401    2.1927 H   0  0  0  0  0  0  0  0  0  0  0  0
  1  2  1  0
  2  3  2  0
  2  4  1  0
  4  5  1  0
  5  6  1  0
  6  7  1  0
  7  8  1  0
  7  9  1  0
  9 10  1  0
 10 11  1  0
 11 12  2  0
 11 13  1  0
 13 14  2  0
 14 15  1  0
 15 16  1  0
 16 17  2  0
 17 18  1  0
 18 19  1  0
 19 20  1  0
 20 21  1  0
 21 22  2  0
 22 23  1  0
 23 24  2  0
 24 25  1  0
 25 26  2  0
 18 27  2  0
 27 28  1  0
 28 29  2  0
  9 30  1  0
 30  4  1  0
 29 13  1  0
 29 16  1  0
 26 21  1  0
  1 31  1  0
  1 32  1  0
  1 33  1  0
  5 34  1  0
  5 35  1  0
  6 36  1  0
  6 37  1  0
  7 38  1  6
  8 39  1  0
  8 40  1  0
  8 41  1  0
  9 42  1  1
 10 43  1  0
 14 44  1  0
 17 45  1  0
 20 46  1  0
 20 47  1  0
 22 48  1  0
 23 49  1  0
 24 50  1  0
 25 51  1  0
 26 52  1  0
 27 53  1  0
 28 54  1  0
 30 55  1  0
 30 56  1  0
M  END
$$$$
[H]c1c(Cl)nc(N([H])[H])c(C(=O)N([H])C([H])([H])C([H])([H])C([H])([H])C([H])([H])C(=O)N([H])C([H])([H])C([H])([H])N([H])C(=O)C([H])([H])C2([H])C([H])([H])C([H])([H])C([H])([H])C([H])([H])C2([H])[H])c1Cl
     RDKit          3D

 62 63  0  0  0  0  0  0  0  0999 V2000
   -8.6021    1.2391   -2.6498 N   0  0  0  0  0  0  0  0  0  0  0  0
   -9.2699    0.3813   -1.7038 C   0  0  0  0  0  0  0  0  0  0  0  0
  -10.5203   -0.0214   -1.9083 N   0  0  0  0  0  0  0  0  0  0  0  0
  -11.1905   -0.8153   -1.0638 C   0  0  0  0  0  0  0  0  0  0  0  0
  -12.8548   -1.3109   -1.4036 Cl  0  0  0  0  0  0  0  0  0  0  0  0
  -10.5652   -1.2429    0.0768 C   0  0  0  0  0  0  0  0  0  0  0  0
   -9.2538   -0.8504    0.3405 C   0  0  0  0  0  0  0  0  0  0  0  0
   -8.5791   -1.4736    1.8359 Cl  0  0  0  0  0  0  0  0  0  0  0  0
   -8.5929   -0.0433   -0.5324 C   0  0  0  0  0  0  0  0  0  0  0  0
   -7.2521    0.4118   -0.3571 C   0  0  0  0  0  0  0  0  0  0  0  0
   -6.7719    1.1708   -1.2867 O   0  0  0  0  0  0  0  0  0  0  0  0
   -6.3585    0.1636    0.6781 N   0  0  0  0  0  0  0  0  0  0  0  0
   -4.9860    0.7613    0.6350 C   0  0  0  0  0  0  0  0  0  0  0  0
   -4.2833    0.3106    1.8837 C   0  0  0  0  0  0  0  0  0  0  0  0
   -2.8854    0.8283    1.9882 C   0  0  0  0  0  0  0  0  0  0  0  0
   -2.0841    0.3364    0.8113 C   0  0  0  0  0  0  0  0  0  0  0  0
   -0.6602    0.8360    0.8829 C   0  0  0  0  0  0  0  0  0  0  0  0
   -0.3601    1.5622    1.8645 O   0  0  0  0  0  0  0  0  0  0  0  0
    0.2147    0.4517   -0.1484 N   0  0  0  0  0  0  0  0  0  0  0  0
    1.6145    0.8295   -0.2424 C   0  0  0  0  0  0  0  0  0  0  0  0
    2.3270    0.2723    0.9730 C   0  0  0  0  0  0  0  0  0  0  0  0
    3.7197    0.5636    1.0278 N   0  0  0  0  0  0  0  0  0  0  0  0
    4.6600    0.1389    0.0484 C   0  0  0  0  0  0  0  0  0  0  0  0
    4.2313   -0.5383   -0.9226 O   0  0  0  0  0  0  0  0  0  0  0  0
    6.0884    0.4621    0.1371 C   0  0  0  0  0  0  0  0  0  0  0  0
    6.9611   -0.1756   -0.8968 C   0  0  0  0  0  0  0  0  0  0  0  0
    6.9567   -1.6583   -0.8448 C   0  0  0  0  0  0  0  0  0  0  0  0
    8.0988   -2.2433   -0.0182 C   0  0  0  0  0  0  0  0  0  0  0  0
    9.3827   -1.7441   -0.6409 C   0  0  0  0  0  0  0  0  0  0  0  0
    9.4168   -0.2478   -0.2971 C   0  0  0  0  0  0  0  0  0  0  0  0
    8.3129    0.4734   -1.0003 C   0  0  0  0  0  0  0  0  0  0  0  0
   -8.7439    2.2484   -2.5349 H   0  0  0  0  0  0  0  0  0  0  0  0
   -8.0108    0.8380   -3.4040 H   0  0  0  0  0  0  0  0  0  0  0  0
  -11.0671   -1.8782    0.7780 H   0  0  0  0  0  0  0  0  0  0  0  0
   -6.5791   -0.4161    1.4915 H   0  0  0  0  0  0  0  0  0  0  0  0
   -4.4786    0.3729   -0.2763 H   0  0  0  0  0  0  0  0  0  0  0  0
   -5.1042    1.8629    0.5825 H   0  0  0  0  0  0  0  0  0  0  0  0
   -4.2292   -0.8148    1.8215 H   0  0  0  0  0  0  0  0  0  0  0  0
   -4.9094    0.5909    2.7626 H   0  0  0  0  0  0  0  0  0  0  0  0
   -2.4596    0.4944    2.9551 H   0  0  0  0  0  0  0  0  0  0  0  0
   -2.8857    1.9531    1.9623 H   0  0  0  0  0  0  0  0  0  0  0  0
   -2.4916    0.7899   -0.1138 H   0  0  0  0  0  0  0  0  0  0  0  0
   -2.0846   -0.7482    0.7138 H   0  0  0  0  0  0  0  0  0  0  0  0
   -0.1615   -0.1622   -0.9258 H   0  0  0  0  0  0  0  0  0  0  0  0
    2.0297    0.4059   -1.1796 H   0  0  0  0  0  0  0  0  0  0  0  0
    1.6796    1.9468   -0.2640 H   0  0  0  0  0  0  0  0  0  0  0  0
    2.2237   -0.8532    0.8630 H   0  0  0  0  0  0  0  0  0  0  0  0
    1.8347    0.6098    1.8986 H   0  0  0  0  0  0  0  0  0  0  0  0
    4.0923    1.1259    1.8335 H   0  0  0  0  0  0  0  0  0  0  0  0
    6.2920    1.5531    0.1345 H   0  0  0  0  0  0  0  0  0  0  0  0
    6.4510    0.1097    1.1474 H   0  0  0  0  0  0  0  0  0  0  0  0
    6.4552    0.0829   -1.8922 H   0  0  0  0  0  0  0  0  0  0  0  0
    7.1075   -2.0969   -1.8747 H   0  0  0  0  0  0  0  0  0  0  0  0
    6.0043   -2.0180   -0.4096 H   0  0  0  0  0  0  0  0  0  0  0  0
    8.0541   -1.9118    1.0393 H   0  0  0  0  0  0  0  0  0  0  0  0
    8.0147   -3.3471   -0.0770 H   0  0  0  0  0  0  0  0  0  0  0  0
   10.2862   -2.2054   -0.1961 H   0  0  0  0  0  0  0  0  0  0  0  0
    9.3209   -1.8465   -1.7341 H   0  0  0  0  0  0  0  0  0  0  0  0
   10.3794    0.1390   -0.6334 H   0  0  0  0  0  0  0  0  0  0  0  0
    9.2701   -0.1835    0.8028 H   0  0  0  0  0  0  0  0  0  0  0  0
    8.5774    0.7213   -2.0473 H   0  0  0  0  0  0  0  0  0  0  0  0
    8.2183    1.4771   -0.4901 H   0  0  0  0  0  0  0  0  0  0  0  0
  1  2  1  0
  2  3  2  0
  3  4  1  0
  4  5  1  0
  4  6  2  0
  6  7  1  0
  7  8  1  0
  7  9  2  0
  9 10  1  0
 10 11  2  0
 10 12  1  0
 12 13  1  0
 13 14  1  0
 14 15  1  0
 15 16  1  0
 16 17  1  0
 17 18  2  0
 17 19  1  0
 19 20  1  0
 20 21  1  0
 21 22  1  0
 22 23  1  0
 23 24  2  0
 23 25  1  0
 25 26  1  0
 26 27  1  0
 27 28  1  0
 28 29  1  0
 29 30  1  0
 30 31  1  0
  9  2  1  0
 31 26  1  0
  1 32  1  0
  1 33  1  0
  6 34  1  0
 12 35  1  0
 13 36  1  0
 13 37  1  0
 14 38  1  0
 14 39  1  0
 15 40  1  0
 15 41  1  0
 16 42  1  0
 16 43  1  0
 19 44  1  0
 20 45  1  0
 20 46  1  0
 21 47  1  0
 21 48  1  0
 22 49  1  0
 25 50  1  0
 25 51  1  0
 26 52  1  0
 27 53  1  0
 27 54  1  0
 28 55  1  0
 28 56  1  0
 29 57  1  0
 29 58  1  0
 30 59  1  0
 30 60  1  0
 31 61  1  0
 31 62  1  0
M  END
$$$$
[H]OC([H])([H])c1c([H])c([H])c(N([H])[C@@]([H])(c2nnn(C([H])([H])c3c([H])c([H])c(F)c(Cl)c3[H])c2C([H])([H])[H])C([H])([H])C([H])(C([H])([H])[H])C([H])([H])[H])c([H])c1Cl
     RDKit          3D

 55 57  0  0  0  0  0  0  0  0999 V2000
    2.7553   -4.0582   -1.0166 C   0  0  0  0  0  0  0  0  0  0  0  0
    1.8046   -3.7703    0.0558 C   0  0  0  0  0  0  0  0  0  0  0  0
    1.0066   -5.0914    0.3403 C   0  0  0  0  0  0  0  0  0  0  0  0
    0.8629   -2.7262    0.0682 C   0  0  0  0  0  0  0  0  0  0  0  0
    1.0004   -1.2062    0.1995 C   0  0  1  0  0  0  0  0  0  0  0  0
    1.8904   -0.6669   -0.7334 N   0  0  0  0  0  0  0  0  0  0  0  0
    2.6876    0.4850   -0.6336 C   0  0  0  0  0  0  0  0  0  0  0  0
    3.8544    0.5997   -1.4780 C   0  0  0  0  0  0  0  0  0  0  0  0
    4.7450    1.6315   -1.3855 C   0  0  0  0  0  0  0  0  0  0  0  0
    4.5871    2.6208   -0.4860 C   0  0  0  0  0  0  0  0  0  0  0  0
    5.4615    3.8407   -0.4375 C   0  0  0  0  0  0  0  0  0  0  0  0
    6.8288    3.4784   -0.2282 O   0  0  0  0  0  0  0  0  0  0  0  0
    3.4648    2.5447    0.3391 C   0  0  0  0  0  0  0  0  0  0  0  0
    3.3115    3.8206    1.5506 Cl  0  0  0  0  0  0  0  0  0  0  0  0
    2.5753    1.5084    0.2407 C   0  0  0  0  0  0  0  0  0  0  0  0
   -0.4965   -0.8943   -0.1352 C   0  0  0  0  0  0  0  0  0  0  0  0
   -1.1127   -1.4632   -1.2313 N   0  0  0  0  0  0  0  0  0  0  0  0
   -2.3604   -1.1216   -1.2837 N   0  0  0  0  0  0  0  0  0  0  0  0
   -2.6407   -0.3046   -0.2372 N   0  0  0  0  0  0  0  0  0  0  0  0
   -3.9396    0.0123    0.1626 C   0  0  0  0  0  0  0  0  0  0  0  0
   -4.8172    1.0939   -0.0213 C   0  0  0  0  0  0  0  0  0  0  0  0
   -5.8233    1.0211   -0.9806 C   0  0  0  0  0  0  0  0  0  0  0  0
   -6.8921    1.9193   -1.0058 C   0  0  0  0  0  0  0  0  0  0  0  0
   -6.9580    2.9129   -0.0659 C   0  0  0  0  0  0  0  0  0  0  0  0
   -8.0314    3.7872   -0.0349 F   0  0  0  0  0  0  0  0  0  0  0  0
   -5.9350    3.0182    0.9086 C   0  0  0  0  0  0  0  0  0  0  0  0
   -6.0845    4.3148    2.0491 Cl  0  0  0  0  0  0  0  0  0  0  0  0
   -4.8916    2.1097    0.9231 C   0  0  0  0  0  0  0  0  0  0  0  0
   -1.4562   -0.1620    0.4529 C   0  0  0  0  0  0  0  0  0  0  0  0
   -1.3420    0.6945    1.6676 C   0  0  0  0  0  0  0  0  0  0  0  0
    2.5170   -3.5876   -2.0035 H   0  0  0  0  0  0  0  0  0  0  0  0
    2.7565   -5.1731   -1.2932 H   0  0  0  0  0  0  0  0  0  0  0  0
    3.8108   -3.9018   -0.7003 H   0  0  0  0  0  0  0  0  0  0  0  0
    2.4311   -3.6903    1.0604 H   0  0  0  0  0  0  0  0  0  0  0  0
    1.7342   -5.9346    0.4863 H   0  0  0  0  0  0  0  0  0  0  0  0
    0.3587   -5.3042   -0.4989 H   0  0  0  0  0  0  0  0  0  0  0  0
    0.3594   -4.9491    1.2567 H   0  0  0  0  0  0  0  0  0  0  0  0
    0.2061   -2.8726   -0.9078 H   0  0  0  0  0  0  0  0  0  0  0  0
    0.0689   -2.9636    0.8749 H   0  0  0  0  0  0  0  0  0  0  0  0
    1.1119   -0.9388    1.1873 H   0  0  0  0  0  0  0  0  0  0  0  0
    1.9852   -1.2107   -1.6496 H   0  0  0  0  0  0  0  0  0  0  0  0
    4.0223   -0.1326   -2.2315 H   0  0  0  0  0  0  0  0  0  0  0  0
    5.5935    1.6620   -2.0761 H   0  0  0  0  0  0  0  0  0  0  0  0
    5.5763    4.0659   -1.6374 H   0  0  0  0  0  0  0  0  0  0  0  0
    5.0584    4.7178   -0.0910 H   0  0  0  0  0  0  0  0  0  0  0  0
    6.8730    2.6402    0.3291 H   0  0  0  0  0  0  0  0  0  0  0  0
    1.7443    1.5346    0.9186 H   0  0  0  0  0  0  0  0  0  0  0  0
   -3.9829   -0.2751    1.3363 H   0  0  0  0  0  0  0  0  0  0  0  0
   -4.5893   -0.9825   -0.1263 H   0  0  0  0  0  0  0  0  0  0  0  0
   -5.7882    0.2591   -1.7262 H   0  0  0  0  0  0  0  0  0  0  0  0
   -7.7038    1.8870   -1.7055 H   0  0  0  0  0  0  0  0  0  0  0  0
   -4.1760    2.2022    1.6718 H   0  0  0  0  0  0  0  0  0  0  0  0
   -2.2768    0.6349    2.2491 H   0  0  0  0  0  0  0  0  0  0  0  0
   -0.4069    0.6042    2.2010 H   0  0  0  0  0  0  0  0  0  0  0  0
   -1.3388    1.7602    1.2448 H   0  0  0  0  0  0  0  0  0  0  0  0
  1  2  1  0
  2  3  1  0
  2  4  1  0
  4  5  1  0
  5  6  1  0
  6  7  1  0
  7  8  2  0
  8  9  1  0
  9 10  2  0
 10 11  1  0
 11 12  1  0
 10 13  1  0
 13 14  1  0
 13 15  2  0
  5 16  1  0
 16 17  1  0
 17 18  2  0
 18 19  1  0
 19 20  1  0
 20 21  1  0
 21 22  2  0
 22 23  1  0
 23 24  2  0
 24 25  1  0
 24 26  1  0
 26 27  1  0
 26 28  2  0
 19 29  1  0
 29 30  1  0
 15  7  1  0
 29 16  2  0
 28 21  1  0
  1 31  1  0
  1 32  1  0
  1 33  1  0
  2 34  1  0
  3 35  1  0
  3 36  1  0
  3 37  1  0
  4 38  1  0
  4 39  1  0
  5 40  1  1
  6 41  1  0
  8 42  1  0
  9 43  1  0
 11 44  1  0
 11 45  1  0
 12 46  1  0
 15 47  1  0
 20 48  1  0
 20 49  1  0
 22 50  1  0
 23 51  1  0
 28 52  1  0
 30 53  1  0
 30 54  1  0
 30 55  1  0
M  END
$$$$
[H]c1nc(C([H])([H])[H])c([H])c(N([H])c2nc([H])c([C@@]3([H])N(C(=O)c4c([H])c([H])c(F)c([H])c4F)C([H])([H])C([H])([H])C3([H])[H])c([H])c2[H])c1[H]
     RDKit          3D

 49 52  0  0  0  0  0  0  0  0999 V2000
    7.2013    1.1589   -0.9162 C   0  0  0  0  0  0  0  0  0  0  0  0
    6.5445   -0.1039   -0.4833 C   0  0  0  0  0  0  0  0  0  0  0  0
    5.2761   -0.1023    0.0822 C   0  0  0  0  0  0  0  0  0  0  0  0
    4.6386   -1.2328    0.4907 C   0  0  0  0  0  0  0  0  0  0  0  0
    3.3659   -1.2891    1.0297 N   0  0  0  0  0  0  0  0  0  0  0  0
    2.2092   -0.5336    0.7068 C   0  0  0  0  0  0  0  0  0  0  0  0
    2.1053    0.3669   -0.3176 C   0  0  0  0  0  0  0  0  0  0  0  0
    0.9330    1.1041   -0.5601 C   0  0  0  0  0  0  0  0  0  0  0  0
   -0.1699    0.9377    0.2427 C   0  0  0  0  0  0  0  0  0  0  0  0
   -0.0387    0.0245    1.2657 C   0  0  0  0  0  0  0  0  0  0  0  0
    1.0868   -0.6692    1.4825 N   0  0  0  0  0  0  0  0  0  0  0  0
   -1.4176    1.7314   -0.0037 C   0  0  2  0  0  0  0  0  0  0  0  0
   -1.5945    2.6962    1.1664 C   0  0  0  0  0  0  0  0  0  0  0  0
   -3.0556    2.9969    1.0960 C   0  0  0  0  0  0  0  0  0  0  0  0
   -3.6954    1.7779    0.4843 C   0  0  0  0  0  0  0  0  0  0  0  0
   -2.6076    0.9762   -0.0251 N   0  0  0  0  0  0  0  0  0  0  0  0
   -2.7983   -0.3771   -0.4843 C   0  0  0  0  0  0  0  0  0  0  0  0
   -1.8488   -1.0548   -0.9476 O   0  0  0  0  0  0  0  0  0  0  0  0
   -4.0939   -1.0378   -0.4399 C   0  0  0  0  0  0  0  0  0  0  0  0
   -4.5174   -1.7693    0.6470 C   0  0  0  0  0  0  0  0  0  0  0  0
   -5.7581   -2.3903    0.6652 C   0  0  0  0  0  0  0  0  0  0  0  0
   -6.6148   -2.2969   -0.4083 C   0  0  0  0  0  0  0  0  0  0  0  0
   -7.8375   -2.8995   -0.4099 F   0  0  0  0  0  0  0  0  0  0  0  0
   -6.2006   -1.5672   -1.5012 C   0  0  0  0  0  0  0  0  0  0  0  0
   -4.9485   -0.9423   -1.5156 C   0  0  0  0  0  0  0  0  0  0  0  0
   -4.5475   -0.2288   -2.5882 F   0  0  0  0  0  0  0  0  0  0  0  0
    5.3470   -2.4290    0.3080 C   0  0  0  0  0  0  0  0  0  0  0  0
    6.6042   -2.4129   -0.2541 C   0  0  0  0  0  0  0  0  0  0  0  0
    7.1934   -1.2692   -0.6436 N   0  0  0  0  0  0  0  0  0  0  0  0
    7.9232    0.9743   -1.7131 H   0  0  0  0  0  0  0  0  0  0  0  0
    6.3973    1.8146   -1.3463 H   0  0  0  0  0  0  0  0  0  0  0  0
    7.6105    1.7279   -0.0575 H   0  0  0  0  0  0  0  0  0  0  0  0
    4.8240    0.8516    0.2047 H   0  0  0  0  0  0  0  0  0  0  0  0
    3.2509   -2.0276    1.8187 H   0  0  0  0  0  0  0  0  0  0  0  0
    2.9276    0.5113   -0.9779 H   0  0  0  0  0  0  0  0  0  0  0  0
    0.8733    1.8062   -1.3693 H   0  0  0  0  0  0  0  0  0  0  0  0
   -0.9174   -0.1048    1.9007 H   0  0  0  0  0  0  0  0  0  0  0  0
   -1.2487    2.3093   -0.9440 H   0  0  0  0  0  0  0  0  0  0  0  0
   -1.3760    2.1135    2.0912 H   0  0  0  0  0  0  0  0  0  0  0  0
   -0.9510    3.5915    1.0628 H   0  0  0  0  0  0  0  0  0  0  0  0
   -3.2165    3.9183    0.5074 H   0  0  0  0  0  0  0  0  0  0  0  0
   -3.4515    3.0783    2.1396 H   0  0  0  0  0  0  0  0  0  0  0  0
   -4.3373    1.2253    1.1973 H   0  0  0  0  0  0  0  0  0  0  0  0
   -4.3739    2.0602   -0.3677 H   0  0  0  0  0  0  0  0  0  0  0  0
   -3.8444   -1.8478    1.5011 H   0  0  0  0  0  0  0  0  0  0  0  0
   -6.1012   -2.9661    1.5108 H   0  0  0  0  0  0  0  0  0  0  0  0
   -6.8605   -1.4839   -2.3516 H   0  0  0  0  0  0  0  0  0  0  0  0
    4.9351   -3.3758    0.5967 H   0  0  0  0  0  0  0  0  0  0  0  0
    7.1759   -3.3410   -0.4057 H   0  0  0  0  0  0  0  0  0  0  0  0
  1  2  1  0
  2  3  2  0
  3  4  1  0
  4  5  1  0
  5  6  1  0
  6  7  2  0
  7  8  1  0
  8  9  2  0
  9 10  1  0
 10 11  2  0
  9 12  1  0
 12 13  1  0
 13 14  1  0
 14 15  1  0
 15 16  1  0
 16 17  1  0
 17 18  2  0
 17 19  1  0
 19 20  2  0
 20 21  1  0
 21 22  2  0
 22 23  1  0
 22 24  1  0
 24 25  2  0
 25 26  1  0
  4 27  2  0
 27 28  1  0
 28 29  2  0
 29  2  1  0
 11  6  1  0
 16 12  1  0
 25 19  1  0
  1 30  1  0
  1 31  1  0
  1 32  1  0
  3 33  1  0
  5 34  1  0
  7 35  1  0
  8 36  1  0
 10 37  1  0
 12 38  1  6
 13 39  1  0
 13 40  1  0
 14 41  1  0
 14 42  1  0
 15 43  1  0
 15 44  1  0
 20 45  1  0
 21 46  1  0
 24 47  1  0
 27 48  1  0
 28 49  1  0
M  END
$$$$
[H]c1nc(N2C([H])([H])C([H])([H])[C@]([H])(C([H])([H])N(C(=O)C([H])([H])Oc3c([H])c([H])c(Cl)c(OC([H])([H])C(F)(F)F)c3[H])C([H])([H])[H])C2([H])[H])nc([H])c1Cl
     RDKit          3D

 53 55  0  0  0  0  0  0  0  0999 V2000
   -1.2443   -3.4985   -0.1069 C   0  0  0  0  0  0  0  0  0  0  0  0
   -1.1456   -2.4567   -1.1004 N   0  0  0  0  0  0  0  0  0  0  0  0
   -2.1876   -2.2653   -2.0485 C   0  0  0  0  0  0  0  0  0  0  0  0
   -3.2855   -1.3504   -1.6602 C   0  0  1  0  0  0  0  0  0  0  0  0
   -4.0296   -1.8135   -0.3995 C   0  0  0  0  0  0  0  0  0  0  0  0
   -4.9370   -0.5940   -0.1888 C   0  0  0  0  0  0  0  0  0  0  0  0
   -4.0878    0.5004   -0.5476 N   0  0  0  0  0  0  0  0  0  0  0  0
   -2.8577    0.0216   -1.1983 C   0  0  0  0  0  0  0  0  0  0  0  0
   -4.3797    1.8678   -0.3139 C   0  0  0  0  0  0  0  0  0  0  0  0
   -5.5203    2.2512    0.2857 N   0  0  0  0  0  0  0  0  0  0  0  0
   -5.8401    3.5335    0.5281 C   0  0  0  0  0  0  0  0  0  0  0  0
   -4.9595    4.5245    0.1463 C   0  0  0  0  0  0  0  0  0  0  0  0
   -5.3458    6.2114    0.4477 Cl  0  0  0  0  0  0  0  0  0  0  0  0
   -3.7857    4.1568   -0.4691 C   0  0  0  0  0  0  0  0  0  0  0  0
   -3.5336    2.8564   -0.6784 N   0  0  0  0  0  0  0  0  0  0  0  0
    0.0006   -1.6279   -1.1117 C   0  0  0  0  0  0  0  0  0  0  0  0
    0.1572   -0.6996   -1.9566 O   0  0  0  0  0  0  0  0  0  0  0  0
    1.0722   -1.8293   -0.1121 C   0  0  0  0  0  0  0  0  0  0  0  0
    2.1328   -0.9087   -0.2813 O   0  0  0  0  0  0  0  0  0  0  0  0
    3.2408   -0.9241    0.5517 C   0  0  0  0  0  0  0  0  0  0  0  0
    3.3605   -1.8330    1.5790 C   0  0  0  0  0  0  0  0  0  0  0  0
    4.4702   -1.8340    2.3983 C   0  0  0  0  0  0  0  0  0  0  0  0
    5.4808   -0.9383    2.2185 C   0  0  0  0  0  0  0  0  0  0  0  0
    6.8706   -0.9792    3.2854 Cl  0  0  0  0  0  0  0  0  0  0  0  0
    5.4057    0.0117    1.1821 C   0  0  0  0  0  0  0  0  0  0  0  0
    6.3922    0.8652    1.0252 O   0  0  0  0  0  0  0  0  0  0  0  0
    6.9328    1.8910    0.3779 C   0  0  0  0  0  0  0  0  0  0  0  0
    6.2676    3.2313    0.3669 C   0  0  0  0  0  0  0  0  0  0  0  0
    7.1196    4.0589   -0.3951 F   0  0  0  0  0  0  0  0  0  0  0  0
    6.2042    3.8151    1.6085 F   0  0  0  0  0  0  0  0  0  0  0  0
    5.0608    3.3054   -0.2523 F   0  0  0  0  0  0  0  0  0  0  0  0
    4.2860   -0.0205    0.3888 C   0  0  0  0  0  0  0  0  0  0  0  0
   -1.0569   -3.0059    0.8824 H   0  0  0  0  0  0  0  0  0  0  0  0
   -2.2038   -4.0255   -0.1167 H   0  0  0  0  0  0  0  0  0  0  0  0
   -0.4467   -4.2826   -0.2362 H   0  0  0  0  0  0  0  0  0  0  0  0
   -1.7988   -1.9012   -3.0435 H   0  0  0  0  0  0  0  0  0  0  0  0
   -2.6743   -3.2510   -2.3110 H   0  0  0  0  0  0  0  0  0  0  0  0
   -4.0382   -1.2249   -2.4334 H   0  0  0  0  0  0  0  0  0  0  0  0
   -4.6043   -2.7216   -0.5665 H   0  0  0  0  0  0  0  0  0  0  0  0
   -3.3524   -1.8420    0.4776 H   0  0  0  0  0  0  0  0  0  0  0  0
   -5.3191   -0.5460    0.8420 H   0  0  0  0  0  0  0  0  0  0  0  0
   -5.7455   -0.7033   -0.9510 H   0  0  0  0  0  0  0  0  0  0  0  0
   -2.5036    0.6802   -1.9878 H   0  0  0  0  0  0  0  0  0  0  0  0
   -2.1508   -0.1137   -0.3406 H   0  0  0  0  0  0  0  0  0  0  0  0
   -6.7754    3.8226    1.0182 H   0  0  0  0  0  0  0  0  0  0  0  0
   -3.1039    4.9357   -0.7640 H   0  0  0  0  0  0  0  0  0  0  0  0
    0.6846   -1.6977    0.9316 H   0  0  0  0  0  0  0  0  0  0  0  0
    1.4926   -2.8569   -0.2270 H   0  0  0  0  0  0  0  0  0  0  0  0
    2.5441   -2.5410    1.7085 H   0  0  0  0  0  0  0  0  0  0  0  0
    4.5258   -2.5774    3.2069 H   0  0  0  0  0  0  0  0  0  0  0  0
    8.0414    2.0412    0.6354 H   0  0  0  0  0  0  0  0  0  0  0  0
    7.0309    1.6114   -0.7333 H   0  0  0  0  0  0  0  0  0  0  0  0
    4.1389    0.6701   -0.4571 H   0  0  0  0  0  0  0  0  0  0  0  0
  1  2  1  0
  2  3  1  0
  3  4  1  0
  4  5  1  0
  5  6  1  0
  6  7  1  0
  7  8  1  0
  7  9  1  0
  9 10  2  0
 10 11  1  0
 11 12  2  0
 12 13  1  0
 12 14  1  0
 14 15  2  0
  2 16  1  0
 16 17  2  0
 16 18  1  0
 18 19  1  0
 19 20  1  0
 20 21  2  0
 21 22  1  0
 22 23  2  0
 23 24  1  0
 23 25  1  0
 25 26  1  0
 26 27  1  0
 27 28  1  0
 28 29  1  0
 28 30  1  0
 28 31  1  0
 25 32  2  0
  8  4  1  0
 15  9  1  0
 32 20  1  0
  1 33  1  0
  1 34  1  0
  1 35  1  0
  3 36  1  0
  3 37  1  0
  4 38  1  6
  5 39  1  0
  5 40  1  0
  6 41  1  0
  6 42  1  0
  8 43  1  0
  8 44  1  0
 11 45  1  0
 14 46  1  0
 18 47  1  0
 18 48  1  0
 21 49  1  0
 22 50  1  0
 27 51  1  0
 27 52  1  0
 32 53  1  0
M  END
$$$$
[H]C([H])=C([H])C(=O)N([H])c1c([H])c([H])c(S(=O)(=O)N2C([H])([H])C([H])([H])N(c3nonc3C(=O)N(C([H])([H])[H])C([H])([H])[H])C([H])([H])C2([H])[H])c([H])c1[H]
     RDKit          3D

 52 54  0  0  0  0  0  0  0  0999 V2000
   -7.4106    0.5483   -1.3065 C   0  0  0  0  0  0  0  0  0  0  0  0
   -6.3239   -0.3961   -1.3747 N   0  0  0  0  0  0  0  0  0  0  0  0
   -6.5256   -1.6081   -2.1630 C   0  0  0  0  0  0  0  0  0  0  0  0
   -5.0818   -0.2071   -0.7199 C   0  0  0  0  0  0  0  0  0  0  0  0
   -4.2160   -1.1116   -0.8625 O   0  0  0  0  0  0  0  0  0  0  0  0
   -4.8502    0.9831    0.0698 C   0  0  0  0  0  0  0  0  0  0  0  0
   -5.6807    2.0093    0.3032 N   0  0  0  0  0  0  0  0  0  0  0  0
   -5.1220    2.8946    1.0664 O   0  0  0  0  0  0  0  0  0  0  0  0
   -3.9259    2.4890    1.3562 N   0  0  0  0  0  0  0  0  0  0  0  0
   -3.7060    1.2800    0.7466 C   0  0  0  0  0  0  0  0  0  0  0  0
   -2.4819    0.5928    0.8673 N   0  0  0  0  0  0  0  0  0  0  0  0
   -1.6428    0.4087   -0.2841 C   0  0  0  0  0  0  0  0  0  0  0  0
   -0.3378    1.1570   -0.0312 C   0  0  0  0  0  0  0  0  0  0  0  0
   -0.1068    1.1863    1.3692 N   0  0  0  0  0  0  0  0  0  0  0  0
   -0.5279    0.0400    2.1007 C   0  0  0  0  0  0  0  0  0  0  0  0
   -2.0614    0.0702    2.1410 C   0  0  0  0  0  0  0  0  0  0  0  0
    1.3984    1.8169    1.8429 S   0  0  0  0  0  0  0  0  0  0  0  0
    1.4459    1.7913    3.3645 O   0  0  0  0  0  0  0  0  0  0  0  0
    1.5834    3.2399    1.4397 O   0  0  0  0  0  0  0  0  0  0  0  0
    2.7554    0.9040    1.2407 C   0  0  0  0  0  0  0  0  0  0  0  0
    3.3010    1.2354    0.0267 C   0  0  0  0  0  0  0  0  0  0  0  0
    4.3991    0.5287   -0.5045 C   0  0  0  0  0  0  0  0  0  0  0  0
    4.9759   -0.5175    0.1573 C   0  0  0  0  0  0  0  0  0  0  0  0
    6.0925   -1.2830   -0.2709 N   0  0  0  0  0  0  0  0  0  0  0  0
    7.0032   -0.9648   -1.2763 C   0  0  0  0  0  0  0  0  0  0  0  0
    6.8866    0.1315   -1.9294 O   0  0  0  0  0  0  0  0  0  0  0  0
    8.0988   -1.8619   -1.6056 C   0  0  0  0  0  0  0  0  0  0  0  0
    8.3594   -3.0050   -1.0447 C   0  0  0  0  0  0  0  0  0  0  0  0
    4.4030   -0.8457    1.4037 C   0  0  0  0  0  0  0  0  0  0  0  0
    3.3316   -0.1499    1.9125 C   0  0  0  0  0  0  0  0  0  0  0  0
   -8.2674    0.1866   -1.9536 H   0  0  0  0  0  0  0  0  0  0  0  0
   -7.7816    0.6688   -0.2631 H   0  0  0  0  0  0  0  0  0  0  0  0
   -7.1348    1.5322   -1.7412 H   0  0  0  0  0  0  0  0  0  0  0  0
   -7.0542   -2.3595   -1.5421 H   0  0  0  0  0  0  0  0  0  0  0  0
   -5.5481   -2.0351   -2.4508 H   0  0  0  0  0  0  0  0  0  0  0  0
   -7.0734   -1.3544   -3.0777 H   0  0  0  0  0  0  0  0  0  0  0  0
   -2.0740    0.8098   -1.2129 H   0  0  0  0  0  0  0  0  0  0  0  0
   -1.3800   -0.6680   -0.4632 H   0  0  0  0  0  0  0  0  0  0  0  0
   -0.5016    2.2037   -0.3937 H   0  0  0  0  0  0  0  0  0  0  0  0
    0.4942    0.7401   -0.6272 H   0  0  0  0  0  0  0  0  0  0  0  0
   -0.0976    0.0862    3.1193 H   0  0  0  0  0  0  0  0  0  0  0  0
   -0.2624   -0.9253    1.6187 H   0  0  0  0  0  0  0  0  0  0  0  0
   -2.4209   -0.9803    2.3143 H   0  0  0  0  0  0  0  0  0  0  0  0
   -2.3337    0.7338    2.9888 H   0  0  0  0  0  0  0  0  0  0  0  0
    2.8930    2.0573   -0.5544 H   0  0  0  0  0  0  0  0  0  0  0  0
    4.7837    0.8191   -1.4682 H   0  0  0  0  0  0  0  0  0  0  0  0
    6.2724   -2.2253    0.2237 H   0  0  0  0  0  0  0  0  0  0  0  0
    8.7735   -1.5475   -2.4046 H   0  0  0  0  0  0  0  0  0  0  0  0
    7.7596   -3.4038   -0.2524 H   0  0  0  0  0  0  0  0  0  0  0  0
    9.1989   -3.6230   -1.3447 H   0  0  0  0  0  0  0  0  0  0  0  0
    4.8354   -1.6743    1.9615 H   0  0  0  0  0  0  0  0  0  0  0  0
    2.8862   -0.3975    2.8710 H   0  0  0  0  0  0  0  0  0  0  0  0
  1  2  1  0
  2  3  1  0
  2  4  1  0
  4  5  2  0
  4  6  1  0
  6  7  2  0
  7  8  1  0
  8  9  1  0
  9 10  2  0
 10 11  1  0
 11 12  1  0
 12 13  1  0
 13 14  1  0
 14 15  1  0
 15 16  1  0
 14 17  1  0
 17 18  2  0
 17 19  2  0
 17 20  1  0
 20 21  2  0
 21 22  1  0
 22 23  2  0
 23 24  1  0
 24 25  1  0
 25 26  2  0
 25 27  1  0
 27 28  2  3
 23 29  1  0
 29 30  2  0
 10  6  1  0
 16 11  1  0
 30 20  1  0
  1 31  1  0
  1 32  1  0
  1 33  1  0
  3 34  1  0
  3 35  1  0
  3 36  1  0
 12 37  1  0
 12 38  1  0
 13 39  1  0
 13 40  1  0
 15 41  1  0
 15 42  1  0
 16 43  1  0
 16 44  1  0
 21 45  1  0
 22 46  1  0
 24 47  1  0
 27 48  1  0
 28 49  1  0
 28 50  1  0
 29 51  1  0
 30 52  1  0
M  END
$$$$
[H]c1nc2c(c([H])c1C1([H])C([H])([H])N(C(=O)OC3([H])C([H])([H])C3([H])[H])C([H])([H])C1([H])[H])O[C@]1([H])C([H])([H])C([H])([H])[C@]1([H])C([H])([H])N2c1c([H])c([H])c(C#N)c([H])c1[H]
     RDKit          3D

 58 63  0  0  0  0  0  0  0  0999 V2000
    5.0559   -0.4488   -2.1349 O   0  0  0  0  0  0  0  0  0  0  0  0
    5.2015    0.1397   -1.0371 C   0  0  0  0  0  0  0  0  0  0  0  0
    6.4795    0.5353   -0.6816 O   0  0  0  0  0  0  0  0  0  0  0  0
    7.5859    0.2810   -1.5351 C   0  0  0  0  0  0  0  0  0  0  0  0
    8.9304    0.0215   -0.8222 C   0  0  0  0  0  0  0  0  0  0  0  0
    8.6753    1.3121   -1.5550 C   0  0  0  0  0  0  0  0  0  0  0  0
    4.0615    0.3676   -0.2240 N   0  0  0  0  0  0  0  0  0  0  0  0
    2.6938   -0.0109   -0.5169 C   0  0  0  0  0  0  0  0  0  0  0  0
    2.0948   -0.0810    0.8660 C   0  0  0  0  0  0  0  0  0  0  0  0
    2.6781    1.1676    1.5054 C   0  0  0  0  0  0  0  0  0  0  0  0
    4.1295    1.0399    1.0626 C   0  0  0  0  0  0  0  0  0  0  0  0
    0.6364   -0.1151    0.8843 C   0  0  0  0  0  0  0  0  0  0  0  0
   -0.1404    0.8934    0.3212 C   0  0  0  0  0  0  0  0  0  0  0  0
   -1.4829    0.8498    0.3447 N   0  0  0  0  0  0  0  0  0  0  0  0
   -2.1625   -0.1680    0.9121 C   0  0  0  0  0  0  0  0  0  0  0  0
   -3.5725   -0.0206    0.8344 N   0  0  0  0  0  0  0  0  0  0  0  0
   -4.5002   -0.7174    1.6908 C   0  0  0  0  0  0  0  0  0  0  0  0
   -4.4209   -2.2017    1.5882 C   0  0  1  0  0  0  0  0  0  0  0  0
   -4.4617   -2.7536    0.1763 C   0  0  0  0  0  0  0  0  0  0  0  0
   -3.2913   -3.6289    0.5077 C   0  0  0  0  0  0  0  0  0  0  0  0
   -3.2045   -2.9196    1.8680 C   0  0  1  0  0  0  0  0  0  0  0  0
   -2.0001   -2.3004    2.1048 O   0  0  0  0  0  0  0  0  0  0  0  0
   -1.4349   -1.1974    1.4874 C   0  0  0  0  0  0  0  0  0  0  0  0
   -0.0500   -1.1653    1.4701 C   0  0  0  0  0  0  0  0  0  0  0  0
   -4.1103    0.8426   -0.1499 C   0  0  0  0  0  0  0  0  0  0  0  0
   -5.2308    1.6397    0.1369 C   0  0  0  0  0  0  0  0  0  0  0  0
   -5.8020    2.4739   -0.7925 C   0  0  0  0  0  0  0  0  0  0  0  0
   -5.2975    2.5706   -2.0666 C   0  0  0  0  0  0  0  0  0  0  0  0
   -4.1984    1.7997   -2.3758 C   0  0  0  0  0  0  0  0  0  0  0  0
   -3.6208    0.9549   -1.4340 C   0  0  0  0  0  0  0  0  0  0  0  0
   -5.8924    3.4479   -3.0547 C   0  0  0  0  0  0  0  0  0  0  0  0
   -6.3843    4.1450   -3.8332 N   0  0  0  0  0  0  0  0  0  0  0  0
    7.4262   -0.2357   -2.4887 H   0  0  0  0  0  0  0  0  0  0  0  0
    8.9513    0.1345    0.2795 H   0  0  0  0  0  0  0  0  0  0  0  0
    9.6125   -0.7099   -1.3008 H   0  0  0  0  0  0  0  0  0  0  0  0
    9.2690    1.4389   -2.5042 H   0  0  0  0  0  0  0  0  0  0  0  0
    8.5678    2.2556   -0.9978 H   0  0  0  0  0  0  0  0  0  0  0  0
    2.2093    0.8247   -1.0808 H   0  0  0  0  0  0  0  0  0  0  0  0
    2.6235   -0.9577   -1.0714 H   0  0  0  0  0  0  0  0  0  0  0  0
    2.4906   -0.9737    1.3686 H   0  0  0  0  0  0  0  0  0  0  0  0
    2.5629    1.1966    2.5877 H   0  0  0  0  0  0  0  0  0  0  0  0
    2.1849    2.0349    0.9908 H   0  0  0  0  0  0  0  0  0  0  0  0
    4.6429    2.0031    1.0182 H   0  0  0  0  0  0  0  0  0  0  0  0
    4.5977    0.3190    1.7675 H   0  0  0  0  0  0  0  0  0  0  0  0
    0.4100    1.7240   -0.1419 H   0  0  0  0  0  0  0  0  0  0  0  0
   -4.4403   -0.4228    2.7389 H   0  0  0  0  0  0  0  0  0  0  0  0
   -5.5401   -0.4498    1.3458 H   0  0  0  0  0  0  0  0  0  0  0  0
   -5.3171   -2.6265    2.1372 H   0  0  0  0  0  0  0  0  0  0  0  0
   -4.2903   -2.0154   -0.6255 H   0  0  0  0  0  0  0  0  0  0  0  0
   -5.3510   -3.3646   -0.0788 H   0  0  0  0  0  0  0  0  0  0  0  0
   -3.4880   -4.7009    0.5383 H   0  0  0  0  0  0  0  0  0  0  0  0
   -2.3856   -3.3863   -0.0863 H   0  0  0  0  0  0  0  0  0  0  0  0
   -3.3336   -3.7399    2.6474 H   0  0  0  0  0  0  0  0  0  0  0  0
    0.4856   -1.9758    1.9227 H   0  0  0  0  0  0  0  0  0  0  0  0
   -5.6194    1.5548    1.1567 H   0  0  0  0  0  0  0  0  0  0  0  0
   -6.6604    3.0696   -0.5356 H   0  0  0  0  0  0  0  0  0  0  0  0
   -3.8052    1.8837   -3.3899 H   0  0  0  0  0  0  0  0  0  0  0  0
   -2.7676    0.3661   -1.7451 H   0  0  0  0  0  0  0  0  0  0  0  0
  1  2  2  0
  2  3  1  0
  3  4  1  0
  4  5  1  0
  5  6  1  0
  2  7  1  0
  7  8  1  0
  8  9  1  0
  9 10  1  0
 10 11  1  0
  9 12  1  0
 12 13  2  0
 13 14  1  0
 14 15  2  0
 15 16  1  0
 16 17  1  0
 17 18  1  0
 18 19  1  0
 19 20  1  0
 20 21  1  0
 21 22  1  0
 22 23  1  0
 23 24  2  0
 16 25  1  0
 25 26  2  0
 26 27  1  0
 27 28  2  0
 28 29  1  0
 29 30  2  0
 28 31  1  0
 31 32  3  0
  6  4  1  0
 11  7  1  0
 24 12  1  0
 30 25  1  0
 23 15  1  0
 21 18  1  0
  4 33  1  0
  5 34  1  0
  5 35  1  0
  6 36  1  0
  6 37  1  0
  8 38  1  0
  8 39  1  0
  9 40  1  0
 10 41  1  0
 10 42  1  0
 11 43  1  0
 11 44  1  0
 13 45  1  0
 17 46  1  0
 17 47  1  0
 18 48  1  1
 19 49  1  0
 19 50  1  0
 20 51  1  0
 20 52  1  0
 21 53  1  1
 24 54  1  0
 26 55  1  0
 27 56  1  0
 29 57  1  0
 30 58  1  0
M  END
$$$$
[H]c1nc(OC([H])([H])[C@@]2([H])N(C([H])([H])c3c([H])c([H])c(-c4c([H])c([H])c(-n5nc(C([H])([H])[H])c(C(=O)N([H])[H])c5[H])c(OC([H])([H])[H])c4[H])c([H])c3[H])C([H])([H])C([H])([H])C2([H])[H])c([H])s1
     RDKit          3D

 65 69  0  0  0  0  0  0  0  0999 V2000
   -3.8590   -1.6702    2.5611 C   0  0  0  0  0  0  0  0  0  0  0  0
   -4.3194   -0.7547    1.5956 O   0  0  0  0  0  0  0  0  0  0  0  0
   -3.5281   -0.3635    0.5476 C   0  0  0  0  0  0  0  0  0  0  0  0
   -2.2481   -0.8608    0.4094 C   0  0  0  0  0  0  0  0  0  0  0  0
   -1.4226   -0.4885   -0.6342 C   0  0  0  0  0  0  0  0  0  0  0  0
   -1.9103    0.4100   -1.5581 C   0  0  0  0  0  0  0  0  0  0  0  0
   -3.2011    0.9116   -1.4188 C   0  0  0  0  0  0  0  0  0  0  0  0
   -4.0214    0.5378   -0.3764 C   0  0  0  0  0  0  0  0  0  0  0  0
   -5.3420    1.0764   -0.2711 N   0  0  0  0  0  0  0  0  0  0  0  0
   -5.7363    2.2455    0.1878 N   0  0  0  0  0  0  0  0  0  0  0  0
   -7.0729    2.3809    0.1224 C   0  0  0  0  0  0  0  0  0  0  0  0
   -7.8738    3.5745    0.5550 C   0  0  0  0  0  0  0  0  0  0  0  0
   -7.5505    1.2094   -0.4176 C   0  0  0  0  0  0  0  0  0  0  0  0
   -6.4533    0.4105   -0.6551 C   0  0  0  0  0  0  0  0  0  0  0  0
   -8.9443    0.8859   -0.6821 C   0  0  0  0  0  0  0  0  0  0  0  0
   -9.9669    1.8156   -0.3821 N   0  0  0  0  0  0  0  0  0  0  0  0
   -9.2251   -0.2437   -1.1860 O   0  0  0  0  0  0  0  0  0  0  0  0
   -0.0622   -1.0312   -0.7645 C   0  0  0  0  0  0  0  0  0  0  0  0
    0.5185   -1.2078   -2.0028 C   0  0  0  0  0  0  0  0  0  0  0  0
    1.7926   -1.7184   -2.1357 C   0  0  0  0  0  0  0  0  0  0  0  0
    2.5532   -2.0796   -1.0274 C   0  0  0  0  0  0  0  0  0  0  0  0
    3.9089   -2.6277   -1.2327 C   0  0  0  0  0  0  0  0  0  0  0  0
    4.8267   -2.3684   -0.1586 N   0  0  0  0  0  0  0  0  0  0  0  0
    6.1242   -2.9656   -0.3937 C   0  0  0  0  0  0  0  0  0  0  0  0
    7.1449   -2.0886    0.2470 C   0  0  0  0  0  0  0  0  0  0  0  0
    6.2975   -1.0597    0.9837 C   0  0  0  0  0  0  0  0  0  0  0  0
    5.0375   -0.9955    0.1465 C   0  0  1  0  0  0  0  0  0  0  0  0
    5.3510   -0.1227   -1.0516 C   0  0  0  0  0  0  0  0  0  0  0  0
    5.5290    1.1128   -0.7554 O   0  0  0  0  0  0  0  0  0  0  0  0
    5.7137    2.3918   -0.4482 C   0  0  0  0  0  0  0  0  0  0  0  0
    4.8979    3.4144   -0.9908 C   0  0  0  0  0  0  0  0  0  0  0  0
    5.5516    4.8032   -0.2866 S   0  0  0  0  0  0  0  0  0  0  0  0
    6.7898    4.0911    0.6392 C   0  0  0  0  0  0  0  0  0  0  0  0
    6.6456    2.8277    0.3672 N   0  0  0  0  0  0  0  0  0  0  0  0
    1.9575   -1.8966    0.2012 C   0  0  0  0  0  0  0  0  0  0  0  0
    0.6825   -1.3857    0.3390 C   0  0  0  0  0  0  0  0  0  0  0  0
   -3.3857   -2.5602    2.1213 H   0  0  0  0  0  0  0  0  0  0  0  0
   -4.7046   -2.0369    3.1969 H   0  0  0  0  0  0  0  0  0  0  0  0
   -3.0931   -1.1426    3.1969 H   0  0  0  0  0  0  0  0  0  0  0  0
   -1.8705   -1.5779    1.1538 H   0  0  0  0  0  0  0  0  0  0  0  0
   -1.3063    0.7440   -2.4066 H   0  0  0  0  0  0  0  0  0  0  0  0
   -3.6019    1.6224   -2.1398 H   0  0  0  0  0  0  0  0  0  0  0  0
   -8.5100    3.9562   -0.2762 H   0  0  0  0  0  0  0  0  0  0  0  0
   -7.1531    4.4036    0.7697 H   0  0  0  0  0  0  0  0  0  0  0  0
   -8.4783    3.3774    1.4442 H   0  0  0  0  0  0  0  0  0  0  0  0
   -6.4957   -0.5986   -1.0863 H   0  0  0  0  0  0  0  0  0  0  0  0
  -10.4451    2.3615   -1.1220 H   0  0  0  0  0  0  0  0  0  0  0  0
  -10.2409    1.9495    0.6098 H   0  0  0  0  0  0  0  0  0  0  0  0
   -0.0834   -0.9225   -2.8704 H   0  0  0  0  0  0  0  0  0  0  0  0
    2.2382   -1.8526   -3.1146 H   0  0  0  0  0  0  0  0  0  0  0  0
    3.8160   -3.7329   -1.3152 H   0  0  0  0  0  0  0  0  0  0  0  0
    4.3297   -2.3075   -2.2304 H   0  0  0  0  0  0  0  0  0  0  0  0
    6.1248   -3.9473    0.1416 H   0  0  0  0  0  0  0  0  0  0  0  0
    6.3081   -3.1665   -1.4738 H   0  0  0  0  0  0  0  0  0  0  0  0
    7.7270   -1.5748   -0.5477 H   0  0  0  0  0  0  0  0  0  0  0  0
    7.8001   -2.6459    0.9475 H   0  0  0  0  0  0  0  0  0  0  0  0
    6.0834   -1.3884    2.0228 H   0  0  0  0  0  0  0  0  0  0  0  0
    6.8932   -0.1290    0.9655 H   0  0  0  0  0  0  0  0  0  0  0  0
    4.2412   -0.5634    0.7653 H   0  0  0  0  0  0  0  0  0  0  0  0
    4.5732   -0.2672   -1.8552 H   0  0  0  0  0  0  0  0  0  0  0  0
    6.2813   -0.5633   -1.5676 H   0  0  0  0  0  0  0  0  0  0  0  0
    4.0616    3.2552   -1.6945 H   0  0  0  0  0  0  0  0  0  0  0  0
    7.5401    4.5647    1.3107 H   0  0  0  0  0  0  0  0  0  0  0  0
    2.5330   -2.1780    1.0921 H   0  0  0  0  0  0  0  0  0  0  0  0
    0.2325   -1.2493    1.3109 H   0  0  0  0  0  0  0  0  0  0  0  0
  1  2  1  0
  2  3  1  0
  3  4  2  0
  4  5  1  0
  5  6  2  0
  6  7  1  0
  7  8  2  0
  8  9  1  0
  9 10  1  0
 10 11  2  0
 11 12  1  0
 11 13  1  0
 13 14  2  0
 13 15  1  0
 15 16  1  0
 15 17  2  0
  5 18  1  0
 18 19  2  0
 19 20  1  0
 20 21  2  0
 21 22  1  0
 22 23  1  0
 23 24  1  0
 24 25  1  0
 25 26  1  0
 26 27  1  0
 27 28  1  0
 28 29  1  0
 29 30  1  0
 30 31  2  0
 31 32  1  0
 32 33  1  0
 33 34  2  0
 21 35  1  0
 35 36  2  0
  8  3  1  0
 14  9  1  0
 36 18  1  0
 27 23  1  0
 34 30  1  0
  1 37  1  0
  1 38  1  0
  1 39  1  0
  4 40  1  0
  6 41  1  0
  7 42  1  0
 12 43  1  0
 12 44  1  0
 12 45  1  0
 14 46  1  0
 16 47  1  0
 16 48  1  0
 19 49  1  0
 20 50  1  0
 22 51  1  0
 22 52  1  0
 24 53  1  0
 24 54  1  0
 25 55  1  0
 25 56  1  0
 26 57  1  0
 26 58  1  0
 27 59  1  1
 28 60  1  0
 28 61  1  0
 31 62  1  0
 33 63  1  0
 35 64  1  0
 36 65  1  0
M  END
$$$$
[H]c1nc(-c2c([H])c([H])c([H])c(C(=O)N([H])c3c([H])c([H])c(C([H])([H])[H])c([H])c3[H])c2[H])c([H])c(N([H])C2([H])C([H])([H])C([H])([H])C([H])([H])C([H])([H])C2([H])[H])c1SC([H])([H])c1c([H])c([H])c([H])c(Cl)c1[H]
     RDKit          3D

 70 74  0  0  0  0  0  0  0  0999 V2000
    9.5901    3.3509   -0.9708 C   0  0  0  0  0  0  0  0  0  0  0  0
    8.3455    2.5887   -0.7245 C   0  0  0  0  0  0  0  0  0  0  0  0
    7.0883    3.1135   -0.9132 C   0  0  0  0  0  0  0  0  0  0  0  0
    5.9728    2.3700   -0.6719 C   0  0  0  0  0  0  0  0  0  0  0  0
    6.0361    1.0369   -0.2208 C   0  0  0  0  0  0  0  0  0  0  0  0
    4.8325    0.3406   -0.0247 N   0  0  0  0  0  0  0  0  0  0  0  0
    4.6950   -0.7876    0.7865 C   0  0  0  0  0  0  0  0  0  0  0  0
    5.6458   -1.2646    1.4129 O   0  0  0  0  0  0  0  0  0  0  0  0
    3.3733   -1.4492    0.9122 C   0  0  0  0  0  0  0  0  0  0  0  0
    3.3533   -2.7147    1.4624 C   0  0  0  0  0  0  0  0  0  0  0  0
    2.1442   -3.3462    1.5935 C   0  0  0  0  0  0  0  0  0  0  0  0
    0.9603   -2.7272    1.1817 C   0  0  0  0  0  0  0  0  0  0  0  0
    0.9891   -1.4776    0.6396 C   0  0  0  0  0  0  0  0  0  0  0  0
    2.2173   -0.8516    0.5132 C   0  0  0  0  0  0  0  0  0  0  0  0
   -0.2375   -0.8201    0.2043 C   0  0  0  0  0  0  0  0  0  0  0  0
   -1.4780   -1.3922    0.2975 C   0  0  0  0  0  0  0  0  0  0  0  0
   -2.6292   -0.7442   -0.1264 C   0  0  0  0  0  0  0  0  0  0  0  0
   -3.8803   -1.3672   -0.0030 N   0  0  0  0  0  0  0  0  0  0  0  0
   -4.1188   -2.7096    0.4894 C   0  0  0  0  0  0  0  0  0  0  0  0
   -3.5175   -3.6891   -0.4488 C   0  0  0  0  0  0  0  0  0  0  0  0
   -4.4368   -4.5391   -1.2370 C   0  0  0  0  0  0  0  0  0  0  0  0
   -5.8822   -4.0686   -1.2268 C   0  0  0  0  0  0  0  0  0  0  0  0
   -6.2526   -4.0418    0.2633 C   0  0  0  0  0  0  0  0  0  0  0  0
   -5.5294   -2.8679    0.8487 C   0  0  0  0  0  0  0  0  0  0  0  0
   -2.5245    0.5119   -0.6568 C   0  0  0  0  0  0  0  0  0  0  0  0
   -3.9491    1.4230   -1.2288 S   0  0  0  0  0  0  0  0  0  0  0  0
   -4.6682    2.4293    0.0948 C   0  0  0  0  0  0  0  0  0  0  0  0
   -3.6726    3.4736    0.4417 C   0  0  0  0  0  0  0  0  0  0  0  0
   -2.7437    3.1975    1.4227 C   0  0  0  0  0  0  0  0  0  0  0  0
   -1.8119    4.1572    1.7561 C   0  0  0  0  0  0  0  0  0  0  0  0
   -1.7890    5.3907    1.1278 C   0  0  0  0  0  0  0  0  0  0  0  0
   -2.7102    5.6733    0.1505 C   0  0  0  0  0  0  0  0  0  0  0  0
   -2.6656    7.2355   -0.6314 Cl  0  0  0  0  0  0  0  0  0  0  0  0
   -3.6391    4.7138   -0.1805 C   0  0  0  0  0  0  0  0  0  0  0  0
   -1.2798    1.0869   -0.7506 C   0  0  0  0  0  0  0  0  0  0  0  0
   -0.1838    0.4378   -0.3334 N   0  0  0  0  0  0  0  0  0  0  0  0
    7.2893    0.5186   -0.0351 C   0  0  0  0  0  0  0  0  0  0  0  0
    8.4425    1.2906   -0.2853 C   0  0  0  0  0  0  0  0  0  0  0  0
   10.1191    3.5103   -0.0320 H   0  0  0  0  0  0  0  0  0  0  0  0
    9.2880    4.3418   -1.3886 H   0  0  0  0  0  0  0  0  0  0  0  0
   10.1991    2.7716   -1.7065 H   0  0  0  0  0  0  0  0  0  0  0  0
    7.0308    4.1404   -1.2607 H   0  0  0  0  0  0  0  0  0  0  0  0
    4.9960    2.7850   -0.8203 H   0  0  0  0  0  0  0  0  0  0  0  0
    3.9703    0.7100   -0.5457 H   0  0  0  0  0  0  0  0  0  0  0  0
    4.2862   -3.2016    1.7866 H   0  0  0  0  0  0  0  0  0  0  0  0
    2.0829   -4.3456    2.0226 H   0  0  0  0  0  0  0  0  0  0  0  0
    0.0457   -3.2927    1.3193 H   0  0  0  0  0  0  0  0  0  0  0  0
    2.1898    0.1367    0.0826 H   0  0  0  0  0  0  0  0  0  0  0  0
   -1.5739   -2.3793    0.7200 H   0  0  0  0  0  0  0  0  0  0  0  0
   -4.7542   -0.8254   -0.2933 H   0  0  0  0  0  0  0  0  0  0  0  0
   -3.5190   -2.7561    1.4525 H   0  0  0  0  0  0  0  0  0  0  0  0
   -2.7968   -4.3657    0.0857 H   0  0  0  0  0  0  0  0  0  0  0  0
   -2.8425   -3.1530   -1.1834 H   0  0  0  0  0  0  0  0  0  0  0  0
   -4.1125   -4.6286   -2.2997 H   0  0  0  0  0  0  0  0  0  0  0  0
   -4.4737   -5.5642   -0.7693 H   0  0  0  0  0  0  0  0  0  0  0  0
   -5.9305   -3.0384   -1.6345 H   0  0  0  0  0  0  0  0  0  0  0  0
   -6.4854   -4.7943   -1.7856 H   0  0  0  0  0  0  0  0  0  0  0  0
   -5.8990   -5.0159    0.6696 H   0  0  0  0  0  0  0  0  0  0  0  0
   -7.3378   -3.8866    0.3916 H   0  0  0  0  0  0  0  0  0  0  0  0
   -6.1251   -1.9568    0.5415 H   0  0  0  0  0  0  0  0  0  0  0  0
   -5.6937   -2.9168    1.9588 H   0  0  0  0  0  0  0  0  0  0  0  0
   -4.8310    1.7844    0.9842 H   0  0  0  0  0  0  0  0  0  0  0  0
   -5.6172    2.8515   -0.2666 H   0  0  0  0  0  0  0  0  0  0  0  0
   -2.7557    2.2199    1.9263 H   0  0  0  0  0  0  0  0  0  0  0  0
   -1.1036    3.9101    2.5231 H   0  0  0  0  0  0  0  0  0  0  0  0
   -1.0159    6.0957    1.4524 H   0  0  0  0  0  0  0  0  0  0  0  0
   -4.3621    4.9393   -0.9494 H   0  0  0  0  0  0  0  0  0  0  0  0
   -1.1929    2.1000   -1.1780 H   0  0  0  0  0  0  0  0  0  0  0  0
    7.4418   -0.4968    0.2917 H   0  0  0  0  0  0  0  0  0  0  0  0
    9.3972    0.8394   -0.1241 H   0  0  0  0  0  0  0  0  0  0  0  0
  1  2  1  0
  2  3  2  0
  3  4  1  0
  4  5  2  0
  5  6  1  0
  6  7  1  0
  7  8  2  0
  7  9  1  0
  9 10  2  0
 10 11  1  0
 11 12  2  0
 12 13  1  0
 13 14  2  0
 13 15  1  0
 15 16  2  0
 16 17  1  0
 17 18  1  0
 18 19  1  0
 19 20  1  0
 20 21  1  0
 21 22  1  0
 22 23  1  0
 23 24  1  0
 17 25  2  0
 25 26  1  0
 26 27  1  0
 27 28  1  0
 28 29  2  0
 29 30  1  0
 30 31  2  0
 31 32  1  0
 32 33  1  0
 32 34  2  0
 25 35  1  0
 35 36  2  0
  5 37  1  0
 37 38  2  0
 38  2  1  0
 14  9  1  0
 36 15  1  0
 24 19  1  0
 34 28  1  0
  1 39  1  0
  1 40  1  0
  1 41  1  0
  3 42  1  0
  4 43  1  0
  6 44  1  0
 10 45  1  0
 11 46  1  0
 12 47  1  0
 14 48  1  0
 16 49  1  0
 18 50  1  0
 19 51  1  0
 20 52  1  0
 20 53  1  0
 21 54  1  0
 21 55  1  0
 22 56  1  0
 22 57  1  0
 23 58  1  0
 23 59  1  0
 24 60  1  0
 24 61  1  0
 27 62  1  0
 27 63  1  0
 29 64  1  0
 30 65  1  0
 31 66  1  0
 34 67  1  0
 35 68  1  0
 37 69  1  0
 38 70  1  0
M  END
$$$$
[H]OC([H])([H])c1c([H])c([H])c([H])c(N2C(=O)C3=C(C(=O)OC(C([H])([H])[H])(C([H])([H])[H])C([H])([H])[H])C(C([H])(C([H])([H])[H])C([H])([H])[H])=NN(C([H])([H])c4c([H])c([H])c([H])c([H])c4C4([H])C([H])([H])C4([H])[H])C3=NC(C([H])([H])[H])=C2[H])c1[H]
     RDKit          3D

 79 83  0  0  0  0  0  0  0  0999 V2000
   -0.9795    4.4044    0.7242 C   0  0  0  0  0  0  0  0  0  0  0  0
   -0.2914    3.0961    0.5585 C   0  0  0  0  0  0  0  0  0  0  0  0
    1.0245    3.0663    0.6870 C   0  0  0  0  0  0  0  0  0  0  0  0
    1.9600    1.9682    0.5868 N   0  0  0  0  0  0  0  0  0  0  0  0
    3.3083    2.2282    0.3357 C   0  0  0  0  0  0  0  0  0  0  0  0
    3.8456    1.9188   -0.8938 C   0  0  0  0  0  0  0  0  0  0  0  0
    5.1727    2.1605   -1.2027 C   0  0  0  0  0  0  0  0  0  0  0  0
    5.9937    2.7306   -0.2530 C   0  0  0  0  0  0  0  0  0  0  0  0
    5.4749    3.0508    0.9922 C   0  0  0  0  0  0  0  0  0  0  0  0
    6.3812    3.6656    1.9910 C   0  0  0  0  0  0  0  0  0  0  0  0
    6.2913    5.0540    1.9268 O   0  0  0  0  0  0  0  0  0  0  0  0
    4.1378    2.7976    1.2777 C   0  0  0  0  0  0  0  0  0  0  0  0
    1.5259    0.6184    0.7659 C   0  0  0  0  0  0  0  0  0  0  0  0
    2.2460   -0.1389    1.4320 O   0  0  0  0  0  0  0  0  0  0  0  0
    0.2922   -0.0132    0.2585 C   0  0  0  0  0  0  0  0  0  0  0  0
    0.4498   -1.2931   -0.0214 C   0  0  0  0  0  0  0  0  0  0  0  0
   -0.7991   -1.9414   -0.5074 C   0  0  0  0  0  0  0  0  0  0  0  0
   -0.7942   -3.3422   -0.9286 C   0  0  0  0  0  0  0  0  0  0  0  0
   -2.2734   -3.7840   -1.1487 C   0  0  0  0  0  0  0  0  0  0  0  0
   -0.2259   -3.4402   -2.3613 C   0  0  0  0  0  0  0  0  0  0  0  0
   -1.9220   -1.2911   -0.6346 N   0  0  0  0  0  0  0  0  0  0  0  0
   -2.1255    0.0484   -0.3549 N   0  0  0  0  0  0  0  0  0  0  0  0
   -3.3307    0.7717   -0.4789 C   0  0  0  0  0  0  0  0  0  0  0  0
   -4.4594    0.3812    0.3714 C   0  0  0  0  0  0  0  0  0  0  0  0
   -4.4288   -0.6294    1.2773 C   0  0  0  0  0  0  0  0  0  0  0  0
   -5.5371   -0.9158    2.0280 C   0  0  0  0  0  0  0  0  0  0  0  0
   -6.7143   -0.2164    1.9127 C   0  0  0  0  0  0  0  0  0  0  0  0
   -6.7297    0.8233    0.9738 C   0  0  0  0  0  0  0  0  0  0  0  0
   -5.6361    1.1382    0.2034 C   0  0  0  0  0  0  0  0  0  0  0  0
   -5.6673    2.2451   -0.7859 C   0  0  0  0  0  0  0  0  0  0  0  0
   -6.9337    2.9977   -1.0084 C   0  0  0  0  0  0  0  0  0  0  0  0
   -5.8583    3.6664   -0.2254 C   0  0  0  0  0  0  0  0  0  0  0  0
   -0.9697    0.7323    0.1119 C   0  0  0  0  0  0  0  0  0  0  0  0
   -1.1696    2.0177    0.2466 N   0  0  0  0  0  0  0  0  0  0  0  0
    1.7102   -1.9750   -0.0761 C   0  0  0  0  0  0  0  0  0  0  0  0
    2.8225   -1.4640   -0.0095 O   0  0  0  0  0  0  0  0  0  0  0  0
    1.8042   -3.3751   -0.2084 O   0  0  0  0  0  0  0  0  0  0  0  0
    2.9743   -4.1008   -0.2575 C   0  0  0  0  0  0  0  0  0  0  0  0
    2.6034   -5.5642   -0.4017 C   0  0  0  0  0  0  0  0  0  0  0  0
    3.7905   -4.0063    1.0392 C   0  0  0  0  0  0  0  0  0  0  0  0
    3.9088   -3.7601   -1.3711 C   0  0  0  0  0  0  0  0  0  0  0  0
   -2.0135    4.2180    1.0768 H   0  0  0  0  0  0  0  0  0  0  0  0
   -0.4135    5.1213    1.3369 H   0  0  0  0  0  0  0  0  0  0  0  0
   -1.0705    4.8427   -0.3084 H   0  0  0  0  0  0  0  0  0  0  0  0
    1.4955    4.0120    0.8971 H   0  0  0  0  0  0  0  0  0  0  0  0
    3.2153    1.4673   -1.6589 H   0  0  0  0  0  0  0  0  0  0  0  0
    5.6075    1.9239   -2.1609 H   0  0  0  0  0  0  0  0  0  0  0  0
    7.0506    2.9439   -0.4427 H   0  0  0  0  0  0  0  0  0  0  0  0
    6.1009    3.3726    3.0253 H   0  0  0  0  0  0  0  0  0  0  0  0
    7.4167    3.3425    1.7605 H   0  0  0  0  0  0  0  0  0  0  0  0
    6.6666    5.4110    1.0926 H   0  0  0  0  0  0  0  0  0  0  0  0
    3.7621    3.0567    2.2546 H   0  0  0  0  0  0  0  0  0  0  0  0
   -0.4151   -4.0860   -0.2551 H   0  0  0  0  0  0  0  0  0  0  0  0
   -2.2211   -4.7266   -1.6992 H   0  0  0  0  0  0  0  0  0  0  0  0
   -2.8435   -2.9951   -1.6343 H   0  0  0  0  0  0  0  0  0  0  0  0
   -2.6540   -3.9867   -0.1283 H   0  0  0  0  0  0  0  0  0  0  0  0
    0.3016   -4.3767   -2.5196 H   0  0  0  0  0  0  0  0  0  0  0  0
    0.3927   -2.5181   -2.5155 H   0  0  0  0  0  0  0  0  0  0  0  0
   -1.0506   -3.3663   -3.1053 H   0  0  0  0  0  0  0  0  0  0  0  0
   -3.6649    0.6507   -1.5569 H   0  0  0  0  0  0  0  0  0  0  0  0
   -3.1654    1.8463   -0.3535 H   0  0  0  0  0  0  0  0  0  0  0  0
   -3.4929   -1.1864    1.3744 H   0  0  0  0  0  0  0  0  0  0  0  0
   -5.4494   -1.7361    2.7346 H   0  0  0  0  0  0  0  0  0  0  0  0
   -7.5921   -0.4456    2.5086 H   0  0  0  0  0  0  0  0  0  0  0  0
   -7.6661    1.3758    0.8887 H   0  0  0  0  0  0  0  0  0  0  0  0
   -4.8940    2.2408   -1.5966 H   0  0  0  0  0  0  0  0  0  0  0  0
   -7.8678    2.7251   -0.5068 H   0  0  0  0  0  0  0  0  0  0  0  0
   -7.1192    3.3400   -2.0693 H   0  0  0  0  0  0  0  0  0  0  0  0
   -6.0340    3.7611    0.8537 H   0  0  0  0  0  0  0  0  0  0  0  0
   -5.3561    4.5066   -0.7120 H   0  0  0  0  0  0  0  0  0  0  0  0
    1.6807   -5.6335   -1.0203 H   0  0  0  0  0  0  0  0  0  0  0  0
    3.4433   -6.1698   -0.8307 H   0  0  0  0  0  0  0  0  0  0  0  0
    2.3124   -5.9752    0.5982 H   0  0  0  0  0  0  0  0  0  0  0  0
    4.5099   -4.8423    0.9935 H   0  0  0  0  0  0  0  0  0  0  0  0
    3.1730   -4.1520    1.9242 H   0  0  0  0  0  0  0  0  0  0  0  0
    4.3806   -3.0796    1.0308 H   0  0  0  0  0  0  0  0  0  0  0  0
    3.4312   -3.7811   -2.3768 H   0  0  0  0  0  0  0  0  0  0  0  0
    4.4949   -2.8416   -1.1938 H   0  0  0  0  0  0  0  0  0  0  0  0
    4.6759   -4.5900   -1.4069 H   0  0  0  0  0  0  0  0  0  0  0  0
  1  2  1  0
  2  3  2  0
  3  4  1  0
  4  5  1  0
  5  6  2  0
  6  7  1  0
  7  8  2  0
  8  9  1  0
  9 10  1  0
 10 11  1  0
  9 12  2  0
  4 13  1  0
 13 14  2  0
 13 15  1  0
 15 16  2  0
 16 17  1  0
 17 18  1  0
 18 19  1  0
 18 20  1  0
 17 21  2  0
 21 22  1  0
 22 23  1  0
 23 24  1  0
 24 25  2  0
 25 26  1  0
 26 27  2  0
 27 28  1  0
 28 29  2  0
 29 30  1  0
 30 31  1  0
 31 32  1  0
 22 33  1  0
 33 34  2  0
 16 35  1  0
 35 36  2  0
 35 37  1  0
 37 38  1  0
 38 39  1  0
 38 40  1  0
 38 41  1  0
 34  2  1  0
 12  5  1  0
 33 15  1  0
 29 24  1  0
 32 30  1  0
  1 42  1  0
  1 43  1  0
  1 44  1  0
  3 45  1  0
  6 46  1  0
  7 47  1  0
  8 48  1  0
 10 49  1  0
 10 50  1  0
 11 51  1  0
 12 52  1  0
 18 53  1  0
 19 54  1  0
 19 55  1  0
 19 56  1  0
 20 57  1  0
 20 58  1  0
 20 59  1  0
 23 60  1  0
 23 61  1  0
 25 62  1  0
 26 63  1  0
 27 64  1  0
 28 65  1  0
 30 66  1  0
 31 67  1  0
 31 68  1  0
 32 69  1  0
 32 70  1  0
 39 71  1  0
 39 72  1  0
 39 73  1  0
 40 74  1  0
 40 75  1  0
 40 76  1  0
 41 77  1  0
 41 78  1  0
 41 79  1  0
M  END
$$$$
[H]c1c([H])c(C([H])([H])N2C([H])([H])C([H])([H])N(S(=O)(=O)C([H])([H])[H])C([H])([H])C2([H])[H])c([H])c([H])c1[N+](=O)[O-]
     RDKit          3D

 37 38  0  0  0  0  0  0  0  0999 V2000
    4.0379   -1.8123    0.7340 C   0  0  0  0  0  0  0  0  0  0  0  0
    4.3520   -0.5025   -0.3991 S   0  0  0  0  0  0  0  0  0  0  0  0
    4.8887   -0.9793   -1.7144 O   0  0  0  0  0  0  0  0  0  0  0  0
    5.4410    0.3747    0.2046 O   0  0  0  0  0  0  0  0  0  0  0  0
    2.9960    0.5081   -0.6651 N   0  0  0  0  0  0  0  0  0  0  0  0
    2.5500    1.1717    0.5400 C   0  0  0  0  0  0  0  0  0  0  0  0
    1.3466    1.9976    0.1787 C   0  0  0  0  0  0  0  0  0  0  0  0
    0.2333    1.1881   -0.3155 N   0  0  0  0  0  0  0  0  0  0  0  0
   -0.8154    1.3209    0.6572 C   0  0  0  0  0  0  0  0  0  0  0  0
   -2.0659    0.6216    0.3569 C   0  0  0  0  0  0  0  0  0  0  0  0
   -2.4804    0.2957   -0.9159 C   0  0  0  0  0  0  0  0  0  0  0  0
   -3.6824   -0.3750   -1.1401 C   0  0  0  0  0  0  0  0  0  0  0  0
   -4.5043   -0.7387   -0.0953 C   0  0  0  0  0  0  0  0  0  0  0  0
   -4.0987   -0.4173    1.1822 C   0  0  0  0  0  0  0  0  0  0  0  0
   -2.9086    0.2463    1.3990 C   0  0  0  0  0  0  0  0  0  0  0  0
   -5.7358   -1.4237   -0.3026 N   0  0  0  0  0  0  0  0  0  0  0  0
   -6.1681   -1.7585   -1.5628 O   0  0  0  0  0  0  0  0  0  0  0  0
   -6.4462   -1.7321    0.6694 O   0  0  0  0  0  0  0  0  0  0  0  0
    0.6854   -0.1795   -0.4719 C   0  0  0  0  0  0  0  0  0  0  0  0
    1.9236   -0.1269   -1.3778 C   0  0  0  0  0  0  0  0  0  0  0  0
    4.4153   -2.7670    0.2795 H   0  0  0  0  0  0  0  0  0  0  0  0
    2.9684   -1.9573    0.9340 H   0  0  0  0  0  0  0  0  0  0  0  0
    4.6038   -1.7078    1.6933 H   0  0  0  0  0  0  0  0  0  0  0  0
    3.3544    1.9005    0.8088 H   0  0  0  0  0  0  0  0  0  0  0  0
    2.3818    0.4487    1.3403 H   0  0  0  0  0  0  0  0  0  0  0  0
    1.6683    2.6554   -0.6805 H   0  0  0  0  0  0  0  0  0  0  0  0
    1.0319    2.6986    0.9750 H   0  0  0  0  0  0  0  0  0  0  0  0
   -0.4206    0.9401    1.6285 H   0  0  0  0  0  0  0  0  0  0  0  0
   -0.9753    2.4145    0.8175 H   0  0  0  0  0  0  0  0  0  0  0  0
   -1.8627    0.5671   -1.7642 H   0  0  0  0  0  0  0  0  0  0  0  0
   -4.0084   -0.6310   -2.1378 H   0  0  0  0  0  0  0  0  0  0  0  0
   -4.7665   -0.7160    1.9926 H   0  0  0  0  0  0  0  0  0  0  0  0
   -2.5999    0.4950    2.4214 H   0  0  0  0  0  0  0  0  0  0  0  0
    0.9138   -0.6793    0.4809 H   0  0  0  0  0  0  0  0  0  0  0  0
   -0.0470   -0.7829   -1.0050 H   0  0  0  0  0  0  0  0  0  0  0  0
    1.6391    0.5483   -2.2254 H   0  0  0  0  0  0  0  0  0  0  0  0
    2.1549   -1.1055   -1.7910 H   0  0  0  0  0  0  0  0  0  0  0  0
  1  2  1  0
  2  3  2  0
  2  4  2  0
  2  5  1  0
  5  6  1  0
  6  7  1  0
  7  8  1  0
  8  9  1  0
  9 10  1  0
 10 11  2  0
 11 12  1  0
 12 13  2  0
 13 14  1  0
 14 15  2  0
 13 16  1  0
 16 17  1  0
 16 18  2  0
  8 19  1  0
 19 20  1  0
 20  5  1  0
 15 10  1  0
  1 21  1  0
  1 22  1  0
  1 23  1  0
  6 24  1  0
  6 25  1  0
  7 26  1  0
  7 27  1  0
  9 28  1  0
  9 29  1  0
 11 30  1  0
 12 31  1  0
 14 32  1  0
 15 33  1  0
 19 34  1  0
 19 35  1  0
 20 36  1  0
 20 37  1  0
M  CHG  2  16   1  17  -1
M  END
$$$$
[H]c1nc(C([H])([H])[H])c(N([H])C(=O)c2c([H])c([H])c(S(=O)(=O)c3c([H])c([H])c(N(C([H])([H])[H])C([H])([H])[H])c(F)c3[H])c([H])c2[H])s1
     RDKit          3D

 46 48  0  0  0  0  0  0  0  0999 V2000
   -7.0500    0.8552    0.6396 C   0  0  0  0  0  0  0  0  0  0  0  0
   -5.8371    0.9616   -0.1405 N   0  0  0  0  0  0  0  0  0  0  0  0
   -5.6806    2.0438   -1.1072 C   0  0  0  0  0  0  0  0  0  0  0  0
   -4.7793    0.0440   -0.0019 C   0  0  0  0  0  0  0  0  0  0  0  0
   -4.3641   -0.7080   -1.0732 C   0  0  0  0  0  0  0  0  0  0  0  0
   -3.3118   -1.6093   -0.9023 C   0  0  0  0  0  0  0  0  0  0  0  0
   -2.6896   -1.7525    0.3181 C   0  0  0  0  0  0  0  0  0  0  0  0
   -3.1058   -0.9996    1.3894 C   0  0  0  0  0  0  0  0  0  0  0  0
   -4.1611   -0.0966    1.2153 C   0  0  0  0  0  0  0  0  0  0  0  0
   -4.5569    0.6317    2.2691 F   0  0  0  0  0  0  0  0  0  0  0  0
   -1.3775   -2.8975    0.4706 S   0  0  0  0  0  0  0  0  0  0  0  0
   -1.6083   -4.0795   -0.4165 O   0  0  0  0  0  0  0  0  0  0  0  0
   -1.3577   -3.3676    1.8966 O   0  0  0  0  0  0  0  0  0  0  0  0
    0.1657   -2.1278    0.1148 C   0  0  0  0  0  0  0  0  0  0  0  0
    0.9293   -1.5239    1.0756 C   0  0  0  0  0  0  0  0  0  0  0  0
    2.1384   -0.9271    0.7648 C   0  0  0  0  0  0  0  0  0  0  0  0
    2.6235   -0.9116   -0.5025 C   0  0  0  0  0  0  0  0  0  0  0  0
    1.8489   -1.5248   -1.4793 C   0  0  0  0  0  0  0  0  0  0  0  0
    0.6464   -2.1184   -1.1702 C   0  0  0  0  0  0  0  0  0  0  0  0
    3.8891   -0.2803   -0.8232 C   0  0  0  0  0  0  0  0  0  0  0  0
    4.3739   -0.5001   -1.9875 O   0  0  0  0  0  0  0  0  0  0  0  0
    4.5526    0.5375    0.1050 N   0  0  0  0  0  0  0  0  0  0  0  0
    5.7994    1.1239   -0.2874 C   0  0  0  0  0  0  0  0  0  0  0  0
    6.6688    1.0011   -1.7563 S   0  0  0  0  0  0  0  0  0  0  0  0
    7.9991    1.9914   -1.3553 C   0  0  0  0  0  0  0  0  0  0  0  0
    7.7075    2.3627   -0.1205 N   0  0  0  0  0  0  0  0  0  0  0  0
    6.6210    1.9517    0.4465 C   0  0  0  0  0  0  0  0  0  0  0  0
    6.2424    2.3523    1.8659 C   0  0  0  0  0  0  0  0  0  0  0  0
   -6.9140    0.1099    1.4437 H   0  0  0  0  0  0  0  0  0  0  0  0
   -7.3469    1.8314    1.0990 H   0  0  0  0  0  0  0  0  0  0  0  0
   -7.9062    0.5048    0.0091 H   0  0  0  0  0  0  0  0  0  0  0  0
   -6.4024    2.8525   -0.9664 H   0  0  0  0  0  0  0  0  0  0  0  0
   -4.6155    2.3713   -1.0191 H   0  0  0  0  0  0  0  0  0  0  0  0
   -5.7599    1.5797   -2.1201 H   0  0  0  0  0  0  0  0  0  0  0  0
   -4.8297   -0.6231   -2.0506 H   0  0  0  0  0  0  0  0  0  0  0  0
   -2.9589   -2.2170   -1.7221 H   0  0  0  0  0  0  0  0  0  0  0  0
   -2.6328   -1.0929    2.3615 H   0  0  0  0  0  0  0  0  0  0  0  0
    0.5702   -1.5205    2.0881 H   0  0  0  0  0  0  0  0  0  0  0  0
    2.7035   -0.4644    1.5787 H   0  0  0  0  0  0  0  0  0  0  0  0
    2.2233   -1.5199   -2.4925 H   0  0  0  0  0  0  0  0  0  0  0  0
    0.0460   -2.5981   -1.9502 H   0  0  0  0  0  0  0  0  0  0  0  0
    4.1662    0.7176    1.0318 H   0  0  0  0  0  0  0  0  0  0  0  0
    8.8865    2.2656   -1.9567 H   0  0  0  0  0  0  0  0  0  0  0  0
    6.5258    1.5472    2.5739 H   0  0  0  0  0  0  0  0  0  0  0  0
    5.1590    2.5545    1.9181 H   0  0  0  0  0  0  0  0  0  0  0  0
    6.7595    3.2693    2.1739 H   0  0  0  0  0  0  0  0  0  0  0  0
  1  2  1  0
  2  3  1  0
  2  4  1  0
  4  5  2  0
  5  6  1  0
  6  7  2  0
  7  8  1  0
  8  9  2  0
  9 10  1  0
  7 11  1  0
 11 12  2  0
 11 13  2  0
 11 14  1  0
 14 15  2  0
 15 16  1  0
 16 17  2  0
 17 18  1  0
 18 19  2  0
 17 20  1  0
 20 21  2  0
 20 22  1  0
 22 23  1  0
 23 24  1  0
 24 25  1  0
 25 26  2  0
 26 27  1  0
 27 28  1  0
  9  4  1  0
 19 14  1  0
 27 23  2  0
  1 29  1  0
  1 30  1  0
  1 31  1  0
  3 32  1  0
  3 33  1  0
  3 34  1  0
  5 35  1  0
  6 36  1  0
  8 37  1  0
 15 38  1  0
 16 39  1  0
 18 40  1  0
 19 41  1  0
 22 42  1  0
 25 43  1  0
 28 44  1  0
 28 45  1  0
 28 46  1  0
M  END
$$$$
[H]/C(=C1\c2c([H])c([H])c([H])c([H])c2OC1([H])[H])c1sc(N([H])C(=O)c2c([H])nn(C([H])([H])[H])c2[H])c([H])c1[H]
     RDKit          3D

 39 42  0  0  0  0  0  0  0  0999 V2000
    8.3758   -1.2584    0.2843 C   0  0  0  0  0  0  0  0  0  0  0  0
    7.2109   -0.3722    0.3655 N   0  0  0  0  0  0  0  0  0  0  0  0
    5.9858   -0.6020   -0.1568 C   0  0  0  0  0  0  0  0  0  0  0  0
    5.1792    0.4727    0.1385 C   0  0  0  0  0  0  0  0  0  0  0  0
    5.9604    1.3668    0.8618 C   0  0  0  0  0  0  0  0  0  0  0  0
    7.1647    0.8095    0.9669 N   0  0  0  0  0  0  0  0  0  0  0  0
    3.7786    0.6621   -0.2324 C   0  0  0  0  0  0  0  0  0  0  0  0
    3.5775    1.0796   -1.4287 O   0  0  0  0  0  0  0  0  0  0  0  0
    2.7434    0.3977    0.6691 N   0  0  0  0  0  0  0  0  0  0  0  0
    1.3389    0.5450    0.4270 C   0  0  0  0  0  0  0  0  0  0  0  0
    0.6528    0.9829   -0.6713 C   0  0  0  0  0  0  0  0  0  0  0  0
   -0.6819    1.0055   -0.6186 C   0  0  0  0  0  0  0  0  0  0  0  0
   -1.2876    0.5885    0.5309 C   0  0  0  0  0  0  0  0  0  0  0  0
   -2.7069    0.4996    0.8413 C   0  0  0  0  0  0  0  0  0  0  0  0
   -3.5765    0.0517   -0.0358 C   0  0  0  0  0  0  0  0  0  0  0  0
   -3.2647   -0.4060   -1.3962 C   0  0  0  0  0  0  0  0  0  0  0  0
   -4.2957   -1.3607   -1.6092 O   0  0  0  0  0  0  0  0  0  0  0  0
   -5.4337   -0.9799   -0.8758 C   0  0  0  0  0  0  0  0  0  0  0  0
   -6.7629   -1.3078   -0.9722 C   0  0  0  0  0  0  0  0  0  0  0  0
   -7.7005   -0.7890   -0.1158 C   0  0  0  0  0  0  0  0  0  0  0  0
   -7.2515    0.0915    0.8652 C   0  0  0  0  0  0  0  0  0  0  0  0
   -5.9233    0.4319    0.9769 C   0  0  0  0  0  0  0  0  0  0  0  0
   -5.0234   -0.1042    0.1082 C   0  0  0  0  0  0  0  0  0  0  0  0
    0.0414    0.1731    1.5176 S   0  0  0  0  0  0  0  0  0  0  0  0
    8.2767   -2.0154   -0.4940 H   0  0  0  0  0  0  0  0  0  0  0  0
    9.2597   -0.6045    0.0799 H   0  0  0  0  0  0  0  0  0  0  0  0
    8.4644   -1.7367    1.2829 H   0  0  0  0  0  0  0  0  0  0  0  0
    5.6945   -1.4844   -0.7128 H   0  0  0  0  0  0  0  0  0  0  0  0
    5.5924    2.3122    1.2327 H   0  0  0  0  0  0  0  0  0  0  0  0
    2.9877    0.0508    1.6397 H   0  0  0  0  0  0  0  0  0  0  0  0
    1.2295    1.3066   -1.5672 H   0  0  0  0  0  0  0  0  0  0  0  0
   -1.3052    1.3549   -1.4731 H   0  0  0  0  0  0  0  0  0  0  0  0
   -3.1127    0.7979    1.8107 H   0  0  0  0  0  0  0  0  0  0  0  0
   -3.4322    0.4082   -2.1126 H   0  0  0  0  0  0  0  0  0  0  0  0
   -2.2992   -0.9229   -1.4862 H   0  0  0  0  0  0  0  0  0  0  0  0
   -7.0911   -1.9883   -1.7349 H   0  0  0  0  0  0  0  0  0  0  0  0
   -8.7472   -1.0519   -0.1985 H   0  0  0  0  0  0  0  0  0  0  0  0
   -8.0046    0.4889    1.5299 H   0  0  0  0  0  0  0  0  0  0  0  0
   -5.6135    1.1067    1.7375 H   0  0  0  0  0  0  0  0  0  0  0  0
  1  2  1  0
  2  3  1  0
  3  4  2  0
  4  5  1  0
  5  6  2  0
  4  7  1  0
  7  8  2  0
  7  9  1  0
  9 10  1  0
 10 11  2  0
 11 12  1  0
 12 13  2  0
 13 14  1  0
 14 15  2  0
 15 16  1  0
 16 17  1  0
 17 18  1  0
 18 19  2  0
 19 20  1  0
 20 21  2  0
 21 22  1  0
 22 23  2  0
 13 24  1  0
  6  2  1  0
 24 10  1  0
 23 15  1  0
 23 18  1  0
  1 25  1  0
  1 26  1  0
  1 27  1  0
  3 28  1  0
  5 29  1  0
  9 30  1  0
 11 31  1  0
 12 32  1  0
 14 33  1  0
 16 34  1  0
 16 35  1  0
 19 36  1  0
 20 37  1  0
 21 38  1  0
 22 39  1  0
M  END
$$$$
[H]ON1C([H])=Nc2c([H])c([H])c([H])c([H])c2[C@@]1([H])C1([H])C([H])([H])C([H])([H])N(S(=O)(=O)C([H])(C([H])([H])[H])C([H])([H])[H])C([H])([H])C1([H])[H]
     RDKit          3D

 46 48  0  0  0  0  0  0  0  0999 V2000
    3.5573   -1.7159   -1.1423 C   0  0  0  0  0  0  0  0  0  0  0  0
    3.9646   -0.6329   -0.2094 C   0  0  0  0  0  0  0  0  0  0  0  0
    5.5040   -0.5404   -0.2799 C   0  0  0  0  0  0  0  0  0  0  0  0
    3.3788    0.9705   -0.6025 S   0  0  0  0  0  0  0  0  0  0  0  0
    4.1717    1.9520    0.2418 O   0  0  0  0  0  0  0  0  0  0  0  0
    3.6934    1.2539   -2.0497 O   0  0  0  0  0  0  0  0  0  0  0  0
    1.7005    1.2068   -0.3618 N   0  0  0  0  0  0  0  0  0  0  0  0
    0.9678    0.3310   -1.1942 C   0  0  0  0  0  0  0  0  0  0  0  0
   -0.5303    0.5870   -1.1795 C   0  0  0  0  0  0  0  0  0  0  0  0
   -0.8943    1.0557    0.2111 C   0  0  0  0  0  0  0  0  0  0  0  0
    0.0326    0.4553    1.1712 C   0  0  0  0  0  0  0  0  0  0  0  0
    1.4113    1.1435    1.0265 C   0  0  0  0  0  0  0  0  0  0  0  0
   -2.3632    1.0597    0.4690 C   0  0  1  0  0  0  0  0  0  0  0  0
   -3.0827    1.9669   -0.3591 N   0  0  0  0  0  0  0  0  0  0  0  0
   -2.9167    3.3377   -0.2410 O   0  0  0  0  0  0  0  0  0  0  0  0
   -3.9958    1.5493   -1.3355 C   0  0  0  0  0  0  0  0  0  0  0  0
   -4.4540    0.3478   -1.4265 N   0  0  0  0  0  0  0  0  0  0  0  0
   -3.9378   -0.5719   -0.4244 C   0  0  0  0  0  0  0  0  0  0  0  0
   -4.5156   -1.8668   -0.4139 C   0  0  0  0  0  0  0  0  0  0  0  0
   -4.1887   -2.7795    0.5416 C   0  0  0  0  0  0  0  0  0  0  0  0
   -3.2810   -2.3956    1.4899 C   0  0  0  0  0  0  0  0  0  0  0  0
   -2.6982   -1.1653    1.5208 C   0  0  0  0  0  0  0  0  0  0  0  0
   -3.0358   -0.2287    0.5332 C   0  0  0  0  0  0  0  0  0  0  0  0
    3.1670   -1.3599   -2.1165 H   0  0  0  0  0  0  0  0  0  0  0  0
    4.4210   -2.3667   -1.3726 H   0  0  0  0  0  0  0  0  0  0  0  0
    2.8352   -2.3820   -0.6081 H   0  0  0  0  0  0  0  0  0  0  0  0
    3.7631   -0.9067    0.8475 H   0  0  0  0  0  0  0  0  0  0  0  0
    5.9678   -1.5226   -0.1895 H   0  0  0  0  0  0  0  0  0  0  0  0
    5.7560   -0.1221   -1.2819 H   0  0  0  0  0  0  0  0  0  0  0  0
    5.8672    0.2040    0.4637 H   0  0  0  0  0  0  0  0  0  0  0  0
    1.1343   -0.7176   -0.8655 H   0  0  0  0  0  0  0  0  0  0  0  0
    1.3423    0.4168   -2.2344 H   0  0  0  0  0  0  0  0  0  0  0  0
   -0.7003    1.3801   -1.9504 H   0  0  0  0  0  0  0  0  0  0  0  0
   -1.0178   -0.3699   -1.4455 H   0  0  0  0  0  0  0  0  0  0  0  0
   -0.6045    2.1616    0.1680 H   0  0  0  0  0  0  0  0  0  0  0  0
   -0.2101    0.6363    2.2440 H   0  0  0  0  0  0  0  0  0  0  0  0
    0.3013   -0.6051    0.9805 H   0  0  0  0  0  0  0  0  0  0  0  0
    2.1528    0.5102    1.5377 H   0  0  0  0  0  0  0  0  0  0  0  0
    1.2906    2.1364    1.5099 H   0  0  0  0  0  0  0  0  0  0  0  0
   -2.4667    1.4872    1.5224 H   0  0  0  0  0  0  0  0  0  0  0  0
   -2.3260    3.6167   -0.9981 H   0  0  0  0  0  0  0  0  0  0  0  0
   -4.3387    2.3159   -2.0756 H   0  0  0  0  0  0  0  0  0  0  0  0
   -5.2367   -2.0942   -1.2127 H   0  0  0  0  0  0  0  0  0  0  0  0
   -4.6170   -3.7472    0.5536 H   0  0  0  0  0  0  0  0  0  0  0  0
   -2.9950   -3.1095    2.2793 H   0  0  0  0  0  0  0  0  0  0  0  0
   -1.9736   -0.8820    2.3040 H   0  0  0  0  0  0  0  0  0  0  0  0
  1  2  1  0
  2  3  1  0
  2  4  1  0
  4  5  2  0
  4  6  2  0
  4  7  1  0
  7  8  1  0
  8  9  1  0
  9 10  1  0
 10 11  1  0
 11 12  1  0
 10 13  1  0
 13 14  1  0
 14 15  1  0
 14 16  1  0
 16 17  2  0
 17 18  1  0
 18 19  2  0
 19 20  1  0
 20 21  2  0
 21 22  1  0
 22 23  2  0
 12  7  1  0
 23 13  1  0
 23 18  1  0
  1 24  1  0
  1 25  1  0
  1 26  1  0
  2 27  1  0
  3 28  1  0
  3 29  1  0
  3 30  1  0
  8 31  1  0
  8 32  1  0
  9 33  1  0
  9 34  1  0
 10 35  1  0
 11 36  1  0
 11 37  1  0
 12 38  1  0
 12 39  1  0
 13 40  1  1
 15 41  1  0
 16 42  1  0
 19 43  1  0
 20 44  1  0
 21 45  1  0
 22 46  1  0
M  END
$$$$
[H]c1c([H])c(C([H])([H])[H])c(S(=O)(=O)N([H])C(C([H])([H])[H])(C([H])([H])[H])C([H])([H])[H])c([H])c1C([H])([H])[H]
     RDKit          3D

 35 35  0  0  0  0  0  0  0  0999 V2000
    1.1988   -2.3747   -0.5975 C   0  0  0  0  0  0  0  0  0  0  0  0
    1.7162   -1.0277   -0.2612 C   0  0  0  0  0  0  0  0  0  0  0  0
    2.8578   -0.5483   -0.9097 C   0  0  0  0  0  0  0  0  0  0  0  0
    3.3488    0.6996   -0.6008 C   0  0  0  0  0  0  0  0  0  0  0  0
    2.7154    1.4790    0.3491 C   0  0  0  0  0  0  0  0  0  0  0  0
    3.2581    2.8249    0.6718 C   0  0  0  0  0  0  0  0  0  0  0  0
    1.5918    0.9841    0.9743 C   0  0  0  0  0  0  0  0  0  0  0  0
    1.0573   -0.2808    0.6907 C   0  0  0  0  0  0  0  0  0  0  0  0
   -0.3561   -0.8742    1.5122 S   0  0  0  0  0  0  0  0  0  0  0  0
   -0.8021    0.2190    2.4905 O   0  0  0  0  0  0  0  0  0  0  0  0
   -0.0145   -2.0587    2.3907 O   0  0  0  0  0  0  0  0  0  0  0  0
   -1.6789   -1.2598    0.5661 N   0  0  0  0  0  0  0  0  0  0  0  0
   -2.3131   -0.2686   -0.2034 C   0  0  0  0  0  0  0  0  0  0  0  0
   -1.4983    0.3502   -1.3045 C   0  0  0  0  0  0  0  0  0  0  0  0
   -2.9138    0.7958    0.7008 C   0  0  0  0  0  0  0  0  0  0  0  0
   -3.5279   -0.9246   -0.8858 C   0  0  0  0  0  0  0  0  0  0  0  0
    2.0854   -3.0030   -0.9092 H   0  0  0  0  0  0  0  0  0  0  0  0
    0.6286   -2.8695    0.1804 H   0  0  0  0  0  0  0  0  0  0  0  0
    0.6173   -2.2591   -1.5573 H   0  0  0  0  0  0  0  0  0  0  0  0
    3.3362   -1.1717   -1.6468 H   0  0  0  0  0  0  0  0  0  0  0  0
    4.2467    1.0977   -1.0991 H   0  0  0  0  0  0  0  0  0  0  0  0
    3.0318    3.5623   -0.1229 H   0  0  0  0  0  0  0  0  0  0  0  0
    2.7516    3.2104    1.5915 H   0  0  0  0  0  0  0  0  0  0  0  0
    4.3404    2.7549    0.8948 H   0  0  0  0  0  0  0  0  0  0  0  0
    1.0630    1.5732    1.7326 H   0  0  0  0  0  0  0  0  0  0  0  0
   -2.2064   -2.1057    0.7902 H   0  0  0  0  0  0  0  0  0  0  0  0
   -0.8031    1.1306   -0.9874 H   0  0  0  0  0  0  0  0  0  0  0  0
   -2.1953    0.7935   -2.0622 H   0  0  0  0  0  0  0  0  0  0  0  0
   -0.9376   -0.4550   -1.8296 H   0  0  0  0  0  0  0  0  0  0  0  0
   -2.2183    1.6510    0.6807 H   0  0  0  0  0  0  0  0  0  0  0  0
   -3.8817    1.1760    0.2758 H   0  0  0  0  0  0  0  0  0  0  0  0
   -3.1447    0.4195    1.7057 H   0  0  0  0  0  0  0  0  0  0  0  0
   -3.1348   -1.3812   -1.8287 H   0  0  0  0  0  0  0  0  0  0  0  0
   -4.2655   -0.1348   -1.1117 H   0  0  0  0  0  0  0  0  0  0  0  0
   -3.9528   -1.7241   -0.2799 H   0  0  0  0  0  0  0  0  0  0  0  0
  1  2  1  0
  2  3  2  0
  3  4  1  0
  4  5  2  0
  5  6  1  0
  5  7  1  0
  7  8  2  0
  8  9  1  0
  9 10  2  0
  9 11  2  0
  9 12  1  0
 12 13  1  0
 13 14  1  0
 13 15  1  0
 13 16  1  0
  8  2  1  0
  1 17  1  0
  1 18  1  0
  1 19  1  0
  3 20  1  0
  4 21  1  0
  6 22  1  0
  6 23  1  0
  6 24  1  0
  7 25  1  0
 12 26  1  0
 14 27  1  0
 14 28  1  0
 14 29  1  0
 15 30  1  0
 15 31  1  0
 15 32  1  0
 16 33  1  0
 16 34  1  0
 16 35  1  0
M  END
$$$$
[H]c1nc(C([H])([H])N2C([H])([H])C([H])([H])C([H])([H])C2([H])[H])c([H])c([H])c1-c1nc(C2([H])C([H])([H])C([H])([H])N(C(=O)C([H])([H])C([H])([H])C([H])([H])N(C([H])([H])[H])C([H])([H])[H])C([H])([H])C2([H])[H])nc(C(=O)N([H])[H])c1[H]
     RDKit          3D

 72 75  0  0  0  0  0  0  0  0999 V2000
   -9.2669    1.8503    1.0538 C   0  0  0  0  0  0  0  0  0  0  0  0
   -8.8062    2.1206   -0.2935 N   0  0  0  0  0  0  0  0  0  0  0  0
   -8.7266    3.5764   -0.4335 C   0  0  0  0  0  0  0  0  0  0  0  0
   -7.4448    1.6195   -0.4553 C   0  0  0  0  0  0  0  0  0  0  0  0
   -7.4739    0.1337   -0.4101 C   0  0  0  0  0  0  0  0  0  0  0  0
   -6.1736   -0.5631   -0.5641 C   0  0  0  0  0  0  0  0  0  0  0  0
   -5.1599   -0.2639    0.4628 C   0  0  0  0  0  0  0  0  0  0  0  0
   -5.3970    0.4458    1.4778 O   0  0  0  0  0  0  0  0  0  0  0  0
   -3.8532   -0.7941    0.3157 N   0  0  0  0  0  0  0  0  0  0  0  0
   -3.5609   -1.5978   -0.8432 C   0  0  0  0  0  0  0  0  0  0  0  0
   -2.1639   -2.0662   -0.9889 C   0  0  0  0  0  0  0  0  0  0  0  0
   -1.1578   -1.2744   -0.2313 C   0  0  0  0  0  0  0  0  0  0  0  0
   -1.6091   -1.2798    1.2258 C   0  0  0  0  0  0  0  0  0  0  0  0
   -2.8829   -0.4993    1.3459 C   0  0  0  0  0  0  0  0  0  0  0  0
    0.1752   -1.8915   -0.2644 C   0  0  0  0  0  0  0  0  0  0  0  0
    0.3562   -3.2172   -0.1769 N   0  0  0  0  0  0  0  0  0  0  0  0
    1.5928   -3.7376   -0.1997 C   0  0  0  0  0  0  0  0  0  0  0  0
    2.7096   -2.9289   -0.3130 C   0  0  0  0  0  0  0  0  0  0  0  0
    2.5245   -1.5721   -0.4021 C   0  0  0  0  0  0  0  0  0  0  0  0
    1.2610   -1.1132   -0.3740 N   0  0  0  0  0  0  0  0  0  0  0  0
    3.6521   -0.6357   -0.5164 C   0  0  0  0  0  0  0  0  0  0  0  0
    3.3363    0.7189   -0.5979 C   0  0  0  0  0  0  0  0  0  0  0  0
    4.3809    1.6085   -0.6981 C   0  0  0  0  0  0  0  0  0  0  0  0
    5.6791    1.1730   -0.7169 C   0  0  0  0  0  0  0  0  0  0  0  0
    6.8043    2.1558   -0.8222 C   0  0  0  0  0  0  0  0  0  0  0  0
    7.2674    2.5841    0.4602 N   0  0  0  0  0  0  0  0  0  0  0  0
    8.3659    3.5083    0.2552 C   0  0  0  0  0  0  0  0  0  0  0  0
    9.4889    2.5282   -0.1101 C   0  0  0  0  0  0  0  0  0  0  0  0
    9.1229    1.2225    0.5754 C   0  0  0  0  0  0  0  0  0  0  0  0
    7.8501    1.5673    1.2723 C   0  0  0  0  0  0  0  0  0  0  0  0
    5.9420   -0.1248   -0.6378 N   0  0  0  0  0  0  0  0  0  0  0  0
    4.9642   -1.0301   -0.5388 C   0  0  0  0  0  0  0  0  0  0  0  0
    1.7782   -5.2006   -0.1052 C   0  0  0  0  0  0  0  0  0  0  0  0
    0.6748   -6.0751    0.0141 N   0  0  0  0  0  0  0  0  0  0  0  0
    2.9325   -5.6870   -0.1310 O   0  0  0  0  0  0  0  0  0  0  0  0
   -9.6845    0.8321    1.1658 H   0  0  0  0  0  0  0  0  0  0  0  0
   -8.4597    2.0625    1.7871 H   0  0  0  0  0  0  0  0  0  0  0  0
  -10.0738    2.5964    1.2559 H   0  0  0  0  0  0  0  0  0  0  0  0
   -8.3316    3.8615   -1.4234 H   0  0  0  0  0  0  0  0  0  0  0  0
   -9.7380    4.0082   -0.2242 H   0  0  0  0  0  0  0  0  0  0  0  0
   -8.0642    3.9083    0.4038 H   0  0  0  0  0  0  0  0  0  0  0  0
   -6.8834    2.0381    0.4006 H   0  0  0  0  0  0  0  0  0  0  0  0
   -7.0981    2.0300   -1.4280 H   0  0  0  0  0  0  0  0  0  0  0  0
   -8.0385   -0.1672    0.4976 H   0  0  0  0  0  0  0  0  0  0  0  0
   -8.1260   -0.2147   -1.2631 H   0  0  0  0  0  0  0  0  0  0  0  0
   -6.3904   -1.6682   -0.4631 H   0  0  0  0  0  0  0  0  0  0  0  0
   -5.7663   -0.4593   -1.5943 H   0  0  0  0  0  0  0  0  0  0  0  0
   -4.2242   -2.5037   -0.8505 H   0  0  0  0  0  0  0  0  0  0  0  0
   -3.8026   -0.9436   -1.7283 H   0  0  0  0  0  0  0  0  0  0  0  0
   -2.0273   -3.1498   -0.7588 H   0  0  0  0  0  0  0  0  0  0  0  0
   -1.8742   -1.9917   -2.0778 H   0  0  0  0  0  0  0  0  0  0  0  0
   -1.1460   -0.2239   -0.5489 H   0  0  0  0  0  0  0  0  0  0  0  0
   -1.6638   -2.2987    1.6160 H   0  0  0  0  0  0  0  0  0  0  0  0
   -0.8217   -0.7431    1.7939 H   0  0  0  0  0  0  0  0  0  0  0  0
   -3.2993   -0.6869    2.3599 H   0  0  0  0  0  0  0  0  0  0  0  0
   -2.6074    0.5831    1.2175 H   0  0  0  0  0  0  0  0  0  0  0  0
    3.7033   -3.3837   -0.3296 H   0  0  0  0  0  0  0  0  0  0  0  0
    2.3000    1.0647   -0.5823 H   0  0  0  0  0  0  0  0  0  0  0  0
    4.1166    2.6732   -0.7615 H   0  0  0  0  0  0  0  0  0  0  0  0
    7.6067    1.7489   -1.4728 H   0  0  0  0  0  0  0  0  0  0  0  0
    6.4379    3.0784   -1.3546 H   0  0  0  0  0  0  0  0  0  0  0  0
    8.6596    4.0467    1.1797 H   0  0  0  0  0  0  0  0  0  0  0  0
    8.1418    4.1794   -0.5839 H   0  0  0  0  0  0  0  0  0  0  0  0
    9.5871    2.3996   -1.1944 H   0  0  0  0  0  0  0  0  0  0  0  0
   10.4331    2.9105    0.3218 H   0  0  0  0  0  0  0  0  0  0  0  0
    9.0346    0.3844   -0.1326 H   0  0  0  0  0  0  0  0  0  0  0  0
    9.8942    0.9597    1.3278 H   0  0  0  0  0  0  0  0  0  0  0  0
    7.1902    0.7019    1.4716 H   0  0  0  0  0  0  0  0  0  0  0  0
    8.1033    2.0205    2.2521 H   0  0  0  0  0  0  0  0  0  0  0  0
    5.2002   -2.1069   -0.4738 H   0  0  0  0  0  0  0  0  0  0  0  0
    0.2914   -6.4693   -0.8823 H   0  0  0  0  0  0  0  0  0  0  0  0
    0.2392   -6.3379    0.9198 H   0  0  0  0  0  0  0  0  0  0  0  0
  1  2  1  0
  2  3  1  0
  2  4  1  0
  4  5  1  0
  5  6  1  0
  6  7  1  0
  7  8  2  0
  7  9  1  0
  9 10  1  0
 10 11  1  0
 11 12  1  0
 12 13  1  0
 13 14  1  0
 12 15  1  0
 15 16  2  0
 16 17  1  0
 17 18  2  0
 18 19  1  0
 19 20  2  0
 19 21  1  0
 21 22  2  0
 22 23  1  0
 23 24  2  0
 24 25  1  0
 25 26  1  0
 26 27  1  0
 27 28  1  0
 28 29  1  0
 29 30  1  0
 24 31  1  0
 31 32  2  0
 17 33  1  0
 33 34  1  0
 33 35  2  0
 14  9  1  0
 20 15  1  0
 32 21  1  0
 30 26  1  0
  1 36  1  0
  1 37  1  0
  1 38  1  0
  3 39  1  0
  3 40  1  0
  3 41  1  0
  4 42  1  0
  4 43  1  0
  5 44  1  0
  5 45  1  0
  6 46  1  0
  6 47  1  0
 10 48  1  0
 10 49  1  0
 11 50  1  0
 11 51  1  0
 12 52  1  0
 13 53  1  0
 13 54  1  0
 14 55  1  0
 14 56  1  0
 18 57  1  0
 22 58  1  0
 23 59  1  0
 25 60  1  0
 25 61  1  0
 27 62  1  0
 27 63  1  0
 28 64  1  0
 28 65  1  0
 29 66  1  0
 29 67  1  0
 30 68  1  0
 30 69  1  0
 32 70  1  0
 34 71  1  0
 34 72  1  0
M  END
$$$$
[H]c1c([H])c(N([H])C(=O)c2nn([H])c3c([H])c(C([H])([H])C([H])([H])[H])c([H])c([H])c23)c([H])c(OC([H])([H])[H])c1OC([H])([H])[H]
     RDKit          3D

 43 45  0  0  0  0  0  0  0  0999 V2000
   -6.5757    1.1237    1.5437 C   0  0  0  0  0  0  0  0  0  0  0  0
   -6.0861    1.4755    0.1520 C   0  0  0  0  0  0  0  0  0  0  0  0
   -4.7994    0.7216   -0.0494 C   0  0  0  0  0  0  0  0  0  0  0  0
   -3.5894    1.2543    0.2884 C   0  0  0  0  0  0  0  0  0  0  0  0
   -2.4053    0.5781    0.1101 C   0  0  0  0  0  0  0  0  0  0  0  0
   -2.3883   -0.7001   -0.4326 C   0  0  0  0  0  0  0  0  0  0  0  0
   -1.4145   -1.6178   -0.7191 C   0  0  0  0  0  0  0  0  0  0  0  0
   -2.0937   -2.6886   -1.2237 N   0  0  0  0  0  0  0  0  0  0  0  0
   -3.3739   -2.4629   -1.2533 N   0  0  0  0  0  0  0  0  0  0  0  0
   -3.6463   -1.2159   -0.7662 C   0  0  0  0  0  0  0  0  0  0  0  0
   -4.8244   -0.5336   -0.5846 C   0  0  0  0  0  0  0  0  0  0  0  0
    0.0197   -1.5008   -0.5992 C   0  0  0  0  0  0  0  0  0  0  0  0
    0.6130   -2.6549   -0.5507 O   0  0  0  0  0  0  0  0  0  0  0  0
    0.8033   -0.3621   -0.5373 N   0  0  0  0  0  0  0  0  0  0  0  0
    2.2150   -0.3722   -0.4233 C   0  0  0  0  0  0  0  0  0  0  0  0
    2.9931   -1.3677   -0.9501 C   0  0  0  0  0  0  0  0  0  0  0  0
    4.3888   -1.3543   -0.7844 C   0  0  0  0  0  0  0  0  0  0  0  0
    4.9767   -0.3238   -0.0831 C   0  0  0  0  0  0  0  0  0  0  0  0
    6.3476   -0.2596    0.1111 O   0  0  0  0  0  0  0  0  0  0  0  0
    7.1418   -1.2944   -0.4369 C   0  0  0  0  0  0  0  0  0  0  0  0
    4.1858    0.6854    0.4495 C   0  0  0  0  0  0  0  0  0  0  0  0
    4.8327    1.6965    1.1449 O   0  0  0  0  0  0  0  0  0  0  0  0
    4.0397    2.7309    1.6928 C   0  0  0  0  0  0  0  0  0  0  0  0
    2.8247    0.6796    0.2930 C   0  0  0  0  0  0  0  0  0  0  0  0
   -7.5948    1.5279    1.7022 H   0  0  0  0  0  0  0  0  0  0  0  0
   -6.5300    0.0156    1.6384 H   0  0  0  0  0  0  0  0  0  0  0  0
   -5.8401    1.5412    2.2627 H   0  0  0  0  0  0  0  0  0  0  0  0
   -5.9513    2.5583    0.0125 H   0  0  0  0  0  0  0  0  0  0  0  0
   -6.8036    1.0925   -0.6016 H   0  0  0  0  0  0  0  0  0  0  0  0
   -3.5520    2.2487    0.7144 H   0  0  0  0  0  0  0  0  0  0  0  0
   -1.4683    1.0201    0.4086 H   0  0  0  0  0  0  0  0  0  0  0  0
   -4.1397   -3.1063   -1.5912 H   0  0  0  0  0  0  0  0  0  0  0  0
   -5.7747   -0.9827   -0.8625 H   0  0  0  0  0  0  0  0  0  0  0  0
    0.3896    0.6151   -0.6025 H   0  0  0  0  0  0  0  0  0  0  0  0
    2.6016   -2.1987   -1.5336 H   0  0  0  0  0  0  0  0  0  0  0  0
    4.9698   -2.1548   -1.2121 H   0  0  0  0  0  0  0  0  0  0  0  0
    8.2138   -1.1541   -0.2426 H   0  0  0  0  0  0  0  0  0  0  0  0
    6.9347   -1.3024   -1.5455 H   0  0  0  0  0  0  0  0  0  0  0  0
    6.8074   -2.3012   -0.0731 H   0  0  0  0  0  0  0  0  0  0  0  0
    4.6385    3.4902    2.2191 H   0  0  0  0  0  0  0  0  0  0  0  0
    3.4236    3.1509    0.8710 H   0  0  0  0  0  0  0  0  0  0  0  0
    3.3053    2.2324    2.3817 H   0  0  0  0  0  0  0  0  0  0  0  0
    2.1850    1.4705    0.7081 H   0  0  0  0  0  0  0  0  0  0  0  0
  1  2  1  0
  2  3  1  0
  3  4  2  0
  4  5  1  0
  5  6  2  0
  6  7  1  0
  7  8  2  0
  8  9  1  0
  9 10  1  0
 10 11  2  0
  7 12  1  0
 12 13  2  0
 12 14  1  0
 14 15  1  0
 15 16  2  0
 16 17  1  0
 17 18  2  0
 18 19  1  0
 19 20  1  0
 18 21  1  0
 21 22  1  0
 22 23  1  0
 21 24  2  0
 11  3  1  0
 24 15  1  0
 10  6  1  0
  1 25  1  0
  1 26  1  0
  1 27  1  0
  2 28  1  0
  2 29  1  0
  4 30  1  0
  5 31  1  0
  9 32  1  0
 11 33  1  0
 14 34  1  0
 16 35  1  0
 17 36  1  0
 20 37  1  0
 20 38  1  0
 20 39  1  0
 23 40  1  0
 23 41  1  0
 23 42  1  0
 24 43  1  0
M  END
$$$$
[H]c1c([H])c(N([H])S(=O)(=O)C([H])([H])[H])c(C(=O)N2C([H])([H])C([H])([H])N(C(=O)c3c([H])c([H])c(N([H])[H])c([H])c3[H])C([H])([H])C2([H])[H])c([H])c1Cl
     RDKit          3D

 50 52  0  0  0  0  0  0  0  0999 V2000
    7.4855    1.0419   -0.2225 C   0  0  0  0  0  0  0  0  0  0  0  0
    5.8693    1.8185   -0.1650 S   0  0  0  0  0  0  0  0  0  0  0  0
    5.3470    2.0002   -1.5828 O   0  0  0  0  0  0  0  0  0  0  0  0
    6.0655    3.1909    0.4053 O   0  0  0  0  0  0  0  0  0  0  0  0
    4.7484    0.8971    0.7499 N   0  0  0  0  0  0  0  0  0  0  0  0
    4.3510   -0.4179    0.4187 C   0  0  0  0  0  0  0  0  0  0  0  0
    5.2866   -1.4342    0.4160 C   0  0  0  0  0  0  0  0  0  0  0  0
    4.9280   -2.7319    0.1497 C   0  0  0  0  0  0  0  0  0  0  0  0
    3.6255   -3.0546   -0.1218 C   0  0  0  0  0  0  0  0  0  0  0  0
    3.1628   -4.7318   -0.4646 Cl  0  0  0  0  0  0  0  0  0  0  0  0
    2.6610   -2.0402   -0.1251 C   0  0  0  0  0  0  0  0  0  0  0  0
    3.0106   -0.7389    0.1391 C   0  0  0  0  0  0  0  0  0  0  0  0
    2.0517    0.3220    0.0921 C   0  0  0  0  0  0  0  0  0  0  0  0
    2.5775    1.5206    0.2870 O   0  0  0  0  0  0  0  0  0  0  0  0
    0.6913    0.3025   -0.1178 N   0  0  0  0  0  0  0  0  0  0  0  0
    0.0321    1.6609   -0.0766 C   0  0  0  0  0  0  0  0  0  0  0  0
   -1.0269    1.4728    0.9941 C   0  0  0  0  0  0  0  0  0  0  0  0
   -2.0955    0.7078    0.2807 N   0  0  0  0  0  0  0  0  0  0  0  0
   -1.6616   -0.3034   -0.5971 C   0  0  0  0  0  0  0  0  0  0  0  0
   -0.1973   -0.7475   -0.3584 C   0  0  0  0  0  0  0  0  0  0  0  0
   -3.3895    1.0679    0.6087 C   0  0  0  0  0  0  0  0  0  0  0  0
   -3.5479    1.9890    1.5322 O   0  0  0  0  0  0  0  0  0  0  0  0
   -4.6271    0.5666    0.0738 C   0  0  0  0  0  0  0  0  0  0  0  0
   -4.7961   -0.2218   -1.0330 C   0  0  0  0  0  0  0  0  0  0  0  0
   -6.0596   -0.7026   -1.4263 C   0  0  0  0  0  0  0  0  0  0  0  0
   -7.2039   -0.4120   -0.7284 C   0  0  0  0  0  0  0  0  0  0  0  0
   -8.4697   -0.9093   -1.1446 N   0  0  0  0  0  0  0  0  0  0  0  0
   -7.0550    0.3793    0.3845 C   0  0  0  0  0  0  0  0  0  0  0  0
   -5.8215    0.8478    0.7686 C   0  0  0  0  0  0  0  0  0  0  0  0
    8.1887    1.8663   -0.5403 H   0  0  0  0  0  0  0  0  0  0  0  0
    7.7374    0.7601    0.8042 H   0  0  0  0  0  0  0  0  0  0  0  0
    7.5086    0.2185   -0.9502 H   0  0  0  0  0  0  0  0  0  0  0  0
    4.3766    1.3330    1.6195 H   0  0  0  0  0  0  0  0  0  0  0  0
    6.3396   -1.2046    0.6322 H   0  0  0  0  0  0  0  0  0  0  0  0
    5.6668   -3.5485    0.1452 H   0  0  0  0  0  0  0  0  0  0  0  0
    1.6796   -2.3889   -0.3436 H   0  0  0  0  0  0  0  0  0  0  0  0
   -0.4673    1.7466   -1.0542 H   0  0  0  0  0  0  0  0  0  0  0  0
    0.7474    2.4399    0.1614 H   0  0  0  0  0  0  0  0  0  0  0  0
   -1.3962    2.4263    1.3672 H   0  0  0  0  0  0  0  0  0  0  0  0
   -0.5930    0.8762    1.8031 H   0  0  0  0  0  0  0  0  0  0  0  0
   -1.6888    0.0010   -1.6459 H   0  0  0  0  0  0  0  0  0  0  0  0
   -2.2249   -1.2660   -0.4996 H   0  0  0  0  0  0  0  0  0  0  0  0
    0.0543   -1.2679   -1.3052 H   0  0  0  0  0  0  0  0  0  0  0  0
   -0.2496   -1.5169    0.4437 H   0  0  0  0  0  0  0  0  0  0  0  0
   -3.9497   -0.4615   -1.6492 H   0  0  0  0  0  0  0  0  0  0  0  0
   -6.1253   -1.3214   -2.3089 H   0  0  0  0  0  0  0  0  0  0  0  0
   -8.6038   -1.8109   -1.6393 H   0  0  0  0  0  0  0  0  0  0  0  0
   -9.3098   -0.3359   -0.9411 H   0  0  0  0  0  0  0  0  0  0  0  0
   -7.9225    0.6413    0.9729 H   0  0  0  0  0  0  0  0  0  0  0  0
   -5.7099    1.4735    1.6554 H   0  0  0  0  0  0  0  0  0  0  0  0
  1  2  1  0
  2  3  2  0
  2  4  2  0
  2  5  1  0
  5  6  1  0
  6  7  2  0
  7  8  1  0
  8  9  2  0
  9 10  1  0
  9 11  1  0
 11 12  2  0
 12 13  1  0
 13 14  2  0
 13 15  1  0
 15 16  1  0
 16 17  1  0
 17 18  1  0
 18 19  1  0
 19 20  1  0
 18 21  1  0
 21 22  2  0
 21 23  1  0
 23 24  2  0
 24 25  1  0
 25 26  2  0
 26 27  1  0
 26 28  1  0
 28 29  2  0
 12  6  1  0
 20 15  1  0
 29 23  1  0
  1 30  1  0
  1 31  1  0
  1 32  1  0
  5 33  1  0
  7 34  1  0
  8 35  1  0
 11 36  1  0
 16 37  1  0
 16 38  1  0
 17 39  1  0
 17 40  1  0
 19 41  1  0
 19 42  1  0
 20 43  1  0
 20 44  1  0
 24 45  1  0
 25 46  1  0
 27 47  1  0
 27 48  1  0
 28 49  1  0
 29 50  1  0
M  END
$$$$
[H]c1nc([H])c(-c2c([H])c(-c3c([H])c([H])c(OC([H])([H])[H])c([H])c3[H])nn2[H])c([H])n1
     RDKit          3D

 31 33  0  0  0  0  0  0  0  0999 V2000
   -5.9974   -0.9679   -1.0668 C   0  0  0  0  0  0  0  0  0  0  0  0
   -4.7744   -1.6051   -1.3824 O   0  0  0  0  0  0  0  0  0  0  0  0
   -3.6034   -1.0505   -0.9121 C   0  0  0  0  0  0  0  0  0  0  0  0
   -3.6080    0.1086   -0.1439 C   0  0  0  0  0  0  0  0  0  0  0  0
   -2.4237    0.6448    0.3153 C   0  0  0  0  0  0  0  0  0  0  0  0
   -1.2248    0.0441    0.0218 C   0  0  0  0  0  0  0  0  0  0  0  0
   -1.2285   -1.1012   -0.7380 C   0  0  0  0  0  0  0  0  0  0  0  0
   -2.4124   -1.6558   -1.2094 C   0  0  0  0  0  0  0  0  0  0  0  0
    0.0107    0.6075    0.5035 C   0  0  0  0  0  0  0  0  0  0  0  0
    1.2608    0.0779    0.2617 C   0  0  0  0  0  0  0  0  0  0  0  0
    2.2242    0.8569    0.8626 C   0  0  0  0  0  0  0  0  0  0  0  0
    1.5554    1.8480    1.4613 N   0  0  0  0  0  0  0  0  0  0  0  0
    0.2374    1.7014    1.2488 N   0  0  0  0  0  0  0  0  0  0  0  0
    3.6504    0.6129    0.8257 C   0  0  0  0  0  0  0  0  0  0  0  0
    4.1812   -0.4662    0.1566 C   0  0  0  0  0  0  0  0  0  0  0  0
    5.4930   -0.7434    0.0876 N   0  0  0  0  0  0  0  0  0  0  0  0
    6.3641    0.0663    0.7009 C   0  0  0  0  0  0  0  0  0  0  0  0
    5.8924    1.1348    1.3681 N   0  0  0  0  0  0  0  0  0  0  0  0
    4.5680    1.4326    1.4496 C   0  0  0  0  0  0  0  0  0  0  0  0
   -6.8398   -1.3975   -1.6593 H   0  0  0  0  0  0  0  0  0  0  0  0
   -6.2549   -1.1507   -0.0041 H   0  0  0  0  0  0  0  0  0  0  0  0
   -5.9625    0.1216   -1.2728 H   0  0  0  0  0  0  0  0  0  0  0  0
   -4.5363    0.6081    0.1061 H   0  0  0  0  0  0  0  0  0  0  0  0
   -2.4159    1.5401    0.9096 H   0  0  0  0  0  0  0  0  0  0  0  0
   -0.3039   -1.5939   -0.9839 H   0  0  0  0  0  0  0  0  0  0  0  0
   -2.3801   -2.5482   -1.7984 H   0  0  0  0  0  0  0  0  0  0  0  0
    1.4505   -0.8232   -0.3192 H   0  0  0  0  0  0  0  0  0  0  0  0
    1.9420    2.6359    2.0176 H   0  0  0  0  0  0  0  0  0  0  0  0
    3.4510   -1.1246   -0.3440 H   0  0  0  0  0  0  0  0  0  0  0  0
    7.4363   -0.1044    0.6816 H   0  0  0  0  0  0  0  0  0  0  0  0
    4.2488    2.2910    1.9909 H   0  0  0  0  0  0  0  0  0  0  0  0
  1  2  1  0
  2  3  1  0
  3  4  2  0
  4  5  1  0
  5  6  2  0
  6  7  1  0
  7  8  2  0
  6  9  1  0
  9 10  1  0
 10 11  2  0
 11 12  1  0
 12 13  1  0
 11 14  1  0
 14 15  2  0
 15 16  1  0
 16 17  2  0
 17 18  1  0
 18 19  2  0
  8  3  1  0
 13  9  2  0
 19 14  1  0
  1 20  1  0
  1 21  1  0
  1 22  1  0
  4 23  1  0
  5 24  1  0
  7 25  1  0
  8 26  1  0
 10 27  1  0
 12 28  1  0
 15 29  1  0
 17 30  1  0
 19 31  1  0
M  END
$$$$
[H]OC([H])([H])C1(C([H])([H])c2c([H])c([H])c(OC([H])([H])C([H])([H])N(C([H])([H])[H])C([H])([H])[H])c(-c3nc4c(-c5c([H])c([H])c6c(c([H])nn6[H])c5[H])c([H])c([H])nc4n3[H])c2[H])C([H])([H])OC1([H])[H]
     RDKit          3D

 67 72  0  0  0  0  0  0  0  0999 V2000
   -4.4566    5.6253    0.7112 C   0  0  0  0  0  0  0  0  0  0  0  0
   -3.6100    5.6061   -0.4294 N   0  0  0  0  0  0  0  0  0  0  0  0
   -2.8971    6.8044   -0.7185 C   0  0  0  0  0  0  0  0  0  0  0  0
   -2.9303    4.3818   -0.7026 C   0  0  0  0  0  0  0  0  0  0  0  0
   -1.8869    4.0263    0.3040 C   0  0  0  0  0  0  0  0  0  0  0  0
   -1.1837    2.8795    0.1412 O   0  0  0  0  0  0  0  0  0  0  0  0
   -1.4488    1.5607    0.1067 C   0  0  0  0  0  0  0  0  0  0  0  0
   -2.7481    1.1466    0.2903 C   0  0  0  0  0  0  0  0  0  0  0  0
   -3.1058   -0.1815    0.2711 C   0  0  0  0  0  0  0  0  0  0  0  0
   -2.1432   -1.1392    0.0635 C   0  0  0  0  0  0  0  0  0  0  0  0
   -2.5319   -2.5512    0.0420 C   0  0  0  0  0  0  0  0  0  0  0  0
   -2.4902   -3.2442    1.3624 C   0  0  0  0  0  0  0  0  0  0  0  0
   -2.9194   -4.6999    1.1847 C   0  0  0  0  0  0  0  0  0  0  0  0
   -2.0522   -5.3085    0.3070 O   0  0  0  0  0  0  0  0  0  0  0  0
   -1.2742   -3.0394    2.1977 C   0  0  0  0  0  0  0  0  0  0  0  0
   -1.9048   -1.9256    2.7710 O   0  0  0  0  0  0  0  0  0  0  0  0
   -3.1172   -2.5653    2.5221 C   0  0  0  0  0  0  0  0  0  0  0  0
   -0.8434   -0.7466   -0.1203 C   0  0  0  0  0  0  0  0  0  0  0  0
   -0.4839    0.6108   -0.1003 C   0  0  0  0  0  0  0  0  0  0  0  0
    0.9245    0.9740   -0.2984 C   0  0  0  0  0  0  0  0  0  0  0  0
    1.9318    0.0672   -0.5267 N   0  0  0  0  0  0  0  0  0  0  0  0
    3.1037    0.6963   -0.6694 C   0  0  0  0  0  0  0  0  0  0  0  0
    4.3681    0.1996   -0.9098 C   0  0  0  0  0  0  0  0  0  0  0  0
    5.4204    1.0992   -1.0142 C   0  0  0  0  0  0  0  0  0  0  0  0
    5.1604    2.4592   -0.8729 C   0  0  0  0  0  0  0  0  0  0  0  0
    3.8995    2.9006   -0.6370 N   0  0  0  0  0  0  0  0  0  0  0  0
    2.8638    2.0519   -0.5316 C   0  0  0  0  0  0  0  0  0  0  0  0
    1.5366    2.1601   -0.3102 N   0  0  0  0  0  0  0  0  0  0  0  0
    4.5277   -1.2417   -1.0398 C   0  0  0  0  0  0  0  0  0  0  0  0
    5.3006   -1.7458   -2.0813 C   0  0  0  0  0  0  0  0  0  0  0  0
    5.4907   -3.1010   -2.2542 C   0  0  0  0  0  0  0  0  0  0  0  0
    4.9201   -4.0143   -1.3982 C   0  0  0  0  0  0  0  0  0  0  0  0
    4.9302   -5.3730   -1.3193 N   0  0  0  0  0  0  0  0  0  0  0  0
    4.1962   -5.7235   -0.2740 N   0  0  0  0  0  0  0  0  0  0  0  0
    3.7061   -4.6277    0.3332 C   0  0  0  0  0  0  0  0  0  0  0  0
    4.1518   -3.5254   -0.3622 C   0  0  0  0  0  0  0  0  0  0  0  0
    3.9573   -2.1553   -0.1844 C   0  0  0  0  0  0  0  0  0  0  0  0
   -4.0216    6.0723    1.6039 H   0  0  0  0  0  0  0  0  0  0  0  0
   -5.3551    6.2575    0.4491 H   0  0  0  0  0  0  0  0  0  0  0  0
   -4.8626    4.6073    0.8595 H   0  0  0  0  0  0  0  0  0  0  0  0
   -2.8971    7.4690    0.1906 H   0  0  0  0  0  0  0  0  0  0  0  0
   -3.4949    7.3754   -1.4884 H   0  0  0  0  0  0  0  0  0  0  0  0
   -1.8630    6.6545   -1.1002 H   0  0  0  0  0  0  0  0  0  0  0  0
   -3.6593    3.6319   -0.9637 H   0  0  0  0  0  0  0  0  0  0  0  0
   -2.3565    4.5756   -1.6684 H   0  0  0  0  0  0  0  0  0  0  0  0
   -2.3532    4.0002    1.3378 H   0  0  0  0  0  0  0  0  0  0  0  0
   -1.1456    4.8780    0.4132 H   0  0  0  0  0  0  0  0  0  0  0  0
   -3.5762    1.8423    0.4774 H   0  0  0  0  0  0  0  0  0  0  0  0
   -4.1655   -0.4815    0.4218 H   0  0  0  0  0  0  0  0  0  0  0  0
   -3.5547   -2.6578   -0.3899 H   0  0  0  0  0  0  0  0  0  0  0  0
   -1.8745   -3.1472   -0.6581 H   0  0  0  0  0  0  0  0  0  0  0  0
   -3.0409   -5.2239    2.1363 H   0  0  0  0  0  0  0  0  0  0  0  0
   -3.9408   -4.6655    0.7131 H   0  0  0  0  0  0  0  0  0  0  0  0
   -2.4330   -6.1916    0.0698 H   0  0  0  0  0  0  0  0  0  0  0  0
   -0.3387   -2.8472    1.6751 H   0  0  0  0  0  0  0  0  0  0  0  0
   -1.2290   -3.8446    2.9848 H   0  0  0  0  0  0  0  0  0  0  0  0
   -3.3725   -3.3205    3.3224 H   0  0  0  0  0  0  0  0  0  0  0  0
   -3.9864   -1.9309    2.3571 H   0  0  0  0  0  0  0  0  0  0  0  0
   -0.0588   -1.4810   -0.2860 H   0  0  0  0  0  0  0  0  0  0  0  0
    6.3925    0.6974   -1.2013 H   0  0  0  0  0  0  0  0  0  0  0  0
    6.0041    3.1291   -0.9604 H   0  0  0  0  0  0  0  0  0  0  0  0
    1.1051    3.0939   -0.1719 H   0  0  0  0  0  0  0  0  0  0  0  0
    5.7455   -1.0217   -2.7497 H   0  0  0  0  0  0  0  0  0  0  0  0
    6.0971   -3.4910   -3.0723 H   0  0  0  0  0  0  0  0  0  0  0  0
    5.4403   -6.0033   -1.9849 H   0  0  0  0  0  0  0  0  0  0  0  0
    3.0741   -4.5558    1.2073 H   0  0  0  0  0  0  0  0  0  0  0  0
    3.3594   -1.7615    0.6230 H   0  0  0  0  0  0  0  0  0  0  0  0
  1  2  1  0
  2  3  1  0
  2  4  1  0
  4  5  1  0
  5  6  1  0
  6  7  1  0
  7  8  2  0
  8  9  1  0
  9 10  2  0
 10 11  1  0
 11 12  1  0
 12 13  1  0
 13 14  1  0
 12 15  1  0
 15 16  1  0
 16 17  1  0
 10 18  1  0
 18 19  2  0
 19 20  1  0
 20 21  2  0
 21 22  1  0
 22 23  2  0
 23 24  1  0
 24 25  2  0
 25 26  1  0
 26 27  2  0
 27 28  1  0
 23 29  1  0
 29 30  2  0
 30 31  1  0
 31 32  2  0
 32 33  1  0
 33 34  1  0
 34 35  2  0
 35 36  1  0
 36 37  2  0
 19  7  1  0
 28 20  1  0
 37 29  1  0
 17 12  1  0
 27 22  1  0
 36 32  1  0
  1 38  1  0
  1 39  1  0
  1 40  1  0
  3 41  1  0
  3 42  1  0
  3 43  1  0
  4 44  1  0
  4 45  1  0
  5 46  1  0
  5 47  1  0
  8 48  1  0
  9 49  1  0
 11 50  1  0
 11 51  1  0
 13 52  1  0
 13 53  1  0
 14 54  1  0
 15 55  1  0
 15 56  1  0
 17 57  1  0
 17 58  1  0
 18 59  1  0
 24 60  1  0
 25 61  1  0
 28 62  1  0
 30 63  1  0
 31 64  1  0
 33 65  1  0
 35 66  1  0
 37 67  1  0
M  END
$$$$
[H]OC(=O)C1=C([H])C(c2c([H])c([H])c(C3([H])C([H])([H])C3([H])[H])c([H])c2[H])=NN([H])c2c([H])c(O[H])c([H])c([H])c21
     RDKit          3D

 40 43  0  0  0  0  0  0  0  0999 V2000
   -6.2950    2.5398   -0.5621 O   0  0  0  0  0  0  0  0  0  0  0  0
   -5.2686    1.6901   -0.1727 C   0  0  0  0  0  0  0  0  0  0  0  0
   -5.1808    1.1231    1.0776 C   0  0  0  0  0  0  0  0  0  0  0  0
   -4.1759    0.2774    1.4874 C   0  0  0  0  0  0  0  0  0  0  0  0
   -3.1984   -0.0121    0.5643 C   0  0  0  0  0  0  0  0  0  0  0  0
   -2.2231   -0.9571    1.0762 C   0  0  0  0  0  0  0  0  0  0  0  0
   -0.9704   -1.0476    0.6208 C   0  0  0  0  0  0  0  0  0  0  0  0
   -0.2830   -0.3158   -0.4121 C   0  0  0  0  0  0  0  0  0  0  0  0
   -0.8506    0.3097   -1.4276 N   0  0  0  0  0  0  0  0  0  0  0  0
   -2.2372    0.4076   -1.7289 N   0  0  0  0  0  0  0  0  0  0  0  0
   -3.2511    0.5444   -0.7024 C   0  0  0  0  0  0  0  0  0  0  0  0
   -4.2569    1.3765   -1.0787 C   0  0  0  0  0  0  0  0  0  0  0  0
    1.1704   -0.2126   -0.4021 C   0  0  0  0  0  0  0  0  0  0  0  0
    1.7868    0.4930   -1.4304 C   0  0  0  0  0  0  0  0  0  0  0  0
    3.1436    0.6350   -1.4864 C   0  0  0  0  0  0  0  0  0  0  0  0
    3.9727    0.0882   -0.5295 C   0  0  0  0  0  0  0  0  0  0  0  0
    3.3505   -0.6088    0.4847 C   0  0  0  0  0  0  0  0  0  0  0  0
    1.9610   -0.7600    0.5512 C   0  0  0  0  0  0  0  0  0  0  0  0
    5.4343    0.2671   -0.6306 C   0  0  0  0  0  0  0  0  0  0  0  0
    6.3588   -0.7373   -0.0456 C   0  0  0  0  0  0  0  0  0  0  0  0
    6.1185    0.5075    0.6874 C   0  0  0  0  0  0  0  0  0  0  0  0
   -2.5828   -1.8768    2.0829 C   0  0  0  0  0  0  0  0  0  0  0  0
   -3.7858   -2.0562    2.6821 O   0  0  0  0  0  0  0  0  0  0  0  0
   -1.6601   -2.6670    2.5125 O   0  0  0  0  0  0  0  0  0  0  0  0
   -7.1099    2.0905   -0.9799 H   0  0  0  0  0  0  0  0  0  0  0  0
   -5.9512    1.3494    1.8029 H   0  0  0  0  0  0  0  0  0  0  0  0
   -4.0823   -0.1200    2.4573 H   0  0  0  0  0  0  0  0  0  0  0  0
   -0.3585   -1.7954    1.0950 H   0  0  0  0  0  0  0  0  0  0  0  0
   -2.5890    0.4077   -2.6909 H   0  0  0  0  0  0  0  0  0  0  0  0
   -4.2382    1.7668   -2.0789 H   0  0  0  0  0  0  0  0  0  0  0  0
    1.1974    0.9594   -2.2323 H   0  0  0  0  0  0  0  0  0  0  0  0
    3.5867    1.1930   -2.3051 H   0  0  0  0  0  0  0  0  0  0  0  0
    3.9953   -1.0405    1.2390 H   0  0  0  0  0  0  0  0  0  0  0  0
    1.5500   -1.3152    1.3736 H   0  0  0  0  0  0  0  0  0  0  0  0
    5.7676    0.8530   -1.5065 H   0  0  0  0  0  0  0  0  0  0  0  0
    7.3522   -0.8144   -0.5578 H   0  0  0  0  0  0  0  0  0  0  0  0
    6.0178   -1.6924    0.3620 H   0  0  0  0  0  0  0  0  0  0  0  0
    6.8110    1.3631    0.6988 H   0  0  0  0  0  0  0  0  0  0  0  0
    5.5244    0.4130    1.6361 H   0  0  0  0  0  0  0  0  0  0  0  0
   -4.5502   -2.6261    2.2891 H   0  0  0  0  0  0  0  0  0  0  0  0
  1  2  1  0
  2  3  2  0
  3  4  1  0
  4  5  2  0
  5  6  1  0
  6  7  2  0
  7  8  1  0
  8  9  2  0
  9 10  1  0
 10 11  1  0
 11 12  2  0
  8 13  1  0
 13 14  2  0
 14 15  1  0
 15 16  2  0
 16 17  1  0
 17 18  2  0
 16 19  1  0
 19 20  1  0
 20 21  1  0
  6 22  1  0
 22 23  1  0
 22 24  2  0
 12  2  1  0
 18 13  1  0
 21 19  1  0
 11  5  1  0
  1 25  1  0
  3 26  1  0
  4 27  1  0
  7 28  1  0
 10 29  1  0
 12 30  1  0
 14 31  1  0
 15 32  1  0
 17 33  1  0
 18 34  1  0
 19 35  1  0
 20 36  1  0
 20 37  1  0
 21 38  1  0
 21 39  1  0
 23 40  1  0
M  END
$$$$
[H]c1c([H])c([H])c(N2C([H])([H])C([H])([H])N(C([H])([H])c3c([H])c([H])c4c(c3[H])OC([H])([H])C([H])([H])O4)C([H])([H])C2([H])[H])c(OC([H])([H])[H])c1[H]
     RDKit          3D

 49 52  0  0  0  0  0  0  0  0999 V2000
   -4.7883   -3.0192   -0.7636 C   0  0  0  0  0  0  0  0  0  0  0  0
   -3.9350   -1.9027   -0.6206 O   0  0  0  0  0  0  0  0  0  0  0  0
   -4.3641   -0.7324   -0.0197 C   0  0  0  0  0  0  0  0  0  0  0  0
   -5.6581   -0.6436    0.4559 C   0  0  0  0  0  0  0  0  0  0  0  0
   -6.1016    0.5248    1.0610 C   0  0  0  0  0  0  0  0  0  0  0  0
   -5.2165    1.5660    1.1639 C   0  0  0  0  0  0  0  0  0  0  0  0
   -3.9316    1.4715    0.6893 C   0  0  0  0  0  0  0  0  0  0  0  0
   -3.4648    0.3067    0.0776 C   0  0  0  0  0  0  0  0  0  0  0  0
   -2.1518    0.1590   -0.4272 N   0  0  0  0  0  0  0  0  0  0  0  0
   -1.8022   -0.1245   -1.7959 C   0  0  0  0  0  0  0  0  0  0  0  0
   -0.6853    0.8155   -2.1778 C   0  0  0  0  0  0  0  0  0  0  0  0
    0.4764    0.5305   -1.3777 N   0  0  0  0  0  0  0  0  0  0  0  0
    1.3420    1.6498   -1.2101 C   0  0  0  0  0  0  0  0  0  0  0  0
    2.5074    1.2585   -0.3861 C   0  0  0  0  0  0  0  0  0  0  0  0
    2.8072    1.8728    0.8107 C   0  0  0  0  0  0  0  0  0  0  0  0
    3.9145    1.4363    1.5046 C   0  0  0  0  0  0  0  0  0  0  0  0
    4.7311    0.4248    1.0665 C   0  0  0  0  0  0  0  0  0  0  0  0
    5.8474   -0.0112    1.7715 O   0  0  0  0  0  0  0  0  0  0  0  0
    6.8358   -0.7185    1.0314 C   0  0  0  0  0  0  0  0  0  0  0  0
    6.1064   -1.8173    0.2664 C   0  0  0  0  0  0  0  0  0  0  0  0
    5.1983   -1.1919   -0.6138 O   0  0  0  0  0  0  0  0  0  0  0  0
    4.3934   -0.1631   -0.1382 C   0  0  0  0  0  0  0  0  0  0  0  0
    3.2965    0.2379   -0.8689 C   0  0  0  0  0  0  0  0  0  0  0  0
    0.2240   -0.1772   -0.1709 C   0  0  0  0  0  0  0  0  0  0  0  0
   -1.0460    0.3025    0.5030 C   0  0  0  0  0  0  0  0  0  0  0  0
   -5.3448   -3.2274    0.1783 H   0  0  0  0  0  0  0  0  0  0  0  0
   -4.1093   -3.9047   -0.9245 H   0  0  0  0  0  0  0  0  0  0  0  0
   -5.4853   -2.9015   -1.6173 H   0  0  0  0  0  0  0  0  0  0  0  0
   -6.3671   -1.4590    0.3807 H   0  0  0  0  0  0  0  0  0  0  0  0
   -7.1205    0.6037    1.4389 H   0  0  0  0  0  0  0  0  0  0  0  0
   -5.5338    2.4785    1.6266 H   0  0  0  0  0  0  0  0  0  0  0  0
   -3.2256    2.2940    0.7683 H   0  0  0  0  0  0  0  0  0  0  0  0
   -1.4082   -1.1712   -1.8310 H   0  0  0  0  0  0  0  0  0  0  0  0
   -2.6708   -0.0392   -2.4818 H   0  0  0  0  0  0  0  0  0  0  0  0
   -1.0206    1.8650   -2.0517 H   0  0  0  0  0  0  0  0  0  0  0  0
   -0.3952    0.6900   -3.2492 H   0  0  0  0  0  0  0  0  0  0  0  0
    1.7586    2.0309   -2.1732 H   0  0  0  0  0  0  0  0  0  0  0  0
    0.8478    2.5253   -0.7385 H   0  0  0  0  0  0  0  0  0  0  0  0
    2.1725    2.6874    1.1904 H   0  0  0  0  0  0  0  0  0  0  0  0
    4.1760    1.9057    2.4569 H   0  0  0  0  0  0  0  0  0  0  0  0
    7.6382   -1.1204    1.6544 H   0  0  0  0  0  0  0  0  0  0  0  0
    7.2015   -0.0080    0.2463 H   0  0  0  0  0  0  0  0  0  0  0  0
    6.8782   -2.3977   -0.3052 H   0  0  0  0  0  0  0  0  0  0  0  0
    5.5272   -2.4628    0.9586 H   0  0  0  0  0  0  0  0  0  0  0  0
    3.0649   -0.2578   -1.8225 H   0  0  0  0  0  0  0  0  0  0  0  0
    1.0377   -0.0730    0.5553 H   0  0  0  0  0  0  0  0  0  0  0  0
    0.0703   -1.2470   -0.4369 H   0  0  0  0  0  0  0  0  0  0  0  0
   -1.2560   -0.2520    1.4175 H   0  0  0  0  0  0  0  0  0  0  0  0
   -0.9707    1.3861    0.7301 H   0  0  0  0  0  0  0  0  0  0  0  0
  1  2  1  0
  2  3  1  0
  3  4  2  0
  4  5  1  0
  5  6  2  0
  6  7  1  0
  7  8  2  0
  8  9  1  0
  9 10  1  0
 10 11  1  0
 11 12  1  0
 12 13  1  0
 13 14  1  0
 14 15  2  0
 15 16  1  0
 16 17  2  0
 17 18  1  0
 18 19  1  0
 19 20  1  0
 20 21  1  0
 21 22  1  0
 22 23  2  0
 12 24  1  0
 24 25  1  0
  8  3  1  0
 25  9  1  0
 23 14  1  0
 22 17  1  0
  1 26  1  0
  1 27  1  0
  1 28  1  0
  4 29  1  0
  5 30  1  0
  6 31  1  0
  7 32  1  0
 10 33  1  0
 10 34  1  0
 11 35  1  0
 11 36  1  0
 13 37  1  0
 13 38  1  0
 15 39  1  0
 16 40  1  0
 19 41  1  0
 19 42  1  0
 20 43  1  0
 20 44  1  0
 23 45  1  0
 24 46  1  0
 24 47  1  0
 25 48  1  0
 25 49  1  0
M  END
$$$$
[H]c1nc(N2C([H])([H])C([H])([H])N(C([H])([H])[H])C([H])([H])C2([H])[H])c([H])nc1-c1oc(-c2c([H])c(C([H])([H])[H])c([H])c(C([H])([H])[H])c2[H])c([H])c1[H]
     RDKit          3D

 50 53  0  0  0  0  0  0  0  0999 V2000
    8.1461    1.1592    0.5316 C   0  0  0  0  0  0  0  0  0  0  0  0
    6.8206    0.7053    0.7019 N   0  0  0  0  0  0  0  0  0  0  0  0
    5.8397    1.6317    1.0514 C   0  0  0  0  0  0  0  0  0  0  0  0
    4.7321    1.8755    0.0484 C   0  0  0  0  0  0  0  0  0  0  0  0
    4.3363    0.6172   -0.4988 N   0  0  0  0  0  0  0  0  0  0  0  0
    5.3787   -0.2239   -1.0567 C   0  0  0  0  0  0  0  0  0  0  0  0
    6.4333   -0.4392   -0.0373 C   0  0  0  0  0  0  0  0  0  0  0  0
    2.9857    0.2001   -0.5140 C   0  0  0  0  0  0  0  0  0  0  0  0
    1.9309    1.0230   -0.2166 C   0  0  0  0  0  0  0  0  0  0  0  0
    0.6369    0.5852   -0.2334 N   0  0  0  0  0  0  0  0  0  0  0  0
    0.3365   -0.6823   -0.5448 C   0  0  0  0  0  0  0  0  0  0  0  0
    1.3929   -1.5126   -0.8446 C   0  0  0  0  0  0  0  0  0  0  0  0
    2.6666   -1.0932   -0.8311 N   0  0  0  0  0  0  0  0  0  0  0  0
   -1.0430   -1.1565   -0.5648 C   0  0  0  0  0  0  0  0  0  0  0  0
   -1.5061   -2.4228   -0.8637 C   0  0  0  0  0  0  0  0  0  0  0  0
   -2.8823   -2.4270   -0.7599 C   0  0  0  0  0  0  0  0  0  0  0  0
   -3.2122   -1.1389   -0.3948 C   0  0  0  0  0  0  0  0  0  0  0  0
   -2.1051   -0.4386   -0.2944 O   0  0  0  0  0  0  0  0  0  0  0  0
   -4.5402   -0.6324   -0.1599 C   0  0  0  0  0  0  0  0  0  0  0  0
   -4.7432    0.6970    0.2066 C   0  0  0  0  0  0  0  0  0  0  0  0
   -6.0229    1.1589    0.4259 C   0  0  0  0  0  0  0  0  0  0  0  0
   -6.2050    2.5675    0.8117 C   0  0  0  0  0  0  0  0  0  0  0  0
   -7.0671    0.2734    0.2714 C   0  0  0  0  0  0  0  0  0  0  0  0
   -6.8880   -1.0287   -0.0861 C   0  0  0  0  0  0  0  0  0  0  0  0
   -8.0245   -1.9934   -0.2545 C   0  0  0  0  0  0  0  0  0  0  0  0
   -5.6145   -1.4812   -0.3024 C   0  0  0  0  0  0  0  0  0  0  0  0
    8.6132    0.7457   -0.4048 H   0  0  0  0  0  0  0  0  0  0  0  0
    8.2492    2.2746    0.5129 H   0  0  0  0  0  0  0  0  0  0  0  0
    8.7453    0.8206    1.4276 H   0  0  0  0  0  0  0  0  0  0  0  0
    5.3514    1.3380    2.0091 H   0  0  0  0  0  0  0  0  0  0  0  0
    6.3014    2.6367    1.2544 H   0  0  0  0  0  0  0  0  0  0  0  0
    5.1564    2.5179   -0.7640 H   0  0  0  0  0  0  0  0  0  0  0  0
    3.9193    2.3990    0.5793 H   0  0  0  0  0  0  0  0  0  0  0  0
    5.8004    0.2825   -1.9501 H   0  0  0  0  0  0  0  0  0  0  0  0
    4.9252   -1.2201   -1.3267 H   0  0  0  0  0  0  0  0  0  0  0  0
    6.0930   -1.2260    0.6695 H   0  0  0  0  0  0  0  0  0  0  0  0
    7.3340   -0.8659   -0.5542 H   0  0  0  0  0  0  0  0  0  0  0  0
    2.0915    2.0693    0.0402 H   0  0  0  0  0  0  0  0  0  0  0  0
    1.1365   -2.5400   -1.0962 H   0  0  0  0  0  0  0  0  0  0  0  0
   -0.8826   -3.2405   -1.1270 H   0  0  0  0  0  0  0  0  0  0  0  0
   -3.5853   -3.2336   -0.9191 H   0  0  0  0  0  0  0  0  0  0  0  0
   -3.8651    1.3211    0.3047 H   0  0  0  0  0  0  0  0  0  0  0  0
   -6.3501    3.1697   -0.1192 H   0  0  0  0  0  0  0  0  0  0  0  0
   -7.0892    2.6460    1.4886 H   0  0  0  0  0  0  0  0  0  0  0  0
   -5.3020    2.9118    1.3554 H   0  0  0  0  0  0  0  0  0  0  0  0
   -8.0754    0.6214    0.4400 H   0  0  0  0  0  0  0  0  0  0  0  0
   -8.8892   -1.4533   -0.6666 H   0  0  0  0  0  0  0  0  0  0  0  0
   -8.2401   -2.4931    0.7099 H   0  0  0  0  0  0  0  0  0  0  0  0
   -7.7517   -2.7895   -1.0041 H   0  0  0  0  0  0  0  0  0  0  0  0
   -5.4686   -2.5157   -0.5868 H   0  0  0  0  0  0  0  0  0  0  0  0
  1  2  1  0
  2  3  1  0
  3  4  1  0
  4  5  1  0
  5  6  1  0
  6  7  1  0
  5  8  1  0
  8  9  2  0
  9 10  1  0
 10 11  2  0
 11 12  1  0
 12 13  2  0
 11 14  1  0
 14 15  2  0
 15 16  1  0
 16 17  2  0
 17 18  1  0
 17 19  1  0
 19 20  2  0
 20 21  1  0
 21 22  1  0
 21 23  2  0
 23 24  1  0
 24 25  1  0
 24 26  2  0
  7  2  1  0
 13  8  1  0
 18 14  1  0
 26 19  1  0
  1 27  1  0
  1 28  1  0
  1 29  1  0
  3 30  1  0
  3 31  1  0
  4 32  1  0
  4 33  1  0
  6 34  1  0
  6 35  1  0
  7 36  1  0
  7 37  1  0
  9 38  1  0
 12 39  1  0
 15 40  1  0
 16 41  1  0
 20 42  1  0
 22 43  1  0
 22 44  1  0
 22 45  1  0
 23 46  1  0
 25 47  1  0
 25 48  1  0
 25 49  1  0
 26 50  1  0
M  END
$$$$
[H]N=C(N([H])[H])N([H])C([H])([H])C([H])([H])C([H])([H])[C@@]([H])(N([H])C(=O)[C@@]([H])(C([H])([H])[H])C([H])([H])C([H])([H])C([H])([H])C([H])([H])S[H])C([H])([H])c1c([H])c([H])c(Br)c([H])c1[H]
     RDKit          3D

 57 57  0  0  0  0  0  0  0  0999 V2000
   -6.0771   -1.9781    1.3672 S   0  0  0  0  0  0  0  0  0  0  0  0
   -5.7952   -0.6075    0.2214 C   0  0  0  0  0  0  0  0  0  0  0  0
   -4.6114   -0.9677   -0.6874 C   0  0  0  0  0  0  0  0  0  0  0  0
   -3.4179   -1.1864    0.1610 C   0  0  0  0  0  0  0  0  0  0  0  0
   -2.9923   -0.0273    0.9463 C   0  0  0  0  0  0  0  0  0  0  0  0
   -2.5073    1.2056    0.3112 C   0  0  2  0  0  0  0  0  0  0  0  0
   -3.3670    1.9860   -0.5939 C   0  0  0  0  0  0  0  0  0  0  0  0
   -1.1537    1.0071   -0.3211 C   0  0  0  0  0  0  0  0  0  0  0  0
   -1.0446    1.1917   -1.5364 O   0  0  0  0  0  0  0  0  0  0  0  0
   -0.0762    0.6251    0.4748 N   0  0  0  0  0  0  0  0  0  0  0  0
    1.2485    0.4204   -0.0841 C   0  0  2  0  0  0  0  0  0  0  0  0
    1.6011   -1.0085    0.1638 C   0  0  0  0  0  0  0  0  0  0  0  0
    2.9535   -1.4107   -0.3511 C   0  0  0  0  0  0  0  0  0  0  0  0
    3.1382   -2.8760   -0.0139 C   0  0  0  0  0  0  0  0  0  0  0  0
    4.3865   -3.3991   -0.4452 N   0  0  0  0  0  0  0  0  0  0  0  0
    4.7304   -4.7515   -0.2148 C   0  0  0  0  0  0  0  0  0  0  0  0
    4.9151   -5.2788    1.0934 N   0  0  0  0  0  0  0  0  0  0  0  0
    4.8861   -5.5496   -1.2172 N   0  0  0  0  0  0  0  0  0  0  0  0
    2.1737    1.3839    0.6278 C   0  0  0  0  0  0  0  0  0  0  0  0
    1.7508    2.7753    0.4240 C   0  0  0  0  0  0  0  0  0  0  0  0
    2.1942    3.5576   -0.6265 C   0  0  0  0  0  0  0  0  0  0  0  0
    1.7795    4.8641   -0.7936 C   0  0  0  0  0  0  0  0  0  0  0  0
    0.8973    5.4521    0.0871 C   0  0  0  0  0  0  0  0  0  0  0  0
    0.3160    7.2692   -0.1392 Br  0  0  0  0  0  0  0  0  0  0  0  0
    0.4470    4.6844    1.1389 C   0  0  0  0  0  0  0  0  0  0  0  0
    0.8646    3.3804    1.3006 C   0  0  0  0  0  0  0  0  0  0  0  0
   -6.1520   -3.1657    0.5855 H   0  0  0  0  0  0  0  0  0  0  0  0
   -6.6992   -0.4233   -0.3974 H   0  0  0  0  0  0  0  0  0  0  0  0
   -5.6194    0.3094    0.8013 H   0  0  0  0  0  0  0  0  0  0  0  0
   -4.5127   -0.1843   -1.4348 H   0  0  0  0  0  0  0  0  0  0  0  0
   -4.8997   -1.9074   -1.2507 H   0  0  0  0  0  0  0  0  0  0  0  0
   -2.5762   -1.6833   -0.3994 H   0  0  0  0  0  0  0  0  0  0  0  0
   -3.7169   -2.0110    0.8977 H   0  0  0  0  0  0  0  0  0  0  0  0
   -2.1528   -0.3702    1.6507 H   0  0  0  0  0  0  0  0  0  0  0  0
   -3.7999    0.2527    1.7031 H   0  0  0  0  0  0  0  0  0  0  0  0
   -2.2536    1.9123    1.1870 H   0  0  0  0  0  0  0  0  0  0  0  0
   -2.9725    3.0641   -0.5533 H   0  0  0  0  0  0  0  0  0  0  0  0
   -3.2608    1.7561   -1.6786 H   0  0  0  0  0  0  0  0  0  0  0  0
   -4.4061    2.0888   -0.2557 H   0  0  0  0  0  0  0  0  0  0  0  0
   -0.2188    0.4817    1.4953 H   0  0  0  0  0  0  0  0  0  0  0  0
    1.2007    0.6189   -1.1729 H   0  0  0  0  0  0  0  0  0  0  0  0
    1.4782   -1.2131    1.2469 H   0  0  0  0  0  0  0  0  0  0  0  0
    0.8478   -1.6365   -0.3535 H   0  0  0  0  0  0  0  0  0  0  0  0
    2.9711   -1.3423   -1.4585 H   0  0  0  0  0  0  0  0  0  0  0  0
    3.7746   -0.7782    0.0206 H   0  0  0  0  0  0  0  0  0  0  0  0
    2.2817   -3.4094   -0.5215 H   0  0  0  0  0  0  0  0  0  0  0  0
    2.9438   -3.0567    1.0840 H   0  0  0  0  0  0  0  0  0  0  0  0
    5.0692   -2.7957   -0.9382 H   0  0  0  0  0  0  0  0  0  0  0  0
    4.5871   -6.2312    1.3581 H   0  0  0  0  0  0  0  0  0  0  0  0
    5.3930   -4.7090    1.8285 H   0  0  0  0  0  0  0  0  0  0  0  0
    4.7678   -5.2373   -2.2063 H   0  0  0  0  0  0  0  0  0  0  0  0
    2.1967    1.0861    1.6966 H   0  0  0  0  0  0  0  0  0  0  0  0
    3.2212    1.2945    0.2618 H   0  0  0  0  0  0  0  0  0  0  0  0
    2.8960    3.0793   -1.3211 H   0  0  0  0  0  0  0  0  0  0  0  0
    2.1328    5.4632   -1.6171 H   0  0  0  0  0  0  0  0  0  0  0  0
   -0.2480    5.1640    1.8235 H   0  0  0  0  0  0  0  0  0  0  0  0
    0.4874    2.8216    2.1342 H   0  0  0  0  0  0  0  0  0  0  0  0
  1  2  1  0
  2  3  1  0
  3  4  1  0
  4  5  1  0
  5  6  1  0
  6  7  1  0
  6  8  1  0
  8  9  2  0
  8 10  1  0
 10 11  1  0
 11 12  1  0
 12 13  1  0
 13 14  1  0
 14 15  1  0
 15 16  1  0
 16 17  1  0
 16 18  2  3
 11 19  1  0
 19 20  1  0
 20 21  2  0
 21 22  1  0
 22 23  2  0
 23 24  1  0
 23 25  1  0
 25 26  2  0
 26 20  1  0
  1 27  1  0
  2 28  1  0
  2 29  1  0
  3 30  1  0
  3 31  1  0
  4 32  1  0
  4 33  1  0
  5 34  1  0
  5 35  1  0
  6 36  1  1
  7 37  1  0
  7 38  1  0
  7 39  1  0
 10 40  1  0
 11 41  1  6
 12 42  1  0
 12 43  1  0
 13 44  1  0
 13 45  1  0
 14 46  1  0
 14 47  1  0
 15 48  1  0
 17 49  1  0
 17 50  1  0
 18 51  1  0
 19 52  1  0
 19 53  1  0
 21 54  1  0
 22 55  1  0
 25 56  1  0
 26 57  1  0
M  END
$$$$
[H]c1nc([C@@]2([H])C([H])([H])N(C([H])([H])[H])C([H])([H])[C@]2([H])C(C([H])([H])[H])(C([H])([H])[H])C([H])([H])C(=O)N([H])C([H])([H])c2c([H])c(Cl)c([H])c([H])c2Cl)c([H])c([H])c1Cl
     RDKit          3D

 55 57  0  0  0  0  0  0  0  0999 V2000
   -0.4765    0.3523   -1.8949 C   0  0  0  0  0  0  0  0  0  0  0  0
   -0.3835    0.8839   -0.4785 C   0  0  0  0  0  0  0  0  0  0  0  0
    0.2534    2.2282   -0.4834 C   0  0  0  0  0  0  0  0  0  0  0  0
    0.5290   -0.0687    0.2774 C   0  0  0  0  0  0  0  0  0  0  0  0
    1.8671   -0.1371   -0.3174 C   0  0  0  0  0  0  0  0  0  0  0  0
    2.1734    0.5466   -1.3272 O   0  0  0  0  0  0  0  0  0  0  0  0
    2.9086   -0.9766    0.2007 N   0  0  0  0  0  0  0  0  0  0  0  0
    4.2048   -1.0455   -0.3733 C   0  0  0  0  0  0  0  0  0  0  0  0
    5.1610   -1.9485    0.2604 C   0  0  0  0  0  0  0  0  0  0  0  0
    4.9203   -2.7386    1.3700 C   0  0  0  0  0  0  0  0  0  0  0  0
    5.8769   -3.5706    1.9180 C   0  0  0  0  0  0  0  0  0  0  0  0
    5.5184   -4.5475    3.3211 Cl  0  0  0  0  0  0  0  0  0  0  0  0
    7.1119   -3.6266    1.3543 C   0  0  0  0  0  0  0  0  0  0  0  0
    7.3686   -2.8458    0.2482 C   0  0  0  0  0  0  0  0  0  0  0  0
    6.4405   -2.0145   -0.3135 C   0  0  0  0  0  0  0  0  0  0  0  0
    6.7827   -1.0291   -1.7208 Cl  0  0  0  0  0  0  0  0  0  0  0  0
   -1.7291    0.8570    0.2082 C   0  0  1  0  0  0  0  0  0  0  0  0
   -1.4902    1.4139    1.6230 C   0  0  0  0  0  0  0  0  0  0  0  0
   -2.7462    1.9589    2.0291 N   0  0  0  0  0  0  0  0  0  0  0  0
   -3.4712    1.0132    2.8145 C   0  0  0  0  0  0  0  0  0  0  0  0
   -3.3800    2.4182    0.8526 C   0  0  0  0  0  0  0  0  0  0  0  0
   -2.7402    1.7837   -0.3695 C   0  0  2  0  0  0  0  0  0  0  0  0
   -3.8177    1.1613   -1.1420 C   0  0  0  0  0  0  0  0  0  0  0  0
   -4.5082    0.0391   -0.7711 C   0  0  0  0  0  0  0  0  0  0  0  0
   -5.5187   -0.4993   -1.5331 C   0  0  0  0  0  0  0  0  0  0  0  0
   -5.8780    0.0836   -2.7188 C   0  0  0  0  0  0  0  0  0  0  0  0
   -7.1528   -0.5937   -3.6837 Cl  0  0  0  0  0  0  0  0  0  0  0  0
   -5.1762    1.2191   -3.0898 C   0  0  0  0  0  0  0  0  0  0  0  0
   -4.1935    1.7118   -2.3126 N   0  0  0  0  0  0  0  0  0  0  0  0
   -1.4937    0.3414   -2.2980 H   0  0  0  0  0  0  0  0  0  0  0  0
   -0.0269   -0.6713   -1.9928 H   0  0  0  0  0  0  0  0  0  0  0  0
    0.1241    0.9828   -2.6140 H   0  0  0  0  0  0  0  0  0  0  0  0
   -0.4274    3.0644   -0.2263 H   0  0  0  0  0  0  0  0  0  0  0  0
    0.6205    2.4512   -1.5067 H   0  0  0  0  0  0  0  0  0  0  0  0
    1.1015    2.2973    0.2586 H   0  0  0  0  0  0  0  0  0  0  0  0
    0.6349    0.2572    1.3413 H   0  0  0  0  0  0  0  0  0  0  0  0
    0.1181   -1.0976    0.3089 H   0  0  0  0  0  0  0  0  0  0  0  0
    2.6514   -1.5332    1.0263 H   0  0  0  0  0  0  0  0  0  0  0  0
    4.6456   -0.0052   -0.2681 H   0  0  0  0  0  0  0  0  0  0  0  0
    4.1663   -1.1861   -1.4830 H   0  0  0  0  0  0  0  0  0  0  0  0
    3.9476   -2.7211    1.8470 H   0  0  0  0  0  0  0  0  0  0  0  0
    7.8733   -4.2854    1.7860 H   0  0  0  0  0  0  0  0  0  0  0  0
    8.3514   -2.8782   -0.2157 H   0  0  0  0  0  0  0  0  0  0  0  0
   -2.0310   -0.1796    0.3321 H   0  0  0  0  0  0  0  0  0  0  0  0
   -0.7518    2.2319    1.6028 H   0  0  0  0  0  0  0  0  0  0  0  0
   -1.2090    0.6056    2.3285 H   0  0  0  0  0  0  0  0  0  0  0  0
   -3.3403   -0.0101    2.3755 H   0  0  0  0  0  0  0  0  0  0  0  0
   -4.5463    1.2587    2.9294 H   0  0  0  0  0  0  0  0  0  0  0  0
   -3.0265    0.9589    3.8289 H   0  0  0  0  0  0  0  0  0  0  0  0
   -4.4648    2.1728    0.9269 H   0  0  0  0  0  0  0  0  0  0  0  0
   -3.3055    3.5258    0.8251 H   0  0  0  0  0  0  0  0  0  0  0  0
   -2.2721    2.5800   -1.0171 H   0  0  0  0  0  0  0  0  0  0  0  0
   -4.2633   -0.4575    0.1528 H   0  0  0  0  0  0  0  0  0  0  0  0
   -6.0565   -1.3994   -1.2133 H   0  0  0  0  0  0  0  0  0  0  0  0
   -5.4742    1.6681   -4.0321 H   0  0  0  0  0  0  0  0  0  0  0  0
  1  2  1  0
  2  3  1  0
  2  4  1  0
  4  5  1  0
  5  6  2  0
  5  7  1  0
  7  8  1  0
  8  9  1  0
  9 10  2  0
 10 11  1  0
 11 12  1  0
 11 13  2  0
 13 14  1  0
 14 15  2  0
 15 16  1  0
  2 17  1  0
 17 18  1  0
 18 19  1  0
 19 20  1  0
 19 21  1  0
 21 22  1  0
 22 23  1  0
 23 24  2  0
 24 25  1  0
 25 26  2  0
 26 27  1  0
 26 28  1  0
 28 29  2  0
 15  9  1  0
 22 17  1  0
 29 23  1  0
  1 30  1  0
  1 31  1  0
  1 32  1  0
  3 33  1  0
  3 34  1  0
  3 35  1  0
  4 36  1  0
  4 37  1  0
  7 38  1  0
  8 39  1  0
  8 40  1  0
 10 41  1  0
 13 42  1  0
 14 43  1  0
 17 44  1  1
 18 45  1  0
 18 46  1  0
 20 47  1  0
 20 48  1  0
 20 49  1  0
 21 50  1  0
 21 51  1  0
 22 52  1  6
 24 53  1  0
 25 54  1  0
 28 55  1  0
M  END
$$$$
[H]c1nc([H])c(N([H])c2c([H])c([H])c(Oc3c([H])c([H])c([H])c(C(F)(F)F)c3[H])c(N([H])S(=O)(=O)c3c([H])c([H])c(C#N)c([H])c3[H])c2[H])c([H])n1
     RDKit          3D

 52 55  0  0  0  0  0  0  0  0999 V2000
   -2.6794   -6.7996    1.0579 F   0  0  0  0  0  0  0  0  0  0  0  0
   -1.8774   -5.7616    1.5138 C   0  0  0  0  0  0  0  0  0  0  0  0
   -2.3384   -5.2472    2.6897 F   0  0  0  0  0  0  0  0  0  0  0  0
   -0.5914   -6.3035    1.6553 F   0  0  0  0  0  0  0  0  0  0  0  0
   -1.7468   -4.7122    0.4675 C   0  0  0  0  0  0  0  0  0  0  0  0
   -2.2919   -4.9409   -0.7929 C   0  0  0  0  0  0  0  0  0  0  0  0
   -2.1847   -4.0045   -1.7738 C   0  0  0  0  0  0  0  0  0  0  0  0
   -1.5304   -2.8203   -1.5051 C   0  0  0  0  0  0  0  0  0  0  0  0
   -0.9739   -2.5631   -0.2410 C   0  0  0  0  0  0  0  0  0  0  0  0
   -0.3097   -1.4062    0.0853 O   0  0  0  0  0  0  0  0  0  0  0  0
   -0.7181   -0.1116    0.0023 C   0  0  0  0  0  0  0  0  0  0  0  0
   -1.9583    0.1904   -0.5106 C   0  0  0  0  0  0  0  0  0  0  0  0
   -2.3520    1.5329   -0.5836 C   0  0  0  0  0  0  0  0  0  0  0  0
   -1.5147    2.5086   -0.1483 C   0  0  0  0  0  0  0  0  0  0  0  0
   -1.8757    3.8910   -0.1389 N   0  0  0  0  0  0  0  0  0  0  0  0
   -3.2099    4.3705   -0.2454 C   0  0  0  0  0  0  0  0  0  0  0  0
   -3.8481    4.5293   -1.4509 C   0  0  0  0  0  0  0  0  0  0  0  0
   -5.1000    4.9809   -1.5550 N   0  0  0  0  0  0  0  0  0  0  0  0
   -5.7670    5.2913   -0.4159 C   0  0  0  0  0  0  0  0  0  0  0  0
   -5.1600    5.1433    0.7837 N   0  0  0  0  0  0  0  0  0  0  0  0
   -3.8961    4.6933    0.8963 C   0  0  0  0  0  0  0  0  0  0  0  0
   -0.2665    2.1783    0.3665 C   0  0  0  0  0  0  0  0  0  0  0  0
    0.1805    0.8852    0.4683 C   0  0  0  0  0  0  0  0  0  0  0  0
    1.3848    0.5389    1.0797 N   0  0  0  0  0  0  0  0  0  0  0  0
    2.8268    1.3835    0.9832 S   0  0  0  0  0  0  0  0  0  0  0  0
    2.6201    2.5736    0.0262 O   0  0  0  0  0  0  0  0  0  0  0  0
    3.3105    1.9513    2.3320 O   0  0  0  0  0  0  0  0  0  0  0  0
    4.1850    0.5062    0.3359 C   0  0  0  0  0  0  0  0  0  0  0  0
    4.5358   -0.7603    0.8558 C   0  0  0  0  0  0  0  0  0  0  0  0
    5.6284   -1.4502    0.4155 C   0  0  0  0  0  0  0  0  0  0  0  0
    6.4325   -0.8927   -0.5872 C   0  0  0  0  0  0  0  0  0  0  0  0
    6.1049    0.3273   -1.0975 C   0  0  0  0  0  0  0  0  0  0  0  0
    4.9886    1.0077   -0.6352 C   0  0  0  0  0  0  0  0  0  0  0  0
    7.5885   -1.6452   -1.0342 C   0  0  0  0  0  0  0  0  0  0  0  0
    8.5166   -2.2648   -1.3991 N   0  0  0  0  0  0  0  0  0  0  0  0
   -1.0923   -3.5364    0.7452 C   0  0  0  0  0  0  0  0  0  0  0  0
   -2.8014   -5.8704   -0.9833 H   0  0  0  0  0  0  0  0  0  0  0  0
   -2.6143   -4.1788   -2.7568 H   0  0  0  0  0  0  0  0  0  0  0  0
   -1.4118   -2.0431   -2.2408 H   0  0  0  0  0  0  0  0  0  0  0  0
   -2.6684   -0.5247   -0.8801 H   0  0  0  0  0  0  0  0  0  0  0  0
   -3.3278    1.7761   -0.9883 H   0  0  0  0  0  0  0  0  0  0  0  0
   -1.1099    4.6291   -0.0544 H   0  0  0  0  0  0  0  0  0  0  0  0
   -3.2471    4.2465   -2.3418 H   0  0  0  0  0  0  0  0  0  0  0  0
   -6.7830    5.6630   -0.5088 H   0  0  0  0  0  0  0  0  0  0  0  0
   -3.3858    4.5834    1.8290 H   0  0  0  0  0  0  0  0  0  0  0  0
    0.3613    3.0012    0.6992 H   0  0  0  0  0  0  0  0  0  0  0  0
    1.3741   -0.3453    1.6739 H   0  0  0  0  0  0  0  0  0  0  0  0
    3.8807   -1.1546    1.6176 H   0  0  0  0  0  0  0  0  0  0  0  0
    5.9110   -2.4307    0.8153 H   0  0  0  0  0  0  0  0  0  0  0  0
    6.7310    0.7701   -1.8702 H   0  0  0  0  0  0  0  0  0  0  0  0
    4.7397    1.9895   -1.0602 H   0  0  0  0  0  0  0  0  0  0  0  0
   -0.6685   -3.3746    1.7457 H   0  0  0  0  0  0  0  0  0  0  0  0
  1  2  1  0
  2  3  1  0
  2  4  1  0
  2  5  1  0
  5  6  2  0
  6  7  1  0
  7  8  2  0
  8  9  1  0
  9 10  1  0
 10 11  1  0
 11 12  2  0
 12 13  1  0
 13 14  2  0
 14 15  1  0
 15 16  1  0
 16 17  2  0
 17 18  1  0
 18 19  2  0
 19 20  1  0
 20 21  2  0
 14 22  1  0
 22 23  2  0
 23 24  1  0
 24 25  1  0
 25 26  2  0
 25 27  2  0
 25 28  1  0
 28 29  2  0
 29 30  1  0
 30 31  2  0
 31 32  1  0
 32 33  2  0
 31 34  1  0
 34 35  3  0
  9 36  2  0
 36  5  1  0
 23 11  1  0
 33 28  1  0
 21 16  1  0
  6 37  1  0
  7 38  1  0
  8 39  1  0
 12 40  1  0
 13 41  1  0
 15 42  1  0
 17 43  1  0
 19 44  1  0
 21 45  1  0
 22 46  1  0
 24 47  1  0
 29 48  1  0
 30 49  1  0
 32 50  1  0
 33 51  1  0
 36 52  1  0
M  END
$$$$
[H]c1nc2c(c([H])c1N1C([H])([H])C([H])([H])N(C(=O)c3c(F)c([H])c([H])c([H])c3Cl)C([H])([H])C1([H])[H])c([H])c([H])n2[H]
     RDKit          3D

 41 44  0  0  0  0  0  0  0  0999 V2000
    4.6669    1.9931   -0.0279 F   0  0  0  0  0  0  0  0  0  0  0  0
    4.8281    0.6422    0.0294 C   0  0  0  0  0  0  0  0  0  0  0  0
    5.9538    0.1021   -0.5619 C   0  0  0  0  0  0  0  0  0  0  0  0
    6.0832   -1.2643   -0.4845 C   0  0  0  0  0  0  0  0  0  0  0  0
    5.1574   -2.0598    0.1400 C   0  0  0  0  0  0  0  0  0  0  0  0
    4.0491   -1.4900    0.7180 C   0  0  0  0  0  0  0  0  0  0  0  0
    2.8484   -2.5198    1.5277 Cl  0  0  0  0  0  0  0  0  0  0  0  0
    3.8843   -0.1306    0.6618 C   0  0  0  0  0  0  0  0  0  0  0  0
    2.7211    0.5004    1.2647 C   0  0  0  0  0  0  0  0  0  0  0  0
    2.8424    0.8522    2.4779 O   0  0  0  0  0  0  0  0  0  0  0  0
    1.5183    0.7140    0.5470 N   0  0  0  0  0  0  0  0  0  0  0  0
    1.4230    0.3004   -0.8254 C   0  0  0  0  0  0  0  0  0  0  0  0
    0.0486   -0.2094   -1.1745 C   0  0  0  0  0  0  0  0  0  0  0  0
   -1.0054    0.5680   -0.5078 N   0  0  0  0  0  0  0  0  0  0  0  0
   -0.5958    1.7651    0.1438 C   0  0  0  0  0  0  0  0  0  0  0  0
    0.4087    1.3511    1.2296 C   0  0  0  0  0  0  0  0  0  0  0  0
   -2.3358    0.0957   -0.5504 C   0  0  0  0  0  0  0  0  0  0  0  0
   -2.6467   -1.0711   -1.2426 C   0  0  0  0  0  0  0  0  0  0  0  0
   -3.9061   -1.5367   -1.2935 N   0  0  0  0  0  0  0  0  0  0  0  0
   -4.9307   -0.9168   -0.6896 C   0  0  0  0  0  0  0  0  0  0  0  0
   -6.2568   -1.1736   -0.5923 N   0  0  0  0  0  0  0  0  0  0  0  0
   -6.8701   -0.2361    0.1352 C   0  0  0  0  0  0  0  0  0  0  0  0
   -5.8988    0.6577    0.5199 C   0  0  0  0  0  0  0  0  0  0  0  0
   -4.6922    0.2430    0.0125 C   0  0  0  0  0  0  0  0  0  0  0  0
   -3.3802    0.7278    0.0652 C   0  0  0  0  0  0  0  0  0  0  0  0
    6.6877    0.7061   -1.0540 H   0  0  0  0  0  0  0  0  0  0  0  0
    6.9671   -1.7139   -0.9460 H   0  0  0  0  0  0  0  0  0  0  0  0
    5.2788   -3.1514    0.1914 H   0  0  0  0  0  0  0  0  0  0  0  0
    1.6047    1.2166   -1.4576 H   0  0  0  0  0  0  0  0  0  0  0  0
    2.1430   -0.4886   -1.0943 H   0  0  0  0  0  0  0  0  0  0  0  0
   -0.0898   -0.0821   -2.2674 H   0  0  0  0  0  0  0  0  0  0  0  0
   -0.0516   -1.2913   -0.8980 H   0  0  0  0  0  0  0  0  0  0  0  0
   -1.3699    2.4091    0.5457 H   0  0  0  0  0  0  0  0  0  0  0  0
    0.0233    2.3702   -0.5853 H   0  0  0  0  0  0  0  0  0  0  0  0
    0.7232    2.2151    1.8209 H   0  0  0  0  0  0  0  0  0  0  0  0
   -0.0593    0.5966    1.9140 H   0  0  0  0  0  0  0  0  0  0  0  0
   -1.8683   -1.6222   -1.7537 H   0  0  0  0  0  0  0  0  0  0  0  0
   -6.6873   -2.0117   -1.0483 H   0  0  0  0  0  0  0  0  0  0  0  0
   -7.9400   -0.2296    0.3518 H   0  0  0  0  0  0  0  0  0  0  0  0
   -6.0531    1.5393    1.1201 H   0  0  0  0  0  0  0  0  0  0  0  0
   -3.2235    1.6335    0.6200 H   0  0  0  0  0  0  0  0  0  0  0  0
  1  2  1  0
  2  3  2  0
  3  4  1  0
  4  5  2  0
  5  6  1  0
  6  7  1  0
  6  8  2  0
  8  9  1  0
  9 10  2  0
  9 11  1  0
 11 12  1  0
 12 13  1  0
 13 14  1  0
 14 15  1  0
 15 16  1  0
 14 17  1  0
 17 18  2  0
 18 19  1  0
 19 20  2  0
 20 21  1  0
 21 22  1  0
 22 23  2  0
 23 24  1  0
 24 25  2  0
  8  2  1  0
 16 11  1  0
 25 17  1  0
 24 20  1  0
  3 26  1  0
  4 27  1  0
  5 28  1  0
 12 29  1  0
 12 30  1  0
 13 31  1  0
 13 32  1  0
 15 33  1  0
 15 34  1  0
 16 35  1  0
 16 36  1  0
 18 37  1  0
 21 38  1  0
 22 39  1  0
 23 40  1  0
 25 41  1  0
M  END
$$$$
[H]c1nc([C@]2([H])C([H])([H])C([H])([H])N(C(=O)c3c([H])c(F)nc(C([H])([H])[H])c3[H])C([H])([H])C([H])([H])C2([H])[H])c([H])c(-c2c([H])c([H])c([H])c([H])c2[H])c1[H]
     RDKit          3D

 53 56  0  0  0  0  0  0  0  0999 V2000
    7.8973   -1.0917    1.5927 C   0  0  0  0  0  0  0  0  0  0  0  0
    6.5032   -0.5775    1.5981 C   0  0  0  0  0  0  0  0  0  0  0  0
    5.7201   -0.5415    0.4816 C   0  0  0  0  0  0  0  0  0  0  0  0
    4.3924   -0.0621    0.4405 C   0  0  0  0  0  0  0  0  0  0  0  0
    3.9377    0.3796    1.6580 C   0  0  0  0  0  0  0  0  0  0  0  0
    4.7342    0.3491    2.8187 C   0  0  0  0  0  0  0  0  0  0  0  0
    4.1668    0.8148    3.9547 F   0  0  0  0  0  0  0  0  0  0  0  0
    5.9747   -0.1246    2.7413 N   0  0  0  0  0  0  0  0  0  0  0  0
    3.6553   -0.1050   -0.8089 C   0  0  0  0  0  0  0  0  0  0  0  0
    4.3535   -0.7646   -1.7355 O   0  0  0  0  0  0  0  0  0  0  0  0
    2.4514    0.3576   -1.2499 N   0  0  0  0  0  0  0  0  0  0  0  0
    2.1566   -0.0071   -2.6820 C   0  0  0  0  0  0  0  0  0  0  0  0
    0.9677   -0.9144   -2.7016 C   0  0  0  0  0  0  0  0  0  0  0  0
   -0.2450   -0.1360   -2.2459 C   0  0  0  0  0  0  0  0  0  0  0  0
   -0.5465   -0.2926   -0.7822 C   0  0  2  0  0  0  0  0  0  0  0  0
   -1.7768    0.5121   -0.5174 C   0  0  0  0  0  0  0  0  0  0  0  0
   -2.9140   -0.2041   -0.1253 C   0  0  0  0  0  0  0  0  0  0  0  0
   -4.0695    0.4939    0.1288 C   0  0  0  0  0  0  0  0  0  0  0  0
   -4.0658    1.8572   -0.0103 C   0  0  0  0  0  0  0  0  0  0  0  0
   -2.9003    2.5266   -0.4056 C   0  0  0  0  0  0  0  0  0  0  0  0
   -1.7771    1.8419   -0.6519 N   0  0  0  0  0  0  0  0  0  0  0  0
   -5.2677   -0.2249    0.5381 C   0  0  0  0  0  0  0  0  0  0  0  0
   -5.5018   -1.5143    0.0713 C   0  0  0  0  0  0  0  0  0  0  0  0
   -6.6283   -2.1768    0.4619 C   0  0  0  0  0  0  0  0  0  0  0  0
   -7.5301   -1.5783    1.3116 C   0  0  0  0  0  0  0  0  0  0  0  0
   -7.3275   -0.2932    1.7960 C   0  0  0  0  0  0  0  0  0  0  0  0
   -6.1941    0.3563    1.3948 C   0  0  0  0  0  0  0  0  0  0  0  0
    0.5130    0.2086    0.1386 C   0  0  0  0  0  0  0  0  0  0  0  0
    1.5237    1.1311   -0.5150 C   0  0  0  0  0  0  0  0  0  0  0  0
    7.8227   -2.1946    1.7761 H   0  0  0  0  0  0  0  0  0  0  0  0
    8.2679   -1.0064    0.5401 H   0  0  0  0  0  0  0  0  0  0  0  0
    8.5525   -0.5941    2.3127 H   0  0  0  0  0  0  0  0  0  0  0  0
    6.1682   -0.9086   -0.4277 H   0  0  0  0  0  0  0  0  0  0  0  0
    2.9437    0.7461    1.7502 H   0  0  0  0  0  0  0  0  0  0  0  0
    1.8706    0.9347   -3.2190 H   0  0  0  0  0  0  0  0  0  0  0  0
    3.0487   -0.3967   -3.1611 H   0  0  0  0  0  0  0  0  0  0  0  0
    0.8029   -1.2413   -3.7354 H   0  0  0  0  0  0  0  0  0  0  0  0
    1.1180   -1.8141   -2.0620 H   0  0  0  0  0  0  0  0  0  0  0  0
   -1.1307   -0.5966   -2.7781 H   0  0  0  0  0  0  0  0  0  0  0  0
   -0.2155    0.9012   -2.6034 H   0  0  0  0  0  0  0  0  0  0  0  0
   -0.7510   -1.3717   -0.6154 H   0  0  0  0  0  0  0  0  0  0  0  0
   -2.8969   -1.2863   -0.0204 H   0  0  0  0  0  0  0  0  0  0  0  0
   -4.9662    2.4043    0.1875 H   0  0  0  0  0  0  0  0  0  0  0  0
   -2.8743    3.6035   -0.5220 H   0  0  0  0  0  0  0  0  0  0  0  0
   -4.7620   -1.9375   -0.5933 H   0  0  0  0  0  0  0  0  0  0  0  0
   -6.8287   -3.1828    0.1089 H   0  0  0  0  0  0  0  0  0  0  0  0
   -8.4103   -2.1249    1.6029 H   0  0  0  0  0  0  0  0  0  0  0  0
   -8.0652    0.1578    2.4724 H   0  0  0  0  0  0  0  0  0  0  0  0
   -5.9786    1.3620    1.7383 H   0  0  0  0  0  0  0  0  0  0  0  0
    0.0890    0.7779    1.0076 H   0  0  0  0  0  0  0  0  0  0  0  0
    1.0605   -0.6676    0.5558 H   0  0  0  0  0  0  0  0  0  0  0  0
    0.9385    1.8394   -1.2206 H   0  0  0  0  0  0  0  0  0  0  0  0
    1.9932    1.7882    0.2105 H   0  0  0  0  0  0  0  0  0  0  0  0
  1  2  1  0
  2  3  2  0
  3  4  1  0
  4  5  2  0
  5  6  1  0
  6  7  1  0
  6  8  2  0
  4  9  1  0
  9 10  2  0
  9 11  1  0
 11 12  1  0
 12 13  1  0
 13 14  1  0
 14 15  1  0
 15 16  1  0
 16 17  2  0
 17 18  1  0
 18 19  2  0
 19 20  1  0
 20 21  2  0
 18 22  1  0
 22 23  2  0
 23 24  1  0
 24 25  2  0
 25 26  1  0
 26 27  2  0
 15 28  1  0
 28 29  1  0
  8  2  1  0
 29 11  1  0
 21 16  1  0
 27 22  1  0
  1 30  1  0
  1 31  1  0
  1 32  1  0
  3 33  1  0
  5 34  1  0
 12 35  1  0
 12 36  1  0
 13 37  1  0
 13 38  1  0
 14 39  1  0
 14 40  1  0
 15 41  1  6
 17 42  1  0
 19 43  1  0
 20 44  1  0
 23 45  1  0
 24 46  1  0
 25 47  1  0
 26 48  1  0
 27 49  1  0
 28 50  1  0
 28 51  1  0
 29 52  1  0
 29 53  1  0
M  END
$$$$
[H]Oc1c([H])c([H])c(C([H])([H])[C@]([H])(N([H])[H])[C@@]([H])(O[H])C([H])([H])C(=O)N([H])[C@@]([H])(C(=O)N([H])[C@]([H])(C(=O)N([H])[H])C([H])([H])C([H])([H])C([H])([H])N=C(N([H])[H])N([H])[H])C([H])([H])[H])c([H])c1O[H]
     RDKit          3D

 66 66  0  0  0  0  0  0  0  0999 V2000
    0.1856    1.7402   -1.3735 C   0  0  0  0  0  0  0  0  0  0  0  0
    0.2765    0.6827   -0.2927 C   0  0  1  0  0  0  0  0  0  0  0  0
   -0.4645   -0.4834   -0.6687 N   0  0  0  0  0  0  0  0  0  0  0  0
   -1.5547   -0.9411    0.1128 C   0  0  0  0  0  0  0  0  0  0  0  0
   -1.8428   -0.2800    1.1493 O   0  0  0  0  0  0  0  0  0  0  0  0
   -2.2928   -2.1447   -0.3064 C   0  0  0  0  0  0  0  0  0  0  0  0
   -3.4400   -2.5241    0.5725 C   0  0  2  0  0  0  0  0  0  0  0  0
   -3.9910   -3.6994   -0.0052 O   0  0  0  0  0  0  0  0  0  0  0  0
   -4.5667   -1.4922    0.5402 C   0  0  1  0  0  0  0  0  0  0  0  0
   -4.9824   -1.2577   -0.8291 N   0  0  0  0  0  0  0  0  0  0  0  0
   -5.7969   -2.0598    1.2542 C   0  0  0  0  0  0  0  0  0  0  0  0
   -6.8512   -0.9906    1.1780 C   0  0  0  0  0  0  0  0  0  0  0  0
   -6.9464   -0.0417    2.1736 C   0  0  0  0  0  0  0  0  0  0  0  0
   -7.9054    0.9444    2.1215 C   0  0  0  0  0  0  0  0  0  0  0  0
   -8.7599    0.9435    1.0409 C   0  0  0  0  0  0  0  0  0  0  0  0
   -9.7295    1.9350    0.9819 O   0  0  0  0  0  0  0  0  0  0  0  0
   -8.6756    0.0015    0.0397 C   0  0  0  0  0  0  0  0  0  0  0  0
   -9.5769    0.0534   -1.0380 O   0  0  0  0  0  0  0  0  0  0  0  0
   -7.7163   -0.9625    0.1180 C   0  0  0  0  0  0  0  0  0  0  0  0
    1.7010    0.3021   -0.1134 C   0  0  0  0  0  0  0  0  0  0  0  0
    2.0726   -0.8867   -0.2908 O   0  0  0  0  0  0  0  0  0  0  0  0
    2.6526    1.2875    0.2615 N   0  0  0  0  0  0  0  0  0  0  0  0
    4.0703    0.8931    0.4376 C   0  0  1  0  0  0  0  0  0  0  0  0
    4.8242    1.6508   -0.6027 C   0  0  0  0  0  0  0  0  0  0  0  0
    6.3223    1.3829   -0.6236 C   0  0  0  0  0  0  0  0  0  0  0  0
    6.6170   -0.0527   -0.8948 C   0  0  0  0  0  0  0  0  0  0  0  0
    7.9831   -0.3660   -0.9047 N   0  0  0  0  0  0  0  0  0  0  0  0
    8.9952    0.3471   -0.8997 C   0  0  0  0  0  0  0  0  0  0  0  0
   10.2723   -0.3331   -0.9140 N   0  0  0  0  0  0  0  0  0  0  0  0
    9.1001    1.7635   -0.8814 N   0  0  0  0  0  0  0  0  0  0  0  0
    4.4761    1.1810    1.8333 C   0  0  0  0  0  0  0  0  0  0  0  0
    5.7468    0.9136    2.3821 N   0  0  0  0  0  0  0  0  0  0  0  0
    3.6281    1.7144    2.6313 O   0  0  0  0  0  0  0  0  0  0  0  0
   -0.8326    2.1439   -1.4658 H   0  0  0  0  0  0  0  0  0  0  0  0
    0.8387    2.5845   -1.0668 H   0  0  0  0  0  0  0  0  0  0  0  0
    0.5546    1.3660   -2.3345 H   0  0  0  0  0  0  0  0  0  0  0  0
   -0.1610    1.0968    0.6348 H   0  0  0  0  0  0  0  0  0  0  0  0
   -0.2082   -1.0098   -1.5249 H   0  0  0  0  0  0  0  0  0  0  0  0
   -2.6896   -2.0644   -1.3418 H   0  0  0  0  0  0  0  0  0  0  0  0
   -1.5601   -2.9784   -0.3400 H   0  0  0  0  0  0  0  0  0  0  0  0
   -3.1730   -2.7895    1.6094 H   0  0  0  0  0  0  0  0  0  0  0  0
   -3.2293   -4.3428   -0.0365 H   0  0  0  0  0  0  0  0  0  0  0  0
   -4.2523   -0.5479    0.9769 H   0  0  0  0  0  0  0  0  0  0  0  0
   -4.8838   -2.1877   -1.3231 H   0  0  0  0  0  0  0  0  0  0  0  0
   -4.4432   -0.5240   -1.3056 H   0  0  0  0  0  0  0  0  0  0  0  0
   -5.6013   -2.2326    2.3176 H   0  0  0  0  0  0  0  0  0  0  0  0
   -6.0978   -2.9474    0.6827 H   0  0  0  0  0  0  0  0  0  0  0  0
   -6.2321   -0.1038    3.0030 H   0  0  0  0  0  0  0  0  0  0  0  0
   -7.9829    1.6945    2.9055 H   0  0  0  0  0  0  0  0  0  0  0  0
  -10.3828    1.9734    0.2016 H   0  0  0  0  0  0  0  0  0  0  0  0
   -9.4953   -0.6434   -1.7542 H   0  0  0  0  0  0  0  0  0  0  0  0
   -7.6279   -1.7219   -0.6632 H   0  0  0  0  0  0  0  0  0  0  0  0
    2.3658    2.2654    0.4103 H   0  0  0  0  0  0  0  0  0  0  0  0
    4.1356   -0.1906    0.2311 H   0  0  0  0  0  0  0  0  0  0  0  0
    4.4345    1.3722   -1.5947 H   0  0  0  0  0  0  0  0  0  0  0  0
    4.7180    2.7529   -0.4879 H   0  0  0  0  0  0  0  0  0  0  0  0
    6.8248    1.7767    0.2579 H   0  0  0  0  0  0  0  0  0  0  0  0
    6.6844    2.0061   -1.5063 H   0  0  0  0  0  0  0  0  0  0  0  0
    6.0734   -0.6861   -0.1466 H   0  0  0  0  0  0  0  0  0  0  0  0
    6.1799   -0.3370   -1.9010 H   0  0  0  0  0  0  0  0  0  0  0  0
   10.4609   -1.0005   -0.1496 H   0  0  0  0  0  0  0  0  0  0  0  0
   10.9657   -0.1490   -1.6699 H   0  0  0  0  0  0  0  0  0  0  0  0
    9.1748    2.2658    0.0267 H   0  0  0  0  0  0  0  0  0  0  0  0
    9.1067    2.3405   -1.7410 H   0  0  0  0  0  0  0  0  0  0  0  0
    6.4068    1.6645    2.6995 H   0  0  0  0  0  0  0  0  0  0  0  0
    6.0980   -0.0672    2.5007 H   0  0  0  0  0  0  0  0  0  0  0  0
  1  2  1  0
  2  3  1  0
  3  4  1  0
  4  5  2  0
  4  6  1  0
  6  7  1  0
  7  8  1  0
  7  9  1  0
  9 10  1  0
  9 11  1  0
 11 12  1  0
 12 13  2  0
 13 14  1  0
 14 15  2  0
 15 16  1  0
 15 17  1  0
 17 18  1  0
 17 19  2  0
  2 20  1  0
 20 21  2  0
 20 22  1  0
 22 23  1  0
 23 24  1  0
 24 25  1  0
 25 26  1  0
 26 27  1  0
 27 28  2  3
 28 29  1  0
 28 30  1  0
 23 31  1  0
 31 32  1  0
 31 33  2  0
 19 12  1  0
  1 34  1  0
  1 35  1  0
  1 36  1  0
  2 37  1  1
  3 38  1  0
  6 39  1  0
  6 40  1  0
  7 41  1  1
  8 42  1  0
  9 43  1  1
 10 44  1  0
 10 45  1  0
 11 46  1  0
 11 47  1  0
 13 48  1  0
 14 49  1  0
 16 50  1  0
 18 51  1  0
 19 52  1  0
 22 53  1  0
 23 54  1  6
 24 55  1  0
 24 56  1  0
 25 57  1  0
 25 58  1  0
 26 59  1  0
 26 60  1  0
 29 61  1  0
 29 62  1  0
 30 63  1  0
 30 64  1  0
 32 65  1  0
 32 66  1  0
M  END
$$$$
[H]c1c([H])c([H])c(-n2c(N([H])[H])nc(-c3c([H])c([H])c([H])c([H])c3F)c2[H])c([H])c1[H]
     RDKit          3D

 31 33  0  0  0  0  0  0  0  0999 V2000
    1.5222   -2.7072    0.8727 N   0  0  0  0  0  0  0  0  0  0  0  0
    0.6221   -1.6527    0.5566 C   0  0  0  0  0  0  0  0  0  0  0  0
   -0.7286   -1.6827    0.5315 N   0  0  0  0  0  0  0  0  0  0  0  0
   -1.2478   -0.5002    0.1891 C   0  0  0  0  0  0  0  0  0  0  0  0
   -0.1500    0.3192   -0.0121 C   0  0  0  0  0  0  0  0  0  0  0  0
    0.9639   -0.3988    0.2156 N   0  0  0  0  0  0  0  0  0  0  0  0
    2.2913    0.0982    0.1099 C   0  0  0  0  0  0  0  0  0  0  0  0
    3.2918   -0.6288   -0.4570 C   0  0  0  0  0  0  0  0  0  0  0  0
    4.5552   -0.0886   -0.5278 C   0  0  0  0  0  0  0  0  0  0  0  0
    4.8285    1.1797   -0.0338 C   0  0  0  0  0  0  0  0  0  0  0  0
    3.8245    1.9271    0.5431 C   0  0  0  0  0  0  0  0  0  0  0  0
    2.5643    1.3594    0.6009 C   0  0  0  0  0  0  0  0  0  0  0  0
   -2.6256   -0.0867    0.0398 C   0  0  0  0  0  0  0  0  0  0  0  0
   -2.9535    1.1986   -0.3266 C   0  0  0  0  0  0  0  0  0  0  0  0
   -4.2780    1.5447   -0.4558 C   0  0  0  0  0  0  0  0  0  0  0  0
   -5.2901    0.6358   -0.2275 C   0  0  0  0  0  0  0  0  0  0  0  0
   -4.9717   -0.6556    0.1403 C   0  0  0  0  0  0  0  0  0  0  0  0
   -3.6511   -0.9779    0.2628 C   0  0  0  0  0  0  0  0  0  0  0  0
   -3.3573   -2.2608    0.6276 F   0  0  0  0  0  0  0  0  0  0  0  0
    1.7587   -3.4388    0.1715 H   0  0  0  0  0  0  0  0  0  0  0  0
    1.9742   -2.7872    1.8066 H   0  0  0  0  0  0  0  0  0  0  0  0
   -0.1723    1.3793   -0.3081 H   0  0  0  0  0  0  0  0  0  0  0  0
    3.1269   -1.6242   -0.8569 H   0  0  0  0  0  0  0  0  0  0  0  0
    5.3521   -0.6805   -0.9851 H   0  0  0  0  0  0  0  0  0  0  0  0
    5.8205    1.6183   -0.0830 H   0  0  0  0  0  0  0  0  0  0  0  0
    4.0014    2.9310    0.9438 H   0  0  0  0  0  0  0  0  0  0  0  0
    1.7653    1.9580    1.0616 H   0  0  0  0  0  0  0  0  0  0  0  0
   -2.1865    1.9444   -0.5155 H   0  0  0  0  0  0  0  0  0  0  0  0
   -4.5675    2.5645   -0.7472 H   0  0  0  0  0  0  0  0  0  0  0  0
   -6.3370    0.8944   -0.3255 H   0  0  0  0  0  0  0  0  0  0  0  0
   -5.7458   -1.3820    0.3236 H   0  0  0  0  0  0  0  0  0  0  0  0
  1  2  1  0
  2  3  2  0
  3  4  1  0
  4  5  2  0
  5  6  1  0
  6  7  1  0
  7  8  2  0
  8  9  1  0
  9 10  2  0
 10 11  1  0
 11 12  2  0
  4 13  1  0
 13 14  2  0
 14 15  1  0
 15 16  2  0
 16 17  1  0
 17 18  2  0
 18 19  1  0
  6  2  1  0
 12  7  1  0
 18 13  1  0
  1 20  1  0
  1 21  1  0
  5 22  1  0
  8 23  1  0
  9 24  1  0
 10 25  1  0
 11 26  1  0
 12 27  1  0
 14 28  1  0
 15 29  1  0
 16 30  1  0
 17 31  1  0
M  END
$$$$
[H]c1nc(N2C([H])([H])C([H])([H])C([H])([H])C([H])([H])C2([H])[H])c([H])c(C(=O)N([H])c2c([H])c(Cl)c(Cl)c([H])c2Cl)c1[H]
     RDKit          3D

 40 42  0  0  0  0  0  0  0  0999 V2000
    6.1844   -2.4643    2.8564 Cl  0  0  0  0  0  0  0  0  0  0  0  0
    5.9081   -1.1733    1.7141 C   0  0  0  0  0  0  0  0  0  0  0  0
    4.6141   -0.9419    1.2219 C   0  0  0  0  0  0  0  0  0  0  0  0
    4.3385    0.0562    0.3244 C   0  0  0  0  0  0  0  0  0  0  0  0
    3.0825    0.3687   -0.2266 N   0  0  0  0  0  0  0  0  0  0  0  0
    1.8500   -0.2687    0.0202 C   0  0  0  0  0  0  0  0  0  0  0  0
    1.7853   -1.2335    0.8137 O   0  0  0  0  0  0  0  0  0  0  0  0
    0.6176    0.1808   -0.6424 C   0  0  0  0  0  0  0  0  0  0  0  0
    0.6741    0.9835   -1.7470 C   0  0  0  0  0  0  0  0  0  0  0  0
   -0.5202    1.4000   -2.3510 C   0  0  0  0  0  0  0  0  0  0  0  0
   -1.6925    1.0115   -1.8454 N   0  0  0  0  0  0  0  0  0  0  0  0
   -1.7974    0.2167   -0.7531 C   0  0  0  0  0  0  0  0  0  0  0  0
   -0.6349   -0.1941   -0.1581 C   0  0  0  0  0  0  0  0  0  0  0  0
   -3.0806   -0.1632   -0.2809 N   0  0  0  0  0  0  0  0  0  0  0  0
   -4.2821    0.0716   -1.0585 C   0  0  0  0  0  0  0  0  0  0  0  0
   -5.3540    0.6385   -0.1585 C   0  0  0  0  0  0  0  0  0  0  0  0
   -5.6172   -0.4698    0.8762 C   0  0  0  0  0  0  0  0  0  0  0  0
   -4.4169   -0.4352    1.7907 C   0  0  0  0  0  0  0  0  0  0  0  0
   -3.1961   -0.7953    1.0044 C   0  0  0  0  0  0  0  0  0  0  0  0
    5.4418    0.8269   -0.0647 C   0  0  0  0  0  0  0  0  0  0  0  0
    5.2102    2.1241   -1.2020 Cl  0  0  0  0  0  0  0  0  0  0  0  0
    6.7149    0.6074    0.4127 C   0  0  0  0  0  0  0  0  0  0  0  0
    6.9493   -0.3941    1.3035 C   0  0  0  0  0  0  0  0  0  0  0  0
    8.5478   -0.7038    1.9314 Cl  0  0  0  0  0  0  0  0  0  0  0  0
    3.8585   -1.5912    1.5898 H   0  0  0  0  0  0  0  0  0  0  0  0
    3.0556    1.1894   -0.9099 H   0  0  0  0  0  0  0  0  0  0  0  0
    1.5876    1.3265   -2.2045 H   0  0  0  0  0  0  0  0  0  0  0  0
   -0.4242    2.0300   -3.2164 H   0  0  0  0  0  0  0  0  0  0  0  0
   -0.6081   -0.8307    0.7083 H   0  0  0  0  0  0  0  0  0  0  0  0
   -4.0900    0.7301   -1.9288 H   0  0  0  0  0  0  0  0  0  0  0  0
   -4.6648   -0.9302   -1.4032 H   0  0  0  0  0  0  0  0  0  0  0  0
   -6.2656    0.8894   -0.7073 H   0  0  0  0  0  0  0  0  0  0  0  0
   -4.9356    1.4886    0.4174 H   0  0  0  0  0  0  0  0  0  0  0  0
   -6.5614   -0.3179    1.4051 H   0  0  0  0  0  0  0  0  0  0  0  0
   -5.5778   -1.4536    0.3288 H   0  0  0  0  0  0  0  0  0  0  0  0
   -4.5029   -1.1675    2.6214 H   0  0  0  0  0  0  0  0  0  0  0  0
   -4.2859    0.6025    2.1645 H   0  0  0  0  0  0  0  0  0  0  0  0
   -2.3171   -0.5168    1.6306 H   0  0  0  0  0  0  0  0  0  0  0  0
   -3.1514   -1.9104    0.8441 H   0  0  0  0  0  0  0  0  0  0  0  0
    7.5563    1.2130    0.1011 H   0  0  0  0  0  0  0  0  0  0  0  0
  1  2  1  0
  2  3  2  0
  3  4  1  0
  4  5  1  0
  5  6  1  0
  6  7  2  0
  6  8  1  0
  8  9  2  0
  9 10  1  0
 10 11  2  0
 11 12  1  0
 12 13  2  0
 12 14  1  0
 14 15  1  0
 15 16  1  0
 16 17  1  0
 17 18  1  0
 18 19  1  0
  4 20  2  0
 20 21  1  0
 20 22  1  0
 22 23  2  0
 23 24  1  0
 23  2  1  0
 13  8  1  0
 19 14  1  0
  3 25  1  0
  5 26  1  0
  9 27  1  0
 10 28  1  0
 13 29  1  0
 15 30  1  0
 15 31  1  0
 16 32  1  0
 16 33  1  0
 17 34  1  0
 17 35  1  0
 18 36  1  0
 18 37  1  0
 19 38  1  0
 19 39  1  0
 22 40  1  0
M  END
$$$$
[H]c1c([H])c(C([H])([H])[C@@]([H])(N2C([H])([H])C([H])([H])N(c3nnnn3C([H])([H])[H])C([H])([H])C2([H])[H])N(C([H])([H])C([H])([H])[H])C([H])([H])C([H])([H])C([H])([H])C([H])([H])[H])c([H])c(Cl)c1Cl
     RDKit          3D

 60 62  0  0  0  0  0  0  0  0999 V2000
   -3.6715   -4.9106    0.6126 C   0  0  0  0  0  0  0  0  0  0  0  0
   -3.3454   -3.4570    1.0323 C   0  0  0  0  0  0  0  0  0  0  0  0
   -2.9901   -2.6571   -0.1626 C   0  0  0  0  0  0  0  0  0  0  0  0
   -2.7035   -1.2393   -0.0635 C   0  0  0  0  0  0  0  0  0  0  0  0
   -1.6555   -0.7021    0.7516 N   0  0  0  0  0  0  0  0  0  0  0  0
   -1.9317   -0.6448    2.1164 C   0  0  0  0  0  0  0  0  0  0  0  0
   -3.0717    0.3170    2.4845 C   0  0  0  0  0  0  0  0  0  0  0  0
   -0.9198    0.3374    0.0868 C   0  0  1  0  0  0  0  0  0  0  0  0
   -1.6290    1.6079   -0.0816 C   0  0  0  0  0  0  0  0  0  0  0  0
   -0.9999    2.7230   -0.7968 C   0  0  0  0  0  0  0  0  0  0  0  0
   -1.3378    2.9504   -2.1254 C   0  0  0  0  0  0  0  0  0  0  0  0
   -0.7487    3.9900   -2.7999 C   0  0  0  0  0  0  0  0  0  0  0  0
    0.1721    4.8315   -2.2177 C   0  0  0  0  0  0  0  0  0  0  0  0
    0.9050    6.1549   -3.1296 Cl  0  0  0  0  0  0  0  0  0  0  0  0
    0.4969    4.5965   -0.9041 C   0  0  0  0  0  0  0  0  0  0  0  0
    1.6645    5.6496   -0.1468 Cl  0  0  0  0  0  0  0  0  0  0  0  0
   -0.0784    3.5590   -0.2026 C   0  0  0  0  0  0  0  0  0  0  0  0
    0.4782    0.2835    0.1884 N   0  0  0  0  0  0  0  0  0  0  0  0
    1.2611    0.6302   -0.9374 C   0  0  0  0  0  0  0  0  0  0  0  0
    2.0870   -0.6369   -1.3121 C   0  0  0  0  0  0  0  0  0  0  0  0
    2.9922   -0.7933   -0.1790 N   0  0  0  0  0  0  0  0  0  0  0  0
    2.6089   -0.4249    1.1413 C   0  0  0  0  0  0  0  0  0  0  0  0
    1.1331   -0.1574    1.3340 C   0  0  0  0  0  0  0  0  0  0  0  0
    4.2840   -1.3083   -0.4185 C   0  0  0  0  0  0  0  0  0  0  0  0
    4.6064   -2.6203   -0.5290 N   0  0  0  0  0  0  0  0  0  0  0  0
    5.9072   -2.6605   -0.7471 N   0  0  0  0  0  0  0  0  0  0  0  0
    6.3898   -1.4307   -0.7744 N   0  0  0  0  0  0  0  0  0  0  0  0
    5.4115   -0.5816   -0.5743 N   0  0  0  0  0  0  0  0  0  0  0  0
    5.4308    0.8843   -0.5012 C   0  0  0  0  0  0  0  0  0  0  0  0
   -2.7339   -5.4011    0.3595 H   0  0  0  0  0  0  0  0  0  0  0  0
   -4.1149   -5.3907    1.4952 H   0  0  0  0  0  0  0  0  0  0  0  0
   -4.3992   -4.9163   -0.2280 H   0  0  0  0  0  0  0  0  0  0  0  0
   -2.4541   -3.6280    1.7140 H   0  0  0  0  0  0  0  0  0  0  0  0
   -4.2088   -3.0376    1.5642 H   0  0  0  0  0  0  0  0  0  0  0  0
   -3.8716   -2.8479   -0.8957 H   0  0  0  0  0  0  0  0  0  0  0  0
   -2.1687   -3.2197   -0.7491 H   0  0  0  0  0  0  0  0  0  0  0  0
   -2.4742   -0.8668   -1.1174 H   0  0  0  0  0  0  0  0  0  0  0  0
   -3.6867   -0.6821    0.1348 H   0  0  0  0  0  0  0  0  0  0  0  0
   -2.2634   -1.6164    2.5097 H   0  0  0  0  0  0  0  0  0  0  0  0
   -1.0440   -0.3961    2.7240 H   0  0  0  0  0  0  0  0  0  0  0  0
   -3.6413    0.6729    1.6348 H   0  0  0  0  0  0  0  0  0  0  0  0
   -3.7288   -0.1392    3.2856 H   0  0  0  0  0  0  0  0  0  0  0  0
   -2.6004    1.1727    2.9978 H   0  0  0  0  0  0  0  0  0  0  0  0
   -1.0296   -0.0965   -1.0575 H   0  0  0  0  0  0  0  0  0  0  0  0
   -2.6582    1.5062   -0.5079 H   0  0  0  0  0  0  0  0  0  0  0  0
   -1.8588    2.0639    0.9540 H   0  0  0  0  0  0  0  0  0  0  0  0
   -2.0691    2.3051   -2.6321 H   0  0  0  0  0  0  0  0  0  0  0  0
   -1.0177    4.1631   -3.8486 H   0  0  0  0  0  0  0  0  0  0  0  0
    0.1821    3.3755    0.8422 H   0  0  0  0  0  0  0  0  0  0  0  0
    2.0659    1.3949   -0.7404 H   0  0  0  0  0  0  0  0  0  0  0  0
    0.6681    0.9045   -1.7931 H   0  0  0  0  0  0  0  0  0  0  0  0
    1.3999   -1.4832   -1.4048 H   0  0  0  0  0  0  0  0  0  0  0  0
    2.6745   -0.3831   -2.1851 H   0  0  0  0  0  0  0  0  0  0  0  0
    3.2488    0.4384    1.4841 H   0  0  0  0  0  0  0  0  0  0  0  0
    2.9269   -1.2605    1.8465 H   0  0  0  0  0  0  0  0  0  0  0  0
    0.7241   -1.1767    1.6224 H   0  0  0  0  0  0  0  0  0  0  0  0
    0.9786    0.4869    2.2371 H   0  0  0  0  0  0  0  0  0  0  0  0
    4.5710    1.3324   -1.0279 H   0  0  0  0  0  0  0  0  0  0  0  0
    6.4032    1.2061   -0.9222 H   0  0  0  0  0  0  0  0  0  0  0  0
    5.4347    1.2289    0.5595 H   0  0  0  0  0  0  0  0  0  0  0  0
  1  2  1  0
  2  3  1  0
  3  4  1  0
  4  5  1  0
  5  6  1  0
  6  7  1  0
  5  8  1  0
  8  9  1  0
  9 10  1  0
 10 11  2  0
 11 12  1  0
 12 13  2  0
 13 14  1  0
 13 15  1  0
 15 16  1  0
 15 17  2  0
  8 18  1  0
 18 19  1  0
 19 20  1  0
 20 21  1  0
 21 22  1  0
 22 23  1  0
 21 24  1  0
 24 25  2  0
 25 26  1  0
 26 27  2  0
 27 28  1  0
 28 29  1  0
 17 10  1  0
 23 18  1  0
 28 24  1  0
  1 30  1  0
  1 31  1  0
  1 32  1  0
  2 33  1  0
  2 34  1  0
  3 35  1  0
  3 36  1  0
  4 37  1  0
  4 38  1  0
  6 39  1  0
  6 40  1  0
  7 41  1  0
  7 42  1  0
  7 43  1  0
  8 44  1  6
  9 45  1  0
  9 46  1  0
 11 47  1  0
 12 48  1  0
 17 49  1  0
 19 50  1  0
 19 51  1  0
 20 52  1  0
 20 53  1  0
 22 54  1  0
 22 55  1  0
 23 56  1  0
 23 57  1  0
 29 58  1  0
 29 59  1  0
 29 60  1  0
M  END
$$$$
[H]c1nn([H])c([H])c1C(=O)N([H])c1c([H])nc(C([H])([H])[H])nc1[H]
     RDKit          3D

 24 25  0  0  0  0  0  0  0  0999 V2000
    5.1001    0.5352   -0.1429 C   0  0  0  0  0  0  0  0  0  0  0  0
    3.6017    0.4134   -0.1253 C   0  0  0  0  0  0  0  0  0  0  0  0
    2.9931   -0.3558    0.7813 N   0  0  0  0  0  0  0  0  0  0  0  0
    1.6256   -0.4708    0.8016 C   0  0  0  0  0  0  0  0  0  0  0  0
    0.8242    0.1836   -0.0891 C   0  0  0  0  0  0  0  0  0  0  0  0
   -0.5766    0.1239   -0.1554 N   0  0  0  0  0  0  0  0  0  0  0  0
   -1.4514   -0.6798    0.5761 C   0  0  0  0  0  0  0  0  0  0  0  0
   -1.0437   -1.4921    1.4290 O   0  0  0  0  0  0  0  0  0  0  0  0
   -2.9143   -0.6156    0.3831 C   0  0  0  0  0  0  0  0  0  0  0  0
   -3.9008   -1.3252    1.0100 C   0  0  0  0  0  0  0  0  0  0  0  0
   -5.0663   -0.9063    0.4864 N   0  0  0  0  0  0  0  0  0  0  0  0
   -4.8798    0.0230   -0.4317 N   0  0  0  0  0  0  0  0  0  0  0  0
   -3.5551    0.2138   -0.5073 C   0  0  0  0  0  0  0  0  0  0  0  0
    1.5013    0.9861   -1.0308 C   0  0  0  0  0  0  0  0  0  0  0  0
    2.8336    1.0644   -1.0083 N   0  0  0  0  0  0  0  0  0  0  0  0
    5.5623   -0.3513   -0.6301 H   0  0  0  0  0  0  0  0  0  0  0  0
    5.4412    0.6417    0.9107 H   0  0  0  0  0  0  0  0  0  0  0  0
    5.3609    1.4126   -0.7666 H   0  0  0  0  0  0  0  0  0  0  0  0
    1.1774   -1.0987    1.5543 H   0  0  0  0  0  0  0  0  0  0  0  0
   -1.0758    0.7758   -0.8552 H   0  0  0  0  0  0  0  0  0  0  0  0
   -3.7198   -2.0722    1.7771 H   0  0  0  0  0  0  0  0  0  0  0  0
   -5.6354    0.5173   -0.9951 H   0  0  0  0  0  0  0  0  0  0  0  0
   -3.1213    0.9383   -1.1977 H   0  0  0  0  0  0  0  0  0  0  0  0
    0.9188    1.5387   -1.7743 H   0  0  0  0  0  0  0  0  0  0  0  0
  1  2  1  0
  2  3  2  0
  3  4  1  0
  4  5  2  0
  5  6  1  0
  6  7  1  0
  7  8  2  0
  7  9  1  0
  9 10  1  0
 10 11  2  0
 11 12  1  0
 12 13  1  0
  5 14  1  0
 14 15  2  0
 15  2  1  0
 13  9  2  0
  1 16  1  0
  1 17  1  0
  1 18  1  0
  4 19  1  0
  6 20  1  0
 10 21  1  0
 12 22  1  0
 13 23  1  0
 14 24  1  0
M  END
$$$$
[H]c1c([H])c([H])c(C([H])([H])C([H])(C([H])([H])[H])C([H])([H])c2c([H])c(C([H])([H])c3nn([H])c(C(F)(F)F)c3[H])c([H])c([H])c2OC([H])([H])[H])c(C(=O)N2C([H])([H])C([H])([H])C([H])(N([H])C(=O)C([H])([H])[H])C([H])([H])C2([H])[H])c1[H]
     RDKit          3D

 75 78  0  0  0  0  0  0  0  0999 V2000
    3.7861   -2.5924   -3.7667 C   0  0  0  0  0  0  0  0  0  0  0  0
    2.9447   -2.3069   -2.6958 O   0  0  0  0  0  0  0  0  0  0  0  0
    3.3405   -1.7403   -1.4842 C   0  0  0  0  0  0  0  0  0  0  0  0
    4.6658   -1.4280   -1.2913 C   0  0  0  0  0  0  0  0  0  0  0  0
    5.0763   -0.8722   -0.0967 C   0  0  0  0  0  0  0  0  0  0  0  0
    4.2120   -0.6079    0.9374 C   0  0  0  0  0  0  0  0  0  0  0  0
    4.6507    0.0173    2.2157 C   0  0  0  0  0  0  0  0  0  0  0  0
    6.1221    0.0856    2.2391 C   0  0  0  0  0  0  0  0  0  0  0  0
    6.8783    1.1269    1.7536 C   0  0  0  0  0  0  0  0  0  0  0  0
    8.1997    0.8070    1.9471 C   0  0  0  0  0  0  0  0  0  0  0  0
    8.2370   -0.3963    2.5370 N   0  0  0  0  0  0  0  0  0  0  0  0
    6.9765   -0.8268    2.7101 N   0  0  0  0  0  0  0  0  0  0  0  0
    9.3682    1.6396    1.5499 C   0  0  0  0  0  0  0  0  0  0  0  0
   10.5522    1.0745    1.9831 F   0  0  0  0  0  0  0  0  0  0  0  0
    9.2235    2.9121    2.0239 F   0  0  0  0  0  0  0  0  0  0  0  0
    9.3838    1.7541    0.1521 F   0  0  0  0  0  0  0  0  0  0  0  0
    2.8799   -0.9373    0.7048 C   0  0  0  0  0  0  0  0  0  0  0  0
    2.4348   -1.4908   -0.4715 C   0  0  0  0  0  0  0  0  0  0  0  0
    1.0140   -1.8021   -0.7548 C   0  0  0  0  0  0  0  0  0  0  0  0
    0.2139   -0.6927   -1.3647 C   0  0  0  0  0  0  0  0  0  0  0  0
    0.7571   -0.1745   -2.6264 C   0  0  0  0  0  0  0  0  0  0  0  0
   -0.2955    0.2840   -0.3646 C   0  0  0  0  0  0  0  0  0  0  0  0
   -1.0479    1.4395   -0.8495 C   0  0  0  0  0  0  0  0  0  0  0  0
   -0.4075    2.7047   -0.8632 C   0  0  0  0  0  0  0  0  0  0  0  0
   -1.0005    3.8478   -1.2627 C   0  0  0  0  0  0  0  0  0  0  0  0
   -2.3144    3.7687   -1.6830 C   0  0  0  0  0  0  0  0  0  0  0  0
   -2.9545    2.5667   -1.6813 C   0  0  0  0  0  0  0  0  0  0  0  0
   -2.3480    1.3539   -1.2652 C   0  0  0  0  0  0  0  0  0  0  0  0
   -3.1468    0.1510   -1.3481 C   0  0  0  0  0  0  0  0  0  0  0  0
   -3.2950   -0.5911   -2.3419 O   0  0  0  0  0  0  0  0  0  0  0  0
   -3.8801   -0.2707   -0.1589 N   0  0  0  0  0  0  0  0  0  0  0  0
   -3.7938    0.4735    1.0488 C   0  0  0  0  0  0  0  0  0  0  0  0
   -4.9323    0.4332    1.9898 C   0  0  0  0  0  0  0  0  0  0  0  0
   -5.9487   -0.6332    1.6479 C   0  0  0  0  0  0  0  0  0  0  0  0
   -5.2541   -1.8481    1.0635 C   0  0  0  0  0  0  0  0  0  0  0  0
   -4.7042   -1.4513   -0.2618 C   0  0  0  0  0  0  0  0  0  0  0  0
   -6.9606   -0.1462    0.7521 N   0  0  0  0  0  0  0  0  0  0  0  0
   -8.3285   -0.2940    1.0687 C   0  0  0  0  0  0  0  0  0  0  0  0
   -9.3793    0.2042    0.1673 C   0  0  0  0  0  0  0  0  0  0  0  0
   -8.6418   -0.8649    2.1497 O   0  0  0  0  0  0  0  0  0  0  0  0
    3.2323   -3.0853   -4.6147 H   0  0  0  0  0  0  0  0  0  0  0  0
    4.2495   -1.6737   -4.2118 H   0  0  0  0  0  0  0  0  0  0  0  0
    4.6019   -3.2609   -3.3966 H   0  0  0  0  0  0  0  0  0  0  0  0
    5.3884   -1.6308   -2.0986 H   0  0  0  0  0  0  0  0  0  0  0  0
    6.1388   -0.6479    0.0338 H   0  0  0  0  0  0  0  0  0  0  0  0
    4.2327    1.0272    2.3768 H   0  0  0  0  0  0  0  0  0  0  0  0
    4.3530   -0.6620    3.0436 H   0  0  0  0  0  0  0  0  0  0  0  0
    6.5434    2.0539    1.2914 H   0  0  0  0  0  0  0  0  0  0  0  0
    9.1241   -0.8884    2.8009 H   0  0  0  0  0  0  0  0  0  0  0  0
    2.1701   -0.7476    1.4997 H   0  0  0  0  0  0  0  0  0  0  0  0
    0.9474   -2.6865   -1.4515 H   0  0  0  0  0  0  0  0  0  0  0  0
    0.5730   -2.1732    0.1938 H   0  0  0  0  0  0  0  0  0  0  0  0
   -0.7545   -1.2573   -1.6921 H   0  0  0  0  0  0  0  0  0  0  0  0
    1.7733    0.2634   -2.5747 H   0  0  0  0  0  0  0  0  0  0  0  0
    0.1413    0.7144   -3.0096 H   0  0  0  0  0  0  0  0  0  0  0  0
    0.6099   -0.9173   -3.4374 H   0  0  0  0  0  0  0  0  0  0  0  0
    0.6168    0.6750    0.1747 H   0  0  0  0  0  0  0  0  0  0  0  0
   -0.8285   -0.2511    0.4900 H   0  0  0  0  0  0  0  0  0  0  0  0
    0.6305    2.7390   -0.5226 H   0  0  0  0  0  0  0  0  0  0  0  0
   -0.4369    4.7727   -1.2418 H   0  0  0  0  0  0  0  0  0  0  0  0
   -2.7687    4.6991   -2.0030 H   0  0  0  0  0  0  0  0  0  0  0  0
   -3.9993    2.4959   -2.0120 H   0  0  0  0  0  0  0  0  0  0  0  0
   -2.8468    0.2458    1.6106 H   0  0  0  0  0  0  0  0  0  0  0  0
   -3.6647    1.5589    0.7196 H   0  0  0  0  0  0  0  0  0  0  0  0
   -5.4660    1.4069    2.0007 H   0  0  0  0  0  0  0  0  0  0  0  0
   -4.5596    0.2973    3.0373 H   0  0  0  0  0  0  0  0  0  0  0  0
   -6.4312   -0.9789    2.5750 H   0  0  0  0  0  0  0  0  0  0  0  0
   -6.0480   -2.6215    0.9545 H   0  0  0  0  0  0  0  0  0  0  0  0
   -4.4453   -2.1504    1.7486 H   0  0  0  0  0  0  0  0  0  0  0  0
   -5.5484   -1.1900   -0.9751 H   0  0  0  0  0  0  0  0  0  0  0  0
   -4.1390   -2.2793   -0.7596 H   0  0  0  0  0  0  0  0  0  0  0  0
   -6.7069    0.3243   -0.1398 H   0  0  0  0  0  0  0  0  0  0  0  0
   -8.9607    0.3268   -0.8342 H   0  0  0  0  0  0  0  0  0  0  0  0
   -9.6942    1.2119    0.5617 H   0  0  0  0  0  0  0  0  0  0  0  0
  -10.3112   -0.3870    0.1668 H   0  0  0  0  0  0  0  0  0  0  0  0
  1  2  1  0
  2  3  1  0
  3  4  2  0
  4  5  1  0
  5  6  2  0
  6  7  1  0
  7  8  1  0
  8  9  1  0
  9 10  2  0
 10 11  1  0
 11 12  1  0
 10 13  1  0
 13 14  1  0
 13 15  1  0
 13 16  1  0
  6 17  1  0
 17 18  2  0
 18 19  1  0
 19 20  1  0
 20 21  1  0
 20 22  1  0
 22 23  1  0
 23 24  2  0
 24 25  1  0
 25 26  2  0
 26 27  1  0
 27 28  2  0
 28 29  1  0
 29 30  2  0
 29 31  1  0
 31 32  1  0
 32 33  1  0
 33 34  1  0
 34 35  1  0
 35 36  1  0
 34 37  1  0
 37 38  1  0
 38 39  1  0
 38 40  2  0
 18  3  1  0
 28 23  1  0
 36 31  1  0
 12  8  2  0
  1 41  1  0
  1 42  1  0
  1 43  1  0
  4 44  1  0
  5 45  1  0
  7 46  1  0
  7 47  1  0
  9 48  1  0
 11 49  1  0
 17 50  1  0
 19 51  1  0
 19 52  1  0
 20 53  1  0
 21 54  1  0
 21 55  1  0
 21 56  1  0
 22 57  1  0
 22 58  1  0
 24 59  1  0
 25 60  1  0
 26 61  1  0
 27 62  1  0
 32 63  1  0
 32 64  1  0
 33 65  1  0
 33 66  1  0
 34 67  1  0
 35 68  1  0
 35 69  1  0
 36 70  1  0
 36 71  1  0
 37 72  1  0
 39 73  1  0
 39 74  1  0
 39 75  1  0
M  END
$$$$
[H]c1c([H])c(-c2c([H])c(OC([H])([H])C([H])([H])OC([H])([H])[H])c([H])c(S(=O)(=O)N3C(=O)C4(C3([H])[H])C([H])([H])C([H])([H])OC([H])([H])C4([H])[H])c2[H])c([H])c(F)c1C#N
     RDKit          3D

 56 59  0  0  0  0  0  0  0  0999 V2000
    4.6851    3.4094   -0.6774 C   0  0  0  0  0  0  0  0  0  0  0  0
    4.3091    2.6852    0.4361 O   0  0  0  0  0  0  0  0  0  0  0  0
    3.8866    3.5039    1.4293 C   0  0  0  0  0  0  0  0  0  0  0  0
    3.4723    2.7178    2.6568 C   0  0  0  0  0  0  0  0  0  0  0  0
    2.4924    1.8710    2.4793 O   0  0  0  0  0  0  0  0  0  0  0  0
    1.8752    0.8184    1.9801 C   0  0  0  0  0  0  0  0  0  0  0  0
    2.4900   -0.0556    1.0790 C   0  0  0  0  0  0  0  0  0  0  0  0
    1.8196   -1.1459    0.5706 C   0  0  0  0  0  0  0  0  0  0  0  0
    0.5157   -1.3708    0.9657 C   0  0  0  0  0  0  0  0  0  0  0  0
   -0.1491   -0.5533    1.8479 C   0  0  0  0  0  0  0  0  0  0  0  0
   -1.8005   -0.9191    2.2872 S   0  0  0  0  0  0  0  0  0  0  0  0
   -1.9677   -2.4154    2.1840 O   0  0  0  0  0  0  0  0  0  0  0  0
   -2.0274   -0.4777    3.7028 O   0  0  0  0  0  0  0  0  0  0  0  0
   -2.9376   -0.1302    1.2610 N   0  0  0  0  0  0  0  0  0  0  0  0
   -3.0152    0.7713    0.1506 C   0  0  0  0  0  0  0  0  0  0  0  0
   -4.3560    0.2036   -0.1610 C   0  0  0  0  0  0  0  0  0  0  0  0
   -5.4625    1.2018   -0.3926 C   0  0  0  0  0  0  0  0  0  0  0  0
   -5.7020    1.5075   -1.8376 C   0  0  0  0  0  0  0  0  0  0  0  0
   -5.4530    0.4719   -2.6975 O   0  0  0  0  0  0  0  0  0  0  0  0
   -5.5851   -0.7567   -2.0974 C   0  0  0  0  0  0  0  0  0  0  0  0
   -4.3875   -0.9267   -1.1545 C   0  0  0  0  0  0  0  0  0  0  0  0
   -4.3564   -0.1936    1.2709 C   0  0  0  0  0  0  0  0  0  0  0  0
   -5.2465   -0.4742    2.1447 O   0  0  0  0  0  0  0  0  0  0  0  0
    0.5344    0.5171    2.3361 C   0  0  0  0  0  0  0  0  0  0  0  0
    2.5120   -2.0204   -0.3572 C   0  0  0  0  0  0  0  0  0  0  0  0
    3.8636   -2.2093   -0.2434 C   0  0  0  0  0  0  0  0  0  0  0  0
    4.5741   -3.0324   -1.1032 C   0  0  0  0  0  0  0  0  0  0  0  0
    3.8983   -3.6828   -2.1061 C   0  0  0  0  0  0  0  0  0  0  0  0
    4.5775   -4.5533   -3.0348 C   0  0  0  0  0  0  0  0  0  0  0  0
    5.1232   -5.2609   -3.7900 N   0  0  0  0  0  0  0  0  0  0  0  0
    2.5272   -3.5159   -2.2527 C   0  0  0  0  0  0  0  0  0  0  0  0
    1.8805   -4.1664   -3.2486 F   0  0  0  0  0  0  0  0  0  0  0  0
    1.8444   -2.6737   -1.3617 C   0  0  0  0  0  0  0  0  0  0  0  0
    5.0344    2.7130   -1.4896 H   0  0  0  0  0  0  0  0  0  0  0  0
    3.8074    4.0020   -1.0447 H   0  0  0  0  0  0  0  0  0  0  0  0
    5.4797    4.1295   -0.4460 H   0  0  0  0  0  0  0  0  0  0  0  0
    4.6817    4.2457    1.6739 H   0  0  0  0  0  0  0  0  0  0  0  0
    2.9903    4.0651    1.0604 H   0  0  0  0  0  0  0  0  0  0  0  0
    4.4571    2.2507    3.0410 H   0  0  0  0  0  0  0  0  0  0  0  0
    3.2572    3.4934    3.4706 H   0  0  0  0  0  0  0  0  0  0  0  0
    3.5180    0.0694    0.7489 H   0  0  0  0  0  0  0  0  0  0  0  0
    0.0255   -2.2296    0.5483 H   0  0  0  0  0  0  0  0  0  0  0  0
   -2.2345    0.6629   -0.6345 H   0  0  0  0  0  0  0  0  0  0  0  0
   -3.0407    1.8452    0.4735 H   0  0  0  0  0  0  0  0  0  0  0  0
   -6.3938    0.7638    0.0426 H   0  0  0  0  0  0  0  0  0  0  0  0
   -5.2383    2.1024    0.2070 H   0  0  0  0  0  0  0  0  0  0  0  0
   -5.0664    2.3941   -2.1162 H   0  0  0  0  0  0  0  0  0  0  0  0
   -6.7521    1.8486   -1.9923 H   0  0  0  0  0  0  0  0  0  0  0  0
   -6.5311   -0.8727   -1.5133 H   0  0  0  0  0  0  0  0  0  0  0  0
   -5.4856   -1.5738   -2.8509 H   0  0  0  0  0  0  0  0  0  0  0  0
   -4.3954   -1.9186   -0.6632 H   0  0  0  0  0  0  0  0  0  0  0  0
   -3.4877   -0.8505   -1.8005 H   0  0  0  0  0  0  0  0  0  0  0  0
    0.0838    1.1994    3.0285 H   0  0  0  0  0  0  0  0  0  0  0  0
    4.4339   -1.7248    0.5232 H   0  0  0  0  0  0  0  0  0  0  0  0
    5.6390   -3.1778   -1.0092 H   0  0  0  0  0  0  0  0  0  0  0  0
    0.7831   -2.5819   -1.5235 H   0  0  0  0  0  0  0  0  0  0  0  0
  1  2  1  0
  2  3  1  0
  3  4  1  0
  4  5  1  0
  5  6  1  0
  6  7  2  0
  7  8  1  0
  8  9  2  0
  9 10  1  0
 10 11  1  0
 11 12  2  0
 11 13  2  0
 11 14  1  0
 14 15  1  0
 15 16  1  0
 16 17  1  0
 17 18  1  0
 18 19  1  0
 19 20  1  0
 20 21  1  0
 16 22  1  0
 22 23  2  0
 10 24  2  0
  8 25  1  0
 25 26  2  0
 26 27  1  0
 27 28  2  0
 28 29  1  0
 29 30  3  0
 28 31  1  0
 31 32  1  0
 31 33  2  0
 24  6  1  0
 33 25  1  0
 22 14  1  0
 21 16  1  0
  1 34  1  0
  1 35  1  0
  1 36  1  0
  3 37  1  0
  3 38  1  0
  4 39  1  0
  4 40  1  0
  7 41  1  0
  9 42  1  0
 15 43  1  0
 15 44  1  0
 17 45  1  0
 17 46  1  0
 18 47  1  0
 18 48  1  0
 20 49  1  0
 20 50  1  0
 21 51  1  0
 21 52  1  0
 24 53  1  0
 26 54  1  0
 27 55  1  0
 33 56  1  0
M  END
$$$$
[H]c1nc(N([H])C(=O)C([H])([H])Oc2c([H])c([H])c(Cl)c([N+](=O)[O-])c2[H])nc(-c2c([H])c([H])c(C([H])([H])N3C([H])([H])C([H])([H])C([H])([H])C3([H])[H])c([H])c2[H])c1C([H])([H])[H]
     RDKit          3D

 58 61  0  0  0  0  0  0  0  0999 V2000
   -1.5828   -4.5617    0.9073 C   0  0  0  0  0  0  0  0  0  0  0  0
   -0.4113   -3.6501    0.7849 C   0  0  0  0  0  0  0  0  0  0  0  0
    0.8557   -4.1000    1.1491 C   0  0  0  0  0  0  0  0  0  0  0  0
    1.8872   -3.2783    1.0240 N   0  0  0  0  0  0  0  0  0  0  0  0
    1.8158   -2.0084    0.5617 C   0  0  0  0  0  0  0  0  0  0  0  0
    2.9691   -1.1833    0.4594 N   0  0  0  0  0  0  0  0  0  0  0  0
    4.2392   -1.6830    0.8483 C   0  0  0  0  0  0  0  0  0  0  0  0
    4.3226   -2.8598    1.2784 O   0  0  0  0  0  0  0  0  0  0  0  0
    5.4729   -0.8236    0.7508 C   0  0  0  0  0  0  0  0  0  0  0  0
    5.1404    0.4299    0.2411 O   0  0  0  0  0  0  0  0  0  0  0  0
    6.0224    1.4684    0.0212 C   0  0  0  0  0  0  0  0  0  0  0  0
    5.5718    2.6648   -0.4903 C   0  0  0  0  0  0  0  0  0  0  0  0
    6.4310    3.7333   -0.7248 C   0  0  0  0  0  0  0  0  0  0  0  0
    7.7547    3.5893   -0.4396 C   0  0  0  0  0  0  0  0  0  0  0  0
    8.8426    4.9296   -0.7317 Cl  0  0  0  0  0  0  0  0  0  0  0  0
    8.2413    2.4048    0.0738 C   0  0  0  0  0  0  0  0  0  0  0  0
    7.3639    1.3493    0.3004 C   0  0  0  0  0  0  0  0  0  0  0  0
    9.6306    2.3279    0.3468 N   0  0  0  0  0  0  0  0  0  0  0  0
   10.2664    1.1270    0.2197 O   0  0  0  0  0  0  0  0  0  0  0  0
   10.2817    3.3250    0.6982 O   0  0  0  0  0  0  0  0  0  0  0  0
    0.5900   -1.5767    0.2106 N   0  0  0  0  0  0  0  0  0  0  0  0
   -0.4979   -2.3606    0.3136 C   0  0  0  0  0  0  0  0  0  0  0  0
   -1.7736   -1.7940   -0.0994 C   0  0  0  0  0  0  0  0  0  0  0  0
   -1.8600   -1.1186   -1.3190 C   0  0  0  0  0  0  0  0  0  0  0  0
   -3.0431   -0.5575   -1.7445 C   0  0  0  0  0  0  0  0  0  0  0  0
   -4.2034   -0.6279   -0.9991 C   0  0  0  0  0  0  0  0  0  0  0  0
   -5.4632   -0.0166   -1.4892 C   0  0  0  0  0  0  0  0  0  0  0  0
   -5.5779    1.3884   -1.2366 N   0  0  0  0  0  0  0  0  0  0  0  0
   -5.5297    1.7281    0.1496 C   0  0  0  0  0  0  0  0  0  0  0  0
   -6.6143    2.7927    0.3512 C   0  0  0  0  0  0  0  0  0  0  0  0
   -7.6975    2.2274   -0.5767 C   0  0  0  0  0  0  0  0  0  0  0  0
   -6.8473    1.8285   -1.7691 C   0  0  0  0  0  0  0  0  0  0  0  0
   -4.1279   -1.2918    0.2051 C   0  0  0  0  0  0  0  0  0  0  0  0
   -2.9322   -1.8623    0.6420 C   0  0  0  0  0  0  0  0  0  0  0  0
   -1.9973   -4.5740    1.9298 H   0  0  0  0  0  0  0  0  0  0  0  0
   -1.2092   -5.6171    0.7452 H   0  0  0  0  0  0  0  0  0  0  0  0
   -2.3364   -4.4124    0.1223 H   0  0  0  0  0  0  0  0  0  0  0  0
    0.9105   -5.1143    1.5181 H   0  0  0  0  0  0  0  0  0  0  0  0
    2.8491   -0.2209    0.0991 H   0  0  0  0  0  0  0  0  0  0  0  0
    6.2637   -1.3594    0.2205 H   0  0  0  0  0  0  0  0  0  0  0  0
    5.8682   -0.6557    1.7929 H   0  0  0  0  0  0  0  0  0  0  0  0
    4.5237    2.7917   -0.7207 H   0  0  0  0  0  0  0  0  0  0  0  0
    6.0649    4.6750   -1.1291 H   0  0  0  0  0  0  0  0  0  0  0  0
    7.7366    0.4288    0.6986 H   0  0  0  0  0  0  0  0  0  0  0  0
   -0.9417   -1.0570   -1.9193 H   0  0  0  0  0  0  0  0  0  0  0  0
   -3.0899   -0.0412   -2.6879 H   0  0  0  0  0  0  0  0  0  0  0  0
   -5.5870   -0.1723   -2.5947 H   0  0  0  0  0  0  0  0  0  0  0  0
   -6.3611   -0.5076   -1.0394 H   0  0  0  0  0  0  0  0  0  0  0  0
   -4.5360    2.1228    0.4537 H   0  0  0  0  0  0  0  0  0  0  0  0
   -5.8560    0.8718    0.7727 H   0  0  0  0  0  0  0  0  0  0  0  0
   -6.3207    3.7614   -0.0972 H   0  0  0  0  0  0  0  0  0  0  0  0
   -6.9555    2.8514    1.3843 H   0  0  0  0  0  0  0  0  0  0  0  0
   -8.4377    2.9773   -0.8522 H   0  0  0  0  0  0  0  0  0  0  0  0
   -8.1047    1.3377   -0.0734 H   0  0  0  0  0  0  0  0  0  0  0  0
   -7.3977    1.0182   -2.2903 H   0  0  0  0  0  0  0  0  0  0  0  0
   -6.7107    2.6791   -2.4494 H   0  0  0  0  0  0  0  0  0  0  0  0
   -5.0109   -1.3629    0.8020 H   0  0  0  0  0  0  0  0  0  0  0  0
   -2.9016   -2.3805    1.6100 H   0  0  0  0  0  0  0  0  0  0  0  0
  1  2  1  0
  2  3  2  0
  3  4  1  0
  4  5  2  0
  5  6  1  0
  6  7  1  0
  7  8  2  0
  7  9  1  0
  9 10  1  0
 10 11  1  0
 11 12  2  0
 12 13  1  0
 13 14  2  0
 14 15  1  0
 14 16  1  0
 16 17  2  0
 16 18  1  0
 18 19  1  0
 18 20  2  0
  5 21  1  0
 21 22  2  0
 22 23  1  0
 23 24  2  0
 24 25  1  0
 25 26  2  0
 26 27  1  0
 27 28  1  0
 28 29  1  0
 29 30  1  0
 30 31  1  0
 31 32  1  0
 26 33  1  0
 33 34  2  0
 22  2  1  0
 34 23  1  0
 17 11  1  0
 32 28  1  0
  1 35  1  0
  1 36  1  0
  1 37  1  0
  3 38  1  0
  6 39  1  0
  9 40  1  0
  9 41  1  0
 12 42  1  0
 13 43  1  0
 17 44  1  0
 24 45  1  0
 25 46  1  0
 27 47  1  0
 27 48  1  0
 29 49  1  0
 29 50  1  0
 30 51  1  0
 30 52  1  0
 31 53  1  0
 31 54  1  0
 32 55  1  0
 32 56  1  0
 33 57  1  0
 34 58  1  0
M  CHG  2  18   1  19  -1
M  END
$$$$
[H]c1c([H])c(Oc2c([H])c([H])c(F)c([H])c2C([H])([H])[H])c([H])c([C@@]2(C([H])([H])[H])C([H])([H])C([H])([H])N(c3c([H])c([H])c(Cl)c(Cl)c3[H])C([H])([H])[C@]2([H])C(=O)C([H])([H])C(F)(F)F)c1[H]
     RDKit          3D

 62 65  0  0  0  0  0  0  0  0999 V2000
    5.5254   -0.4258   -1.9319 C   0  0  0  0  0  0  0  0  0  0  0  0
    5.8242   -0.9889   -0.5967 C   0  0  0  0  0  0  0  0  0  0  0  0
    6.9287   -1.7663   -0.3680 C   0  0  0  0  0  0  0  0  0  0  0  0
    7.1884   -2.2886    0.8782 C   0  0  0  0  0  0  0  0  0  0  0  0
    8.2668   -3.0573    1.1343 F   0  0  0  0  0  0  0  0  0  0  0  0
    6.3025   -2.0078    1.8974 C   0  0  0  0  0  0  0  0  0  0  0  0
    5.1698   -1.2245    1.7076 C   0  0  0  0  0  0  0  0  0  0  0  0
    4.9219   -0.7066    0.4523 C   0  0  0  0  0  0  0  0  0  0  0  0
    3.8848    0.0477    0.1394 O   0  0  0  0  0  0  0  0  0  0  0  0
    2.7820    0.5970    0.6846 C   0  0  0  0  0  0  0  0  0  0  0  0
    2.7750    1.1089    1.9589 C   0  0  0  0  0  0  0  0  0  0  0  0
    1.5822    1.6631    2.4581 C   0  0  0  0  0  0  0  0  0  0  0  0
    0.4457    1.6942    1.6877 C   0  0  0  0  0  0  0  0  0  0  0  0
    0.4162    1.1987    0.4223 C   0  0  0  0  0  0  0  0  0  0  0  0
    1.5897    0.6548   -0.0635 C   0  0  0  0  0  0  0  0  0  0  0  0
   -0.6869    1.1730   -0.5373 C   0  0  1  0  0  0  0  0  0  0  0  0
   -0.0912    1.8049   -1.8163 C   0  0  0  0  0  0  0  0  0  0  0  0
   -0.9029   -0.2976   -0.8469 C   0  0  0  0  0  0  0  0  0  0  0  0
   -1.3224   -0.9304    0.4757 C   0  0  0  0  0  0  0  0  0  0  0  0
   -2.6301   -0.3618    0.7583 N   0  0  0  0  0  0  0  0  0  0  0  0
   -2.9696    1.0005    0.5511 C   0  0  0  0  0  0  0  0  0  0  0  0
   -1.9609    1.8107   -0.1999 C   0  0  2  0  0  0  0  0  0  0  0  0
   -2.6440    2.4540   -1.3582 C   0  0  0  0  0  0  0  0  0  0  0  0
   -2.8769    3.6471   -1.2888 O   0  0  0  0  0  0  0  0  0  0  0  0
   -3.0733    1.8031   -2.5921 C   0  0  0  0  0  0  0  0  0  0  0  0
   -3.6179    2.8040   -3.5953 C   0  0  0  0  0  0  0  0  0  0  0  0
   -2.6715    3.7524   -3.9369 F   0  0  0  0  0  0  0  0  0  0  0  0
   -4.7784    3.4021   -3.1762 F   0  0  0  0  0  0  0  0  0  0  0  0
   -3.9105    2.1543   -4.8087 F   0  0  0  0  0  0  0  0  0  0  0  0
   -3.6157   -1.2566    1.2531 C   0  0  0  0  0  0  0  0  0  0  0  0
   -4.4508   -1.0010    2.3003 C   0  0  0  0  0  0  0  0  0  0  0  0
   -5.3871   -1.9554    2.6836 C   0  0  0  0  0  0  0  0  0  0  0  0
   -5.5175   -3.1804    2.0416 C   0  0  0  0  0  0  0  0  0  0  0  0
   -6.7015   -4.3639    2.5203 Cl  0  0  0  0  0  0  0  0  0  0  0  0
   -4.6713   -3.4415    0.9783 C   0  0  0  0  0  0  0  0  0  0  0  0
   -4.7918   -4.9857    0.1402 Cl  0  0  0  0  0  0  0  0  0  0  0  0
   -3.7476   -2.4831    0.6107 C   0  0  0  0  0  0  0  0  0  0  0  0
    5.0122    0.5466   -1.8790 H   0  0  0  0  0  0  0  0  0  0  0  0
    6.4750   -0.2842   -2.5055 H   0  0  0  0  0  0  0  0  0  0  0  0
    4.9226   -1.1701   -2.5261 H   0  0  0  0  0  0  0  0  0  0  0  0
    7.6154   -1.9745   -1.1929 H   0  0  0  0  0  0  0  0  0  0  0  0
    6.4656   -2.3843    2.9042 H   0  0  0  0  0  0  0  0  0  0  0  0
    4.5016   -1.0462    2.5465 H   0  0  0  0  0  0  0  0  0  0  0  0
    3.6560    1.1128    2.5903 H   0  0  0  0  0  0  0  0  0  0  0  0
    1.5948    2.0651    3.4590 H   0  0  0  0  0  0  0  0  0  0  0  0
   -0.4386    2.1136    2.0814 H   0  0  0  0  0  0  0  0  0  0  0  0
    1.6911    0.2246   -1.0650 H   0  0  0  0  0  0  0  0  0  0  0  0
    0.0047    1.0438   -2.6235 H   0  0  0  0  0  0  0  0  0  0  0  0
   -0.6175    2.7184   -2.1125 H   0  0  0  0  0  0  0  0  0  0  0  0
    0.9743    2.1264   -1.6457 H   0  0  0  0  0  0  0  0  0  0  0  0
   -0.0533   -0.7871   -1.3071 H   0  0  0  0  0  0  0  0  0  0  0  0
   -1.7792   -0.4534   -1.5122 H   0  0  0  0  0  0  0  0  0  0  0  0
   -1.3281   -2.0150    0.3106 H   0  0  0  0  0  0  0  0  0  0  0  0
   -0.5970   -0.7329    1.2863 H   0  0  0  0  0  0  0  0  0  0  0  0
   -3.2501    1.4418    1.5418 H   0  0  0  0  0  0  0  0  0  0  0  0
   -3.9675    0.9871    0.0064 H   0  0  0  0  0  0  0  0  0  0  0  0
   -1.7016    2.6738    0.4895 H   0  0  0  0  0  0  0  0  0  0  0  0
   -3.9068    1.0649   -2.4006 H   0  0  0  0  0  0  0  0  0  0  0  0
   -2.3199    1.2332   -3.1529 H   0  0  0  0  0  0  0  0  0  0  0  0
   -4.3780   -0.0466    2.8284 H   0  0  0  0  0  0  0  0  0  0  0  0
   -6.0370   -1.7566    3.4999 H   0  0  0  0  0  0  0  0  0  0  0  0
   -3.1227   -2.7486   -0.2386 H   0  0  0  0  0  0  0  0  0  0  0  0
  1  2  1  0
  2  3  2  0
  3  4  1  0
  4  5  1  0
  4  6  2  0
  6  7  1  0
  7  8  2  0
  8  9  1  0
  9 10  1  0
 10 11  2  0
 11 12  1  0
 12 13  2  0
 13 14  1  0
 14 15  2  0
 14 16  1  0
 16 17  1  6
 16 18  1  0
 18 19  1  0
 19 20  1  0
 20 21  1  0
 21 22  1  0
 22 23  1  0
 23 24  2  0
 23 25  1  0
 25 26  1  0
 26 27  1  0
 26 28  1  0
 26 29  1  0
 20 30  1  0
 30 31  2  0
 31 32  1  0
 32 33  2  0
 33 34  1  0
 33 35  1  0
 35 36  1  0
 35 37  2  0
  8  2  1  0
 15 10  1  0
 22 16  1  0
 37 30  1  0
  1 38  1  0
  1 39  1  0
  1 40  1  0
  3 41  1  0
  6 42  1  0
  7 43  1  0
 11 44  1  0
 12 45  1  0
 13 46  1  0
 15 47  1  0
 17 48  1  0
 17 49  1  0
 17 50  1  0
 18 51  1  0
 18 52  1  0
 19 53  1  0
 19 54  1  0
 21 55  1  0
 21 56  1  0
 22 57  1  1
 25 58  1  0
 25 59  1  0
 31 60  1  0
 32 61  1  0
 37 62  1  0
M  END
$$$$
[H]c1c([H])c(-c2c([H])c([H])c(C([H])([H])C([H])([H])C([H])([H])C([H])([H])c3nnn([H])n3)c([H])c2[H])c([H])c([H])c1Cl
     RDKit          3D

 39 41  0  0  0  0  0  0  0  0999 V2000
   -8.7518   -0.2713   -0.5712 Cl  0  0  0  0  0  0  0  0  0  0  0  0
   -7.0118   -0.0724   -0.3451 C   0  0  0  0  0  0  0  0  0  0  0  0
   -6.1759   -1.1687   -0.3687 C   0  0  0  0  0  0  0  0  0  0  0  0
   -4.8098   -1.0008   -0.1897 C   0  0  0  0  0  0  0  0  0  0  0  0
   -4.2362    0.2436    0.0157 C   0  0  0  0  0  0  0  0  0  0  0  0
   -5.0828    1.3288    0.0369 C   0  0  0  0  0  0  0  0  0  0  0  0
   -6.4575    1.1724   -0.1419 C   0  0  0  0  0  0  0  0  0  0  0  0
   -2.7953    0.3605    0.1980 C   0  0  0  0  0  0  0  0  0  0  0  0
   -2.1279   -0.6978    0.8201 C   0  0  0  0  0  0  0  0  0  0  0  0
   -0.7679   -0.6580    1.0243 C   0  0  0  0  0  0  0  0  0  0  0  0
   -0.0276    0.4241    0.6221 C   0  0  0  0  0  0  0  0  0  0  0  0
    1.4236    0.4407    0.8513 C   0  0  0  0  0  0  0  0  0  0  0  0
    2.1941   -0.1620   -0.3047 C   0  0  0  0  0  0  0  0  0  0  0  0
    3.6730   -0.1053    0.0116 C   0  0  0  0  0  0  0  0  0  0  0  0
    4.5041   -0.6915   -1.0978 C   0  0  0  0  0  0  0  0  0  0  0  0
    5.9487   -0.6183   -0.7526 C   0  0  0  0  0  0  0  0  0  0  0  0
    6.9962   -1.0495   -1.5082 N   0  0  0  0  0  0  0  0  0  0  0  0
    8.0747   -0.7807   -0.8058 N   0  0  0  0  0  0  0  0  0  0  0  0
    7.7501   -0.2118    0.3324 N   0  0  0  0  0  0  0  0  0  0  0  0
    6.4465   -0.1113    0.3668 N   0  0  0  0  0  0  0  0  0  0  0  0
   -0.6570    1.4824    0.0064 C   0  0  0  0  0  0  0  0  0  0  0  0
   -2.0358    1.4274   -0.1936 C   0  0  0  0  0  0  0  0  0  0  0  0
   -6.6204   -2.1475   -0.5295 H   0  0  0  0  0  0  0  0  0  0  0  0
   -4.1661   -1.8610   -0.2097 H   0  0  0  0  0  0  0  0  0  0  0  0
   -4.6450    2.3041    0.1964 H   0  0  0  0  0  0  0  0  0  0  0  0
   -7.1250    2.0225   -0.1258 H   0  0  0  0  0  0  0  0  0  0  0  0
   -2.6733   -1.5636    1.1496 H   0  0  0  0  0  0  0  0  0  0  0  0
   -0.2308   -1.4831    1.5123 H   0  0  0  0  0  0  0  0  0  0  0  0
    1.7600    1.4770    1.0315 H   0  0  0  0  0  0  0  0  0  0  0  0
    1.7174   -0.1486    1.7583 H   0  0  0  0  0  0  0  0  0  0  0  0
    1.9822    0.4019   -1.2323 H   0  0  0  0  0  0  0  0  0  0  0  0
    1.8961   -1.2147   -0.4792 H   0  0  0  0  0  0  0  0  0  0  0  0
    3.8622   -0.7227    0.9248 H   0  0  0  0  0  0  0  0  0  0  0  0
    3.9728    0.9221    0.2806 H   0  0  0  0  0  0  0  0  0  0  0  0
    4.1936   -1.7729   -1.1866 H   0  0  0  0  0  0  0  0  0  0  0  0
    4.2711   -0.2214   -2.0670 H   0  0  0  0  0  0  0  0  0  0  0  0
    8.3865    0.1132    1.0923 H   0  0  0  0  0  0  0  0  0  0  0  0
   -0.1157    2.3552   -0.3269 H   0  0  0  0  0  0  0  0  0  0  0  0
   -2.5392    2.2590   -0.6787 H   0  0  0  0  0  0  0  0  0  0  0  0
  1  2  1  0
  2  3  2  0
  3  4  1  0
  4  5  2  0
  5  6  1  0
  6  7  2  0
  5  8  1  0
  8  9  2  0
  9 10  1  0
 10 11  2  0
 11 12  1  0
 12 13  1  0
 13 14  1  0
 14 15  1  0
 15 16  1  0
 16 17  1  0
 17 18  2  0
 18 19  1  0
 19 20  1  0
 11 21  1  0
 21 22  2  0
  7  2  1  0
 22  8  1  0
 20 16  2  0
  3 23  1  0
  4 24  1  0
  6 25  1  0
  7 26  1  0
  9 27  1  0
 10 28  1  0
 12 29  1  0
 12 30  1  0
 13 31  1  0
 13 32  1  0
 14 33  1  0
 14 34  1  0
 15 35  1  0
 15 36  1  0
 19 37  1  0
 21 38  1  0
 22 39  1  0
M  END
$$$$
[H]/C(C(=O)N([H])c1c([H])c([H])c(C([H])([H])[C@@]([H])(C(=O)OC([H])([H])[H])c2c([H])c([H])c([H])c(Cl)c2[H])n1[H])=C(/[H])c1c([H])c([H])c(Cl)c(Cl)c1[H]
     RDKit          3D

 50 52  0  0  0  0  0  0  0  0999 V2000
   -3.4428    3.1631    0.7883 C   0  0  0  0  0  0  0  0  0  0  0  0
   -3.8064    1.8080    0.9449 O   0  0  0  0  0  0  0  0  0  0  0  0
   -3.2881    0.8237    0.0801 C   0  0  0  0  0  0  0  0  0  0  0  0
   -2.5140    1.2378   -0.7972 O   0  0  0  0  0  0  0  0  0  0  0  0
   -3.6505   -0.5825    0.2243 C   0  0  2  0  0  0  0  0  0  0  0  0
   -2.7559   -1.5670   -0.4503 C   0  0  0  0  0  0  0  0  0  0  0  0
   -1.3521   -1.5207    0.0627 C   0  0  0  0  0  0  0  0  0  0  0  0
   -0.9674   -2.2339    1.2007 C   0  0  0  0  0  0  0  0  0  0  0  0
    0.3793   -2.0056    1.3826 C   0  0  0  0  0  0  0  0  0  0  0  0
    0.7780   -1.1725    0.3680 C   0  0  0  0  0  0  0  0  0  0  0  0
   -0.2792   -0.8937   -0.4146 N   0  0  0  0  0  0  0  0  0  0  0  0
    2.0815   -0.6622    0.1408 N   0  0  0  0  0  0  0  0  0  0  0  0
    3.2251   -0.9254    0.9341 C   0  0  0  0  0  0  0  0  0  0  0  0
    3.1204   -1.6683    1.9321 O   0  0  0  0  0  0  0  0  0  0  0  0
    4.5389   -0.3681    0.6452 C   0  0  0  0  0  0  0  0  0  0  0  0
    4.8378    0.4267   -0.3529 C   0  0  0  0  0  0  0  0  0  0  0  0
    6.1768    0.9681   -0.6102 C   0  0  0  0  0  0  0  0  0  0  0  0
    6.3493    1.7945   -1.6998 C   0  0  0  0  0  0  0  0  0  0  0  0
    7.5840    2.3426   -2.0052 C   0  0  0  0  0  0  0  0  0  0  0  0
    8.6746    2.0570   -1.2003 C   0  0  0  0  0  0  0  0  0  0  0  0
   10.2702    2.7119   -1.5206 Cl  0  0  0  0  0  0  0  0  0  0  0  0
    8.5369    1.2381   -0.1084 C   0  0  0  0  0  0  0  0  0  0  0  0
    9.9144    0.8742    0.9126 Cl  0  0  0  0  0  0  0  0  0  0  0  0
    7.2787    0.7094    0.1612 C   0  0  0  0  0  0  0  0  0  0  0  0
   -5.0840   -0.8330   -0.0450 C   0  0  0  0  0  0  0  0  0  0  0  0
   -5.9195   -1.2532    0.9461 C   0  0  0  0  0  0  0  0  0  0  0  0
   -7.2740   -1.4850    0.6711 C   0  0  0  0  0  0  0  0  0  0  0  0
   -7.7676   -1.2889   -0.6036 C   0  0  0  0  0  0  0  0  0  0  0  0
   -6.9186   -0.8610   -1.6145 C   0  0  0  0  0  0  0  0  0  0  0  0
   -7.5600   -0.6172   -3.2246 Cl  0  0  0  0  0  0  0  0  0  0  0  0
   -5.5826   -0.6397   -1.3127 C   0  0  0  0  0  0  0  0  0  0  0  0
   -3.8141    3.6915    1.7146 H   0  0  0  0  0  0  0  0  0  0  0  0
   -2.3253    3.2650    0.8334 H   0  0  0  0  0  0  0  0  0  0  0  0
   -3.8452    3.6231   -0.1242 H   0  0  0  0  0  0  0  0  0  0  0  0
   -3.5265   -0.8237    1.3481 H   0  0  0  0  0  0  0  0  0  0  0  0
   -2.7310   -1.2771   -1.5424 H   0  0  0  0  0  0  0  0  0  0  0  0
   -3.1565   -2.5989   -0.4240 H   0  0  0  0  0  0  0  0  0  0  0  0
   -1.6241   -2.8559    1.8244 H   0  0  0  0  0  0  0  0  0  0  0  0
    0.9486   -2.4460    2.2089 H   0  0  0  0  0  0  0  0  0  0  0  0
   -0.2424   -0.2798   -1.2830 H   0  0  0  0  0  0  0  0  0  0  0  0
    2.1996   -0.0260   -0.7033 H   0  0  0  0  0  0  0  0  0  0  0  0
    5.3636   -0.6348    1.3246 H   0  0  0  0  0  0  0  0  0  0  0  0
    4.0119    0.6855   -1.0218 H   0  0  0  0  0  0  0  0  0  0  0  0
    5.5366    2.0540   -2.3647 H   0  0  0  0  0  0  0  0  0  0  0  0
    7.7405    2.9949   -2.8576 H   0  0  0  0  0  0  0  0  0  0  0  0
    7.1968    0.0722    1.0204 H   0  0  0  0  0  0  0  0  0  0  0  0
   -5.6122   -1.4295    1.9665 H   0  0  0  0  0  0  0  0  0  0  0  0
   -7.9442   -1.8199    1.4571 H   0  0  0  0  0  0  0  0  0  0  0  0
   -8.8214   -1.4601   -0.8557 H   0  0  0  0  0  0  0  0  0  0  0  0
   -4.9380   -0.3118   -2.0927 H   0  0  0  0  0  0  0  0  0  0  0  0
  1  2  1  0
  2  3  1  0
  3  4  2  0
  3  5  1  0
  5  6  1  0
  6  7  1  0
  7  8  2  0
  8  9  1  0
  9 10  2  0
 10 11  1  0
 10 12  1  0
 12 13  1  0
 13 14  2  0
 13 15  1  0
 15 16  2  0
 16 17  1  0
 17 18  2  0
 18 19  1  0
 19 20  2  0
 20 21  1  0
 20 22  1  0
 22 23  1  0
 22 24  2  0
  5 25  1  0
 25 26  2  0
 26 27  1  0
 27 28  2  0
 28 29  1  0
 29 30  1  0
 29 31  2  0
 11  7  1  0
 24 17  1  0
 31 25  1  0
  1 32  1  0
  1 33  1  0
  1 34  1  0
  5 35  1  1
  6 36  1  0
  6 37  1  0
  8 38  1  0
  9 39  1  0
 11 40  1  0
 12 41  1  0
 15 42  1  0
 16 43  1  0
 18 44  1  0
 19 45  1  0
 24 46  1  0
 26 47  1  0
 27 48  1  0
 28 49  1  0
 31 50  1  0
M  END
$$$$
[H]c1nc([H])c(-c2c([H])c([H])c([H])c([H])c2N([H])[C@]2([H])C([H])([H])C([H])([H])[C@]([H])(C(=O)C([H])([H])C([H])([H])C([H])([H])N([H])C([H])([H])[H])C([H])([H])C2([H])[H])c([H])c1[H]
     RDKit          3D

 55 57  0  0  0  0  0  0  0  0999 V2000
   -7.6001    1.0395    1.0775 C   0  0  0  0  0  0  0  0  0  0  0  0
   -6.2765    0.3994    0.8934 N   0  0  0  0  0  0  0  0  0  0  0  0
   -6.4701   -0.5958   -0.1209 C   0  0  0  0  0  0  0  0  0  0  0  0
   -5.3885   -1.5457   -0.3962 C   0  0  0  0  0  0  0  0  0  0  0  0
   -4.0491   -1.1254   -0.8085 C   0  0  0  0  0  0  0  0  0  0  0  0
   -3.1805   -0.4199    0.1282 C   0  0  0  0  0  0  0  0  0  0  0  0
   -3.4821   -0.2632    1.2883 O   0  0  0  0  0  0  0  0  0  0  0  0
   -1.8464    0.1427   -0.3413 C   0  0  1  0  0  0  0  0  0  0  0  0
   -1.2076    0.7994    0.8458 C   0  0  0  0  0  0  0  0  0  0  0  0
    0.1857    1.2721    0.6515 C   0  0  0  0  0  0  0  0  0  0  0  0
    0.9143    0.3691   -0.3583 C   0  0  2  0  0  0  0  0  0  0  0  0
    0.3490   -1.0078   -0.0852 C   0  0  0  0  0  0  0  0  0  0  0  0
   -1.0040   -1.0379   -0.8005 C   0  0  0  0  0  0  0  0  0  0  0  0
    2.3473    0.4583   -0.1043 N   0  0  0  0  0  0  0  0  0  0  0  0
    3.2682   -0.1271   -1.0290 C   0  0  0  0  0  0  0  0  0  0  0  0
    2.7808   -0.7930   -2.1622 C   0  0  0  0  0  0  0  0  0  0  0  0
    3.6895   -1.3800   -3.0217 C   0  0  0  0  0  0  0  0  0  0  0  0
    5.0426   -1.3127   -2.7737 C   0  0  0  0  0  0  0  0  0  0  0  0
    5.5423   -0.6746   -1.6903 C   0  0  0  0  0  0  0  0  0  0  0  0
    4.6246   -0.0693   -0.8031 C   0  0  0  0  0  0  0  0  0  0  0  0
    5.1661    0.6737    0.3384 C   0  0  0  0  0  0  0  0  0  0  0  0
    6.0031    0.0512    1.2457 C   0  0  0  0  0  0  0  0  0  0  0  0
    6.5691    0.7318    2.3082 C   0  0  0  0  0  0  0  0  0  0  0  0
    6.3177    2.0694    2.5040 C   0  0  0  0  0  0  0  0  0  0  0  0
    5.4931    2.6611    1.6010 N   0  0  0  0  0  0  0  0  0  0  0  0
    4.9369    2.0144    0.5667 C   0  0  0  0  0  0  0  0  0  0  0  0
   -7.4713    2.0539    1.4885 H   0  0  0  0  0  0  0  0  0  0  0  0
   -8.1459    0.4269    1.8445 H   0  0  0  0  0  0  0  0  0  0  0  0
   -8.1854    0.9864    0.1430 H   0  0  0  0  0  0  0  0  0  0  0  0
   -5.6804    1.1605    0.4270 H   0  0  0  0  0  0  0  0  0  0  0  0
   -6.7364   -0.0057   -1.0582 H   0  0  0  0  0  0  0  0  0  0  0  0
   -7.4603   -1.1341    0.0751 H   0  0  0  0  0  0  0  0  0  0  0  0
   -5.8173   -2.3157   -1.1280 H   0  0  0  0  0  0  0  0  0  0  0  0
   -5.2590   -2.1748    0.5557 H   0  0  0  0  0  0  0  0  0  0  0  0
   -4.1860   -0.4139   -1.6929 H   0  0  0  0  0  0  0  0  0  0  0  0
   -3.5043   -1.9857   -1.3110 H   0  0  0  0  0  0  0  0  0  0  0  0
   -2.0742    0.8462   -1.1688 H   0  0  0  0  0  0  0  0  0  0  0  0
   -1.3072    0.0812    1.7140 H   0  0  0  0  0  0  0  0  0  0  0  0
   -1.8770    1.6658    1.1321 H   0  0  0  0  0  0  0  0  0  0  0  0
    0.2916    2.3316    0.3646 H   0  0  0  0  0  0  0  0  0  0  0  0
    0.7487    1.0938    1.6149 H   0  0  0  0  0  0  0  0  0  0  0  0
    0.7278    0.7029   -1.3736 H   0  0  0  0  0  0  0  0  0  0  0  0
    0.9405   -1.8467   -0.3992 H   0  0  0  0  0  0  0  0  0  0  0  0
    0.1801   -1.1189    1.0160 H   0  0  0  0  0  0  0  0  0  0  0  0
   -1.5192   -1.9602   -0.5048 H   0  0  0  0  0  0  0  0  0  0  0  0
   -0.8833   -1.0151   -1.8829 H   0  0  0  0  0  0  0  0  0  0  0  0
    2.6594    0.9340    0.7518 H   0  0  0  0  0  0  0  0  0  0  0  0
    1.7226   -0.8142   -2.3352 H   0  0  0  0  0  0  0  0  0  0  0  0
    3.3104   -1.8970   -3.8989 H   0  0  0  0  0  0  0  0  0  0  0  0
    5.7553   -1.7826   -3.4606 H   0  0  0  0  0  0  0  0  0  0  0  0
    6.6022   -0.5874   -1.4407 H   0  0  0  0  0  0  0  0  0  0  0  0
    6.1922   -1.0136    1.0777 H   0  0  0  0  0  0  0  0  0  0  0  0
    7.2218    0.2396    3.0141 H   0  0  0  0  0  0  0  0  0  0  0  0
    6.7359    2.6626    3.3225 H   0  0  0  0  0  0  0  0  0  0  0  0
    4.2931    2.5507   -0.1076 H   0  0  0  0  0  0  0  0  0  0  0  0
  1  2  1  0
  2  3  1  0
  3  4  1  0
  4  5  1  0
  5  6  1  0
  6  7  2  0
  6  8  1  0
  8  9  1  0
  9 10  1  0
 10 11  1  0
 11 12  1  0
 12 13  1  0
 11 14  1  0
 14 15  1  0
 15 16  2  0
 16 17  1  0
 17 18  2  0
 18 19  1  0
 19 20  2  0
 20 21  1  0
 21 22  2  0
 22 23  1  0
 23 24  2  0
 24 25  1  0
 25 26  2  0
 13  8  1  0
 20 15  1  0
 26 21  1  0
  1 27  1  0
  1 28  1  0
  1 29  1  0
  2 30  1  0
  3 31  1  0
  3 32  1  0
  4 33  1  0
  4 34  1  0
  5 35  1  0
  5 36  1  0
  8 37  1  6
  9 38  1  0
  9 39  1  0
 10 40  1  0
 10 41  1  0
 11 42  1  6
 12 43  1  0
 12 44  1  0
 13 45  1  0
 13 46  1  0
 14 47  1  0
 16 48  1  0
 17 49  1  0
 18 50  1  0
 19 51  1  0
 22 52  1  0
 23 53  1  0
 24 54  1  0
 26 55  1  0
M  END
$$$$
[H]/C(C(=O)N([H])c1c([H])c([H])c(C([H])([H])N(C([H])([H])[H])C([H])([H])[H])c([H])c1[H])=C(/[H])c1c([H])c([H])c(N2C([H])([H])C([H])([H])N(C(=O)c3c([H])c([H])c([H])c([H])c3C([H])([H])C([H])(C([H])([H])[H])C([H])([H])[H])C([H])([H])C2([H])[H])c([H])c1[H]
     RDKit          3D

 79 82  0  0  0  0  0  0  0  0999 V2000
   -9.8227    2.0304   -0.5632 C   0  0  0  0  0  0  0  0  0  0  0  0
   -9.8645    0.7232   -1.2356 C   0  0  0  0  0  0  0  0  0  0  0  0
  -11.1262   -0.0638   -0.8001 C   0  0  0  0  0  0  0  0  0  0  0  0
   -8.6949   -0.1793   -1.1814 C   0  0  0  0  0  0  0  0  0  0  0  0
   -8.2349   -0.6161    0.1342 C   0  0  0  0  0  0  0  0  0  0  0  0
   -8.9382   -1.7066    0.6910 C   0  0  0  0  0  0  0  0  0  0  0  0
   -8.6177   -2.1440    1.9406 C   0  0  0  0  0  0  0  0  0  0  0  0
   -7.6115   -1.5120    2.6377 C   0  0  0  0  0  0  0  0  0  0  0  0
   -6.9252   -0.4606    2.1120 C   0  0  0  0  0  0  0  0  0  0  0  0
   -7.2376    0.0080    0.8225 C   0  0  0  0  0  0  0  0  0  0  0  0
   -6.3937    1.0904    0.3209 C   0  0  0  0  0  0  0  0  0  0  0  0
   -6.6566    2.2798    0.5419 O   0  0  0  0  0  0  0  0  0  0  0  0
   -5.2298    0.7546   -0.4475 N   0  0  0  0  0  0  0  0  0  0  0  0
   -4.3617    1.7733   -0.9713 C   0  0  0  0  0  0  0  0  0  0  0  0
   -3.3142    1.0758   -1.8609 C   0  0  0  0  0  0  0  0  0  0  0  0
   -2.6317    0.1237   -1.0219 N   0  0  0  0  0  0  0  0  0  0  0  0
   -3.4293   -0.8696   -0.3196 C   0  0  0  0  0  0  0  0  0  0  0  0
   -4.8929   -0.6280   -0.7043 C   0  0  0  0  0  0  0  0  0  0  0  0
   -1.1949    0.1194   -0.8677 C   0  0  0  0  0  0  0  0  0  0  0  0
   -0.6369   -0.6268    0.1532 C   0  0  0  0  0  0  0  0  0  0  0  0
    0.7226   -0.6814    0.3574 C   0  0  0  0  0  0  0  0  0  0  0  0
    1.6179    0.0212   -0.4646 C   0  0  0  0  0  0  0  0  0  0  0  0
    3.0482   -0.0403   -0.2073 C   0  0  0  0  0  0  0  0  0  0  0  0
    3.9666    0.5307   -0.9347 C   0  0  0  0  0  0  0  0  0  0  0  0
    5.4095    0.4788   -0.6851 C   0  0  0  0  0  0  0  0  0  0  0  0
    6.1386    1.0744   -1.4938 O   0  0  0  0  0  0  0  0  0  0  0  0
    5.9664   -0.1996    0.4041 N   0  0  0  0  0  0  0  0  0  0  0  0
    7.3602   -0.2616    0.6500 C   0  0  0  0  0  0  0  0  0  0  0  0
    8.3327   -0.2021   -0.3125 C   0  0  0  0  0  0  0  0  0  0  0  0
    9.6971   -0.2312    0.0178 C   0  0  0  0  0  0  0  0  0  0  0  0
   10.1239   -0.3207    1.3147 C   0  0  0  0  0  0  0  0  0  0  0  0
   11.5158   -0.3488    1.7300 C   0  0  0  0  0  0  0  0  0  0  0  0
   12.5295   -0.1944    0.7949 N   0  0  0  0  0  0  0  0  0  0  0  0
   12.6600    0.9743    0.0340 C   0  0  0  0  0  0  0  0  0  0  0  0
   13.4209   -1.2515    0.5340 C   0  0  0  0  0  0  0  0  0  0  0  0
    9.1405   -0.3819    2.2870 C   0  0  0  0  0  0  0  0  0  0  0  0
    7.8026   -0.3548    1.9835 C   0  0  0  0  0  0  0  0  0  0  0  0
    1.0501    0.7564   -1.4737 C   0  0  0  0  0  0  0  0  0  0  0  0
   -0.3405    0.8114   -1.6816 C   0  0  0  0  0  0  0  0  0  0  0  0
  -10.8592    2.4756   -0.5807 H   0  0  0  0  0  0  0  0  0  0  0  0
   -9.1620    2.7653   -1.0339 H   0  0  0  0  0  0  0  0  0  0  0  0
   -9.5644    1.9824    0.5194 H   0  0  0  0  0  0  0  0  0  0  0  0
  -10.0961    0.9457   -2.3361 H   0  0  0  0  0  0  0  0  0  0  0  0
  -11.1274   -1.0023   -1.3656 H   0  0  0  0  0  0  0  0  0  0  0  0
  -11.1015   -0.1898    0.2825 H   0  0  0  0  0  0  0  0  0  0  0  0
  -12.0359    0.5312   -1.0995 H   0  0  0  0  0  0  0  0  0  0  0  0
   -8.9473   -1.0931   -1.8096 H   0  0  0  0  0  0  0  0  0  0  0  0
   -7.8678    0.3037   -1.7667 H   0  0  0  0  0  0  0  0  0  0  0  0
   -9.7250   -2.2035    0.1461 H   0  0  0  0  0  0  0  0  0  0  0  0
   -9.1375   -2.9904    2.4176 H   0  0  0  0  0  0  0  0  0  0  0  0
   -7.3446   -1.8538    3.6435 H   0  0  0  0  0  0  0  0  0  0  0  0
   -6.1266    0.0526    2.6458 H   0  0  0  0  0  0  0  0  0  0  0  0
   -4.8886    2.5461   -1.5655 H   0  0  0  0  0  0  0  0  0  0  0  0
   -3.7614    2.2738   -0.1827 H   0  0  0  0  0  0  0  0  0  0  0  0
   -2.6239    1.8057   -2.2831 H   0  0  0  0  0  0  0  0  0  0  0  0
   -3.8409    0.5468   -2.7083 H   0  0  0  0  0  0  0  0  0  0  0  0
   -3.1419   -1.8754   -0.6936 H   0  0  0  0  0  0  0  0  0  0  0  0
   -3.3068   -0.7810    0.7838 H   0  0  0  0  0  0  0  0  0  0  0  0
   -5.5576   -1.3432   -0.1706 H   0  0  0  0  0  0  0  0  0  0  0  0
   -5.0310   -0.8131   -1.7877 H   0  0  0  0  0  0  0  0  0  0  0  0
   -1.3341   -1.1801    0.7977 H   0  0  0  0  0  0  0  0  0  0  0  0
    1.1376   -1.2619    1.1496 H   0  0  0  0  0  0  0  0  0  0  0  0
    3.3605   -0.6033    0.6554 H   0  0  0  0  0  0  0  0  0  0  0  0
    3.6110    1.0954   -1.8098 H   0  0  0  0  0  0  0  0  0  0  0  0
    5.2856   -0.6884    1.0682 H   0  0  0  0  0  0  0  0  0  0  0  0
    8.1021   -0.1472   -1.3724 H   0  0  0  0  0  0  0  0  0  0  0  0
   10.4433   -0.1894   -0.7582 H   0  0  0  0  0  0  0  0  0  0  0  0
   11.6866   -1.3243    2.2820 H   0  0  0  0  0  0  0  0  0  0  0  0
   11.6466    0.4159    2.5337 H   0  0  0  0  0  0  0  0  0  0  0  0
   11.8004    1.6377   -0.0172 H   0  0  0  0  0  0  0  0  0  0  0  0
   13.5058    1.5926    0.4573 H   0  0  0  0  0  0  0  0  0  0  0  0
   13.0115    0.6972   -0.9991 H   0  0  0  0  0  0  0  0  0  0  0  0
   13.2530   -2.1769    1.0770 H   0  0  0  0  0  0  0  0  0  0  0  0
   13.4669   -1.4041   -0.5792 H   0  0  0  0  0  0  0  0  0  0  0  0
   14.4605   -0.9019    0.8061 H   0  0  0  0  0  0  0  0  0  0  0  0
    9.4396   -0.4525    3.3251 H   0  0  0  0  0  0  0  0  0  0  0  0
    7.0395   -0.4021    2.7321 H   0  0  0  0  0  0  0  0  0  0  0  0
    1.6963    1.3249   -2.1461 H   0  0  0  0  0  0  0  0  0  0  0  0
   -0.7130    1.4040   -2.4919 H   0  0  0  0  0  0  0  0  0  0  0  0
  1  2  1  0
  2  3  1  0
  2  4  1  0
  4  5  1  0
  5  6  2  0
  6  7  1  0
  7  8  2  0
  8  9  1  0
  9 10  2  0
 10 11  1  0
 11 12  2  0
 11 13  1  0
 13 14  1  0
 14 15  1  0
 15 16  1  0
 16 17  1  0
 17 18  1  0
 16 19  1  0
 19 20  2  0
 20 21  1  0
 21 22  2  0
 22 23  1  0
 23 24  2  0
 24 25  1  0
 25 26  2  0
 25 27  1  0
 27 28  1  0
 28 29  2  0
 29 30  1  0
 30 31  2  0
 31 32  1  0
 32 33  1  0
 33 34  1  0
 33 35  1  0
 31 36  1  0
 36 37  2  0
 22 38  1  0
 38 39  2  0
 10  5  1  0
 18 13  1  0
 39 19  1  0
 37 28  1  0
  1 40  1  0
  1 41  1  0
  1 42  1  0
  2 43  1  0
  3 44  1  0
  3 45  1  0
  3 46  1  0
  4 47  1  0
  4 48  1  0
  6 49  1  0
  7 50  1  0
  8 51  1  0
  9 52  1  0
 14 53  1  0
 14 54  1  0
 15 55  1  0
 15 56  1  0
 17 57  1  0
 17 58  1  0
 18 59  1  0
 18 60  1  0
 20 61  1  0
 21 62  1  0
 23 63  1  0
 24 64  1  0
 27 65  1  0
 29 66  1  0
 30 67  1  0
 32 68  1  0
 32 69  1  0
 34 70  1  0
 34 71  1  0
 34 72  1  0
 35 73  1  0
 35 74  1  0
 35 75  1  0
 36 76  1  0
 37 77  1  0
 38 78  1  0
 39 79  1  0
M  END
$$$$
[H]c1c([H])c(N([H])C(=O)c2c([H])c([H])c(C([H])([H])C3([H])c4c([H])c([H])c(C(=O)OC([H])([H])C([H])([H])[H])c([H])c4C(C([H])([H])[H])(C([H])([H])[H])S(=O)(=O)C3([H])[H])c(C(C([H])([H])[H])(C([H])([H])[H])C([H])([H])[H])c2[H])c(Br)c([H])c1Cl
     RDKit          3D

 76 79  0  0  0  0  0  0  0  0999 V2000
    9.6564    1.1156    0.6550 C   0  0  0  0  0  0  0  0  0  0  0  0
    8.7219    1.1738    1.8635 C   0  0  0  0  0  0  0  0  0  0  0  0
    7.4372    0.8444    1.3682 O   0  0  0  0  0  0  0  0  0  0  0  0
    6.2966    0.7874    2.1254 C   0  0  0  0  0  0  0  0  0  0  0  0
    6.3612    1.0392    3.3494 O   0  0  0  0  0  0  0  0  0  0  0  0
    4.9839    0.4402    1.5537 C   0  0  0  0  0  0  0  0  0  0  0  0
    3.8378    0.4022    2.3122 C   0  0  0  0  0  0  0  0  0  0  0  0
    2.6315    0.0752    1.7302 C   0  0  0  0  0  0  0  0  0  0  0  0
    2.5206   -0.2260    0.3693 C   0  0  0  0  0  0  0  0  0  0  0  0
    1.1139   -0.5442   -0.0633 C   0  0  0  0  0  0  0  0  0  0  0  0
    0.2643    0.6640    0.2061 C   0  0  0  0  0  0  0  0  0  0  0  0
   -1.1432    0.6334   -0.1262 C   0  0  0  0  0  0  0  0  0  0  0  0
   -1.5131    1.0541   -1.4266 C   0  0  0  0  0  0  0  0  0  0  0  0
   -2.7777    1.0410   -1.9152 C   0  0  0  0  0  0  0  0  0  0  0  0
   -3.7680    0.5842   -1.0799 C   0  0  0  0  0  0  0  0  0  0  0  0
   -3.4423    0.1739    0.1774 C   0  0  0  0  0  0  0  0  0  0  0  0
   -2.1344    0.1775    0.7150 C   0  0  0  0  0  0  0  0  0  0  0  0
   -1.9225   -0.2384    2.1238 C   0  0  0  0  0  0  0  0  0  0  0  0
   -1.3453    0.8554    3.0041 C   0  0  0  0  0  0  0  0  0  0  0  0
   -3.3637   -0.3507    2.7344 C   0  0  0  0  0  0  0  0  0  0  0  0
   -1.3762   -1.5959    2.3572 C   0  0  0  0  0  0  0  0  0  0  0  0
   -5.1495    0.5607   -1.5732 C   0  0  0  0  0  0  0  0  0  0  0  0
   -5.3526    1.0182   -2.7446 O   0  0  0  0  0  0  0  0  0  0  0  0
   -6.2418    0.0704   -0.8380 N   0  0  0  0  0  0  0  0  0  0  0  0
   -7.5936    0.0013   -1.2071 C   0  0  0  0  0  0  0  0  0  0  0  0
   -8.0475    0.4235   -2.4197 C   0  0  0  0  0  0  0  0  0  0  0  0
   -9.4199    0.3332   -2.7470 C   0  0  0  0  0  0  0  0  0  0  0  0
  -10.3233   -0.1810   -1.8504 C   0  0  0  0  0  0  0  0  0  0  0  0
  -12.0220   -0.2758   -2.2956 Cl  0  0  0  0  0  0  0  0  0  0  0  0
   -9.8613   -0.6047   -0.6303 C   0  0  0  0  0  0  0  0  0  0  0  0
   -8.5400   -0.5239   -0.3011 C   0  0  0  0  0  0  0  0  0  0  0  0
   -7.9788   -1.1339    1.4119 Br  0  0  0  0  0  0  0  0  0  0  0  0
    1.0257   -1.0710   -1.4638 C   0  0  0  0  0  0  0  0  0  0  0  0
    2.1920   -0.3927   -2.5957 S   0  0  0  0  0  0  0  0  0  0  0  0
    2.2344   -1.3445   -3.7904 O   0  0  0  0  0  0  0  0  0  0  0  0
    1.9015    0.9770   -3.0625 O   0  0  0  0  0  0  0  0  0  0  0  0
    3.7624   -0.4917   -1.8208 C   0  0  0  0  0  0  0  0  0  0  0  0
    4.6872    0.4974   -2.4938 C   0  0  0  0  0  0  0  0  0  0  0  0
    4.3629   -1.8794   -1.9154 C   0  0  0  0  0  0  0  0  0  0  0  0
    3.6309   -0.1919   -0.3718 C   0  0  0  0  0  0  0  0  0  0  0  0
    4.8578    0.1424    0.2275 C   0  0  0  0  0  0  0  0  0  0  0  0
    9.4385    0.2238    0.0532 H   0  0  0  0  0  0  0  0  0  0  0  0
   10.7075    1.1084    0.9428 H   0  0  0  0  0  0  0  0  0  0  0  0
    9.3956    2.0052    0.0201 H   0  0  0  0  0  0  0  0  0  0  0  0
    8.7436    2.2111    2.2732 H   0  0  0  0  0  0  0  0  0  0  0  0
    9.1164    0.4316    2.5797 H   0  0  0  0  0  0  0  0  0  0  0  0
    3.9332    0.6375    3.3681 H   0  0  0  0  0  0  0  0  0  0  0  0
    1.7954    0.0641    2.4134 H   0  0  0  0  0  0  0  0  0  0  0  0
    0.8490   -1.3918    0.5907 H   0  0  0  0  0  0  0  0  0  0  0  0
    0.5501    1.0405    1.2068 H   0  0  0  0  0  0  0  0  0  0  0  0
    0.7287    1.4909   -0.4464 H   0  0  0  0  0  0  0  0  0  0  0  0
   -0.7021    1.4129   -2.0513 H   0  0  0  0  0  0  0  0  0  0  0  0
   -3.0038    1.3694   -2.9047 H   0  0  0  0  0  0  0  0  0  0  0  0
   -4.2280   -0.1908    0.8216 H   0  0  0  0  0  0  0  0  0  0  0  0
   -1.9111    1.0211    3.9473 H   0  0  0  0  0  0  0  0  0  0  0  0
   -0.3323    0.5704    3.3238 H   0  0  0  0  0  0  0  0  0  0  0  0
   -1.2767    1.8110    2.4510 H   0  0  0  0  0  0  0  0  0  0  0  0
   -3.7867   -1.2920    2.3779 H   0  0  0  0  0  0  0  0  0  0  0  0
   -3.1817   -0.4775    3.8415 H   0  0  0  0  0  0  0  0  0  0  0  0
   -3.9171    0.5640    2.5965 H   0  0  0  0  0  0  0  0  0  0  0  0
   -0.3565   -1.5738    2.8544 H   0  0  0  0  0  0  0  0  0  0  0  0
   -1.2970   -2.1929    1.3978 H   0  0  0  0  0  0  0  0  0  0  0  0
   -1.9615   -2.2563    3.0324 H   0  0  0  0  0  0  0  0  0  0  0  0
   -6.0218   -0.3157    0.1607 H   0  0  0  0  0  0  0  0  0  0  0  0
   -7.4648    0.8421   -3.2132 H   0  0  0  0  0  0  0  0  0  0  0  0
   -9.7835    0.6603   -3.6925 H   0  0  0  0  0  0  0  0  0  0  0  0
  -10.5922   -1.0069    0.0597 H   0  0  0  0  0  0  0  0  0  0  0  0
    0.0287   -1.0122   -1.9099 H   0  0  0  0  0  0  0  0  0  0  0  0
    1.2452   -2.1872   -1.4614 H   0  0  0  0  0  0  0  0  0  0  0  0
    5.7273    0.1128   -2.4907 H   0  0  0  0  0  0  0  0  0  0  0  0
    4.3719    0.5276   -3.5744 H   0  0  0  0  0  0  0  0  0  0  0  0
    4.5898    1.5194   -2.0858 H   0  0  0  0  0  0  0  0  0  0  0  0
    4.0139   -2.4969   -1.0360 H   0  0  0  0  0  0  0  0  0  0  0  0
    4.1764   -2.3799   -2.8704 H   0  0  0  0  0  0  0  0  0  0  0  0
    5.4612   -1.7684   -1.7736 H   0  0  0  0  0  0  0  0  0  0  0  0
    5.7808    0.1787   -0.3542 H   0  0  0  0  0  0  0  0  0  0  0  0
  1  2  1  0
  2  3  1  0
  3  4  1  0
  4  5  2  0
  4  6  1  0
  6  7  2  0
  7  8  1  0
  8  9  2  0
  9 10  1  0
 10 11  1  0
 11 12  1  0
 12 13  2  0
 13 14  1  0
 14 15  2  0
 15 16  1  0
 16 17  2  0
 17 18  1  0
 18 19  1  0
 18 20  1  0
 18 21  1  0
 15 22  1  0
 22 23  2  0
 22 24  1  0
 24 25  1  0
 25 26  2  0
 26 27  1  0
 27 28  2  0
 28 29  1  0
 28 30  1  0
 30 31  2  0
 31 32  1  0
 10 33  1  0
 33 34  1  0
 34 35  2  0
 34 36  2  0
 34 37  1  0
 37 38  1  0
 37 39  1  0
 37 40  1  0
 40 41  2  0
 41  6  1  0
 40  9  1  0
 17 12  1  0
 31 25  1  0
  1 42  1  0
  1 43  1  0
  1 44  1  0
  2 45  1  0
  2 46  1  0
  7 47  1  0
  8 48  1  0
 10 49  1  0
 11 50  1  0
 11 51  1  0
 13 52  1  0
 14 53  1  0
 16 54  1  0
 19 55  1  0
 19 56  1  0
 19 57  1  0
 20 58  1  0
 20 59  1  0
 20 60  1  0
 21 61  1  0
 21 62  1  0
 21 63  1  0
 24 64  1  0
 26 65  1  0
 27 66  1  0
 30 67  1  0
 33 68  1  0
 33 69  1  0
 38 70  1  0
 38 71  1  0
 38 72  1  0
 39 73  1  0
 39 74  1  0
 39 75  1  0
 41 76  1  0
M  END
$$$$
[H]c1nc([H])c(N([H])C(=O)c2nc([H])c([H])c(S(=O)(=O)N([H])c3c([H])c([H])c(C([H])([H])[C@]4([H])C([H])([H])C([H])([H])[C@@]([H])(N5C([H])([H])C([H])([H])OC([H])([H])C5([H])[H])C([H])([H])C4([H])[H])c([H])c3[H])c2[H])c(C([H])([H])[H])c1[H]
     RDKit          3D

 74 78  0  0  0  0  0  0  0  0999 V2000
    8.5363    1.8641    1.4978 C   0  0  0  0  0  0  0  0  0  0  0  0
    9.3977    0.6970    1.1346 C   0  0  0  0  0  0  0  0  0  0  0  0
   10.6263    0.5704    1.6908 C   0  0  0  0  0  0  0  0  0  0  0  0
   11.4030   -0.5114    1.3435 C   0  0  0  0  0  0  0  0  0  0  0  0
   10.9735   -1.4215    0.4829 N   0  0  0  0  0  0  0  0  0  0  0  0
    9.7455   -1.3007   -0.0770 C   0  0  0  0  0  0  0  0  0  0  0  0
    8.9358   -0.2591    0.2252 C   0  0  0  0  0  0  0  0  0  0  0  0
    7.6534   -0.0951   -0.3345 N   0  0  0  0  0  0  0  0  0  0  0  0
    6.9738   -0.9150   -1.2480 C   0  0  0  0  0  0  0  0  0  0  0  0
    7.4729   -1.9549   -1.6933 O   0  0  0  0  0  0  0  0  0  0  0  0
    5.6241   -0.5809   -1.7280 C   0  0  0  0  0  0  0  0  0  0  0  0
    4.9195    0.5320   -1.3532 C   0  0  0  0  0  0  0  0  0  0  0  0
    3.6408    0.8110   -1.8324 C   0  0  0  0  0  0  0  0  0  0  0  0
    3.0581   -0.0606   -2.7158 C   0  0  0  0  0  0  0  0  0  0  0  0
    3.7708   -1.1786   -3.0898 C   0  0  0  0  0  0  0  0  0  0  0  0
    4.9943   -1.4099   -2.6076 N   0  0  0  0  0  0  0  0  0  0  0  0
    2.8002    2.2527   -1.3125 S   0  0  0  0  0  0  0  0  0  0  0  0
    1.9463    2.7475   -2.4263 O   0  0  0  0  0  0  0  0  0  0  0  0
    3.7952    3.3545   -1.0170 O   0  0  0  0  0  0  0  0  0  0  0  0
    1.8721    1.9797    0.1018 N   0  0  0  0  0  0  0  0  0  0  0  0
    0.8150    1.0447    0.1206 C   0  0  0  0  0  0  0  0  0  0  0  0
   -0.1422    0.9799   -0.8617 C   0  0  0  0  0  0  0  0  0  0  0  0
   -1.1769    0.0340   -0.7863 C   0  0  0  0  0  0  0  0  0  0  0  0
   -1.2536   -0.8422    0.2662 C   0  0  0  0  0  0  0  0  0  0  0  0
   -2.3462   -1.8228    0.3319 C   0  0  0  0  0  0  0  0  0  0  0  0
   -3.5064   -1.3385    1.1486 C   0  0  1  0  0  0  0  0  0  0  0  0
   -4.0831   -0.0811    0.5696 C   0  0  0  0  0  0  0  0  0  0  0  0
   -4.9218   -0.4967   -0.6466 C   0  0  0  0  0  0  0  0  0  0  0  0
   -6.2635   -0.9397   -0.1009 C   0  0  1  0  0  0  0  0  0  0  0  0
   -5.9864   -1.7573    1.1461 C   0  0  0  0  0  0  0  0  0  0  0  0
   -4.6194   -2.3718    1.1660 C   0  0  0  0  0  0  0  0  0  0  0  0
   -7.1152    0.1776    0.2510 N   0  0  0  0  0  0  0  0  0  0  0  0
   -7.4737    1.0198   -0.8455 C   0  0  0  0  0  0  0  0  0  0  0  0
   -8.2977    2.1683   -0.2899 C   0  0  0  0  0  0  0  0  0  0  0  0
   -8.7062    1.9426    1.0109 O   0  0  0  0  0  0  0  0  0  0  0  0
   -9.3792    0.7100    1.0282 C   0  0  0  0  0  0  0  0  0  0  0  0
   -8.3339   -0.3643    0.8165 C   0  0  0  0  0  0  0  0  0  0  0  0
   -0.3039   -0.7941    1.2615 C   0  0  0  0  0  0  0  0  0  0  0  0
    0.7131    0.1385    1.1837 C   0  0  0  0  0  0  0  0  0  0  0  0
    8.3124    2.4324    0.5813 H   0  0  0  0  0  0  0  0  0  0  0  0
    9.0174    2.4508    2.2844 H   0  0  0  0  0  0  0  0  0  0  0  0
    7.5703    1.4951    1.9056 H   0  0  0  0  0  0  0  0  0  0  0  0
   11.0292    1.2890    2.4037 H   0  0  0  0  0  0  0  0  0  0  0  0
   12.4053   -0.6393    1.7797 H   0  0  0  0  0  0  0  0  0  0  0  0
    9.4907   -2.0814   -0.7570 H   0  0  0  0  0  0  0  0  0  0  0  0
    7.1266    0.7954   -0.0041 H   0  0  0  0  0  0  0  0  0  0  0  0
    5.3621    1.2516   -0.6438 H   0  0  0  0  0  0  0  0  0  0  0  0
    2.0472    0.1171   -3.1227 H   0  0  0  0  0  0  0  0  0  0  0  0
    3.2973   -1.8732   -3.7993 H   0  0  0  0  0  0  0  0  0  0  0  0
    2.0572    2.4928    0.9909 H   0  0  0  0  0  0  0  0  0  0  0  0
   -0.0923    1.6656   -1.6910 H   0  0  0  0  0  0  0  0  0  0  0  0
   -1.8948    0.0464   -1.6025 H   0  0  0  0  0  0  0  0  0  0  0  0
   -1.9317   -2.7854    0.7329 H   0  0  0  0  0  0  0  0  0  0  0  0
   -2.6305   -2.0526   -0.7180 H   0  0  0  0  0  0  0  0  0  0  0  0
   -3.1902   -1.1151    2.2120 H   0  0  0  0  0  0  0  0  0  0  0  0
   -4.8258    0.2786    1.3629 H   0  0  0  0  0  0  0  0  0  0  0  0
   -3.3823    0.7220    0.3563 H   0  0  0  0  0  0  0  0  0  0  0  0
   -4.9759    0.2880   -1.3967 H   0  0  0  0  0  0  0  0  0  0  0  0
   -4.4862   -1.3894   -1.1373 H   0  0  0  0  0  0  0  0  0  0  0  0
   -6.7766   -1.5749   -0.8555 H   0  0  0  0  0  0  0  0  0  0  0  0
   -6.7176   -2.5833    1.2082 H   0  0  0  0  0  0  0  0  0  0  0  0
   -6.1308   -1.1589    2.0683 H   0  0  0  0  0  0  0  0  0  0  0  0
   -4.4989   -3.1237    0.3510 H   0  0  0  0  0  0  0  0  0  0  0  0
   -4.5273   -2.9273    2.1201 H   0  0  0  0  0  0  0  0  0  0  0  0
   -8.0813    0.4583   -1.5997 H   0  0  0  0  0  0  0  0  0  0  0  0
   -6.6170    1.4857   -1.3652 H   0  0  0  0  0  0  0  0  0  0  0  0
   -7.6986    3.1257   -0.2604 H   0  0  0  0  0  0  0  0  0  0  0  0
   -9.1517    2.3418   -0.9770 H   0  0  0  0  0  0  0  0  0  0  0  0
   -9.9187    0.6188    1.9724 H   0  0  0  0  0  0  0  0  0  0  0  0
  -10.1193    0.7505    0.1982 H   0  0  0  0  0  0  0  0  0  0  0  0
   -8.1337   -0.9454    1.7469 H   0  0  0  0  0  0  0  0  0  0  0  0
   -8.7590   -1.0744    0.0658 H   0  0  0  0  0  0  0  0  0  0  0  0
   -0.3975   -1.5009    2.0742 H   0  0  0  0  0  0  0  0  0  0  0  0
    1.4636    0.1918    1.9504 H   0  0  0  0  0  0  0  0  0  0  0  0
  1  2  1  0
  2  3  2  0
  3  4  1  0
  4  5  2  0
  5  6  1  0
  6  7  2  0
  7  8  1  0
  8  9  1  0
  9 10  2  0
  9 11  1  0
 11 12  2  0
 12 13  1  0
 13 14  2  0
 14 15  1  0
 15 16  2  0
 13 17  1  0
 17 18  2  0
 17 19  2  0
 17 20  1  0
 20 21  1  0
 21 22  2  0
 22 23  1  0
 23 24  2  0
 24 25  1  0
 25 26  1  0
 26 27  1  0
 27 28  1  0
 28 29  1  0
 29 30  1  0
 30 31  1  0
 29 32  1  0
 32 33  1  0
 33 34  1  0
 34 35  1  0
 35 36  1  0
 36 37  1  0
 24 38  1  0
 38 39  2  0
  7  2  1  0
 16 11  1  0
 39 21  1  0
 31 26  1  0
 37 32  1  0
  1 40  1  0
  1 41  1  0
  1 42  1  0
  3 43  1  0
  4 44  1  0
  6 45  1  0
  8 46  1  0
 12 47  1  0
 14 48  1  0
 15 49  1  0
 20 50  1  0
 22 51  1  0
 23 52  1  0
 25 53  1  0
 25 54  1  0
 26 55  1  1
 27 56  1  0
 27 57  1  0
 28 58  1  0
 28 59  1  0
 29 60  1  6
 30 61  1  0
 30 62  1  0
 31 63  1  0
 31 64  1  0
 33 65  1  0
 33 66  1  0
 34 67  1  0
 34 68  1  0
 36 69  1  0
 36 70  1  0
 37 71  1  0
 37 72  1  0
 38 73  1  0
 39 74  1  0
M  END
$$$$
[H]c1nc(N([H])S(=O)(=O)C([H])([H])[H])c(N(C([H])([H])c2c([H])nc([H])c([H])c2[H])C2([H])C([H])([H])C([H])([H])N(C([H])([H])C([H])([H])[H])C([H])([H])C2([H])[H])c([H])c1[H]
     RDKit          3D

 54 56  0  0  0  0  0  0  0  0999 V2000
    5.3605   -0.3457    1.5487 C   0  0  0  0  0  0  0  0  0  0  0  0
    4.6625   -0.8126    0.3089 C   0  0  0  0  0  0  0  0  0  0  0  0
    3.4977   -0.0713   -0.0364 N   0  0  0  0  0  0  0  0  0  0  0  0
    2.9500   -0.6477   -1.2472 C   0  0  0  0  0  0  0  0  0  0  0  0
    1.7921    0.2089   -1.7134 C   0  0  0  0  0  0  0  0  0  0  0  0
    0.7054    0.0090   -0.6084 C   0  0  0  0  0  0  0  0  0  0  0  0
    1.3132    0.7841    0.5443 C   0  0  0  0  0  0  0  0  0  0  0  0
    2.5103   -0.0311    1.0244 C   0  0  0  0  0  0  0  0  0  0  0  0
   -0.5592    0.4076   -1.0680 N   0  0  0  0  0  0  0  0  0  0  0  0
   -1.0124    1.7537   -1.2342 C   0  0  0  0  0  0  0  0  0  0  0  0
   -1.2433    2.5401   -0.0148 C   0  0  0  0  0  0  0  0  0  0  0  0
   -0.5804    3.6959    0.3431 C   0  0  0  0  0  0  0  0  0  0  0  0
   -0.8500    4.3938    1.4854 C   0  0  0  0  0  0  0  0  0  0  0  0
   -1.8221    3.9479    2.3377 C   0  0  0  0  0  0  0  0  0  0  0  0
   -2.4839    2.8271    2.0168 N   0  0  0  0  0  0  0  0  0  0  0  0
   -2.2199    2.1409    0.8952 C   0  0  0  0  0  0  0  0  0  0  0  0
   -1.4955   -0.6124   -1.4850 C   0  0  0  0  0  0  0  0  0  0  0  0
   -1.8201   -0.5684   -2.8581 C   0  0  0  0  0  0  0  0  0  0  0  0
   -2.6866   -1.5121   -3.3465 C   0  0  0  0  0  0  0  0  0  0  0  0
   -3.2161   -2.4680   -2.5090 C   0  0  0  0  0  0  0  0  0  0  0  0
   -2.8728   -2.4600   -1.2186 N   0  0  0  0  0  0  0  0  0  0  0  0
   -2.0130   -1.5455   -0.6670 C   0  0  0  0  0  0  0  0  0  0  0  0
   -1.7018   -1.5924    0.7014 N   0  0  0  0  0  0  0  0  0  0  0  0
   -2.4202   -2.8404    1.6750 S   0  0  0  0  0  0  0  0  0  0  0  0
   -4.1913   -2.6325    1.6311 C   0  0  0  0  0  0  0  0  0  0  0  0
   -2.1095   -4.2023    1.1109 O   0  0  0  0  0  0  0  0  0  0  0  0
   -1.9908   -2.7357    3.1042 O   0  0  0  0  0  0  0  0  0  0  0  0
    5.2631    0.7413    1.7355 H   0  0  0  0  0  0  0  0  0  0  0  0
    6.4651   -0.5196    1.3892 H   0  0  0  0  0  0  0  0  0  0  0  0
    5.0764   -0.9657    2.4105 H   0  0  0  0  0  0  0  0  0  0  0  0
    4.3944   -1.8980    0.4754 H   0  0  0  0  0  0  0  0  0  0  0  0
    5.3344   -0.8254   -0.5747 H   0  0  0  0  0  0  0  0  0  0  0  0
    3.7364   -0.7415   -2.0068 H   0  0  0  0  0  0  0  0  0  0  0  0
    2.5046   -1.6389   -0.9744 H   0  0  0  0  0  0  0  0  0  0  0  0
    2.1497    1.2603   -1.6858 H   0  0  0  0  0  0  0  0  0  0  0  0
    1.4042   -0.1119   -2.6809 H   0  0  0  0  0  0  0  0  0  0  0  0
    0.7917   -1.0637   -0.3382 H   0  0  0  0  0  0  0  0  0  0  0  0
    1.7431    1.7390    0.2177 H   0  0  0  0  0  0  0  0  0  0  0  0
    0.6327    0.9563    1.3809 H   0  0  0  0  0  0  0  0  0  0  0  0
    2.9283    0.5334    1.8801 H   0  0  0  0  0  0  0  0  0  0  0  0
    2.2349   -1.0390    1.3704 H   0  0  0  0  0  0  0  0  0  0  0  0
   -0.2637    2.3611   -1.8466 H   0  0  0  0  0  0  0  0  0  0  0  0
   -1.9219    1.8063   -1.9199 H   0  0  0  0  0  0  0  0  0  0  0  0
    0.1931    4.0177   -0.3715 H   0  0  0  0  0  0  0  0  0  0  0  0
   -0.3133    5.2877    1.7290 H   0  0  0  0  0  0  0  0  0  0  0  0
   -2.0546    4.4977    3.2654 H   0  0  0  0  0  0  0  0  0  0  0  0
   -2.7775    1.2458    0.6744 H   0  0  0  0  0  0  0  0  0  0  0  0
   -1.3922    0.1902   -3.4925 H   0  0  0  0  0  0  0  0  0  0  0  0
   -2.9513   -1.4941   -4.4122 H   0  0  0  0  0  0  0  0  0  0  0  0
   -3.9104   -3.2173   -2.9223 H   0  0  0  0  0  0  0  0  0  0  0  0
   -1.0795   -0.9209    1.1517 H   0  0  0  0  0  0  0  0  0  0  0  0
   -4.6100   -3.2216    0.7641 H   0  0  0  0  0  0  0  0  0  0  0  0
   -4.6460   -3.0464    2.5346 H   0  0  0  0  0  0  0  0  0  0  0  0
   -4.4348   -1.5636    1.5264 H   0  0  0  0  0  0  0  0  0  0  0  0
  1  2  1  0
  2  3  1  0
  3  4  1  0
  4  5  1  0
  5  6  1  0
  6  7  1  0
  7  8  1  0
  6  9  1  0
  9 10  1  0
 10 11  1  0
 11 12  2  0
 12 13  1  0
 13 14  2  0
 14 15  1  0
 15 16  2  0
  9 17  1  0
 17 18  2  0
 18 19  1  0
 19 20  2  0
 20 21  1  0
 21 22  2  0
 22 23  1  0
 23 24  1  0
 24 25  1  0
 24 26  2  0
 24 27  2  0
  8  3  1  0
 16 11  1  0
 22 17  1  0
  1 28  1  0
  1 29  1  0
  1 30  1  0
  2 31  1  0
  2 32  1  0
  4 33  1  0
  4 34  1  0
  5 35  1  0
  5 36  1  0
  6 37  1  0
  7 38  1  0
  7 39  1  0
  8 40  1  0
  8 41  1  0
 10 42  1  0
 10 43  1  0
 12 44  1  0
 13 45  1  0
 14 46  1  0
 16 47  1  0
 18 48  1  0
 19 49  1  0
 20 50  1  0
 23 51  1  0
 25 52  1  0
 25 53  1  0
 25 54  1  0
M  END
$$$$
[H]c1c([H])c(N([H])[H])c(C(=O)c2c(-c3c([H])c([H])c(C([H])([H])N4C([H])([H])C([H])([H])C([H])([H])C([H])([H])C4([H])[H])c([H])c3[H])nn3c([H])c(F)c([H])c([H])c23)c(C([H])([H])[H])c1[H]
     RDKit          3D

 60 64  0  0  0  0  0  0  0  0999 V2000
   -3.3409   -1.1129    2.0611 C   0  0  0  0  0  0  0  0  0  0  0  0
   -3.7340   -1.6339    0.7292 C   0  0  0  0  0  0  0  0  0  0  0  0
   -4.3093   -2.9167    0.6613 C   0  0  0  0  0  0  0  0  0  0  0  0
   -4.6844   -3.5395   -0.4880 C   0  0  0  0  0  0  0  0  0  0  0  0
   -4.4684   -2.8294   -1.6595 C   0  0  0  0  0  0  0  0  0  0  0  0
   -3.9188   -1.5903   -1.6259 C   0  0  0  0  0  0  0  0  0  0  0  0
   -3.7328   -0.9175   -2.8628 N   0  0  0  0  0  0  0  0  0  0  0  0
   -3.5370   -0.9526   -0.4489 C   0  0  0  0  0  0  0  0  0  0  0  0
   -2.9700    0.3771   -0.5249 C   0  0  0  0  0  0  0  0  0  0  0  0
   -2.7258    0.7324   -1.7863 O   0  0  0  0  0  0  0  0  0  0  0  0
   -2.6251    1.3881    0.3981 C   0  0  0  0  0  0  0  0  0  0  0  0
   -1.4011    1.8832    0.7424 C   0  0  0  0  0  0  0  0  0  0  0  0
   -1.6091    2.9577    1.5715 N   0  0  0  0  0  0  0  0  0  0  0  0
   -2.8913    3.1551    1.7626 N   0  0  0  0  0  0  0  0  0  0  0  0
   -3.5699    4.0913    2.4935 C   0  0  0  0  0  0  0  0  0  0  0  0
   -4.9454    4.0819    2.5130 C   0  0  0  0  0  0  0  0  0  0  0  0
   -5.5831    5.0270    3.2424 F   0  0  0  0  0  0  0  0  0  0  0  0
   -5.6592    3.1360    1.8018 C   0  0  0  0  0  0  0  0  0  0  0  0
   -4.9266    2.2097    1.0815 C   0  0  0  0  0  0  0  0  0  0  0  0
   -3.5462    2.2211    1.0655 C   0  0  0  0  0  0  0  0  0  0  0  0
   -0.0364    1.5032    0.3645 C   0  0  0  0  0  0  0  0  0  0  0  0
    0.8120    2.4601   -0.2097 C   0  0  0  0  0  0  0  0  0  0  0  0
    2.1289    2.1858   -0.5063 C   0  0  0  0  0  0  0  0  0  0  0  0
    2.6909    0.9247   -0.2411 C   0  0  0  0  0  0  0  0  0  0  0  0
    4.1252    0.7108   -0.5186 C   0  0  0  0  0  0  0  0  0  0  0  0
    4.6643   -0.5470   -0.3917 N   0  0  0  0  0  0  0  0  0  0  0  0
    4.4230   -1.6189   -1.2586 C   0  0  0  0  0  0  0  0  0  0  0  0
    5.6419   -2.5463   -1.3156 C   0  0  0  0  0  0  0  0  0  0  0  0
    6.9491   -1.8743   -1.0657 C   0  0  0  0  0  0  0  0  0  0  0  0
    6.9633   -0.8374    0.0267 C   0  0  0  0  0  0  0  0  0  0  0  0
    5.5804   -0.8224    0.6872 C   0  0  0  0  0  0  0  0  0  0  0  0
    1.8571   -0.0091    0.3177 C   0  0  0  0  0  0  0  0  0  0  0  0
    0.5134    0.2721    0.6165 C   0  0  0  0  0  0  0  0  0  0  0  0
   -3.2702   -2.0259    2.7377 H   0  0  0  0  0  0  0  0  0  0  0  0
   -2.3428   -0.6896    2.0023 H   0  0  0  0  0  0  0  0  0  0  0  0
   -4.0780   -0.4018    2.4945 H   0  0  0  0  0  0  0  0  0  0  0  0
   -4.4718   -3.4549    1.6073 H   0  0  0  0  0  0  0  0  0  0  0  0
   -5.1378   -4.5321   -0.4994 H   0  0  0  0  0  0  0  0  0  0  0  0
   -4.7699   -3.3238   -2.5945 H   0  0  0  0  0  0  0  0  0  0  0  0
   -4.4545   -0.2507   -3.2422 H   0  0  0  0  0  0  0  0  0  0  0  0
   -2.8751   -1.0509   -3.4503 H   0  0  0  0  0  0  0  0  0  0  0  0
   -2.9690    4.8147    3.0264 H   0  0  0  0  0  0  0  0  0  0  0  0
   -6.7354    3.0917    1.7936 H   0  0  0  0  0  0  0  0  0  0  0  0
   -5.4123    1.4225    0.4988 H   0  0  0  0  0  0  0  0  0  0  0  0
    0.3816    3.4391   -0.4246 H   0  0  0  0  0  0  0  0  0  0  0  0
    2.8131    2.9227   -0.9415 H   0  0  0  0  0  0  0  0  0  0  0  0
    4.7669    1.4484    0.0644 H   0  0  0  0  0  0  0  0  0  0  0  0
    4.3552    1.0792   -1.5875 H   0  0  0  0  0  0  0  0  0  0  0  0
    3.5641   -2.2545   -1.0544 H   0  0  0  0  0  0  0  0  0  0  0  0
    4.2695   -1.1887   -2.2986 H   0  0  0  0  0  0  0  0  0  0  0  0
    5.4588   -3.3114   -0.5534 H   0  0  0  0  0  0  0  0  0  0  0  0
    5.6810   -2.9636   -2.3516 H   0  0  0  0  0  0  0  0  0  0  0  0
    7.6412   -2.6947   -0.6730 H   0  0  0  0  0  0  0  0  0  0  0  0
    7.4520   -1.4922   -1.9961 H   0  0  0  0  0  0  0  0  0  0  0  0
    7.7366   -0.9569    0.7793 H   0  0  0  0  0  0  0  0  0  0  0  0
    7.1389    0.1804   -0.4299 H   0  0  0  0  0  0  0  0  0  0  0  0
    5.5290   -0.0468    1.4262 H   0  0  0  0  0  0  0  0  0  0  0  0
    5.4652   -1.8379    1.1300 H   0  0  0  0  0  0  0  0  0  0  0  0
    2.2550   -1.0010    0.5453 H   0  0  0  0  0  0  0  0  0  0  0  0
   -0.1257   -0.4905    1.0589 H   0  0  0  0  0  0  0  0  0  0  0  0
  1  2  1  0
  2  3  2  0
  3  4  1  0
  4  5  2  0
  5  6  1  0
  6  7  1  0
  6  8  2  0
  8  9  1  0
  9 10  2  0
  9 11  1  0
 11 12  1  0
 12 13  2  0
 13 14  1  0
 14 15  1  0
 15 16  2  0
 16 17  1  0
 16 18  1  0
 18 19  2  0
 19 20  1  0
 12 21  1  0
 21 22  2  0
 22 23  1  0
 23 24  2  0
 24 25  1  0
 25 26  1  0
 26 27  1  0
 27 28  1  0
 28 29  1  0
 29 30  1  0
 30 31  1  0
 24 32  1  0
 32 33  2  0
  8  2  1  0
 20 11  2  0
 33 21  1  0
 20 14  1  0
 31 26  1  0
  1 34  1  0
  1 35  1  0
  1 36  1  0
  3 37  1  0
  4 38  1  0
  5 39  1  0
  7 40  1  0
  7 41  1  0
 15 42  1  0
 18 43  1  0
 19 44  1  0
 22 45  1  0
 23 46  1  0
 25 47  1  0
 25 48  1  0
 27 49  1  0
 27 50  1  0
 28 51  1  0
 28 52  1  0
 29 53  1  0
 29 54  1  0
 30 55  1  0
 30 56  1  0
 31 57  1  0
 31 58  1  0
 32 59  1  0
 33 60  1  0
M  END
$$$$
[H]c1nc(OC([H])([H])[H])c([H])c(-c2c([H])c([H])c(C([H])([H])C(N([H])N([H])C(=O)c3c([H])c([H])c(OC(F)(F)F)c(Cl)c3[H])(C([H])([H])[H])C([H])([H])[H])c([H])c2[H])n1
     RDKit          3D

 56 58  0  0  0  0  0  0  0  0999 V2000
   -9.6274   -1.0986    1.3853 C   0  0  0  0  0  0  0  0  0  0  0  0
   -8.4122   -0.3824    1.3465 O   0  0  0  0  0  0  0  0  0  0  0  0
   -7.2450   -1.0959    1.0804 C   0  0  0  0  0  0  0  0  0  0  0  0
   -6.0117   -0.4194    1.0308 C   0  0  0  0  0  0  0  0  0  0  0  0
   -4.8477   -1.0937    0.7706 C   0  0  0  0  0  0  0  0  0  0  0  0
   -4.9365   -2.4157    0.5679 N   0  0  0  0  0  0  0  0  0  0  0  0
   -6.0851   -3.1147    0.6032 C   0  0  0  0  0  0  0  0  0  0  0  0
   -7.2036   -2.4202    0.8604 N   0  0  0  0  0  0  0  0  0  0  0  0
   -3.5516   -0.4030    0.7103 C   0  0  0  0  0  0  0  0  0  0  0  0
   -3.3893    0.9449    0.8920 C   0  0  0  0  0  0  0  0  0  0  0  0
   -2.1258    1.5501    0.8160 C   0  0  0  0  0  0  0  0  0  0  0  0
   -0.9787    0.8108    0.5528 C   0  0  0  0  0  0  0  0  0  0  0  0
    0.2693    1.5725    0.4910 C   0  0  0  0  0  0  0  0  0  0  0  0
    0.6595    2.0947   -0.8285 C   0  0  0  0  0  0  0  0  0  0  0  0
   -0.4050    3.0170   -1.4069 C   0  0  0  0  0  0  0  0  0  0  0  0
    1.8158    3.0983   -0.5018 C   0  0  0  0  0  0  0  0  0  0  0  0
    1.2330    1.1902   -1.7596 N   0  0  0  0  0  0  0  0  0  0  0  0
    2.4937    0.7261   -1.4954 N   0  0  0  0  0  0  0  0  0  0  0  0
    2.8046   -0.6485   -1.4126 C   0  0  0  0  0  0  0  0  0  0  0  0
    1.9566   -1.5591   -1.5704 O   0  0  0  0  0  0  0  0  0  0  0  0
    4.1926   -1.0852   -1.1253 C   0  0  0  0  0  0  0  0  0  0  0  0
    4.4625   -2.3366   -0.6135 C   0  0  0  0  0  0  0  0  0  0  0  0
    5.7678   -2.7507   -0.3512 C   0  0  0  0  0  0  0  0  0  0  0  0
    6.8372   -1.8958   -0.6049 C   0  0  0  0  0  0  0  0  0  0  0  0
    8.1204   -2.3535   -0.3268 O   0  0  0  0  0  0  0  0  0  0  0  0
    8.6956   -2.1465    0.9729 C   0  0  0  0  0  0  0  0  0  0  0  0
    9.9639   -2.6912    0.9813 F   0  0  0  0  0  0  0  0  0  0  0  0
    7.8807   -2.7494    1.9368 F   0  0  0  0  0  0  0  0  0  0  0  0
    8.7532   -0.8040    1.2865 F   0  0  0  0  0  0  0  0  0  0  0  0
    6.5735   -0.6472   -1.1158 C   0  0  0  0  0  0  0  0  0  0  0  0
    7.9092    0.4566   -1.4541 Cl  0  0  0  0  0  0  0  0  0  0  0  0
    5.2593   -0.2467   -1.3734 C   0  0  0  0  0  0  0  0  0  0  0  0
   -1.1464   -0.5336    0.3729 C   0  0  0  0  0  0  0  0  0  0  0  0
   -2.3924   -1.1341    0.4473 C   0  0  0  0  0  0  0  0  0  0  0  0
   -9.6543   -1.9285    2.1043 H   0  0  0  0  0  0  0  0  0  0  0  0
  -10.4171   -0.3405    1.6654 H   0  0  0  0  0  0  0  0  0  0  0  0
   -9.9374   -1.4136    0.3448 H   0  0  0  0  0  0  0  0  0  0  0  0
   -6.0080    0.6414    1.2029 H   0  0  0  0  0  0  0  0  0  0  0  0
   -6.1055   -4.1879    0.4312 H   0  0  0  0  0  0  0  0  0  0  0  0
   -4.2673    1.5569    1.1009 H   0  0  0  0  0  0  0  0  0  0  0  0
   -2.0598    2.6238    0.9690 H   0  0  0  0  0  0  0  0  0  0  0  0
    1.0777    0.8691    0.8532 H   0  0  0  0  0  0  0  0  0  0  0  0
    0.2948    2.4093    1.2372 H   0  0  0  0  0  0  0  0  0  0  0  0
   -0.4914    3.9038   -0.7308 H   0  0  0  0  0  0  0  0  0  0  0  0
   -0.0979    3.4306   -2.3866 H   0  0  0  0  0  0  0  0  0  0  0  0
   -1.3798    2.5552   -1.5214 H   0  0  0  0  0  0  0  0  0  0  0  0
    2.1538    3.6099   -1.3920 H   0  0  0  0  0  0  0  0  0  0  0  0
    2.5386    2.5837    0.1167 H   0  0  0  0  0  0  0  0  0  0  0  0
    1.2912    3.8560    0.1393 H   0  0  0  0  0  0  0  0  0  0  0  0
    0.6026    0.5841   -2.2883 H   0  0  0  0  0  0  0  0  0  0  0  0
    3.2724    1.4368   -1.3502 H   0  0  0  0  0  0  0  0  0  0  0  0
    3.6413   -3.0168   -0.4096 H   0  0  0  0  0  0  0  0  0  0  0  0
    5.9629   -3.7348    0.0515 H   0  0  0  0  0  0  0  0  0  0  0  0
    5.0967    0.7463   -1.7805 H   0  0  0  0  0  0  0  0  0  0  0  0
   -0.2776   -1.1105    0.1742 H   0  0  0  0  0  0  0  0  0  0  0  0
   -2.5259   -2.2039    0.3039 H   0  0  0  0  0  0  0  0  0  0  0  0
  1  2  1  0
  2  3  1  0
  3  4  2  0
  4  5  1  0
  5  6  2  0
  6  7  1  0
  7  8  2  0
  5  9  1  0
  9 10  2  0
 10 11  1  0
 11 12  2  0
 12 13  1  0
 13 14  1  0
 14 15  1  0
 14 16  1  0
 14 17  1  0
 17 18  1  0
 18 19  1  0
 19 20  2  0
 19 21  1  0
 21 22  2  0
 22 23  1  0
 23 24  2  0
 24 25  1  0
 25 26  1  0
 26 27  1  0
 26 28  1  0
 26 29  1  0
 24 30  1  0
 30 31  1  0
 30 32  2  0
 12 33  1  0
 33 34  2  0
  8  3  1  0
 34  9  1  0
 32 21  1  0
  1 35  1  0
  1 36  1  0
  1 37  1  0
  4 38  1  0
  7 39  1  0
 10 40  1  0
 11 41  1  0
 13 42  1  0
 13 43  1  0
 15 44  1  0
 15 45  1  0
 15 46  1  0
 16 47  1  0
 16 48  1  0
 16 49  1  0
 17 50  1  0
 18 51  1  0
 22 52  1  0
 23 53  1  0
 32 54  1  0
 33 55  1  0
 34 56  1  0
M  END
$$$$
[H]OC([H])(C(=O)N([H])[C@]([H])(C(=O)N([H])C([H])([H])c1c([H])c([H])c([H])c([H])c1C([H])([H])[H])C([H])([H])c1c([H])c([H])c2c([H])c([H])c([H])c([H])c2c1[H])C([H])([H])C([H])(N([H])[C@]1([H])C([H])([H])C([H])([H])[C@]([H])(O[H])C([H])([H])C1([H])[H])C([H])([H])C([H])([H])C([H])(C([H])([H])[H])C([H])([H])[H]
     RDKit          3D

 92 95  0  0  0  0  0  0  0  0999 V2000
    3.6949    3.2195   -2.7063 C   0  0  0  0  0  0  0  0  0  0  0  0
    4.2181    1.9367   -3.2500 C   0  0  0  0  0  0  0  0  0  0  0  0
    4.3129    1.9386   -4.7459 C   0  0  0  0  0  0  0  0  0  0  0  0
    3.3616    0.7440   -2.7863 C   0  0  0  0  0  0  0  0  0  0  0  0
    3.3608    0.6433   -1.3113 C   0  0  0  0  0  0  0  0  0  0  0  0
    2.6529   -0.4345   -0.6053 C   0  0  0  0  0  0  0  0  0  0  0  0
    1.1665   -0.5434   -0.6582 C   0  0  0  0  0  0  0  0  0  0  0  0
    0.5221   -0.6924   -1.9525 C   0  0  0  0  0  0  0  0  0  0  0  0
    0.9215   -1.7763   -2.6836 O   0  0  0  0  0  0  0  0  0  0  0  0
   -1.0029   -0.7550   -1.8873 C   0  0  0  0  0  0  0  0  0  0  0  0
   -1.5833   -1.3844   -2.8054 O   0  0  0  0  0  0  0  0  0  0  0  0
   -1.7063   -0.1427   -0.8689 N   0  0  0  0  0  0  0  0  0  0  0  0
   -3.1301   -0.0574   -0.6862 C   0  0  1  0  0  0  0  0  0  0  0  0
   -3.7653   -0.8933    0.3437 C   0  0  0  0  0  0  0  0  0  0  0  0
   -3.6224   -2.3533    0.1160 C   0  0  0  0  0  0  0  0  0  0  0  0
   -4.5003   -3.0079   -0.7520 C   0  0  0  0  0  0  0  0  0  0  0  0
   -4.4308   -4.3566   -1.0033 C   0  0  0  0  0  0  0  0  0  0  0  0
   -3.4341   -5.0714   -0.3469 C   0  0  0  0  0  0  0  0  0  0  0  0
   -3.3371   -6.4268   -0.5811 C   0  0  0  0  0  0  0  0  0  0  0  0
   -2.3548   -7.1708    0.0545 C   0  0  0  0  0  0  0  0  0  0  0  0
   -1.4776   -6.5690    0.9156 C   0  0  0  0  0  0  0  0  0  0  0  0
   -1.5733   -5.2017    1.1519 C   0  0  0  0  0  0  0  0  0  0  0  0
   -2.5453   -4.4685    0.5210 C   0  0  0  0  0  0  0  0  0  0  0  0
   -2.6696   -3.0839    0.7331 C   0  0  0  0  0  0  0  0  0  0  0  0
   -3.5853    1.3399   -0.6476 C   0  0  0  0  0  0  0  0  0  0  0  0
   -2.7018    2.2227   -0.8942 O   0  0  0  0  0  0  0  0  0  0  0  0
   -4.9060    1.7211   -0.3599 N   0  0  0  0  0  0  0  0  0  0  0  0
   -5.2589    3.1115   -0.3392 C   0  0  0  0  0  0  0  0  0  0  0  0
   -4.6288    3.9027    0.7269 C   0  0  0  0  0  0  0  0  0  0  0  0
   -3.8186    3.3632    1.6934 C   0  0  0  0  0  0  0  0  0  0  0  0
   -3.2498    4.1437    2.6758 C   0  0  0  0  0  0  0  0  0  0  0  0
   -3.5058    5.5109    2.6881 C   0  0  0  0  0  0  0  0  0  0  0  0
   -4.3130    6.0363    1.7259 C   0  0  0  0  0  0  0  0  0  0  0  0
   -4.8816    5.2833    0.7491 C   0  0  0  0  0  0  0  0  0  0  0  0
   -5.7738    5.8492   -0.2997 C   0  0  0  0  0  0  0  0  0  0  0  0
    3.0217   -0.4727    0.8196 N   0  0  0  0  0  0  0  0  0  0  0  0
    4.3710   -0.7104    1.1457 C   0  0  1  0  0  0  0  0  0  0  0  0
    4.6797    0.2275    2.3352 C   0  0  0  0  0  0  0  0  0  0  0  0
    5.8642   -0.1960    3.1257 C   0  0  0  0  0  0  0  0  0  0  0  0
    5.7201   -1.5778    3.7221 C   0  0  1  0  0  0  0  0  0  0  0  0
    5.6609   -1.6088    5.0891 O   0  0  0  0  0  0  0  0  0  0  0  0
    4.4758   -2.1951    3.0779 C   0  0  0  0  0  0  0  0  0  0  0  0
    4.7132   -2.0944    1.5885 C   0  0  0  0  0  0  0  0  0  0  0  0
    4.3520    3.5762   -1.8978 H   0  0  0  0  0  0  0  0  0  0  0  0
    2.6372    3.1523   -2.4132 H   0  0  0  0  0  0  0  0  0  0  0  0
    3.7472    4.0127   -3.4940 H   0  0  0  0  0  0  0  0  0  0  0  0
    5.2581    1.7574   -2.8680 H   0  0  0  0  0  0  0  0  0  0  0  0
    3.6779    2.7489   -5.1672 H   0  0  0  0  0  0  0  0  0  0  0  0
    4.1015    0.9596   -5.1891 H   0  0  0  0  0  0  0  0  0  0  0  0
    5.3708    2.1837   -5.0623 H   0  0  0  0  0  0  0  0  0  0  0  0
    2.4576    0.7038   -3.3522 H   0  0  0  0  0  0  0  0  0  0  0  0
    3.9696   -0.1598   -3.1505 H   0  0  0  0  0  0  0  0  0  0  0  0
    2.9025    1.6693   -0.9749 H   0  0  0  0  0  0  0  0  0  0  0  0
    4.4259    0.7172   -0.9216 H   0  0  0  0  0  0  0  0  0  0  0  0
    3.0188   -1.4098   -1.0835 H   0  0  0  0  0  0  0  0  0  0  0  0
    0.7164    0.3221   -0.0540 H   0  0  0  0  0  0  0  0  0  0  0  0
    0.9326   -1.4968   -0.0641 H   0  0  0  0  0  0  0  0  0  0  0  0
    0.6351    0.2100   -2.6316 H   0  0  0  0  0  0  0  0  0  0  0  0
    0.1725   -2.4108   -2.8789 H   0  0  0  0  0  0  0  0  0  0  0  0
   -1.1484    0.3390   -0.0921 H   0  0  0  0  0  0  0  0  0  0  0  0
   -3.5637   -0.4542   -1.6805 H   0  0  0  0  0  0  0  0  0  0  0  0
   -4.8591   -0.7076    0.3640 H   0  0  0  0  0  0  0  0  0  0  0  0
   -3.3900   -0.7081    1.3862 H   0  0  0  0  0  0  0  0  0  0  0  0
   -5.2426   -2.4073   -1.2171 H   0  0  0  0  0  0  0  0  0  0  0  0
   -5.1291   -4.8451   -1.6947 H   0  0  0  0  0  0  0  0  0  0  0  0
   -4.0177   -6.8912   -1.2521 H   0  0  0  0  0  0  0  0  0  0  0  0
   -2.3212   -8.2251   -0.1589 H   0  0  0  0  0  0  0  0  0  0  0  0
   -0.7240   -7.1859    1.3931 H   0  0  0  0  0  0  0  0  0  0  0  0
   -0.8951   -4.7188    1.8243 H   0  0  0  0  0  0  0  0  0  0  0  0
   -1.9537   -2.6652    1.4215 H   0  0  0  0  0  0  0  0  0  0  0  0
   -5.6495    0.9834   -0.1629 H   0  0  0  0  0  0  0  0  0  0  0  0
   -6.3618    3.2167   -0.2095 H   0  0  0  0  0  0  0  0  0  0  0  0
   -5.0299    3.5442   -1.3569 H   0  0  0  0  0  0  0  0  0  0  0  0
   -3.6131    2.2957    1.7434 H   0  0  0  0  0  0  0  0  0  0  0  0
   -2.6294    3.7086    3.4128 H   0  0  0  0  0  0  0  0  0  0  0  0
   -3.0810    6.1539    3.4337 H   0  0  0  0  0  0  0  0  0  0  0  0
   -4.5158    7.1119    1.7317 H   0  0  0  0  0  0  0  0  0  0  0  0
   -5.8550    6.9438   -0.0801 H   0  0  0  0  0  0  0  0  0  0  0  0
   -6.8072    5.4409   -0.1968 H   0  0  0  0  0  0  0  0  0  0  0  0
   -5.3547    5.7137   -1.3094 H   0  0  0  0  0  0  0  0  0  0  0  0
    2.6821    0.4340    1.2257 H   0  0  0  0  0  0  0  0  0  0  0  0
    5.1137   -0.3721    0.3532 H   0  0  0  0  0  0  0  0  0  0  0  0
    4.8690    1.2451    1.9440 H   0  0  0  0  0  0  0  0  0  0  0  0
    3.8007    0.3105    2.9905 H   0  0  0  0  0  0  0  0  0  0  0  0
    6.8455   -0.0637    2.5796 H   0  0  0  0  0  0  0  0  0  0  0  0
    5.9290    0.5136    3.9866 H   0  0  0  0  0  0  0  0  0  0  0  0
    6.5667   -2.2140    3.3968 H   0  0  0  0  0  0  0  0  0  0  0  0
    5.0145   -0.9484    5.4411 H   0  0  0  0  0  0  0  0  0  0  0  0
    4.3682   -3.2646    3.3717 H   0  0  0  0  0  0  0  0  0  0  0  0
    3.5641   -1.6561    3.3992 H   0  0  0  0  0  0  0  0  0  0  0  0
    5.8195   -2.2155    1.3652 H   0  0  0  0  0  0  0  0  0  0  0  0
    4.2322   -2.8976    1.0220 H   0  0  0  0  0  0  0  0  0  0  0  0
  1  2  1  0
  2  3  1  0
  2  4  1  0
  4  5  1  0
  5  6  1  0
  6  7  1  0
  7  8  1  0
  8  9  1  0
  8 10  1  0
 10 11  2  0
 10 12  1  0
 12 13  1  0
 13 14  1  0
 14 15  1  0
 15 16  2  0
 16 17  1  0
 17 18  2  0
 18 19  1  0
 19 20  2  0
 20 21  1  0
 21 22  2  0
 22 23  1  0
 23 24  2  0
 13 25  1  0
 25 26  2  0
 25 27  1  0
 27 28  1  0
 28 29  1  0
 29 30  2  0
 30 31  1  0
 31 32  2  0
 32 33  1  0
 33 34  2  0
 34 35  1  0
  6 36  1  0
 36 37  1  0
 37 38  1  0
 38 39  1  0
 39 40  1  0
 40 41  1  0
 40 42  1  0
 42 43  1  0
 24 15  1  0
 34 29  1  0
 43 37  1  0
 23 18  1  0
  1 44  1  0
  1 45  1  0
  1 46  1  0
  2 47  1  0
  3 48  1  0
  3 49  1  0
  3 50  1  0
  4 51  1  0
  4 52  1  0
  5 53  1  0
  5 54  1  0
  6 55  1  0
  7 56  1  0
  7 57  1  0
  8 58  1  0
  9 59  1  0
 12 60  1  0
 13 61  1  6
 14 62  1  0
 14 63  1  0
 16 64  1  0
 17 65  1  0
 19 66  1  0
 20 67  1  0
 21 68  1  0
 22 69  1  0
 24 70  1  0
 27 71  1  0
 28 72  1  0
 28 73  1  0
 30 74  1  0
 31 75  1  0
 32 76  1  0
 33 77  1  0
 35 78  1  0
 35 79  1  0
 35 80  1  0
 36 81  1  0
 37 82  1  6
 38 83  1  0
 38 84  1  0
 39 85  1  0
 39 86  1  0
 40 87  1  6
 41 88  1  0
 42 89  1  0
 42 90  1  0
 43 91  1  0
 43 92  1  0
M  END
$$$$
[H]OC(=O)c1nc(N([H])[H])nc2c(-c3c([H])c([H])c(C([H])([H])C(=O)[O-])c([H])c3[H])c([H])c(C([H])([H])[H])nc12
     RDKit          3D

 38 40  0  0  0  0  0  0  0  0999 V2000
    6.6658   -2.5374   -0.5517 O   0  0  0  0  0  0  0  0  0  0  0  0
    5.4167   -1.9580   -0.3920 C   0  0  0  0  0  0  0  0  0  0  0  0
    4.5799   -2.0939   -1.3153 O   0  0  0  0  0  0  0  0  0  0  0  0
    5.0723   -1.2034    0.8215 C   0  0  0  0  0  0  0  0  0  0  0  0
    3.6816   -0.6966    0.7277 C   0  0  0  0  0  0  0  0  0  0  0  0
    2.6153   -1.4391    1.1848 C   0  0  0  0  0  0  0  0  0  0  0  0
    1.3093   -0.9665    1.0983 C   0  0  0  0  0  0  0  0  0  0  0  0
    1.0519    0.2700    0.5462 C   0  0  0  0  0  0  0  0  0  0  0  0
    2.1151    1.0209    0.0856 C   0  0  0  0  0  0  0  0  0  0  0  0
    3.4104    0.5378    0.1782 C   0  0  0  0  0  0  0  0  0  0  0  0
   -0.2897    0.7829    0.4408 C   0  0  0  0  0  0  0  0  0  0  0  0
   -0.5761    2.0733    0.8258 C   0  0  0  0  0  0  0  0  0  0  0  0
   -1.8381    2.5995    0.7455 C   0  0  0  0  0  0  0  0  0  0  0  0
   -2.0610    3.9906    1.1783 C   0  0  0  0  0  0  0  0  0  0  0  0
   -2.8254    1.8076    0.2681 N   0  0  0  0  0  0  0  0  0  0  0  0
   -2.5731    0.5436   -0.1149 C   0  0  0  0  0  0  0  0  0  0  0  0
   -3.6582   -0.1897   -0.5943 C   0  0  0  0  0  0  0  0  0  0  0  0
   -3.3893   -1.4452   -0.9728 N   0  0  0  0  0  0  0  0  0  0  0  0
   -2.1588   -2.0144   -0.9140 C   0  0  0  0  0  0  0  0  0  0  0  0
   -1.9689   -3.3620   -1.3410 N   0  0  0  0  0  0  0  0  0  0  0  0
   -1.1517   -1.2619   -0.4442 N   0  0  0  0  0  0  0  0  0  0  0  0
   -1.3152   -0.0137   -0.0462 C   0  0  0  0  0  0  0  0  0  0  0  0
   -4.9896    0.3913   -0.6700 C   0  0  0  0  0  0  0  0  0  0  0  0
   -6.0561   -0.3423   -1.1455 O   0  0  0  0  0  0  0  0  0  0  0  0
   -5.1774    1.5703   -0.3011 O   0  0  0  0  0  0  0  0  0  0  0  0
    5.2159   -1.8720    1.6938 H   0  0  0  0  0  0  0  0  0  0  0  0
    5.7380   -0.3133    0.8851 H   0  0  0  0  0  0  0  0  0  0  0  0
    2.7601   -2.4106    1.6244 H   0  0  0  0  0  0  0  0  0  0  0  0
    0.5139   -1.6131    1.4857 H   0  0  0  0  0  0  0  0  0  0  0  0
    1.9764    2.0102   -0.3629 H   0  0  0  0  0  0  0  0  0  0  0  0
    4.2383    1.1450   -0.1910 H   0  0  0  0  0  0  0  0  0  0  0  0
    0.2231    2.7275    1.2167 H   0  0  0  0  0  0  0  0  0  0  0  0
   -1.3791    4.2972    1.9984 H   0  0  0  0  0  0  0  0  0  0  0  0
   -3.0971    4.1727    1.5286 H   0  0  0  0  0  0  0  0  0  0  0  0
   -1.8699    4.6944    0.3353 H   0  0  0  0  0  0  0  0  0  0  0  0
   -1.2158   -3.9500   -0.9508 H   0  0  0  0  0  0  0  0  0  0  0  0
   -2.5960   -3.7628   -2.0560 H   0  0  0  0  0  0  0  0  0  0  0  0
   -6.3976   -1.1889   -0.7063 H   0  0  0  0  0  0  0  0  0  0  0  0
  1  2  1  0
  2  3  2  0
  2  4  1  0
  4  5  1  0
  5  6  2  0
  6  7  1  0
  7  8  2  0
  8  9  1  0
  9 10  2  0
  8 11  1  0
 11 12  2  0
 12 13  1  0
 13 14  1  0
 13 15  2  0
 15 16  1  0
 16 17  2  0
 17 18  1  0
 18 19  2  0
 19 20  1  0
 19 21  1  0
 21 22  2  0
 17 23  1  0
 23 24  1  0
 23 25  2  0
 10  5  1  0
 22 11  1  0
 22 16  1  0
  4 26  1  0
  4 27  1  0
  6 28  1  0
  7 29  1  0
  9 30  1  0
 10 31  1  0
 12 32  1  0
 14 33  1  0
 14 34  1  0
 14 35  1  0
 20 36  1  0
 20 37  1  0
 24 38  1  0
M  CHG  1   1  -1
M  END
$$$$
