[H]OC(=O)c1c([H])c(Oc2c([H])c([H])c(O[H])c(O[H])c2[H])c2c([H])c(O[H])c(O[H])c([H])c2c1[H]
     RDKit          3D

 36 38  0  0  0  0  0  0  0  0999 V2000
   -3.7551   -3.1589    0.1390 O   0  0  0  0  0  0  0  0  0  0  0  0
   -2.4909   -2.7027    0.4288 C   0  0  0  0  0  0  0  0  0  0  0  0
   -1.7172   -3.4561    1.0807 O   0  0  0  0  0  0  0  0  0  0  0  0
   -2.0291   -1.3838    0.0052 C   0  0  0  0  0  0  0  0  0  0  0  0
   -2.8608   -0.5463   -0.7082 C   0  0  0  0  0  0  0  0  0  0  0  0
   -2.4128    0.6965   -1.1023 C   0  0  0  0  0  0  0  0  0  0  0  0
   -3.2271    1.5493   -1.8160 C   0  0  0  0  0  0  0  0  0  0  0  0
   -2.7683    2.7887   -2.2042 C   0  0  0  0  0  0  0  0  0  0  0  0
   -3.5785    3.6490   -2.9197 O   0  0  0  0  0  0  0  0  0  0  0  0
   -1.4799    3.2112   -1.8893 C   0  0  0  0  0  0  0  0  0  0  0  0
   -0.9989    4.4470   -2.2671 O   0  0  0  0  0  0  0  0  0  0  0  0
   -0.6906    2.3397   -1.1769 C   0  0  0  0  0  0  0  0  0  0  0  0
   -1.1154    1.0868   -0.7690 C   0  0  0  0  0  0  0  0  0  0  0  0
   -0.2714    0.2678   -0.0592 C   0  0  0  0  0  0  0  0  0  0  0  0
    0.9912    0.6811    0.2497 O   0  0  0  0  0  0  0  0  0  0  0  0
    1.9321   -0.0152    0.9415 C   0  0  0  0  0  0  0  0  0  0  0  0
    2.0507    0.0631    2.3104 C   0  0  0  0  0  0  0  0  0  0  0  0
    3.0255   -0.6621    2.9976 C   0  0  0  0  0  0  0  0  0  0  0  0
    3.8854   -1.4679    2.3216 C   0  0  0  0  0  0  0  0  0  0  0  0
    4.8435   -2.1817    2.9888 O   0  0  0  0  0  0  0  0  0  0  0  0
    3.7837   -1.5621    0.9388 C   0  0  0  0  0  0  0  0  0  0  0  0
    4.6466   -2.3748    0.2289 O   0  0  0  0  0  0  0  0  0  0  0  0
    2.8062   -0.8331    0.2634 C   0  0  0  0  0  0  0  0  0  0  0  0
   -0.7337   -0.9716    0.3277 C   0  0  0  0  0  0  0  0  0  0  0  0
   -3.9954   -4.1285    0.0129 H   0  0  0  0  0  0  0  0  0  0  0  0
   -3.8699   -0.8620   -0.9619 H   0  0  0  0  0  0  0  0  0  0  0  0
   -4.2512    1.2785   -2.0962 H   0  0  0  0  0  0  0  0  0  0  0  0
   -3.2632    4.5611   -3.2142 H   0  0  0  0  0  0  0  0  0  0  0  0
   -0.0621    4.7028   -2.0145 H   0  0  0  0  0  0  0  0  0  0  0  0
    0.3203    2.6905   -0.9387 H   0  0  0  0  0  0  0  0  0  0  0  0
    1.4036    0.6818    2.9144 H   0  0  0  0  0  0  0  0  0  0  0  0
    3.1075   -0.5897    4.0854 H   0  0  0  0  0  0  0  0  0  0  0  0
    5.5215   -2.7986    2.5988 H   0  0  0  0  0  0  0  0  0  0  0  0
    4.5546   -2.4275   -0.7715 H   0  0  0  0  0  0  0  0  0  0  0  0
    2.7777   -0.9484   -0.8109 H   0  0  0  0  0  0  0  0  0  0  0  0
   -0.0783   -1.6237    0.8863 H   0  0  0  0  0  0  0  0  0  0  0  0
  1  2  1  0
  2  3  2  0
  2  4  1  0
  4  5  2  0
  5  6  1  0
  6  7  2  0
  7  8  1  0
  8  9  1  0
  8 10  2  0
 10 11  1  0
 10 12  1  0
 12 13  2  0
 13 14  1  0
 14 15  1  0
 15 16  1  0
 16 17  2  0
 17 18  1  0
 18 19  2  0
 19 20  1  0
 19 21  1  0
 21 22  1  0
 21 23  2  0
 14 24  2  0
 24  4  1  0
 13  6  1  0
 23 16  1  0
  1 25  1  0
  5 26  1  0
  7 27  1  0
  9 28  1  0
 11 29  1  0
 12 30  1  0
 17 31  1  0
 18 32  1  0
 20 33  1  0
 22 34  1  0
 23 35  1  0
 24 36  1  0
M  END
$$$$
[H]OC(C([H])([H])[H])(C([H])([H])[H])C([H])([H])C([H])([H])N([H])S(=O)(=O)c1c([H])c([H])c(C([H])([H])[H])c(-c2c([H])nc(N([H])[H])c(-c3c([H])nc(OC([H])([H])[H])nc3[H])c2[H])c1[H]
     RDKit          3D

 59 61  0  0  0  0  0  0  0  0999 V2000
   -7.4390    2.7317    3.0769 C   0  0  0  0  0  0  0  0  0  0  0  0
   -6.8228    1.5425    3.4861 O   0  0  0  0  0  0  0  0  0  0  0  0
   -5.9445    0.8367    2.6406 C   0  0  0  0  0  0  0  0  0  0  0  0
   -5.3624   -0.3011    3.0480 N   0  0  0  0  0  0  0  0  0  0  0  0
   -4.5088   -1.0177    2.2706 C   0  0  0  0  0  0  0  0  0  0  0  0
   -4.2193   -0.5665    1.0038 C   0  0  0  0  0  0  0  0  0  0  0  0
   -4.8279    0.6052    0.6041 C   0  0  0  0  0  0  0  0  0  0  0  0
   -5.6704    1.2852    1.4110 N   0  0  0  0  0  0  0  0  0  0  0  0
   -3.3183   -1.2733    0.0987 C   0  0  0  0  0  0  0  0  0  0  0  0
   -2.3149   -0.5969   -0.5903 C   0  0  0  0  0  0  0  0  0  0  0  0
   -1.4326   -1.2222   -1.4558 C   0  0  0  0  0  0  0  0  0  0  0  0
   -1.5751   -2.5824   -1.6266 C   0  0  0  0  0  0  0  0  0  0  0  0
   -2.5417   -3.2409   -0.9646 N   0  0  0  0  0  0  0  0  0  0  0  0
   -3.4082   -2.6324   -0.1161 C   0  0  0  0  0  0  0  0  0  0  0  0
   -4.4171   -3.3972    0.5514 N   0  0  0  0  0  0  0  0  0  0  0  0
   -0.4127   -0.4612   -2.1247 C   0  0  0  0  0  0  0  0  0  0  0  0
    0.4021    0.4035   -1.3863 C   0  0  0  0  0  0  0  0  0  0  0  0
    1.4003    1.1569   -1.9327 C   0  0  0  0  0  0  0  0  0  0  0  0
    1.6003    1.0442   -3.2931 C   0  0  0  0  0  0  0  0  0  0  0  0
    0.8248    0.2070   -4.0642 C   0  0  0  0  0  0  0  0  0  0  0  0
   -0.1931   -0.5541   -3.4737 C   0  0  0  0  0  0  0  0  0  0  0  0
   -1.0263   -1.4429   -4.3198 C   0  0  0  0  0  0  0  0  0  0  0  0
    2.4080    2.2319   -0.9915 S   0  0  0  0  0  0  0  0  0  0  0  0
    2.8458    3.3426   -1.8746 O   0  0  0  0  0  0  0  0  0  0  0  0
    1.6092    2.8294    0.1363 O   0  0  0  0  0  0  0  0  0  0  0  0
    3.8097    1.4153   -0.4054 N   0  0  0  0  0  0  0  0  0  0  0  0
    3.3961    0.3489    0.4466 C   0  0  0  0  0  0  0  0  0  0  0  0
    4.4963   -0.4671    1.0437 C   0  0  0  0  0  0  0  0  0  0  0  0
    5.4614    0.2712    1.9011 C   0  0  0  0  0  0  0  0  0  0  0  0
    6.1431    1.3476    1.1131 C   0  0  0  0  0  0  0  0  0  0  0  0
    6.5443   -0.7262    2.3192 C   0  0  0  0  0  0  0  0  0  0  0  0
    4.9003    0.7461    3.0821 O   0  0  0  0  0  0  0  0  0  0  0  0
   -7.4244    3.5316    3.8447 H   0  0  0  0  0  0  0  0  0  0  0  0
   -8.4808    2.5451    2.6934 H   0  0  0  0  0  0  0  0  0  0  0  0
   -6.8876    3.1494    2.1957 H   0  0  0  0  0  0  0  0  0  0  0  0
   -4.0532   -1.9257    2.6241 H   0  0  0  0  0  0  0  0  0  0  0  0
   -4.6209    0.9868   -0.3864 H   0  0  0  0  0  0  0  0  0  0  0  0
   -2.2635    0.4662   -0.4067 H   0  0  0  0  0  0  0  0  0  0  0  0
   -0.9095   -3.1530   -2.2937 H   0  0  0  0  0  0  0  0  0  0  0  0
   -4.1358   -4.2460    1.0978 H   0  0  0  0  0  0  0  0  0  0  0  0
   -5.4267   -3.1608    0.5284 H   0  0  0  0  0  0  0  0  0  0  0  0
    0.2144    0.4643   -0.3233 H   0  0  0  0  0  0  0  0  0  0  0  0
    2.3884    1.6346   -3.7451 H   0  0  0  0  0  0  0  0  0  0  0  0
    0.9805    0.1182   -5.1282 H   0  0  0  0  0  0  0  0  0  0  0  0
   -0.5452   -2.4180   -4.5373 H   0  0  0  0  0  0  0  0  0  0  0  0
   -2.0772   -1.5061   -4.0109 H   0  0  0  0  0  0  0  0  0  0  0  0
   -1.0636   -0.9338   -5.3308 H   0  0  0  0  0  0  0  0  0  0  0  0
    4.3147    1.0525   -1.2532 H   0  0  0  0  0  0  0  0  0  0  0  0
    2.6959    0.7281    1.2176 H   0  0  0  0  0  0  0  0  0  0  0  0
    2.7968   -0.3608   -0.1953 H   0  0  0  0  0  0  0  0  0  0  0  0
    5.0686   -1.0330    0.2803 H   0  0  0  0  0  0  0  0  0  0  0  0
    4.0005   -1.2636    1.6684 H   0  0  0  0  0  0  0  0  0  0  0  0
    5.6469    2.3334    1.1662 H   0  0  0  0  0  0  0  0  0  0  0  0
    6.3250    1.0532    0.0607 H   0  0  0  0  0  0  0  0  0  0  0  0
    7.1772    1.5326    1.5301 H   0  0  0  0  0  0  0  0  0  0  0  0
    7.2647   -0.9062    1.5056 H   0  0  0  0  0  0  0  0  0  0  0  0
    6.0947   -1.7106    2.5708 H   0  0  0  0  0  0  0  0  0  0  0  0
    7.0996   -0.3875    3.2038 H   0  0  0  0  0  0  0  0  0  0  0  0
    5.4139    1.5453    3.4215 H   0  0  0  0  0  0  0  0  0  0  0  0
  1  2  1  0
  2  3  1  0
  3  4  2  0
  4  5  1  0
  5  6  2  0
  6  7  1  0
  7  8  2  0
  6  9  1  0
  9 10  2  0
 10 11  1  0
 11 12  2  0
 12 13  1  0
 13 14  2  0
 14 15  1  0
 11 16  1  0
 16 17  2  0
 17 18  1  0
 18 19  2  0
 19 20  1  0
 20 21  2  0
 21 22  1  0
 18 23  1  0
 23 24  2  0
 23 25  2  0
 23 26  1  0
 26 27  1  0
 27 28  1  0
 28 29  1  0
 29 30  1  0
 29 31  1  0
 29 32  1  0
  8  3  1  0
 14  9  1  0
 21 16  1  0
  1 33  1  0
  1 34  1  0
  1 35  1  0
  5 36  1  0
  7 37  1  0
 10 38  1  0
 12 39  1  0
 15 40  1  0
 15 41  1  0
 17 42  1  0
 19 43  1  0
 20 44  1  0
 22 45  1  0
 22 46  1  0
 22 47  1  0
 26 48  1  0
 27 49  1  0
 27 50  1  0
 28 51  1  0
 28 52  1  0
 30 53  1  0
 30 54  1  0
 30 55  1  0
 31 56  1  0
 31 57  1  0
 31 58  1  0
 32 59  1  0
M  END
$$$$
[H]c1nn([H])c([H])c1-c1c([H])c([H])c2c(nc([H])n2-c2sc(C(=O)N([H])[H])c(O[C@@]([H])(c3c([H])c([H])c([H])c([H])c3C(F)(F)F)C([H])([H])[H])c2[H])c1[H]
     RDKit          3D

 53 57  0  0  0  0  0  0  0  0999 V2000
   -2.9258    1.3579    1.7662 C   0  0  0  0  0  0  0  0  0  0  0  0
   -3.3544    0.5251    0.5022 C   0  0  1  0  0  0  0  0  0  0  0  0
   -2.8211   -0.7293    0.5917 O   0  0  0  0  0  0  0  0  0  0  0  0
   -1.4833   -0.9889    0.1964 C   0  0  0  0  0  0  0  0  0  0  0  0
   -0.6100   -0.1014   -0.2727 C   0  0  0  0  0  0  0  0  0  0  0  0
    0.6517   -0.5460   -0.6071 C   0  0  0  0  0  0  0  0  0  0  0  0
    0.5671   -2.2077   -0.2476 S   0  0  0  0  0  0  0  0  0  0  0  0
   -1.0368   -2.3005    0.3082 C   0  0  0  0  0  0  0  0  0  0  0  0
   -1.7443   -3.4869    0.7812 C   0  0  0  0  0  0  0  0  0  0  0  0
   -1.1045   -4.7344    0.8169 N   0  0  0  0  0  0  0  0  0  0  0  0
   -2.9307   -3.3657    1.1528 O   0  0  0  0  0  0  0  0  0  0  0  0
    1.7370    0.2396   -1.1293 N   0  0  0  0  0  0  0  0  0  0  0  0
    1.7588    1.1324   -2.1233 C   0  0  0  0  0  0  0  0  0  0  0  0
    3.0030    1.6356   -2.2759 N   0  0  0  0  0  0  0  0  0  0  0  0
    3.7913    1.0662   -1.3765 C   0  0  0  0  0  0  0  0  0  0  0  0
    5.1307    1.1497   -1.0264 C   0  0  0  0  0  0  0  0  0  0  0  0
    5.7052    0.4199   -0.0174 C   0  0  0  0  0  0  0  0  0  0  0  0
    4.8850   -0.4455    0.6816 C   0  0  0  0  0  0  0  0  0  0  0  0
    3.5513   -0.5621    0.3705 C   0  0  0  0  0  0  0  0  0  0  0  0
    2.9849    0.1804   -0.6501 C   0  0  0  0  0  0  0  0  0  0  0  0
    7.1200    0.5568    0.2980 C   0  0  0  0  0  0  0  0  0  0  0  0
    7.6752    0.4003    1.5579 C   0  0  0  0  0  0  0  0  0  0  0  0
    8.9982    0.6057    1.4361 N   0  0  0  0  0  0  0  0  0  0  0  0
    9.3281    0.8823    0.1888 N   0  0  0  0  0  0  0  0  0  0  0  0
    8.1860    0.8571   -0.5284 C   0  0  0  0  0  0  0  0  0  0  0  0
   -4.7612    0.7251    0.2410 C   0  0  0  0  0  0  0  0  0  0  0  0
   -5.5474    1.4123    1.1819 C   0  0  0  0  0  0  0  0  0  0  0  0
   -6.8804    1.6740    1.0193 C   0  0  0  0  0  0  0  0  0  0  0  0
   -7.5113    1.2471   -0.1297 C   0  0  0  0  0  0  0  0  0  0  0  0
   -6.7659    0.5790   -1.0526 C   0  0  0  0  0  0  0  0  0  0  0  0
   -5.3879    0.3037   -0.8921 C   0  0  0  0  0  0  0  0  0  0  0  0
   -4.6780   -0.4421   -1.9157 C   0  0  0  0  0  0  0  0  0  0  0  0
   -5.5933   -0.6421   -2.9896 F   0  0  0  0  0  0  0  0  0  0  0  0
   -3.6290    0.1908   -2.5256 F   0  0  0  0  0  0  0  0  0  0  0  0
   -4.4348   -1.7686   -1.5852 F   0  0  0  0  0  0  0  0  0  0  0  0
   -3.3646    0.9833    2.6692 H   0  0  0  0  0  0  0  0  0  0  0  0
   -1.8189    1.3912    1.7530 H   0  0  0  0  0  0  0  0  0  0  0  0
   -3.2794    2.3761    1.5509 H   0  0  0  0  0  0  0  0  0  0  0  0
   -2.7698    1.0788   -0.2653 H   0  0  0  0  0  0  0  0  0  0  0  0
   -0.8641    0.9786   -0.3982 H   0  0  0  0  0  0  0  0  0  0  0  0
   -1.2979   -5.4253    1.5872 H   0  0  0  0  0  0  0  0  0  0  0  0
   -0.4126   -5.0504    0.0997 H   0  0  0  0  0  0  0  0  0  0  0  0
    0.8865    1.3894   -2.6998 H   0  0  0  0  0  0  0  0  0  0  0  0
    5.7488    1.8359   -1.5911 H   0  0  0  0  0  0  0  0  0  0  0  0
    5.3042   -1.0385    1.4849 H   0  0  0  0  0  0  0  0  0  0  0  0
    2.9324   -1.2410    0.9283 H   0  0  0  0  0  0  0  0  0  0  0  0
    7.0901    0.1549    2.4477 H   0  0  0  0  0  0  0  0  0  0  0  0
   10.3055    1.0847   -0.1749 H   0  0  0  0  0  0  0  0  0  0  0  0
    8.0601    1.0365   -1.5912 H   0  0  0  0  0  0  0  0  0  0  0  0
   -5.0977    1.7640    2.0975 H   0  0  0  0  0  0  0  0  0  0  0  0
   -7.4784    2.2030    1.7474 H   0  0  0  0  0  0  0  0  0  0  0  0
   -8.5591    1.4154   -0.3325 H   0  0  0  0  0  0  0  0  0  0  0  0
   -7.2584    0.2433   -1.9544 H   0  0  0  0  0  0  0  0  0  0  0  0
  1  2  1  0
  2  3  1  0
  3  4  1  0
  4  5  1  0
  5  6  2  0
  6  7  1  0
  7  8  1  0
  8  9  1  0
  9 10  1  0
  9 11  2  0
  6 12  1  0
 12 13  1  0
 13 14  2  0
 14 15  1  0
 15 16  2  0
 16 17  1  0
 17 18  2  0
 18 19  1  0
 19 20  2  0
 17 21  1  0
 21 22  1  0
 22 23  2  0
 23 24  1  0
 24 25  1  0
  2 26  1  0
 26 27  2  0
 27 28  1  0
 28 29  2  0
 29 30  1  0
 30 31  2  0
 31 32  1  0
 32 33  1  0
 32 34  1  0
 32 35  1  0
  8  4  2  0
 20 12  1  0
 25 21  2  0
 31 26  1  0
 20 15  1  0
  1 36  1  0
  1 37  1  0
  1 38  1  0
  2 39  1  6
  5 40  1  0
 10 41  1  0
 10 42  1  0
 13 43  1  0
 16 44  1  0
 18 45  1  0
 19 46  1  0
 22 47  1  0
 24 48  1  0
 25 49  1  0
 27 50  1  0
 28 51  1  0
 29 52  1  0
 30 53  1  0
M  END
$$$$
[H]OC(=O)[C@@]([H])(N([H])C(=O)[C@@]([H])(N([H])C(=O)[C@]([H])(C([H])([H])S[H])C([H])([H])c1c([H])c([H])c([H])c([H])c1[H])C([H])([H])[H])C([H])([H])c1c([H])c([H])c([H])c([H])c1[H]
     RDKit          3D

 55 56  0  0  0  0  0  0  0  0999 V2000
   -0.2617    1.8614   -2.5019 C   0  0  0  0  0  0  0  0  0  0  0  0
   -0.3593    0.9738   -1.2912 C   0  0  2  0  0  0  0  0  0  0  0  0
    0.0770   -0.3774   -1.5330 N   0  0  0  0  0  0  0  0  0  0  0  0
    1.1511   -0.9994   -0.8911 C   0  0  0  0  0  0  0  0  0  0  0  0
    1.8086   -0.3744   -0.0392 O   0  0  0  0  0  0  0  0  0  0  0  0
    1.5133   -2.3988   -1.2126 C   0  0  2  0  0  0  0  0  0  0  0  0
    1.1468   -3.3564   -0.1131 C   0  0  0  0  0  0  0  0  0  0  0  0
    1.5690   -5.0365   -0.6097 S   0  0  0  0  0  0  0  0  0  0  0  0
    2.8817   -2.5822   -1.7666 C   0  0  0  0  0  0  0  0  0  0  0  0
    4.0180   -2.1229   -0.9696 C   0  0  0  0  0  0  0  0  0  0  0  0
    4.6359   -2.9050   -0.0383 C   0  0  0  0  0  0  0  0  0  0  0  0
    5.7323   -2.4291    0.6789 C   0  0  0  0  0  0  0  0  0  0  0  0
    6.2038   -1.1504    0.4479 C   0  0  0  0  0  0  0  0  0  0  0  0
    5.6091   -0.3309   -0.4823 C   0  0  0  0  0  0  0  0  0  0  0  0
    4.5432   -0.8305   -1.1608 C   0  0  0  0  0  0  0  0  0  0  0  0
   -1.7751    0.9482   -0.8730 C   0  0  0  0  0  0  0  0  0  0  0  0
   -2.3671   -0.1497   -0.7881 O   0  0  0  0  0  0  0  0  0  0  0  0
   -2.4254    2.1763   -0.5784 N   0  0  0  0  0  0  0  0  0  0  0  0
   -3.8110    2.2051   -0.1654 C   0  0  1  0  0  0  0  0  0  0  0  0
   -3.9425    2.7744    1.2521 C   0  0  0  0  0  0  0  0  0  0  0  0
   -3.1732    1.9158    2.2079 C   0  0  0  0  0  0  0  0  0  0  0  0
   -1.8529    2.2018    2.4574 C   0  0  0  0  0  0  0  0  0  0  0  0
   -1.1228    1.4133    3.3438 C   0  0  0  0  0  0  0  0  0  0  0  0
   -1.7561    0.3575    3.9501 C   0  0  0  0  0  0  0  0  0  0  0  0
   -3.0787    0.0442    3.7212 C   0  0  0  0  0  0  0  0  0  0  0  0
   -3.7824    0.8372    2.8409 C   0  0  0  0  0  0  0  0  0  0  0  0
   -4.6507    2.9531   -1.1164 C   0  0  0  0  0  0  0  0  0  0  0  0
   -6.0067    3.0859   -0.8792 O   0  0  0  0  0  0  0  0  0  0  0  0
   -4.1905    3.4914   -2.1589 O   0  0  0  0  0  0  0  0  0  0  0  0
   -0.1564    1.3250   -3.4499 H   0  0  0  0  0  0  0  0  0  0  0  0
    0.6262    2.5177   -2.4020 H   0  0  0  0  0  0  0  0  0  0  0  0
   -1.1416    2.5599   -2.5453 H   0  0  0  0  0  0  0  0  0  0  0  0
    0.3065    1.3981   -0.4836 H   0  0  0  0  0  0  0  0  0  0  0  0
   -0.4707   -0.9092   -2.2494 H   0  0  0  0  0  0  0  0  0  0  0  0
    0.8296   -2.7491   -2.0849 H   0  0  0  0  0  0  0  0  0  0  0  0
    0.0577   -3.2613    0.0897 H   0  0  0  0  0  0  0  0  0  0  0  0
    1.7143   -3.1343    0.8269 H   0  0  0  0  0  0  0  0  0  0  0  0
    0.4393   -5.8447   -0.7705 H   0  0  0  0  0  0  0  0  0  0  0  0
    2.9884   -3.6640   -2.0307 H   0  0  0  0  0  0  0  0  0  0  0  0
    2.9365   -2.0328   -2.7575 H   0  0  0  0  0  0  0  0  0  0  0  0
    4.3182   -3.9358    0.1924 H   0  0  0  0  0  0  0  0  0  0  0  0
    6.2152   -3.0643    1.4188 H   0  0  0  0  0  0  0  0  0  0  0  0
    7.0621   -0.8217    1.0313 H   0  0  0  0  0  0  0  0  0  0  0  0
    5.9978    0.6515   -0.6368 H   0  0  0  0  0  0  0  0  0  0  0  0
    4.0496   -0.2158   -1.8998 H   0  0  0  0  0  0  0  0  0  0  0  0
   -1.9299    3.1005   -0.6490 H   0  0  0  0  0  0  0  0  0  0  0  0
   -4.1862    1.1531   -0.1472 H   0  0  0  0  0  0  0  0  0  0  0  0
   -3.5519    3.8125    1.2497 H   0  0  0  0  0  0  0  0  0  0  0  0
   -5.0101    2.7158    1.5151 H   0  0  0  0  0  0  0  0  0  0  0  0
   -1.3481    3.0305    1.9843 H   0  0  0  0  0  0  0  0  0  0  0  0
   -0.0707    1.6345    3.5476 H   0  0  0  0  0  0  0  0  0  0  0  0
   -1.2045   -0.2745    4.6490 H   0  0  0  0  0  0  0  0  0  0  0  0
   -3.5657   -0.7971    4.2110 H   0  0  0  0  0  0  0  0  0  0  0  0
   -4.8388    0.6593    2.6012 H   0  0  0  0  0  0  0  0  0  0  0  0
   -6.4005    3.9503   -0.4784 H   0  0  0  0  0  0  0  0  0  0  0  0
  1  2  1  0
  2  3  1  0
  3  4  1  0
  4  5  2  0
  4  6  1  0
  6  7  1  0
  7  8  1  0
  6  9  1  0
  9 10  1  0
 10 11  2  0
 11 12  1  0
 12 13  2  0
 13 14  1  0
 14 15  2  0
  2 16  1  0
 16 17  2  0
 16 18  1  0
 18 19  1  0
 19 20  1  0
 20 21  1  0
 21 22  2  0
 22 23  1  0
 23 24  2  0
 24 25  1  0
 25 26  2  0
 19 27  1  0
 27 28  1  0
 27 29  2  0
 15 10  1  0
 26 21  1  0
  1 30  1  0
  1 31  1  0
  1 32  1  0
  2 33  1  1
  3 34  1  0
  6 35  1  6
  7 36  1  0
  7 37  1  0
  8 38  1  0
  9 39  1  0
  9 40  1  0
 11 41  1  0
 12 42  1  0
 13 43  1  0
 14 44  1  0
 15 45  1  0
 18 46  1  0
 19 47  1  1
 20 48  1  0
 20 49  1  0
 22 50  1  0
 23 51  1  0
 24 52  1  0
 25 53  1  0
 26 54  1  0
 28 55  1  0
M  END
$$$$
[H]OC(=O)c1c([H])c([H])c(-c2sc(N([H])C(=O)c3c([H])c([H])c(OC([H])([H])[H])c([H])c3[H])nc2[H])c(OC([H])([H])c2c([H])c([H])c([H])c([H])c2[H])c1[H]
     RDKit          3D

 53 56  0  0  0  0  0  0  0  0999 V2000
  -10.3334   -0.9807    0.0839 C   0  0  0  0  0  0  0  0  0  0  0  0
   -9.6614    0.1623    0.5910 O   0  0  0  0  0  0  0  0  0  0  0  0
   -8.2759    0.2068    0.4653 C   0  0  0  0  0  0  0  0  0  0  0  0
   -7.6298    1.3010    0.9505 C   0  0  0  0  0  0  0  0  0  0  0  0
   -6.2710    1.4511    0.8811 C   0  0  0  0  0  0  0  0  0  0  0  0
   -5.5148    0.4420    0.2891 C   0  0  0  0  0  0  0  0  0  0  0  0
   -6.1772   -0.6516   -0.1939 C   0  0  0  0  0  0  0  0  0  0  0  0
   -7.5508   -0.8001   -0.1222 C   0  0  0  0  0  0  0  0  0  0  0  0
   -4.0758    0.6395    0.2371 C   0  0  0  0  0  0  0  0  0  0  0  0
   -3.5655    1.6603    0.7823 O   0  0  0  0  0  0  0  0  0  0  0  0
   -3.2685   -0.2987   -0.4141 N   0  0  0  0  0  0  0  0  0  0  0  0
   -1.8363   -0.1138   -0.4727 C   0  0  0  0  0  0  0  0  0  0  0  0
   -0.9589   -0.9128   -1.0496 N   0  0  0  0  0  0  0  0  0  0  0  0
    0.3055   -0.6107   -1.0190 C   0  0  0  0  0  0  0  0  0  0  0  0
    0.6905    0.5245   -0.3911 C   0  0  0  0  0  0  0  0  0  0  0  0
   -0.8560    1.1297    0.1495 S   0  0  0  0  0  0  0  0  0  0  0  0
    1.9959    1.1694   -0.1619 C   0  0  0  0  0  0  0  0  0  0  0  0
    2.0000    2.3763    0.5538 C   0  0  0  0  0  0  0  0  0  0  0  0
    3.1915    3.0116    0.7906 C   0  0  0  0  0  0  0  0  0  0  0  0
    4.4014    2.4960    0.3421 C   0  0  0  0  0  0  0  0  0  0  0  0
    4.3999    1.3178   -0.3572 C   0  0  0  0  0  0  0  0  0  0  0  0
    3.1936    0.6726   -0.5976 C   0  0  0  0  0  0  0  0  0  0  0  0
    3.1678   -0.5118   -1.2993 O   0  0  0  0  0  0  0  0  0  0  0  0
    4.1865   -1.2524   -1.8443 C   0  0  0  0  0  0  0  0  0  0  0  0
    5.1049   -1.7270   -0.7834 C   0  0  0  0  0  0  0  0  0  0  0  0
    4.6046   -1.8665    0.5167 C   0  0  0  0  0  0  0  0  0  0  0  0
    5.3842   -2.2970    1.5387 C   0  0  0  0  0  0  0  0  0  0  0  0
    6.7032   -2.6060    1.2948 C   0  0  0  0  0  0  0  0  0  0  0  0
    7.2087   -2.4721    0.0141 C   0  0  0  0  0  0  0  0  0  0  0  0
    6.4144   -2.0349   -1.0207 C   0  0  0  0  0  0  0  0  0  0  0  0
    5.6613    3.1644    0.5906 C   0  0  0  0  0  0  0  0  0  0  0  0
    6.8399    2.6272    0.1328 O   0  0  0  0  0  0  0  0  0  0  0  0
    5.6801    4.2376    1.2255 O   0  0  0  0  0  0  0  0  0  0  0  0
  -10.2527   -0.9638   -1.0189 H   0  0  0  0  0  0  0  0  0  0  0  0
   -9.8224   -1.8600    0.5345 H   0  0  0  0  0  0  0  0  0  0  0  0
  -11.3828   -0.9838    0.4482 H   0  0  0  0  0  0  0  0  0  0  0  0
   -8.1817    2.1140    1.4213 H   0  0  0  0  0  0  0  0  0  0  0  0
   -5.7846    2.3516    1.2852 H   0  0  0  0  0  0  0  0  0  0  0  0
   -5.6268   -1.4577   -0.6600 H   0  0  0  0  0  0  0  0  0  0  0  0
   -8.0724   -1.6637   -0.5039 H   0  0  0  0  0  0  0  0  0  0  0  0
   -3.6868   -1.1325   -0.8594 H   0  0  0  0  0  0  0  0  0  0  0  0
    1.0406   -1.2918   -1.5092 H   0  0  0  0  0  0  0  0  0  0  0  0
    1.0442    2.7669    0.8980 H   0  0  0  0  0  0  0  0  0  0  0  0
    3.2117    3.9450    1.3424 H   0  0  0  0  0  0  0  0  0  0  0  0
    5.3259    0.8948   -0.7301 H   0  0  0  0  0  0  0  0  0  0  0  0
    3.7640   -2.1883   -2.3121 H   0  0  0  0  0  0  0  0  0  0  0  0
    4.7290   -0.7520   -2.6744 H   0  0  0  0  0  0  0  0  0  0  0  0
    3.5700   -1.6259    0.7134 H   0  0  0  0  0  0  0  0  0  0  0  0
    4.9966   -2.4032    2.5378 H   0  0  0  0  0  0  0  0  0  0  0  0
    7.3431   -2.9503    2.0910 H   0  0  0  0  0  0  0  0  0  0  0  0
    8.2480   -2.7190   -0.1626 H   0  0  0  0  0  0  0  0  0  0  0  0
    6.7954   -1.9267   -2.0203 H   0  0  0  0  0  0  0  0  0  0  0  0
    7.5827    2.3927    0.8025 H   0  0  0  0  0  0  0  0  0  0  0  0
  1  2  1  0
  2  3  1  0
  3  4  2  0
  4  5  1  0
  5  6  2  0
  6  7  1  0
  7  8  2  0
  6  9  1  0
  9 10  2  0
  9 11  1  0
 11 12  1  0
 12 13  2  0
 13 14  1  0
 14 15  2  0
 15 16  1  0
 15 17  1  0
 17 18  2  0
 18 19  1  0
 19 20  2  0
 20 21  1  0
 21 22  2  0
 22 23  1  0
 23 24  1  0
 24 25  1  0
 25 26  2  0
 26 27  1  0
 27 28  2  0
 28 29  1  0
 29 30  2  0
 20 31  1  0
 31 32  1  0
 31 33  2  0
  8  3  1  0
 16 12  1  0
 22 17  1  0
 30 25  1  0
  1 34  1  0
  1 35  1  0
  1 36  1  0
  4 37  1  0
  5 38  1  0
  7 39  1  0
  8 40  1  0
 11 41  1  0
 14 42  1  0
 18 43  1  0
 19 44  1  0
 21 45  1  0
 24 46  1  0
 24 47  1  0
 26 48  1  0
 27 49  1  0
 28 50  1  0
 29 51  1  0
 30 52  1  0
 32 53  1  0
M  END
$$$$
[H]c1c([H])c([H])c2c(c1[H])OC([H])([H])C(=O)N2C1([H])C([H])([H])C([H])([H])N(C(=O)c2c([H])c(OC([H])([H])[H])c(OC([H])([H])[H])c(OC([H])([H])[H])c2[H])C([H])([H])C1([H])[H]
     RDKit          3D

 57 60  0  0  0  0  0  0  0  0999 V2000
   -3.1739    2.2789    2.6073 C   0  0  0  0  0  0  0  0  0  0  0  0
   -4.2376    1.7338    1.8388 O   0  0  0  0  0  0  0  0  0  0  0  0
   -4.0259    0.6251    1.0526 C   0  0  0  0  0  0  0  0  0  0  0  0
   -2.7501    0.0257    1.0070 C   0  0  0  0  0  0  0  0  0  0  0  0
   -2.4728   -1.0794    0.2446 C   0  0  0  0  0  0  0  0  0  0  0  0
   -3.5731   -1.5688   -0.4924 C   0  0  0  0  0  0  0  0  0  0  0  0
   -4.8135   -1.0239   -0.4771 C   0  0  0  0  0  0  0  0  0  0  0  0
   -5.8564   -1.5685   -1.2379 O   0  0  0  0  0  0  0  0  0  0  0  0
   -5.6021   -2.7070   -2.0330 C   0  0  0  0  0  0  0  0  0  0  0  0
   -5.0427    0.0837    0.3026 C   0  0  0  0  0  0  0  0  0  0  0  0
   -6.3250    0.6128    0.2917 O   0  0  0  0  0  0  0  0  0  0  0  0
   -6.7496    1.6032   -0.6142 C   0  0  0  0  0  0  0  0  0  0  0  0
   -1.2158   -1.7572    0.1171 C   0  0  0  0  0  0  0  0  0  0  0  0
   -1.2218   -2.8316   -0.6517 O   0  0  0  0  0  0  0  0  0  0  0  0
    0.0441   -1.5081    0.6518 N   0  0  0  0  0  0  0  0  0  0  0  0
    1.1434   -2.4357    0.3182 C   0  0  0  0  0  0  0  0  0  0  0  0
    2.2279   -1.6787   -0.4047 C   0  0  0  0  0  0  0  0  0  0  0  0
    2.4724   -0.3121    0.2575 C   0  0  0  0  0  0  0  0  0  0  0  0
    1.9456   -0.4655    1.6622 C   0  0  0  0  0  0  0  0  0  0  0  0
    0.4047   -0.4312    1.4985 C   0  0  0  0  0  0  0  0  0  0  0  0
    3.8544   -0.0466    0.1501 N   0  0  0  0  0  0  0  0  0  0  0  0
    4.8531   -0.9231    0.6935 C   0  0  0  0  0  0  0  0  0  0  0  0
    4.5418   -1.6965    1.5972 O   0  0  0  0  0  0  0  0  0  0  0  0
    6.2316   -0.8689    0.1475 C   0  0  0  0  0  0  0  0  0  0  0  0
    6.5731    0.4884   -0.0677 O   0  0  0  0  0  0  0  0  0  0  0  0
    5.6799    1.3783   -0.6151 C   0  0  0  0  0  0  0  0  0  0  0  0
    6.1276    2.5291   -1.2681 C   0  0  0  0  0  0  0  0  0  0  0  0
    5.2775    3.4287   -1.8196 C   0  0  0  0  0  0  0  0  0  0  0  0
    3.9402    3.2136   -1.7405 C   0  0  0  0  0  0  0  0  0  0  0  0
    3.4762    2.0698   -1.0921 C   0  0  0  0  0  0  0  0  0  0  0  0
    4.3172    1.1319   -0.5186 C   0  0  0  0  0  0  0  0  0  0  0  0
   -2.3521    2.6125    1.9264 H   0  0  0  0  0  0  0  0  0  0  0  0
   -3.4906    3.1812    3.1573 H   0  0  0  0  0  0  0  0  0  0  0  0
   -2.8574    1.5055    3.3233 H   0  0  0  0  0  0  0  0  0  0  0  0
   -1.9723    0.4615    1.6070 H   0  0  0  0  0  0  0  0  0  0  0  0
   -3.4321   -2.4478   -1.1250 H   0  0  0  0  0  0  0  0  0  0  0  0
   -5.1873   -3.5142   -1.3954 H   0  0  0  0  0  0  0  0  0  0  0  0
   -4.9394   -2.4675   -2.8842 H   0  0  0  0  0  0  0  0  0  0  0  0
   -6.5759   -3.0261   -2.4929 H   0  0  0  0  0  0  0  0  0  0  0  0
   -6.7451    2.5781   -0.0551 H   0  0  0  0  0  0  0  0  0  0  0  0
   -6.0829    1.7279   -1.4735 H   0  0  0  0  0  0  0  0  0  0  0  0
   -7.7918    1.3470   -0.9180 H   0  0  0  0  0  0  0  0  0  0  0  0
    0.7695   -3.1893   -0.4293 H   0  0  0  0  0  0  0  0  0  0  0  0
    1.4814   -2.9912    1.1958 H   0  0  0  0  0  0  0  0  0  0  0  0
    1.9002   -1.4778   -1.4408 H   0  0  0  0  0  0  0  0  0  0  0  0
    3.1469   -2.2911   -0.3906 H   0  0  0  0  0  0  0  0  0  0  0  0
    1.8573    0.4505   -0.2189 H   0  0  0  0  0  0  0  0  0  0  0  0
    2.2012   -1.3981    2.1504 H   0  0  0  0  0  0  0  0  0  0  0  0
    2.1578    0.4451    2.2831 H   0  0  0  0  0  0  0  0  0  0  0  0
   -0.0414   -0.4425    2.5137 H   0  0  0  0  0  0  0  0  0  0  0  0
    0.2311    0.5597    0.9833 H   0  0  0  0  0  0  0  0  0  0  0  0
    6.2526   -1.3906   -0.8201 H   0  0  0  0  0  0  0  0  0  0  0  0
    6.9688   -1.3448    0.8098 H   0  0  0  0  0  0  0  0  0  0  0  0
    7.2009    2.6703   -1.3130 H   0  0  0  0  0  0  0  0  0  0  0  0
    5.6206    4.3215   -2.3264 H   0  0  0  0  0  0  0  0  0  0  0  0
    3.2163    3.8963   -2.1618 H   0  0  0  0  0  0  0  0  0  0  0  0
    2.4136    1.9238   -1.0434 H   0  0  0  0  0  0  0  0  0  0  0  0
  1  2  1  0
  2  3  1  0
  3  4  2  0
  4  5  1  0
  5  6  2  0
  6  7  1  0
  7  8  1  0
  8  9  1  0
  7 10  2  0
 10 11  1  0
 11 12  1  0
  5 13  1  0
 13 14  2  0
 13 15  1  0
 15 16  1  0
 16 17  1  0
 17 18  1  0
 18 19  1  0
 19 20  1  0
 18 21  1  0
 21 22  1  0
 22 23  2  0
 22 24  1  0
 24 25  1  0
 25 26  1  0
 26 27  2  0
 27 28  1  0
 28 29  2  0
 29 30  1  0
 30 31  2  0
 10  3  1  0
 20 15  1  0
 31 21  1  0
 31 26  1  0
  1 32  1  0
  1 33  1  0
  1 34  1  0
  4 35  1  0
  6 36  1  0
  9 37  1  0
  9 38  1  0
  9 39  1  0
 12 40  1  0
 12 41  1  0
 12 42  1  0
 16 43  1  0
 16 44  1  0
 17 45  1  0
 17 46  1  0
 18 47  1  0
 19 48  1  0
 19 49  1  0
 20 50  1  0
 20 51  1  0
 24 52  1  0
 24 53  1  0
 27 54  1  0
 28 55  1  0
 29 56  1  0
 30 57  1  0
M  END
$$$$
[H]c1c([H])c([H])c(C2(C(=O)N3C([H])([H])C([H])([H])C([H])([H])C([H])([H])C3([H])[H])C([H])([H])C([H])([H])N(C([H])([H])C([H])([H])[C@@]3(c4c([H])c([H])c(F)c([H])c4[H])C([H])([H])N(C(=O)c4c([H])c(OC([H])([H])[H])c(OC([H])([H])[H])c(OC([H])([H])[H])c4[H])C([H])([H])C3([H])[H])C([H])([H])C2([H])[H])c([H])c1[H]
     RDKit          3D

 96101  0  0  0  0  0  0  0  0999 V2000
    7.0821    3.7402   -3.2476 C   0  0  0  0  0  0  0  0  0  0  0  0
    7.4820    3.7475   -1.9077 O   0  0  0  0  0  0  0  0  0  0  0  0
    6.9720    2.8750   -0.9358 C   0  0  0  0  0  0  0  0  0  0  0  0
    6.0285    1.9550   -1.3134 C   0  0  0  0  0  0  0  0  0  0  0  0
    5.4824    1.0561   -0.3774 C   0  0  0  0  0  0  0  0  0  0  0  0
    5.9274    1.1390    0.9116 C   0  0  0  0  0  0  0  0  0  0  0  0
    6.8886    2.0801    1.2826 C   0  0  0  0  0  0  0  0  0  0  0  0
    7.2840    2.1001    2.6035 O   0  0  0  0  0  0  0  0  0  0  0  0
    6.8828    1.3200    3.6670 C   0  0  0  0  0  0  0  0  0  0  0  0
    7.4131    2.9507    0.3575 C   0  0  0  0  0  0  0  0  0  0  0  0
    8.3630    3.8737    0.7428 O   0  0  0  0  0  0  0  0  0  0  0  0
    9.7317    3.4760    0.6327 C   0  0  0  0  0  0  0  0  0  0  0  0
    4.5422    0.1002   -0.8747 C   0  0  0  0  0  0  0  0  0  0  0  0
    4.3950    0.0820   -2.1783 O   0  0  0  0  0  0  0  0  0  0  0  0
    3.7735   -0.8065   -0.1479 N   0  0  0  0  0  0  0  0  0  0  0  0
    3.5862   -1.0971    1.2394 C   0  0  0  0  0  0  0  0  0  0  0  0
    2.3463   -1.9702    1.3521 C   0  0  0  0  0  0  0  0  0  0  0  0
    1.7337   -1.8758    0.0024 C   0  0  1  0  0  0  0  0  0  0  0  0
    0.9443   -0.6205   -0.1767 C   0  0  0  0  0  0  0  0  0  0  0  0
   -0.2243   -0.4140    0.7092 C   0  0  0  0  0  0  0  0  0  0  0  0
   -1.2554   -1.4038    0.5078 N   0  0  0  0  0  0  0  0  0  0  0  0
   -2.2904   -1.3726    1.5375 C   0  0  0  0  0  0  0  0  0  0  0  0
   -3.6196   -1.8683    0.9439 C   0  0  0  0  0  0  0  0  0  0  0  0
   -4.1988   -0.6674    0.1614 C   0  0  0  0  0  0  0  0  0  0  0  0
   -2.9773   -0.0217   -0.4616 C   0  0  0  0  0  0  0  0  0  0  0  0
   -1.9597   -1.0777   -0.7471 C   0  0  0  0  0  0  0  0  0  0  0  0
   -4.8117    0.2036    1.1905 C   0  0  0  0  0  0  0  0  0  0  0  0
   -4.9012   -0.2437    2.4078 O   0  0  0  0  0  0  0  0  0  0  0  0
   -5.3293    1.5110    1.0039 N   0  0  0  0  0  0  0  0  0  0  0  0
   -5.9171    2.1326    2.1782 C   0  0  0  0  0  0  0  0  0  0  0  0
   -6.7370    3.3346    1.9654 C   0  0  0  0  0  0  0  0  0  0  0  0
   -7.1848    3.4739    0.5556 C   0  0  0  0  0  0  0  0  0  0  0  0
   -6.0332    3.4293   -0.3914 C   0  0  0  0  0  0  0  0  0  0  0  0
   -5.2279    2.1521   -0.2677 C   0  0  0  0  0  0  0  0  0  0  0  0
   -5.1366   -1.1869   -0.8258 C   0  0  0  0  0  0  0  0  0  0  0  0
   -6.3681   -1.6294   -0.3291 C   0  0  0  0  0  0  0  0  0  0  0  0
   -7.2958   -2.1437   -1.1999 C   0  0  0  0  0  0  0  0  0  0  0  0
   -7.0654   -2.2446   -2.5649 C   0  0  0  0  0  0  0  0  0  0  0  0
   -5.8501   -1.8058   -3.0414 C   0  0  0  0  0  0  0  0  0  0  0  0
   -4.9063   -1.2873   -2.1818 C   0  0  0  0  0  0  0  0  0  0  0  0
    2.9310   -1.7941   -0.9081 C   0  0  0  0  0  0  0  0  0  0  0  0
    1.0206   -3.1259   -0.3787 C   0  0  0  0  0  0  0  0  0  0  0  0
    0.4821   -4.0256    0.4976 C   0  0  0  0  0  0  0  0  0  0  0  0
   -0.1484   -5.1827    0.0536 C   0  0  0  0  0  0  0  0  0  0  0  0
   -0.2382   -5.4408   -1.2963 C   0  0  0  0  0  0  0  0  0  0  0  0
   -0.8568   -6.5821   -1.7516 F   0  0  0  0  0  0  0  0  0  0  0  0
    0.2953   -4.5529   -2.1876 C   0  0  0  0  0  0  0  0  0  0  0  0
    0.9206   -3.4028   -1.7283 C   0  0  0  0  0  0  0  0  0  0  0  0
    5.9694    3.6615   -3.3680 H   0  0  0  0  0  0  0  0  0  0  0  0
    7.5126    2.8926   -3.8247 H   0  0  0  0  0  0  0  0  0  0  0  0
    7.3568    4.6995   -3.7357 H   0  0  0  0  0  0  0  0  0  0  0  0
    5.7012    1.9309   -2.3676 H   0  0  0  0  0  0  0  0  0  0  0  0
    5.5357    0.4594    1.6448 H   0  0  0  0  0  0  0  0  0  0  0  0
    6.2640    0.4336    3.4431 H   0  0  0  0  0  0  0  0  0  0  0  0
    7.8128    0.8777    4.1454 H   0  0  0  0  0  0  0  0  0  0  0  0
    6.3964    1.9148    4.4843 H   0  0  0  0  0  0  0  0  0  0  0  0
   10.2551    4.2594    0.0324 H   0  0  0  0  0  0  0  0  0  0  0  0
    9.8226    2.5222    0.0367 H   0  0  0  0  0  0  0  0  0  0  0  0
   10.1473    3.3151    1.6306 H   0  0  0  0  0  0  0  0  0  0  0  0
    4.4576   -1.5965    1.7166 H   0  0  0  0  0  0  0  0  0  0  0  0
    3.3267   -0.1590    1.8230 H   0  0  0  0  0  0  0  0  0  0  0  0
    1.6777   -1.6678    2.1780 H   0  0  0  0  0  0  0  0  0  0  0  0
    2.7005   -3.0022    1.5493 H   0  0  0  0  0  0  0  0  0  0  0  0
    1.6914    0.2142    0.0834 H   0  0  0  0  0  0  0  0  0  0  0  0
    0.7132   -0.4738   -1.2213 H   0  0  0  0  0  0  0  0  0  0  0  0
    0.0605   -0.3354    1.7882 H   0  0  0  0  0  0  0  0  0  0  0  0
   -0.6073    0.6274    0.4793 H   0  0  0  0  0  0  0  0  0  0  0  0
   -2.4595   -0.3890    1.9749 H   0  0  0  0  0  0  0  0  0  0  0  0
   -2.0373   -2.1041    2.3321 H   0  0  0  0  0  0  0  0  0  0  0  0
   -3.4372   -2.7348    0.3369 H   0  0  0  0  0  0  0  0  0  0  0  0
   -4.2709   -2.1405    1.7899 H   0  0  0  0  0  0  0  0  0  0  0  0
   -2.6045    0.7101    0.2752 H   0  0  0  0  0  0  0  0  0  0  0  0
   -3.2458    0.5633   -1.3691 H   0  0  0  0  0  0  0  0  0  0  0  0
   -2.3756   -2.0180   -1.1657 H   0  0  0  0  0  0  0  0  0  0  0  0
   -1.1755   -0.7325   -1.4571 H   0  0  0  0  0  0  0  0  0  0  0  0
   -5.0962    2.3884    2.9024 H   0  0  0  0  0  0  0  0  0  0  0  0
   -6.5066    1.3425    2.7334 H   0  0  0  0  0  0  0  0  0  0  0  0
   -6.2454    4.2792    2.3165 H   0  0  0  0  0  0  0  0  0  0  0  0
   -7.6605    3.2574    2.5978 H   0  0  0  0  0  0  0  0  0  0  0  0
   -7.6393    4.4956    0.4539 H   0  0  0  0  0  0  0  0  0  0  0  0
   -7.9903    2.7701    0.2875 H   0  0  0  0  0  0  0  0  0  0  0  0
   -6.4643    3.4567   -1.4353 H   0  0  0  0  0  0  0  0  0  0  0  0
   -5.4356    4.3466   -0.3091 H   0  0  0  0  0  0  0  0  0  0  0  0
   -4.1543    2.4973   -0.3661 H   0  0  0  0  0  0  0  0  0  0  0  0
   -5.4139    1.5093   -1.1441 H   0  0  0  0  0  0  0  0  0  0  0  0
   -6.6206   -1.5842    0.7174 H   0  0  0  0  0  0  0  0  0  0  0  0
   -8.2600   -2.4953   -0.8474 H   0  0  0  0  0  0  0  0  0  0  0  0
   -7.8066   -2.6546   -3.2558 H   0  0  0  0  0  0  0  0  0  0  0  0
   -5.6449   -1.8723   -4.1035 H   0  0  0  0  0  0  0  0  0  0  0  0
   -3.9565   -0.9395   -2.5530 H   0  0  0  0  0  0  0  0  0  0  0  0
    2.7018   -1.4182   -1.9093 H   0  0  0  0  0  0  0  0  0  0  0  0
    3.5177   -2.7425   -0.9027 H   0  0  0  0  0  0  0  0  0  0  0  0
    0.5518   -3.8273    1.5399 H   0  0  0  0  0  0  0  0  0  0  0  0
   -0.5882   -5.9206    0.7062 H   0  0  0  0  0  0  0  0  0  0  0  0
    0.2333   -4.7473   -3.2443 H   0  0  0  0  0  0  0  0  0  0  0  0
    1.3161   -2.7576   -2.5026 H   0  0  0  0  0  0  0  0  0  0  0  0
  1  2  1  0
  2  3  1  0
  3  4  2  0
  4  5  1  0
  5  6  2  0
  6  7  1  0
  7  8  1  0
  8  9  1  0
  7 10  2  0
 10 11  1  0
 11 12  1  0
  5 13  1  0
 13 14  2  0
 13 15  1  0
 15 16  1  0
 16 17  1  0
 17 18  1  0
 18 19  1  1
 19 20  1  0
 20 21  1  0
 21 22  1  0
 22 23  1  0
 23 24  1  0
 24 25  1  0
 25 26  1  0
 24 27  1  0
 27 28  2  0
 27 29  1  0
 29 30  1  0
 30 31  1  0
 31 32  1  0
 32 33  1  0
 33 34  1  0
 24 35  1  0
 35 36  2  0
 36 37  1  0
 37 38  2  0
 38 39  1  0
 39 40  2  0
 18 41  1  0
 18 42  1  0
 42 43  2  0
 43 44  1  0
 44 45  2  0
 45 46  1  0
 45 47  1  0
 47 48  2  0
 10  3  1  0
 41 15  1  0
 48 42  1  0
 26 21  1  0
 34 29  1  0
 40 35  1  0
  1 49  1  0
  1 50  1  0
  1 51  1  0
  4 52  1  0
  6 53  1  0
  9 54  1  0
  9 55  1  0
  9 56  1  0
 12 57  1  0
 12 58  1  0
 12 59  1  0
 16 60  1  0
 16 61  1  0
 17 62  1  0
 17 63  1  0
 19 64  1  0
 19 65  1  0
 20 66  1  0
 20 67  1  0
 22 68  1  0
 22 69  1  0
 23 70  1  0
 23 71  1  0
 25 72  1  0
 25 73  1  0
 26 74  1  0
 26 75  1  0
 30 76  1  0
 30 77  1  0
 31 78  1  0
 31 79  1  0
 32 80  1  0
 32 81  1  0
 33 82  1  0
 33 83  1  0
 34 84  1  0
 34 85  1  0
 36 86  1  0
 37 87  1  0
 38 88  1  0
 39 89  1  0
 40 90  1  0
 41 91  1  0
 41 92  1  0
 43 93  1  0
 44 94  1  0
 47 95  1  0
 48 96  1  0
M  END
$$$$
[H]OC(=O)[C@@]([H])(N([H])C(=O)[C@@]([H])(N([H])C(=O)[C@@]([H])(N([H])C(=O)[C@@]([H])(N([H])C(=O)[C@@]([H])(N([H])C(=O)[C@@]([H])(N([H])C(=O)c1c(O[H])c2c([H])c([H])c([H])c([H])c2n1[H])C([H])([H])c1c([H])c([H])c([H])c([H])c1[H])C([H])([H])C([H])(C([H])([H])[H])C([H])([H])[H])C([H])(C([H])([H])[H])C([H])([H])[H])C([H])(C([H])([H])[H])C([H])([H])[H])C([H])(C([H])([H])[H])C([H])([H])[H])C([H])([H])c1c([H])c([H])c([H])c([H])c1[H]
     RDKit          3D

127130  0  0  0  0  0  0  0  0999 V2000
   -3.8652   -3.4409   -2.7483 C   0  0  0  0  0  0  0  0  0  0  0  0
   -4.0395   -3.4049   -1.1941 C   0  0  0  0  0  0  0  0  0  0  0  0
   -5.4908   -3.6394   -0.9876 C   0  0  0  0  0  0  0  0  0  0  0  0
   -3.4521   -2.1353   -0.7677 C   0  0  0  0  0  0  0  0  0  0  0  0
   -3.3893   -1.6971    0.6280 C   0  0  2  0  0  0  0  0  0  0  0  0
   -4.5961   -1.4884    1.3383 N   0  0  0  0  0  0  0  0  0  0  0  0
   -5.6763   -0.7016    0.8892 C   0  0  0  0  0  0  0  0  0  0  0  0
   -5.5710   -0.1711   -0.2721 O   0  0  0  0  0  0  0  0  0  0  0  0
   -6.8999   -0.4163    1.6102 C   0  0  2  0  0  0  0  0  0  0  0  0
   -7.5215   -1.3168    2.5707 C   0  0  0  0  0  0  0  0  0  0  0  0
   -7.9745   -2.6428    2.2282 C   0  0  0  0  0  0  0  0  0  0  0  0
   -7.2452   -3.7568    2.5501 C   0  0  0  0  0  0  0  0  0  0  0  0
   -7.6385   -5.0375    2.2490 C   0  0  0  0  0  0  0  0  0  0  0  0
   -8.8305   -5.2576    1.5838 C   0  0  0  0  0  0  0  0  0  0  0  0
   -9.5756   -4.1622    1.2516 C   0  0  0  0  0  0  0  0  0  0  0  0
   -9.1786   -2.8807    1.5554 C   0  0  0  0  0  0  0  0  0  0  0  0
   -7.8798    0.3032    0.7773 N   0  0  0  0  0  0  0  0  0  0  0  0
   -8.1336    1.6707    0.9569 C   0  0  0  0  0  0  0  0  0  0  0  0
   -7.5399    2.3356    1.8376 O   0  0  0  0  0  0  0  0  0  0  0  0
   -9.1048    2.3578    0.1083 C   0  0  0  0  0  0  0  0  0  0  0  0
   -9.8324    1.8035   -0.8842 N   0  0  0  0  0  0  0  0  0  0  0  0
  -10.6185    2.7220   -1.4563 C   0  0  0  0  0  0  0  0  0  0  0  0
  -11.5429    2.6629   -2.5081 C   0  0  0  0  0  0  0  0  0  0  0  0
  -12.2229    3.7938   -2.8972 C   0  0  0  0  0  0  0  0  0  0  0  0
  -11.9986    4.9915   -2.2563 C   0  0  0  0  0  0  0  0  0  0  0  0
  -11.0793    5.0361   -1.2133 C   0  0  0  0  0  0  0  0  0  0  0  0
  -10.4049    3.9121   -0.8277 C   0  0  0  0  0  0  0  0  0  0  0  0
   -9.4485    3.6887    0.1631 C   0  0  0  0  0  0  0  0  0  0  0  0
   -9.0026    4.6889    0.9889 O   0  0  0  0  0  0  0  0  0  0  0  0
   -2.5615   -0.4164    0.6273 C   0  0  0  0  0  0  0  0  0  0  0  0
   -3.1095    0.6535    0.9348 O   0  0  0  0  0  0  0  0  0  0  0  0
   -1.2132   -0.5939    0.2651 N   0  0  0  0  0  0  0  0  0  0  0  0
   -0.2386    0.5138    0.1669 C   0  0  1  0  0  0  0  0  0  0  0  0
    0.0936    0.9240    1.6311 C   0  0  0  0  0  0  0  0  0  0  0  0
    0.6859   -0.2204    2.3819 C   0  0  0  0  0  0  0  0  0  0  0  0
    1.0311    2.0933    1.5601 C   0  0  0  0  0  0  0  0  0  0  0  0
    0.9579    0.0198   -0.4934 C   0  0  0  0  0  0  0  0  0  0  0  0
    1.0700   -1.2493   -0.6181 O   0  0  0  0  0  0  0  0  0  0  0  0
    2.0283    0.7970   -1.0176 N   0  0  0  0  0  0  0  0  0  0  0  0
    3.1863    0.0925   -1.6089 C   0  0  1  0  0  0  0  0  0  0  0  0
    3.0958    0.2535   -3.1017 C   0  0  0  0  0  0  0  0  0  0  0  0
    3.1472    1.6849   -3.5069 C   0  0  0  0  0  0  0  0  0  0  0  0
    4.0760   -0.6220   -3.8278 C   0  0  0  0  0  0  0  0  0  0  0  0
    4.4439    0.6615   -1.0578 C   0  0  0  0  0  0  0  0  0  0  0  0
    4.4667    1.9297   -0.9689 O   0  0  0  0  0  0  0  0  0  0  0  0
    5.5347   -0.1409   -0.6546 N   0  0  0  0  0  0  0  0  0  0  0  0
    6.7464    0.3933   -0.1203 C   0  0  1  0  0  0  0  0  0  0  0  0
    6.7125    0.4579    1.4044 C   0  0  0  0  0  0  0  0  0  0  0  0
    6.5174   -0.8558    2.0675 C   0  0  0  0  0  0  0  0  0  0  0  0
    5.8298    1.5712    1.8887 C   0  0  0  0  0  0  0  0  0  0  0  0
    7.9536   -0.3158   -0.5823 C   0  0  0  0  0  0  0  0  0  0  0  0
    7.8532   -1.2782   -1.3930 O   0  0  0  0  0  0  0  0  0  0  0  0
    9.2658    0.0194   -0.1601 N   0  0  0  0  0  0  0  0  0  0  0  0
   10.4417   -0.6899   -0.6135 C   0  0  1  0  0  0  0  0  0  0  0  0
   11.4796    0.2041   -1.1995 C   0  0  0  0  0  0  0  0  0  0  0  0
   11.9797    1.2255   -0.2706 C   0  0  0  0  0  0  0  0  0  0  0  0
   13.0465    0.9827    0.5543 C   0  0  0  0  0  0  0  0  0  0  0  0
   13.4817    1.9805    1.4156 C   0  0  0  0  0  0  0  0  0  0  0  0
   12.8593    3.2085    1.4534 C   0  0  0  0  0  0  0  0  0  0  0  0
   11.7903    3.4231    0.6126 C   0  0  0  0  0  0  0  0  0  0  0  0
   11.3594    2.4387   -0.2386 C   0  0  0  0  0  0  0  0  0  0  0  0
   10.9605   -1.5944    0.4545 C   0  0  0  0  0  0  0  0  0  0  0  0
   12.0683   -2.4066    0.2710 O   0  0  0  0  0  0  0  0  0  0  0  0
   10.4050   -1.6621    1.5909 O   0  0  0  0  0  0  0  0  0  0  0  0
   -4.4078   -2.5438   -3.0951 H   0  0  0  0  0  0  0  0  0  0  0  0
   -4.3232   -4.3744   -3.0763 H   0  0  0  0  0  0  0  0  0  0  0  0
   -2.8014   -3.3190   -2.9564 H   0  0  0  0  0  0  0  0  0  0  0  0
   -3.4820   -4.3130   -0.8699 H   0  0  0  0  0  0  0  0  0  0  0  0
   -5.7325   -4.5977   -1.5446 H   0  0  0  0  0  0  0  0  0  0  0  0
   -5.7867   -3.8094    0.0314 H   0  0  0  0  0  0  0  0  0  0  0  0
   -6.0526   -2.8619   -1.5488 H   0  0  0  0  0  0  0  0  0  0  0  0
   -3.8494   -1.3300   -1.4643 H   0  0  0  0  0  0  0  0  0  0  0  0
   -2.3563   -2.1735   -1.1263 H   0  0  0  0  0  0  0  0  0  0  0  0
   -2.7581   -2.3839    1.2681 H   0  0  0  0  0  0  0  0  0  0  0  0
   -4.7300   -1.9494    2.3186 H   0  0  0  0  0  0  0  0  0  0  0  0
   -6.5471    0.4877    2.3083 H   0  0  0  0  0  0  0  0  0  0  0  0
   -6.8672   -1.3462    3.5181 H   0  0  0  0  0  0  0  0  0  0  0  0
   -8.4371   -0.7532    2.9896 H   0  0  0  0  0  0  0  0  0  0  0  0
   -6.3084   -3.6231    3.0710 H   0  0  0  0  0  0  0  0  0  0  0  0
   -7.0036   -5.8814    2.5385 H   0  0  0  0  0  0  0  0  0  0  0  0
   -9.1076   -6.2846    1.3633 H   0  0  0  0  0  0  0  0  0  0  0  0
  -10.5099   -4.3428    0.7271 H   0  0  0  0  0  0  0  0  0  0  0  0
   -9.8220   -2.0612    1.2573 H   0  0  0  0  0  0  0  0  0  0  0  0
   -8.3955   -0.2179    0.0396 H   0  0  0  0  0  0  0  0  0  0  0  0
   -9.7886    0.7993   -1.1673 H   0  0  0  0  0  0  0  0  0  0  0  0
  -11.7052    1.7268   -2.9923 H   0  0  0  0  0  0  0  0  0  0  0  0
  -12.9529    3.7478   -3.7192 H   0  0  0  0  0  0  0  0  0  0  0  0
  -12.5241    5.8746   -2.5510 H   0  0  0  0  0  0  0  0  0  0  0  0
  -10.9212    5.9748   -0.7290 H   0  0  0  0  0  0  0  0  0  0  0  0
   -8.3312    4.6290    1.7157 H   0  0  0  0  0  0  0  0  0  0  0  0
   -0.8420   -1.5369    0.0522 H   0  0  0  0  0  0  0  0  0  0  0  0
   -0.7618    1.3819   -0.2202 H   0  0  0  0  0  0  0  0  0  0  0  0
   -0.8413    1.2552    2.1071 H   0  0  0  0  0  0  0  0  0  0  0  0
    0.3859   -0.1082    3.4523 H   0  0  0  0  0  0  0  0  0  0  0  0
    1.7968   -0.1769    2.3328 H   0  0  0  0  0  0  0  0  0  0  0  0
    0.2909   -1.1842    2.0000 H   0  0  0  0  0  0  0  0  0  0  0  0
    0.7310    2.8409    0.8271 H   0  0  0  0  0  0  0  0  0  0  0  0
    1.0679    2.5976    2.5793 H   0  0  0  0  0  0  0  0  0  0  0  0
    2.0651    1.7631    1.3492 H   0  0  0  0  0  0  0  0  0  0  0  0
    1.9542    1.8273   -0.9722 H   0  0  0  0  0  0  0  0  0  0  0  0
    3.1200   -0.9785   -1.3927 H   0  0  0  0  0  0  0  0  0  0  0  0
    2.0718   -0.1226   -3.4144 H   0  0  0  0  0  0  0  0  0  0  0  0
    4.1849    2.0174   -3.7607 H   0  0  0  0  0  0  0  0  0  0  0  0
    2.7616    2.3476   -2.7151 H   0  0  0  0  0  0  0  0  0  0  0  0
    2.4621    1.8655   -4.3879 H   0  0  0  0  0  0  0  0  0  0  0  0
    3.5923   -1.2884   -4.5992 H   0  0  0  0  0  0  0  0  0  0  0  0
    4.7761    0.0099   -4.3997 H   0  0  0  0  0  0  0  0  0  0  0  0
    4.6370   -1.3050   -3.1640 H   0  0  0  0  0  0  0  0  0  0  0  0
    5.4221   -1.1802   -0.7629 H   0  0  0  0  0  0  0  0  0  0  0  0
    6.8172    1.4630   -0.4317 H   0  0  0  0  0  0  0  0  0  0  0  0
    7.7638    0.7884    1.6776 H   0  0  0  0  0  0  0  0  0  0  0  0
    7.4944   -1.3702    2.3039 H   0  0  0  0  0  0  0  0  0  0  0  0
    5.9374   -1.5831    1.4881 H   0  0  0  0  0  0  0  0  0  0  0  0
    6.0872   -0.6587    3.0864 H   0  0  0  0  0  0  0  0  0  0  0  0
    6.1484    2.4849    1.3052 H   0  0  0  0  0  0  0  0  0  0  0  0
    6.0894    1.8594    2.9495 H   0  0  0  0  0  0  0  0  0  0  0  0
    4.7596    1.3842    1.8577 H   0  0  0  0  0  0  0  0  0  0  0  0
    9.3888    0.8045    0.4975 H   0  0  0  0  0  0  0  0  0  0  0  0
   10.0950   -1.3933   -1.4216 H   0  0  0  0  0  0  0  0  0  0  0  0
   12.3766   -0.3595   -1.5666 H   0  0  0  0  0  0  0  0  0  0  0  0
   11.0291    0.6566   -2.1204 H   0  0  0  0  0  0  0  0  0  0  0  0
   13.5803    0.0337    0.5667 H   0  0  0  0  0  0  0  0  0  0  0  0
   14.3180    1.8317    2.0853 H   0  0  0  0  0  0  0  0  0  0  0  0
   13.2050    4.0027    2.1367 H   0  0  0  0  0  0  0  0  0  0  0  0
   11.2987    4.4097    0.6510 H   0  0  0  0  0  0  0  0  0  0  0  0
   10.5158    2.6636   -0.8769 H   0  0  0  0  0  0  0  0  0  0  0  0
   12.0303   -3.4168    0.2988 H   0  0  0  0  0  0  0  0  0  0  0  0
  1  2  1  0
  2  3  1  0
  2  4  1  0
  4  5  1  0
  5  6  1  0
  6  7  1  0
  7  8  2  0
  7  9  1  0
  9 10  1  0
 10 11  1  0
 11 12  2  0
 12 13  1  0
 13 14  2  0
 14 15  1  0
 15 16  2  0
  9 17  1  0
 17 18  1  0
 18 19  2  0
 18 20  1  0
 20 21  1  0
 21 22  1  0
 22 23  2  0
 23 24  1  0
 24 25  2  0
 25 26  1  0
 26 27  2  0
 27 28  1  0
 28 29  1  0
  5 30  1  0
 30 31  2  0
 30 32  1  0
 32 33  1  0
 33 34  1  0
 34 35  1  0
 34 36  1  0
 33 37  1  0
 37 38  2  0
 37 39  1  0
 39 40  1  0
 40 41  1  0
 41 42  1  0
 41 43  1  0
 40 44  1  0
 44 45  2  0
 44 46  1  0
 46 47  1  0
 47 48  1  0
 48 49  1  0
 48 50  1  0
 47 51  1  0
 51 52  2  0
 51 53  1  0
 53 54  1  0
 54 55  1  0
 55 56  1  0
 56 57  2  0
 57 58  1  0
 58 59  2  0
 59 60  1  0
 60 61  2  0
 54 62  1  0
 62 63  1  0
 62 64  2  0
 16 11  1  0
 28 20  2  0
 61 56  1  0
 27 22  1  0
  1 65  1  0
  1 66  1  0
  1 67  1  0
  2 68  1  0
  3 69  1  0
  3 70  1  0
  3 71  1  0
  4 72  1  0
  4 73  1  0
  5 74  1  1
  6 75  1  0
  9 76  1  1
 10 77  1  0
 10 78  1  0
 12 79  1  0
 13 80  1  0
 14 81  1  0
 15 82  1  0
 16 83  1  0
 17 84  1  0
 21 85  1  0
 23 86  1  0
 24 87  1  0
 25 88  1  0
 26 89  1  0
 29 90  1  0
 32 91  1  0
 33 92  1  6
 34 93  1  0
 35 94  1  0
 35 95  1  0
 35 96  1  0
 36 97  1  0
 36 98  1  0
 36 99  1  0
 39100  1  0
 40101  1  6
 41102  1  0
 42103  1  0
 42104  1  0
 42105  1  0
 43106  1  0
 43107  1  0
 43108  1  0
 46109  1  0
 47110  1  6
 48111  1  0
 49112  1  0
 49113  1  0
 49114  1  0
 50115  1  0
 50116  1  0
 50117  1  0
 53118  1  0
 54119  1  6
 55120  1  0
 55121  1  0
 57122  1  0
 58123  1  0
 59124  1  0
 60125  1  0
 61126  1  0
 63127  1  0
M  END
$$$$
[H]N=C(N([H])[H])N([H])C([H])([H])C([H])([H])C([H])([H])[C@@]([H])(C(=O)c1nc2c([H])c([H])c([H])c([H])c2s1)N([H])C(=O)[C@@]([H])(N([H])C(=O)C([H])([H])[H])C([H])([H])C([H])([H])C([H])([H])N([H])C(=N[H])N([H])[H]
     RDKit          3D

 65 66  0  0  0  0  0  0  0  0999 V2000
    4.4208    4.2913   -1.1393 C   0  0  0  0  0  0  0  0  0  0  0  0
    4.0050    2.8624   -1.2099 C   0  0  0  0  0  0  0  0  0  0  0  0
    4.5087    2.1945   -2.1720 O   0  0  0  0  0  0  0  0  0  0  0  0
    3.1153    2.3086   -0.2655 N   0  0  0  0  0  0  0  0  0  0  0  0
    2.6574    0.9430   -0.2537 C   0  0  1  0  0  0  0  0  0  0  0  0
    2.8669    0.2277    1.0300 C   0  0  0  0  0  0  0  0  0  0  0  0
    4.3177    0.1529    1.4427 C   0  0  0  0  0  0  0  0  0  0  0  0
    5.1629   -0.5984    0.4431 C   0  0  0  0  0  0  0  0  0  0  0  0
    4.7470   -1.9566    0.2441 N   0  0  0  0  0  0  0  0  0  0  0  0
    4.8440   -2.9769    1.2282 C   0  0  0  0  0  0  0  0  0  0  0  0
    6.0441   -3.2783    1.9138 N   0  0  0  0  0  0  0  0  0  0  0  0
    3.7876   -3.6611    1.5059 N   0  0  0  0  0  0  0  0  0  0  0  0
    1.1963    0.9777   -0.5573 C   0  0  0  0  0  0  0  0  0  0  0  0
    0.6933    1.9933   -1.1578 O   0  0  0  0  0  0  0  0  0  0  0  0
    0.3174   -0.0675   -0.2088 N   0  0  0  0  0  0  0  0  0  0  0  0
   -1.1103    0.0944   -0.5787 C   0  0  1  0  0  0  0  0  0  0  0  0
   -1.5558   -1.1938   -1.2722 C   0  0  0  0  0  0  0  0  0  0  0  0
   -2.9851   -1.0969   -1.6856 C   0  0  0  0  0  0  0  0  0  0  0  0
   -3.5545   -2.2617   -2.4203 C   0  0  0  0  0  0  0  0  0  0  0  0
   -3.5315   -3.4786   -1.6842 N   0  0  0  0  0  0  0  0  0  0  0  0
   -2.4155   -4.2798   -1.3482 C   0  0  0  0  0  0  0  0  0  0  0  0
   -1.3822   -4.4860   -2.2985 N   0  0  0  0  0  0  0  0  0  0  0  0
   -2.3635   -4.8337   -0.1668 N   0  0  0  0  0  0  0  0  0  0  0  0
   -1.8021    0.2770    0.7234 C   0  0  0  0  0  0  0  0  0  0  0  0
   -1.4223   -0.3557    1.7244 O   0  0  0  0  0  0  0  0  0  0  0  0
   -2.9332    1.2190    0.7969 C   0  0  0  0  0  0  0  0  0  0  0  0
   -3.6745    1.4932    1.8588 N   0  0  0  0  0  0  0  0  0  0  0  0
   -4.6357    2.3747    1.7702 C   0  0  0  0  0  0  0  0  0  0  0  0
   -5.5014    2.7642    2.8222 C   0  0  0  0  0  0  0  0  0  0  0  0
   -6.4579    3.7041    2.5618 C   0  0  0  0  0  0  0  0  0  0  0  0
   -6.6795    4.3247    1.3783 C   0  0  0  0  0  0  0  0  0  0  0  0
   -5.8243    3.9458    0.3239 C   0  0  0  0  0  0  0  0  0  0  0  0
   -4.8337    2.9828    0.5621 C   0  0  0  0  0  0  0  0  0  0  0  0
   -3.6080    2.2414   -0.3869 S   0  0  0  0  0  0  0  0  0  0  0  0
    3.5423    4.9320   -0.9487 H   0  0  0  0  0  0  0  0  0  0  0  0
    5.0832    4.3683   -0.2358 H   0  0  0  0  0  0  0  0  0  0  0  0
    4.9221    4.6360   -2.0611 H   0  0  0  0  0  0  0  0  0  0  0  0
    2.7548    2.9358    0.4944 H   0  0  0  0  0  0  0  0  0  0  0  0
    3.1226    0.4400   -1.1332 H   0  0  0  0  0  0  0  0  0  0  0  0
    2.3044    0.7152    1.8382 H   0  0  0  0  0  0  0  0  0  0  0  0
    2.4604   -0.8218    0.9383 H   0  0  0  0  0  0  0  0  0  0  0  0
    4.6840    1.1956    1.5824 H   0  0  0  0  0  0  0  0  0  0  0  0
    4.3778   -0.3531    2.4110 H   0  0  0  0  0  0  0  0  0  0  0  0
    6.2205   -0.5915    0.8381 H   0  0  0  0  0  0  0  0  0  0  0  0
    5.1605   -0.1070   -0.5582 H   0  0  0  0  0  0  0  0  0  0  0  0
    4.3229   -2.3057   -0.6734 H   0  0  0  0  0  0  0  0  0  0  0  0
    6.9622   -3.1980    1.4714 H   0  0  0  0  0  0  0  0  0  0  0  0
    5.9602   -3.5928    2.9166 H   0  0  0  0  0  0  0  0  0  0  0  0
    2.8924   -3.4667    1.0195 H   0  0  0  0  0  0  0  0  0  0  0  0
    0.5675   -0.9443    0.2798 H   0  0  0  0  0  0  0  0  0  0  0  0
   -1.2157    0.9264   -1.2773 H   0  0  0  0  0  0  0  0  0  0  0  0
   -1.3616   -2.0415   -0.5581 H   0  0  0  0  0  0  0  0  0  0  0  0
   -0.9345   -1.4047   -2.1633 H   0  0  0  0  0  0  0  0  0  0  0  0
   -3.6669   -0.9145   -0.8089 H   0  0  0  0  0  0  0  0  0  0  0  0
   -3.0780   -0.1688   -2.3432 H   0  0  0  0  0  0  0  0  0  0  0  0
   -3.0160   -2.4008   -3.4098 H   0  0  0  0  0  0  0  0  0  0  0  0
   -4.6054   -1.9825   -2.7179 H   0  0  0  0  0  0  0  0  0  0  0  0
   -4.4767   -3.8373   -1.3416 H   0  0  0  0  0  0  0  0  0  0  0  0
   -0.5346   -3.8938   -2.4114 H   0  0  0  0  0  0  0  0  0  0  0  0
   -1.4648   -5.2923   -2.9470 H   0  0  0  0  0  0  0  0  0  0  0  0
   -1.5456   -5.4312    0.1017 H   0  0  0  0  0  0  0  0  0  0  0  0
   -5.4308    2.3519    3.8033 H   0  0  0  0  0  0  0  0  0  0  0  0
   -7.1246    3.9956    3.3877 H   0  0  0  0  0  0  0  0  0  0  0  0
   -7.4141    5.0573    1.1527 H   0  0  0  0  0  0  0  0  0  0  0  0
   -5.8819    4.3465   -0.6537 H   0  0  0  0  0  0  0  0  0  0  0  0
  1  2  1  0
  2  3  2  0
  2  4  1  0
  4  5  1  0
  5  6  1  0
  6  7  1  0
  7  8  1  0
  8  9  1  0
  9 10  1  0
 10 11  1  0
 10 12  2  3
  5 13  1  0
 13 14  2  0
 13 15  1  0
 15 16  1  0
 16 17  1  0
 17 18  1  0
 18 19  1  0
 19 20  1  0
 20 21  1  0
 21 22  1  0
 21 23  2  3
 16 24  1  0
 24 25  2  0
 24 26  1  0
 26 27  2  0
 27 28  1  0
 28 29  2  0
 29 30  1  0
 30 31  2  0
 31 32  1  0
 32 33  2  0
 33 34  1  0
 34 26  1  0
 33 28  1  0
  1 35  1  0
  1 36  1  0
  1 37  1  0
  4 38  1  0
  5 39  1  6
  6 40  1  0
  6 41  1  0
  7 42  1  0
  7 43  1  0
  8 44  1  0
  8 45  1  0
  9 46  1  0
 11 47  1  0
 11 48  1  0
 12 49  1  0
 15 50  1  0
 16 51  1  6
 17 52  1  0
 17 53  1  0
 18 54  1  0
 18 55  1  0
 19 56  1  0
 19 57  1  0
 20 58  1  0
 22 59  1  0
 22 60  1  0
 23 61  1  0
 29 62  1  0
 30 63  1  0
 31 64  1  0
 32 65  1  0
M  END
$$$$
[H]c1c([H])c(C2([H])c3c(nc(-c4c([H])c(C(=O)N([H])C(C([H])([H])[H])(C([H])([H])[H])C([H])([H])[H])c([H])c([H])c4OC([H])([H])[H])n3C([H])(C([H])([H])[H])C([H])([H])[H])C(=O)N2c2c([H])c(Cl)c([H])c([H])c2C([H])([H])[H])c([H])c([H])c1Cl
     RDKit          3D

 76 80  0  0  0  0  0  0  0  0999 V2000
    0.5083   -4.0553    1.7516 C   0  0  0  0  0  0  0  0  0  0  0  0
    0.5067   -2.8921    0.9841 O   0  0  0  0  0  0  0  0  0  0  0  0
    1.6426   -2.2371    0.5531 C   0  0  0  0  0  0  0  0  0  0  0  0
    2.8888   -2.7397    0.8861 C   0  0  0  0  0  0  0  0  0  0  0  0
    4.0353   -2.1054    0.4694 C   0  0  0  0  0  0  0  0  0  0  0  0
    3.9471   -0.9484   -0.2931 C   0  0  0  0  0  0  0  0  0  0  0  0
    2.6935   -0.4803   -0.6034 C   0  0  0  0  0  0  0  0  0  0  0  0
    1.5448   -1.0853   -0.2065 C   0  0  0  0  0  0  0  0  0  0  0  0
    0.1780   -0.6263   -0.4978 C   0  0  0  0  0  0  0  0  0  0  0  0
   -0.6051   -1.2095   -1.4601 N   0  0  0  0  0  0  0  0  0  0  0  0
   -1.8106   -0.6215   -1.4731 C   0  0  0  0  0  0  0  0  0  0  0  0
   -3.1244   -0.6082   -2.1546 C   0  0  0  0  0  0  0  0  0  0  0  0
   -3.3857   -1.4189   -3.0962 O   0  0  0  0  0  0  0  0  0  0  0  0
   -3.8554    0.4051   -1.5399 N   0  0  0  0  0  0  0  0  0  0  0  0
   -3.1189    0.9742   -0.4768 C   0  0  0  0  0  0  0  0  0  0  0  0
   -1.7902    0.3303   -0.5184 C   0  0  0  0  0  0  0  0  0  0  0  0
   -0.5451    0.3088    0.0718 N   0  0  0  0  0  0  0  0  0  0  0  0
   -0.2083    1.1873    1.1435 C   0  0  0  0  0  0  0  0  0  0  0  0
    1.1012    1.8851    1.0919 C   0  0  0  0  0  0  0  0  0  0  0  0
   -0.2618    0.4516    2.5005 C   0  0  0  0  0  0  0  0  0  0  0  0
   -3.7356    0.9218    0.8461 C   0  0  0  0  0  0  0  0  0  0  0  0
   -4.0301   -0.2716    1.4532 C   0  0  0  0  0  0  0  0  0  0  0  0
   -4.6265   -0.2542    2.6799 C   0  0  0  0  0  0  0  0  0  0  0  0
   -4.9444    0.9312    3.3306 C   0  0  0  0  0  0  0  0  0  0  0  0
   -5.7105    0.9436    4.9025 Cl  0  0  0  0  0  0  0  0  0  0  0  0
   -4.6528    2.1252    2.7304 C   0  0  0  0  0  0  0  0  0  0  0  0
   -4.0466    2.1066    1.4843 C   0  0  0  0  0  0  0  0  0  0  0  0
   -5.1693    0.7758   -2.0206 C   0  0  0  0  0  0  0  0  0  0  0  0
   -5.3967    2.0677   -2.4594 C   0  0  0  0  0  0  0  0  0  0  0  0
   -6.6304    2.4579   -2.9232 C   0  0  0  0  0  0  0  0  0  0  0  0
   -6.9087    4.1011   -3.4799 Cl  0  0  0  0  0  0  0  0  0  0  0  0
   -7.6753    1.5489   -2.9569 C   0  0  0  0  0  0  0  0  0  0  0  0
   -7.4319    0.2727   -2.5188 C   0  0  0  0  0  0  0  0  0  0  0  0
   -6.1685   -0.1219   -2.0456 C   0  0  0  0  0  0  0  0  0  0  0  0
   -6.0688   -1.5223   -1.6161 C   0  0  0  0  0  0  0  0  0  0  0  0
    5.1628   -0.2636   -0.7331 C   0  0  0  0  0  0  0  0  0  0  0  0
    5.1150    0.4575   -1.7446 O   0  0  0  0  0  0  0  0  0  0  0  0
    6.3782   -0.4051   -0.0298 N   0  0  0  0  0  0  0  0  0  0  0  0
    7.5927    0.2696   -0.4600 C   0  0  0  0  0  0  0  0  0  0  0  0
    8.6949   -0.0824    0.5121 C   0  0  0  0  0  0  0  0  0  0  0  0
    8.0103   -0.3322   -1.8037 C   0  0  0  0  0  0  0  0  0  0  0  0
    7.4596    1.7521   -0.5309 C   0  0  0  0  0  0  0  0  0  0  0  0
   -0.5107   -4.4977    1.7109 H   0  0  0  0  0  0  0  0  0  0  0  0
    0.6970   -3.7912    2.8081 H   0  0  0  0  0  0  0  0  0  0  0  0
    1.2008   -4.8411    1.4055 H   0  0  0  0  0  0  0  0  0  0  0  0
    3.0215   -3.6401    1.4816 H   0  0  0  0  0  0  0  0  0  0  0  0
    5.0286   -2.4793    0.7159 H   0  0  0  0  0  0  0  0  0  0  0  0
    2.6190    0.4149   -1.1994 H   0  0  0  0  0  0  0  0  0  0  0  0
   -3.0353    2.0746   -0.7461 H   0  0  0  0  0  0  0  0  0  0  0  0
   -0.9813    2.0182    1.1759 H   0  0  0  0  0  0  0  0  0  0  0  0
    1.0122    2.8801    1.6569 H   0  0  0  0  0  0  0  0  0  0  0  0
    1.9066    1.3843    1.7030 H   0  0  0  0  0  0  0  0  0  0  0  0
    1.4426    2.2290    0.1007 H   0  0  0  0  0  0  0  0  0  0  0  0
   -0.9585   -0.3895    2.4731 H   0  0  0  0  0  0  0  0  0  0  0  0
    0.7319    0.0446    2.7803 H   0  0  0  0  0  0  0  0  0  0  0  0
   -0.5045    1.2024    3.3059 H   0  0  0  0  0  0  0  0  0  0  0  0
   -3.7913   -1.1738    0.9625 H   0  0  0  0  0  0  0  0  0  0  0  0
   -4.8653   -1.1793    3.1729 H   0  0  0  0  0  0  0  0  0  0  0  0
   -4.8777    3.0734    3.1931 H   0  0  0  0  0  0  0  0  0  0  0  0
   -3.8323    3.0688    1.0412 H   0  0  0  0  0  0  0  0  0  0  0  0
   -4.5665    2.7594   -2.4217 H   0  0  0  0  0  0  0  0  0  0  0  0
   -8.6339    1.8868   -3.3270 H   0  0  0  0  0  0  0  0  0  0  0  0
   -8.2578   -0.4340   -2.5493 H   0  0  0  0  0  0  0  0  0  0  0  0
   -6.9861   -1.8004   -1.0124 H   0  0  0  0  0  0  0  0  0  0  0  0
   -5.2216   -1.7330   -0.9508 H   0  0  0  0  0  0  0  0  0  0  0  0
   -6.0883   -2.2291   -2.4932 H   0  0  0  0  0  0  0  0  0  0  0  0
    6.3869   -1.0149    0.8257 H   0  0  0  0  0  0  0  0  0  0  0  0
    8.6273   -1.1766    0.7516 H   0  0  0  0  0  0  0  0  0  0  0  0
    9.6939    0.0939    0.0975 H   0  0  0  0  0  0  0  0  0  0  0  0
    8.5482    0.4957    1.4463 H   0  0  0  0  0  0  0  0  0  0  0  0
    9.1216   -0.3048   -1.8518 H   0  0  0  0  0  0  0  0  0  0  0  0
    7.5319    0.1708   -2.6491 H   0  0  0  0  0  0  0  0  0  0  0  0
    7.7170   -1.4166   -1.7266 H   0  0  0  0  0  0  0  0  0  0  0  0
    6.5202    2.0504   -0.0261 H   0  0  0  0  0  0  0  0  0  0  0  0
    7.4520    2.0353   -1.6121 H   0  0  0  0  0  0  0  0  0  0  0  0
    8.2938    2.2262    0.0081 H   0  0  0  0  0  0  0  0  0  0  0  0
  1  2  1  0
  2  3  1  0
  3  4  2  0
  4  5  1  0
  5  6  2  0
  6  7  1  0
  7  8  2  0
  8  9  1  0
  9 10  2  0
 10 11  1  0
 11 12  1  0
 12 13  2  0
 12 14  1  0
 14 15  1  0
 15 16  1  0
 16 17  1  0
 17 18  1  0
 18 19  1  0
 18 20  1  0
 15 21  1  0
 21 22  2  0
 22 23  1  0
 23 24  2  0
 24 25  1  0
 24 26  1  0
 26 27  2  0
 14 28  1  0
 28 29  2  0
 29 30  1  0
 30 31  1  0
 30 32  2  0
 32 33  1  0
 33 34  2  0
 34 35  1  0
  6 36  1  0
 36 37  2  0
 36 38  1  0
 38 39  1  0
 39 40  1  0
 39 41  1  0
 39 42  1  0
  8  3  1  0
 17  9  1  0
 27 21  1  0
 34 28  1  0
 16 11  2  0
  1 43  1  0
  1 44  1  0
  1 45  1  0
  4 46  1  0
  5 47  1  0
  7 48  1  0
 15 49  1  0
 18 50  1  0
 19 51  1  0
 19 52  1  0
 19 53  1  0
 20 54  1  0
 20 55  1  0
 20 56  1  0
 22 57  1  0
 23 58  1  0
 26 59  1  0
 27 60  1  0
 29 61  1  0
 32 62  1  0
 33 63  1  0
 35 64  1  0
 35 65  1  0
 35 66  1  0
 38 67  1  0
 40 68  1  0
 40 69  1  0
 40 70  1  0
 41 71  1  0
 41 72  1  0
 41 73  1  0
 42 74  1  0
 42 75  1  0
 42 76  1  0
M  END
$$$$
[H]OC(=O)[C@@]([H])(N([H])C(=O)[C@@]([H])(C([H])([H])S[H])C([H])([H])c1c([H])c([H])c([H])c([H])c1[H])C([H])([H])[H]
     RDKit          3D

 35 35  0  0  0  0  0  0  0  0999 V2000
    4.0869    0.0040    1.9280 C   0  0  0  0  0  0  0  0  0  0  0  0
    3.4279   -0.1713    0.5947 C   0  0  2  0  0  0  0  0  0  0  0  0
    2.0058   -0.0859    0.6306 N   0  0  0  0  0  0  0  0  0  0  0  0
    1.2258    0.8527   -0.0653 C   0  0  0  0  0  0  0  0  0  0  0  0
    1.8227    1.6956   -0.7855 O   0  0  0  0  0  0  0  0  0  0  0  0
   -0.2638    0.8577    0.0401 C   0  0  1  0  0  0  0  0  0  0  0  0
   -0.8823    1.9396   -0.7834 C   0  0  0  0  0  0  0  0  0  0  0  0
   -0.3170    3.5911   -0.2917 S   0  0  0  0  0  0  0  0  0  0  0  0
   -0.7383   -0.4746   -0.4940 C   0  0  0  0  0  0  0  0  0  0  0  0
   -2.2088   -0.6259   -0.4557 C   0  0  0  0  0  0  0  0  0  0  0  0
   -2.7716   -1.1457    0.7021 C   0  0  0  0  0  0  0  0  0  0  0  0
   -4.1445   -1.3140    0.7807 C   0  0  0  0  0  0  0  0  0  0  0  0
   -4.9970   -0.9842   -0.2550 C   0  0  0  0  0  0  0  0  0  0  0  0
   -4.4365   -0.4681   -1.4042 C   0  0  0  0  0  0  0  0  0  0  0  0
   -3.0645   -0.2996   -1.4835 C   0  0  0  0  0  0  0  0  0  0  0  0
    3.8782   -1.4486   -0.0091 C   0  0  0  0  0  0  0  0  0  0  0  0
    5.2103   -1.7808   -0.1620 O   0  0  0  0  0  0  0  0  0  0  0  0
    3.0067   -2.2638   -0.3983 O   0  0  0  0  0  0  0  0  0  0  0  0
    4.3394   -0.9207    2.4443 H   0  0  0  0  0  0  0  0  0  0  0  0
    5.0428    0.5743    1.8038 H   0  0  0  0  0  0  0  0  0  0  0  0
    3.4466    0.6594    2.5883 H   0  0  0  0  0  0  0  0  0  0  0  0
    3.8124    0.6428   -0.0865 H   0  0  0  0  0  0  0  0  0  0  0  0
    1.5049   -0.7958    1.2371 H   0  0  0  0  0  0  0  0  0  0  0  0
   -0.5581    0.9659    1.0868 H   0  0  0  0  0  0  0  0  0  0  0  0
   -1.9842    1.9258   -0.5543 H   0  0  0  0  0  0  0  0  0  0  0  0
   -0.7680    1.8312   -1.8656 H   0  0  0  0  0  0  0  0  0  0  0  0
   -0.5251    4.4459   -1.3905 H   0  0  0  0  0  0  0  0  0  0  0  0
   -0.4260   -0.4961   -1.5752 H   0  0  0  0  0  0  0  0  0  0  0  0
   -0.2152   -1.3026    0.0240 H   0  0  0  0  0  0  0  0  0  0  0  0
   -2.1200   -1.4131    1.5319 H   0  0  0  0  0  0  0  0  0  0  0  0
   -4.5334   -1.7280    1.7176 H   0  0  0  0  0  0  0  0  0  0  0  0
   -6.0471   -1.1369   -0.1350 H   0  0  0  0  0  0  0  0  0  0  0  0
   -5.0810   -0.1966   -2.2425 H   0  0  0  0  0  0  0  0  0  0  0  0
   -2.6195    0.1049   -2.3828 H   0  0  0  0  0  0  0  0  0  0  0  0
    5.8915   -1.0385   -0.2900 H   0  0  0  0  0  0  0  0  0  0  0  0
  1  2  1  0
  2  3  1  0
  3  4  1  0
  4  5  2  0
  4  6  1  0
  6  7  1  0
  7  8  1  0
  6  9  1  0
  9 10  1  0
 10 11  2  0
 11 12  1  0
 12 13  2  0
 13 14  1  0
 14 15  2  0
  2 16  1  0
 16 17  1  0
 16 18  2  0
 15 10  1  0
  1 19  1  0
  1 20  1  0
  1 21  1  0
  2 22  1  6
  3 23  1  0
  6 24  1  1
  7 25  1  0
  7 26  1  0
  8 27  1  0
  9 28  1  0
  9 29  1  0
 11 30  1  0
 12 31  1  0
 13 32  1  0
 14 33  1  0
 15 34  1  0
 17 35  1  0
M  END
$$$$
[H]N=C(N([H])[H])N([H])C([H])([H])C([H])([H])C([H])([H])[C@@]([H])(C(=O)c1nc2c([H])c([H])c([H])c([H])c2s1)N([H])C(=O)[C@@]([H])(N([H])C(=O)C([H])([H])[H])C([H])([H])C([H])([H])C([H])([H])N([H])C(=N[H])N([H])[H]
     RDKit          3D

 65 66  0  0  0  0  0  0  0  0999 V2000
    4.4208    4.2913   -1.1393 C   0  0  0  0  0  0  0  0  0  0  0  0
    4.0050    2.8624   -1.2099 C   0  0  0  0  0  0  0  0  0  0  0  0
    4.5087    2.1945   -2.1720 O   0  0  0  0  0  0  0  0  0  0  0  0
    3.1153    2.3086   -0.2655 N   0  0  0  0  0  0  0  0  0  0  0  0
    2.6574    0.9430   -0.2537 C   0  0  1  0  0  0  0  0  0  0  0  0
    2.8669    0.2277    1.0300 C   0  0  0  0  0  0  0  0  0  0  0  0
    4.3177    0.1529    1.4427 C   0  0  0  0  0  0  0  0  0  0  0  0
    5.1629   -0.5984    0.4431 C   0  0  0  0  0  0  0  0  0  0  0  0
    4.7470   -1.9566    0.2441 N   0  0  0  0  0  0  0  0  0  0  0  0
    4.8440   -2.9769    1.2282 C   0  0  0  0  0  0  0  0  0  0  0  0
    6.0441   -3.2783    1.9138 N   0  0  0  0  0  0  0  0  0  0  0  0
    3.7876   -3.6611    1.5059 N   0  0  0  0  0  0  0  0  0  0  0  0
    1.1963    0.9777   -0.5573 C   0  0  0  0  0  0  0  0  0  0  0  0
    0.6933    1.9933   -1.1578 O   0  0  0  0  0  0  0  0  0  0  0  0
    0.3174   -0.0675   -0.2088 N   0  0  0  0  0  0  0  0  0  0  0  0
   -1.1103    0.0944   -0.5787 C   0  0  1  0  0  0  0  0  0  0  0  0
   -1.5558   -1.1938   -1.2722 C   0  0  0  0  0  0  0  0  0  0  0  0
   -2.9851   -1.0969   -1.6856 C   0  0  0  0  0  0  0  0  0  0  0  0
   -3.5545   -2.2617   -2.4203 C   0  0  0  0  0  0  0  0  0  0  0  0
   -3.5315   -3.4786   -1.6842 N   0  0  0  0  0  0  0  0  0  0  0  0
   -2.4155   -4.2798   -1.3482 C   0  0  0  0  0  0  0  0  0  0  0  0
   -1.3822   -4.4860   -2.2985 N   0  0  0  0  0  0  0  0  0  0  0  0
   -2.3635   -4.8337   -0.1668 N   0  0  0  0  0  0  0  0  0  0  0  0
   -1.8021    0.2770    0.7234 C   0  0  0  0  0  0  0  0  0  0  0  0
   -1.4223   -0.3557    1.7244 O   0  0  0  0  0  0  0  0  0  0  0  0
   -2.9332    1.2190    0.7969 C   0  0  0  0  0  0  0  0  0  0  0  0
   -3.6745    1.4932    1.8588 N   0  0  0  0  0  0  0  0  0  0  0  0
   -4.6357    2.3747    1.7702 C   0  0  0  0  0  0  0  0  0  0  0  0
   -5.5014    2.7642    2.8222 C   0  0  0  0  0  0  0  0  0  0  0  0
   -6.4579    3.7041    2.5618 C   0  0  0  0  0  0  0  0  0  0  0  0
   -6.6795    4.3247    1.3783 C   0  0  0  0  0  0  0  0  0  0  0  0
   -5.8243    3.9458    0.3239 C   0  0  0  0  0  0  0  0  0  0  0  0
   -4.8337    2.9828    0.5621 C   0  0  0  0  0  0  0  0  0  0  0  0
   -3.6080    2.2414   -0.3869 S   0  0  0  0  0  0  0  0  0  0  0  0
    3.5423    4.9320   -0.9487 H   0  0  0  0  0  0  0  0  0  0  0  0
    5.0832    4.3683   -0.2358 H   0  0  0  0  0  0  0  0  0  0  0  0
    4.9221    4.6360   -2.0611 H   0  0  0  0  0  0  0  0  0  0  0  0
    2.7548    2.9358    0.4944 H   0  0  0  0  0  0  0  0  0  0  0  0
    3.1226    0.4400   -1.1332 H   0  0  0  0  0  0  0  0  0  0  0  0
    2.3044    0.7152    1.8382 H   0  0  0  0  0  0  0  0  0  0  0  0
    2.4604   -0.8218    0.9383 H   0  0  0  0  0  0  0  0  0  0  0  0
    4.6840    1.1956    1.5824 H   0  0  0  0  0  0  0  0  0  0  0  0
    4.3778   -0.3531    2.4110 H   0  0  0  0  0  0  0  0  0  0  0  0
    6.2205   -0.5915    0.8381 H   0  0  0  0  0  0  0  0  0  0  0  0
    5.1605   -0.1070   -0.5582 H   0  0  0  0  0  0  0  0  0  0  0  0
    4.3229   -2.3057   -0.6734 H   0  0  0  0  0  0  0  0  0  0  0  0
    6.9622   -3.1980    1.4714 H   0  0  0  0  0  0  0  0  0  0  0  0
    5.9602   -3.5928    2.9166 H   0  0  0  0  0  0  0  0  0  0  0  0
    2.8924   -3.4667    1.0195 H   0  0  0  0  0  0  0  0  0  0  0  0
    0.5675   -0.9443    0.2798 H   0  0  0  0  0  0  0  0  0  0  0  0
   -1.2157    0.9264   -1.2773 H   0  0  0  0  0  0  0  0  0  0  0  0
   -1.3616   -2.0415   -0.5581 H   0  0  0  0  0  0  0  0  0  0  0  0
   -0.9345   -1.4047   -2.1633 H   0  0  0  0  0  0  0  0  0  0  0  0
   -3.6669   -0.9145   -0.8089 H   0  0  0  0  0  0  0  0  0  0  0  0
   -3.0780   -0.1688   -2.3432 H   0  0  0  0  0  0  0  0  0  0  0  0
   -3.0160   -2.4008   -3.4098 H   0  0  0  0  0  0  0  0  0  0  0  0
   -4.6054   -1.9825   -2.7179 H   0  0  0  0  0  0  0  0  0  0  0  0
   -4.4767   -3.8373   -1.3416 H   0  0  0  0  0  0  0  0  0  0  0  0
   -0.5346   -3.8938   -2.4114 H   0  0  0  0  0  0  0  0  0  0  0  0
   -1.4648   -5.2923   -2.9470 H   0  0  0  0  0  0  0  0  0  0  0  0
   -1.5456   -5.4312    0.1017 H   0  0  0  0  0  0  0  0  0  0  0  0
   -5.4308    2.3519    3.8033 H   0  0  0  0  0  0  0  0  0  0  0  0
   -7.1246    3.9956    3.3877 H   0  0  0  0  0  0  0  0  0  0  0  0
   -7.4141    5.0573    1.1527 H   0  0  0  0  0  0  0  0  0  0  0  0
   -5.8819    4.3465   -0.6537 H   0  0  0  0  0  0  0  0  0  0  0  0
  1  2  1  0
  2  3  2  0
  2  4  1  0
  4  5  1  0
  5  6  1  0
  6  7  1  0
  7  8  1  0
  8  9  1  0
  9 10  1  0
 10 11  1  0
 10 12  2  3
  5 13  1  0
 13 14  2  0
 13 15  1  0
 15 16  1  0
 16 17  1  0
 17 18  1  0
 18 19  1  0
 19 20  1  0
 20 21  1  0
 21 22  1  0
 21 23  2  3
 16 24  1  0
 24 25  2  0
 24 26  1  0
 26 27  2  0
 27 28  1  0
 28 29  2  0
 29 30  1  0
 30 31  2  0
 31 32  1  0
 32 33  2  0
 33 34  1  0
 34 26  1  0
 33 28  1  0
  1 35  1  0
  1 36  1  0
  1 37  1  0
  4 38  1  0
  5 39  1  6
  6 40  1  0
  6 41  1  0
  7 42  1  0
  7 43  1  0
  8 44  1  0
  8 45  1  0
  9 46  1  0
 11 47  1  0
 11 48  1  0
 12 49  1  0
 15 50  1  0
 16 51  1  6
 17 52  1  0
 17 53  1  0
 18 54  1  0
 18 55  1  0
 19 56  1  0
 19 57  1  0
 20 58  1  0
 22 59  1  0
 22 60  1  0
 23 61  1  0
 29 62  1  0
 30 63  1  0
 31 64  1  0
 32 65  1  0
M  END
$$$$
[H]c1c([H])c(C(=O)N([H])c2sc(N([H])c3c([H])c([H])c4c([H])c([H])n([H])c4c3[H])nc2C(=O)N([H])[H])c([H])c([H])c1F
     RDKit          3D

 42 45  0  0  0  0  0  0  0  0999 V2000
    1.4254   -4.5388   -0.8387 N   0  0  0  0  0  0  0  0  0  0  0  0
    1.8613   -3.1924   -0.9220 C   0  0  0  0  0  0  0  0  0  0  0  0
    3.0017   -2.9927   -1.3205 O   0  0  0  0  0  0  0  0  0  0  0  0
    0.9292   -2.0997   -0.5262 C   0  0  0  0  0  0  0  0  0  0  0  0
   -0.3436   -2.3887   -0.4865 N   0  0  0  0  0  0  0  0  0  0  0  0
   -1.2649   -1.4501   -0.3592 C   0  0  0  0  0  0  0  0  0  0  0  0
   -2.6729   -1.6482   -0.2767 N   0  0  0  0  0  0  0  0  0  0  0  0
   -3.5811   -0.5772   -0.1965 C   0  0  0  0  0  0  0  0  0  0  0  0
   -3.3525    0.6715   -0.6966 C   0  0  0  0  0  0  0  0  0  0  0  0
   -4.2752    1.7042   -0.5644 C   0  0  0  0  0  0  0  0  0  0  0  0
   -5.4711    1.5075    0.0827 C   0  0  0  0  0  0  0  0  0  0  0  0
   -6.5725    2.2813    0.3826 C   0  0  0  0  0  0  0  0  0  0  0  0
   -7.4607    1.4779    1.0667 C   0  0  0  0  0  0  0  0  0  0  0  0
   -6.9151    0.2617    1.1763 N   0  0  0  0  0  0  0  0  0  0  0  0
   -5.6966    0.2341    0.5879 C   0  0  0  0  0  0  0  0  0  0  0  0
   -4.7980   -0.7790    0.4619 C   0  0  0  0  0  0  0  0  0  0  0  0
   -0.3136   -0.0584   -0.2860 S   0  0  0  0  0  0  0  0  0  0  0  0
    1.2959   -0.8018   -0.4243 C   0  0  0  0  0  0  0  0  0  0  0  0
    2.4783   -0.0585   -0.2132 N   0  0  0  0  0  0  0  0  0  0  0  0
    3.6920   -0.3479    0.3705 C   0  0  0  0  0  0  0  0  0  0  0  0
    3.9759   -1.4431    0.9096 O   0  0  0  0  0  0  0  0  0  0  0  0
    4.7887    0.6754    0.3936 C   0  0  0  0  0  0  0  0  0  0  0  0
    4.5427    2.0079    0.1991 C   0  0  0  0  0  0  0  0  0  0  0  0
    5.5842    2.9429    0.2166 C   0  0  0  0  0  0  0  0  0  0  0  0
    6.8768    2.5360    0.4305 C   0  0  0  0  0  0  0  0  0  0  0  0
    7.8653    3.4618    0.4423 F   0  0  0  0  0  0  0  0  0  0  0  0
    7.0950    1.1965    0.6224 C   0  0  0  0  0  0  0  0  0  0  0  0
    6.0814    0.2705    0.6073 C   0  0  0  0  0  0  0  0  0  0  0  0
    0.4123   -4.7209   -1.0673 H   0  0  0  0  0  0  0  0  0  0  0  0
    2.0431   -5.3162   -0.5722 H   0  0  0  0  0  0  0  0  0  0  0  0
   -3.0346   -2.6229   -0.2762 H   0  0  0  0  0  0  0  0  0  0  0  0
   -2.4444    0.9230   -1.2464 H   0  0  0  0  0  0  0  0  0  0  0  0
   -4.0887    2.6928   -0.9622 H   0  0  0  0  0  0  0  0  0  0  0  0
   -6.7132    3.3160    0.1308 H   0  0  0  0  0  0  0  0  0  0  0  0
   -8.4406    1.7504    1.4624 H   0  0  0  0  0  0  0  0  0  0  0  0
   -7.3301   -0.5953    1.6452 H   0  0  0  0  0  0  0  0  0  0  0  0
   -4.9645   -1.7756    0.8523 H   0  0  0  0  0  0  0  0  0  0  0  0
    2.3915    0.9574   -0.6211 H   0  0  0  0  0  0  0  0  0  0  0  0
    3.5612    2.3988    0.0317 H   0  0  0  0  0  0  0  0  0  0  0  0
    5.3517    3.9993    0.0575 H   0  0  0  0  0  0  0  0  0  0  0  0
    8.1374    0.9090    0.7900 H   0  0  0  0  0  0  0  0  0  0  0  0
    6.3431   -0.7684    0.7679 H   0  0  0  0  0  0  0  0  0  0  0  0
  1  2  1  0
  2  3  2  0
  2  4  1  0
  4  5  1  0
  5  6  2  0
  6  7  1  0
  7  8  1  0
  8  9  2  0
  9 10  1  0
 10 11  2  0
 11 12  1  0
 12 13  2  0
 13 14  1  0
 14 15  1  0
 15 16  2  0
  6 17  1  0
 17 18  1  0
 18 19  1  0
 19 20  1  0
 20 21  2  0
 20 22  1  0
 22 23  2  0
 23 24  1  0
 24 25  2  0
 25 26  1  0
 25 27  1  0
 27 28  2  0
 18  4  2  0
 28 22  1  0
 16  8  1  0
 15 11  1  0
  1 29  1  0
  1 30  1  0
  7 31  1  0
  9 32  1  0
 10 33  1  0
 12 34  1  0
 13 35  1  0
 14 36  1  0
 16 37  1  0
 19 38  1  0
 23 39  1  0
 24 40  1  0
 27 41  1  0
 28 42  1  0
M  END
$$$$
[H]ON([H])C(=O)[C@]([H])(N([H])S(=O)(=O)c1c([H])c([H])c(-c2c([H])c([H])c(OC([H])([H])[H])c([H])c2[H])c([H])c1[H])C([H])(C([H])([H])[H])C([H])([H])[H]
     RDKit          3D

 48 49  0  0  0  0  0  0  0  0999 V2000
    8.4702   -0.4124    1.0690 C   0  0  0  0  0  0  0  0  0  0  0  0
    7.7312   -0.4467   -0.1317 O   0  0  0  0  0  0  0  0  0  0  0  0
    6.3995   -0.1304   -0.2404 C   0  0  0  0  0  0  0  0  0  0  0  0
    5.8049   -0.2439   -1.5034 C   0  0  0  0  0  0  0  0  0  0  0  0
    4.4925    0.0475   -1.7106 C   0  0  0  0  0  0  0  0  0  0  0  0
    3.7074    0.4606   -0.6279 C   0  0  0  0  0  0  0  0  0  0  0  0
    4.2689    0.5849    0.6063 C   0  0  0  0  0  0  0  0  0  0  0  0
    5.6376    0.2800    0.7917 C   0  0  0  0  0  0  0  0  0  0  0  0
    2.2975    0.4428   -0.7407 C   0  0  0  0  0  0  0  0  0  0  0  0
    1.3587    1.2858   -0.3102 C   0  0  0  0  0  0  0  0  0  0  0  0
    0.0111    0.9811   -0.3106 C   0  0  0  0  0  0  0  0  0  0  0  0
   -0.4286   -0.2051   -0.7443 C   0  0  0  0  0  0  0  0  0  0  0  0
    0.5256   -1.1410   -1.1992 C   0  0  0  0  0  0  0  0  0  0  0  0
    1.8145   -0.8452   -1.2069 C   0  0  0  0  0  0  0  0  0  0  0  0
   -2.1327   -0.6795   -0.8831 S   0  0  0  0  0  0  0  0  0  0  0  0
   -2.6854    0.4149   -1.8337 O   0  0  0  0  0  0  0  0  0  0  0  0
   -2.2404   -2.0338   -1.5063 O   0  0  0  0  0  0  0  0  0  0  0  0
   -2.9502   -0.6450    0.6068 N   0  0  0  0  0  0  0  0  0  0  0  0
   -4.0548    0.1788    0.6026 C   0  0  2  0  0  0  0  0  0  0  0  0
   -5.0046   -0.1911   -0.5456 C   0  0  0  0  0  0  0  0  0  0  0  0
   -6.0917    0.7461   -0.8137 C   0  0  0  0  0  0  0  0  0  0  0  0
   -5.8591   -1.4098    0.0781 C   0  0  0  0  0  0  0  0  0  0  0  0
   -3.9091    1.5981    0.8421 C   0  0  0  0  0  0  0  0  0  0  0  0
   -4.0011    2.4938   -0.0094 O   0  0  0  0  0  0  0  0  0  0  0  0
   -3.6250    1.8421    2.2031 N   0  0  0  0  0  0  0  0  0  0  0  0
   -3.3737    2.0697    3.3976 O   0  0  0  0  0  0  0  0  0  0  0  0
    7.9736    0.1898    1.8213 H   0  0  0  0  0  0  0  0  0  0  0  0
    8.7853   -1.3959    1.4602 H   0  0  0  0  0  0  0  0  0  0  0  0
    9.4042    0.2053    0.7963 H   0  0  0  0  0  0  0  0  0  0  0  0
    6.4390   -0.5622   -2.3286 H   0  0  0  0  0  0  0  0  0  0  0  0
    3.9981    0.0183   -2.6806 H   0  0  0  0  0  0  0  0  0  0  0  0
    3.6840    0.9091    1.4530 H   0  0  0  0  0  0  0  0  0  0  0  0
    6.0426    0.3466    1.8088 H   0  0  0  0  0  0  0  0  0  0  0  0
    1.6339    2.3015    0.0713 H   0  0  0  0  0  0  0  0  0  0  0  0
   -0.6811    1.7602    0.0736 H   0  0  0  0  0  0  0  0  0  0  0  0
    0.1218   -2.1010   -1.5300 H   0  0  0  0  0  0  0  0  0  0  0  0
    2.5656   -1.5639   -1.5720 H   0  0  0  0  0  0  0  0  0  0  0  0
   -2.8792   -1.4671    1.1690 H   0  0  0  0  0  0  0  0  0  0  0  0
   -4.7232   -0.2277    1.5013 H   0  0  0  0  0  0  0  0  0  0  0  0
   -4.5696   -0.6661   -1.3890 H   0  0  0  0  0  0  0  0  0  0  0  0
   -6.4878    1.3587   -0.0188 H   0  0  0  0  0  0  0  0  0  0  0  0
   -6.9586    0.1854   -1.2846 H   0  0  0  0  0  0  0  0  0  0  0  0
   -5.8052    1.4276   -1.7238 H   0  0  0  0  0  0  0  0  0  0  0  0
   -5.2188   -2.2225    0.3551 H   0  0  0  0  0  0  0  0  0  0  0  0
   -6.3516   -0.8666    0.9573 H   0  0  0  0  0  0  0  0  0  0  0  0
   -6.6443   -1.5709   -0.6895 H   0  0  0  0  0  0  0  0  0  0  0  0
   -2.9607    3.0001    1.8711 H   0  0  0  0  0  0  0  0  0  0  0  0
   -3.5313    1.2465    3.9990 H   0  0  0  0  0  0  0  0  0  0  0  0
  1  2  1  0
  2  3  1  0
  3  4  2  0
  4  5  1  0
  5  6  2  0
  6  7  1  0
  7  8  2  0
  6  9  1  0
  9 10  2  0
 10 11  1  0
 11 12  2  0
 12 13  1  0
 13 14  2  0
 12 15  1  0
 15 16  2  0
 15 17  2  0
 15 18  1  0
 18 19  1  0
 19 20  1  0
 20 21  1  0
 20 22  1  0
 19 23  1  0
 23 24  2  0
 23 25  1  0
 25 26  1  0
  8  3  1  0
 14  9  1  0
  1 27  1  0
  1 28  1  0
  1 29  1  0
  4 30  1  0
  5 31  1  0
  7 32  1  0
  8 33  1  0
 10 34  1  0
 11 35  1  0
 13 36  1  0
 14 37  1  0
 18 38  1  0
 19 39  1  1
 20 40  1  0
 21 41  1  0
 21 42  1  0
 21 43  1  0
 22 44  1  0
 22 45  1  0
 22 46  1  0
 25 47  1  0
 26 48  1  0
M  END
$$$$
[H]c1c([H])c(N([H])C(=O)N([H])c2c([H])c([H])c(-c3nc(N4C([H])([H])C([H])([H])OC([H])([H])[C@@]4([H])C([H])([H])[H])nc(C4([H])C([H])([H])C([H])([H])OC([H])([H])C4([H])[H])n3)c([H])c2[H])c([H])c([H])c1OC(F)(F)F
     RDKit          3D

 69 73  0  0  0  0  0  0  0  0999 V2000
   -3.5854    1.8934    2.4243 C   0  0  0  0  0  0  0  0  0  0  0  0
   -3.8502    1.1808    3.7207 C   0  0  2  0  0  0  0  0  0  0  0  0
   -3.2804    1.8629    4.9216 C   0  0  0  0  0  0  0  0  0  0  0  0
   -3.6995    1.1718    6.0594 O   0  0  0  0  0  0  0  0  0  0  0  0
   -3.1875   -0.1222    6.0870 C   0  0  0  0  0  0  0  0  0  0  0  0
   -3.7414   -0.9479    4.9522 C   0  0  0  0  0  0  0  0  0  0  0  0
   -3.5034   -0.2177    3.7219 N   0  0  0  0  0  0  0  0  0  0  0  0
   -2.9478   -0.9403    2.6447 C   0  0  0  0  0  0  0  0  0  0  0  0
   -3.5588   -2.0419    2.1558 N   0  0  0  0  0  0  0  0  0  0  0  0
   -3.0834   -2.7653    1.1376 C   0  0  0  0  0  0  0  0  0  0  0  0
   -1.9231   -2.3672    0.5710 N   0  0  0  0  0  0  0  0  0  0  0  0
   -1.2638   -1.2657    1.0174 C   0  0  0  0  0  0  0  0  0  0  0  0
   -1.8051   -0.5952    2.0400 N   0  0  0  0  0  0  0  0  0  0  0  0
   -0.0641   -0.7947    0.3524 C   0  0  0  0  0  0  0  0  0  0  0  0
    0.5409    0.3547    0.8089 C   0  0  0  0  0  0  0  0  0  0  0  0
    1.6234    0.8809    0.1119 C   0  0  0  0  0  0  0  0  0  0  0  0
    2.1234    0.3223   -1.0070 C   0  0  0  0  0  0  0  0  0  0  0  0
    3.1322    0.9329   -1.7170 N   0  0  0  0  0  0  0  0  0  0  0  0
    4.0900    1.5139   -2.3974 C   0  0  0  0  0  0  0  0  0  0  0  0
    4.0512    1.7458   -3.6907 O   0  0  0  0  0  0  0  0  0  0  0  0
    5.3314    2.0093   -1.8407 N   0  0  0  0  0  0  0  0  0  0  0  0
    6.2213    2.7116   -2.7005 C   0  0  0  0  0  0  0  0  0  0  0  0
    7.5586    2.5031   -2.7745 C   0  0  0  0  0  0  0  0  0  0  0  0
    8.3318    3.2840   -3.6152 C   0  0  0  0  0  0  0  0  0  0  0  0
    7.7966    4.2833   -4.3983 C   0  0  0  0  0  0  0  0  0  0  0  0
    8.5421    5.0701   -5.2348 O   0  0  0  0  0  0  0  0  0  0  0  0
    8.8179    4.7834   -6.5651 C   0  0  0  0  0  0  0  0  0  0  0  0
    9.5854    5.8269   -7.0831 F   0  0  0  0  0  0  0  0  0  0  0  0
    7.7001    4.6596   -7.3431 F   0  0  0  0  0  0  0  0  0  0  0  0
    9.5800    3.6260   -6.6549 F   0  0  0  0  0  0  0  0  0  0  0  0
    6.4291    4.4883   -4.3140 C   0  0  0  0  0  0  0  0  0  0  0  0
    5.6597    3.7205   -3.4839 C   0  0  0  0  0  0  0  0  0  0  0  0
    1.5010   -0.8720   -1.4721 C   0  0  0  0  0  0  0  0  0  0  0  0
    0.4348   -1.3958   -0.7901 C   0  0  0  0  0  0  0  0  0  0  0  0
   -3.7674   -3.9204    0.5306 C   0  0  0  0  0  0  0  0  0  0  0  0
   -4.9488   -3.3317   -0.2524 C   0  0  0  0  0  0  0  0  0  0  0  0
   -5.7774   -4.4627   -0.7930 C   0  0  0  0  0  0  0  0  0  0  0  0
   -6.3007   -5.1919    0.2907 O   0  0  0  0  0  0  0  0  0  0  0  0
   -5.2515   -5.8687    0.9224 C   0  0  0  0  0  0  0  0  0  0  0  0
   -4.3343   -4.8341    1.5786 C   0  0  0  0  0  0  0  0  0  0  0  0
   -4.2936    1.4731    1.6695 H   0  0  0  0  0  0  0  0  0  0  0  0
   -2.5537    1.8581    2.0871 H   0  0  0  0  0  0  0  0  0  0  0  0
   -3.9476    2.9561    2.5672 H   0  0  0  0  0  0  0  0  0  0  0  0
   -4.9766    1.1943    3.8631 H   0  0  0  0  0  0  0  0  0  0  0  0
   -2.2232    2.0902    4.8844 H   0  0  0  0  0  0  0  0  0  0  0  0
   -3.8059    2.8636    4.9831 H   0  0  0  0  0  0  0  0  0  0  0  0
   -2.0894   -0.1687    6.1332 H   0  0  0  0  0  0  0  0  0  0  0  0
   -3.5789   -0.5739    7.0316 H   0  0  0  0  0  0  0  0  0  0  0  0
   -3.2226   -1.9380    4.9447 H   0  0  0  0  0  0  0  0  0  0  0  0
   -4.8230   -1.0377    5.0752 H   0  0  0  0  0  0  0  0  0  0  0  0
    0.2051    0.8616    1.6961 H   0  0  0  0  0  0  0  0  0  0  0  0
    2.0512    1.7954    0.5477 H   0  0  0  0  0  0  0  0  0  0  0  0
    2.2850    1.0593   -2.7982 H   0  0  0  0  0  0  0  0  0  0  0  0
    5.5761    1.8719   -0.8688 H   0  0  0  0  0  0  0  0  0  0  0  0
    8.0440    1.7383   -2.2022 H   0  0  0  0  0  0  0  0  0  0  0  0
    9.4111    3.1336   -3.6901 H   0  0  0  0  0  0  0  0  0  0  0  0
    5.9599    5.2588   -4.9104 H   0  0  0  0  0  0  0  0  0  0  0  0
    4.5824    3.9229   -3.4130 H   0  0  0  0  0  0  0  0  0  0  0  0
    1.9507   -1.2915   -2.3598 H   0  0  0  0  0  0  0  0  0  0  0  0
   -0.0354   -2.2872   -1.1436 H   0  0  0  0  0  0  0  0  0  0  0  0
   -3.0868   -4.4469   -0.1720 H   0  0  0  0  0  0  0  0  0  0  0  0
   -5.5165   -2.7128    0.4401 H   0  0  0  0  0  0  0  0  0  0  0  0
   -4.5430   -2.7799   -1.1210 H   0  0  0  0  0  0  0  0  0  0  0  0
   -5.0984   -5.1356   -1.3626 H   0  0  0  0  0  0  0  0  0  0  0  0
   -6.6369   -4.1005   -1.3931 H   0  0  0  0  0  0  0  0  0  0  0  0
   -4.6484   -6.4572    0.2263 H   0  0  0  0  0  0  0  0  0  0  0  0
   -5.6598   -6.5116    1.6882 H   0  0  0  0  0  0  0  0  0  0  0  0
   -3.5628   -5.3363    2.1597 H   0  0  0  0  0  0  0  0  0  0  0  0
   -4.9401   -4.1896    2.2653 H   0  0  0  0  0  0  0  0  0  0  0  0
  1  2  1  0
  2  3  1  0
  3  4  1  0
  4  5  1  0
  5  6  1  0
  6  7  1  0
  7  8  1  0
  8  9  2  0
  9 10  1  0
 10 11  2  0
 11 12  1  0
 12 13  2  0
 12 14  1  0
 14 15  2  0
 15 16  1  0
 16 17  2  0
 17 18  1  0
 18 19  1  0
 19 20  2  0
 19 21  1  0
 21 22  1  0
 22 23  2  0
 23 24  1  0
 24 25  2  0
 25 26  1  0
 26 27  1  0
 27 28  1  0
 27 29  1  0
 27 30  1  0
 25 31  1  0
 31 32  2  0
 17 33  1  0
 33 34  2  0
 10 35  1  0
 35 36  1  0
 36 37  1  0
 37 38  1  0
 38 39  1  0
 39 40  1  0
  7  2  1  0
 13  8  1  0
 34 14  1  0
 40 35  1  0
 32 22  1  0
  1 41  1  0
  1 42  1  0
  1 43  1  0
  2 44  1  1
  3 45  1  0
  3 46  1  0
  5 47  1  0
  5 48  1  0
  6 49  1  0
  6 50  1  0
 15 51  1  0
 16 52  1  0
 18 53  1  0
 21 54  1  0
 23 55  1  0
 24 56  1  0
 31 57  1  0
 32 58  1  0
 33 59  1  0
 34 60  1  0
 35 61  1  0
 36 62  1  0
 36 63  1  0
 37 64  1  0
 37 65  1  0
 39 66  1  0
 39 67  1  0
 40 68  1  0
 40 69  1  0
M  END
$$$$
[H]c1c([H])c([H])c(C([H])([H])[C@@]([H])(C(=O)N([H])[H])N([H])C(=O)[C@@]([H])(N([H])C(=O)[C@@]([H])(N([H])C(=O)C([H])([H])N([H])C(=O)[C@@]([H])(N([H])C(=O)[C@@]([H])(N([H])[H])C([H])([H])c2c([H])n([H])c3c([H])c([H])c([H])c([H])c23)C([H])(C([H])([H])[H])C([H])([H])[H])C([H])([H])c2c([H])c([H])c([H])c([H])c2[H])C([H])([H])C([H])(C([H])([H])[H])C([H])([H])[H])c([H])c1[H]
     RDKit          3D

110113  0  0  0  0  0  0  0  0999 V2000
   -7.8415   -1.7937   -2.8255 C   0  0  0  0  0  0  0  0  0  0  0  0
   -6.4213   -1.3053   -2.5000 C   0  0  0  0  0  0  0  0  0  0  0  0
   -6.1352   -0.1564   -3.4313 C   0  0  0  0  0  0  0  0  0  0  0  0
   -6.4660   -0.8782   -1.0422 C   0  0  0  0  0  0  0  0  0  0  0  0
   -5.1480   -0.3670   -0.5528 C   0  0  2  0  0  0  0  0  0  0  0  0
   -4.1106   -1.3313   -0.6456 N   0  0  0  0  0  0  0  0  0  0  0  0
   -2.7220   -1.1591   -0.7374 C   0  0  0  0  0  0  0  0  0  0  0  0
   -2.3057    0.0238   -0.7154 O   0  0  0  0  0  0  0  0  0  0  0  0
   -1.7392   -2.2301   -0.8598 C   0  0  2  0  0  0  0  0  0  0  0  0
   -1.9283   -3.5419   -0.2684 C   0  0  0  0  0  0  0  0  0  0  0  0
   -2.0530   -3.7925    1.1422 C   0  0  0  0  0  0  0  0  0  0  0  0
   -3.2678   -3.7881    1.7907 C   0  0  0  0  0  0  0  0  0  0  0  0
   -3.4045   -4.0609    3.1575 C   0  0  0  0  0  0  0  0  0  0  0  0
   -2.2770   -4.3527    3.9120 C   0  0  0  0  0  0  0  0  0  0  0  0
   -1.0614   -4.3605    3.2774 C   0  0  0  0  0  0  0  0  0  0  0  0
   -0.9539   -4.0882    1.9326 C   0  0  0  0  0  0  0  0  0  0  0  0
   -0.3518   -1.7440   -0.7327 N   0  0  0  0  0  0  0  0  0  0  0  0
    0.1372   -0.9955    0.3207 C   0  0  0  0  0  0  0  0  0  0  0  0
   -0.6262   -0.6513    1.3266 O   0  0  0  0  0  0  0  0  0  0  0  0
    1.4988   -0.5150    0.4663 C   0  0  0  0  0  0  0  0  0  0  0  0
    2.4104   -0.7853   -0.6318 N   0  0  0  0  0  0  0  0  0  0  0  0
    3.7738   -0.4649   -0.5451 C   0  0  0  0  0  0  0  0  0  0  0  0
    4.1283    0.0614    0.5748 O   0  0  0  0  0  0  0  0  0  0  0  0
    4.7631   -0.6831   -1.5993 C   0  0  1  0  0  0  0  0  0  0  0  0
    6.1098   -0.3725   -1.1187 N   0  0  0  0  0  0  0  0  0  0  0  0
    6.7275    0.9017   -1.2513 C   0  0  0  0  0  0  0  0  0  0  0  0
    6.1070    1.8470   -1.7947 O   0  0  0  0  0  0  0  0  0  0  0  0
    8.0997    1.1433   -0.7558 C   0  0  1  0  0  0  0  0  0  0  0  0
    8.9802    0.0308   -0.9196 N   0  0  0  0  0  0  0  0  0  0  0  0
    8.6028    2.4691   -1.2171 C   0  0  0  0  0  0  0  0  0  0  0  0
    9.9851    2.7398   -0.7690 C   0  0  0  0  0  0  0  0  0  0  0  0
   11.1371    2.7424   -1.5428 C   0  0  0  0  0  0  0  0  0  0  0  0
   12.1735    3.0376   -0.7441 N   0  0  0  0  0  0  0  0  0  0  0  0
   11.7498    3.2290    0.5262 C   0  0  0  0  0  0  0  0  0  0  0  0
   12.4628    3.5317    1.6710 C   0  0  0  0  0  0  0  0  0  0  0  0
   11.7895    3.6583    2.8713 C   0  0  0  0  0  0  0  0  0  0  0  0
   10.4211    3.4803    2.9011 C   0  0  0  0  0  0  0  0  0  0  0  0
    9.7395    3.1808    1.7450 C   0  0  0  0  0  0  0  0  0  0  0  0
   10.3866    3.0449    0.5134 C   0  0  0  0  0  0  0  0  0  0  0  0
    4.8411   -2.0173   -2.2549 C   0  0  0  0  0  0  0  0  0  0  0  0
    6.0242   -1.9566   -3.2663 C   0  0  0  0  0  0  0  0  0  0  0  0
    3.6418   -2.3677   -3.1310 C   0  0  0  0  0  0  0  0  0  0  0  0
   -5.2345    0.3746    0.7326 C   0  0  0  0  0  0  0  0  0  0  0  0
   -4.1933    0.8592    1.2332 O   0  0  0  0  0  0  0  0  0  0  0  0
   -6.4554    0.5471    1.4038 N   0  0  0  0  0  0  0  0  0  0  0  0
   -6.5215    1.3205    2.6340 C   0  0  1  0  0  0  0  0  0  0  0  0
   -7.8762    1.7659    3.0193 C   0  0  0  0  0  0  0  0  0  0  0  0
   -8.5573    2.6130    1.9822 C   0  0  0  0  0  0  0  0  0  0  0  0
   -8.4186    3.9801    1.9495 C   0  0  0  0  0  0  0  0  0  0  0  0
   -9.0663    4.7646    0.9954 C   0  0  0  0  0  0  0  0  0  0  0  0
   -9.8667    4.1406    0.0615 C   0  0  0  0  0  0  0  0  0  0  0  0
  -10.0179    2.7585    0.0799 C   0  0  0  0  0  0  0  0  0  0  0  0
   -9.3640    2.0306    1.0352 C   0  0  0  0  0  0  0  0  0  0  0  0
   -5.9677    0.4353    3.7490 C   0  0  0  0  0  0  0  0  0  0  0  0
   -5.8723    0.8765    5.0831 N   0  0  0  0  0  0  0  0  0  0  0  0
   -5.5948   -0.7166    3.4246 O   0  0  0  0  0  0  0  0  0  0  0  0
   -8.2472   -2.3377   -1.9183 H   0  0  0  0  0  0  0  0  0  0  0  0
   -8.5369   -0.9384   -2.9736 H   0  0  0  0  0  0  0  0  0  0  0  0
   -7.8358   -2.5347   -3.6259 H   0  0  0  0  0  0  0  0  0  0  0  0
   -5.7549   -2.1696   -2.6462 H   0  0  0  0  0  0  0  0  0  0  0  0
   -5.0364    0.0395   -3.4975 H   0  0  0  0  0  0  0  0  0  0  0  0
   -6.6887    0.7298   -3.0467 H   0  0  0  0  0  0  0  0  0  0  0  0
   -6.4726   -0.4496   -4.4465 H   0  0  0  0  0  0  0  0  0  0  0  0
   -6.7398   -1.7931   -0.4695 H   0  0  0  0  0  0  0  0  0  0  0  0
   -7.2920   -0.1455   -0.9257 H   0  0  0  0  0  0  0  0  0  0  0  0
   -4.8566    0.4832   -1.3066 H   0  0  0  0  0  0  0  0  0  0  0  0
   -4.4397   -2.3469   -0.6717 H   0  0  0  0  0  0  0  0  0  0  0  0
   -1.7813   -2.4326   -2.0211 H   0  0  0  0  0  0  0  0  0  0  0  0
   -1.0286   -4.1799   -0.6131 H   0  0  0  0  0  0  0  0  0  0  0  0
   -2.7686   -4.0653   -0.8217 H   0  0  0  0  0  0  0  0  0  0  0  0
   -4.2143   -3.5866    1.3033 H   0  0  0  0  0  0  0  0  0  0  0  0
   -4.3553   -4.0562    3.6661 H   0  0  0  0  0  0  0  0  0  0  0  0
   -2.4023   -4.5568    4.9535 H   0  0  0  0  0  0  0  0  0  0  0  0
   -0.1839   -4.5952    3.8943 H   0  0  0  0  0  0  0  0  0  0  0  0
    0.0398   -4.1169    1.5018 H   0  0  0  0  0  0  0  0  0  0  0  0
    0.3009   -2.0125   -1.5244 H   0  0  0  0  0  0  0  0  0  0  0  0
    1.4502    0.6045    0.6078 H   0  0  0  0  0  0  0  0  0  0  0  0
    1.9190   -0.9227    1.4302 H   0  0  0  0  0  0  0  0  0  0  0  0
    2.0261   -1.2046   -1.4881 H   0  0  0  0  0  0  0  0  0  0  0  0
    4.4837    0.0844   -2.3959 H   0  0  0  0  0  0  0  0  0  0  0  0
    6.6317   -1.1399   -0.6486 H   0  0  0  0  0  0  0  0  0  0  0  0
    7.9578    1.2060    0.3893 H   0  0  0  0  0  0  0  0  0  0  0  0
    9.7548   -0.0608   -0.2631 H   0  0  0  0  0  0  0  0  0  0  0  0
    9.1991   -0.1726   -1.9241 H   0  0  0  0  0  0  0  0  0  0  0  0
    7.9425    3.2412   -0.7563 H   0  0  0  0  0  0  0  0  0  0  0  0
    8.5277    2.5113   -2.3301 H   0  0  0  0  0  0  0  0  0  0  0  0
   11.1276    2.5309   -2.5998 H   0  0  0  0  0  0  0  0  0  0  0  0
   13.1589    3.1009   -1.0777 H   0  0  0  0  0  0  0  0  0  0  0  0
   13.5390    3.6663    1.6270 H   0  0  0  0  0  0  0  0  0  0  0  0
   12.3446    3.8936    3.7732 H   0  0  0  0  0  0  0  0  0  0  0  0
    9.9215    3.5817    3.8517 H   0  0  0  0  0  0  0  0  0  0  0  0
    8.6631    3.0366    1.7359 H   0  0  0  0  0  0  0  0  0  0  0  0
    5.1084   -2.8087   -1.5484 H   0  0  0  0  0  0  0  0  0  0  0  0
    6.6700   -2.8531   -3.1466 H   0  0  0  0  0  0  0  0  0  0  0  0
    5.6429   -1.8549   -4.2912 H   0  0  0  0  0  0  0  0  0  0  0  0
    6.6367   -1.0866   -3.0279 H   0  0  0  0  0  0  0  0  0  0  0  0
    3.1348   -1.4779   -3.4838 H   0  0  0  0  0  0  0  0  0  0  0  0
    2.9530   -3.0343   -2.5974 H   0  0  0  0  0  0  0  0  0  0  0  0
    4.0234   -2.8963   -4.0626 H   0  0  0  0  0  0  0  0  0  0  0  0
   -7.3288    0.1137    1.0394 H   0  0  0  0  0  0  0  0  0  0  0  0
   -5.8046    2.1773    2.6123 H   0  0  0  0  0  0  0  0  0  0  0  0
   -7.7720    2.4062    3.9329 H   0  0  0  0  0  0  0  0  0  0  0  0
   -8.5460    0.9031    3.2407 H   0  0  0  0  0  0  0  0  0  0  0  0
   -7.7994    4.4640    2.6751 H   0  0  0  0  0  0  0  0  0  0  0  0
   -8.9312    5.8632    1.0002 H   0  0  0  0  0  0  0  0  0  0  0  0
  -10.3697    4.7668   -0.6832 H   0  0  0  0  0  0  0  0  0  0  0  0
  -10.6642    2.2867   -0.6797 H   0  0  0  0  0  0  0  0  0  0  0  0
   -9.4871    0.9630    1.0549 H   0  0  0  0  0  0  0  0  0  0  0  0
   -4.9671    0.7425    5.5570 H   0  0  0  0  0  0  0  0  0  0  0  0
   -6.7230    1.3211    5.5430 H   0  0  0  0  0  0  0  0  0  0  0  0
  1  2  1  0
  2  3  1  0
  2  4  1  0
  4  5  1  0
  5  6  1  0
  6  7  1  0
  7  8  2  0
  7  9  1  0
  9 10  1  0
 10 11  1  0
 11 12  2  0
 12 13  1  0
 13 14  2  0
 14 15  1  0
 15 16  2  0
  9 17  1  0
 17 18  1  0
 18 19  2  0
 18 20  1  0
 20 21  1  0
 21 22  1  0
 22 23  2  0
 22 24  1  0
 24 25  1  0
 25 26  1  0
 26 27  2  0
 26 28  1  0
 28 29  1  0
 28 30  1  0
 30 31  1  0
 31 32  2  0
 32 33  1  0
 33 34  1  0
 34 35  2  0
 35 36  1  0
 36 37  2  0
 37 38  1  0
 38 39  2  0
 24 40  1  0
 40 41  1  0
 40 42  1  0
  5 43  1  0
 43 44  2  0
 43 45  1  0
 45 46  1  0
 46 47  1  0
 47 48  1  0
 48 49  2  0
 49 50  1  0
 50 51  2  0
 51 52  1  0
 52 53  2  0
 46 54  1  0
 54 55  1  0
 54 56  2  0
 16 11  1  0
 39 31  1  0
 53 48  1  0
 39 34  1  0
  1 57  1  0
  1 58  1  0
  1 59  1  0
  2 60  1  0
  3 61  1  0
  3 62  1  0
  3 63  1  0
  4 64  1  0
  4 65  1  0
  5 66  1  6
  6 67  1  0
  9 68  1  6
 10 69  1  0
 10 70  1  0
 12 71  1  0
 13 72  1  0
 14 73  1  0
 15 74  1  0
 16 75  1  0
 17 76  1  0
 20 77  1  0
 20 78  1  0
 21 79  1  0
 24 80  1  6
 25 81  1  0
 28 82  1  1
 29 83  1  0
 29 84  1  0
 30 85  1  0
 30 86  1  0
 32 87  1  0
 33 88  1  0
 35 89  1  0
 36 90  1  0
 37 91  1  0
 38 92  1  0
 40 93  1  0
 41 94  1  0
 41 95  1  0
 41 96  1  0
 42 97  1  0
 42 98  1  0
 42 99  1  0
 45100  1  0
 46101  1  6
 47102  1  0
 47103  1  0
 49104  1  0
 50105  1  0
 51106  1  0
 52107  1  0
 53108  1  0
 55109  1  0
 55110  1  0
M  END
$$$$
[H]O[C@]1([H])C([H])([H])C([H])([H])[C@@]([H])(C([H])([H])N([H])C(=O)c2c(C([H])([H])[H])c(/C([H])=C3\C(=O)N([H])c4c([H])c([H])c(F)c([H])c43)n([H])c2C([H])([H])[H])C([H])([H])C1([H])[H]
     RDKit          3D

 56 59  0  0  0  0  0  0  0  0999 V2000
   -0.1625   -2.0170   -1.6912 C   0  0  0  0  0  0  0  0  0  0  0  0
    0.6743   -1.3537   -0.6309 C   0  0  0  0  0  0  0  0  0  0  0  0
    2.0253   -1.2518   -0.7016 N   0  0  0  0  0  0  0  0  0  0  0  0
    2.5491   -0.6347    0.3502 C   0  0  0  0  0  0  0  0  0  0  0  0
    3.9174   -0.2945    0.6737 C   0  0  0  0  0  0  0  0  0  0  0  0
    4.7153    0.4364   -0.0777 C   0  0  0  0  0  0  0  0  0  0  0  0
    4.4008    1.0504   -1.3587 C   0  0  0  0  0  0  0  0  0  0  0  0
    3.3062    1.0125   -1.9625 O   0  0  0  0  0  0  0  0  0  0  0  0
    5.6061    1.7119   -1.7847 N   0  0  0  0  0  0  0  0  0  0  0  0
    6.6243    1.5163   -0.8069 C   0  0  0  0  0  0  0  0  0  0  0  0
    7.9477    1.9472   -0.7491 C   0  0  0  0  0  0  0  0  0  0  0  0
    8.7466    1.6247    0.3184 C   0  0  0  0  0  0  0  0  0  0  0  0
    8.2600    0.8664    1.3600 C   0  0  0  0  0  0  0  0  0  0  0  0
    9.0088    0.5284    2.4240 F   0  0  0  0  0  0  0  0  0  0  0  0
    6.9281    0.4451    1.2800 C   0  0  0  0  0  0  0  0  0  0  0  0
    6.1314    0.7619    0.2241 C   0  0  0  0  0  0  0  0  0  0  0  0
    1.4595   -0.3221    1.1470 C   0  0  0  0  0  0  0  0  0  0  0  0
    1.5734    0.3926    2.4635 C   0  0  0  0  0  0  0  0  0  0  0  0
    0.2826   -0.7692    0.5376 C   0  0  0  0  0  0  0  0  0  0  0  0
   -1.0498   -0.6073    1.0602 C   0  0  0  0  0  0  0  0  0  0  0  0
   -1.0894   -0.1009    2.2542 O   0  0  0  0  0  0  0  0  0  0  0  0
   -2.2740   -0.9175    0.4583 N   0  0  0  0  0  0  0  0  0  0  0  0
   -3.4952   -0.6600    1.1981 C   0  0  0  0  0  0  0  0  0  0  0  0
   -4.7191   -1.0642    0.3658 C   0  0  1  0  0  0  0  0  0  0  0  0
   -5.9147   -0.7699    1.1897 C   0  0  0  0  0  0  0  0  0  0  0  0
   -7.0980   -0.2375    0.4546 C   0  0  0  0  0  0  0  0  0  0  0  0
   -6.5801    0.9724   -0.3393 C   0  0  2  0  0  0  0  0  0  0  0  0
   -7.6468    1.6667   -0.8459 O   0  0  0  0  0  0  0  0  0  0  0  0
   -5.7599    0.3519   -1.4468 C   0  0  0  0  0  0  0  0  0  0  0  0
   -4.6461   -0.5008   -0.9823 C   0  0  0  0  0  0  0  0  0  0  0  0
   -0.7411   -2.8111   -1.1628 H   0  0  0  0  0  0  0  0  0  0  0  0
   -0.7935   -1.2695   -2.1901 H   0  0  0  0  0  0  0  0  0  0  0  0
    0.5357   -2.5139   -2.4052 H   0  0  0  0  0  0  0  0  0  0  0  0
    2.5729   -1.6383   -1.4979 H   0  0  0  0  0  0  0  0  0  0  0  0
    4.3747   -0.6537    1.6173 H   0  0  0  0  0  0  0  0  0  0  0  0
    5.6962    2.2413   -2.6675 H   0  0  0  0  0  0  0  0  0  0  0  0
    8.3571    2.5534   -1.5690 H   0  0  0  0  0  0  0  0  0  0  0  0
    9.7829    1.9538    0.3784 H   0  0  0  0  0  0  0  0  0  0  0  0
    6.5558   -0.1586    2.1187 H   0  0  0  0  0  0  0  0  0  0  0  0
    1.1675   -0.3045    3.2506 H   0  0  0  0  0  0  0  0  0  0  0  0
    0.9342    1.2866    2.4886 H   0  0  0  0  0  0  0  0  0  0  0  0
    2.6164    0.5742    2.7122 H   0  0  0  0  0  0  0  0  0  0  0  0
   -2.3655   -1.3118   -0.4776 H   0  0  0  0  0  0  0  0  0  0  0  0
   -3.4940   -1.3422    2.0730 H   0  0  0  0  0  0  0  0  0  0  0  0
   -3.5206    0.4033    1.4647 H   0  0  0  0  0  0  0  0  0  0  0  0
   -4.6328   -2.1901    0.2967 H   0  0  0  0  0  0  0  0  0  0  0  0
   -5.6902   -0.0284    2.0141 H   0  0  0  0  0  0  0  0  0  0  0  0
   -6.2715   -1.6807    1.7571 H   0  0  0  0  0  0  0  0  0  0  0  0
   -7.8314    0.1522    1.1790 H   0  0  0  0  0  0  0  0  0  0  0  0
   -7.5385   -0.9739   -0.2574 H   0  0  0  0  0  0  0  0  0  0  0  0
   -5.9440    1.5512    0.3623 H   0  0  0  0  0  0  0  0  0  0  0  0
   -7.3846    2.6380   -0.8729 H   0  0  0  0  0  0  0  0  0  0  0  0
   -5.4290    1.1776   -2.1196 H   0  0  0  0  0  0  0  0  0  0  0  0
   -6.4852   -0.2487   -2.0702 H   0  0  0  0  0  0  0  0  0  0  0  0
   -3.6999    0.1138   -1.0768 H   0  0  0  0  0  0  0  0  0  0  0  0
   -4.4928   -1.3037   -1.7660 H   0  0  0  0  0  0  0  0  0  0  0  0
  1  2  1  0
  2  3  1  0
  3  4  1  0
  4  5  1  0
  5  6  2  0
  6  7  1  0
  7  8  2  0
  7  9  1  0
  9 10  1  0
 10 11  2  0
 11 12  1  0
 12 13  2  0
 13 14  1  0
 13 15  1  0
 15 16  2  0
  4 17  2  0
 17 18  1  0
 17 19  1  0
 19 20  1  0
 20 21  2  0
 20 22  1  0
 22 23  1  0
 23 24  1  0
 24 25  1  0
 25 26  1  0
 26 27  1  0
 27 28  1  0
 27 29  1  0
 29 30  1  0
 19  2  2  0
 30 24  1  0
 16  6  1  0
 16 10  1  0
  1 31  1  0
  1 32  1  0
  1 33  1  0
  3 34  1  0
  5 35  1  0
  9 36  1  0
 11 37  1  0
 12 38  1  0
 15 39  1  0
 18 40  1  0
 18 41  1  0
 18 42  1  0
 22 43  1  0
 23 44  1  0
 23 45  1  0
 24 46  1  6
 25 47  1  0
 25 48  1  0
 26 49  1  0
 26 50  1  0
 27 51  1  1
 28 52  1  0
 29 53  1  0
 29 54  1  0
 30 55  1  0
 30 56  1  0
M  END
$$$$
[H]c1c([H])c([H])c2c([H])c(S(=O)(=O)n3c4c([H])c([H])c([H])c([H])c4c4c([H])c(OC([H])([H])[H])c([H])c([H])c43)c([H])c([H])c2c1[H]
     RDKit          3D

 45 49  0  0  0  0  0  0  0  0999 V2000
   -4.2306    0.9909    3.8785 C   0  0  0  0  0  0  0  0  0  0  0  0
   -4.2844    0.1521    2.7442 O   0  0  0  0  0  0  0  0  0  0  0  0
   -3.3637    0.2185    1.7146 C   0  0  0  0  0  0  0  0  0  0  0  0
   -2.3148    1.0878    1.6769 C   0  0  0  0  0  0  0  0  0  0  0  0
   -1.4316    1.0869    0.5973 C   0  0  0  0  0  0  0  0  0  0  0  0
   -1.5828    0.2089   -0.4722 C   0  0  0  0  0  0  0  0  0  0  0  0
   -0.8816    0.0305   -1.6007 N   0  0  0  0  0  0  0  0  0  0  0  0
   -1.5249   -0.9771   -2.2730 C   0  0  0  0  0  0  0  0  0  0  0  0
   -1.2669   -1.5819   -3.4751 C   0  0  0  0  0  0  0  0  0  0  0  0
   -2.1048   -2.6058   -3.9279 C   0  0  0  0  0  0  0  0  0  0  0  0
   -3.1834   -3.0079   -3.1751 C   0  0  0  0  0  0  0  0  0  0  0  0
   -3.4617   -2.4144   -1.9644 C   0  0  0  0  0  0  0  0  0  0  0  0
   -2.6193   -1.4070   -1.5411 C   0  0  0  0  0  0  0  0  0  0  0  0
   -2.6478   -0.6421   -0.3903 C   0  0  0  0  0  0  0  0  0  0  0  0
   -3.5331   -0.6571    0.6689 C   0  0  0  0  0  0  0  0  0  0  0  0
    0.5392    0.8473   -2.0858 S   0  0  0  0  0  0  0  0  0  0  0  0
    0.2672    2.3561   -2.2027 O   0  0  0  0  0  0  0  0  0  0  0  0
    0.9969    0.4530   -3.4538 O   0  0  0  0  0  0  0  0  0  0  0  0
    1.9058    0.5988   -1.0186 C   0  0  0  0  0  0  0  0  0  0  0  0
    2.6393   -0.5865   -1.1621 C   0  0  0  0  0  0  0  0  0  0  0  0
    3.7448   -0.8819   -0.3988 C   0  0  0  0  0  0  0  0  0  0  0  0
    4.1318    0.0487    0.5477 C   0  0  0  0  0  0  0  0  0  0  0  0
    5.2420   -0.1920    1.3511 C   0  0  0  0  0  0  0  0  0  0  0  0
    5.6282    0.7346    2.2943 C   0  0  0  0  0  0  0  0  0  0  0  0
    4.9118    1.8981    2.4384 C   0  0  0  0  0  0  0  0  0  0  0  0
    3.8065    2.1778    1.6649 C   0  0  0  0  0  0  0  0  0  0  0  0
    3.4335    1.2231    0.7146 C   0  0  0  0  0  0  0  0  0  0  0  0
    2.3341    1.4836   -0.0663 C   0  0  0  0  0  0  0  0  0  0  0  0
   -3.2622    0.8622    4.4170 H   0  0  0  0  0  0  0  0  0  0  0  0
   -5.1043    0.7565    4.5176 H   0  0  0  0  0  0  0  0  0  0  0  0
   -4.3582    2.0369    3.5194 H   0  0  0  0  0  0  0  0  0  0  0  0
   -2.1692    1.7775    2.4853 H   0  0  0  0  0  0  0  0  0  0  0  0
   -0.6120    1.7773    0.5544 H   0  0  0  0  0  0  0  0  0  0  0  0
   -0.4349   -1.2919   -4.0836 H   0  0  0  0  0  0  0  0  0  0  0  0
   -1.8634   -3.0630   -4.8942 H   0  0  0  0  0  0  0  0  0  0  0  0
   -3.8013   -3.8078   -3.5744 H   0  0  0  0  0  0  0  0  0  0  0  0
   -4.3077   -2.7245   -1.3661 H   0  0  0  0  0  0  0  0  0  0  0  0
   -4.3652   -1.3778    0.6537 H   0  0  0  0  0  0  0  0  0  0  0  0
    2.3423   -1.3294   -1.9075 H   0  0  0  0  0  0  0  0  0  0  0  0
    4.3040   -1.8099   -0.5242 H   0  0  0  0  0  0  0  0  0  0  0  0
    5.7826   -1.1332    1.2009 H   0  0  0  0  0  0  0  0  0  0  0  0
    6.4790    0.5542    2.9127 H   0  0  0  0  0  0  0  0  0  0  0  0
    5.2188    2.6186    3.1777 H   0  0  0  0  0  0  0  0  0  0  0  0
    3.2330    3.0919    1.7689 H   0  0  0  0  0  0  0  0  0  0  0  0
    1.7691    2.4192    0.0590 H   0  0  0  0  0  0  0  0  0  0  0  0
  1  2  1  0
  2  3  1  0
  3  4  2  0
  4  5  1  0
  5  6  2  0
  6  7  1  0
  7  8  1  0
  8  9  2  0
  9 10  1  0
 10 11  2  0
 11 12  1  0
 12 13  2  0
 13 14  1  0
 14 15  2  0
  7 16  1  0
 16 17  2  0
 16 18  2  0
 16 19  1  0
 19 20  2  0
 20 21  1  0
 21 22  2  0
 22 23  1  0
 23 24  2  0
 24 25  1  0
 25 26  2  0
 26 27  1  0
 27 28  2  0
 15  3  1  0
 28 19  1  0
 14  6  1  0
 27 22  1  0
 13  8  1  0
  1 29  1  0
  1 30  1  0
  1 31  1  0
  4 32  1  0
  5 33  1  0
  9 34  1  0
 10 35  1  0
 11 36  1  0
 12 37  1  0
 15 38  1  0
 20 39  1  0
 21 40  1  0
 23 41  1  0
 24 42  1  0
 25 43  1  0
 26 44  1  0
 28 45  1  0
M  END
$$$$
[H]c1nc(N([H])c2c([H])c([H])c(N3C([H])([H])C([H])([H])C([H])(N4C([H])([H])C([H])([H])N(C([H])([H])[H])C([H])([H])C4([H])[H])C([H])([H])C3([H])[H])c([H])c2OC([H])([H])[H])nc(N([H])c2c([H])c([H])c([H])c([H])c2S(=O)(=O)C([H])(C([H])([H])[H])C([H])([H])[H])c1Cl
     RDKit          3D

 82 86  0  0  0  0  0  0  0  0999 V2000
   -0.1870    3.7228   -1.2569 C   0  0  0  0  0  0  0  0  0  0  0  0
    0.4390    2.5297   -0.8437 O   0  0  0  0  0  0  0  0  0  0  0  0
   -0.3483    1.4775   -0.4024 C   0  0  0  0  0  0  0  0  0  0  0  0
   -1.7220    1.6350   -0.3827 C   0  0  0  0  0  0  0  0  0  0  0  0
   -2.5624    0.6308    0.0436 C   0  0  0  0  0  0  0  0  0  0  0  0
   -1.9599   -0.5357    0.4478 C   0  0  0  0  0  0  0  0  0  0  0  0
   -0.5748   -0.7280    0.4408 C   0  0  0  0  0  0  0  0  0  0  0  0
    0.2576    0.2764    0.0150 C   0  0  0  0  0  0  0  0  0  0  0  0
    1.6540    0.2011   -0.0367 N   0  0  0  0  0  0  0  0  0  0  0  0
    2.4984   -0.8842    0.3177 C   0  0  0  0  0  0  0  0  0  0  0  0
    2.1033   -2.0726    0.7812 N   0  0  0  0  0  0  0  0  0  0  0  0
    2.9559   -3.0558    1.0957 C   0  0  0  0  0  0  0  0  0  0  0  0
    4.3092   -2.8632    0.9451 C   0  0  0  0  0  0  0  0  0  0  0  0
    5.4455   -4.1449    1.3534 Cl  0  0  0  0  0  0  0  0  0  0  0  0
    4.7527   -1.6166    0.4572 C   0  0  0  0  0  0  0  0  0  0  0  0
    6.1380   -1.4466    0.3110 N   0  0  0  0  0  0  0  0  0  0  0  0
    6.9009   -0.3576   -0.1368 C   0  0  0  0  0  0  0  0  0  0  0  0
    6.2766    0.8084   -0.5266 C   0  0  0  0  0  0  0  0  0  0  0  0
    7.0240    1.9039   -0.9778 C   0  0  0  0  0  0  0  0  0  0  0  0
    8.3820    1.8034   -1.0274 C   0  0  0  0  0  0  0  0  0  0  0  0
    9.0024    0.6381   -0.6374 C   0  0  0  0  0  0  0  0  0  0  0  0
    8.2961   -0.4485   -0.1920 C   0  0  0  0  0  0  0  0  0  0  0  0
    9.0842   -1.8926    0.2913 S   0  0  0  0  0  0  0  0  0  0  0  0
    8.6633   -3.0312   -0.6035 O   0  0  0  0  0  0  0  0  0  0  0  0
    8.8235   -2.3045    1.7132 O   0  0  0  0  0  0  0  0  0  0  0  0
   10.8572   -1.7881    0.1370 C   0  0  0  0  0  0  0  0  0  0  0  0
   11.2609   -1.6791   -1.2975 C   0  0  0  0  0  0  0  0  0  0  0  0
   11.4760   -0.7869    1.0544 C   0  0  0  0  0  0  0  0  0  0  0  0
    3.8248   -0.7008    0.1721 N   0  0  0  0  0  0  0  0  0  0  0  0
   -3.9818    0.8060    0.0512 N   0  0  0  0  0  0  0  0  0  0  0  0
   -4.5241    1.9609   -0.5784 C   0  0  0  0  0  0  0  0  0  0  0  0
   -6.0011    1.9283   -0.8544 C   0  0  0  0  0  0  0  0  0  0  0  0
   -6.8245    1.3726    0.2584 C   0  0  0  0  0  0  0  0  0  0  0  0
   -6.0036    0.6088    1.2781 C   0  0  0  0  0  0  0  0  0  0  0  0
   -4.8657   -0.1463    0.6796 C   0  0  0  0  0  0  0  0  0  0  0  0
   -7.9560    0.6086   -0.0875 N   0  0  0  0  0  0  0  0  0  0  0  0
   -7.7905   -0.5856   -0.8057 C   0  0  0  0  0  0  0  0  0  0  0  0
   -9.1362   -1.0235   -1.3907 C   0  0  0  0  0  0  0  0  0  0  0  0
  -10.1390   -0.8718   -0.3544 N   0  0  0  0  0  0  0  0  0  0  0  0
  -10.0361   -1.8235    0.7053 C   0  0  0  0  0  0  0  0  0  0  0  0
  -10.3349    0.4834    0.0484 C   0  0  0  0  0  0  0  0  0  0  0  0
   -9.1475    1.3193   -0.4248 C   0  0  0  0  0  0  0  0  0  0  0  0
    0.5375    4.4499   -1.6799 H   0  0  0  0  0  0  0  0  0  0  0  0
   -0.9481    3.5330   -2.0530 H   0  0  0  0  0  0  0  0  0  0  0  0
   -0.6880    4.2523   -0.4156 H   0  0  0  0  0  0  0  0  0  0  0  0
   -2.1476    2.5764   -0.7105 H   0  0  0  0  0  0  0  0  0  0  0  0
   -2.6020   -1.3517    0.7883 H   0  0  0  0  0  0  0  0  0  0  0  0
   -0.2121   -1.6859    0.7807 H   0  0  0  0  0  0  0  0  0  0  0  0
    2.1500    1.0935   -0.3956 H   0  0  0  0  0  0  0  0  0  0  0  0
    2.6174   -4.0222    1.4737 H   0  0  0  0  0  0  0  0  0  0  0  0
    6.7215   -2.3022    0.5911 H   0  0  0  0  0  0  0  0  0  0  0  0
    5.2202    0.9989   -0.5296 H   0  0  0  0  0  0  0  0  0  0  0  0
    6.5603    2.8305   -1.2896 H   0  0  0  0  0  0  0  0  0  0  0  0
    9.0220    2.6252   -1.3712 H   0  0  0  0  0  0  0  0  0  0  0  0
   10.0936    0.6299   -0.7052 H   0  0  0  0  0  0  0  0  0  0  0  0
   11.2252   -2.8031    0.4806 H   0  0  0  0  0  0  0  0  0  0  0  0
   11.9033   -0.7785   -1.4926 H   0  0  0  0  0  0  0  0  0  0  0  0
   10.3307   -1.5514   -1.9199 H   0  0  0  0  0  0  0  0  0  0  0  0
   11.7765   -2.5763   -1.6995 H   0  0  0  0  0  0  0  0  0  0  0  0
   12.0225   -1.2557    1.8769 H   0  0  0  0  0  0  0  0  0  0  0  0
   12.1781   -0.1622    0.4319 H   0  0  0  0  0  0  0  0  0  0  0  0
   10.7434   -0.0899    1.5079 H   0  0  0  0  0  0  0  0  0  0  0  0
   -4.2803    2.8410    0.0525 H   0  0  0  0  0  0  0  0  0  0  0  0
   -3.9354    2.1199   -1.5269 H   0  0  0  0  0  0  0  0  0  0  0  0
   -6.3084    2.9635   -1.1164 H   0  0  0  0  0  0  0  0  0  0  0  0
   -6.1470    1.3325   -1.7818 H   0  0  0  0  0  0  0  0  0  0  0  0
   -7.2139    2.2642    0.8421 H   0  0  0  0  0  0  0  0  0  0  0  0
   -6.6586   -0.1075    1.8153 H   0  0  0  0  0  0  0  0  0  0  0  0
   -5.5929    1.2907    2.0626 H   0  0  0  0  0  0  0  0  0  0  0  0
   -5.1731   -0.8869   -0.0780 H   0  0  0  0  0  0  0  0  0  0  0  0
   -4.3121   -0.6097    1.5260 H   0  0  0  0  0  0  0  0  0  0  0  0
   -7.5080   -1.4012   -0.0997 H   0  0  0  0  0  0  0  0  0  0  0  0
   -7.0082   -0.5774   -1.5870 H   0  0  0  0  0  0  0  0  0  0  0  0
   -9.4445   -0.3742   -2.2343 H   0  0  0  0  0  0  0  0  0  0  0  0
   -9.0261   -2.0597   -1.7202 H   0  0  0  0  0  0  0  0  0  0  0  0
   -9.1822   -2.5377    0.5321 H   0  0  0  0  0  0  0  0  0  0  0  0
   -9.9814   -1.3564    1.7041 H   0  0  0  0  0  0  0  0  0  0  0  0
  -10.9456   -2.4645    0.6802 H   0  0  0  0  0  0  0  0  0  0  0  0
  -11.2261    0.8855   -0.4545 H   0  0  0  0  0  0  0  0  0  0  0  0
  -10.4517    0.5517    1.1515 H   0  0  0  0  0  0  0  0  0  0  0  0
   -9.2778    1.5186   -1.4917 H   0  0  0  0  0  0  0  0  0  0  0  0
   -9.1611    2.2698    0.1783 H   0  0  0  0  0  0  0  0  0  0  0  0
  1  2  1  0
  2  3  1  0
  3  4  2  0
  4  5  1  0
  5  6  2  0
  6  7  1  0
  7  8  2  0
  8  9  1  0
  9 10  1  0
 10 11  2  0
 11 12  1  0
 12 13  2  0
 13 14  1  0
 13 15  1  0
 15 16  1  0
 16 17  1  0
 17 18  2  0
 18 19  1  0
 19 20  2  0
 20 21  1  0
 21 22  2  0
 22 23  1  0
 23 24  2  0
 23 25  2  0
 23 26  1  0
 26 27  1  0
 26 28  1  0
 15 29  2  0
  5 30  1  0
 30 31  1  0
 31 32  1  0
 32 33  1  0
 33 34  1  0
 34 35  1  0
 33 36  1  0
 36 37  1  0
 37 38  1  0
 38 39  1  0
 39 40  1  0
 39 41  1  0
 41 42  1  0
  8  3  1  0
 29 10  1  0
 35 30  1  0
 42 36  1  0
 22 17  1  0
  1 43  1  0
  1 44  1  0
  1 45  1  0
  4 46  1  0
  6 47  1  0
  7 48  1  0
  9 49  1  0
 12 50  1  0
 16 51  1  0
 18 52  1  0
 19 53  1  0
 20 54  1  0
 21 55  1  0
 26 56  1  0
 27 57  1  0
 27 58  1  0
 27 59  1  0
 28 60  1  0
 28 61  1  0
 28 62  1  0
 31 63  1  0
 31 64  1  0
 32 65  1  0
 32 66  1  0
 33 67  1  0
 34 68  1  0
 34 69  1  0
 35 70  1  0
 35 71  1  0
 37 72  1  0
 37 73  1  0
 38 74  1  0
 38 75  1  0
 40 76  1  0
 40 77  1  0
 40 78  1  0
 41 79  1  0
 41 80  1  0
 42 81  1  0
 42 82  1  0
M  END
$$$$
[H]c1c([H])c(C2=NN(C3([H])C([H])([H])C([H])([H])N(C(=O)C([H])([H])N4C(=O)C([H])([H])C([H])([H])C4=O)C([H])([H])C3([H])[H])C(=O)C2(C([H])([H])[H])C([H])([H])[H])c([H])c(OC([H])([H])[H])c1OC([H])([H])[H]
     RDKit          3D

 64 67  0  0  0  0  0  0  0  0999 V2000
    9.2009   -0.5555    0.0854 C   0  0  0  0  0  0  0  0  0  0  0  0
    8.0187   -1.2520   -0.1745 O   0  0  0  0  0  0  0  0  0  0  0  0
    6.7431   -0.7287   -0.0327 C   0  0  0  0  0  0  0  0  0  0  0  0
    6.5154    0.5662    0.3906 C   0  0  0  0  0  0  0  0  0  0  0  0
    5.1962    1.0016    0.5023 C   0  0  0  0  0  0  0  0  0  0  0  0
    4.1112    0.2046    0.2115 C   0  0  0  0  0  0  0  0  0  0  0  0
    4.3800   -1.1045   -0.2155 C   0  0  0  0  0  0  0  0  0  0  0  0
    5.6748   -1.5472   -0.3302 C   0  0  0  0  0  0  0  0  0  0  0  0
    5.9181   -2.8439   -0.7537 O   0  0  0  0  0  0  0  0  0  0  0  0
    4.8548   -3.7401   -1.0768 C   0  0  0  0  0  0  0  0  0  0  0  0
    2.7397    0.6757    0.3337 C   0  0  0  0  0  0  0  0  0  0  0  0
    1.7045   -0.0389    0.0719 N   0  0  0  0  0  0  0  0  0  0  0  0
    0.5288    0.6450    0.2693 N   0  0  0  0  0  0  0  0  0  0  0  0
   -0.8455    0.1825    0.0823 C   0  0  0  0  0  0  0  0  0  0  0  0
   -1.5708    0.2721    1.3769 C   0  0  0  0  0  0  0  0  0  0  0  0
   -2.8536    1.0589    1.3048 C   0  0  0  0  0  0  0  0  0  0  0  0
   -3.5802    0.6204    0.1397 N   0  0  0  0  0  0  0  0  0  0  0  0
   -2.9289    0.8375   -1.1521 C   0  0  0  0  0  0  0  0  0  0  0  0
   -1.4447    1.0034   -1.0217 C   0  0  0  0  0  0  0  0  0  0  0  0
   -4.8537    0.0103    0.1999 C   0  0  0  0  0  0  0  0  0  0  0  0
   -5.3871   -0.1628    1.3193 O   0  0  0  0  0  0  0  0  0  0  0  0
   -5.5694   -0.4263   -1.0112 C   0  0  0  0  0  0  0  0  0  0  0  0
   -6.8489   -1.0190   -0.6805 N   0  0  0  0  0  0  0  0  0  0  0  0
   -7.1287   -2.3872   -0.4056 C   0  0  0  0  0  0  0  0  0  0  0  0
   -6.2725   -3.3146   -0.3875 O   0  0  0  0  0  0  0  0  0  0  0  0
   -8.5697   -2.5920   -0.1392 C   0  0  0  0  0  0  0  0  0  0  0  0
   -9.2149   -1.2654   -0.4166 C   0  0  0  0  0  0  0  0  0  0  0  0
   -8.1003   -0.3203   -0.5664 C   0  0  0  0  0  0  0  0  0  0  0  0
   -8.2219    0.9384   -0.5917 O   0  0  0  0  0  0  0  0  0  0  0  0
    0.8405    1.9553    0.7105 C   0  0  0  0  0  0  0  0  0  0  0  0
    0.0908    2.9165    1.0107 O   0  0  0  0  0  0  0  0  0  0  0  0
    2.3300    2.0222    0.7684 C   0  0  0  0  0  0  0  0  0  0  0  0
    2.8187    3.1173   -0.1602 C   0  0  0  0  0  0  0  0  0  0  0  0
    2.7567    2.2624    2.2028 C   0  0  0  0  0  0  0  0  0  0  0  0
    9.4800    0.1260   -0.7383 H   0  0  0  0  0  0  0  0  0  0  0  0
   10.0219   -1.3154    0.1911 H   0  0  0  0  0  0  0  0  0  0  0  0
    9.1889    0.0095    1.0325 H   0  0  0  0  0  0  0  0  0  0  0  0
    7.3247    1.2329    0.6316 H   0  0  0  0  0  0  0  0  0  0  0  0
    5.0234    2.0207    0.8357 H   0  0  0  0  0  0  0  0  0  0  0  0
    3.5343   -1.7381   -0.4464 H   0  0  0  0  0  0  0  0  0  0  0  0
    4.2409   -3.1900   -1.8467 H   0  0  0  0  0  0  0  0  0  0  0  0
    5.2309   -4.6345   -1.5823 H   0  0  0  0  0  0  0  0  0  0  0  0
    4.1876   -3.9266   -0.2250 H   0  0  0  0  0  0  0  0  0  0  0  0
   -0.7805   -0.8741   -0.2657 H   0  0  0  0  0  0  0  0  0  0  0  0
   -1.8431   -0.7588    1.7395 H   0  0  0  0  0  0  0  0  0  0  0  0
   -0.9641    0.7155    2.2038 H   0  0  0  0  0  0  0  0  0  0  0  0
   -2.7032    2.1447    1.2297 H   0  0  0  0  0  0  0  0  0  0  0  0
   -3.4104    0.8706    2.2448 H   0  0  0  0  0  0  0  0  0  0  0  0
   -3.3388    1.8044   -1.5361 H   0  0  0  0  0  0  0  0  0  0  0  0
   -3.2289    0.0605   -1.8785 H   0  0  0  0  0  0  0  0  0  0  0  0
   -0.9958    0.6187   -1.9837 H   0  0  0  0  0  0  0  0  0  0  0  0
   -1.1215    2.0579   -0.9565 H   0  0  0  0  0  0  0  0  0  0  0  0
   -4.9377   -1.1231   -1.6342 H   0  0  0  0  0  0  0  0  0  0  0  0
   -5.7723    0.4441   -1.6997 H   0  0  0  0  0  0  0  0  0  0  0  0
   -8.7647   -2.9390    0.9078 H   0  0  0  0  0  0  0  0  0  0  0  0
   -8.9565   -3.3824   -0.8436 H   0  0  0  0  0  0  0  0  0  0  0  0
   -9.8590   -0.9628    0.4573 H   0  0  0  0  0  0  0  0  0  0  0  0
   -9.8962   -1.2829   -1.2877 H   0  0  0  0  0  0  0  0  0  0  0  0
    1.9570    3.5931   -0.6626 H   0  0  0  0  0  0  0  0  0  0  0  0
    3.3253    3.8764    0.4756 H   0  0  0  0  0  0  0  0  0  0  0  0
    3.4651    2.6778   -0.9198 H   0  0  0  0  0  0  0  0  0  0  0  0
    1.8719    2.2345    2.8597 H   0  0  0  0  0  0  0  0  0  0  0  0
    3.4270    1.4149    2.5212 H   0  0  0  0  0  0  0  0  0  0  0  0
    3.2615    3.2337    2.2656 H   0  0  0  0  0  0  0  0  0  0  0  0
  1  2  1  0
  2  3  1  0
  3  4  2  0
  4  5  1  0
  5  6  2  0
  6  7  1  0
  7  8  2  0
  8  9  1  0
  9 10  1  0
  6 11  1  0
 11 12  2  0
 12 13  1  0
 13 14  1  0
 14 15  1  0
 15 16  1  0
 16 17  1  0
 17 18  1  0
 18 19  1  0
 17 20  1  0
 20 21  2  0
 20 22  1  0
 22 23  1  0
 23 24  1  0
 24 25  2  0
 24 26  1  0
 26 27  1  0
 27 28  1  0
 28 29  2  0
 13 30  1  0
 30 31  2  0
 30 32  1  0
 32 33  1  0
 32 34  1  0
  8  3  1  0
 32 11  1  0
 19 14  1  0
 28 23  1  0
  1 35  1  0
  1 36  1  0
  1 37  1  0
  4 38  1  0
  5 39  1  0
  7 40  1  0
 10 41  1  0
 10 42  1  0
 10 43  1  0
 14 44  1  0
 15 45  1  0
 15 46  1  0
 16 47  1  0
 16 48  1  0
 18 49  1  0
 18 50  1  0
 19 51  1  0
 19 52  1  0
 22 53  1  0
 22 54  1  0
 26 55  1  0
 26 56  1  0
 27 57  1  0
 27 58  1  0
 33 59  1  0
 33 60  1  0
 33 61  1  0
 34 62  1  0
 34 63  1  0
 34 64  1  0
M  END
$$$$
[H]c1c([H])c([H])c(C#Cc2nc(C([H])([H])[H])c([H])n3c([H])c(C#N)c([H])c23)c([H])c1[H]
     RDKit          3D

 31 33  0  0  0  0  0  0  0  0999 V2000
   -3.5019    3.3253    0.0709 C   0  0  0  0  0  0  0  0  0  0  0  0
   -2.9005    1.9613    0.0942 C   0  0  0  0  0  0  0  0  0  0  0  0
   -3.7280    0.8589    0.1463 C   0  0  0  0  0  0  0  0  0  0  0  0
   -3.2105   -0.3845    0.1683 N   0  0  0  0  0  0  0  0  0  0  0  0
   -3.8122   -1.5896    0.2176 C   0  0  0  0  0  0  0  0  0  0  0  0
   -2.7926   -2.5174    0.2179 C   0  0  0  0  0  0  0  0  0  0  0  0
   -1.5889   -1.8474    0.1684 C   0  0  0  0  0  0  0  0  0  0  0  0
   -1.8830   -0.5089    0.1381 C   0  0  0  0  0  0  0  0  0  0  0  0
   -1.0256    0.5925    0.0852 C   0  0  0  0  0  0  0  0  0  0  0  0
   -1.5600    1.8296    0.0638 N   0  0  0  0  0  0  0  0  0  0  0  0
    0.4069    0.3887    0.0546 C   0  0  0  0  0  0  0  0  0  0  0  0
    1.6084    0.2373    0.0374 C   0  0  0  0  0  0  0  0  0  0  0  0
    3.0355    0.0772    0.0327 C   0  0  0  0  0  0  0  0  0  0  0  0
    3.6232   -0.9178   -0.7213 C   0  0  0  0  0  0  0  0  0  0  0  0
    5.0026   -1.0700   -0.7238 C   0  0  0  0  0  0  0  0  0  0  0  0
    5.8154   -0.2311    0.0265 C   0  0  0  0  0  0  0  0  0  0  0  0
    5.2335    0.7639    0.7810 C   0  0  0  0  0  0  0  0  0  0  0  0
    3.8625    0.9024    0.7731 C   0  0  0  0  0  0  0  0  0  0  0  0
   -2.9323   -3.9454    0.2617 C   0  0  0  0  0  0  0  0  0  0  0  0
   -3.0661   -5.1109    0.3029 N   0  0  0  0  0  0  0  0  0  0  0  0
   -3.6579    3.6099    1.1367 H   0  0  0  0  0  0  0  0  0  0  0  0
   -2.7512    4.0383   -0.3703 H   0  0  0  0  0  0  0  0  0  0  0  0
   -4.4410    3.3633   -0.5074 H   0  0  0  0  0  0  0  0  0  0  0  0
   -4.7976    0.9547    0.1708 H   0  0  0  0  0  0  0  0  0  0  0  0
   -4.8899   -1.7955    0.2508 H   0  0  0  0  0  0  0  0  0  0  0  0
   -0.5861   -2.2844    0.1552 H   0  0  0  0  0  0  0  0  0  0  0  0
    2.9734   -1.5710   -1.3069 H   0  0  0  0  0  0  0  0  0  0  0  0
    5.4224   -1.8608   -1.3271 H   0  0  0  0  0  0  0  0  0  0  0  0
    6.8912   -0.3615    0.0152 H   0  0  0  0  0  0  0  0  0  0  0  0
    5.8687    1.4155    1.3641 H   0  0  0  0  0  0  0  0  0  0  0  0
    3.3819    1.6774    1.3584 H   0  0  0  0  0  0  0  0  0  0  0  0
  1  2  1  0
  2  3  2  0
  3  4  1  0
  4  5  1  0
  5  6  2  0
  6  7  1  0
  7  8  2  0
  8  9  1  0
  9 10  2  0
  9 11  1  0
 11 12  3  0
 12 13  1  0
 13 14  2  0
 14 15  1  0
 15 16  2  0
 16 17  1  0
 17 18  2  0
  6 19  1  0
 19 20  3  0
 10  2  1  0
 18 13  1  0
  8  4  1  0
  1 21  1  0
  1 22  1  0
  1 23  1  0
  3 24  1  0
  5 25  1  0
  7 26  1  0
 14 27  1  0
 15 28  1  0
 16 29  1  0
 17 30  1  0
 18 31  1  0
M  END
$$$$
[H]N=C(N([H])[H])N([H])C([H])([H])C([H])([H])C([H])([H])[C@@]([H])(C(=O)N([H])[C@]([H])(C([H])=O)C([H])([H])C([H])([H])C([H])([H])N=C(N([H])[H])N([H])[H])N([H])C(=O)[C@@]1([H])N(C(=O)[C@@]([H])(N([H])C(=O)OC([H])([H])c2c([H])c([H])c([H])c([H])c2[H])C([H])([H])c2c([H])c([H])c([H])c([H])c2[H])C([H])([H])C([H])([H])C1([H])[H]
     RDKit          3D

 98100  0  0  0  0  0  0  0  0999 V2000
    7.4020   -3.8391    3.0277 N   0  0  0  0  0  0  0  0  0  0  0  0
    6.9713   -2.6363    3.6685 C   0  0  0  0  0  0  0  0  0  0  0  0
    7.5570   -2.1125    4.6543 N   0  0  0  0  0  0  0  0  0  0  0  0
    5.7920   -2.0264    3.1181 N   0  0  0  0  0  0  0  0  0  0  0  0
    4.5277   -2.7132    3.2091 C   0  0  0  0  0  0  0  0  0  0  0  0
    3.4651   -1.9050    2.5145 C   0  0  0  0  0  0  0  0  0  0  0  0
    3.3005   -0.5752    3.1617 C   0  0  0  0  0  0  0  0  0  0  0  0
    2.2366    0.3001    2.4762 C   0  0  2  0  0  0  0  0  0  0  0  0
    0.9787   -0.2464    2.4466 N   0  0  0  0  0  0  0  0  0  0  0  0
   -0.2903   -0.7968    2.4176 C   0  0  0  0  0  0  0  0  0  0  0  0
   -1.2701   -0.3941    3.1601 O   0  0  0  0  0  0  0  0  0  0  0  0
   -0.6703   -1.8976    1.5404 C   0  0  2  0  0  0  0  0  0  0  0  0
    0.1768   -2.2822    0.3951 C   0  0  0  0  0  0  0  0  0  0  0  0
   -0.7066   -3.3533   -0.2819 C   0  0  0  0  0  0  0  0  0  0  0  0
   -2.0789   -3.2073    0.3927 C   0  0  0  0  0  0  0  0  0  0  0  0
   -1.9721   -1.7941    0.8774 N   0  0  0  0  0  0  0  0  0  0  0  0
   -2.9066   -0.7988    0.6601 C   0  0  0  0  0  0  0  0  0  0  0  0
   -2.7659    0.3647    1.1059 O   0  0  0  0  0  0  0  0  0  0  0  0
   -4.1694   -1.1031   -0.1570 C   0  0  2  0  0  0  0  0  0  0  0  0
   -3.7277   -1.0080   -1.5587 C   0  0  0  0  0  0  0  0  0  0  0  0
   -4.6213   -1.3258   -2.6593 C   0  0  0  0  0  0  0  0  0  0  0  0
   -4.9623   -2.6855   -2.8749 C   0  0  0  0  0  0  0  0  0  0  0  0
   -5.7216   -3.0869   -3.9421 C   0  0  0  0  0  0  0  0  0  0  0  0
   -6.1981   -2.1756   -4.8795 C   0  0  0  0  0  0  0  0  0  0  0  0
   -5.8834   -0.8773   -4.6957 C   0  0  0  0  0  0  0  0  0  0  0  0
   -5.1113   -0.4629   -3.6050 C   0  0  0  0  0  0  0  0  0  0  0  0
   -5.1489   -0.2846    0.4214 N   0  0  0  0  0  0  0  0  0  0  0  0
   -6.0883    0.6625    0.0469 C   0  0  0  0  0  0  0  0  0  0  0  0
   -6.3452    1.1357   -1.0760 O   0  0  0  0  0  0  0  0  0  0  0  0
   -6.9308    1.2303    1.0579 O   0  0  0  0  0  0  0  0  0  0  0  0
   -7.8544    2.2188    0.7173 C   0  0  0  0  0  0  0  0  0  0  0  0
   -8.8229    1.8595   -0.3072 C   0  0  0  0  0  0  0  0  0  0  0  0
   -8.9197    2.6719   -1.4453 C   0  0  0  0  0  0  0  0  0  0  0  0
   -9.8121    2.4274   -2.4628 C   0  0  0  0  0  0  0  0  0  0  0  0
  -10.6661    1.3502   -2.4017 C   0  0  0  0  0  0  0  0  0  0  0  0
  -10.5893    0.5410   -1.2976 C   0  0  0  0  0  0  0  0  0  0  0  0
   -9.6856    0.8029   -0.2871 C   0  0  0  0  0  0  0  0  0  0  0  0
    2.7774    0.7339    1.1455 C   0  0  0  0  0  0  0  0  0  0  0  0
    2.1359    0.6117    0.0653 O   0  0  0  0  0  0  0  0  0  0  0  0
    4.0838    1.3145    1.0945 N   0  0  0  0  0  0  0  0  0  0  0  0
    4.6015    1.7338   -0.2362 C   0  0  1  0  0  0  0  0  0  0  0  0
    4.7617    3.2247   -0.2477 C   0  0  0  0  0  0  0  0  0  0  0  0
    5.2035    3.9023   -1.4579 C   0  0  0  0  0  0  0  0  0  0  0  0
    6.5416    3.6470   -2.0541 C   0  0  0  0  0  0  0  0  0  0  0  0
    7.6417    3.9259   -1.2193 N   0  0  0  0  0  0  0  0  0  0  0  0
    8.8034    3.5122   -1.0595 C   0  0  0  0  0  0  0  0  0  0  0  0
    9.3757    2.4788   -1.8334 N   0  0  0  0  0  0  0  0  0  0  0  0
    9.6039    4.1209   -0.0498 N   0  0  0  0  0  0  0  0  0  0  0  0
    5.8849    1.0608   -0.4779 C   0  0  0  0  0  0  0  0  0  0  0  0
    6.5009    0.4942    0.4012 O   0  0  0  0  0  0  0  0  0  0  0  0
    6.7198   -4.6454    3.1161 H   0  0  0  0  0  0  0  0  0  0  0  0
    8.3006   -3.9325    2.5148 H   0  0  0  0  0  0  0  0  0  0  0  0
    7.1741   -1.2349    5.0603 H   0  0  0  0  0  0  0  0  0  0  0  0
    5.8349   -1.1031    2.6563 H   0  0  0  0  0  0  0  0  0  0  0  0
    4.2940   -2.7628    4.3164 H   0  0  0  0  0  0  0  0  0  0  0  0
    4.5826   -3.7551    2.8237 H   0  0  0  0  0  0  0  0  0  0  0  0
    3.7489   -1.8043    1.4400 H   0  0  0  0  0  0  0  0  0  0  0  0
    2.4977   -2.4798    2.4870 H   0  0  0  0  0  0  0  0  0  0  0  0
    3.0352   -0.6863    4.2527 H   0  0  0  0  0  0  0  0  0  0  0  0
    4.2497   -0.0245    3.1488 H   0  0  0  0  0  0  0  0  0  0  0  0
    2.3240    1.2636    3.0862 H   0  0  0  0  0  0  0  0  0  0  0  0
    0.5825    0.5749    3.4735 H   0  0  0  0  0  0  0  0  0  0  0  0
   -0.7895   -2.8489    2.1664 H   0  0  0  0  0  0  0  0  0  0  0  0
    0.2444   -1.4792   -0.3904 H   0  0  0  0  0  0  0  0  0  0  0  0
    1.1554   -2.7215    0.6239 H   0  0  0  0  0  0  0  0  0  0  0  0
   -0.2505   -4.3261   -0.0148 H   0  0  0  0  0  0  0  0  0  0  0  0
   -0.7446   -3.2274   -1.3675 H   0  0  0  0  0  0  0  0  0  0  0  0
   -1.9753   -3.7816    1.3549 H   0  0  0  0  0  0  0  0  0  0  0  0
   -2.9224   -3.4070   -0.2110 H   0  0  0  0  0  0  0  0  0  0  0  0
   -4.5102   -2.1652   -0.0238 H   0  0  0  0  0  0  0  0  0  0  0  0
   -3.2771    0.0444   -1.7383 H   0  0  0  0  0  0  0  0  0  0  0  0
   -2.8202   -1.6461   -1.6977 H   0  0  0  0  0  0  0  0  0  0  0  0
   -4.5707   -3.3844   -2.1204 H   0  0  0  0  0  0  0  0  0  0  0  0
   -5.9845   -4.1368   -4.0923 H   0  0  0  0  0  0  0  0  0  0  0  0
   -6.7877   -2.4923   -5.7272 H   0  0  0  0  0  0  0  0  0  0  0  0
   -6.2368   -0.1422   -5.4145 H   0  0  0  0  0  0  0  0  0  0  0  0
   -4.8977    0.5983   -3.5111 H   0  0  0  0  0  0  0  0  0  0  0  0
   -5.1852   -0.4751    1.5447 H   0  0  0  0  0  0  0  0  0  0  0  0
   -7.2801    3.1512    0.4807 H   0  0  0  0  0  0  0  0  0  0  0  0
   -8.4534    2.5260    1.6456 H   0  0  0  0  0  0  0  0  0  0  0  0
   -8.2751    3.5423   -1.5576 H   0  0  0  0  0  0  0  0  0  0  0  0
   -9.8831    3.0729   -3.3495 H   0  0  0  0  0  0  0  0  0  0  0  0
  -11.3835    1.1509   -3.2041 H   0  0  0  0  0  0  0  0  0  0  0  0
  -11.2492   -0.3042   -1.2145 H   0  0  0  0  0  0  0  0  0  0  0  0
   -9.6200    0.1522    0.5990 H   0  0  0  0  0  0  0  0  0  0  0  0
    4.6972    1.4734    1.8939 H   0  0  0  0  0  0  0  0  0  0  0  0
    3.8463    1.4516   -0.9978 H   0  0  0  0  0  0  0  0  0  0  0  0
    5.4965    3.5257    0.5856 H   0  0  0  0  0  0  0  0  0  0  0  0
    3.8023    3.7090    0.1308 H   0  0  0  0  0  0  0  0  0  0  0  0
    4.4663    3.7405   -2.3229 H   0  0  0  0  0  0  0  0  0  0  0  0
    5.1412    5.0221   -1.2841 H   0  0  0  0  0  0  0  0  0  0  0  0
    6.6135    4.5177   -2.8623 H   0  0  0  0  0  0  0  0  0  0  0  0
    6.6174    2.7868   -2.7184 H   0  0  0  0  0  0  0  0  0  0  0  0
    9.9728    2.7133   -2.6453 H   0  0  0  0  0  0  0  0  0  0  0  0
    9.2026    1.4857   -1.5921 H   0  0  0  0  0  0  0  0  0  0  0  0
   10.0393    5.0372   -0.2346 H   0  0  0  0  0  0  0  0  0  0  0  0
    9.7349    3.6430    0.8409 H   0  0  0  0  0  0  0  0  0  0  0  0
    6.3182    1.0466   -1.4537 H   0  0  0  0  0  0  0  0  0  0  0  0
  1  2  1  0
  2  3  2  3
  2  4  1  0
  4  5  1  0
  5  6  1  0
  6  7  1  0
  7  8  1  0
  8  9  1  0
  9 10  1  0
 10 11  2  0
 10 12  1  0
 12 13  1  0
 13 14  1  0
 14 15  1  0
 15 16  1  0
 16 17  1  0
 17 18  2  0
 17 19  1  0
 19 20  1  0
 20 21  1  0
 21 22  2  0
 22 23  1  0
 23 24  2  0
 24 25  1  0
 25 26  2  0
 19 27  1  0
 27 28  1  0
 28 29  2  0
 28 30  1  0
 30 31  1  0
 31 32  1  0
 32 33  2  0
 33 34  1  0
 34 35  2  0
 35 36  1  0
 36 37  2  0
  8 38  1  0
 38 39  2  0
 38 40  1  0
 40 41  1  0
 41 42  1  0
 42 43  1  0
 43 44  1  0
 44 45  1  0
 45 46  2  3
 46 47  1  0
 46 48  1  0
 41 49  1  0
 49 50  2  0
 16 12  1  0
 26 21  1  0
 37 32  1  0
  1 51  1  0
  1 52  1  0
  3 53  1  0
  4 54  1  0
  5 55  1  0
  5 56  1  0
  6 57  1  0
  6 58  1  0
  7 59  1  0
  7 60  1  0
  8 61  1  1
  9 62  1  0
 12 63  1  1
 13 64  1  0
 13 65  1  0
 14 66  1  0
 14 67  1  0
 15 68  1  0
 15 69  1  0
 19 70  1  1
 20 71  1  0
 20 72  1  0
 22 73  1  0
 23 74  1  0
 24 75  1  0
 25 76  1  0
 26 77  1  0
 27 78  1  0
 31 79  1  0
 31 80  1  0
 33 81  1  0
 34 82  1  0
 35 83  1  0
 36 84  1  0
 37 85  1  0
 40 86  1  0
 41 87  1  6
 42 88  1  0
 42 89  1  0
 43 90  1  0
 43 91  1  0
 44 92  1  0
 44 93  1  0
 47 94  1  0
 47 95  1  0
 48 96  1  0
 48 97  1  0
 49 98  1  0
M  END
$$$$
[H]c1nc(N([H])c2c([H])c([H])c(N3C([H])([H])C([H])([H])C([H])(N(C([H])([H])[H])C([H])([H])[H])C([H])([H])C3([H])[H])c([H])c2OC([H])([H])[H])nc(N([H])c2c([H])c([H])c([H])c([H])c2S(=O)(=O)C([H])(C([H])([H])[H])C([H])([H])[H])c1Cl
     RDKit          3D

 73 76  0  0  0  0  0  0  0  0999 V2000
   -1.4887   -3.5880    1.2680 C   0  0  0  0  0  0  0  0  0  0  0  0
   -0.7608   -2.5452    0.6863 O   0  0  0  0  0  0  0  0  0  0  0  0
   -1.4161   -1.4468    0.1649 C   0  0  0  0  0  0  0  0  0  0  0  0
   -2.7697   -1.3138    0.1835 C   0  0  0  0  0  0  0  0  0  0  0  0
   -3.4310   -0.2298   -0.3300 C   0  0  0  0  0  0  0  0  0  0  0  0
   -2.6699    0.7643   -0.8887 C   0  0  0  0  0  0  0  0  0  0  0  0
   -1.2837    0.6857   -0.9374 C   0  0  0  0  0  0  0  0  0  0  0  0
   -0.6456   -0.4090   -0.4169 C   0  0  0  0  0  0  0  0  0  0  0  0
    0.7306   -0.5530   -0.4331 N   0  0  0  0  0  0  0  0  0  0  0  0
    1.7028    0.3458   -0.9492 C   0  0  0  0  0  0  0  0  0  0  0  0
    1.4800    1.5214   -1.5269 N   0  0  0  0  0  0  0  0  0  0  0  0
    2.4593    2.3096   -1.9876 C   0  0  0  0  0  0  0  0  0  0  0  0
    3.7698    1.9304   -1.8818 C   0  0  0  0  0  0  0  0  0  0  0  0
    5.0878    2.9156   -2.4745 Cl  0  0  0  0  0  0  0  0  0  0  0  0
    4.0678    0.6884   -1.2753 C   0  0  0  0  0  0  0  0  0  0  0  0
    5.4172    0.3014   -1.1217 N   0  0  0  0  0  0  0  0  0  0  0  0
    5.8705   -0.9049   -0.5954 C   0  0  0  0  0  0  0  0  0  0  0  0
    5.0906   -2.0601   -0.5353 C   0  0  0  0  0  0  0  0  0  0  0  0
    5.6105   -3.2759   -0.1172 C   0  0  0  0  0  0  0  0  0  0  0  0
    6.9209   -3.3878    0.2545 C   0  0  0  0  0  0  0  0  0  0  0  0
    7.6858   -2.2549    0.1966 C   0  0  0  0  0  0  0  0  0  0  0  0
    7.2100   -1.0030   -0.2158 C   0  0  0  0  0  0  0  0  0  0  0  0
    8.2797    0.3289   -0.1092 S   0  0  0  0  0  0  0  0  0  0  0  0
    9.7039   -0.2341    0.1061 O   0  0  0  0  0  0  0  0  0  0  0  0
    8.4312    1.1263   -1.3815 O   0  0  0  0  0  0  0  0  0  0  0  0
    8.0255    1.4139    1.2573 C   0  0  0  0  0  0  0  0  0  0  0  0
    9.1794    2.4149    1.3719 C   0  0  0  0  0  0  0  0  0  0  0  0
    6.7769    2.1937    1.2396 C   0  0  0  0  0  0  0  0  0  0  0  0
    3.0226    0.0056   -0.8635 N   0  0  0  0  0  0  0  0  0  0  0  0
   -4.8624   -0.0923   -0.3072 N   0  0  0  0  0  0  0  0  0  0  0  0
   -5.5849   -1.1673    0.3276 C   0  0  0  0  0  0  0  0  0  0  0  0
   -7.0407   -0.9434    0.5155 C   0  0  0  0  0  0  0  0  0  0  0  0
   -7.4356    0.4949    0.3818 C   0  0  0  0  0  0  0  0  0  0  0  0
   -6.9640    0.9951   -0.9680 C   0  0  0  0  0  0  0  0  0  0  0  0
   -5.4597    1.0612   -0.8960 C   0  0  0  0  0  0  0  0  0  0  0  0
   -8.8564    0.6589    0.5708 N   0  0  0  0  0  0  0  0  0  0  0  0
   -9.2782    2.0230    0.4605 C   0  0  0  0  0  0  0  0  0  0  0  0
   -9.6390   -0.2430   -0.2416 C   0  0  0  0  0  0  0  0  0  0  0  0
   -0.7931   -4.1921    1.9054 H   0  0  0  0  0  0  0  0  0  0  0  0
   -1.9544   -4.2113    0.4616 H   0  0  0  0  0  0  0  0  0  0  0  0
   -2.2604   -3.2007    1.9817 H   0  0  0  0  0  0  0  0  0  0  0  0
   -3.3514   -2.1246    0.6360 H   0  0  0  0  0  0  0  0  0  0  0  0
   -3.1295    1.6488   -1.3125 H   0  0  0  0  0  0  0  0  0  0  0  0
   -0.7832    1.5103   -1.3929 H   0  0  0  0  0  0  0  0  0  0  0  0
    1.1068   -1.4691    0.0044 H   0  0  0  0  0  0  0  0  0  0  0  0
    2.2213    3.2667   -2.4541 H   0  0  0  0  0  0  0  0  0  0  0  0
    6.1140    0.9939   -1.4647 H   0  0  0  0  0  0  0  0  0  0  0  0
    4.0603   -2.0188   -0.8381 H   0  0  0  0  0  0  0  0  0  0  0  0
    4.9515   -4.1295   -0.0940 H   0  0  0  0  0  0  0  0  0  0  0  0
    7.3564   -4.3431    0.5885 H   0  0  0  0  0  0  0  0  0  0  0  0
    8.7315   -2.3610    0.4975 H   0  0  0  0  0  0  0  0  0  0  0  0
    8.1309    0.7711    2.1790 H   0  0  0  0  0  0  0  0  0  0  0  0
    9.2341    2.9999    0.4280 H   0  0  0  0  0  0  0  0  0  0  0  0
    8.8903    3.1190    2.1704 H   0  0  0  0  0  0  0  0  0  0  0  0
   10.1385    1.9091    1.5465 H   0  0  0  0  0  0  0  0  0  0  0  0
    6.6586    2.6546    0.2401 H   0  0  0  0  0  0  0  0  0  0  0  0
    5.9200    1.5461    1.5414 H   0  0  0  0  0  0  0  0  0  0  0  0
    6.8570    3.0425    1.9945 H   0  0  0  0  0  0  0  0  0  0  0  0
   -5.4057   -2.0834   -0.2985 H   0  0  0  0  0  0  0  0  0  0  0  0
   -5.1129   -1.3839    1.3330 H   0  0  0  0  0  0  0  0  0  0  0  0
   -7.3369   -1.2598    1.5530 H   0  0  0  0  0  0  0  0  0  0  0  0
   -7.5857   -1.5404   -0.2484 H   0  0  0  0  0  0  0  0  0  0  0  0
   -6.9204    1.0822    1.1579 H   0  0  0  0  0  0  0  0  0  0  0  0
   -7.3716    2.0047   -1.1693 H   0  0  0  0  0  0  0  0  0  0  0  0
   -7.2424    0.3151   -1.7855 H   0  0  0  0  0  0  0  0  0  0  0  0
   -5.0229    1.2094   -1.9181 H   0  0  0  0  0  0  0  0  0  0  0  0
   -5.2243    1.9555   -0.2465 H   0  0  0  0  0  0  0  0  0  0  0  0
   -9.3583    2.3936   -0.5797 H   0  0  0  0  0  0  0  0  0  0  0  0
   -8.5425    2.6556    1.0032 H   0  0  0  0  0  0  0  0  0  0  0  0
  -10.3018    2.1167    0.9062 H   0  0  0  0  0  0  0  0  0  0  0  0
  -10.5738    0.3178   -0.5167 H   0  0  0  0  0  0  0  0  0  0  0  0
   -9.1485   -0.5590   -1.1630 H   0  0  0  0  0  0  0  0  0  0  0  0
   -9.8879   -1.1629    0.3397 H   0  0  0  0  0  0  0  0  0  0  0  0
  1  2  1  0
  2  3  1  0
  3  4  2  0
  4  5  1  0
  5  6  2  0
  6  7  1  0
  7  8  2  0
  8  9  1  0
  9 10  1  0
 10 11  2  0
 11 12  1  0
 12 13  2  0
 13 14  1  0
 13 15  1  0
 15 16  1  0
 16 17  1  0
 17 18  2  0
 18 19  1  0
 19 20  2  0
 20 21  1  0
 21 22  2  0
 22 23  1  0
 23 24  2  0
 23 25  2  0
 23 26  1  0
 26 27  1  0
 26 28  1  0
 15 29  2  0
  5 30  1  0
 30 31  1  0
 31 32  1  0
 32 33  1  0
 33 34  1  0
 34 35  1  0
 33 36  1  0
 36 37  1  0
 36 38  1  0
  8  3  1  0
 29 10  1  0
 35 30  1  0
 22 17  1  0
  1 39  1  0
  1 40  1  0
  1 41  1  0
  4 42  1  0
  6 43  1  0
  7 44  1  0
  9 45  1  0
 12 46  1  0
 16 47  1  0
 18 48  1  0
 19 49  1  0
 20 50  1  0
 21 51  1  0
 26 52  1  0
 27 53  1  0
 27 54  1  0
 27 55  1  0
 28 56  1  0
 28 57  1  0
 28 58  1  0
 31 59  1  0
 31 60  1  0
 32 61  1  0
 32 62  1  0
 33 63  1  0
 34 64  1  0
 34 65  1  0
 35 66  1  0
 35 67  1  0
 37 68  1  0
 37 69  1  0
 37 70  1  0
 38 71  1  0
 38 72  1  0
 38 73  1  0
M  END
$$$$
[H]C1=C2C([H])([H])C([H])([H])[C@@]3([H])[C@]4([H])C([H])([H])C([H])([H])C([H])([H])[C@@]4(C([H])([H])[H])C([H])([H])C([H])([H])[C@]3([H])[C@@]2(C([H])([H])[H])C([H])([H])C([H])([H])C1=O
     RDKit          3D

 48 51  0  0  0  0  0  0  0  0999 V2000
   -2.4762    0.9493   -1.1816 C   0  0  0  0  0  0  0  0  0  0  0  0
   -2.4391    0.4620    0.2269 C   0  0  2  0  0  0  0  0  0  0  0  0
   -1.6761    1.4213    1.0668 C   0  0  0  0  0  0  0  0  0  0  0  0
   -0.1996    1.4577    0.8089 C   0  0  0  0  0  0  0  0  0  0  0  0
    0.4251    0.1750    0.4463 C   0  0  1  0  0  0  0  0  0  0  0  0
   -0.4407   -0.7387   -0.3914 C   0  0  1  0  0  0  0  0  0  0  0  0
    0.2122   -2.0391   -0.6567 C   0  0  0  0  0  0  0  0  0  0  0  0
    1.6668   -2.1472   -0.3981 C   0  0  0  0  0  0  0  0  0  0  0  0
    2.4350   -0.8965   -0.4266 C   0  0  0  0  0  0  0  0  0  0  0  0
    3.7348   -0.8812   -0.6217 C   0  0  0  0  0  0  0  0  0  0  0  0
    4.4917    0.3914   -0.6459 C   0  0  0  0  0  0  0  0  0  0  0  0
    5.5265    0.5256   -1.3120 O   0  0  0  0  0  0  0  0  0  0  0  0
    3.9756    1.5267    0.1603 C   0  0  0  0  0  0  0  0  0  0  0  0
    2.6316    1.1631    0.7858 C   0  0  0  0  0  0  0  0  0  0  0  0
    1.7546    0.4184   -0.2283 C   0  0  2  0  0  0  0  0  0  0  0  0
    1.6676    1.2183   -1.4848 C   0  0  0  0  0  0  0  0  0  0  0  0
   -1.7167   -0.8856    0.3749 C   0  0  2  0  0  0  0  0  0  0  0  0
   -2.7205   -1.8187   -0.1683 C   0  0  0  0  0  0  0  0  0  0  0  0
   -3.9584   -1.3928    0.6062 C   0  0  0  0  0  0  0  0  0  0  0  0
   -3.7873    0.1026    0.7678 C   0  0  0  0  0  0  0  0  0  0  0  0
   -1.6027    1.6389   -1.3707 H   0  0  0  0  0  0  0  0  0  0  0  0
   -2.5346    0.1584   -1.9472 H   0  0  0  0  0  0  0  0  0  0  0  0
   -3.3809    1.5884   -1.3039 H   0  0  0  0  0  0  0  0  0  0  0  0
   -2.0984    2.4345    0.9165 H   0  0  0  0  0  0  0  0  0  0  0  0
   -1.8728    1.1733    2.1457 H   0  0  0  0  0  0  0  0  0  0  0  0
    0.2615    1.8010    1.7846 H   0  0  0  0  0  0  0  0  0  0  0  0
    0.0016    2.2903    0.1014 H   0  0  0  0  0  0  0  0  0  0  0  0
    0.6603   -0.4002    1.3818 H   0  0  0  0  0  0  0  0  0  0  0  0
   -0.6198   -0.2137   -1.3509 H   0  0  0  0  0  0  0  0  0  0  0  0
   -0.3017   -2.8980   -0.1224 H   0  0  0  0  0  0  0  0  0  0  0  0
    0.0425   -2.3108   -1.7438 H   0  0  0  0  0  0  0  0  0  0  0  0
    2.1687   -2.8559   -1.1252 H   0  0  0  0  0  0  0  0  0  0  0  0
    1.8052   -2.6787    0.5890 H   0  0  0  0  0  0  0  0  0  0  0  0
    4.2625   -1.7980   -0.7668 H   0  0  0  0  0  0  0  0  0  0  0  0
    4.6521    1.7407    1.0315 H   0  0  0  0  0  0  0  0  0  0  0  0
    3.8174    2.4055   -0.4701 H   0  0  0  0  0  0  0  0  0  0  0  0
    2.7394    0.5221    1.6649 H   0  0  0  0  0  0  0  0  0  0  0  0
    2.1474    2.1171    1.1026 H   0  0  0  0  0  0  0  0  0  0  0  0
    2.4225    0.9239   -2.2514 H   0  0  0  0  0  0  0  0  0  0  0  0
    1.9330    2.2834   -1.2297 H   0  0  0  0  0  0  0  0  0  0  0  0
    0.6935    1.1718   -2.0099 H   0  0  0  0  0  0  0  0  0  0  0  0
   -1.5623   -1.0355    1.4392 H   0  0  0  0  0  0  0  0  0  0  0  0
   -2.5149   -2.8671    0.1307 H   0  0  0  0  0  0  0  0  0  0  0  0
   -2.9130   -1.7158   -1.2401 H   0  0  0  0  0  0  0  0  0  0  0  0
   -4.8898   -1.6541    0.0715 H   0  0  0  0  0  0  0  0  0  0  0  0
   -3.9043   -1.8731    1.6113 H   0  0  0  0  0  0  0  0  0  0  0  0
   -4.5493    0.5940    0.1229 H   0  0  0  0  0  0  0  0  0  0  0  0
   -3.9700    0.4458    1.7910 H   0  0  0  0  0  0  0  0  0  0  0  0
  2  1  1  6
  2  3  1  0
  3  4  1  0
  4  5  1  0
  5  6  1  0
  6  7  1  0
  7  8  1  0
  8  9  1  0
  9 10  2  0
 10 11  1  0
 11 12  2  0
 11 13  1  0
 13 14  1  0
 14 15  1  0
 15 16  1  6
  6 17  1  0
 17 18  1  0
 18 19  1  0
 19 20  1  0
 17  2  1  0
 20  2  1  0
 15  5  1  0
 15  9  1  0
  1 21  1  0
  1 22  1  0
  1 23  1  0
  3 24  1  0
  3 25  1  0
  4 26  1  0
  4 27  1  0
  5 28  1  1
  6 29  1  6
  7 30  1  0
  7 31  1  0
  8 32  1  0
  8 33  1  0
 10 34  1  0
 13 35  1  0
 13 36  1  0
 14 37  1  0
 14 38  1  0
 16 39  1  0
 16 40  1  0
 16 41  1  0
 17 42  1  1
 18 43  1  0
 18 44  1  0
 19 45  1  0
 19 46  1  0
 20 47  1  0
 20 48  1  0
M  END
$$$$
[H]C1=C([H])C([H])(F)C([H])([H])C([H])=C1N([H])C(=O)C1(C(=O)N([H])c2c([H])c([H])c(Oc3c([H])c([H])nc4c([H])c(OC([H])([H])C([H])([H])C([H])([H])N5C([H])([H])C([H])([H])OC([H])([H])C5([H])[H])c(OC([H])([H])[H])c([H])c34)c(F)c2[H])C([H])([H])C1([H])[H]
     RDKit          3D

 82 87  0  0  0  0  0  0  0  0999 V2000
    3.9666    3.0495   -1.7322 C   0  0  0  0  0  0  0  0  0  0  0  0
    4.8184    1.9472   -1.5191 O   0  0  0  0  0  0  0  0  0  0  0  0
    4.2779    0.7150   -1.2054 C   0  0  0  0  0  0  0  0  0  0  0  0
    2.9355    0.4830   -1.0834 C   0  0  0  0  0  0  0  0  0  0  0  0
    2.5057   -0.7878   -0.7673 C   0  0  0  0  0  0  0  0  0  0  0  0
    1.1302   -1.0757   -0.6337 C   0  0  0  0  0  0  0  0  0  0  0  0
    0.2693   -0.0306   -0.8259 O   0  0  0  0  0  0  0  0  0  0  0  0
   -1.0898   -0.1642   -0.6451 C   0  0  0  0  0  0  0  0  0  0  0  0
   -1.9847   -0.0120   -1.6950 C   0  0  0  0  0  0  0  0  0  0  0  0
   -3.3381   -0.1282   -1.5809 C   0  0  0  0  0  0  0  0  0  0  0  0
   -3.8905   -0.4214   -0.3289 C   0  0  0  0  0  0  0  0  0  0  0  0
   -5.3238   -0.4986   -0.2135 N   0  0  0  0  0  0  0  0  0  0  0  0
   -5.9613   -1.3830    0.6262 C   0  0  0  0  0  0  0  0  0  0  0  0
   -5.1921   -2.1849    1.2964 O   0  0  0  0  0  0  0  0  0  0  0  0
   -7.4011   -1.5958    0.9101 C   0  0  0  0  0  0  0  0  0  0  0  0
   -7.6820   -2.4618    2.1265 C   0  0  0  0  0  0  0  0  0  0  0  0
   -7.8126   -3.1190    0.8294 C   0  0  0  0  0  0  0  0  0  0  0  0
   -8.4706   -0.6963    0.4763 C   0  0  0  0  0  0  0  0  0  0  0  0
   -9.6747   -1.1656    0.7176 O   0  0  0  0  0  0  0  0  0  0  0  0
   -8.4814    0.5528   -0.1324 N   0  0  0  0  0  0  0  0  0  0  0  0
   -9.7446    1.2195   -0.4499 C   0  0  0  0  0  0  0  0  0  0  0  0
   -9.9496    2.4040    0.0799 C   0  0  0  0  0  0  0  0  0  0  0  0
  -11.1350    3.2347   -0.1097 C   0  0  0  0  0  0  0  0  0  0  0  0
  -12.2008    2.6387   -0.9439 C   0  0  0  0  0  0  0  0  0  0  0  0
  -12.4721    3.4850   -2.0494 F   0  0  0  0  0  0  0  0  0  0  0  0
  -11.8730    1.3187   -1.4859 C   0  0  0  0  0  0  0  0  0  0  0  0
  -10.7586    0.6480   -1.2759 C   0  0  0  0  0  0  0  0  0  0  0  0
   -3.0432   -0.5784    0.7341 C   0  0  0  0  0  0  0  0  0  0  0  0
   -1.6522   -0.4525    0.5863 C   0  0  0  0  0  0  0  0  0  0  0  0
   -0.8827   -0.5957    1.6903 F   0  0  0  0  0  0  0  0  0  0  0  0
    0.7223   -2.3515   -0.3227 C   0  0  0  0  0  0  0  0  0  0  0  0
    1.6378   -3.3635   -0.1352 C   0  0  0  0  0  0  0  0  0  0  0  0
    2.9451   -3.0865   -0.2619 N   0  0  0  0  0  0  0  0  0  0  0  0
    3.3732   -1.8309   -0.5703 C   0  0  0  0  0  0  0  0  0  0  0  0
    4.7330   -1.5901   -0.6954 C   0  0  0  0  0  0  0  0  0  0  0  0
    5.1920   -0.3333   -1.0085 C   0  0  0  0  0  0  0  0  0  0  0  0
    6.5206   -0.0853   -1.1253 O   0  0  0  0  0  0  0  0  0  0  0  0
    7.5310   -0.9938   -0.8772 C   0  0  0  0  0  0  0  0  0  0  0  0
    7.6262   -1.3701    0.5948 C   0  0  0  0  0  0  0  0  0  0  0  0
    7.9359   -0.0985    1.3961 C   0  0  0  0  0  0  0  0  0  0  0  0
    9.1945    0.4265    0.9288 N   0  0  0  0  0  0  0  0  0  0  0  0
    9.4053    1.7864    1.4776 C   0  0  0  0  0  0  0  0  0  0  0  0
   10.8161    2.1639    1.0165 C   0  0  0  0  0  0  0  0  0  0  0  0
   11.2632    1.3549   -0.0281 O   0  0  0  0  0  0  0  0  0  0  0  0
   11.4615    0.0232    0.3872 C   0  0  0  0  0  0  0  0  0  0  0  0
   10.3466   -0.3576    1.3702 C   0  0  0  0  0  0  0  0  0  0  0  0
    4.5770    3.9509   -1.9692 H   0  0  0  0  0  0  0  0  0  0  0  0
    3.3066    3.2216   -0.8582 H   0  0  0  0  0  0  0  0  0  0  0  0
    3.3086    2.7911   -2.5987 H   0  0  0  0  0  0  0  0  0  0  0  0
    2.2243    1.2761   -1.2311 H   0  0  0  0  0  0  0  0  0  0  0  0
   -1.5528    0.2161   -2.6750 H   0  0  0  0  0  0  0  0  0  0  0  0
   -4.0246   -0.0039   -2.4200 H   0  0  0  0  0  0  0  0  0  0  0  0
   -5.8260    0.1518   -0.8369 H   0  0  0  0  0  0  0  0  0  0  0  0
   -6.8106   -2.7138    2.7607 H   0  0  0  0  0  0  0  0  0  0  0  0
   -8.5985   -2.2800    2.7131 H   0  0  0  0  0  0  0  0  0  0  0  0
   -7.0275   -3.7752    0.4011 H   0  0  0  0  0  0  0  0  0  0  0  0
   -8.7992   -3.3162    0.3639 H   0  0  0  0  0  0  0  0  0  0  0  0
   -7.6334    1.0911   -0.3743 H   0  0  0  0  0  0  0  0  0  0  0  0
   -9.1652    2.8388    0.7401 H   0  0  0  0  0  0  0  0  0  0  0  0
  -11.5358    3.5321    0.9159 H   0  0  0  0  0  0  0  0  0  0  0  0
  -10.8538    4.2484   -0.5572 H   0  0  0  0  0  0  0  0  0  0  0  0
  -13.1586    2.5647   -0.3407 H   0  0  0  0  0  0  0  0  0  0  0  0
  -12.6648    0.8691   -2.1323 H   0  0  0  0  0  0  0  0  0  0  0  0
  -10.6018   -0.3227   -1.7168 H   0  0  0  0  0  0  0  0  0  0  0  0
   -3.4037   -0.7893    1.7394 H   0  0  0  0  0  0  0  0  0  0  0  0
   -0.3200   -2.5956   -0.2356 H   0  0  0  0  0  0  0  0  0  0  0  0
    1.2680   -4.3480    0.1079 H   0  0  0  0  0  0  0  0  0  0  0  0
    5.3620   -2.4538   -0.5623 H   0  0  0  0  0  0  0  0  0  0  0  0
    7.4424   -1.9223   -1.5038 H   0  0  0  0  0  0  0  0  0  0  0  0
    8.4920   -0.5348   -1.2249 H   0  0  0  0  0  0  0  0  0  0  0  0
    6.7751   -1.8921    1.0071 H   0  0  0  0  0  0  0  0  0  0  0  0
    8.4922   -2.0400    0.6815 H   0  0  0  0  0  0  0  0  0  0  0  0
    7.1233    0.6400    1.3255 H   0  0  0  0  0  0  0  0  0  0  0  0
    8.0487   -0.4301    2.4644 H   0  0  0  0  0  0  0  0  0  0  0  0
    9.4079    1.7624    2.5778 H   0  0  0  0  0  0  0  0  0  0  0  0
    8.6320    2.4413    1.0296 H   0  0  0  0  0  0  0  0  0  0  0  0
   11.5508    2.0414    1.8480 H   0  0  0  0  0  0  0  0  0  0  0  0
   10.8264    3.2054    0.6080 H   0  0  0  0  0  0  0  0  0  0  0  0
   11.3001   -0.6008   -0.5146 H   0  0  0  0  0  0  0  0  0  0  0  0
   12.4569   -0.1361    0.8078 H   0  0  0  0  0  0  0  0  0  0  0  0
   10.1090   -1.3943    1.4038 H   0  0  0  0  0  0  0  0  0  0  0  0
   10.6797    0.0679    2.3647 H   0  0  0  0  0  0  0  0  0  0  0  0
  1  2  1  0
  2  3  1  0
  3  4  2  0
  4  5  1  0
  5  6  2  0
  6  7  1  0
  7  8  1  0
  8  9  2  0
  9 10  1  0
 10 11  2  0
 11 12  1  0
 12 13  1  0
 13 14  2  0
 13 15  1  0
 15 16  1  0
 16 17  1  0
 15 18  1  0
 18 19  2  0
 18 20  1  0
 20 21  1  0
 21 22  2  0
 22 23  1  0
 23 24  1  0
 24 25  1  0
 24 26  1  0
 26 27  2  0
 11 28  1  0
 28 29  2  0
 29 30  1  0
  6 31  1  0
 31 32  2  0
 32 33  1  0
 33 34  2  0
 34 35  1  0
 35 36  2  0
 36 37  1  0
 37 38  1  0
 38 39  1  0
 39 40  1  0
 40 41  1  0
 41 42  1  0
 42 43  1  0
 43 44  1  0
 44 45  1  0
 45 46  1  0
 36  3  1  0
 46 41  1  0
 34  5  1  0
 29  8  1  0
 17 15  1  0
 27 21  1  0
  1 47  1  0
  1 48  1  0
  1 49  1  0
  4 50  1  0
  9 51  1  0
 10 52  1  0
 12 53  1  0
 16 54  1  0
 16 55  1  0
 17 56  1  0
 17 57  1  0
 20 58  1  0
 22 59  1  0
 23 60  1  0
 23 61  1  0
 24 62  1  0
 26 63  1  0
 27 64  1  0
 28 65  1  0
 31 66  1  0
 32 67  1  0
 35 68  1  0
 38 69  1  0
 38 70  1  0
 39 71  1  0
 39 72  1  0
 40 73  1  0
 40 74  1  0
 42 75  1  0
 42 76  1  0
 43 77  1  0
 43 78  1  0
 45 79  1  0
 45 80  1  0
 46 81  1  0
 46 82  1  0
M  END
$$$$
[H]C1=C(C(=O)[O-])N2C(=O)/C(=C(\[H])c3c([H])c([H])c([H])c([H])c3[H])[C@@]2([H])S1
     RDKit          3D

 26 28  0  0  0  0  0  0  0  0999 V2000
   -5.2948   -0.7722    0.4333 O   0  0  0  0  0  0  0  0  0  0  0  0
   -4.7351    0.3176   -0.2037 C   0  0  0  0  0  0  0  0  0  0  0  0
   -5.4952    1.0931   -0.8152 O   0  0  0  0  0  0  0  0  0  0  0  0
   -3.2825    0.5015   -0.1258 C   0  0  0  0  0  0  0  0  0  0  0  0
   -2.7411    1.5405   -0.7312 C   0  0  0  0  0  0  0  0  0  0  0  0
   -0.9819    1.4519   -0.4313 S   0  0  0  0  0  0  0  0  0  0  0  0
   -1.1680    0.3018    0.9698 C   0  0  1  0  0  0  0  0  0  0  0  0
   -2.4022   -0.3437    0.5407 N   0  0  0  0  0  0  0  0  0  0  0  0
   -1.8888   -1.5313    1.1179 C   0  0  0  0  0  0  0  0  0  0  0  0
   -2.3605   -2.5987    1.6421 O   0  0  0  0  0  0  0  0  0  0  0  0
   -0.5481   -1.0007    0.8498 C   0  0  0  0  0  0  0  0  0  0  0  0
    0.6094   -1.5697    0.6203 C   0  0  0  0  0  0  0  0  0  0  0  0
    1.7789   -0.7448    0.3844 C   0  0  0  0  0  0  0  0  0  0  0  0
    2.0115    0.4159    1.0757 C   0  0  0  0  0  0  0  0  0  0  0  0
    3.0992    1.2164    0.8733 C   0  0  0  0  0  0  0  0  0  0  0  0
    4.0343    0.8673   -0.0712 C   0  0  0  0  0  0  0  0  0  0  0  0
    3.8440   -0.2918   -0.7914 C   0  0  0  0  0  0  0  0  0  0  0  0
    2.7205   -1.0951   -0.5637 C   0  0  0  0  0  0  0  0  0  0  0  0
   -3.2088    2.3177   -1.3065 H   0  0  0  0  0  0  0  0  0  0  0  0
   -1.3095    0.7570    1.9457 H   0  0  0  0  0  0  0  0  0  0  0  0
    0.6397   -2.6580    0.6175 H   0  0  0  0  0  0  0  0  0  0  0  0
    1.3095    0.7324    1.8279 H   0  0  0  0  0  0  0  0  0  0  0  0
    3.2544    2.1373    1.4442 H   0  0  0  0  0  0  0  0  0  0  0  0
    4.9198    1.4901   -0.2601 H   0  0  0  0  0  0  0  0  0  0  0  0
    4.5969   -0.5433   -1.5299 H   0  0  0  0  0  0  0  0  0  0  0  0
    2.5983   -1.9912   -1.1373 H   0  0  0  0  0  0  0  0  0  0  0  0
  1  2  1  0
  2  3  2  0
  2  4  1  0
  4  5  2  0
  5  6  1  0
  6  7  1  0
  7  8  1  0
  8  9  1  0
  9 10  2  0
  9 11  1  0
 11 12  2  0
 12 13  1  0
 13 14  2  0
 14 15  1  0
 15 16  2  0
 16 17  1  0
 17 18  2  0
  8  4  1  0
 18 13  1  0
 11  7  1  0
  5 19  1  0
  7 20  1  1
 12 21  1  0
 14 22  1  0
 15 23  1  0
 16 24  1  0
 17 25  1  0
 18 26  1  0
M  CHG  1   1  -1
M  END
$$$$
[H]c1nc(N([H])[H])c(-c2onc(C([H])([H])[H])c2[H])c([H])c1-c1c([H])c(S(=O)(=O)N([H])C([H])([H])C2([H])C([H])([H])C2([H])[H])c([H])c([H])c1C([H])([H])[H]
     RDKit          3D

 50 53  0  0  0  0  0  0  0  0999 V2000
   -7.6602   -1.6017    2.3531 C   0  0  0  0  0  0  0  0  0  0  0  0
   -6.3566   -1.0982    1.8703 C   0  0  0  0  0  0  0  0  0  0  0  0
   -5.1069   -1.7545    1.8656 C   0  0  0  0  0  0  0  0  0  0  0  0
   -4.1662   -0.9221    1.3285 C   0  0  0  0  0  0  0  0  0  0  0  0
   -4.8453    0.1884    1.0279 O   0  0  0  0  0  0  0  0  0  0  0  0
   -6.0806    0.0961    1.3306 N   0  0  0  0  0  0  0  0  0  0  0  0
   -2.7354   -1.1047    1.0944 C   0  0  0  0  0  0  0  0  0  0  0  0
   -2.0523   -0.0381    0.5195 C   0  0  0  0  0  0  0  0  0  0  0  0
   -0.7238   -0.1453    0.2771 C   0  0  0  0  0  0  0  0  0  0  0  0
   -0.0645   -1.3234    0.6088 C   0  0  0  0  0  0  0  0  0  0  0  0
   -0.7443   -2.3262    1.1575 N   0  0  0  0  0  0  0  0  0  0  0  0
   -2.0852   -2.2603    1.4188 C   0  0  0  0  0  0  0  0  0  0  0  0
   -2.7374   -3.3739    2.0056 N   0  0  0  0  0  0  0  0  0  0  0  0
    0.0315    0.9596   -0.3365 C   0  0  0  0  0  0  0  0  0  0  0  0
    1.2161    1.3766    0.2553 C   0  0  0  0  0  0  0  0  0  0  0  0
    1.9686    2.4030   -0.2508 C   0  0  0  0  0  0  0  0  0  0  0  0
    1.5662    3.0687   -1.3872 C   0  0  0  0  0  0  0  0  0  0  0  0
    0.3970    2.6730   -1.9900 C   0  0  0  0  0  0  0  0  0  0  0  0
   -0.3696    1.6234   -1.4700 C   0  0  0  0  0  0  0  0  0  0  0  0
   -1.6125    1.2437   -2.1774 C   0  0  0  0  0  0  0  0  0  0  0  0
    3.4563    2.9120    0.5101 S   0  0  0  0  0  0  0  0  0  0  0  0
    3.3110    2.6010    1.9884 O   0  0  0  0  0  0  0  0  0  0  0  0
    3.6193    4.3931    0.2995 O   0  0  0  0  0  0  0  0  0  0  0  0
    4.8121    2.0647   -0.1044 N   0  0  0  0  0  0  0  0  0  0  0  0
    4.6951    0.6542    0.1473 C   0  0  0  0  0  0  0  0  0  0  0  0
    5.8721   -0.1274   -0.3798 C   0  0  0  0  0  0  0  0  0  0  0  0
    5.9378   -1.5936   -0.2192 C   0  0  0  0  0  0  0  0  0  0  0  0
    5.6182   -0.9914   -1.5574 C   0  0  0  0  0  0  0  0  0  0  0  0
   -8.5061   -1.2715    1.7426 H   0  0  0  0  0  0  0  0  0  0  0  0
   -7.6788   -2.7311    2.3390 H   0  0  0  0  0  0  0  0  0  0  0  0
   -7.7636   -1.3393    3.4380 H   0  0  0  0  0  0  0  0  0  0  0  0
   -5.0042   -2.7459    2.2423 H   0  0  0  0  0  0  0  0  0  0  0  0
   -2.5663    0.8740    0.2692 H   0  0  0  0  0  0  0  0  0  0  0  0
    1.0033   -1.3664    0.3969 H   0  0  0  0  0  0  0  0  0  0  0  0
   -2.8414   -3.4699    3.0197 H   0  0  0  0  0  0  0  0  0  0  0  0
   -3.1237   -4.1180    1.3971 H   0  0  0  0  0  0  0  0  0  0  0  0
    1.5412    0.8599    1.1490 H   0  0  0  0  0  0  0  0  0  0  0  0
    2.1594    3.8961   -1.8074 H   0  0  0  0  0  0  0  0  0  0  0  0
    0.0710    3.1931   -2.8885 H   0  0  0  0  0  0  0  0  0  0  0  0
   -1.4751    1.4599   -3.2768 H   0  0  0  0  0  0  0  0  0  0  0  0
   -1.8164    0.1713   -2.1271 H   0  0  0  0  0  0  0  0  0  0  0  0
   -2.4617    1.8988   -1.8861 H   0  0  0  0  0  0  0  0  0  0  0  0
    5.0373    2.3066   -1.0743 H   0  0  0  0  0  0  0  0  0  0  0  0
    3.7658    0.2569   -0.3052 H   0  0  0  0  0  0  0  0  0  0  0  0
    4.6557    0.5092    1.2616 H   0  0  0  0  0  0  0  0  0  0  0  0
    6.8144    0.4753   -0.3731 H   0  0  0  0  0  0  0  0  0  0  0  0
    5.1616   -2.1566    0.3298 H   0  0  0  0  0  0  0  0  0  0  0  0
    6.9578   -2.0589   -0.1624 H   0  0  0  0  0  0  0  0  0  0  0  0
    4.5666   -1.1629   -1.8881 H   0  0  0  0  0  0  0  0  0  0  0  0
    6.3429   -1.0772   -2.3830 H   0  0  0  0  0  0  0  0  0  0  0  0
  1  2  1  0
  2  3  1  0
  3  4  2  0
  4  5  1  0
  5  6  1  0
  4  7  1  0
  7  8  2  0
  8  9  1  0
  9 10  2  0
 10 11  1  0
 11 12  2  0
 12 13  1  0
  9 14  1  0
 14 15  2  0
 15 16  1  0
 16 17  2  0
 17 18  1  0
 18 19  2  0
 19 20  1  0
 16 21  1  0
 21 22  2  0
 21 23  2  0
 21 24  1  0
 24 25  1  0
 25 26  1  0
 26 27  1  0
 27 28  1  0
  6  2  2  0
 12  7  1  0
 19 14  1  0
 28 26  1  0
  1 29  1  0
  1 30  1  0
  1 31  1  0
  3 32  1  0
  8 33  1  0
 10 34  1  0
 13 35  1  0
 13 36  1  0
 15 37  1  0
 17 38  1  0
 18 39  1  0
 20 40  1  0
 20 41  1  0
 20 42  1  0
 24 43  1  0
 25 44  1  0
 25 45  1  0
 26 46  1  0
 27 47  1  0
 27 48  1  0
 28 49  1  0
 28 50  1  0
M  END
$$$$
[H]O[C@]([H])(C([H])([H])[H])[C@@]([H])(C(=O)N([H])S(=O)(=O)c1c([H])c([H])c([H])c(-c2c([H])c(C([H])([H])[H])c([H])c(C([H])([H])[H])c2[H])c1[H])N([H])[H]
     RDKit          3D

 47 48  0  0  0  0  0  0  0  0999 V2000
    6.0350    0.7968    1.8631 C   0  0  0  0  0  0  0  0  0  0  0  0
    5.8099   -0.2938    0.8690 C   0  0  1  0  0  0  0  0  0  0  0  0
    5.1544   -1.3537    1.5074 O   0  0  0  0  0  0  0  0  0  0  0  0
    5.1539    0.1068   -0.4024 C   0  0  2  0  0  0  0  0  0  0  0  0
    5.7707    1.1847   -1.1135 N   0  0  0  0  0  0  0  0  0  0  0  0
    3.6788    0.3369   -0.2794 C   0  0  0  0  0  0  0  0  0  0  0  0
    2.9753   -0.3350    0.5051 O   0  0  0  0  0  0  0  0  0  0  0  0
    3.0819    1.3298   -1.0732 N   0  0  0  0  0  0  0  0  0  0  0  0
    1.4114    1.7324   -1.0983 S   0  0  0  0  0  0  0  0  0  0  0  0
    1.1069    2.6193   -2.2588 O   0  0  0  0  0  0  0  0  0  0  0  0
    1.1458    2.5800    0.1406 O   0  0  0  0  0  0  0  0  0  0  0  0
    0.3643    0.3620   -1.0770 C   0  0  0  0  0  0  0  0  0  0  0  0
    0.7644   -0.8625   -1.5369 C   0  0  0  0  0  0  0  0  0  0  0  0
   -0.0862   -1.9594   -1.5004 C   0  0  0  0  0  0  0  0  0  0  0  0
   -1.3430   -1.8079   -0.9986 C   0  0  0  0  0  0  0  0  0  0  0  0
   -1.7900   -0.5950   -0.5292 C   0  0  0  0  0  0  0  0  0  0  0  0
   -0.9353    0.4698   -0.5727 C   0  0  0  0  0  0  0  0  0  0  0  0
   -3.1617   -0.4496   -0.0232 C   0  0  0  0  0  0  0  0  0  0  0  0
   -3.8206   -1.4356    0.6409 C   0  0  0  0  0  0  0  0  0  0  0  0
   -5.1455   -1.3092    1.0534 C   0  0  0  0  0  0  0  0  0  0  0  0
   -5.8656   -2.3773    1.7817 C   0  0  0  0  0  0  0  0  0  0  0  0
   -5.8049   -0.1384    0.7726 C   0  0  0  0  0  0  0  0  0  0  0  0
   -5.1654    0.8809    0.1000 C   0  0  0  0  0  0  0  0  0  0  0  0
   -5.9107    2.1111   -0.2136 C   0  0  0  0  0  0  0  0  0  0  0  0
   -3.8640    0.7327   -0.2930 C   0  0  0  0  0  0  0  0  0  0  0  0
    5.6315    0.5087    2.8802 H   0  0  0  0  0  0  0  0  0  0  0  0
    7.1263    0.9737    2.0602 H   0  0  0  0  0  0  0  0  0  0  0  0
    5.5837    1.7644    1.6065 H   0  0  0  0  0  0  0  0  0  0  0  0
    6.8276   -0.7130    0.5942 H   0  0  0  0  0  0  0  0  0  0  0  0
    5.2128   -2.1384    0.8956 H   0  0  0  0  0  0  0  0  0  0  0  0
    5.2206   -0.7859   -1.1052 H   0  0  0  0  0  0  0  0  0  0  0  0
    5.7463    2.0418   -0.5043 H   0  0  0  0  0  0  0  0  0  0  0  0
    6.7225    0.9783   -1.4562 H   0  0  0  0  0  0  0  0  0  0  0  0
    3.7120    1.8897   -1.7151 H   0  0  0  0  0  0  0  0  0  0  0  0
    1.7621   -1.0240   -1.9582 H   0  0  0  0  0  0  0  0  0  0  0  0
    0.2277   -2.9139   -1.8586 H   0  0  0  0  0  0  0  0  0  0  0  0
   -2.0240   -2.6656   -0.9630 H   0  0  0  0  0  0  0  0  0  0  0  0
   -1.2420    1.4339   -0.2167 H   0  0  0  0  0  0  0  0  0  0  0  0
   -3.3346   -2.3629    0.8697 H   0  0  0  0  0  0  0  0  0  0  0  0
   -6.1349   -2.0697    2.8161 H   0  0  0  0  0  0  0  0  0  0  0  0
   -5.2252   -3.2880    1.8735 H   0  0  0  0  0  0  0  0  0  0  0  0
   -6.8077   -2.6290    1.2489 H   0  0  0  0  0  0  0  0  0  0  0  0
   -6.8345   -0.0459    1.0941 H   0  0  0  0  0  0  0  0  0  0  0  0
   -6.6684    1.8431   -1.0049 H   0  0  0  0  0  0  0  0  0  0  0  0
   -6.4715    2.4817    0.6531 H   0  0  0  0  0  0  0  0  0  0  0  0
   -5.2542    2.8888   -0.6651 H   0  0  0  0  0  0  0  0  0  0  0  0
   -3.3359    1.5063   -0.8171 H   0  0  0  0  0  0  0  0  0  0  0  0
  1  2  1  0
  2  3  1  0
  2  4  1  0
  4  5  1  0
  4  6  1  0
  6  7  2  0
  6  8  1  0
  8  9  1  0
  9 10  2  0
  9 11  2  0
  9 12  1  0
 12 13  2  0
 13 14  1  0
 14 15  2  0
 15 16  1  0
 16 17  2  0
 16 18  1  0
 18 19  2  0
 19 20  1  0
 20 21  1  0
 20 22  2  0
 22 23  1  0
 23 24  1  0
 23 25  2  0
 17 12  1  0
 25 18  1  0
  1 26  1  0
  1 27  1  0
  1 28  1  0
  2 29  1  6
  3 30  1  0
  4 31  1  6
  5 32  1  0
  5 33  1  0
  8 34  1  0
 13 35  1  0
 14 36  1  0
 15 37  1  0
 17 38  1  0
 19 39  1  0
 21 40  1  0
 21 41  1  0
 21 42  1  0
 22 43  1  0
 24 44  1  0
 24 45  1  0
 24 46  1  0
 25 47  1  0
M  END
$$$$
[H]O[C@]([H])(C([H])([H])[H])[C@]([H])(c1nnc(-c2c([H])c([H])c(N3C([H])([H])C([H])([H])OC([H])([H])C3([H])[H])c([H])c2[H])o1)N([H])c1c([H])c([H])c([N+]#[C-])c(Cl)c1C([H])([H])[H]
     RDKit          3D

 56 59  0  0  0  0  0  0  0  0999 V2000
    2.3312   -2.7706   -0.0941 C   0  0  0  0  0  0  0  0  0  0  0  0
    3.3027   -2.4552    1.0571 C   0  0  1  0  0  0  0  0  0  0  0  0
    4.5812   -2.8019    0.7507 O   0  0  0  0  0  0  0  0  0  0  0  0
    3.0734   -1.0321    1.4951 C   0  0  1  0  0  0  0  0  0  0  0  0
    3.4437   -0.0349    0.5585 N   0  0  0  0  0  0  0  0  0  0  0  0
    4.7574    0.4121    0.3007 C   0  0  0  0  0  0  0  0  0  0  0  0
    5.8504    0.0722    1.0670 C   0  0  0  0  0  0  0  0  0  0  0  0
    7.1398    0.5535    0.8101 C   0  0  0  0  0  0  0  0  0  0  0  0
    7.3455    1.4069   -0.2511 C   0  0  0  0  0  0  0  0  0  0  0  0
    8.6095    1.9093   -0.5431 N   0  0  0  0  0  0  0  0  0  0  0  0
    9.6535    2.3450   -0.7856 C   0  0  0  0  0  0  0  0  0  0  0  0
    6.2425    1.7402   -1.0103 C   0  0  0  0  0  0  0  0  0  0  0  0
    6.4645    2.8336   -2.3816 Cl  0  0  0  0  0  0  0  0  0  0  0  0
    4.9742    1.2741   -0.7680 C   0  0  0  0  0  0  0  0  0  0  0  0
    3.8419    1.6964   -1.6525 C   0  0  0  0  0  0  0  0  0  0  0  0
    1.6162   -0.9320    1.8764 C   0  0  0  0  0  0  0  0  0  0  0  0
    1.0852   -1.0059    3.1104 N   0  0  0  0  0  0  0  0  0  0  0  0
   -0.2262   -0.8705    3.0044 N   0  0  0  0  0  0  0  0  0  0  0  0
   -0.5401   -0.7084    1.6933 C   0  0  0  0  0  0  0  0  0  0  0  0
    0.6032   -0.7535    1.0609 O   0  0  0  0  0  0  0  0  0  0  0  0
   -1.8836   -0.5271    1.1619 C   0  0  0  0  0  0  0  0  0  0  0  0
   -2.9955   -0.5017    1.9682 C   0  0  0  0  0  0  0  0  0  0  0  0
   -4.2644   -0.3240    1.4064 C   0  0  0  0  0  0  0  0  0  0  0  0
   -4.4625   -0.1704    0.0644 C   0  0  0  0  0  0  0  0  0  0  0  0
   -3.3260   -0.1977   -0.7464 C   0  0  0  0  0  0  0  0  0  0  0  0
   -2.0687   -0.3734   -0.1928 C   0  0  0  0  0  0  0  0  0  0  0  0
   -5.7229    0.0141   -0.5664 N   0  0  0  0  0  0  0  0  0  0  0  0
   -5.8133    0.1475   -2.0286 C   0  0  0  0  0  0  0  0  0  0  0  0
   -7.2330    0.4529   -2.3708 C   0  0  0  0  0  0  0  0  0  0  0  0
   -7.6885    1.5415   -1.6704 O   0  0  0  0  0  0  0  0  0  0  0  0
   -7.6607    1.3914   -0.3072 C   0  0  0  0  0  0  0  0  0  0  0  0
   -6.9887    0.0871    0.1288 C   0  0  0  0  0  0  0  0  0  0  0  0
    2.8101   -3.6100   -0.6641 H   0  0  0  0  0  0  0  0  0  0  0  0
    1.3348   -3.0104    0.2796 H   0  0  0  0  0  0  0  0  0  0  0  0
    2.3589   -1.8841   -0.7688 H   0  0  0  0  0  0  0  0  0  0  0  0
    2.8935   -3.0852    1.9078 H   0  0  0  0  0  0  0  0  0  0  0  0
    4.6561   -2.8668   -0.2537 H   0  0  0  0  0  0  0  0  0  0  0  0
    3.6378   -0.9073    2.4442 H   0  0  0  0  0  0  0  0  0  0  0  0
    2.6602    0.4177    0.0010 H   0  0  0  0  0  0  0  0  0  0  0  0
    5.7590   -0.5682    1.9158 H   0  0  0  0  0  0  0  0  0  0  0  0
    7.9885    0.2771    1.4206 H   0  0  0  0  0  0  0  0  0  0  0  0
    3.1475    2.3560   -1.0884 H   0  0  0  0  0  0  0  0  0  0  0  0
    4.2120    2.1604   -2.5794 H   0  0  0  0  0  0  0  0  0  0  0  0
    3.3031    0.7415   -1.9041 H   0  0  0  0  0  0  0  0  0  0  0  0
   -2.9029   -0.6201    3.0594 H   0  0  0  0  0  0  0  0  0  0  0  0
   -5.1403   -0.3059    2.0551 H   0  0  0  0  0  0  0  0  0  0  0  0
   -3.4522   -0.0773   -1.8254 H   0  0  0  0  0  0  0  0  0  0  0  0
   -1.2305   -0.3823   -0.9025 H   0  0  0  0  0  0  0  0  0  0  0  0
   -5.1545    0.9717   -2.3099 H   0  0  0  0  0  0  0  0  0  0  0  0
   -5.4530   -0.7847   -2.4989 H   0  0  0  0  0  0  0  0  0  0  0  0
   -7.8668   -0.4673   -2.2295 H   0  0  0  0  0  0  0  0  0  0  0  0
   -7.2437    0.7436   -3.4629 H   0  0  0  0  0  0  0  0  0  0  0  0
   -7.0872    2.2105    0.1785 H   0  0  0  0  0  0  0  0  0  0  0  0
   -8.6907    1.4541    0.0891 H   0  0  0  0  0  0  0  0  0  0  0  0
   -7.6608   -0.7491   -0.2222 H   0  0  0  0  0  0  0  0  0  0  0  0
   -6.9208    0.1146    1.2136 H   0  0  0  0  0  0  0  0  0  0  0  0
  1  2  1  0
  2  3  1  0
  2  4  1  0
  4  5  1  0
  5  6  1  0
  6  7  2  0
  7  8  1  0
  8  9  2  0
  9 10  1  0
 10 11  3  0
  9 12  1  0
 12 13  1  0
 12 14  2  0
 14 15  1  0
  4 16  1  0
 16 17  2  0
 17 18  1  0
 18 19  2  0
 19 20  1  0
 19 21  1  0
 21 22  2  0
 22 23  1  0
 23 24  2  0
 24 25  1  0
 25 26  2  0
 24 27  1  0
 27 28  1  0
 28 29  1  0
 29 30  1  0
 30 31  1  0
 31 32  1  0
 14  6  1  0
 20 16  1  0
 26 21  1  0
 32 27  1  0
  1 33  1  0
  1 34  1  0
  1 35  1  0
  2 36  1  1
  3 37  1  0
  4 38  1  1
  5 39  1  0
  7 40  1  0
  8 41  1  0
 15 42  1  0
 15 43  1  0
 15 44  1  0
 22 45  1  0
 23 46  1  0
 25 47  1  0
 26 48  1  0
 28 49  1  0
 28 50  1  0
 29 51  1  0
 29 52  1  0
 31 53  1  0
 31 54  1  0
 32 55  1  0
 32 56  1  0
M  CHG  2  10   1  11  -1
M  END
$$$$
[H]N=C(N([H])[H])N([H])C([H])([H])C([H])([H])C([H])([H])[C@@]([H])(C(=O)N([H])[C@]([H])(C(=N[H])N([H])[H])C([H])([H])c1c([H])c([H])c([H])c([H])c1[H])N([H])C(=O)[C@@]([H])(N([H])C(=O)[C@@]([H])(N([H])C(=O)[C@@]([H])(N([H])C(=O)C([H])([H])[H])C([H])([H])C([H])([H])C([H])([H])N([H])C(=N[H])N([H])[H])C([H])(C([H])([H])[H])C([H])([H])[H])C([H])([H])C([H])([H])C([H])([H])N([H])C(=N[H])N([H])[H]
     RDKit          3D

115115  0  0  0  0  0  0  0  0999 V2000
    9.8325   -0.5313    0.2063 C   0  0  0  0  0  0  0  0  0  0  0  0
    8.6315   -0.7755   -0.6106 C   0  0  0  0  0  0  0  0  0  0  0  0
    8.7486   -1.1768   -1.7836 O   0  0  0  0  0  0  0  0  0  0  0  0
    7.3213   -0.5637   -0.0914 N   0  0  0  0  0  0  0  0  0  0  0  0
    6.1266   -0.7880   -0.8449 C   0  0  1  0  0  0  0  0  0  0  0  0
    5.4182   -2.0677   -0.6984 C   0  0  0  0  0  0  0  0  0  0  0  0
    4.8639   -2.5205    0.5752 C   0  0  0  0  0  0  0  0  0  0  0  0
    5.8125   -2.7444    1.6973 C   0  0  0  0  0  0  0  0  0  0  0  0
    5.0992   -3.2492    2.8884 N   0  0  0  0  0  0  0  0  0  0  0  0
    5.8627   -3.5155    4.0409 C   0  0  0  0  0  0  0  0  0  0  0  0
    5.9525   -2.6097    5.1301 N   0  0  0  0  0  0  0  0  0  0  0  0
    6.4993   -4.6261    4.1071 N   0  0  0  0  0  0  0  0  0  0  0  0
    5.2594    0.4231   -0.8773 C   0  0  0  0  0  0  0  0  0  0  0  0
    5.6898    1.4771   -0.3235 O   0  0  0  0  0  0  0  0  0  0  0  0
    3.9872    0.4761   -1.4846 N   0  0  0  0  0  0  0  0  0  0  0  0
    3.1451    1.6380   -1.5329 C   0  0  1  0  0  0  0  0  0  0  0  0
    2.6633    2.0151   -2.8929 C   0  0  0  0  0  0  0  0  0  0  0  0
    3.8275    2.3173   -3.8189 C   0  0  0  0  0  0  0  0  0  0  0  0
    1.7553    0.9990   -3.5266 C   0  0  0  0  0  0  0  0  0  0  0  0
    2.0704    1.5631   -0.5108 C   0  0  0  0  0  0  0  0  0  0  0  0
    2.0689    0.5884    0.2748 O   0  0  0  0  0  0  0  0  0  0  0  0
    1.0609    2.5394   -0.3909 N   0  0  0  0  0  0  0  0  0  0  0  0
    0.0379    2.4598    0.6070 C   0  0  1  0  0  0  0  0  0  0  0  0
   -0.2990    3.7164    1.3085 C   0  0  0  0  0  0  0  0  0  0  0  0
    0.8917    4.3266    2.0362 C   0  0  0  0  0  0  0  0  0  0  0  0
    0.4793    5.6061    2.7298 C   0  0  0  0  0  0  0  0  0  0  0  0
   -0.5682    5.4024    3.7001 N   0  0  0  0  0  0  0  0  0  0  0  0
   -0.3367    4.6734    4.8904 C   0  0  0  0  0  0  0  0  0  0  0  0
   -1.3015    3.7189    5.3079 N   0  0  0  0  0  0  0  0  0  0  0  0
    0.7277    4.8805    5.5682 N   0  0  0  0  0  0  0  0  0  0  0  0
   -1.2036    1.8191    0.0437 C   0  0  0  0  0  0  0  0  0  0  0  0
   -1.0551    0.8353   -0.7659 O   0  0  0  0  0  0  0  0  0  0  0  0
   -2.5094    2.2313    0.3489 N   0  0  0  0  0  0  0  0  0  0  0  0
   -3.7053    1.6376   -0.1463 C   0  0  1  0  0  0  0  0  0  0  0  0
   -4.1974    2.0692   -1.4634 C   0  0  0  0  0  0  0  0  0  0  0  0
   -3.3377    1.8768   -2.6539 C   0  0  0  0  0  0  0  0  0  0  0  0
   -4.0905    2.4428   -3.8687 C   0  0  0  0  0  0  0  0  0  0  0  0
   -5.3476    1.8133   -4.1029 N   0  0  0  0  0  0  0  0  0  0  0  0
   -5.4142    0.4600   -4.5399 C   0  0  0  0  0  0  0  0  0  0  0  0
   -6.6258   -0.2736   -4.6238 N   0  0  0  0  0  0  0  0  0  0  0  0
   -4.3209   -0.1542   -4.8891 N   0  0  0  0  0  0  0  0  0  0  0  0
   -3.7707    0.2076    0.1813 C   0  0  0  0  0  0  0  0  0  0  0  0
   -2.8870   -0.2452    0.9882 O   0  0  0  0  0  0  0  0  0  0  0  0
   -4.6985   -0.7406   -0.2870 N   0  0  0  0  0  0  0  0  0  0  0  0
   -4.6450   -2.1464    0.1543 C   0  0  1  0  0  0  0  0  0  0  0  0
   -6.0403   -2.4494    0.6230 C   0  0  0  0  0  0  0  0  0  0  0  0
   -6.2821   -3.7959    1.1217 C   0  0  0  0  0  0  0  0  0  0  0  0
   -6.0577   -4.0919    2.4483 C   0  0  0  0  0  0  0  0  0  0  0  0
   -6.3162   -5.3733    2.8985 C   0  0  0  0  0  0  0  0  0  0  0  0
   -6.7899   -6.3516    2.0550 C   0  0  0  0  0  0  0  0  0  0  0  0
   -7.0131   -6.0531    0.7296 C   0  0  0  0  0  0  0  0  0  0  0  0
   -6.7547   -4.7794    0.2856 C   0  0  0  0  0  0  0  0  0  0  0  0
   -4.2202   -3.0620   -0.9117 C   0  0  0  0  0  0  0  0  0  0  0  0
   -3.5949   -4.3114   -0.6737 N   0  0  0  0  0  0  0  0  0  0  0  0
   -4.4261   -2.7356   -2.1695 N   0  0  0  0  0  0  0  0  0  0  0  0
    9.5012   -0.0928    1.1688 H   0  0  0  0  0  0  0  0  0  0  0  0
   10.4451    0.2421   -0.3349 H   0  0  0  0  0  0  0  0  0  0  0  0
   10.4215   -1.4677    0.3370 H   0  0  0  0  0  0  0  0  0  0  0  0
    7.2645   -0.2000    0.8752 H   0  0  0  0  0  0  0  0  0  0  0  0
    6.5203   -0.8287   -1.9459 H   0  0  0  0  0  0  0  0  0  0  0  0
    4.6095   -2.0827   -1.4891 H   0  0  0  0  0  0  0  0  0  0  0  0
    6.1384   -2.8779   -1.0469 H   0  0  0  0  0  0  0  0  0  0  0  0
    3.9797   -1.9073    0.9266 H   0  0  0  0  0  0  0  0  0  0  0  0
    4.3648   -3.5288    0.3721 H   0  0  0  0  0  0  0  0  0  0  0  0
    6.6009   -3.4642    1.4816 H   0  0  0  0  0  0  0  0  0  0  0  0
    6.1962   -1.7522    2.0586 H   0  0  0  0  0  0  0  0  0  0  0  0
    4.0899   -3.4007    2.8751 H   0  0  0  0  0  0  0  0  0  0  0  0
    5.8650   -2.9023    6.1290 H   0  0  0  0  0  0  0  0  0  0  0  0
    6.1147   -1.5883    4.9326 H   0  0  0  0  0  0  0  0  0  0  0  0
    7.0660   -4.8368    4.9498 H   0  0  0  0  0  0  0  0  0  0  0  0
    3.6172   -0.3864   -1.9364 H   0  0  0  0  0  0  0  0  0  0  0  0
    3.8028    2.4958   -1.1850 H   0  0  0  0  0  0  0  0  0  0  0  0
    2.0896    2.9628   -2.7867 H   0  0  0  0  0  0  0  0  0  0  0  0
    3.4997    2.2650   -4.8719 H   0  0  0  0  0  0  0  0  0  0  0  0
    4.6006    1.5348   -3.6382 H   0  0  0  0  0  0  0  0  0  0  0  0
    4.2284    3.3046   -3.5729 H   0  0  0  0  0  0  0  0  0  0  0  0
    2.3334    0.4591   -4.3332 H   0  0  0  0  0  0  0  0  0  0  0  0
    0.8884    1.4528   -4.0639 H   0  0  0  0  0  0  0  0  0  0  0  0
    1.3723    0.2299   -2.8539 H   0  0  0  0  0  0  0  0  0  0  0  0
    1.0632    3.3418   -1.0525 H   0  0  0  0  0  0  0  0  0  0  0  0
    0.3791    1.6896    1.3792 H   0  0  0  0  0  0  0  0  0  0  0  0
   -1.0416    3.5076    2.1459 H   0  0  0  0  0  0  0  0  0  0  0  0
   -0.7848    4.4618    0.6628 H   0  0  0  0  0  0  0  0  0  0  0  0
    1.3088    3.6224    2.7793 H   0  0  0  0  0  0  0  0  0  0  0  0
    1.7121    4.5777    1.3385 H   0  0  0  0  0  0  0  0  0  0  0  0
    1.3963    6.0358    3.1909 H   0  0  0  0  0  0  0  0  0  0  0  0
    0.1400    6.2974    1.9247 H   0  0  0  0  0  0  0  0  0  0  0  0
   -1.5182    5.7933    3.5409 H   0  0  0  0  0  0  0  0  0  0  0  0
   -1.5349    3.6892    6.3234 H   0  0  0  0  0  0  0  0  0  0  0  0
   -1.7883    3.0526    4.6715 H   0  0  0  0  0  0  0  0  0  0  0  0
    0.8780    4.3330    6.4421 H   0  0  0  0  0  0  0  0  0  0  0  0
   -2.5771    3.0678    1.0045 H   0  0  0  0  0  0  0  0  0  0  0  0
   -4.5281    2.0598    0.5937 H   0  0  0  0  0  0  0  0  0  0  0  0
   -5.2218    1.6557   -1.6461 H   0  0  0  0  0  0  0  0  0  0  0  0
   -4.3913    3.1833   -1.3888 H   0  0  0  0  0  0  0  0  0  0  0  0
   -3.0201    0.8447   -2.8443 H   0  0  0  0  0  0  0  0  0  0  0  0
   -2.4225    2.5135   -2.5961 H   0  0  0  0  0  0  0  0  0  0  0  0
   -4.2681    3.5236   -3.6463 H   0  0  0  0  0  0  0  0  0  0  0  0
   -3.4704    2.3848   -4.7921 H   0  0  0  0  0  0  0  0  0  0  0  0
   -6.2799    2.3015   -3.9698 H   0  0  0  0  0  0  0  0  0  0  0  0
   -7.3798   -0.2280   -3.9038 H   0  0  0  0  0  0  0  0  0  0  0  0
   -6.8413   -0.9209   -5.4350 H   0  0  0  0  0  0  0  0  0  0  0  0
   -4.3221   -1.1350   -5.2127 H   0  0  0  0  0  0  0  0  0  0  0  0
   -5.4359   -0.4863   -0.9474 H   0  0  0  0  0  0  0  0  0  0  0  0
   -3.9170   -2.1635    1.0213 H   0  0  0  0  0  0  0  0  0  0  0  0
   -6.6989   -2.2622   -0.2800 H   0  0  0  0  0  0  0  0  0  0  0  0
   -6.3801   -1.6692    1.3508 H   0  0  0  0  0  0  0  0  0  0  0  0
   -5.6781   -3.3386    3.1573 H   0  0  0  0  0  0  0  0  0  0  0  0
   -6.1522   -5.6408    3.9266 H   0  0  0  0  0  0  0  0  0  0  0  0
   -6.9989   -7.3643    2.3887 H   0  0  0  0  0  0  0  0  0  0  0  0
   -7.3921   -6.8374    0.0559 H   0  0  0  0  0  0  0  0  0  0  0  0
   -6.9288   -4.5563   -0.7415 H   0  0  0  0  0  0  0  0  0  0  0  0
   -3.6710   -4.8796    0.1949 H   0  0  0  0  0  0  0  0  0  0  0  0
   -2.9912   -4.7092   -1.4381 H   0  0  0  0  0  0  0  0  0  0  0  0
   -4.8775   -1.8569   -2.4380 H   0  0  0  0  0  0  0  0  0  0  0  0
  1  2  1  0
  2  3  2  0
  2  4  1  0
  4  5  1  0
  5  6  1  0
  6  7  1  0
  7  8  1  0
  8  9  1  0
  9 10  1  0
 10 11  1  0
 10 12  2  3
  5 13  1  0
 13 14  2  0
 13 15  1  0
 15 16  1  0
 16 17  1  0
 17 18  1  0
 17 19  1  0
 16 20  1  0
 20 21  2  0
 20 22  1  0
 22 23  1  0
 23 24  1  0
 24 25  1  0
 25 26  1  0
 26 27  1  0
 27 28  1  0
 28 29  1  0
 28 30  2  3
 23 31  1  0
 31 32  2  0
 31 33  1  0
 33 34  1  0
 34 35  1  0
 35 36  1  0
 36 37  1  0
 37 38  1  0
 38 39  1  0
 39 40  1  0
 39 41  2  3
 34 42  1  0
 42 43  2  0
 42 44  1  0
 44 45  1  0
 45 46  1  0
 46 47  1  0
 47 48  2  0
 48 49  1  0
 49 50  2  0
 50 51  1  0
 51 52  2  0
 45 53  1  0
 53 54  1  0
 53 55  2  3
 52 47  1  0
  1 56  1  0
  1 57  1  0
  1 58  1  0
  4 59  1  0
  5 60  1  6
  6 61  1  0
  6 62  1  0
  7 63  1  0
  7 64  1  0
  8 65  1  0
  8 66  1  0
  9 67  1  0
 11 68  1  0
 11 69  1  0
 12 70  1  0
 15 71  1  0
 16 72  1  1
 17 73  1  0
 18 74  1  0
 18 75  1  0
 18 76  1  0
 19 77  1  0
 19 78  1  0
 19 79  1  0
 22 80  1  0
 23 81  1  1
 24 82  1  0
 24 83  1  0
 25 84  1  0
 25 85  1  0
 26 86  1  0
 26 87  1  0
 27 88  1  0
 29 89  1  0
 29 90  1  0
 30 91  1  0
 33 92  1  0
 34 93  1  1
 35 94  1  0
 35 95  1  0
 36 96  1  0
 36 97  1  0
 37 98  1  0
 37 99  1  0
 38100  1  0
 40101  1  0
 40102  1  0
 41103  1  0
 44104  1  0
 45105  1  1
 46106  1  0
 46107  1  0
 48108  1  0
 49109  1  0
 50110  1  0
 51111  1  0
 52112  1  0
 54113  1  0
 54114  1  0
 55115  1  0
M  END
$$$$
[H]OC(=O)C([H])([H])[C@@]([H])(C(=O)C([H])([H])Oc1c([H])c([H])c([H])c([H])c1[H])N([H])C(=O)[C@@]([H])(N([H])C(=O)[C@@]([H])(N([H])C(=O)OC([H])([H])c1c([H])c([H])c([H])c([H])c1[H])C([H])([H])c1c([H])c([H])c([H])c([H])c1[H])C([H])(C([H])([H])[H])C([H])([H])[H]
     RDKit          3D

 81 83  0  0  0  0  0  0  0  0999 V2000
   -0.4268    3.0224   -1.0140 C   0  0  0  0  0  0  0  0  0  0  0  0
    0.8816    2.4711   -0.4632 C   0  0  0  0  0  0  0  0  0  0  0  0
    0.9896    2.8152    0.9670 C   0  0  0  0  0  0  0  0  0  0  0  0
    0.9241    0.9872   -0.7803 C   0  0  2  0  0  0  0  0  0  0  0  0
   -0.1554    0.2601   -0.1896 N   0  0  0  0  0  0  0  0  0  0  0  0
   -1.3580   -0.1263   -0.8000 C   0  0  0  0  0  0  0  0  0  0  0  0
   -1.5717    0.1610   -1.9944 O   0  0  0  0  0  0  0  0  0  0  0  0
   -2.3927   -0.8677   -0.0543 C   0  0  2  0  0  0  0  0  0  0  0  0
   -2.1101   -2.3792   -0.0740 C   0  0  0  0  0  0  0  0  0  0  0  0
   -3.2001   -3.0376    0.6930 C   0  0  0  0  0  0  0  0  0  0  0  0
   -4.3427   -3.4475    0.0492 C   0  0  0  0  0  0  0  0  0  0  0  0
   -5.3837   -4.0666    0.7463 C   0  0  0  0  0  0  0  0  0  0  0  0
   -5.2898   -4.2839    2.1090 C   0  0  0  0  0  0  0  0  0  0  0  0
   -4.1366   -3.8687    2.7567 C   0  0  0  0  0  0  0  0  0  0  0  0
   -3.1028   -3.2504    2.0470 C   0  0  0  0  0  0  0  0  0  0  0  0
   -3.7233   -0.6085   -0.5773 N   0  0  0  0  0  0  0  0  0  0  0  0
   -4.7150   -0.0526    0.2673 C   0  0  0  0  0  0  0  0  0  0  0  0
   -4.3930    0.1906    1.4684 O   0  0  0  0  0  0  0  0  0  0  0  0
   -6.0113    0.2530   -0.1139 O   0  0  0  0  0  0  0  0  0  0  0  0
   -6.9430    0.8132    0.7950 C   0  0  0  0  0  0  0  0  0  0  0  0
   -8.2447    1.0882    0.1654 C   0  0  0  0  0  0  0  0  0  0  0  0
   -9.2523    0.1557    0.1294 C   0  0  0  0  0  0  0  0  0  0  0  0
  -10.4515    0.4743   -0.4731 C   0  0  0  0  0  0  0  0  0  0  0  0
  -10.6147    1.7362   -1.0324 C   0  0  0  0  0  0  0  0  0  0  0  0
   -9.6191    2.6780   -1.0044 C   0  0  0  0  0  0  0  0  0  0  0  0
   -8.4214    2.3425   -0.3964 C   0  0  0  0  0  0  0  0  0  0  0  0
    2.2640    0.4130   -0.5542 C   0  0  0  0  0  0  0  0  0  0  0  0
    2.4129   -0.6757    0.0520 O   0  0  0  0  0  0  0  0  0  0  0  0
    3.4534    1.0604   -1.0042 N   0  0  0  0  0  0  0  0  0  0  0  0
    4.7787    0.5029   -0.7746 C   0  0  1  0  0  0  0  0  0  0  0  0
    5.6041    0.5959   -2.0313 C   0  0  0  0  0  0  0  0  0  0  0  0
    4.9931   -0.1338   -3.1636 C   0  0  0  0  0  0  0  0  0  0  0  0
    5.5675   -0.1485   -4.4185 O   0  0  0  0  0  0  0  0  0  0  0  0
    3.9204   -0.7563   -2.9740 O   0  0  0  0  0  0  0  0  0  0  0  0
    5.3691    1.3771    0.3025 C   0  0  0  0  0  0  0  0  0  0  0  0
    4.7714    2.3647    0.7214 O   0  0  0  0  0  0  0  0  0  0  0  0
    6.6804    1.1052    0.9167 C   0  0  0  0  0  0  0  0  0  0  0  0
    7.2321   -0.0645    0.3760 O   0  0  0  0  0  0  0  0  0  0  0  0
    8.4675   -0.5169    0.8095 C   0  0  0  0  0  0  0  0  0  0  0  0
    9.0022   -1.6618    0.2723 C   0  0  0  0  0  0  0  0  0  0  0  0
   10.2401   -2.0802    0.7354 C   0  0  0  0  0  0  0  0  0  0  0  0
   10.9031   -1.3528    1.7106 C   0  0  0  0  0  0  0  0  0  0  0  0
   10.3704   -0.2069    2.2489 C   0  0  0  0  0  0  0  0  0  0  0  0
    9.1338    0.2019    1.7788 C   0  0  0  0  0  0  0  0  0  0  0  0
   -0.4985    4.1232   -0.8628 H   0  0  0  0  0  0  0  0  0  0  0  0
   -1.2837    2.6040   -0.4826 H   0  0  0  0  0  0  0  0  0  0  0  0
   -0.4249    2.8451   -2.1128 H   0  0  0  0  0  0  0  0  0  0  0  0
    1.6955    2.9509   -1.0400 H   0  0  0  0  0  0  0  0  0  0  0  0
    0.9749    1.9850    1.6899 H   0  0  0  0  0  0  0  0  0  0  0  0
    1.9737    3.3383    1.1470 H   0  0  0  0  0  0  0  0  0  0  0  0
    0.2225    3.6065    1.2332 H   0  0  0  0  0  0  0  0  0  0  0  0
    0.7247    0.9698   -1.8953 H   0  0  0  0  0  0  0  0  0  0  0  0
   -0.0529   -0.0308    0.8359 H   0  0  0  0  0  0  0  0  0  0  0  0
   -2.3627   -0.5459    1.0059 H   0  0  0  0  0  0  0  0  0  0  0  0
   -2.0703   -2.7499   -1.1103 H   0  0  0  0  0  0  0  0  0  0  0  0
   -1.1637   -2.5124    0.4862 H   0  0  0  0  0  0  0  0  0  0  0  0
   -4.4287   -3.2838   -1.0093 H   0  0  0  0  0  0  0  0  0  0  0  0
   -6.2906   -4.3909    0.2430 H   0  0  0  0  0  0  0  0  0  0  0  0
   -6.0905   -4.7636    2.6618 H   0  0  0  0  0  0  0  0  0  0  0  0
   -4.0794   -4.0427    3.8079 H   0  0  0  0  0  0  0  0  0  0  0  0
   -2.2341   -2.9534    2.6059 H   0  0  0  0  0  0  0  0  0  0  0  0
   -3.9730   -0.8206   -1.5605 H   0  0  0  0  0  0  0  0  0  0  0  0
   -7.0513    0.0687    1.6383 H   0  0  0  0  0  0  0  0  0  0  0  0
   -6.5524    1.7353    1.2932 H   0  0  0  0  0  0  0  0  0  0  0  0
   -9.1520   -0.8307    0.5571 H   0  0  0  0  0  0  0  0  0  0  0  0
  -11.2814   -0.2131   -0.5326 H   0  0  0  0  0  0  0  0  0  0  0  0
  -11.5411    2.0314   -1.5202 H   0  0  0  0  0  0  0  0  0  0  0  0
   -9.7180    3.6741   -1.4323 H   0  0  0  0  0  0  0  0  0  0  0  0
   -7.6327    3.1069   -0.3831 H   0  0  0  0  0  0  0  0  0  0  0  0
    3.4083    1.9620   -1.5163 H   0  0  0  0  0  0  0  0  0  0  0  0
    4.7555   -0.5205   -0.4120 H   0  0  0  0  0  0  0  0  0  0  0  0
    5.7099    1.6824   -2.3454 H   0  0  0  0  0  0  0  0  0  0  0  0
    6.6402    0.2258   -1.9305 H   0  0  0  0  0  0  0  0  0  0  0  0
    5.0252   -0.2898   -5.2626 H   0  0  0  0  0  0  0  0  0  0  0  0
    6.5803    1.0307    2.0316 H   0  0  0  0  0  0  0  0  0  0  0  0
    7.3794    1.9662    0.7265 H   0  0  0  0  0  0  0  0  0  0  0  0
    8.5341   -2.2636   -0.4803 H   0  0  0  0  0  0  0  0  0  0  0  0
   10.7147   -2.9832    0.3465 H   0  0  0  0  0  0  0  0  0  0  0  0
   11.8848   -1.6811    2.0800 H   0  0  0  0  0  0  0  0  0  0  0  0
   10.8650    0.3852    3.0104 H   0  0  0  0  0  0  0  0  0  0  0  0
    8.6935    1.1013    2.1912 H   0  0  0  0  0  0  0  0  0  0  0  0
  1  2  1  0
  2  3  1  0
  2  4  1  0
  4  5  1  0
  5  6  1  0
  6  7  2  0
  6  8  1  0
  8  9  1  0
  9 10  1  0
 10 11  2  0
 11 12  1  0
 12 13  2  0
 13 14  1  0
 14 15  2  0
  8 16  1  0
 16 17  1  0
 17 18  2  0
 17 19  1  0
 19 20  1  0
 20 21  1  0
 21 22  2  0
 22 23  1  0
 23 24  2  0
 24 25  1  0
 25 26  2  0
  4 27  1  0
 27 28  2  0
 27 29  1  0
 29 30  1  0
 30 31  1  0
 31 32  1  0
 32 33  1  0
 32 34  2  0
 30 35  1  0
 35 36  2  0
 35 37  1  0
 37 38  1  0
 38 39  1  0
 39 40  2  0
 40 41  1  0
 41 42  2  0
 42 43  1  0
 43 44  2  0
 15 10  1  0
 26 21  1  0
 44 39  1  0
  1 45  1  0
  1 46  1  0
  1 47  1  0
  2 48  1  0
  3 49  1  0
  3 50  1  0
  3 51  1  0
  4 52  1  6
  5 53  1  0
  8 54  1  1
  9 55  1  0
  9 56  1  0
 11 57  1  0
 12 58  1  0
 13 59  1  0
 14 60  1  0
 15 61  1  0
 16 62  1  0
 20 63  1  0
 20 64  1  0
 22 65  1  0
 23 66  1  0
 24 67  1  0
 25 68  1  0
 26 69  1  0
 29 70  1  0
 30 71  1  1
 31 72  1  0
 31 73  1  0
 33 74  1  0
 37 75  1  0
 37 76  1  0
 40 77  1  0
 41 78  1  0
 42 79  1  0
 43 80  1  0
 44 81  1  0
M  END
$$$$
[H]Oc1c([H])c([H])c(C([H])([H])[C@@]([H])(C(=O)N2C([H])([H])C([H])([H])C([H])([H])[C@@]2([H])C(=O)N([H])[C@]([H])(C(=O)N([H])[C@]([H])(C(=O)N([H])[C@]([H])(C(=O)N([H])[H])C([H])([H])C([H])(C([H])([H])[H])C([H])([H])[H])C([H])([H])C([H])(C([H])([H])[H])C([H])([H])[H])C([H])([H])c2c([H])c([H])c([H])c([H])c2[H])N([H])[H])c([H])c1[H]
     RDKit          3D

 97 99  0  0  0  0  0  0  0  0999 V2000
   -8.4649    2.8010    0.5835 C   0  0  0  0  0  0  0  0  0  0  0  0
   -7.5888    2.7741   -0.6342 C   0  0  0  0  0  0  0  0  0  0  0  0
   -8.2481    3.7545   -1.6356 C   0  0  0  0  0  0  0  0  0  0  0  0
   -6.2015    3.2540   -0.4598 C   0  0  0  0  0  0  0  0  0  0  0  0
   -5.3455    2.5464    0.5171 C   0  0  2  0  0  0  0  0  0  0  0  0
   -5.1459    1.1267    0.2547 N   0  0  0  0  0  0  0  0  0  0  0  0
   -3.8473    0.6055    0.3208 C   0  0  0  0  0  0  0  0  0  0  0  0
   -2.9126    1.4259    0.6158 O   0  0  0  0  0  0  0  0  0  0  0  0
   -3.4390   -0.8121    0.0843 C   0  0  2  0  0  0  0  0  0  0  0  0
   -4.5021   -1.7806    0.4038 C   0  0  0  0  0  0  0  0  0  0  0  0
   -4.2226   -3.2331    0.2542 C   0  0  0  0  0  0  0  0  0  0  0  0
   -5.5695   -4.0098    0.5364 C   0  0  0  0  0  0  0  0  0  0  0  0
   -3.2552   -3.7118    1.3214 C   0  0  0  0  0  0  0  0  0  0  0  0
   -2.1034   -1.0283    0.3748 N   0  0  0  0  0  0  0  0  0  0  0  0
   -0.7977   -1.2398    0.6589 C   0  0  0  0  0  0  0  0  0  0  0  0
   -0.3266   -1.4793    1.8252 O   0  0  0  0  0  0  0  0  0  0  0  0
    0.2622   -1.2112   -0.3818 C   0  0  2  0  0  0  0  0  0  0  0  0
    0.1300   -2.2336   -1.4636 C   0  0  0  0  0  0  0  0  0  0  0  0
    0.1078   -3.6561   -1.1091 C   0  0  0  0  0  0  0  0  0  0  0  0
   -0.6868   -4.5294   -1.9025 C   0  0  0  0  0  0  0  0  0  0  0  0
   -0.7693   -5.8785   -1.6185 C   0  0  0  0  0  0  0  0  0  0  0  0
   -0.0929   -6.4529   -0.5603 C   0  0  0  0  0  0  0  0  0  0  0  0
    0.6807   -5.6254    0.2207 C   0  0  0  0  0  0  0  0  0  0  0  0
    0.7644   -4.2455   -0.0707 C   0  0  0  0  0  0  0  0  0  0  0  0
    1.5989   -1.1822    0.1340 N   0  0  0  0  0  0  0  0  0  0  0  0
    2.6317   -0.4698   -0.6088 C   0  0  0  0  0  0  0  0  0  0  0  0
    2.2255    0.1127   -1.6154 O   0  0  0  0  0  0  0  0  0  0  0  0
    3.9338   -0.5740   -0.0628 C   0  0  2  0  0  0  0  0  0  0  0  0
    3.9960    0.0531    1.3318 C   0  0  0  0  0  0  0  0  0  0  0  0
    5.4725   -0.0103    1.6864 C   0  0  0  0  0  0  0  0  0  0  0  0
    6.0949   -0.5293    0.4037 C   0  0  0  0  0  0  0  0  0  0  0  0
    5.1366   -0.1188   -0.6417 N   0  0  0  0  0  0  0  0  0  0  0  0
    5.5372    0.5414   -1.8140 C   0  0  0  0  0  0  0  0  0  0  0  0
    4.6697    0.9763   -2.6681 O   0  0  0  0  0  0  0  0  0  0  0  0
    6.9094    0.8165   -2.2515 C   0  0  1  0  0  0  0  0  0  0  0  0
    6.8818    0.6453   -3.7348 N   0  0  0  0  0  0  0  0  0  0  0  0
    7.3692    2.1999   -2.0015 C   0  0  0  0  0  0  0  0  0  0  0  0
    7.4479    2.7057   -0.6457 C   0  0  0  0  0  0  0  0  0  0  0  0
    8.6168    2.4519    0.0624 C   0  0  0  0  0  0  0  0  0  0  0  0
    8.7883    2.9277    1.3387 C   0  0  0  0  0  0  0  0  0  0  0  0
    7.8051    3.6715    1.9457 C   0  0  0  0  0  0  0  0  0  0  0  0
    8.0620    4.1223    3.2461 O   0  0  0  0  0  0  0  0  0  0  0  0
    6.6323    3.9402    1.2662 C   0  0  0  0  0  0  0  0  0  0  0  0
    6.4860    3.4507   -0.0121 C   0  0  0  0  0  0  0  0  0  0  0  0
   -5.6582    2.8166    1.9528 C   0  0  0  0  0  0  0  0  0  0  0  0
   -5.8050    4.1472    2.4443 N   0  0  0  0  0  0  0  0  0  0  0  0
   -5.7910    1.8558    2.7323 O   0  0  0  0  0  0  0  0  0  0  0  0
   -8.2524    1.9351    1.2608 H   0  0  0  0  0  0  0  0  0  0  0  0
   -9.5489    2.6726    0.3153 H   0  0  0  0  0  0  0  0  0  0  0  0
   -8.3952    3.7650    1.0918 H   0  0  0  0  0  0  0  0  0  0  0  0
   -7.6876    1.7754   -1.1489 H   0  0  0  0  0  0  0  0  0  0  0  0
   -9.3694    3.7383   -1.4163 H   0  0  0  0  0  0  0  0  0  0  0  0
   -8.1006    3.4454   -2.6736 H   0  0  0  0  0  0  0  0  0  0  0  0
   -7.9437    4.7722   -1.4111 H   0  0  0  0  0  0  0  0  0  0  0  0
   -6.2038    4.3333   -0.1883 H   0  0  0  0  0  0  0  0  0  0  0  0
   -5.6600    3.2270   -1.4449 H   0  0  0  0  0  0  0  0  0  0  0  0
   -4.3052    3.0443    0.4078 H   0  0  0  0  0  0  0  0  0  0  0  0
   -5.9464    0.5200    0.0339 H   0  0  0  0  0  0  0  0  0  0  0  0
   -3.4714   -0.8326   -1.1036 H   0  0  0  0  0  0  0  0  0  0  0  0
   -5.4183   -1.5848   -0.2743 H   0  0  0  0  0  0  0  0  0  0  0  0
   -4.9437   -1.5813    1.4294 H   0  0  0  0  0  0  0  0  0  0  0  0
   -3.9064   -3.5609   -0.7356 H   0  0  0  0  0  0  0  0  0  0  0  0
   -6.3125   -3.5054   -0.0601 H   0  0  0  0  0  0  0  0  0  0  0  0
   -5.3765   -5.0346    0.1076 H   0  0  0  0  0  0  0  0  0  0  0  0
   -5.7206   -4.0400    1.6308 H   0  0  0  0  0  0  0  0  0  0  0  0
   -3.6594   -4.7326    1.6611 H   0  0  0  0  0  0  0  0  0  0  0  0
   -2.2461   -3.8949    0.9424 H   0  0  0  0  0  0  0  0  0  0  0  0
   -3.2405   -3.0925    2.2303 H   0  0  0  0  0  0  0  0  0  0  0  0
   -2.4281   -1.0413    1.6821 H   0  0  0  0  0  0  0  0  0  0  0  0
    0.1487   -0.2120   -0.9426 H   0  0  0  0  0  0  0  0  0  0  0  0
   -0.8805   -2.0236   -1.9629 H   0  0  0  0  0  0  0  0  0  0  0  0
    0.8562   -1.9491   -2.2650 H   0  0  0  0  0  0  0  0  0  0  0  0
   -1.2105   -4.0674   -2.7321 H   0  0  0  0  0  0  0  0  0  0  0  0
   -1.3783   -6.5509   -2.2232 H   0  0  0  0  0  0  0  0  0  0  0  0
   -0.1581   -7.5331   -0.3585 H   0  0  0  0  0  0  0  0  0  0  0  0
    1.2226   -6.0503    1.0529 H   0  0  0  0  0  0  0  0  0  0  0  0
    1.3886   -3.6792    0.6061 H   0  0  0  0  0  0  0  0  0  0  0  0
    1.8482   -1.6077    1.0150 H   0  0  0  0  0  0  0  0  0  0  0  0
    4.1745   -1.6852    0.2027 H   0  0  0  0  0  0  0  0  0  0  0  0
    3.3852   -0.4577    2.0702 H   0  0  0  0  0  0  0  0  0  0  0  0
    3.7540    1.1330    1.3243 H   0  0  0  0  0  0  0  0  0  0  0  0
    5.8889    0.9968    1.8545 H   0  0  0  0  0  0  0  0  0  0  0  0
    5.6666   -0.7036    2.5172 H   0  0  0  0  0  0  0  0  0  0  0  0
    7.0915   -0.2011    0.2778 H   0  0  0  0  0  0  0  0  0  0  0  0
    5.9840   -1.6640    0.4293 H   0  0  0  0  0  0  0  0  0  0  0  0
    7.6171    0.0383   -1.8974 H   0  0  0  0  0  0  0  0  0  0  0  0
    5.9644    0.2295   -3.9928 H   0  0  0  0  0  0  0  0  0  0  0  0
    6.9779    1.5672   -4.1858 H   0  0  0  0  0  0  0  0  0  0  0  0
    6.6397    2.8829   -2.5590 H   0  0  0  0  0  0  0  0  0  0  0  0
    8.3438    2.4334   -2.5260 H   0  0  0  0  0  0  0  0  0  0  0  0
    9.3898    1.8688   -0.3977 H   0  0  0  0  0  0  0  0  0  0  0  0
    9.7521    2.6696    1.8133 H   0  0  0  0  0  0  0  0  0  0  0  0
    8.5103    4.9913    3.4038 H   0  0  0  0  0  0  0  0  0  0  0  0
    5.8846    4.5346    1.7796 H   0  0  0  0  0  0  0  0  0  0  0  0
    5.5477    3.6787   -0.5443 H   0  0  0  0  0  0  0  0  0  0  0  0
   -5.8238    4.3528    3.4636 H   0  0  0  0  0  0  0  0  0  0  0  0
   -5.9153    4.9694    1.8169 H   0  0  0  0  0  0  0  0  0  0  0  0
  1  2  1  0
  2  3  1  0
  2  4  1  0
  4  5  1  0
  5  6  1  0
  6  7  1  0
  7  8  2  0
  7  9  1  0
  9 10  1  0
 10 11  1  0
 11 12  1  0
 11 13  1  0
  9 14  1  0
 14 15  1  0
 15 16  2  0
 15 17  1  0
 17 18  1  0
 18 19  1  0
 19 20  2  0
 20 21  1  0
 21 22  2  0
 22 23  1  0
 23 24  2  0
 17 25  1  0
 25 26  1  0
 26 27  2  0
 26 28  1  0
 28 29  1  0
 29 30  1  0
 30 31  1  0
 31 32  1  0
 32 33  1  0
 33 34  2  0
 33 35  1  0
 35 36  1  0
 35 37  1  0
 37 38  1  0
 38 39  2  0
 39 40  1  0
 40 41  2  0
 41 42  1  0
 41 43  1  0
 43 44  2  0
  5 45  1  0
 45 46  1  0
 45 47  2  0
 24 19  1  0
 32 28  1  0
 44 38  1  0
  1 48  1  0
  1 49  1  0
  1 50  1  0
  2 51  1  0
  3 52  1  0
  3 53  1  0
  3 54  1  0
  4 55  1  0
  4 56  1  0
  5 57  1  6
  6 58  1  0
  9 59  1  6
 10 60  1  0
 10 61  1  0
 11 62  1  0
 12 63  1  0
 12 64  1  0
 12 65  1  0
 13 66  1  0
 13 67  1  0
 13 68  1  0
 14 69  1  0
 17 70  1  6
 18 71  1  0
 18 72  1  0
 20 73  1  0
 21 74  1  0
 22 75  1  0
 23 76  1  0
 24 77  1  0
 25 78  1  0
 28 79  1  1
 29 80  1  0
 29 81  1  0
 30 82  1  0
 30 83  1  0
 31 84  1  0
 31 85  1  0
 35 86  1  1
 36 87  1  0
 36 88  1  0
 37 89  1  0
 37 90  1  0
 39 91  1  0
 40 92  1  0
 42 93  1  0
 43 94  1  0
 44 95  1  0
 46 96  1  0
 46 97  1  0
M  END
$$$$
[H]/C(C(=O)N([H])c1c(OC([H])([H])C([H])([H])[H])c([H])c2nc([H])c(C#N)c(N([H])c3c([H])c([H])c(OC([H])([H])c4nc([H])c([H])c([H])c4[H])c(Cl)c3[H])c2c1[H])=C(/[H])C([H])([H])N1C([H])([H])C([H])([H])OC([H])([H])C1([H])[H]
     RDKit          3D

 74 78  0  0  0  0  0  0  0  0999 V2000
   -2.8603   -1.8528   -4.2024 C   0  0  0  0  0  0  0  0  0  0  0  0
   -1.8017   -2.4206   -3.2694 C   0  0  0  0  0  0  0  0  0  0  0  0
   -1.6878   -1.6629   -2.0788 O   0  0  0  0  0  0  0  0  0  0  0  0
   -0.9007   -2.0810   -1.0348 C   0  0  0  0  0  0  0  0  0  0  0  0
   -0.2481   -3.2932   -1.0174 C   0  0  0  0  0  0  0  0  0  0  0  0
    0.4977   -3.7031    0.0214 C   0  0  0  0  0  0  0  0  0  0  0  0
    1.0807   -4.9470    0.0339 N   0  0  0  0  0  0  0  0  0  0  0  0
    1.7882   -5.4073    1.0348 C   0  0  0  0  0  0  0  0  0  0  0  0
    2.0333   -4.6663    2.2238 C   0  0  0  0  0  0  0  0  0  0  0  0
    2.8230   -5.2395    3.2729 C   0  0  0  0  0  0  0  0  0  0  0  0
    3.4810   -5.6788    4.1148 N   0  0  0  0  0  0  0  0  0  0  0  0
    1.4588   -3.4090    2.2404 C   0  0  0  0  0  0  0  0  0  0  0  0
    1.8326   -2.5305    3.3408 N   0  0  0  0  0  0  0  0  0  0  0  0
    3.0304   -1.7515    3.1428 C   0  0  0  0  0  0  0  0  0  0  0  0
    3.6047   -1.7193    1.9239 C   0  0  0  0  0  0  0  0  0  0  0  0
    4.7628   -0.9715    1.7811 C   0  0  0  0  0  0  0  0  0  0  0  0
    5.3859   -0.2736    2.7340 C   0  0  0  0  0  0  0  0  0  0  0  0
    6.5136    0.4645    2.6595 O   0  0  0  0  0  0  0  0  0  0  0  0
    7.3920    0.7505    1.6607 C   0  0  0  0  0  0  0  0  0  0  0  0
    6.8849    1.4160    0.4436 C   0  0  0  0  0  0  0  0  0  0  0  0
    6.1903    2.5984    0.4338 C   0  0  0  0  0  0  0  0  0  0  0  0
    5.7547    3.2304   -0.7149 C   0  0  0  0  0  0  0  0  0  0  0  0
    6.0477    2.6095   -1.9373 C   0  0  0  0  0  0  0  0  0  0  0  0
    6.7289    1.4526   -1.8980 C   0  0  0  0  0  0  0  0  0  0  0  0
    7.1607    0.8197   -0.7602 N   0  0  0  0  0  0  0  0  0  0  0  0
    4.7551   -0.3267    4.0364 C   0  0  0  0  0  0  0  0  0  0  0  0
    5.5126    0.5470    5.3260 Cl  0  0  0  0  0  0  0  0  0  0  0  0
    3.6020   -1.0529    4.2201 C   0  0  0  0  0  0  0  0  0  0  0  0
    0.7174   -2.9664    1.1858 C   0  0  0  0  0  0  0  0  0  0  0  0
    0.0631   -1.7434    1.1702 C   0  0  0  0  0  0  0  0  0  0  0  0
   -0.7101   -1.2795    0.1608 C   0  0  0  0  0  0  0  0  0  0  0  0
   -1.4493   -0.1153    0.0594 N   0  0  0  0  0  0  0  0  0  0  0  0
   -2.1511    1.0135   -0.0120 C   0  0  0  0  0  0  0  0  0  0  0  0
   -2.1405    1.9804    0.8647 O   0  0  0  0  0  0  0  0  0  0  0  0
   -3.0953    1.3111   -1.1787 C   0  0  0  0  0  0  0  0  0  0  0  0
   -3.7493    2.4230   -1.1264 C   0  0  0  0  0  0  0  0  0  0  0  0
   -4.7206    2.8480   -2.1968 C   0  0  0  0  0  0  0  0  0  0  0  0
   -5.9667    2.9969   -1.5705 N   0  0  0  0  0  0  0  0  0  0  0  0
   -6.1444    4.0107   -0.5928 C   0  0  0  0  0  0  0  0  0  0  0  0
   -6.8260    3.3426    0.6309 C   0  0  0  0  0  0  0  0  0  0  0  0
   -7.4505    2.1807    0.2075 O   0  0  0  0  0  0  0  0  0  0  0  0
   -8.1293    2.2108   -0.9659 C   0  0  0  0  0  0  0  0  0  0  0  0
   -7.1327    2.5087   -2.1099 C   0  0  0  0  0  0  0  0  0  0  0  0
   -3.6435   -2.7080   -4.1973 H   0  0  0  0  0  0  0  0  0  0  0  0
   -2.4084   -1.7025   -5.2055 H   0  0  0  0  0  0  0  0  0  0  0  0
   -3.3574   -0.9733   -3.7667 H   0  0  0  0  0  0  0  0  0  0  0  0
   -0.7856   -2.1263   -3.8051 H   0  0  0  0  0  0  0  0  0  0  0  0
   -1.7508   -3.4884   -3.2097 H   0  0  0  0  0  0  0  0  0  0  0  0
   -0.3422   -3.9261   -1.9209 H   0  0  0  0  0  0  0  0  0  0  0  0
    2.2481   -6.3893    1.0429 H   0  0  0  0  0  0  0  0  0  0  0  0
    1.2391   -2.5264    4.1666 H   0  0  0  0  0  0  0  0  0  0  0  0
    3.2184   -2.2314    1.0563 H   0  0  0  0  0  0  0  0  0  0  0  0
    5.1519   -0.9624    0.7448 H   0  0  0  0  0  0  0  0  0  0  0  0
    8.1827    1.4501    2.1096 H   0  0  0  0  0  0  0  0  0  0  0  0
    8.0421   -0.1086    1.2945 H   0  0  0  0  0  0  0  0  0  0  0  0
    5.9798    3.0325    1.3865 H   0  0  0  0  0  0  0  0  0  0  0  0
    5.2111    4.1528   -0.6685 H   0  0  0  0  0  0  0  0  0  0  0  0
    5.6822    3.1273   -2.8120 H   0  0  0  0  0  0  0  0  0  0  0  0
    6.9601    0.9834   -2.8802 H   0  0  0  0  0  0  0  0  0  0  0  0
    3.1437   -1.0769    5.2003 H   0  0  0  0  0  0  0  0  0  0  0  0
    0.2197   -1.1436    2.0856 H   0  0  0  0  0  0  0  0  0  0  0  0
   -1.2274    0.1013    1.4028 H   0  0  0  0  0  0  0  0  0  0  0  0
   -3.1371    0.6125   -1.9632 H   0  0  0  0  0  0  0  0  0  0  0  0
   -3.6067    3.1051   -0.2585 H   0  0  0  0  0  0  0  0  0  0  0  0
   -4.8122    1.9707   -2.9161 H   0  0  0  0  0  0  0  0  0  0  0  0
   -4.3020    3.6916   -2.7603 H   0  0  0  0  0  0  0  0  0  0  0  0
   -6.8398    4.8012   -0.9297 H   0  0  0  0  0  0  0  0  0  0  0  0
   -5.1855    4.4237   -0.2090 H   0  0  0  0  0  0  0  0  0  0  0  0
   -6.1002    3.1030    1.4156 H   0  0  0  0  0  0  0  0  0  0  0  0
   -7.5470    4.0692    1.0200 H   0  0  0  0  0  0  0  0  0  0  0  0
   -8.5974    1.2362   -1.1885 H   0  0  0  0  0  0  0  0  0  0  0  0
   -8.9477    2.9850   -0.9846 H   0  0  0  0  0  0  0  0  0  0  0  0
   -7.6265    3.2918   -2.7941 H   0  0  0  0  0  0  0  0  0  0  0  0
   -6.9998    1.6029   -2.7136 H   0  0  0  0  0  0  0  0  0  0  0  0
  1  2  1  0
  2  3  1  0
  3  4  1  0
  4  5  2  0
  5  6  1  0
  6  7  2  0
  7  8  1  0
  8  9  2  0
  9 10  1  0
 10 11  3  0
  9 12  1  0
 12 13  1  0
 13 14  1  0
 14 15  2  0
 15 16  1  0
 16 17  2  0
 17 18  1  0
 18 19  1  0
 19 20  1  0
 20 21  2  0
 21 22  1  0
 22 23  2  0
 23 24  1  0
 24 25  2  0
 17 26  1  0
 26 27  1  0
 26 28  2  0
 12 29  2  0
 29 30  1  0
 30 31  2  0
 31 32  1  0
 32 33  1  0
 33 34  2  0
 33 35  1  0
 35 36  2  0
 36 37  1  0
 37 38  1  0
 38 39  1  0
 39 40  1  0
 40 41  1  0
 41 42  1  0
 42 43  1  0
 31  4  1  0
 43 38  1  0
 29  6  1  0
 28 14  1  0
 25 20  1  0
  1 44  1  0
  1 45  1  0
  1 46  1  0
  2 47  1  0
  2 48  1  0
  5 49  1  0
  8 50  1  0
 13 51  1  0
 15 52  1  0
 16 53  1  0
 19 54  1  0
 19 55  1  0
 21 56  1  0
 22 57  1  0
 23 58  1  0
 24 59  1  0
 28 60  1  0
 30 61  1  0
 32 62  1  0
 35 63  1  0
 36 64  1  0
 37 65  1  0
 37 66  1  0
 39 67  1  0
 39 68  1  0
 40 69  1  0
 40 70  1  0
 42 71  1  0
 42 72  1  0
 43 73  1  0
 43 74  1  0
M  END
$$$$
[H]OC([H])([H])[C@@]1(O[H])C([H])([H])[C@@]2([H])O[C@]1(C([H])([H])[H])n1c3c([H])c([H])c([H])c([H])c3c3c4c(c5c6c([H])c([H])c([H])c([H])c6n2c5c31)C(=O)N([H])C4([H])[H]
     RDKit          3D

 54 61  0  0  0  0  0  0  0  0999 V2000
    3.1800    0.8838    1.3878 C   0  0  0  0  0  0  0  0  0  0  0  0
    2.1176    0.2237    0.5774 C   0  0  2  0  0  0  0  0  0  0  0  0
    1.6968   -0.7870    1.4854 O   0  0  0  0  0  0  0  0  0  0  0  0
    1.2511   -1.8639    0.7986 C   0  0  2  0  0  0  0  0  0  0  0  0
    2.0328   -1.9517   -0.4419 C   0  0  0  0  0  0  0  0  0  0  0  0
    2.6347   -0.5714   -0.5849 C   0  0  1  0  0  0  0  0  0  0  0  0
    2.2138   -0.0799   -1.8115 O   0  0  0  0  0  0  0  0  0  0  0  0
    4.1191   -0.7109   -0.6110 C   0  0  0  0  0  0  0  0  0  0  0  0
    4.4589   -1.5975   -1.6334 O   0  0  0  0  0  0  0  0  0  0  0  0
   -0.2014   -1.7853    0.5955 N   0  0  0  0  0  0  0  0  0  0  0  0
   -1.1044   -2.7499    0.6347 C   0  0  0  0  0  0  0  0  0  0  0  0
   -0.9179   -4.0868    0.8734 C   0  0  0  0  0  0  0  0  0  0  0  0
   -2.0299   -4.9199    0.8648 C   0  0  0  0  0  0  0  0  0  0  0  0
   -3.2823   -4.4161    0.6235 C   0  0  0  0  0  0  0  0  0  0  0  0
   -3.4758   -3.0511    0.3794 C   0  0  0  0  0  0  0  0  0  0  0  0
   -2.3768   -2.2421    0.3902 C   0  0  0  0  0  0  0  0  0  0  0  0
   -2.2053   -0.8905    0.1945 C   0  0  0  0  0  0  0  0  0  0  0  0
   -3.0670    0.1511   -0.0975 C   0  0  0  0  0  0  0  0  0  0  0  0
   -4.5001    0.2660   -0.2996 C   0  0  0  0  0  0  0  0  0  0  0  0
   -5.3884   -0.5871   -0.2658 O   0  0  0  0  0  0  0  0  0  0  0  0
   -4.7851    1.6416   -0.5724 N   0  0  0  0  0  0  0  0  0  0  0  0
   -3.5735    2.4248   -0.5610 C   0  0  0  0  0  0  0  0  0  0  0  0
   -2.5314    1.4168   -0.2472 C   0  0  0  0  0  0  0  0  0  0  0  0
   -1.1701    1.6669   -0.1133 C   0  0  0  0  0  0  0  0  0  0  0  0
   -0.3770    2.7657   -0.2198 C   0  0  0  0  0  0  0  0  0  0  0  0
   -0.7006    4.0705   -0.5126 C   0  0  0  0  0  0  0  0  0  0  0  0
    0.3203    5.0230   -0.5829 C   0  0  0  0  0  0  0  0  0  0  0  0
    1.6233    4.6180   -0.3553 C   0  0  0  0  0  0  0  0  0  0  0  0
    1.9232    3.2989   -0.0625 C   0  0  0  0  0  0  0  0  0  0  0  0
    0.9354    2.3466    0.0129 C   0  0  0  0  0  0  0  0  0  0  0  0
    0.9590    1.0103    0.2643 N   0  0  0  0  0  0  0  0  0  0  0  0
   -0.3578    0.6223    0.1746 C   0  0  0  0  0  0  0  0  0  0  0  0
   -0.8544   -0.6533    0.3299 C   0  0  0  0  0  0  0  0  0  0  0  0
    4.0624    1.2462    0.8471 H   0  0  0  0  0  0  0  0  0  0  0  0
    3.5596    0.1949    2.1815 H   0  0  0  0  0  0  0  0  0  0  0  0
    2.7312    1.7230    1.9466 H   0  0  0  0  0  0  0  0  0  0  0  0
    1.4219   -2.7643    1.4120 H   0  0  0  0  0  0  0  0  0  0  0  0
    1.4720   -2.2700   -1.3403 H   0  0  0  0  0  0  0  0  0  0  0  0
    2.8377   -2.7359   -0.3258 H   0  0  0  0  0  0  0  0  0  0  0  0
    2.8799   -0.3390   -2.4928 H   0  0  0  0  0  0  0  0  0  0  0  0
    4.5238   -1.1579    0.3296 H   0  0  0  0  0  0  0  0  0  0  0  0
    4.6358    0.2581   -0.8438 H   0  0  0  0  0  0  0  0  0  0  0  0
    4.7979   -2.4633   -1.2908 H   0  0  0  0  0  0  0  0  0  0  0  0
    0.0592   -4.4684    1.0598 H   0  0  0  0  0  0  0  0  0  0  0  0
   -1.8569   -5.9719    1.0560 H   0  0  0  0  0  0  0  0  0  0  0  0
   -4.1224   -5.0759    0.6219 H   0  0  0  0  0  0  0  0  0  0  0  0
   -4.4721   -2.7398    0.2018 H   0  0  0  0  0  0  0  0  0  0  0  0
   -5.7336    2.0654   -0.7610 H   0  0  0  0  0  0  0  0  0  0  0  0
   -3.6366    3.2333    0.1993 H   0  0  0  0  0  0  0  0  0  0  0  0
   -3.3846    2.8954   -1.5673 H   0  0  0  0  0  0  0  0  0  0  0  0
   -1.7294    4.3700   -0.6881 H   0  0  0  0  0  0  0  0  0  0  0  0
    0.0587    6.0490   -0.8135 H   0  0  0  0  0  0  0  0  0  0  0  0
    2.3774    5.3965   -0.4223 H   0  0  0  0  0  0  0  0  0  0  0  0
    2.9510    3.0689    0.0761 H   0  0  0  0  0  0  0  0  0  0  0  0
  2  1  1  1
  2  3  1  0
  3  4  1  0
  4  5  1  0
  5  6  1  0
  6  7  1  6
  6  8  1  0
  8  9  1  0
  4 10  1  0
 10 11  1  0
 11 12  2  0
 12 13  1  0
 13 14  2  0
 14 15  1  0
 15 16  2  0
 16 17  1  0
 17 18  2  0
 18 19  1  0
 19 20  2  0
 19 21  1  0
 21 22  1  0
 22 23  1  0
 23 24  2  0
 24 25  1  0
 25 26  2  0
 26 27  1  0
 27 28  2  0
 28 29  1  0
 29 30  2  0
 30 31  1  0
 31 32  1  0
 32 33  2  0
  6  2  1  0
 33 10  1  0
 31  2  1  0
 16 11  1  0
 33 17  1  0
 23 18  1  0
 32 24  1  0
 30 25  1  0
  1 34  1  0
  1 35  1  0
  1 36  1  0
  4 37  1  1
  5 38  1  0
  5 39  1  0
  7 40  1  0
  8 41  1  0
  8 42  1  0
  9 43  1  0
 12 44  1  0
 13 45  1  0
 14 46  1  0
 15 47  1  0
 21 48  1  0
 22 49  1  0
 22 50  1  0
 26 51  1  0
 27 52  1  0
 28 53  1  0
 29 54  1  0
M  END
$$$$
[H]c1nc(N([H])c2c([H])c([H])c(C(=O)N([H])C3([H])C([H])([H])C([H])([H])N(C([H])([H])[H])C([H])([H])C3([H])[H])c([H])c2[H])nc2c1N(C([H])([H])[H])C(=O)[C@@]([H])(C([H])([H])C([H])([H])[H])N2C1([H])C([H])([H])C([H])([H])C([H])([H])C1([H])[H]
     RDKit          3D

 73 77  0  0  0  0  0  0  0  0999 V2000
   -8.3914   -1.0553   -1.2035 C   0  0  0  0  0  0  0  0  0  0  0  0
   -7.5079    0.1677   -0.8871 C   0  0  0  0  0  0  0  0  0  0  0  0
   -6.1562   -0.3447   -0.6627 C   0  0  1  0  0  0  0  0  0  0  0  0
   -5.0860    0.5257   -0.3566 N   0  0  0  0  0  0  0  0  0  0  0  0
   -5.0465    1.9618   -0.3499 C   0  0  0  0  0  0  0  0  0  0  0  0
   -5.8979    2.6429    0.6630 C   0  0  0  0  0  0  0  0  0  0  0  0
   -6.6629    3.7228   -0.0407 C   0  0  0  0  0  0  0  0  0  0  0  0
   -6.3095    3.6777   -1.4880 C   0  0  0  0  0  0  0  0  0  0  0  0
   -5.3447    2.5584   -1.7101 C   0  0  0  0  0  0  0  0  0  0  0  0
   -3.8524   -0.1523    0.0063 C   0  0  0  0  0  0  0  0  0  0  0  0
   -2.6571    0.4316   -0.2008 N   0  0  0  0  0  0  0  0  0  0  0  0
   -1.4848   -0.1902    0.1381 C   0  0  0  0  0  0  0  0  0  0  0  0
   -0.2527    0.4447   -0.1210 N   0  0  0  0  0  0  0  0  0  0  0  0
    1.0311   -0.0127    0.1636 C   0  0  0  0  0  0  0  0  0  0  0  0
    2.0979    0.4608   -0.6064 C   0  0  0  0  0  0  0  0  0  0  0  0
    3.3917    0.0745   -0.3739 C   0  0  0  0  0  0  0  0  0  0  0  0
    3.7071   -0.8064    0.6386 C   0  0  0  0  0  0  0  0  0  0  0  0
    2.6720   -1.2795    1.4036 C   0  0  0  0  0  0  0  0  0  0  0  0
    1.3427   -0.8838    1.1663 C   0  0  0  0  0  0  0  0  0  0  0  0
    5.0684   -1.2492    0.9268 C   0  0  0  0  0  0  0  0  0  0  0  0
    5.2412   -2.0904    1.8440 O   0  0  0  0  0  0  0  0  0  0  0  0
    6.1861   -0.7711    0.2187 N   0  0  0  0  0  0  0  0  0  0  0  0
    7.5131   -1.2523    0.5530 C   0  0  0  0  0  0  0  0  0  0  0  0
    8.2724   -0.0548    1.1151 C   0  0  0  0  0  0  0  0  0  0  0  0
    9.7346   -0.2611    0.7785 C   0  0  0  0  0  0  0  0  0  0  0  0
    9.8656    0.0476   -0.6413 N   0  0  0  0  0  0  0  0  0  0  0  0
    9.6392    1.4711   -0.8369 C   0  0  0  0  0  0  0  0  0  0  0  0
    8.9656   -0.7373   -1.4289 C   0  0  0  0  0  0  0  0  0  0  0  0
    8.2339   -1.7962   -0.6397 C   0  0  0  0  0  0  0  0  0  0  0  0
   -1.5306   -1.3998    0.6843 N   0  0  0  0  0  0  0  0  0  0  0  0
   -2.6754   -2.0475    0.9230 C   0  0  0  0  0  0  0  0  0  0  0  0
   -3.8418   -1.4079    0.5768 C   0  0  0  0  0  0  0  0  0  0  0  0
   -5.0802   -2.0630    0.8203 N   0  0  0  0  0  0  0  0  0  0  0  0
   -5.1454   -3.3881    1.4200 C   0  0  0  0  0  0  0  0  0  0  0  0
   -6.2609   -1.3648    0.4527 C   0  0  0  0  0  0  0  0  0  0  0  0
   -7.3370   -1.6095    1.0524 O   0  0  0  0  0  0  0  0  0  0  0  0
   -8.8670   -0.9051   -2.2141 H   0  0  0  0  0  0  0  0  0  0  0  0
   -9.2022   -1.1778   -0.4864 H   0  0  0  0  0  0  0  0  0  0  0  0
   -7.7842   -1.9753   -1.3332 H   0  0  0  0  0  0  0  0  0  0  0  0
   -7.6824    0.8833   -1.6766 H   0  0  0  0  0  0  0  0  0  0  0  0
   -7.9241    0.5714    0.0813 H   0  0  0  0  0  0  0  0  0  0  0  0
   -5.8543   -0.9412   -1.5871 H   0  0  0  0  0  0  0  0  0  0  0  0
   -3.9921    2.3214   -0.1292 H   0  0  0  0  0  0  0  0  0  0  0  0
   -6.5142    1.9794    1.3027 H   0  0  0  0  0  0  0  0  0  0  0  0
   -5.2745    3.1985    1.4394 H   0  0  0  0  0  0  0  0  0  0  0  0
   -6.3929    4.7644    0.3102 H   0  0  0  0  0  0  0  0  0  0  0  0
   -7.7707    3.6643    0.1597 H   0  0  0  0  0  0  0  0  0  0  0  0
   -7.2512    3.4183   -2.0557 H   0  0  0  0  0  0  0  0  0  0  0  0
   -5.9801    4.6532   -1.9099 H   0  0  0  0  0  0  0  0  0  0  0  0
   -4.4280    3.0461   -2.1599 H   0  0  0  0  0  0  0  0  0  0  0  0
   -5.6384    1.8208   -2.4679 H   0  0  0  0  0  0  0  0  0  0  0  0
   -0.2970    1.4157   -0.6005 H   0  0  0  0  0  0  0  0  0  0  0  0
    1.8886    1.1596   -1.4172 H   0  0  0  0  0  0  0  0  0  0  0  0
    4.2240    0.4441   -0.9773 H   0  0  0  0  0  0  0  0  0  0  0  0
    2.8309   -1.9738    2.2180 H   0  0  0  0  0  0  0  0  0  0  0  0
    0.5721   -1.2733    1.8119 H   0  0  0  0  0  0  0  0  0  0  0  0
    6.1291   -0.0658   -0.5629 H   0  0  0  0  0  0  0  0  0  0  0  0
    7.4528   -1.9997    1.3616 H   0  0  0  0  0  0  0  0  0  0  0  0
    8.1093   -0.0202    2.2143 H   0  0  0  0  0  0  0  0  0  0  0  0
    7.8902    0.8859    0.6721 H   0  0  0  0  0  0  0  0  0  0  0  0
   10.0350   -1.3131    0.9169 H   0  0  0  0  0  0  0  0  0  0  0  0
   10.3902    0.4231    1.3556 H   0  0  0  0  0  0  0  0  0  0  0  0
   10.3857    1.8483   -1.5752 H   0  0  0  0  0  0  0  0  0  0  0  0
    9.8179    1.9897    0.1133 H   0  0  0  0  0  0  0  0  0  0  0  0
    8.5972    1.6690   -1.1688 H   0  0  0  0  0  0  0  0  0  0  0  0
    9.5810   -1.2757   -2.1956 H   0  0  0  0  0  0  0  0  0  0  0  0
    8.2371   -0.1003   -2.0030 H   0  0  0  0  0  0  0  0  0  0  0  0
    7.5307   -2.2976   -1.3485 H   0  0  0  0  0  0  0  0  0  0  0  0
    8.9979   -2.5513   -0.3190 H   0  0  0  0  0  0  0  0  0  0  0  0
   -2.7216   -3.0244    1.3643 H   0  0  0  0  0  0  0  0  0  0  0  0
   -6.2135   -3.6353    1.5874 H   0  0  0  0  0  0  0  0  0  0  0  0
   -4.6303   -3.4386    2.3869 H   0  0  0  0  0  0  0  0  0  0  0  0
   -4.6926   -4.1570    0.7407 H   0  0  0  0  0  0  0  0  0  0  0  0
  1  2  1  0
  2  3  1  0
  3  4  1  0
  4  5  1  0
  5  6  1  0
  6  7  1  0
  7  8  1  0
  8  9  1  0
  4 10  1  0
 10 11  2  0
 11 12  1  0
 12 13  1  0
 13 14  1  0
 14 15  2  0
 15 16  1  0
 16 17  2  0
 17 18  1  0
 18 19  2  0
 17 20  1  0
 20 21  2  0
 20 22  1  0
 22 23  1  0
 23 24  1  0
 24 25  1  0
 25 26  1  0
 26 27  1  0
 26 28  1  0
 28 29  1  0
 12 30  2  0
 30 31  1  0
 31 32  2  0
 32 33  1  0
 33 34  1  0
 33 35  1  0
 35 36  2  0
 35  3  1  0
  9  5  1  0
 32 10  1  0
 19 14  1  0
 29 23  1  0
  1 37  1  0
  1 38  1  0
  1 39  1  0
  2 40  1  0
  2 41  1  0
  3 42  1  6
  5 43  1  0
  6 44  1  0
  6 45  1  0
  7 46  1  0
  7 47  1  0
  8 48  1  0
  8 49  1  0
  9 50  1  0
  9 51  1  0
 13 52  1  0
 15 53  1  0
 16 54  1  0
 18 55  1  0
 19 56  1  0
 22 57  1  0
 23 58  1  0
 24 59  1  0
 24 60  1  0
 25 61  1  0
 25 62  1  0
 27 63  1  0
 27 64  1  0
 27 65  1  0
 28 66  1  0
 28 67  1  0
 29 68  1  0
 29 69  1  0
 31 70  1  0
 34 71  1  0
 34 72  1  0
 34 73  1  0
M  END
$$$$
[H]c1nc2c([H])c([H])c([H])c([H])n2c1C(=O)N([H])c1c([H])c(N([H])C(=O)c2c([H])c([H])c(C([H])([H])N3C([H])([H])C([H])([H])N(C([H])([H])[H])C([H])([H])C3([H])[H])c(C(F)(F)F)c2[H])c([H])c([H])c1C([H])([H])[H]
     RDKit          3D

 69 73  0  0  0  0  0  0  0  0999 V2000
    9.2006   -1.9543   -0.5875 C   0  0  0  0  0  0  0  0  0  0  0  0
    8.0158   -1.1863   -0.7540 N   0  0  0  0  0  0  0  0  0  0  0  0
    7.7395   -0.7236   -2.0714 C   0  0  0  0  0  0  0  0  0  0  0  0
    6.5166   -1.2473   -2.7038 C   0  0  0  0  0  0  0  0  0  0  0  0
    5.3621   -1.1552   -1.7871 N   0  0  0  0  0  0  0  0  0  0  0  0
    5.2334    0.1929   -1.3308 C   0  0  0  0  0  0  0  0  0  0  0  0
    4.0104    0.5161   -0.5900 C   0  0  0  0  0  0  0  0  0  0  0  0
    2.9804   -0.3874   -0.4274 C   0  0  0  0  0  0  0  0  0  0  0  0
    1.7874   -0.0795    0.2392 C   0  0  0  0  0  0  0  0  0  0  0  0
    1.6105    1.1733    0.7634 C   0  0  0  0  0  0  0  0  0  0  0  0
    2.6199    2.0725    0.6079 C   0  0  0  0  0  0  0  0  0  0  0  0
    3.8206    1.7797   -0.0565 C   0  0  0  0  0  0  0  0  0  0  0  0
    4.8604    2.8008   -0.1724 C   0  0  0  0  0  0  0  0  0  0  0  0
    6.0548    2.5047    0.4386 F   0  0  0  0  0  0  0  0  0  0  0  0
    5.0499    3.2263   -1.4820 F   0  0  0  0  0  0  0  0  0  0  0  0
    4.4097    3.9543    0.4921 F   0  0  0  0  0  0  0  0  0  0  0  0
    0.3819    1.5665    1.4683 C   0  0  0  0  0  0  0  0  0  0  0  0
    0.4800    2.5562    2.2173 O   0  0  0  0  0  0  0  0  0  0  0  0
   -0.8278    0.8799    1.3152 N   0  0  0  0  0  0  0  0  0  0  0  0
   -2.0396    1.1963    1.9673 C   0  0  0  0  0  0  0  0  0  0  0  0
   -2.1674    1.8989    3.1259 C   0  0  0  0  0  0  0  0  0  0  0  0
   -3.4095    2.1714    3.6516 C   0  0  0  0  0  0  0  0  0  0  0  0
   -4.5561    1.7435    3.0251 C   0  0  0  0  0  0  0  0  0  0  0  0
   -5.8906    2.0373    3.5924 C   0  0  0  0  0  0  0  0  0  0  0  0
   -4.4721    1.0211    1.8379 C   0  0  0  0  0  0  0  0  0  0  0  0
   -5.6614    0.6137    1.2365 N   0  0  0  0  0  0  0  0  0  0  0  0
   -5.8771   -0.1050    0.0521 C   0  0  0  0  0  0  0  0  0  0  0  0
   -4.9330   -0.4950   -0.6557 O   0  0  0  0  0  0  0  0  0  0  0  0
   -7.2479   -0.4270   -0.4020 C   0  0  0  0  0  0  0  0  0  0  0  0
   -8.3909   -0.0743    0.2844 C   0  0  0  0  0  0  0  0  0  0  0  0
   -9.4366   -0.5205   -0.4167 N   0  0  0  0  0  0  0  0  0  0  0  0
   -8.9875   -1.1392   -1.5160 C   0  0  0  0  0  0  0  0  0  0  0  0
   -9.6643   -1.7682   -2.5585 C   0  0  0  0  0  0  0  0  0  0  0  0
   -8.9585   -2.3378   -3.5910 C   0  0  0  0  0  0  0  0  0  0  0  0
   -7.5809   -2.2571   -3.5434 C   0  0  0  0  0  0  0  0  0  0  0  0
   -6.9299   -1.6302   -2.5028 C   0  0  0  0  0  0  0  0  0  0  0  0
   -7.6275   -1.0770   -1.4993 N   0  0  0  0  0  0  0  0  0  0  0  0
   -3.2164    0.7623    1.3333 C   0  0  0  0  0  0  0  0  0  0  0  0
    5.7347   -2.1102   -0.7391 C   0  0  0  0  0  0  0  0  0  0  0  0
    6.8854   -1.5593    0.0174 C   0  0  0  0  0  0  0  0  0  0  0  0
   10.0206   -1.4285   -1.1234 H   0  0  0  0  0  0  0  0  0  0  0  0
    9.0691   -2.9481   -1.0517 H   0  0  0  0  0  0  0  0  0  0  0  0
    9.5188   -2.0052    0.4733 H   0  0  0  0  0  0  0  0  0  0  0  0
    7.7641    0.3825   -2.1336 H   0  0  0  0  0  0  0  0  0  0  0  0
    8.6117   -1.0522   -2.7133 H   0  0  0  0  0  0  0  0  0  0  0  0
    6.3260   -0.7506   -3.6584 H   0  0  0  0  0  0  0  0  0  0  0  0
    6.6574   -2.3567   -2.8628 H   0  0  0  0  0  0  0  0  0  0  0  0
    5.1756    0.8049   -2.2950 H   0  0  0  0  0  0  0  0  0  0  0  0
    6.1696    0.5147   -0.8856 H   0  0  0  0  0  0  0  0  0  0  0  0
    3.0529   -1.3949   -0.8434 H   0  0  0  0  0  0  0  0  0  0  0  0
    1.0172   -0.8252    0.3373 H   0  0  0  0  0  0  0  0  0  0  0  0
    2.5017    3.0758    1.0168 H   0  0  0  0  0  0  0  0  0  0  0  0
   -0.7888    0.0480    0.6401 H   0  0  0  0  0  0  0  0  0  0  0  0
   -1.3030    2.2390    3.6518 H   0  0  0  0  0  0  0  0  0  0  0  0
   -3.5341    2.7357    4.5836 H   0  0  0  0  0  0  0  0  0  0  0  0
   -5.7626    2.6164    4.5254 H   0  0  0  0  0  0  0  0  0  0  0  0
   -6.5214    2.6552    2.9158 H   0  0  0  0  0  0  0  0  0  0  0  0
   -6.4194    1.0978    3.8693 H   0  0  0  0  0  0  0  0  0  0  0  0
   -6.5753    0.8820    1.7433 H   0  0  0  0  0  0  0  0  0  0  0  0
   -8.4809    0.4705    1.2311 H   0  0  0  0  0  0  0  0  0  0  0  0
  -10.7481   -1.7927   -2.5291 H   0  0  0  0  0  0  0  0  0  0  0  0
   -9.4633   -2.8240   -4.3979 H   0  0  0  0  0  0  0  0  0  0  0  0
   -6.9726   -2.6969   -4.3462 H   0  0  0  0  0  0  0  0  0  0  0  0
   -5.8520   -1.6072   -2.5357 H   0  0  0  0  0  0  0  0  0  0  0  0
   -3.0860    0.2121    0.4254 H   0  0  0  0  0  0  0  0  0  0  0  0
    6.0406   -3.0338   -1.3114 H   0  0  0  0  0  0  0  0  0  0  0  0
    4.9363   -2.3739   -0.0588 H   0  0  0  0  0  0  0  0  0  0  0  0
    7.2224   -2.3531    0.7451 H   0  0  0  0  0  0  0  0  0  0  0  0
    6.5442   -0.7251    0.6578 H   0  0  0  0  0  0  0  0  0  0  0  0
  1  2  1  0
  2  3  1  0
  3  4  1  0
  4  5  1  0
  5  6  1  0
  6  7  1  0
  7  8  2  0
  8  9  1  0
  9 10  2  0
 10 11  1  0
 11 12  2  0
 12 13  1  0
 13 14  1  0
 13 15  1  0
 13 16  1  0
 10 17  1  0
 17 18  2  0
 17 19  1  0
 19 20  1  0
 20 21  2  0
 21 22  1  0
 22 23  2  0
 23 24  1  0
 23 25  1  0
 25 26  1  0
 26 27  1  0
 27 28  2  0
 27 29  1  0
 29 30  2  0
 30 31  1  0
 31 32  2  0
 32 33  1  0
 33 34  2  0
 34 35  1  0
 35 36  2  0
 36 37  1  0
 25 38  2  0
  5 39  1  0
 39 40  1  0
 40  2  1  0
 12  7  1  0
 38 20  1  0
 37 29  1  0
 37 32  1  0
  1 41  1  0
  1 42  1  0
  1 43  1  0
  3 44  1  0
  3 45  1  0
  4 46  1  0
  4 47  1  0
  6 48  1  0
  6 49  1  0
  8 50  1  0
  9 51  1  0
 11 52  1  0
 19 53  1  0
 21 54  1  0
 22 55  1  0
 24 56  1  0
 24 57  1  0
 24 58  1  0
 26 59  1  0
 30 60  1  0
 33 61  1  0
 34 62  1  0
 35 63  1  0
 36 64  1  0
 38 65  1  0
 39 66  1  0
 39 67  1  0
 40 68  1  0
 40 69  1  0
M  END
$$$$
[H]c1c(OC([H])([H])[H])c(OC([H])([H])[H])c(OC([H])([H])[H])c([H])c1C(=O)N1C([H])([H])C([H])([H])N(c2nc(N([H])[H])nc(N([H])[H])n2)C([H])([H])C1([H])[H]
     RDKit          3D

 51 53  0  0  0  0  0  0  0  0999 V2000
   -5.0238    3.6631   -0.6796 C   0  0  0  0  0  0  0  0  0  0  0  0
   -5.3305    2.4526    0.0127 O   0  0  0  0  0  0  0  0  0  0  0  0
   -4.3296    1.4965    0.1183 C   0  0  0  0  0  0  0  0  0  0  0  0
   -3.0807    1.6760   -0.4114 C   0  0  0  0  0  0  0  0  0  0  0  0
   -2.0559    0.7179   -0.3133 C   0  0  0  0  0  0  0  0  0  0  0  0
   -2.4066   -0.4184    0.3585 C   0  0  0  0  0  0  0  0  0  0  0  0
   -3.6820   -0.6236    0.9102 C   0  0  0  0  0  0  0  0  0  0  0  0
   -3.9531   -1.8028    1.5747 O   0  0  0  0  0  0  0  0  0  0  0  0
   -3.0069   -2.8370    1.7373 C   0  0  0  0  0  0  0  0  0  0  0  0
   -4.6437    0.3377    0.7882 C   0  0  0  0  0  0  0  0  0  0  0  0
   -5.9171    0.1599    1.3260 O   0  0  0  0  0  0  0  0  0  0  0  0
   -6.9746   -0.4297    0.5977 C   0  0  0  0  0  0  0  0  0  0  0  0
   -0.7759    0.9716   -0.9036 C   0  0  0  0  0  0  0  0  0  0  0  0
   -0.7114    2.1144   -1.5499 O   0  0  0  0  0  0  0  0  0  0  0  0
    0.4094    0.2345   -0.9197 N   0  0  0  0  0  0  0  0  0  0  0  0
    0.7417   -1.0144   -0.3390 C   0  0  0  0  0  0  0  0  0  0  0  0
    2.2125   -1.3908   -0.4924 C   0  0  0  0  0  0  0  0  0  0  0  0
    3.0684   -0.2459   -0.3128 N   0  0  0  0  0  0  0  0  0  0  0  0
    2.6079    1.1037   -0.6306 C   0  0  0  0  0  0  0  0  0  0  0  0
    1.5217    0.8603   -1.6923 C   0  0  0  0  0  0  0  0  0  0  0  0
    4.3783   -0.4206    0.1788 C   0  0  0  0  0  0  0  0  0  0  0  0
    5.2288    0.6194    0.3682 N   0  0  0  0  0  0  0  0  0  0  0  0
    6.4669    0.5145    0.8261 C   0  0  0  0  0  0  0  0  0  0  0  0
    7.2608    1.6732    0.9818 N   0  0  0  0  0  0  0  0  0  0  0  0
    6.9431   -0.7239    1.1370 N   0  0  0  0  0  0  0  0  0  0  0  0
    6.1316   -1.7813    0.9636 C   0  0  0  0  0  0  0  0  0  0  0  0
    6.6760   -3.0606    1.3037 N   0  0  0  0  0  0  0  0  0  0  0  0
    4.8806   -1.6399    0.4969 N   0  0  0  0  0  0  0  0  0  0  0  0
   -4.0813    4.0906   -0.2399 H   0  0  0  0  0  0  0  0  0  0  0  0
   -4.8305    3.4749   -1.7463 H   0  0  0  0  0  0  0  0  0  0  0  0
   -5.8389    4.4006   -0.5823 H   0  0  0  0  0  0  0  0  0  0  0  0
   -2.8660    2.6046   -0.9344 H   0  0  0  0  0  0  0  0  0  0  0  0
   -1.7181   -1.2279    0.4957 H   0  0  0  0  0  0  0  0  0  0  0  0
   -2.7005   -3.2082    0.7171 H   0  0  0  0  0  0  0  0  0  0  0  0
   -2.0807   -2.4969    2.2188 H   0  0  0  0  0  0  0  0  0  0  0  0
   -3.4707   -3.6628    2.3107 H   0  0  0  0  0  0  0  0  0  0  0  0
   -6.6881   -1.4511    0.2679 H   0  0  0  0  0  0  0  0  0  0  0  0
   -7.8254   -0.5533    1.3214 H   0  0  0  0  0  0  0  0  0  0  0  0
   -7.3397    0.2080   -0.2259 H   0  0  0  0  0  0  0  0  0  0  0  0
    0.1079   -1.8085   -0.7701 H   0  0  0  0  0  0  0  0  0  0  0  0
    0.5083   -0.9703    0.7598 H   0  0  0  0  0  0  0  0  0  0  0  0
    2.3308   -1.7805   -1.5208 H   0  0  0  0  0  0  0  0  0  0  0  0
    2.4041   -2.2241    0.2053 H   0  0  0  0  0  0  0  0  0  0  0  0
    3.3738    1.7088   -1.1114 H   0  0  0  0  0  0  0  0  0  0  0  0
    2.1151    1.5798    0.2378 H   0  0  0  0  0  0  0  0  0  0  0  0
    1.9025    0.0803   -2.3753 H   0  0  0  0  0  0  0  0  0  0  0  0
    1.2260    1.7880   -2.1690 H   0  0  0  0  0  0  0  0  0  0  0  0
    6.9583    2.4044    1.6445 H   0  0  0  0  0  0  0  0  0  0  0  0
    8.1374    1.8107    0.4507 H   0  0  0  0  0  0  0  0  0  0  0  0
    7.0901   -3.1344    2.2708 H   0  0  0  0  0  0  0  0  0  0  0  0
    6.6497   -3.8390    0.6252 H   0  0  0  0  0  0  0  0  0  0  0  0
  1  2  1  0
  2  3  1  0
  3  4  2  0
  4  5  1  0
  5  6  2  0
  6  7  1  0
  7  8  1  0
  8  9  1  0
  7 10  2  0
 10 11  1  0
 11 12  1  0
  5 13  1  0
 13 14  2  0
 13 15  1  0
 15 16  1  0
 16 17  1  0
 17 18  1  0
 18 19  1  0
 19 20  1  0
 18 21  1  0
 21 22  2  0
 22 23  1  0
 23 24  1  0
 23 25  2  0
 25 26  1  0
 26 27  1  0
 26 28  2  0
 10  3  1  0
 20 15  1  0
 28 21  1  0
  1 29  1  0
  1 30  1  0
  1 31  1  0
  4 32  1  0
  6 33  1  0
  9 34  1  0
  9 35  1  0
  9 36  1  0
 12 37  1  0
 12 38  1  0
 12 39  1  0
 16 40  1  0
 16 41  1  0
 17 42  1  0
 17 43  1  0
 19 44  1  0
 19 45  1  0
 20 46  1  0
 20 47  1  0
 24 48  1  0
 24 49  1  0
 27 50  1  0
 27 51  1  0
M  END
$$$$
[H]OC(=O)[C@]1([H])O[C@]([H])([C@@]([H])(O[C@@]2([H])OC(C(=O)N([H])[C@]3([H])[C@]([H])(O[H])[C@]([H])(O[H])[C@]3([H])O[H])=C([H])[C@]([H])(O[H])[C@]2([H])O[H])n2c([H])c([H])c(=O)n([H])c2=O)[C@@]([H])(OC([H])([H])[H])[C@@]1([H])O[H]
     RDKit          3D

 66 69  0  0  0  0  0  0  0  0999 V2000
   -2.1845   -1.9134   -2.3470 C   0  0  0  0  0  0  0  0  0  0  0  0
   -2.3257   -2.1100   -0.9877 O   0  0  0  0  0  0  0  0  0  0  0  0
   -3.2969   -1.2913   -0.4172 C   0  0  1  0  0  0  0  0  0  0  0  0
   -4.3853   -2.2398    0.1054 C   0  0  1  0  0  0  0  0  0  0  0  0
   -4.2029   -3.5294   -0.3301 O   0  0  0  0  0  0  0  0  0  0  0  0
   -4.1880   -2.1445    1.6056 C   0  0  1  0  0  0  0  0  0  0  0  0
   -3.8050   -0.8156    1.7642 O   0  0  0  0  0  0  0  0  0  0  0  0
   -2.7959   -0.6751    0.8298 C   0  0  2  0  0  0  0  0  0  0  0  0
   -2.3228    0.7455    0.6937 C   0  0  1  0  0  0  0  0  0  0  0  0
   -1.3077    0.8694   -0.2520 O   0  0  0  0  0  0  0  0  0  0  0  0
   -0.0986    1.2727    0.3198 C   0  0  1  0  0  0  0  0  0  0  0  0
    0.8370    0.2397    0.1336 O   0  0  0  0  0  0  0  0  0  0  0  0
    2.1483    0.3923   -0.2516 C   0  0  0  0  0  0  0  0  0  0  0  0
    2.4426    1.3965   -1.0601 C   0  0  0  0  0  0  0  0  0  0  0  0
    1.2865    2.2640   -1.4660 C   0  0  2  0  0  0  0  0  0  0  0  0
    1.7365    3.4797   -1.9770 O   0  0  0  0  0  0  0  0  0  0  0  0
    0.4208    2.5438   -0.2546 C   0  0  2  0  0  0  0  0  0  0  0  0
    1.1934    3.1708    0.7445 O   0  0  0  0  0  0  0  0  0  0  0  0
    3.2146   -0.5025    0.1931 C   0  0  0  0  0  0  0  0  0  0  0  0
    2.8875   -1.4561    0.9703 O   0  0  0  0  0  0  0  0  0  0  0  0
    4.5714   -0.3673   -0.1887 N   0  0  0  0  0  0  0  0  0  0  0  0
    5.5648   -1.2846    0.2878 C   0  0  2  0  0  0  0  0  0  0  0  0
    6.8593   -0.6315    0.7506 C   0  0  2  0  0  0  0  0  0  0  0  0
    7.0616    0.5959    0.0803 O   0  0  0  0  0  0  0  0  0  0  0  0
    7.6077   -1.7660    0.0816 C   0  0  2  0  0  0  0  0  0  0  0  0
    8.7453   -1.3890   -0.6222 O   0  0  0  0  0  0  0  0  0  0  0  0
    6.3808   -1.9551   -0.8164 C   0  0  2  0  0  0  0  0  0  0  0  0
    6.4353   -1.2202   -2.0001 O   0  0  0  0  0  0  0  0  0  0  0  0
   -3.3526    1.6793    0.3688 N   0  0  0  0  0  0  0  0  0  0  0  0
   -3.5804    2.0271   -0.9044 C   0  0  0  0  0  0  0  0  0  0  0  0
   -4.5570    2.9156   -1.2373 C   0  0  0  0  0  0  0  0  0  0  0  0
   -5.3291    3.4701   -0.2441 C   0  0  0  0  0  0  0  0  0  0  0  0
   -6.2499    4.3010   -0.5018 O   0  0  0  0  0  0  0  0  0  0  0  0
   -5.1034    3.1229    1.0391 N   0  0  0  0  0  0  0  0  0  0  0  0
   -4.1216    2.2364    1.3177 C   0  0  0  0  0  0  0  0  0  0  0  0
   -3.9698    1.9592    2.5521 O   0  0  0  0  0  0  0  0  0  0  0  0
   -5.4018   -2.4814    2.3524 C   0  0  0  0  0  0  0  0  0  0  0  0
   -5.9101   -3.7610    2.2984 O   0  0  0  0  0  0  0  0  0  0  0  0
   -5.9988   -1.6250    3.0490 O   0  0  0  0  0  0  0  0  0  0  0  0
   -1.8936   -0.8545   -2.5088 H   0  0  0  0  0  0  0  0  0  0  0  0
   -3.1202   -2.0793   -2.9106 H   0  0  0  0  0  0  0  0  0  0  0  0
   -1.3450   -2.5282   -2.7003 H   0  0  0  0  0  0  0  0  0  0  0  0
   -3.7850   -0.6323   -1.1298 H   0  0  0  0  0  0  0  0  0  0  0  0
   -5.3934   -1.8573   -0.1199 H   0  0  0  0  0  0  0  0  0  0  0  0
   -4.4672   -4.2054    0.3498 H   0  0  0  0  0  0  0  0  0  0  0  0
   -3.3025   -2.7569    1.9224 H   0  0  0  0  0  0  0  0  0  0  0  0
   -1.9189   -1.2673    1.2019 H   0  0  0  0  0  0  0  0  0  0  0  0
   -1.8615    1.0163    1.6787 H   0  0  0  0  0  0  0  0  0  0  0  0
   -0.2456    1.4010    1.4306 H   0  0  0  0  0  0  0  0  0  0  0  0
    3.4069    1.6266   -1.4309 H   0  0  0  0  0  0  0  0  0  0  0  0
    0.6935    1.7070   -2.1994 H   0  0  0  0  0  0  0  0  0  0  0  0
    1.6270    4.1828   -1.2935 H   0  0  0  0  0  0  0  0  0  0  0  0
   -0.3424    3.2736   -0.5501 H   0  0  0  0  0  0  0  0  0  0  0  0
    1.3565    2.5668    1.5121 H   0  0  0  0  0  0  0  0  0  0  0  0
    4.8766    0.3895   -0.8149 H   0  0  0  0  0  0  0  0  0  0  0  0
    5.1660   -2.0601    0.9500 H   0  0  0  0  0  0  0  0  0  0  0  0
    6.9629   -0.5676    1.8363 H   0  0  0  0  0  0  0  0  0  0  0  0
    7.5335    1.1975    0.7100 H   0  0  0  0  0  0  0  0  0  0  0  0
    7.7263   -2.6081    0.7833 H   0  0  0  0  0  0  0  0  0  0  0  0
    9.4481   -1.1783    0.0219 H   0  0  0  0  0  0  0  0  0  0  0  0
    6.1498   -3.0328   -0.9433 H   0  0  0  0  0  0  0  0  0  0  0  0
    7.3584   -1.2868   -2.3377 H   0  0  0  0  0  0  0  0  0  0  0  0
   -2.9936    1.6144   -1.7328 H   0  0  0  0  0  0  0  0  0  0  0  0
   -4.7624    3.2163   -2.2767 H   0  0  0  0  0  0  0  0  0  0  0  0
   -5.7013    3.5556    1.7794 H   0  0  0  0  0  0  0  0  0  0  0  0
   -6.0784   -4.3559    3.0930 H   0  0  0  0  0  0  0  0  0  0  0  0
  1  2  1  0
  2  3  1  0
  3  4  1  0
  4  5  1  0
  4  6  1  0
  6  7  1  0
  7  8  1  0
  8  9  1  0
  9 10  1  0
 10 11  1  0
 11 12  1  0
 12 13  1  0
 13 14  2  0
 14 15  1  0
 15 16  1  0
 15 17  1  0
 17 18  1  0
 13 19  1  0
 19 20  2  0
 19 21  1  0
 21 22  1  0
 22 23  1  0
 23 24  1  0
 23 25  1  0
 25 26  1  0
 25 27  1  0
 27 28  1  0
  9 29  1  0
 29 30  1  0
 30 31  2  0
 31 32  1  0
 32 33  2  0
 32 34  1  0
 34 35  1  0
 35 36  2  0
  6 37  1  0
 37 38  1  0
 37 39  2  0
  8  3  1  0
 17 11  1  0
 27 22  1  0
 35 29  1  0
  1 40  1  0
  1 41  1  0
  1 42  1  0
  3 43  1  6
  4 44  1  1
  5 45  1  0
  6 46  1  1
  8 47  1  1
  9 48  1  1
 11 49  1  1
 14 50  1  0
 15 51  1  6
 16 52  1  0
 17 53  1  6
 18 54  1  0
 21 55  1  0
 22 56  1  1
 23 57  1  1
 24 58  1  0
 25 59  1  1
 26 60  1  0
 27 61  1  6
 28 62  1  0
 30 63  1  0
 31 64  1  0
 34 65  1  0
 38 66  1  0
M  END
$$$$
[H]c1nc2c([H])c(OC([H])([H])C([H])([H])C([H])([H])N3C([H])([H])C([H])([H])C([H])([H])C3([H])[H])c(OC([H])([H])[H])c([H])c2c(Oc2c([H])c([H])c(N([H])C(=O)C3(C(=O)N([H])c4c([H])c([H])c(F)c([H])c4[H])C([H])([H])C3([H])[H])c([H])c2F)c1[H]
     RDKit          3D

 79 84  0  0  0  0  0  0  0  0999 V2000
    3.8302   -0.0691   -3.3168 C   0  0  0  0  0  0  0  0  0  0  0  0
    4.6497   -0.4182   -2.2188 O   0  0  0  0  0  0  0  0  0  0  0  0
    4.0655   -0.7075   -0.9793 C   0  0  0  0  0  0  0  0  0  0  0  0
    2.7038   -0.6652   -0.7796 C   0  0  0  0  0  0  0  0  0  0  0  0
    2.1805   -0.9596    0.4612 C   0  0  0  0  0  0  0  0  0  0  0  0
    0.7874   -0.9181    0.6667 C   0  0  0  0  0  0  0  0  0  0  0  0
    0.0317   -0.5716   -0.4221 O   0  0  0  0  0  0  0  0  0  0  0  0
   -1.3360   -0.4198   -0.3755 C   0  0  0  0  0  0  0  0  0  0  0  0
   -2.1111   -1.2947   -1.1247 C   0  0  0  0  0  0  0  0  0  0  0  0
   -3.5108   -1.1877   -1.1187 C   0  0  0  0  0  0  0  0  0  0  0  0
   -4.1675   -0.2317   -0.3847 C   0  0  0  0  0  0  0  0  0  0  0  0
   -5.5693   -0.0973   -0.3121 N   0  0  0  0  0  0  0  0  0  0  0  0
   -6.4406   -1.1674   -0.4417 C   0  0  0  0  0  0  0  0  0  0  0  0
   -5.9503   -2.3401   -0.6205 O   0  0  0  0  0  0  0  0  0  0  0  0
   -7.9298   -1.1425   -0.3986 C   0  0  0  0  0  0  0  0  0  0  0  0
   -8.5097   -1.9318   -1.5975 C   0  0  0  0  0  0  0  0  0  0  0  0
   -8.6996   -2.3541   -0.1472 C   0  0  0  0  0  0  0  0  0  0  0  0
   -8.6206    0.1857   -0.2605 C   0  0  0  0  0  0  0  0  0  0  0  0
   -8.0996    1.1688   -0.8790 O   0  0  0  0  0  0  0  0  0  0  0  0
   -9.7839    0.3112    0.5201 N   0  0  0  0  0  0  0  0  0  0  0  0
  -10.5689    1.4642    0.7610 C   0  0  0  0  0  0  0  0  0  0  0  0
  -10.3767    2.6451    0.1352 C   0  0  0  0  0  0  0  0  0  0  0  0
  -11.1598    3.7823    0.3923 C   0  0  0  0  0  0  0  0  0  0  0  0
  -12.1603    3.6868    1.3171 C   0  0  0  0  0  0  0  0  0  0  0  0
  -12.9512    4.7463    1.6112 F   0  0  0  0  0  0  0  0  0  0  0  0
  -12.3775    2.4821    1.9738 C   0  0  0  0  0  0  0  0  0  0  0  0
  -11.6028    1.4050    1.7013 C   0  0  0  0  0  0  0  0  0  0  0  0
   -3.3713    0.6452    0.3658 C   0  0  0  0  0  0  0  0  0  0  0  0
   -2.0062    0.5395    0.3574 C   0  0  0  0  0  0  0  0  0  0  0  0
   -1.2644    1.4364    1.0821 F   0  0  0  0  0  0  0  0  0  0  0  0
    0.2549   -1.2099    1.8925 C   0  0  0  0  0  0  0  0  0  0  0  0
    1.1166   -1.5496    2.9406 C   0  0  0  0  0  0  0  0  0  0  0  0
    2.4469   -1.5945    2.7661 N   0  0  0  0  0  0  0  0  0  0  0  0
    2.9636   -1.3020    1.5392 C   0  0  0  0  0  0  0  0  0  0  0  0
    4.3401   -1.3442    1.3348 C   0  0  0  0  0  0  0  0  0  0  0  0
    4.8755   -1.0534    0.1037 C   0  0  0  0  0  0  0  0  0  0  0  0
    6.2469   -1.0998   -0.0841 O   0  0  0  0  0  0  0  0  0  0  0  0
    7.1860   -1.4315    0.8954 C   0  0  0  0  0  0  0  0  0  0  0  0
    8.5618   -1.3523    0.2422 C   0  0  0  0  0  0  0  0  0  0  0  0
    8.8377    0.0237   -0.2786 C   0  0  0  0  0  0  0  0  0  0  0  0
   10.1205    0.1556   -0.9217 N   0  0  0  0  0  0  0  0  0  0  0  0
   10.2436    1.5262   -1.4031 C   0  0  0  0  0  0  0  0  0  0  0  0
   11.0322    2.2660   -0.3700 C   0  0  0  0  0  0  0  0  0  0  0  0
   11.5546    1.2606    0.6014 C   0  0  0  0  0  0  0  0  0  0  0  0
   11.2376   -0.0641   -0.0616 C   0  0  0  0  0  0  0  0  0  0  0  0
    3.3765    0.9286   -3.1970 H   0  0  0  0  0  0  0  0  0  0  0  0
    4.4163   -0.0517   -4.2499 H   0  0  0  0  0  0  0  0  0  0  0  0
    3.0058   -0.8063   -3.4597 H   0  0  0  0  0  0  0  0  0  0  0  0
    2.0351   -0.4042   -1.5819 H   0  0  0  0  0  0  0  0  0  0  0  0
   -1.6280   -2.0600   -1.7140 H   0  0  0  0  0  0  0  0  0  0  0  0
   -4.0345   -1.8999   -1.7520 H   0  0  0  0  0  0  0  0  0  0  0  0
   -5.8979    0.9020   -0.1436 H   0  0  0  0  0  0  0  0  0  0  0  0
   -9.4104   -1.5492   -2.0945 H   0  0  0  0  0  0  0  0  0  0  0  0
   -7.8369   -2.4982   -2.2408 H   0  0  0  0  0  0  0  0  0  0  0  0
   -9.7256   -2.3351    0.2515 H   0  0  0  0  0  0  0  0  0  0  0  0
   -8.2063   -3.3359    0.0651 H   0  0  0  0  0  0  0  0  0  0  0  0
  -10.1051   -0.5933    0.9972 H   0  0  0  0  0  0  0  0  0  0  0  0
   -9.6143    2.8165   -0.6168 H   0  0  0  0  0  0  0  0  0  0  0  0
  -10.9844    4.7155   -0.1228 H   0  0  0  0  0  0  0  0  0  0  0  0
  -13.1976    2.4655    2.7080 H   0  0  0  0  0  0  0  0  0  0  0  0
  -11.7615    0.4726    2.2022 H   0  0  0  0  0  0  0  0  0  0  0  0
   -3.8884    1.3915    0.9384 H   0  0  0  0  0  0  0  0  0  0  0  0
   -0.8110   -1.1887    2.0237 H   0  0  0  0  0  0  0  0  0  0  0  0
    0.6248   -1.7679    3.8853 H   0  0  0  0  0  0  0  0  0  0  0  0
    4.9378   -1.6182    2.2038 H   0  0  0  0  0  0  0  0  0  0  0  0
    7.0153   -2.4584    1.2939 H   0  0  0  0  0  0  0  0  0  0  0  0
    7.0829   -0.7295    1.7455 H   0  0  0  0  0  0  0  0  0  0  0  0
    9.2768   -1.5920    1.0523 H   0  0  0  0  0  0  0  0  0  0  0  0
    8.5627   -2.1087   -0.5653 H   0  0  0  0  0  0  0  0  0  0  0  0
    8.0505    0.3787   -0.9835 H   0  0  0  0  0  0  0  0  0  0  0  0
    8.8188    0.7816    0.5583 H   0  0  0  0  0  0  0  0  0  0  0  0
   10.7510    1.5557   -2.3913 H   0  0  0  0  0  0  0  0  0  0  0  0
    9.2554    2.0054   -1.5336 H   0  0  0  0  0  0  0  0  0  0  0  0
   11.8781    2.8410   -0.8425 H   0  0  0  0  0  0  0  0  0  0  0  0
   10.4182    3.0320    0.1776 H   0  0  0  0  0  0  0  0  0  0  0  0
   12.6504    1.3755    0.7793 H   0  0  0  0  0  0  0  0  0  0  0  0
   11.0431    1.2979    1.5947 H   0  0  0  0  0  0  0  0  0  0  0  0
   12.1173   -0.4278   -0.6539 H   0  0  0  0  0  0  0  0  0  0  0  0
   11.0857   -0.7881    0.7446 H   0  0  0  0  0  0  0  0  0  0  0  0
  1  2  1  0
  2  3  1  0
  3  4  2  0
  4  5  1  0
  5  6  2  0
  6  7  1  0
  7  8  1  0
  8  9  2  0
  9 10  1  0
 10 11  2  0
 11 12  1  0
 12 13  1  0
 13 14  2  0
 13 15  1  0
 15 16  1  0
 16 17  1  0
 15 18  1  0
 18 19  2  0
 18 20  1  0
 20 21  1  0
 21 22  2  0
 22 23  1  0
 23 24  2  0
 24 25  1  0
 24 26  1  0
 26 27  2  0
 11 28  1  0
 28 29  2  0
 29 30  1  0
  6 31  1  0
 31 32  2  0
 32 33  1  0
 33 34  2  0
 34 35  1  0
 35 36  2  0
 36 37  1  0
 37 38  1  0
 38 39  1  0
 39 40  1  0
 40 41  1  0
 41 42  1  0
 42 43  1  0
 43 44  1  0
 44 45  1  0
 36  3  1  0
 45 41  1  0
 34  5  1  0
 29  8  1  0
 17 15  1  0
 27 21  1  0
  1 46  1  0
  1 47  1  0
  1 48  1  0
  4 49  1  0
  9 50  1  0
 10 51  1  0
 12 52  1  0
 16 53  1  0
 16 54  1  0
 17 55  1  0
 17 56  1  0
 20 57  1  0
 22 58  1  0
 23 59  1  0
 26 60  1  0
 27 61  1  0
 28 62  1  0
 31 63  1  0
 32 64  1  0
 35 65  1  0
 38 66  1  0
 38 67  1  0
 39 68  1  0
 39 69  1  0
 40 70  1  0
 40 71  1  0
 42 72  1  0
 42 73  1  0
 43 74  1  0
 43 75  1  0
 44 76  1  0
 44 77  1  0
 45 78  1  0
 45 79  1  0
M  END
$$$$
[H]c1c([H])c([H])c(C([H])([H])OC(=O)[C@@]([H])(N([H])C(=O)[C@@]([H])(N([H])C(=O)[C@]2([H])OC(=O)[C@@]2([H])[C@@]([H])(C([H])([H])[H])C([H])([H])C([H])([H])[H])C([H])(C([H])([H])[H])C([H])([H])[H])C([H])(C([H])([H])[H])C([H])([H])[H])c(Cl)c1[H]
     RDKit          3D

 69 70  0  0  0  0  0  0  0  0999 V2000
   -7.3316    0.4254    1.0770 C   0  0  0  0  0  0  0  0  0  0  0  0
   -7.6372   -0.6300    0.0406 C   0  0  0  0  0  0  0  0  0  0  0  0
   -6.4299   -1.4711   -0.2989 C   0  0  2  0  0  0  0  0  0  0  0  0
   -5.9017   -2.1923    0.9089 C   0  0  0  0  0  0  0  0  0  0  0  0
   -5.3976   -0.5894   -0.9488 C   0  0  1  0  0  0  0  0  0  0  0  0
   -4.1224   -1.3209   -1.3511 C   0  0  1  0  0  0  0  0  0  0  0  0
   -4.7273   -1.7052   -2.5783 O   0  0  0  0  0  0  0  0  0  0  0  0
   -5.5892   -0.6309   -2.4469 C   0  0  0  0  0  0  0  0  0  0  0  0
   -6.2502    0.0190   -3.2994 O   0  0  0  0  0  0  0  0  0  0  0  0
   -2.9652   -0.4211   -1.5023 C   0  0  0  0  0  0  0  0  0  0  0  0
   -2.7230    0.0439   -2.6348 O   0  0  0  0  0  0  0  0  0  0  0  0
   -2.1484   -0.0906   -0.4175 N   0  0  0  0  0  0  0  0  0  0  0  0
   -0.9843    0.8033   -0.5477 C   0  0  1  0  0  0  0  0  0  0  0  0
   -0.9283    1.7218    0.6234 C   0  0  0  0  0  0  0  0  0  0  0  0
   -2.2590    2.4982    0.5941 C   0  0  0  0  0  0  0  0  0  0  0  0
    0.1454    2.7495    0.5605 C   0  0  0  0  0  0  0  0  0  0  0  0
    0.2266   -0.0336   -0.7683 C   0  0  0  0  0  0  0  0  0  0  0  0
    0.1215   -1.3160   -0.7500 O   0  0  0  0  0  0  0  0  0  0  0  0
    1.5198    0.4476   -1.0074 N   0  0  0  0  0  0  0  0  0  0  0  0
    2.6633   -0.4366   -1.2333 C   0  0  1  0  0  0  0  0  0  0  0  0
    3.6663    0.1265   -2.1907 C   0  0  0  0  0  0  0  0  0  0  0  0
    3.0610    0.3773   -3.5649 C   0  0  0  0  0  0  0  0  0  0  0  0
    4.2651    1.3962   -1.6645 C   0  0  0  0  0  0  0  0  0  0  0  0
    3.3394   -0.7879    0.0490 C   0  0  0  0  0  0  0  0  0  0  0  0
    2.9517   -0.3355    1.1466 O   0  0  0  0  0  0  0  0  0  0  0  0
    4.4179   -1.6372    0.0464 O   0  0  0  0  0  0  0  0  0  0  0  0
    5.1699   -2.1130    1.0873 C   0  0  0  0  0  0  0  0  0  0  0  0
    5.9302   -1.1938    1.9283 C   0  0  0  0  0  0  0  0  0  0  0  0
    6.0550    0.1588    1.8224 C   0  0  0  0  0  0  0  0  0  0  0  0
    6.8301    0.9254    2.6979 C   0  0  0  0  0  0  0  0  0  0  0  0
    7.5064    0.3249    3.7186 C   0  0  0  0  0  0  0  0  0  0  0  0
    7.4056   -1.0471    3.8591 C   0  0  0  0  0  0  0  0  0  0  0  0
    6.6406   -1.7854    2.9884 C   0  0  0  0  0  0  0  0  0  0  0  0
    6.5712   -3.5127    3.2421 Cl  0  0  0  0  0  0  0  0  0  0  0  0
   -6.3909    0.2184    1.6156 H   0  0  0  0  0  0  0  0  0  0  0  0
   -8.1982    0.5383    1.7652 H   0  0  0  0  0  0  0  0  0  0  0  0
   -7.1813    1.3927    0.5240 H   0  0  0  0  0  0  0  0  0  0  0  0
   -8.4383   -1.3159    0.4434 H   0  0  0  0  0  0  0  0  0  0  0  0
   -8.0634   -0.1750   -0.8787 H   0  0  0  0  0  0  0  0  0  0  0  0
   -6.7873   -2.2614   -1.0101 H   0  0  0  0  0  0  0  0  0  0  0  0
   -6.7579   -2.6636    1.4382 H   0  0  0  0  0  0  0  0  0  0  0  0
   -5.2684   -3.0640    0.5883 H   0  0  0  0  0  0  0  0  0  0  0  0
   -5.3757   -1.5481    1.6254 H   0  0  0  0  0  0  0  0  0  0  0  0
   -5.2692    0.4076   -0.5319 H   0  0  0  0  0  0  0  0  0  0  0  0
   -3.9373   -2.1351   -0.6274 H   0  0  0  0  0  0  0  0  0  0  0  0
   -2.3722   -0.4940    0.5135 H   0  0  0  0  0  0  0  0  0  0  0  0
   -1.1120    1.3832   -1.4707 H   0  0  0  0  0  0  0  0  0  0  0  0
   -0.8209    1.1954    1.5948 H   0  0  0  0  0  0  0  0  0  0  0  0
   -3.0167    1.9994    1.2435 H   0  0  0  0  0  0  0  0  0  0  0  0
   -2.0633    3.4825    1.0524 H   0  0  0  0  0  0  0  0  0  0  0  0
   -2.6165    2.6640   -0.4328 H   0  0  0  0  0  0  0  0  0  0  0  0
    0.3006    3.2485   -0.3887 H   0  0  0  0  0  0  0  0  0  0  0  0
   -0.1593    3.5656    1.2871 H   0  0  0  0  0  0  0  0  0  0  0  0
    1.0825    2.3503    1.0411 H   0  0  0  0  0  0  0  0  0  0  0  0
    1.7171    1.4538   -1.0549 H   0  0  0  0  0  0  0  0  0  0  0  0
    2.2582   -1.4469   -1.5773 H   0  0  0  0  0  0  0  0  0  0  0  0
    4.4805   -0.6061   -2.3457 H   0  0  0  0  0  0  0  0  0  0  0  0
    3.5029    1.3032   -3.9514 H   0  0  0  0  0  0  0  0  0  0  0  0
    3.2406   -0.4368   -4.2625 H   0  0  0  0  0  0  0  0  0  0  0  0
    1.9571    0.5723   -3.4683 H   0  0  0  0  0  0  0  0  0  0  0  0
    5.3596    1.3261   -1.7010 H   0  0  0  0  0  0  0  0  0  0  0  0
    3.9220    2.2938   -2.2275 H   0  0  0  0  0  0  0  0  0  0  0  0
    3.9742    1.4719   -0.5721 H   0  0  0  0  0  0  0  0  0  0  0  0
    5.9318   -2.8893    0.7294 H   0  0  0  0  0  0  0  0  0  0  0  0
    4.4790   -2.6899    1.7752 H   0  0  0  0  0  0  0  0  0  0  0  0
    5.5569    0.6746    1.0408 H   0  0  0  0  0  0  0  0  0  0  0  0
    6.9069    1.9925    2.5880 H   0  0  0  0  0  0  0  0  0  0  0  0
    8.1162    0.9255    4.4053 H   0  0  0  0  0  0  0  0  0  0  0  0
    7.9509   -1.5008    4.6775 H   0  0  0  0  0  0  0  0  0  0  0  0
  1  2  1  0
  2  3  1  0
  3  4  1  0
  3  5  1  0
  5  6  1  0
  6  7  1  0
  7  8  1  0
  8  9  2  0
  6 10  1  0
 10 11  2  0
 10 12  1  0
 12 13  1  0
 13 14  1  0
 14 15  1  0
 14 16  1  0
 13 17  1  0
 17 18  2  0
 17 19  1  0
 19 20  1  0
 20 21  1  0
 21 22  1  0
 21 23  1  0
 20 24  1  0
 24 25  2  0
 24 26  1  0
 26 27  1  0
 27 28  1  0
 28 29  2  0
 29 30  1  0
 30 31  2  0
 31 32  1  0
 32 33  2  0
 33 34  1  0
  8  5  1  0
 33 28  1  0
  1 35  1  0
  1 36  1  0
  1 37  1  0
  2 38  1  0
  2 39  1  0
  3 40  1  6
  4 41  1  0
  4 42  1  0
  4 43  1  0
  5 44  1  1
  6 45  1  1
 12 46  1  0
 13 47  1  6
 14 48  1  0
 15 49  1  0
 15 50  1  0
 15 51  1  0
 16 52  1  0
 16 53  1  0
 16 54  1  0
 19 55  1  0
 20 56  1  6
 21 57  1  0
 22 58  1  0
 22 59  1  0
 22 60  1  0
 23 61  1  0
 23 62  1  0
 23 63  1  0
 27 64  1  0
 27 65  1  0
 29 66  1  0
 30 67  1  0
 31 68  1  0
 32 69  1  0
M  END
$$$$
[H]O[C@]1([H])C([H])([H])C([H])([H])[C@@]([H])(n2c([H])c(-c3c([H])c([H])c(S(=O)(=O)C([H])([H])[H])c([H])c3[H])c3c([H])nc(N([H])C([H])([H])C([H])([H])C([H])([H])C([H])([H])[H])nc32)C([H])([H])C1([H])[H]
     RDKit          3D

 61 64  0  0  0  0  0  0  0  0999 V2000
    6.5741    2.5927    0.4335 C   0  0  0  0  0  0  0  0  0  0  0  0
    5.1158    2.8881    0.6666 C   0  0  0  0  0  0  0  0  0  0  0  0
    4.3844    3.2172   -0.6210 C   0  0  0  0  0  0  0  0  0  0  0  0
    4.4426    2.0945   -1.6001 C   0  0  0  0  0  0  0  0  0  0  0  0
    3.8611    0.8784   -1.1076 N   0  0  0  0  0  0  0  0  0  0  0  0
    2.4800    0.7904   -0.8138 C   0  0  0  0  0  0  0  0  0  0  0  0
    1.6176    1.7967   -0.9690 N   0  0  0  0  0  0  0  0  0  0  0  0
    0.3193    1.6615   -0.6760 C   0  0  0  0  0  0  0  0  0  0  0  0
   -0.1538    0.4531   -0.1995 C   0  0  0  0  0  0  0  0  0  0  0  0
   -1.3951    0.0180    0.1786 C   0  0  0  0  0  0  0  0  0  0  0  0
   -1.2375   -1.2933    0.5670 C   0  0  0  0  0  0  0  0  0  0  0  0
    0.0365   -1.6764    0.4440 N   0  0  0  0  0  0  0  0  0  0  0  0
    0.6604   -2.9526    0.7314 C   0  0  1  0  0  0  0  0  0  0  0  0
   -0.2753   -3.9259    1.3596 C   0  0  0  0  0  0  0  0  0  0  0  0
    0.1105   -5.3572    0.9621 C   0  0  0  0  0  0  0  0  0  0  0  0
   -0.2650   -5.4839   -0.5097 C   0  0  2  0  0  0  0  0  0  0  0  0
    0.2281   -6.6340   -1.0850 O   0  0  0  0  0  0  0  0  0  0  0  0
    0.2146   -4.2703   -1.2842 C   0  0  0  0  0  0  0  0  0  0  0  0
    1.2867   -3.5699   -0.4845 C   0  0  0  0  0  0  0  0  0  0  0  0
    0.7157   -0.6055   -0.0289 C   0  0  0  0  0  0  0  0  0  0  0  0
    2.0031   -0.3849   -0.3470 N   0  0  0  0  0  0  0  0  0  0  0  0
   -2.6327    0.7860    0.1700 C   0  0  0  0  0  0  0  0  0  0  0  0
   -2.9752    1.5550   -0.9013 C   0  0  0  0  0  0  0  0  0  0  0  0
   -4.1637    2.2696   -0.8624 C   0  0  0  0  0  0  0  0  0  0  0  0
   -4.9685    2.1865    0.2539 C   0  0  0  0  0  0  0  0  0  0  0  0
   -4.6102    1.4063    1.3277 C   0  0  0  0  0  0  0  0  0  0  0  0
   -3.4348    0.6974    1.2934 C   0  0  0  0  0  0  0  0  0  0  0  0
   -6.4807    3.0763    0.3407 S   0  0  0  0  0  0  0  0  0  0  0  0
   -6.1990    4.6855    1.0476 C   0  0  0  0  0  0  0  0  0  0  0  0
   -7.4571    2.2892    1.1457 O   0  0  0  0  0  0  0  0  0  0  0  0
   -6.9927    3.2271   -1.0497 O   0  0  0  0  0  0  0  0  0  0  0  0
    6.7557    1.8540   -0.3626 H   0  0  0  0  0  0  0  0  0  0  0  0
    7.0677    3.5505    0.1205 H   0  0  0  0  0  0  0  0  0  0  0  0
    7.0012    2.2559    1.3913 H   0  0  0  0  0  0  0  0  0  0  0  0
    4.6170    2.0974    1.2348 H   0  0  0  0  0  0  0  0  0  0  0  0
    5.0753    3.8148    1.2981 H   0  0  0  0  0  0  0  0  0  0  0  0
    3.3751    3.5255   -0.3732 H   0  0  0  0  0  0  0  0  0  0  0  0
    4.9195    4.1072   -1.0513 H   0  0  0  0  0  0  0  0  0  0  0  0
    3.8738    2.4175   -2.5207 H   0  0  0  0  0  0  0  0  0  0  0  0
    5.4834    1.9290   -1.9592 H   0  0  0  0  0  0  0  0  0  0  0  0
    4.4592    0.0134   -0.9525 H   0  0  0  0  0  0  0  0  0  0  0  0
   -0.3338    2.4870   -0.8131 H   0  0  0  0  0  0  0  0  0  0  0  0
   -2.0497   -1.9083    0.9200 H   0  0  0  0  0  0  0  0  0  0  0  0
    1.5002   -2.7824    1.4671 H   0  0  0  0  0  0  0  0  0  0  0  0
   -0.2585   -3.8177    2.4734 H   0  0  0  0  0  0  0  0  0  0  0  0
   -1.3337   -3.8145    1.0414 H   0  0  0  0  0  0  0  0  0  0  0  0
   -0.5626   -6.0260    1.5315 H   0  0  0  0  0  0  0  0  0  0  0  0
    1.1584   -5.5756    1.1581 H   0  0  0  0  0  0  0  0  0  0  0  0
   -1.3899   -5.4483   -0.5270 H   0  0  0  0  0  0  0  0  0  0  0  0
   -0.3269   -6.8082   -1.9040 H   0  0  0  0  0  0  0  0  0  0  0  0
    0.6591   -4.5535   -2.2541 H   0  0  0  0  0  0  0  0  0  0  0  0
   -0.6009   -3.5482   -1.4710 H   0  0  0  0  0  0  0  0  0  0  0  0
    2.0710   -4.3073   -0.1641 H   0  0  0  0  0  0  0  0  0  0  0  0
    1.7960   -2.8513   -1.1427 H   0  0  0  0  0  0  0  0  0  0  0  0
   -2.3502    1.6188   -1.7689 H   0  0  0  0  0  0  0  0  0  0  0  0
   -4.4779    2.8882   -1.6780 H   0  0  0  0  0  0  0  0  0  0  0  0
   -5.2546    1.3526    2.1966 H   0  0  0  0  0  0  0  0  0  0  0  0
   -3.1595    0.0819    2.1493 H   0  0  0  0  0  0  0  0  0  0  0  0
   -6.1930    4.5792    2.1547 H   0  0  0  0  0  0  0  0  0  0  0  0
   -5.2701    5.1293    0.6695 H   0  0  0  0  0  0  0  0  0  0  0  0
   -7.0606    5.3238    0.7540 H   0  0  0  0  0  0  0  0  0  0  0  0
  1  2  1  0
  2  3  1  0
  3  4  1  0
  4  5  1  0
  5  6  1  0
  6  7  2  0
  7  8  1  0
  8  9  2  0
  9 10  1  0
 10 11  2  0
 11 12  1  0
 12 13  1  0
 13 14  1  0
 14 15  1  0
 15 16  1  0
 16 17  1  0
 16 18  1  0
 18 19  1  0
 12 20  1  0
 20 21  2  0
 10 22  1  0
 22 23  2  0
 23 24  1  0
 24 25  2  0
 25 26  1  0
 26 27  2  0
 25 28  1  0
 28 29  1  0
 28 30  2  0
 28 31  2  0
 21  6  1  0
 27 22  1  0
 20  9  1  0
 19 13  1  0
  1 32  1  0
  1 33  1  0
  1 34  1  0
  2 35  1  0
  2 36  1  0
  3 37  1  0
  3 38  1  0
  4 39  1  0
  4 40  1  0
  5 41  1  0
  8 42  1  0
 11 43  1  0
 13 44  1  1
 14 45  1  0
 14 46  1  0
 15 47  1  0
 15 48  1  0
 16 49  1  1
 17 50  1  0
 18 51  1  0
 18 52  1  0
 19 53  1  0
 19 54  1  0
 23 55  1  0
 24 56  1  0
 26 57  1  0
 27 58  1  0
 29 59  1  0
 29 60  1  0
 29 61  1  0
M  END
$$$$
[H]O[C@@]1([H])C([H])=C(C(=O)N([H])[C@]2([H])[C@]([H])(O[H])[C@]([H])(O[H])[C@]([H])(O[H])[C@@]2([H])O[H])O[C@]([H])(O[C@@]([H])(n2c([H])c([H])c(=O)n([H])c2=O)[C@@]2([H])O[C@@]([H])(C(=O)N([H])[H])[C@]([H])(O[H])[C@]2([H])OC([H])([H])[H])[C@@]1([H])O[H]
     RDKit          3D

 71 74  0  0  0  0  0  0  0  0999 V2000
   -3.2371    1.6110   -2.7033 C   0  0  0  0  0  0  0  0  0  0  0  0
   -3.3647    0.3532   -2.1857 O   0  0  0  0  0  0  0  0  0  0  0  0
   -4.0069    0.2606   -0.9666 C   0  0  1  0  0  0  0  0  0  0  0  0
   -5.2890   -0.5501   -1.2347 C   0  0  1  0  0  0  0  0  0  0  0  0
   -5.4539   -0.8126   -2.5842 O   0  0  0  0  0  0  0  0  0  0  0  0
   -5.0023   -1.8019   -0.4362 C   0  0  1  0  0  0  0  0  0  0  0  0
   -4.3472   -1.2380    0.6873 O   0  0  0  0  0  0  0  0  0  0  0  0
   -3.2906   -0.5340    0.0575 C   0  0  2  0  0  0  0  0  0  0  0  0
   -2.4815    0.2389    1.0617 C   0  0  1  0  0  0  0  0  0  0  0  0
   -1.4351    0.9333    0.4696 O   0  0  0  0  0  0  0  0  0  0  0  0
   -0.1889    0.4804    0.8671 C   0  0  1  0  0  0  0  0  0  0  0  0
    0.6427    0.0671   -0.1631 O   0  0  0  0  0  0  0  0  0  0  0  0
    2.0201    0.2673   -0.2165 C   0  0  0  0  0  0  0  0  0  0  0  0
    2.4688    1.4019    0.2762 C   0  0  0  0  0  0  0  0  0  0  0  0
    1.4658    2.3540    0.8389 C   0  0  2  0  0  0  0  0  0  0  0  0
    2.0436    3.3188    1.6409 O   0  0  0  0  0  0  0  0  0  0  0  0
    0.5226    1.5435    1.6999 C   0  0  2  0  0  0  0  0  0  0  0  0
    1.3149    0.9433    2.6968 O   0  0  0  0  0  0  0  0  0  0  0  0
    2.9285   -0.7044   -0.7781 C   0  0  0  0  0  0  0  0  0  0  0  0
    2.4854   -1.7984   -1.2524 O   0  0  0  0  0  0  0  0  0  0  0  0
    4.3188   -0.4505   -0.8065 N   0  0  0  0  0  0  0  0  0  0  0  0
    5.2036   -1.4569   -1.3827 C   0  0  2  0  0  0  0  0  0  0  0  0
    6.1809   -1.8706   -0.3181 C   0  0  2  0  0  0  0  0  0  0  0  0
    6.6725   -0.7948    0.4083 O   0  0  0  0  0  0  0  0  0  0  0  0
    7.2776   -2.5194   -1.1372 C   0  0  2  0  0  0  0  0  0  0  0  0
    8.4550   -2.6704   -0.4282 O   0  0  0  0  0  0  0  0  0  0  0  0
    7.4278   -1.5264   -2.2709 C   0  0  2  0  0  0  0  0  0  0  0  0
    8.4190   -0.5688   -1.9623 O   0  0  0  0  0  0  0  0  0  0  0  0
    6.1064   -0.8459   -2.4360 C   0  0  1  0  0  0  0  0  0  0  0  0
    5.6498   -1.0937   -3.7313 O   0  0  0  0  0  0  0  0  0  0  0  0
   -3.3034    1.0950    1.8831 N   0  0  0  0  0  0  0  0  0  0  0  0
   -4.0599    0.5111    2.8502 C   0  0  0  0  0  0  0  0  0  0  0  0
   -4.8697    1.2456    3.6808 C   0  0  0  0  0  0  0  0  0  0  0  0
   -4.9270    2.6144    3.5416 C   0  0  0  0  0  0  0  0  0  0  0  0
   -5.6686    3.2893    4.3020 O   0  0  0  0  0  0  0  0  0  0  0  0
   -4.1669    3.1520    2.5779 N   0  0  0  0  0  0  0  0  0  0  0  0
   -3.3773    2.4278    1.7695 C   0  0  0  0  0  0  0  0  0  0  0  0
   -2.6837    2.9908    0.8821 O   0  0  0  0  0  0  0  0  0  0  0  0
   -6.2282   -2.4846   -0.0063 C   0  0  0  0  0  0  0  0  0  0  0  0
   -6.6006   -2.4918    1.3446 N   0  0  0  0  0  0  0  0  0  0  0  0
   -6.9378   -3.0618   -0.8700 O   0  0  0  0  0  0  0  0  0  0  0  0
   -2.7006    1.4892   -3.6913 H   0  0  0  0  0  0  0  0  0  0  0  0
   -4.1604    2.1549   -2.9134 H   0  0  0  0  0  0  0  0  0  0  0  0
   -2.5043    2.2415   -2.1133 H   0  0  0  0  0  0  0  0  0  0  0  0
   -4.3308    1.2418   -0.5913 H   0  0  0  0  0  0  0  0  0  0  0  0
   -6.1726    0.0003   -0.8212 H   0  0  0  0  0  0  0  0  0  0  0  0
   -6.2983   -0.3833   -2.8748 H   0  0  0  0  0  0  0  0  0  0  0  0
   -4.3253   -2.4182   -1.0330 H   0  0  0  0  0  0  0  0  0  0  0  0
   -2.6822   -1.3740   -0.3891 H   0  0  0  0  0  0  0  0  0  0  0  0
   -2.0769   -0.5464    1.7754 H   0  0  0  0  0  0  0  0  0  0  0  0
   -0.3372   -0.3702    1.5755 H   0  0  0  0  0  0  0  0  0  0  0  0
    3.4975    1.7089    0.3109 H   0  0  0  0  0  0  0  0  0  0  0  0
    0.9164    2.7878   -0.0304 H   0  0  0  0  0  0  0  0  0  0  0  0
    1.4600    4.1236    1.6577 H   0  0  0  0  0  0  0  0  0  0  0  0
   -0.2135    2.1709    2.2198 H   0  0  0  0  0  0  0  0  0  0  0  0
    1.9888    1.6260    2.9913 H   0  0  0  0  0  0  0  0  0  0  0  0
    4.7444    0.4065   -0.4425 H   0  0  0  0  0  0  0  0  0  0  0  0
    4.6531   -2.3289   -1.7365 H   0  0  0  0  0  0  0  0  0  0  0  0
    5.6882   -2.5804    0.3632 H   0  0  0  0  0  0  0  0  0  0  0  0
    6.7429   -0.0370   -0.1936 H   0  0  0  0  0  0  0  0  0  0  0  0
    6.8947   -3.4790   -1.5134 H   0  0  0  0  0  0  0  0  0  0  0  0
    8.6039   -1.8534    0.1121 H   0  0  0  0  0  0  0  0  0  0  0  0
    7.7770   -2.0367   -3.1905 H   0  0  0  0  0  0  0  0  0  0  0  0
    8.4520    0.0197   -2.7730 H   0  0  0  0  0  0  0  0  0  0  0  0
    6.2012    0.2519   -2.2623 H   0  0  0  0  0  0  0  0  0  0  0  0
    4.6919   -0.8825   -3.7445 H   0  0  0  0  0  0  0  0  0  0  0  0
   -4.0189   -0.5575    2.9769 H   0  0  0  0  0  0  0  0  0  0  0  0
   -5.4813    0.7745    4.4637 H   0  0  0  0  0  0  0  0  0  0  0  0
   -4.2118    4.1922    2.4740 H   0  0  0  0  0  0  0  0  0  0  0  0
   -6.8117   -3.3406    1.8920 H   0  0  0  0  0  0  0  0  0  0  0  0
   -6.6698   -1.5714    1.8362 H   0  0  0  0  0  0  0  0  0  0  0  0
  1  2  1  0
  2  3  1  0
  3  4  1  0
  4  5  1  0
  4  6  1  0
  6  7  1  0
  7  8  1  0
  8  9  1  0
  9 10  1  0
 10 11  1  0
 11 12  1  0
 12 13  1  0
 13 14  2  0
 14 15  1  0
 15 16  1  0
 15 17  1  0
 17 18  1  0
 13 19  1  0
 19 20  2  0
 19 21  1  0
 21 22  1  0
 22 23  1  0
 23 24  1  0
 23 25  1  0
 25 26  1  0
 25 27  1  0
 27 28  1  0
 27 29  1  0
 29 30  1  0
  9 31  1  0
 31 32  1  0
 32 33  2  0
 33 34  1  0
 34 35  2  0
 34 36  1  0
 36 37  1  0
 37 38  2  0
  6 39  1  0
 39 40  1  0
 39 41  2  0
  8  3  1  0
 17 11  1  0
 29 22  1  0
 37 31  1  0
  1 42  1  0
  1 43  1  0
  1 44  1  0
  3 45  1  1
  4 46  1  1
  5 47  1  0
  6 48  1  6
  8 49  1  6
  9 50  1  1
 11 51  1  1
 14 52  1  0
 15 53  1  6
 16 54  1  0
 17 55  1  1
 18 56  1  0
 21 57  1  0
 22 58  1  6
 23 59  1  1
 24 60  1  0
 25 61  1  6
 26 62  1  0
 27 63  1  6
 28 64  1  0
 29 65  1  1
 30 66  1  0
 32 67  1  0
 33 68  1  0
 36 69  1  0
 40 70  1  0
 40 71  1  0
M  END
$$$$
[H]C1=C([H])C([H])(F)C([H])([H])C([H])=C1N([H])C(=O)C1(C(=O)N([H])c2nc(F)c(Oc3c([H])c([H])nc4c([H])c(OC([H])([H])C([H])([H])C([H])([H])N5C([H])([H])C([H])([H])OC([H])([H])C5([H])[H])c(OC([H])([H])[H])c([H])c34)c([H])c2[H])C([H])([H])C1([H])[H]
     RDKit          3D

 81 86  0  0  0  0  0  0  0  0999 V2000
   -2.2638    3.5704   -1.2999 C   0  0  0  0  0  0  0  0  0  0  0  0
   -3.2513    3.1182   -0.3943 O   0  0  0  0  0  0  0  0  0  0  0  0
   -3.0344    1.8976    0.2420 C   0  0  0  0  0  0  0  0  0  0  0  0
   -1.8989    1.1832   -0.0055 C   0  0  0  0  0  0  0  0  0  0  0  0
   -1.7087   -0.0404    0.6441 C   0  0  0  0  0  0  0  0  0  0  0  0
   -0.5651   -0.7337    0.3675 C   0  0  0  0  0  0  0  0  0  0  0  0
    0.4196   -0.2206   -0.5196 O   0  0  0  0  0  0  0  0  0  0  0  0
    1.5592   -0.9959   -0.7596 C   0  0  0  0  0  0  0  0  0  0  0  0
    2.7645   -0.6225   -0.2085 C   0  0  0  0  0  0  0  0  0  0  0  0
    3.8765   -1.3958   -0.4513 C   0  0  0  0  0  0  0  0  0  0  0  0
    3.8867   -2.5296   -1.2123 C   0  0  0  0  0  0  0  0  0  0  0  0
    4.9483   -3.4057   -1.4218 N   0  0  0  0  0  0  0  0  0  0  0  0
    6.2159   -3.5776   -0.9946 C   0  0  0  0  0  0  0  0  0  0  0  0
    6.7452   -4.7620   -1.4659 O   0  0  0  0  0  0  0  0  0  0  0  0
    7.2483   -2.9483   -0.1771 C   0  0  0  0  0  0  0  0  0  0  0  0
    8.3261   -3.8614    0.4158 C   0  0  0  0  0  0  0  0  0  0  0  0
    7.1445   -3.5372    1.2703 C   0  0  0  0  0  0  0  0  0  0  0  0
    7.6513   -1.5429   -0.1747 C   0  0  0  0  0  0  0  0  0  0  0  0
    8.3920   -1.1718    0.8302 O   0  0  0  0  0  0  0  0  0  0  0  0
    7.3736   -0.5290   -1.0863 N   0  0  0  0  0  0  0  0  0  0  0  0
    7.8958    0.8110   -0.8376 C   0  0  0  0  0  0  0  0  0  0  0  0
    8.7592    1.3995   -1.6207 C   0  0  0  0  0  0  0  0  0  0  0  0
    9.3077    2.7431   -1.4072 C   0  0  0  0  0  0  0  0  0  0  0  0
    8.8684    3.4539   -0.1862 C   0  0  0  0  0  0  0  0  0  0  0  0
   10.0019    3.6029    0.6386 F   0  0  0  0  0  0  0  0  0  0  0  0
    7.8817    2.7292    0.6537 C   0  0  0  0  0  0  0  0  0  0  0  0
    7.4481    1.5355    0.3547 C   0  0  0  0  0  0  0  0  0  0  0  0
    2.6374   -2.8395   -1.7358 N   0  0  0  0  0  0  0  0  0  0  0  0
    1.5417   -2.1257   -1.5268 C   0  0  0  0  0  0  0  0  0  0  0  0
    0.3345   -2.5192   -2.0860 F   0  0  0  0  0  0  0  0  0  0  0  0
   -0.3837   -1.9676    0.9954 C   0  0  0  0  0  0  0  0  0  0  0  0
   -1.3737   -2.3895    1.8554 C   0  0  0  0  0  0  0  0  0  0  0  0
   -2.4770   -1.6802    2.1075 N   0  0  0  0  0  0  0  0  0  0  0  0
   -2.6846   -0.4707    1.5059 C   0  0  0  0  0  0  0  0  0  0  0  0
   -3.8218    0.2535    1.7508 C   0  0  0  0  0  0  0  0  0  0  0  0
   -4.0473    1.5005    1.1125 C   0  0  0  0  0  0  0  0  0  0  0  0
   -5.0740    2.1863    1.3333 O   0  0  0  0  0  0  0  0  0  0  0  0
   -6.1879    2.8276    1.6468 C   0  0  0  0  0  0  0  0  0  0  0  0
   -7.4550    1.9541    1.4523 C   0  0  0  0  0  0  0  0  0  0  0  0
   -7.5603    1.5431   -0.0053 C   0  0  0  0  0  0  0  0  0  0  0  0
   -8.6892    0.7154   -0.2263 N   0  0  0  0  0  0  0  0  0  0  0  0
   -8.9588    0.3803   -1.5654 C   0  0  0  0  0  0  0  0  0  0  0  0
   -9.7862   -0.8713   -1.6503 C   0  0  0  0  0  0  0  0  0  0  0  0
  -10.8401   -0.7276   -0.7556 O   0  0  0  0  0  0  0  0  0  0  0  0
  -10.4152   -0.8431    0.5613 C   0  0  0  0  0  0  0  0  0  0  0  0
   -9.1237   -0.1186    0.8157 C   0  0  0  0  0  0  0  0  0  0  0  0
   -2.6278    4.3839   -1.9659 H   0  0  0  0  0  0  0  0  0  0  0  0
   -2.0793    2.7144   -2.0201 H   0  0  0  0  0  0  0  0  0  0  0  0
   -1.2949    3.7891   -0.8258 H   0  0  0  0  0  0  0  0  0  0  0  0
   -1.1219    1.5134   -0.6863 H   0  0  0  0  0  0  0  0  0  0  0  0
    2.8512    0.2667    0.4091 H   0  0  0  0  0  0  0  0  0  0  0  0
    4.8077   -1.0915    0.0370 H   0  0  0  0  0  0  0  0  0  0  0  0
    4.6055   -4.2547   -2.0882 H   0  0  0  0  0  0  0  0  0  0  0  0
    8.3481   -4.8775   -0.0605 H   0  0  0  0  0  0  0  0  0  0  0  0
    9.3011   -3.4275    0.6946 H   0  0  0  0  0  0  0  0  0  0  0  0
    6.3740   -4.2935    1.4608 H   0  0  0  0  0  0  0  0  0  0  0  0
    7.2236   -2.7564    2.0492 H   0  0  0  0  0  0  0  0  0  0  0  0
    6.8143   -0.6393   -1.9513 H   0  0  0  0  0  0  0  0  0  0  0  0
    9.1170    0.8644   -2.5149 H   0  0  0  0  0  0  0  0  0  0  0  0
   10.4266    2.6911   -1.4834 H   0  0  0  0  0  0  0  0  0  0  0  0
    9.0008    3.3684   -2.2888 H   0  0  0  0  0  0  0  0  0  0  0  0
    8.4629    4.4570   -0.3799 H   0  0  0  0  0  0  0  0  0  0  0  0
    7.5040    3.2147    1.5454 H   0  0  0  0  0  0  0  0  0  0  0  0
    6.7220    1.0158    0.9976 H   0  0  0  0  0  0  0  0  0  0  0  0
    0.4781   -2.5615    0.8288 H   0  0  0  0  0  0  0  0  0  0  0  0
   -1.2007   -3.3651    2.3321 H   0  0  0  0  0  0  0  0  0  0  0  0
   -4.5677   -0.1065    2.4354 H   0  0  0  0  0  0  0  0  0  0  0  0
   -6.2373    3.1324    2.7062 H   0  0  0  0  0  0  0  0  0  0  0  0
   -6.3766    3.8081    1.0970 H   0  0  0  0  0  0  0  0  0  0  0  0
   -8.3182    2.5547    1.7820 H   0  0  0  0  0  0  0  0  0  0  0  0
   -7.3342    1.0974    2.1150 H   0  0  0  0  0  0  0  0  0  0  0  0
   -7.7072    2.4744   -0.6387 H   0  0  0  0  0  0  0  0  0  0  0  0
   -6.6626    1.0404   -0.3602 H   0  0  0  0  0  0  0  0  0  0  0  0
   -9.5633    1.1969   -2.0793 H   0  0  0  0  0  0  0  0  0  0  0  0
   -8.0325    0.2060   -2.1574 H   0  0  0  0  0  0  0  0  0  0  0  0
  -10.2526   -0.8986   -2.6599 H   0  0  0  0  0  0  0  0  0  0  0  0
   -9.1724   -1.7746   -1.4605 H   0  0  0  0  0  0  0  0  0  0  0  0
  -11.1972   -0.3883    1.1960 H   0  0  0  0  0  0  0  0  0  0  0  0
  -10.3682   -1.9158    0.8080 H   0  0  0  0  0  0  0  0  0  0  0  0
   -9.1988    0.4780    1.7475 H   0  0  0  0  0  0  0  0  0  0  0  0
   -8.3507   -0.8941    1.0163 H   0  0  0  0  0  0  0  0  0  0  0  0
  1  2  1  0
  2  3  1  0
  3  4  2  0
  4  5  1  0
  5  6  2  0
  6  7  1  0
  7  8  1  0
  8  9  2  0
  9 10  1  0
 10 11  2  0
 11 12  1  0
 12 13  1  0
 13 14  2  0
 13 15  1  0
 15 16  1  0
 16 17  1  0
 15 18  1  0
 18 19  2  0
 18 20  1  0
 20 21  1  0
 21 22  2  0
 22 23  1  0
 23 24  1  0
 24 25  1  0
 24 26  1  0
 26 27  2  0
 11 28  1  0
 28 29  2  0
 29 30  1  0
  6 31  1  0
 31 32  2  0
 32 33  1  0
 33 34  2  0
 34 35  1  0
 35 36  2  0
 36 37  1  0
 37 38  1  0
 38 39  1  0
 39 40  1  0
 40 41  1  0
 41 42  1  0
 42 43  1  0
 43 44  1  0
 44 45  1  0
 45 46  1  0
 36  3  1  0
 46 41  1  0
 34  5  1  0
 29  8  1  0
 17 15  1  0
 27 21  1  0
  1 47  1  0
  1 48  1  0
  1 49  1  0
  4 50  1  0
  9 51  1  0
 10 52  1  0
 12 53  1  0
 16 54  1  0
 16 55  1  0
 17 56  1  0
 17 57  1  0
 20 58  1  0
 22 59  1  0
 23 60  1  0
 23 61  1  0
 24 62  1  0
 26 63  1  0
 27 64  1  0
 31 65  1  0
 32 66  1  0
 35 67  1  0
 38 68  1  0
 38 69  1  0
 39 70  1  0
 39 71  1  0
 40 72  1  0
 40 73  1  0
 42 74  1  0
 42 75  1  0
 43 76  1  0
 43 77  1  0
 45 78  1  0
 45 79  1  0
 46 80  1  0
 46 81  1  0
M  END
$$$$
[H]c1c([H])c([H])c(SC([H])([H])[C@]([H])(N([H])c2c([H])c([H])c(S(=O)(=O)N([H])C(=O)c3c([H])c([H])c(N4C([H])([H])C([H])([H])N(C([H])([H])C5=C(c6c([H])c([H])c(Cl)c([H])c6[H])C([H])([H])C(C([H])([H])[H])(C([H])([H])[H])C([H])([H])C5([H])[H])C([H])([H])C4([H])[H])c([H])c3[H])c([H])c2[N+](=O)[O-])C([H])([H])C([H])([H])N(C([H])([H])[H])C([H])([H])[H])c([H])c1[H]
     RDKit          3D

111116  0  0  0  0  0  0  0  0999 V2000
   -9.1647   -4.2823    0.4264 C   0  0  0  0  0  0  0  0  0  0  0  0
   -9.8726   -3.0406    0.6546 N   0  0  0  0  0  0  0  0  0  0  0  0
  -11.0830   -3.3691    1.3974 C   0  0  0  0  0  0  0  0  0  0  0  0
  -10.2413   -2.3244   -0.5180 C   0  0  0  0  0  0  0  0  0  0  0  0
   -9.0884   -1.7532   -1.2842 C   0  0  0  0  0  0  0  0  0  0  0  0
   -8.2607   -0.7946   -0.4443 C   0  0  2  0  0  0  0  0  0  0  0  0
   -9.1295    0.3619    0.0329 C   0  0  0  0  0  0  0  0  0  0  0  0
   -9.7921    1.2422   -1.4140 S   0  0  0  0  0  0  0  0  0  0  0  0
  -10.7398    2.6578   -0.9197 C   0  0  0  0  0  0  0  0  0  0  0  0
  -12.0968    2.5585   -0.6584 C   0  0  0  0  0  0  0  0  0  0  0  0
  -12.8486    3.6622   -0.2768 C   0  0  0  0  0  0  0  0  0  0  0  0
  -12.1641    4.8693   -0.1717 C   0  0  0  0  0  0  0  0  0  0  0  0
  -10.8173    4.9787   -0.4276 C   0  0  0  0  0  0  0  0  0  0  0  0
  -10.0838    3.8755   -0.8056 C   0  0  0  0  0  0  0  0  0  0  0  0
   -7.1959   -0.2850   -1.3060 N   0  0  0  0  0  0  0  0  0  0  0  0
   -6.0529    0.4182   -0.7896 C   0  0  0  0  0  0  0  0  0  0  0  0
   -5.8544    0.4401    0.5922 C   0  0  0  0  0  0  0  0  0  0  0  0
   -4.7621    1.0787    1.1665 C   0  0  0  0  0  0  0  0  0  0  0  0
   -3.8235    1.7218    0.3966 C   0  0  0  0  0  0  0  0  0  0  0  0
   -4.0256    1.6966   -0.9577 C   0  0  0  0  0  0  0  0  0  0  0  0
   -5.1256    1.0534   -1.5585 C   0  0  0  0  0  0  0  0  0  0  0  0
   -5.2004    1.1305   -2.9628 N   0  0  0  0  0  0  0  0  0  0  0  0
   -5.7707    0.1720   -3.7308 O   0  0  0  0  0  0  0  0  0  0  0  0
   -4.7295    2.1272   -3.5863 O   0  0  0  0  0  0  0  0  0  0  0  0
   -2.4330    2.5088    1.1095 S   0  0  0  0  0  0  0  0  0  0  0  0
   -2.1804    3.7616    0.3056 O   0  0  0  0  0  0  0  0  0  0  0  0
   -2.7705    2.9570    2.5053 O   0  0  0  0  0  0  0  0  0  0  0  0
   -1.0264    1.5550    1.0778 N   0  0  0  0  0  0  0  0  0  0  0  0
   -0.8504    0.3099    0.4572 C   0  0  0  0  0  0  0  0  0  0  0  0
   -1.8039   -0.2204   -0.1574 O   0  0  0  0  0  0  0  0  0  0  0  0
    0.4062   -0.4342    0.4708 C   0  0  0  0  0  0  0  0  0  0  0  0
    0.6596   -1.4315   -0.4568 C   0  0  0  0  0  0  0  0  0  0  0  0
    1.8428   -2.1358   -0.4849 C   0  0  0  0  0  0  0  0  0  0  0  0
    2.8514   -1.8834    0.4184 C   0  0  0  0  0  0  0  0  0  0  0  0
    2.5829   -0.8743    1.3533 C   0  0  0  0  0  0  0  0  0  0  0  0
    1.4028   -0.1711    1.3826 C   0  0  0  0  0  0  0  0  0  0  0  0
    4.0926   -2.5241    0.3956 N   0  0  0  0  0  0  0  0  0  0  0  0
    4.6236   -3.0160   -0.8779 C   0  0  0  0  0  0  0  0  0  0  0  0
    5.7751   -1.9861   -1.1438 C   0  0  0  0  0  0  0  0  0  0  0  0
    6.6875   -2.0886   -0.0944 N   0  0  0  0  0  0  0  0  0  0  0  0
    7.2260   -0.8243    0.3442 C   0  0  0  0  0  0  0  0  0  0  0  0
    8.1858   -0.1724   -0.5475 C   0  0  0  0  0  0  0  0  0  0  0  0
    9.4316    0.0857   -0.1673 C   0  0  0  0  0  0  0  0  0  0  0  0
   10.3116    0.7680   -1.2185 C   0  0  0  0  0  0  0  0  0  0  0  0
    9.6081    2.0274   -1.6179 C   0  0  0  0  0  0  0  0  0  0  0  0
    9.5522    3.0136   -0.4417 C   0  0  0  0  0  0  0  0  0  0  0  0
   10.3303    2.7208   -2.7442 C   0  0  0  0  0  0  0  0  0  0  0  0
    8.1746    1.7829   -2.0093 C   0  0  0  0  0  0  0  0  0  0  0  0
    7.8587    0.2738   -1.9221 C   0  0  0  0  0  0  0  0  0  0  0  0
    9.9339   -0.1759    1.1283 C   0  0  0  0  0  0  0  0  0  0  0  0
   11.0486   -1.0017    1.2829 C   0  0  0  0  0  0  0  0  0  0  0  0
   11.6169   -1.2482    2.5062 C   0  0  0  0  0  0  0  0  0  0  0  0
   11.0836   -0.6654    3.6583 C   0  0  0  0  0  0  0  0  0  0  0  0
   11.7763   -0.9544    5.2400 Cl  0  0  0  0  0  0  0  0  0  0  0  0
    9.9787    0.1555    3.5161 C   0  0  0  0  0  0  0  0  0  0  0  0
    9.4319    0.3827    2.2743 C   0  0  0  0  0  0  0  0  0  0  0  0
    6.4027   -2.9054    1.0315 C   0  0  0  0  0  0  0  0  0  0  0  0
    4.9667   -2.7524    1.5295 C   0  0  0  0  0  0  0  0  0  0  0  0
   -8.7117   -4.5802    1.4213 H   0  0  0  0  0  0  0  0  0  0  0  0
   -9.8381   -5.1162    0.1356 H   0  0  0  0  0  0  0  0  0  0  0  0
   -8.2881   -4.1701   -0.2443 H   0  0  0  0  0  0  0  0  0  0  0  0
  -10.9443   -3.2826    2.4888 H   0  0  0  0  0  0  0  0  0  0  0  0
  -11.3789   -4.4402    1.1844 H   0  0  0  0  0  0  0  0  0  0  0  0
  -11.9582   -2.7747    1.0543 H   0  0  0  0  0  0  0  0  0  0  0  0
  -10.7746   -3.0414   -1.2053 H   0  0  0  0  0  0  0  0  0  0  0  0
  -10.9624   -1.5343   -0.2680 H   0  0  0  0  0  0  0  0  0  0  0  0
   -9.4445   -1.1854   -2.1628 H   0  0  0  0  0  0  0  0  0  0  0  0
   -8.3831   -2.5176   -1.6505 H   0  0  0  0  0  0  0  0  0  0  0  0
   -7.8132   -1.2763    0.4148 H   0  0  0  0  0  0  0  0  0  0  0  0
   -9.9757   -0.0070    0.6440 H   0  0  0  0  0  0  0  0  0  0  0  0
   -8.5303    1.0300    0.6558 H   0  0  0  0  0  0  0  0  0  0  0  0
  -12.5713    1.6071   -0.7542 H   0  0  0  0  0  0  0  0  0  0  0  0
  -13.9010    3.6224   -0.0666 H   0  0  0  0  0  0  0  0  0  0  0  0
  -12.7531    5.7376    0.1282 H   0  0  0  0  0  0  0  0  0  0  0  0
  -10.3213    5.9528   -0.3323 H   0  0  0  0  0  0  0  0  0  0  0  0
   -9.0299    3.9776   -1.0020 H   0  0  0  0  0  0  0  0  0  0  0  0
   -7.3350   -0.4659   -2.3093 H   0  0  0  0  0  0  0  0  0  0  0  0
   -6.5568   -0.0562    1.2299 H   0  0  0  0  0  0  0  0  0  0  0  0
   -4.6258    1.0857    2.2538 H   0  0  0  0  0  0  0  0  0  0  0  0
   -3.2885    2.2055   -1.5740 H   0  0  0  0  0  0  0  0  0  0  0  0
   -0.1874    1.9495    1.5905 H   0  0  0  0  0  0  0  0  0  0  0  0
   -0.1165   -1.6459   -1.1752 H   0  0  0  0  0  0  0  0  0  0  0  0
    1.9769   -2.9194   -1.2482 H   0  0  0  0  0  0  0  0  0  0  0  0
    3.3510   -0.6594    2.0672 H   0  0  0  0  0  0  0  0  0  0  0  0
    1.2104    0.6089    2.1231 H   0  0  0  0  0  0  0  0  0  0  0  0
    5.1180   -3.9682   -0.6970 H   0  0  0  0  0  0  0  0  0  0  0  0
    3.9129   -2.9874   -1.6915 H   0  0  0  0  0  0  0  0  0  0  0  0
    5.2491   -0.9701   -1.1868 H   0  0  0  0  0  0  0  0  0  0  0  0
    6.2238   -2.1411   -2.1175 H   0  0  0  0  0  0  0  0  0  0  0  0
    6.3705   -0.0613    0.4429 H   0  0  0  0  0  0  0  0  0  0  0  0
    7.5615   -0.9193    1.4060 H   0  0  0  0  0  0  0  0  0  0  0  0
   10.4000    0.0918   -2.0651 H   0  0  0  0  0  0  0  0  0  0  0  0
   11.2752    0.9981   -0.7546 H   0  0  0  0  0  0  0  0  0  0  0  0
    8.7023    2.7544    0.2371 H   0  0  0  0  0  0  0  0  0  0  0  0
    9.3741    4.0120   -0.8984 H   0  0  0  0  0  0  0  0  0  0  0  0
   10.5219    3.0615    0.0753 H   0  0  0  0  0  0  0  0  0  0  0  0
   11.3812    2.8732   -2.4295 H   0  0  0  0  0  0  0  0  0  0  0  0
   10.3030    2.1764   -3.6946 H   0  0  0  0  0  0  0  0  0  0  0  0
    9.8132    3.7069   -2.8932 H   0  0  0  0  0  0  0  0  0  0  0  0
    7.4383    2.2964   -1.3558 H   0  0  0  0  0  0  0  0  0  0  0  0
    7.9574    2.0777   -3.0484 H   0  0  0  0  0  0  0  0  0  0  0  0
    8.5166   -0.2611   -2.6428 H   0  0  0  0  0  0  0  0  0  0  0  0
    6.8342    0.1691   -2.2446 H   0  0  0  0  0  0  0  0  0  0  0  0
   11.4724   -1.4633    0.3903 H   0  0  0  0  0  0  0  0  0  0  0  0
   12.4747   -1.8838    2.6477 H   0  0  0  0  0  0  0  0  0  0  0  0
    9.5454    0.6158    4.3746 H   0  0  0  0  0  0  0  0  0  0  0  0
    8.5602    1.0516    2.2401 H   0  0  0  0  0  0  0  0  0  0  0  0
    6.5168   -3.9792    0.7356 H   0  0  0  0  0  0  0  0  0  0  0  0
    7.1436   -2.7544    1.8360 H   0  0  0  0  0  0  0  0  0  0  0  0
    4.9363   -1.9114    2.2449 H   0  0  0  0  0  0  0  0  0  0  0  0
    4.6933   -3.7213    2.0161 H   0  0  0  0  0  0  0  0  0  0  0  0
  1  2  1  0
  2  3  1  0
  2  4  1  0
  4  5  1  0
  5  6  1  0
  6  7  1  0
  7  8  1  0
  8  9  1  0
  9 10  2  0
 10 11  1  0
 11 12  2  0
 12 13  1  0
 13 14  2  0
  6 15  1  0
 15 16  1  0
 16 17  2  0
 17 18  1  0
 18 19  2  0
 19 20  1  0
 20 21  2  0
 21 22  1  0
 22 23  1  0
 22 24  2  0
 19 25  1  0
 25 26  2  0
 25 27  2  0
 25 28  1  0
 28 29  1  0
 29 30  2  0
 29 31  1  0
 31 32  2  0
 32 33  1  0
 33 34  2  0
 34 35  1  0
 35 36  2  0
 34 37  1  0
 37 38  1  0
 38 39  1  0
 39 40  1  0
 40 41  1  0
 41 42  1  0
 42 43  2  0
 43 44  1  0
 44 45  1  0
 45 46  1  0
 45 47  1  0
 45 48  1  0
 48 49  1  0
 43 50  1  0
 50 51  2  0
 51 52  1  0
 52 53  2  0
 53 54  1  0
 53 55  1  0
 55 56  2  0
 40 57  1  0
 57 58  1  0
 14  9  1  0
 21 16  1  0
 36 31  1  0
 58 37  1  0
 49 42  1  0
 56 50  1  0
  1 59  1  0
  1 60  1  0
  1 61  1  0
  3 62  1  0
  3 63  1  0
  3 64  1  0
  4 65  1  0
  4 66  1  0
  5 67  1  0
  5 68  1  0
  6 69  1  1
  7 70  1  0
  7 71  1  0
 10 72  1  0
 11 73  1  0
 12 74  1  0
 13 75  1  0
 14 76  1  0
 15 77  1  0
 17 78  1  0
 18 79  1  0
 20 80  1  0
 28 81  1  0
 32 82  1  0
 33 83  1  0
 35 84  1  0
 36 85  1  0
 38 86  1  0
 38 87  1  0
 39 88  1  0
 39 89  1  0
 41 90  1  0
 41 91  1  0
 44 92  1  0
 44 93  1  0
 46 94  1  0
 46 95  1  0
 46 96  1  0
 47 97  1  0
 47 98  1  0
 47 99  1  0
 48100  1  0
 48101  1  0
 49102  1  0
 49103  1  0
 51104  1  0
 52105  1  0
 55106  1  0
 56107  1  0
 57108  1  0
 57109  1  0
 58110  1  0
 58111  1  0
M  CHG  2  22   1  23  -1
M  END
$$$$
[H]OC(=O)[C@@]([H])(N([H])C(=O)C1([H])C([H])([H])C([H])([H])N(C(=O)c2c([H])c(OC([H])([H])[H])c(OC([H])([H])[H])c(OC([H])([H])[H])c2[H])C([H])([H])C1([H])[H])C([H])([H])c1c([H])c([H])c(O[H])c([H])c1[H]
     RDKit          3D

 65 67  0  0  0  0  0  0  0  0999 V2000
   -4.0754   -2.8673   -1.8237 C   0  0  0  0  0  0  0  0  0  0  0  0
   -5.0988   -2.4021   -0.9931 O   0  0  0  0  0  0  0  0  0  0  0  0
   -4.9854   -1.2191   -0.2479 C   0  0  0  0  0  0  0  0  0  0  0  0
   -3.8059   -0.4823   -0.3419 C   0  0  0  0  0  0  0  0  0  0  0  0
   -3.6632    0.6741    0.3695 C   0  0  0  0  0  0  0  0  0  0  0  0
   -4.7410    1.0642    1.1772 C   0  0  0  0  0  0  0  0  0  0  0  0
   -5.8924    0.3180    1.2510 C   0  0  0  0  0  0  0  0  0  0  0  0
   -6.9449    0.7539    2.0770 O   0  0  0  0  0  0  0  0  0  0  0  0
   -6.8168    1.9343    2.8133 C   0  0  0  0  0  0  0  0  0  0  0  0
   -6.0395   -0.8449    0.5364 C   0  0  0  0  0  0  0  0  0  0  0  0
   -7.2177   -1.6075    0.6120 O   0  0  0  0  0  0  0  0  0  0  0  0
   -8.2968   -1.3790   -0.2752 C   0  0  0  0  0  0  0  0  0  0  0  0
   -2.5238    1.5292    0.3420 C   0  0  0  0  0  0  0  0  0  0  0  0
   -2.5526    2.5486    1.1854 O   0  0  0  0  0  0  0  0  0  0  0  0
   -1.3704    1.4755   -0.4321 N   0  0  0  0  0  0  0  0  0  0  0  0
   -0.3394    2.5307   -0.1974 C   0  0  0  0  0  0  0  0  0  0  0  0
    0.9779    1.8093    0.0279 C   0  0  0  0  0  0  0  0  0  0  0  0
    1.4042    1.1442   -1.2863 C   0  0  0  0  0  0  0  0  0  0  0  0
    0.2235    1.0228   -2.1998 C   0  0  0  0  0  0  0  0  0  0  0  0
   -1.0426    0.5522   -1.4473 C   0  0  0  0  0  0  0  0  0  0  0  0
    2.0137   -0.1715   -0.9628 C   0  0  0  0  0  0  0  0  0  0  0  0
    1.5028   -1.2358   -1.4125 O   0  0  0  0  0  0  0  0  0  0  0  0
    3.1712   -0.2878   -0.1527 N   0  0  0  0  0  0  0  0  0  0  0  0
    3.7353   -1.5749    0.1403 C   0  0  1  0  0  0  0  0  0  0  0  0
    5.0906   -1.7620   -0.5245 C   0  0  0  0  0  0  0  0  0  0  0  0
    6.0899   -0.7679   -0.1069 C   0  0  0  0  0  0  0  0  0  0  0  0
    6.1618    0.4002   -0.8515 C   0  0  0  0  0  0  0  0  0  0  0  0
    7.0736    1.3446   -0.5010 C   0  0  0  0  0  0  0  0  0  0  0  0
    7.9060    1.1325    0.5773 C   0  0  0  0  0  0  0  0  0  0  0  0
    8.8405    2.1145    0.9267 O   0  0  0  0  0  0  0  0  0  0  0  0
    7.8297   -0.0300    1.3129 C   0  0  0  0  0  0  0  0  0  0  0  0
    6.8949   -1.0072    0.9600 C   0  0  0  0  0  0  0  0  0  0  0  0
    3.7389   -1.8870    1.5745 C   0  0  0  0  0  0  0  0  0  0  0  0
    4.2297   -3.0760    2.0822 O   0  0  0  0  0  0  0  0  0  0  0  0
    3.2772   -1.0410    2.3804 O   0  0  0  0  0  0  0  0  0  0  0  0
   -4.3925   -3.8886   -2.1813 H   0  0  0  0  0  0  0  0  0  0  0  0
   -4.0613   -2.2350   -2.7308 H   0  0  0  0  0  0  0  0  0  0  0  0
   -3.1054   -2.9519   -1.3238 H   0  0  0  0  0  0  0  0  0  0  0  0
   -3.0491   -0.8956   -0.9839 H   0  0  0  0  0  0  0  0  0  0  0  0
   -4.6699    1.9782    1.7603 H   0  0  0  0  0  0  0  0  0  0  0  0
   -6.5166    2.7621    2.1394 H   0  0  0  0  0  0  0  0  0  0  0  0
   -6.0048    1.8588    3.5728 H   0  0  0  0  0  0  0  0  0  0  0  0
   -7.7773    2.2096    3.2756 H   0  0  0  0  0  0  0  0  0  0  0  0
   -8.3260   -2.0831   -1.1123 H   0  0  0  0  0  0  0  0  0  0  0  0
   -9.2339   -1.5028    0.3072 H   0  0  0  0  0  0  0  0  0  0  0  0
   -8.3000   -0.3603   -0.6950 H   0  0  0  0  0  0  0  0  0  0  0  0
   -0.2795    3.2104   -1.0518 H   0  0  0  0  0  0  0  0  0  0  0  0
   -0.6347    3.0375    0.7321 H   0  0  0  0  0  0  0  0  0  0  0  0
    1.7782    2.5160    0.3027 H   0  0  0  0  0  0  0  0  0  0  0  0
    0.8565    1.0255    0.7854 H   0  0  0  0  0  0  0  0  0  0  0  0
    2.1796    1.7726   -1.7544 H   0  0  0  0  0  0  0  0  0  0  0  0
    0.4588    0.2351   -2.9505 H   0  0  0  0  0  0  0  0  0  0  0  0
   -0.0568    1.9866   -2.6650 H   0  0  0  0  0  0  0  0  0  0  0  0
   -0.8138   -0.4708   -1.1440 H   0  0  0  0  0  0  0  0  0  0  0  0
   -1.8500    0.5508   -2.2437 H   0  0  0  0  0  0  0  0  0  0  0  0
    3.6059    0.6062    0.2290 H   0  0  0  0  0  0  0  0  0  0  0  0
    3.0772   -2.3486   -0.3543 H   0  0  0  0  0  0  0  0  0  0  0  0
    5.4005   -2.8092   -0.2958 H   0  0  0  0  0  0  0  0  0  0  0  0
    4.8878   -1.7057   -1.6290 H   0  0  0  0  0  0  0  0  0  0  0  0
    5.5003    0.5483   -1.6945 H   0  0  0  0  0  0  0  0  0  0  0  0
    7.1383    2.2700   -1.0823 H   0  0  0  0  0  0  0  0  0  0  0  0
    9.7538    2.0247    0.4762 H   0  0  0  0  0  0  0  0  0  0  0  0
    8.4671   -0.2171    2.1560 H   0  0  0  0  0  0  0  0  0  0  0  0
    6.8247   -1.9263    1.5295 H   0  0  0  0  0  0  0  0  0  0  0  0
    4.3878   -3.9027    1.5536 H   0  0  0  0  0  0  0  0  0  0  0  0
  1  2  1  0
  2  3  1  0
  3  4  2  0
  4  5  1  0
  5  6  2  0
  6  7  1  0
  7  8  1  0
  8  9  1  0
  7 10  2  0
 10 11  1  0
 11 12  1  0
  5 13  1  0
 13 14  2  0
 13 15  1  0
 15 16  1  0
 16 17  1  0
 17 18  1  0
 18 19  1  0
 19 20  1  0
 18 21  1  0
 21 22  2  0
 21 23  1  0
 23 24  1  0
 24 25  1  0
 25 26  1  0
 26 27  2  0
 27 28  1  0
 28 29  2  0
 29 30  1  0
 29 31  1  0
 31 32  2  0
 24 33  1  0
 33 34  1  0
 33 35  2  0
 10  3  1  0
 20 15  1  0
 32 26  1  0
  1 36  1  0
  1 37  1  0
  1 38  1  0
  4 39  1  0
  6 40  1  0
  9 41  1  0
  9 42  1  0
  9 43  1  0
 12 44  1  0
 12 45  1  0
 12 46  1  0
 16 47  1  0
 16 48  1  0
 17 49  1  0
 17 50  1  0
 18 51  1  0
 19 52  1  0
 19 53  1  0
 20 54  1  0
 20 55  1  0
 23 56  1  0
 24 57  1  6
 25 58  1  0
 25 59  1  0
 27 60  1  0
 28 61  1  0
 30 62  1  0
 31 63  1  0
 32 64  1  0
 34 65  1  0
M  END
$$$$
[H]OC(=O)c1c([H])c(S(=O)(=O)c2c([H])c([H])c([H])c([H])c2[H])c([H])c2c([H])c(O[H])c(O[H])c([H])c12
     RDKit          3D

 36 38  0  0  0  0  0  0  0  0999 V2000
    1.4129    3.4030    1.9607 O   0  0  0  0  0  0  0  0  0  0  0  0
    2.0892    2.2088    1.5969 C   0  0  0  0  0  0  0  0  0  0  0  0
    3.1192    2.0026    2.2318 O   0  0  0  0  0  0  0  0  0  0  0  0
    1.5645    1.3555    0.5645 C   0  0  0  0  0  0  0  0  0  0  0  0
    0.2258    1.5782    0.1902 C   0  0  0  0  0  0  0  0  0  0  0  0
   -0.4032    0.8097   -0.7529 C   0  0  0  0  0  0  0  0  0  0  0  0
    0.2721   -0.2106   -1.3623 C   0  0  0  0  0  0  0  0  0  0  0  0
    1.5947   -0.4813   -1.0384 C   0  0  0  0  0  0  0  0  0  0  0  0
    2.2733   -1.5063   -1.6659 C   0  0  0  0  0  0  0  0  0  0  0  0
    3.6046   -1.7616   -1.3419 C   0  0  0  0  0  0  0  0  0  0  0  0
    4.3004   -2.7860   -1.9613 O   0  0  0  0  0  0  0  0  0  0  0  0
    4.2015   -0.9691   -0.3937 C   0  0  0  0  0  0  0  0  0  0  0  0
    5.5283   -1.1569   -0.0127 O   0  0  0  0  0  0  0  0  0  0  0  0
    3.5251    0.0791    0.2556 C   0  0  0  0  0  0  0  0  0  0  0  0
    2.2103    0.3238   -0.0692 C   0  0  0  0  0  0  0  0  0  0  0  0
   -2.0545    1.1672   -1.1415 S   0  0  0  0  0  0  0  0  0  0  0  0
   -2.2836    0.7659   -2.5822 O   0  0  0  0  0  0  0  0  0  0  0  0
   -2.2901    2.6448   -1.0093 O   0  0  0  0  0  0  0  0  0  0  0  0
   -3.1767    0.2838   -0.1294 C   0  0  0  0  0  0  0  0  0  0  0  0
   -3.6309    0.7988    1.0625 C   0  0  0  0  0  0  0  0  0  0  0  0
   -4.5204    0.0927    1.8595 C   0  0  0  0  0  0  0  0  0  0  0  0
   -4.9840   -1.1524    1.4884 C   0  0  0  0  0  0  0  0  0  0  0  0
   -4.5324   -1.6744    0.2943 C   0  0  0  0  0  0  0  0  0  0  0  0
   -3.6386   -0.9632   -0.5049 C   0  0  0  0  0  0  0  0  0  0  0  0
    0.8291    3.3363    2.8031 H   0  0  0  0  0  0  0  0  0  0  0  0
   -0.3051    2.4066    0.6934 H   0  0  0  0  0  0  0  0  0  0  0  0
   -0.1954   -0.8533   -2.1254 H   0  0  0  0  0  0  0  0  0  0  0  0
    1.7721   -2.0972   -2.3964 H   0  0  0  0  0  0  0  0  0  0  0  0
    5.2511   -2.9992   -1.7573 H   0  0  0  0  0  0  0  0  0  0  0  0
    6.1335   -1.8616   -0.3871 H   0  0  0  0  0  0  0  0  0  0  0  0
    4.0818    0.6527    0.9758 H   0  0  0  0  0  0  0  0  0  0  0  0
   -3.2594    1.7796    1.3446 H   0  0  0  0  0  0  0  0  0  0  0  0
   -4.8636    0.5188    2.7932 H   0  0  0  0  0  0  0  0  0  0  0  0
   -5.6796   -1.7210    2.0968 H   0  0  0  0  0  0  0  0  0  0  0  0
   -4.8940   -2.6514   -0.0003 H   0  0  0  0  0  0  0  0  0  0  0  0
   -3.2779   -1.3623   -1.4425 H   0  0  0  0  0  0  0  0  0  0  0  0
  1  2  1  0
  2  3  2  0
  2  4  1  0
  4  5  2  0
  5  6  1  0
  6  7  2  0
  7  8  1  0
  8  9  2  0
  9 10  1  0
 10 11  1  0
 10 12  2  0
 12 13  1  0
 12 14  1  0
 14 15  2  0
  6 16  1  0
 16 17  2  0
 16 18  2  0
 16 19  1  0
 19 20  2  0
 20 21  1  0
 21 22  2  0
 22 23  1  0
 23 24  2  0
 15  4  1  0
 24 19  1  0
 15  8  1  0
  1 25  1  0
  5 26  1  0
  7 27  1  0
  9 28  1  0
 11 29  1  0
 13 30  1  0
 14 31  1  0
 20 32  1  0
 21 33  1  0
 22 34  1  0
 23 35  1  0
 24 36  1  0
M  END
$$$$
[H]OC(=O)C([H])([H])C([H])([H])[C@@]([H])(C(=O)N([H])[C@]([H])(C(=O)N([H])[C@]([H])(C(=O)N([H])[C@]([H])(C(=O)N([H])[C@]([H])(C(=O)N([H])[C@]([H])(C(=O)N([H])[H])C([H])([H])c1c([H])c([H])c([H])c([H])c1[H])C([H])([H])C([H])([H])C(=O)N([H])[H])C([H])([H])C([H])([H])C(=O)N([H])[H])C([H])([H])C([H])(C([H])([H])[H])C([H])([H])[H])C([H])([H])C([H])([H])C(=O)N([H])[H])N([H])[H]
     RDKit          3D

110110  0  0  0  0  0  0  0  0999 V2000
   -3.2850   -4.1545    1.0382 C   0  0  0  0  0  0  0  0  0  0  0  0
   -3.4251   -3.2851   -0.2249 C   0  0  0  0  0  0  0  0  0  0  0  0
   -3.1216   -4.1965   -1.4134 C   0  0  0  0  0  0  0  0  0  0  0  0
   -2.4137   -2.1860   -0.1381 C   0  0  0  0  0  0  0  0  0  0  0  0
   -2.5349   -1.2718    1.0362 C   0  0  2  0  0  0  0  0  0  0  0  0
   -3.7215   -0.5002    1.1530 N   0  0  0  0  0  0  0  0  0  0  0  0
   -4.6266   -0.0738    0.1722 C   0  0  0  0  0  0  0  0  0  0  0  0
   -4.4702   -0.3399   -1.0285 O   0  0  0  0  0  0  0  0  0  0  0  0
   -5.8182    0.7276    0.5583 C   0  0  2  0  0  0  0  0  0  0  0  0
   -6.6232    0.0758    1.6684 C   0  0  0  0  0  0  0  0  0  0  0  0
   -7.0771   -1.2738    1.1626 C   0  0  0  0  0  0  0  0  0  0  0  0
   -7.8729   -2.0474    2.1221 C   0  0  0  0  0  0  0  0  0  0  0  0
   -8.4236   -3.2860    1.7660 N   0  0  0  0  0  0  0  0  0  0  0  0
   -8.0679   -1.6012    3.2808 O   0  0  0  0  0  0  0  0  0  0  0  0
   -6.6218    1.0620   -0.5860 N   0  0  0  0  0  0  0  0  0  0  0  0
   -6.8013    2.4085   -0.9797 C   0  0  0  0  0  0  0  0  0  0  0  0
   -6.2571    3.3493   -0.3381 O   0  0  0  0  0  0  0  0  0  0  0  0
   -7.6247    2.7589   -2.1441 C   0  0  1  0  0  0  0  0  0  0  0  0
   -8.1846    1.5736   -2.7294 N   0  0  0  0  0  0  0  0  0  0  0  0
   -8.7330    3.7183   -1.7318 C   0  0  0  0  0  0  0  0  0  0  0  0
   -9.6334    3.0919   -0.6823 C   0  0  0  0  0  0  0  0  0  0  0  0
  -10.6850    4.0494   -0.3103 C   0  0  0  0  0  0  0  0  0  0  0  0
  -11.6584    3.7258    0.6374 O   0  0  0  0  0  0  0  0  0  0  0  0
  -10.7293    5.1912   -0.8461 O   0  0  0  0  0  0  0  0  0  0  0  0
   -1.3015   -0.4968    1.2316 C   0  0  0  0  0  0  0  0  0  0  0  0
   -1.4556    0.7607    1.4456 O   0  0  0  0  0  0  0  0  0  0  0  0
    0.0047   -1.0574    1.1938 N   0  0  0  0  0  0  0  0  0  0  0  0
    1.2233   -0.3118    1.3769 C   0  0  1  0  0  0  0  0  0  0  0  0
    1.8003   -0.4999    2.7408 C   0  0  0  0  0  0  0  0  0  0  0  0
    2.0759   -1.8823    3.1858 C   0  0  0  0  0  0  0  0  0  0  0  0
    2.9951   -2.7386    2.4772 C   0  0  0  0  0  0  0  0  0  0  0  0
    2.8806   -4.1673    2.7536 N   0  0  0  0  0  0  0  0  0  0  0  0
    3.8891   -2.4415    1.6501 O   0  0  0  0  0  0  0  0  0  0  0  0
    2.0714   -0.3785    0.2218 C   0  0  0  0  0  0  0  0  0  0  0  0
    1.7883   -1.2275   -0.6985 O   0  0  0  0  0  0  0  0  0  0  0  0
    3.2189    0.4163   -0.0299 N   0  0  0  0  0  0  0  0  0  0  0  0
    4.0511    0.2959   -1.2301 C   0  0  1  0  0  0  0  0  0  0  0  0
    3.6978    1.4539   -2.1628 C   0  0  0  0  0  0  0  0  0  0  0  0
    4.4637    1.4416   -3.4381 C   0  0  0  0  0  0  0  0  0  0  0  0
    4.2492    0.2659   -4.2981 C   0  0  0  0  0  0  0  0  0  0  0  0
    5.1496   -0.0197   -5.3694 N   0  0  0  0  0  0  0  0  0  0  0  0
    3.2864   -0.5020   -4.1195 O   0  0  0  0  0  0  0  0  0  0  0  0
    5.4524    0.3750   -0.7829 C   0  0  0  0  0  0  0  0  0  0  0  0
    5.5867    0.8357    0.4165 O   0  0  0  0  0  0  0  0  0  0  0  0
    6.6091    0.0258   -1.4675 N   0  0  0  0  0  0  0  0  0  0  0  0
    7.9128    0.2075   -0.8085 C   0  0  1  0  0  0  0  0  0  0  0  0
    8.2389    1.6592   -0.7992 C   0  0  0  0  0  0  0  0  0  0  0  0
    9.5014    2.0613   -0.1719 C   0  0  0  0  0  0  0  0  0  0  0  0
   10.6635    1.9691   -0.9122 C   0  0  0  0  0  0  0  0  0  0  0  0
   11.8617    2.3696   -0.3763 C   0  0  0  0  0  0  0  0  0  0  0  0
   11.9187    2.8753    0.9249 C   0  0  0  0  0  0  0  0  0  0  0  0
   10.7495    2.9688    1.6719 C   0  0  0  0  0  0  0  0  0  0  0  0
    9.5731    2.5582    1.0998 C   0  0  0  0  0  0  0  0  0  0  0  0
    8.0426   -0.5557    0.4235 C   0  0  0  0  0  0  0  0  0  0  0  0
    9.0546   -0.5014    1.3935 N   0  0  0  0  0  0  0  0  0  0  0  0
    7.1045   -1.4247    0.7096 O   0  0  0  0  0  0  0  0  0  0  0  0
   -2.3083   -3.9817    1.5036 H   0  0  0  0  0  0  0  0  0  0  0  0
   -3.3468   -5.2394    0.7506 H   0  0  0  0  0  0  0  0  0  0  0  0
   -4.0507   -3.8587    1.7751 H   0  0  0  0  0  0  0  0  0  0  0  0
   -4.4672   -2.9637   -0.2562 H   0  0  0  0  0  0  0  0  0  0  0  0
   -2.0053   -4.3330   -1.4607 H   0  0  0  0  0  0  0  0  0  0  0  0
   -3.5537   -5.1896   -1.2648 H   0  0  0  0  0  0  0  0  0  0  0  0
   -3.4758   -3.7703   -2.3557 H   0  0  0  0  0  0  0  0  0  0  0  0
   -1.4094   -2.7089   -0.1213 H   0  0  0  0  0  0  0  0  0  0  0  0
   -2.3697   -1.5783   -1.0718 H   0  0  0  0  0  0  0  0  0  0  0  0
   -2.5921   -2.0293    1.9147 H   0  0  0  0  0  0  0  0  0  0  0  0
   -3.9556   -0.1977    2.1731 H   0  0  0  0  0  0  0  0  0  0  0  0
   -5.4189    1.6723    1.0009 H   0  0  0  0  0  0  0  0  0  0  0  0
   -5.9483    0.0056    2.5415 H   0  0  0  0  0  0  0  0  0  0  0  0
   -7.4647    0.7210    1.9204 H   0  0  0  0  0  0  0  0  0  0  0  0
   -7.5898   -1.1495    0.2029 H   0  0  0  0  0  0  0  0  0  0  0  0
   -6.1193   -1.8503    0.9769 H   0  0  0  0  0  0  0  0  0  0  0  0
   -9.2840   -3.2688    1.1690 H   0  0  0  0  0  0  0  0  0  0  0  0
   -8.0763   -4.2243    2.0285 H   0  0  0  0  0  0  0  0  0  0  0  0
   -7.0758    0.3071   -1.1306 H   0  0  0  0  0  0  0  0  0  0  0  0
   -7.0105    3.2984   -2.9023 H   0  0  0  0  0  0  0  0  0  0  0  0
   -8.7353    1.0423   -2.0438 H   0  0  0  0  0  0  0  0  0  0  0  0
   -7.4226    0.9619   -3.1078 H   0  0  0  0  0  0  0  0  0  0  0  0
   -8.3205    4.6642   -1.3261 H   0  0  0  0  0  0  0  0  0  0  0  0
   -9.3302    3.9553   -2.6246 H   0  0  0  0  0  0  0  0  0  0  0  0
  -10.1377    2.1937   -1.1429 H   0  0  0  0  0  0  0  0  0  0  0  0
   -9.0612    2.7886    0.2080 H   0  0  0  0  0  0  0  0  0  0  0  0
  -11.5714    4.0253    1.5961 H   0  0  0  0  0  0  0  0  0  0  0  0
    0.0845   -2.0793    1.0271 H   0  0  0  0  0  0  0  0  0  0  0  0
    0.8476    0.7933    1.4042 H   0  0  0  0  0  0  0  0  0  0  0  0
    2.7385    0.1085    2.8900 H   0  0  0  0  0  0  0  0  0  0  0  0
    1.0916   -0.0555    3.5083 H   0  0  0  0  0  0  0  0  0  0  0  0
    2.4788   -1.7787    4.2632 H   0  0  0  0  0  0  0  0  0  0  0  0
    1.1130   -2.4443    3.3843 H   0  0  0  0  0  0  0  0  0  0  0  0
    3.4935   -4.6445    3.4195 H   0  0  0  0  0  0  0  0  0  0  0  0
    2.1452   -4.6773    2.2418 H   0  0  0  0  0  0  0  0  0  0  0  0
    3.4888    1.1193    0.6648 H   0  0  0  0  0  0  0  0  0  0  0  0
    3.8836   -0.6110   -1.8016 H   0  0  0  0  0  0  0  0  0  0  0  0
    3.7435    2.4213   -1.6306 H   0  0  0  0  0  0  0  0  0  0  0  0
    2.6227    1.2899   -2.4169 H   0  0  0  0  0  0  0  0  0  0  0  0
    4.1624    2.3941   -3.9914 H   0  0  0  0  0  0  0  0  0  0  0  0
    5.5583    1.5717   -3.3046 H   0  0  0  0  0  0  0  0  0  0  0  0
    6.1340    0.3097   -5.2562 H   0  0  0  0  0  0  0  0  0  0  0  0
    4.9012   -0.5264   -6.2386 H   0  0  0  0  0  0  0  0  0  0  0  0
    6.5856   -0.3652   -2.4148 H   0  0  0  0  0  0  0  0  0  0  0  0
    8.7121   -0.2496   -1.5143 H   0  0  0  0  0  0  0  0  0  0  0  0
    7.3814    2.2400   -0.3633 H   0  0  0  0  0  0  0  0  0  0  0  0
    8.3235    1.9648   -1.8844 H   0  0  0  0  0  0  0  0  0  0  0  0
   10.6343    1.5856   -1.9068 H   0  0  0  0  0  0  0  0  0  0  0  0
   12.7555    2.2861   -0.9710 H   0  0  0  0  0  0  0  0  0  0  0  0
   12.8814    3.1763    1.3071 H   0  0  0  0  0  0  0  0  0  0  0  0
   10.7989    3.3684    2.6890 H   0  0  0  0  0  0  0  0  0  0  0  0
    8.6467    2.6286    1.6683 H   0  0  0  0  0  0  0  0  0  0  0  0
    8.8924   -0.2326    2.3929 H   0  0  0  0  0  0  0  0  0  0  0  0
   10.0544   -0.7363    1.1443 H   0  0  0  0  0  0  0  0  0  0  0  0
  1  2  1  0
  2  3  1  0
  2  4  1  0
  4  5  1  0
  5  6  1  0
  6  7  1  0
  7  8  2  0
  7  9  1  0
  9 10  1  0
 10 11  1  0
 11 12  1  0
 12 13  1  0
 12 14  2  0
  9 15  1  0
 15 16  1  0
 16 17  2  0
 16 18  1  0
 18 19  1  0
 18 20  1  0
 20 21  1  0
 21 22  1  0
 22 23  1  0
 22 24  2  0
  5 25  1  0
 25 26  2  0
 25 27  1  0
 27 28  1  0
 28 29  1  0
 29 30  1  0
 30 31  1  0
 31 32  1  0
 31 33  2  0
 28 34  1  0
 34 35  2  0
 34 36  1  0
 36 37  1  0
 37 38  1  0
 38 39  1  0
 39 40  1  0
 40 41  1  0
 40 42  2  0
 37 43  1  0
 43 44  2  0
 43 45  1  0
 45 46  1  0
 46 47  1  0
 47 48  1  0
 48 49  2  0
 49 50  1  0
 50 51  2  0
 51 52  1  0
 52 53  2  0
 46 54  1  0
 54 55  1  0
 54 56  2  0
 53 48  1  0
  1 57  1  0
  1 58  1  0
  1 59  1  0
  2 60  1  0
  3 61  1  0
  3 62  1  0
  3 63  1  0
  4 64  1  0
  4 65  1  0
  5 66  1  1
  6 67  1  0
  9 68  1  1
 10 69  1  0
 10 70  1  0
 11 71  1  0
 11 72  1  0
 13 73  1  0
 13 74  1  0
 15 75  1  0
 18 76  1  6
 19 77  1  0
 19 78  1  0
 20 79  1  0
 20 80  1  0
 21 81  1  0
 21 82  1  0
 23 83  1  0
 27 84  1  0
 28 85  1  1
 29 86  1  0
 29 87  1  0
 30 88  1  0
 30 89  1  0
 32 90  1  0
 32 91  1  0
 36 92  1  0
 37 93  1  6
 38 94  1  0
 38 95  1  0
 39 96  1  0
 39 97  1  0
 41 98  1  0
 41 99  1  0
 45100  1  0
 46101  1  6
 47102  1  0
 47103  1  0
 49104  1  0
 50105  1  0
 51106  1  0
 52107  1  0
 53108  1  0
 55109  1  0
 55110  1  0
M  END
$$$$
[H]OC(=O)c1c([H])c([H])c(-c2c([H])nc(N3C([H])([H])[C@@]4([H])N(C([H])([H])[H])C([H])([H])[C@@]3([H])C4([H])[H])c([H])c2[H])c([H])c1[H]
     RDKit          2D

 42 45  0  0  0  0  0  0  0  0999 V2000
    2.7760    0.0000    0.0000 C   0  0  0  0  0  0  0  0  0  0  0  0
    1.2760    0.0000    0.0000 N   0  0  0  0  0  0  0  0  0  0  0  0
    0.3943    1.2135    0.0000 C   0  0  0  0  0  0  0  0  0  0  0  0
   -1.0323    0.7500    0.0000 C   0  0  0  0  0  0  0  0  0  0  0  0
   -1.0323   -0.7500    0.0000 C   0  0  0  0  0  0  0  0  0  0  0  0
    0.3943   -1.2135    0.0000 C   0  0  0  0  0  0  0  0  0  0  0  0
   -1.0323   -1.6771    0.0000 C   0  0  0  0  0  0  0  0  0  0  0  0
   -1.9140   -0.4635    0.0000 N   0  0  0  0  0  0  0  0  0  0  0  0
   -3.4140   -0.4635    0.0000 C   0  0  0  0  0  0  0  0  0  0  0  0
   -4.1640    0.8355    0.0000 C   0  0  0  0  0  0  0  0  0  0  0  0
   -5.6640    0.8355    0.0000 C   0  0  0  0  0  0  0  0  0  0  0  0
   -6.4140   -0.4635    0.0000 C   0  0  0  0  0  0  0  0  0  0  0  0
   -5.6640   -1.7626    0.0000 C   0  0  0  0  0  0  0  0  0  0  0  0
   -4.1640   -1.7626    0.0000 N   0  0  0  0  0  0  0  0  0  0  0  0
   -7.9140   -0.4635    0.0000 C   0  0  0  0  0  0  0  0  0  0  0  0
   -8.6640    0.8355    0.0000 C   0  0  0  0  0  0  0  0  0  0  0  0
  -10.1640    0.8355    0.0000 C   0  0  0  0  0  0  0  0  0  0  0  0
  -10.9140   -0.4635    0.0000 C   0  0  0  0  0  0  0  0  0  0  0  0
  -10.1640   -1.7626    0.0000 C   0  0  0  0  0  0  0  0  0  0  0  0
   -8.6640   -1.7626    0.0000 C   0  0  0  0  0  0  0  0  0  0  0  0
  -12.4140   -0.4635    0.0000 C   0  0  0  0  0  0  0  0  0  0  0  0
  -13.1640    0.8355    0.0000 O   0  0  0  0  0  0  0  0  0  0  0  0
  -13.1640   -1.7626    0.0000 O   0  0  0  0  0  0  0  0  0  0  0  0
    4.2760    0.0000    0.0000 H   0  0  0  0  0  0  0  0  0  0  0  0
    2.7760   -1.5000    0.0000 H   0  0  0  0  0  0  0  0  0  0  0  0
    2.7760    1.5000    0.0000 H   0  0  0  0  0  0  0  0  0  0  0  0
   -0.2158    2.5838    0.0000 H   0  0  0  0  0  0  0  0  0  0  0  0
    1.6933    1.9635    0.0000 H   0  0  0  0  0  0  0  0  0  0  0  0
   -2.2458    1.6317    0.0000 H   0  0  0  0  0  0  0  0  0  0  0  0
   -1.3818   -1.4665    0.0000 H   0  0  0  0  0  0  0  0  0  0  0  0
   -2.5177   -0.9588    0.0000 H   0  0  0  0  0  0  0  0  0  0  0  0
    0.8578   -2.6401    0.0000 H   0  0  0  0  0  0  0  0  0  0  0  0
   -0.4222   -3.0474    0.0000 H   0  0  0  0  0  0  0  0  0  0  0  0
   -2.3313   -2.4271    0.0000 H   0  0  0  0  0  0  0  0  0  0  0  0
   -3.4140    2.1346    0.0000 H   0  0  0  0  0  0  0  0  0  0  0  0
   -6.4140    2.1346    0.0000 H   0  0  0  0  0  0  0  0  0  0  0  0
   -6.4140   -3.0616    0.0000 H   0  0  0  0  0  0  0  0  0  0  0  0
   -7.9140    2.1346    0.0000 H   0  0  0  0  0  0  0  0  0  0  0  0
  -10.9140    2.1346    0.0000 H   0  0  0  0  0  0  0  0  0  0  0  0
  -10.9140   -3.0616    0.0000 H   0  0  0  0  0  0  0  0  0  0  0  0
   -7.9140   -3.0616    0.0000 H   0  0  0  0  0  0  0  0  0  0  0  0
  -14.6640    0.8355    0.0000 H   0  0  0  0  0  0  0  0  0  0  0  0
  1  2  1  0
  2  3  1  0
  3  4  1  0
  4  5  1  0
  5  6  1  0
  6  7  1  0
  7  8  1  0
  8  9  1  0
  9 10  2  0
 10 11  1  0
 11 12  2  0
 12 13  1  0
 13 14  2  0
 12 15  1  0
 15 16  2  0
 16 17  1  0
 17 18  2  0
 18 19  1  0
 19 20  2  0
 18 21  1  0
 21 22  1  0
 21 23  2  0
  6  2  1  0
 14  9  1  0
 20 15  1  0
  8  4  1  0
  1 24  1  0
  1 25  1  0
  1 26  1  0
  3 27  1  0
  3 28  1  0
  4 29  1  6
  5 30  1  0
  5 31  1  0
  6 32  1  1
  7 33  1  0
  7 34  1  0
 10 35  1  0
 11 36  1  0
 13 37  1  0
 16 38  1  0
 17 39  1  0
 19 40  1  0
 20 41  1  0
 22 42  1  0
M  END
$$$$
[H]c1nc(N2C([H])([H])[C@@]3([H])N(C([H])([H])[H])C([H])([H])[C@]2([H])C3([H])[H])c([H])nc1-c1c([H])c([H])c2oc([H])c([H])c2c1[H]
     RDKit          3D

 41 45  0  0  0  0  0  0  0  0999 V2000
    5.3810    1.3573   -0.8250 C   0  0  0  0  0  0  0  0  0  0  0  0
    5.1427    0.3964    0.2340 N   0  0  0  0  0  0  0  0  0  0  0  0
    4.0493    0.8544    1.1083 C   0  0  0  0  0  0  0  0  0  0  0  0
    3.1165   -0.3211    1.2583 C   0  0  2  0  0  0  0  0  0  0  0  0
    4.1247   -1.4698    1.0624 C   0  0  0  0  0  0  0  0  0  0  0  0
    4.6906   -0.8773   -0.2433 C   0  0  1  0  0  0  0  0  0  0  0  0
    3.3979   -0.6680   -1.0034 C   0  0  0  0  0  0  0  0  0  0  0  0
    2.3852   -0.4390    0.0130 N   0  0  0  0  0  0  0  0  0  0  0  0
    0.9924   -0.3414   -0.1071 C   0  0  0  0  0  0  0  0  0  0  0  0
    0.1464   -0.1182    0.9588 C   0  0  0  0  0  0  0  0  0  0  0  0
   -1.1896   -0.0313    0.7966 N   0  0  0  0  0  0  0  0  0  0  0  0
   -1.7554   -0.1600   -0.4222 C   0  0  0  0  0  0  0  0  0  0  0  0
   -0.9455   -0.3791   -1.4807 C   0  0  0  0  0  0  0  0  0  0  0  0
    0.3951   -0.4644   -1.3049 N   0  0  0  0  0  0  0  0  0  0  0  0
   -3.2123   -0.0609   -0.5695 C   0  0  0  0  0  0  0  0  0  0  0  0
   -3.8633   -0.1802   -1.7720 C   0  0  0  0  0  0  0  0  0  0  0  0
   -5.2547   -0.0777   -1.8578 C   0  0  0  0  0  0  0  0  0  0  0  0
   -6.0210    0.1468   -0.7370 C   0  0  0  0  0  0  0  0  0  0  0  0
   -7.3245    0.2805   -0.5557 O   0  0  0  0  0  0  0  0  0  0  0  0
   -7.5981    0.4862    0.7170 C   0  0  0  0  0  0  0  0  0  0  0  0
   -6.3987    0.4837    1.3877 C   0  0  0  0  0  0  0  0  0  0  0  0
   -5.3774    0.2688    0.4795 C   0  0  0  0  0  0  0  0  0  0  0  0
   -4.0119    0.1670    0.5559 C   0  0  0  0  0  0  0  0  0  0  0  0
    4.4418    1.9263   -1.0780 H   0  0  0  0  0  0  0  0  0  0  0  0
    6.1224    2.1214   -0.4903 H   0  0  0  0  0  0  0  0  0  0  0  0
    5.8123    0.8777   -1.7260 H   0  0  0  0  0  0  0  0  0  0  0  0
    4.4223    1.2506    2.0569 H   0  0  0  0  0  0  0  0  0  0  0  0
    3.5224    1.6409    0.5505 H   0  0  0  0  0  0  0  0  0  0  0  0
    2.5525   -0.3813    2.1582 H   0  0  0  0  0  0  0  0  0  0  0  0
    4.8767   -1.4693    1.8536 H   0  0  0  0  0  0  0  0  0  0  0  0
    3.6225   -2.4230    0.8814 H   0  0  0  0  0  0  0  0  0  0  0  0
    5.4127   -1.5045   -0.7191 H   0  0  0  0  0  0  0  0  0  0  0  0
    3.2082   -1.6043   -1.5670 H   0  0  0  0  0  0  0  0  0  0  0  0
    3.4322    0.2253   -1.6618 H   0  0  0  0  0  0  0  0  0  0  0  0
    0.5577   -0.0074    1.9644 H   0  0  0  0  0  0  0  0  0  0  0  0
   -1.3374   -0.4898   -2.4753 H   0  0  0  0  0  0  0  0  0  0  0  0
   -3.3055   -0.3580   -2.6873 H   0  0  0  0  0  0  0  0  0  0  0  0
   -5.7722   -0.1711   -2.8042 H   0  0  0  0  0  0  0  0  0  0  0  0
   -8.6092    0.6216    1.0773 H   0  0  0  0  0  0  0  0  0  0  0  0
   -6.2967    0.6278    2.4473 H   0  0  0  0  0  0  0  0  0  0  0  0
   -3.5320    0.2644    1.5081 H   0  0  0  0  0  0  0  0  0  0  0  0
  1  2  1  0
  2  3  1  0
  3  4  1  0
  4  5  1  0
  5  6  1  0
  6  7  1  0
  7  8  1  0
  8  9  1  0
  9 10  2  0
 10 11  1  0
 11 12  2  0
 12 13  1  0
 13 14  2  0
 12 15  1  0
 15 16  2  0
 16 17  1  0
 17 18  2  0
 18 19  1  0
 19 20  1  0
 20 21  2  0
 21 22  1  0
 22 23  2  0
  6  2  1  0
 14  9  1  0
 23 15  1  0
  8  4  1  0
 22 18  1  0
  1 24  1  0
  1 25  1  0
  1 26  1  0
  3 27  1  0
  3 28  1  0
  4 29  1  1
  5 30  1  0
  5 31  1  0
  6 32  1  6
  7 33  1  0
  7 34  1  0
 10 35  1  0
 13 36  1  0
 16 37  1  0
 17 38  1  0
 20 39  1  0
 21 40  1  0
 23 41  1  0
M  END
$$$$
[H]c1c([H])c([H])c(C2=NC([H])([H])c3nnc(C([H])([H])[H])n3-c3sc(C#CC([H])([H])N4C(=O)c5c([H])c([H])c([H])c([H])c5C4=O)c([H])c32)c(Cl)c1[H]
     RDKit          3D

 51 56  0  0  0  0  0  0  0  0999 V2000
   -1.4111   -3.8669    2.3827 C   0  0  0  0  0  0  0  0  0  0  0  0
   -2.5336   -3.9096    1.3836 C   0  0  0  0  0  0  0  0  0  0  0  0
   -3.4337   -4.8527    1.1010 N   0  0  0  0  0  0  0  0  0  0  0  0
   -4.2562   -4.4731    0.1143 N   0  0  0  0  0  0  0  0  0  0  0  0
   -3.8865   -3.2521   -0.2592 C   0  0  0  0  0  0  0  0  0  0  0  0
   -4.4450   -2.3704   -1.3305 C   0  0  0  0  0  0  0  0  0  0  0  0
   -4.7026   -1.0289   -0.9095 N   0  0  0  0  0  0  0  0  0  0  0  0
   -3.8960   -0.1746   -0.3117 C   0  0  0  0  0  0  0  0  0  0  0  0
   -2.4896   -0.4320    0.0587 C   0  0  0  0  0  0  0  0  0  0  0  0
   -1.5340    0.5074    0.0486 C   0  0  0  0  0  0  0  0  0  0  0  0
   -0.2774    0.1707    0.4521 C   0  0  0  0  0  0  0  0  0  0  0  0
   -0.4470   -1.5020    0.8472 S   0  0  0  0  0  0  0  0  0  0  0  0
   -2.0912   -1.6882    0.4811 C   0  0  0  0  0  0  0  0  0  0  0  0
   -2.8229   -2.9115    0.5306 N   0  0  0  0  0  0  0  0  0  0  0  0
    0.9113    1.0028    0.5344 C   0  0  0  0  0  0  0  0  0  0  0  0
    1.9051    1.6743    0.6143 C   0  0  0  0  0  0  0  0  0  0  0  0
    3.1029    2.5084    0.7267 C   0  0  0  0  0  0  0  0  0  0  0  0
    4.3065    1.7824    0.3439 N   0  0  0  0  0  0  0  0  0  0  0  0
    4.8601    1.7088   -0.9588 C   0  0  0  0  0  0  0  0  0  0  0  0
    4.3734    2.2697   -1.9614 O   0  0  0  0  0  0  0  0  0  0  0  0
    6.0567    0.8811   -0.8809 C   0  0  0  0  0  0  0  0  0  0  0  0
    6.9740    0.4859   -1.8568 C   0  0  0  0  0  0  0  0  0  0  0  0
    8.0359   -0.3112   -1.5168 C   0  0  0  0  0  0  0  0  0  0  0  0
    8.2294   -0.7375   -0.2384 C   0  0  0  0  0  0  0  0  0  0  0  0
    7.3388   -0.3596    0.7347 C   0  0  0  0  0  0  0  0  0  0  0  0
    6.2501    0.4511    0.4141 C   0  0  0  0  0  0  0  0  0  0  0  0
    5.1572    1.0128    1.1836 C   0  0  0  0  0  0  0  0  0  0  0  0
    4.9892    0.8381    2.4317 O   0  0  0  0  0  0  0  0  0  0  0  0
   -4.5194    1.0903   -0.0439 C   0  0  0  0  0  0  0  0  0  0  0  0
   -3.9779    2.0854    0.6875 C   0  0  0  0  0  0  0  0  0  0  0  0
   -4.5665    3.3433    0.8506 C   0  0  0  0  0  0  0  0  0  0  0  0
   -5.7688    3.5634    0.2258 C   0  0  0  0  0  0  0  0  0  0  0  0
   -6.3814    2.5933   -0.5338 C   0  0  0  0  0  0  0  0  0  0  0  0
   -5.7496    1.3878   -0.6517 C   0  0  0  0  0  0  0  0  0  0  0  0
   -6.5388    0.1530   -1.6253 Cl  0  0  0  0  0  0  0  0  0  0  0  0
   -1.4437   -2.9429    2.9808 H   0  0  0  0  0  0  0  0  0  0  0  0
   -0.4317   -4.0183    1.8756 H   0  0  0  0  0  0  0  0  0  0  0  0
   -1.5207   -4.7123    3.0848 H   0  0  0  0  0  0  0  0  0  0  0  0
   -5.4468   -2.8308   -1.5773 H   0  0  0  0  0  0  0  0  0  0  0  0
   -3.8576   -2.4463   -2.2697 H   0  0  0  0  0  0  0  0  0  0  0  0
   -1.7052    1.5455   -0.3250 H   0  0  0  0  0  0  0  0  0  0  0  0
    3.2674    2.8572    1.7667 H   0  0  0  0  0  0  0  0  0  0  0  0
    2.9413    3.3835    0.0677 H   0  0  0  0  0  0  0  0  0  0  0  0
    6.8540    0.8040   -2.8821 H   0  0  0  0  0  0  0  0  0  0  0  0
    8.7357   -0.6016   -2.3098 H   0  0  0  0  0  0  0  0  0  0  0  0
    9.0911   -1.3760    0.0018 H   0  0  0  0  0  0  0  0  0  0  0  0
    7.4757   -0.6889    1.7590 H   0  0  0  0  0  0  0  0  0  0  0  0
   -3.0582    1.9750    1.2831 H   0  0  0  0  0  0  0  0  0  0  0  0
   -4.0877    4.1090    1.4471 H   0  0  0  0  0  0  0  0  0  0  0  0
   -6.2331    4.5350    0.3459 H   0  0  0  0  0  0  0  0  0  0  0  0
   -7.3418    2.7681   -1.0318 H   0  0  0  0  0  0  0  0  0  0  0  0
  1  2  1  0
  2  3  2  0
  3  4  1  0
  4  5  2  0
  5  6  1  0
  6  7  1  0
  7  8  2  0
  8  9  1  0
  9 10  1  0
 10 11  2  0
 11 12  1  0
 12 13  1  0
 13 14  1  0
 11 15  1  0
 15 16  3  0
 16 17  1  0
 17 18  1  0
 18 19  1  0
 19 20  2  0
 19 21  1  0
 21 22  2  0
 22 23  1  0
 23 24  2  0
 24 25  1  0
 25 26  2  0
 26 27  1  0
 27 28  2  0
  8 29  1  0
 29 30  2  0
 30 31  1  0
 31 32  2  0
 32 33  1  0
 33 34  2  0
 34 35  1  0
 14  2  1  0
 27 18  1  0
 34 29  1  0
 14  5  1  0
 26 21  1  0
 13  9  2  0
  1 36  1  0
  1 37  1  0
  1 38  1  0
  6 39  1  0
  6 40  1  0
 10 41  1  0
 17 42  1  0
 17 43  1  0
 22 44  1  0
 23 45  1  0
 24 46  1  0
 25 47  1  0
 30 48  1  0
 31 49  1  0
 32 50  1  0
 33 51  1  0
M  END
$$$$
[H]c1c([H])c([H])c2c(c1[H])c(C([H])([H])[C@@]([H])(C(=O)N([H])[H])N([H])C(=O)[C@@]([H])(N([H])C(=O)[C@@]([H])(N([H])C(=O)C([H])([H])N([H])C(=O)[C@@]1([H])N(C(=O)[C@@]([H])(N([H])[H])C([H])([H])C([H])([H])C([H])([H])N=C(N([H])[H])N([H])[H])C([H])([H])C([H])([H])C1([H])[H])C([H])([H])c1c([H])n([H])c3c([H])c([H])c([H])c([H])c13)C([H])([H])C([H])(C([H])([H])[H])C([H])([H])[H])c([H])n2[H]
     RDKit          3D

115119  0  0  0  0  0  0  0  0999 V2000
   -5.2583   -0.1248   -3.5461 C   0  0  0  0  0  0  0  0  0  0  0  0
   -6.2510    0.4897   -2.6032 C   0  0  0  0  0  0  0  0  0  0  0  0
   -7.6788    0.0365   -3.0261 C   0  0  0  0  0  0  0  0  0  0  0  0
   -6.1306    0.1011   -1.1794 C   0  0  0  0  0  0  0  0  0  0  0  0
   -4.8979    0.3668   -0.4311 C   0  0  2  0  0  0  0  0  0  0  0  0
   -3.6867   -0.2582   -0.9380 N   0  0  0  0  0  0  0  0  0  0  0  0
   -2.3858    0.2675   -0.9067 C   0  0  0  0  0  0  0  0  0  0  0  0
   -2.2112    1.4106   -0.4122 O   0  0  0  0  0  0  0  0  0  0  0  0
   -1.1993   -0.4913   -1.4286 C   0  0  2  0  0  0  0  0  0  0  0  0
   -1.5522   -1.9650   -1.5035 C   0  0  0  0  0  0  0  0  0  0  0  0
   -0.4885   -2.8171   -2.0088 C   0  0  0  0  0  0  0  0  0  0  0  0
    0.3139   -3.6898   -1.3196 C   0  0  0  0  0  0  0  0  0  0  0  0
    1.1656   -4.3073   -2.1637 N   0  0  0  0  0  0  0  0  0  0  0  0
    0.9132   -3.8294   -3.4211 C   0  0  0  0  0  0  0  0  0  0  0  0
    1.4879   -4.1192   -4.6641 C   0  0  0  0  0  0  0  0  0  0  0  0
    1.0153   -3.4737   -5.7746 C   0  0  0  0  0  0  0  0  0  0  0  0
   -0.0104   -2.5426   -5.7241 C   0  0  0  0  0  0  0  0  0  0  0  0
   -0.5520   -2.2774   -4.5037 C   0  0  0  0  0  0  0  0  0  0  0  0
   -0.1067   -2.9067   -3.3422 C   0  0  0  0  0  0  0  0  0  0  0  0
   -0.1657   -0.3040   -0.4486 N   0  0  0  0  0  0  0  0  0  0  0  0
    1.2393   -0.1716   -0.6467 C   0  0  0  0  0  0  0  0  0  0  0  0
    1.7424   -0.2252   -1.7944 O   0  0  0  0  0  0  0  0  0  0  0  0
    2.0947    0.0326    0.5703 C   0  0  0  0  0  0  0  0  0  0  0  0
    3.4973    0.0550    0.2504 N   0  0  0  0  0  0  0  0  0  0  0  0
    4.1410   -1.0689   -0.2656 C   0  0  0  0  0  0  0  0  0  0  0  0
    3.3593   -2.0988   -0.4486 O   0  0  0  0  0  0  0  0  0  0  0  0
    5.5074   -1.3220   -0.6329 C   0  0  2  0  0  0  0  0  0  0  0  0
    5.9953   -2.5681    0.1831 C   0  0  0  0  0  0  0  0  0  0  0  0
    6.4216   -1.9268    1.4910 C   0  0  0  0  0  0  0  0  0  0  0  0
    6.6107   -0.4466    1.2036 C   0  0  0  0  0  0  0  0  0  0  0  0
    6.4731   -0.3400   -0.2453 N   0  0  0  0  0  0  0  0  0  0  0  0
    7.1479    0.5580   -1.1115 C   0  0  0  0  0  0  0  0  0  0  0  0
    6.8314    0.6429   -2.3105 O   0  0  0  0  0  0  0  0  0  0  0  0
    8.2618    1.3894   -0.5122 C   0  0  1  0  0  0  0  0  0  0  0  0
    9.2847    0.3739   -0.1748 N   0  0  0  0  0  0  0  0  0  0  0  0
    8.7702    2.3734   -1.5041 C   0  0  0  0  0  0  0  0  0  0  0  0
    9.8406    3.2636   -0.9741 C   0  0  0  0  0  0  0  0  0  0  0  0
   11.0951    2.6361   -0.4838 C   0  0  0  0  0  0  0  0  0  0  0  0
   12.0279    3.7002   -0.0514 N   0  0  0  0  0  0  0  0  0  0  0  0
   12.7585    3.5182    0.9886 C   0  0  0  0  0  0  0  0  0  0  0  0
   13.6498    4.5267    1.4104 N   0  0  0  0  0  0  0  0  0  0  0  0
   12.6622    2.3019    1.7041 N   0  0  0  0  0  0  0  0  0  0  0  0
   -5.1230   -0.1902    0.9625 C   0  0  0  0  0  0  0  0  0  0  0  0
   -4.2652   -0.9437    1.4520 O   0  0  0  0  0  0  0  0  0  0  0  0
   -6.2626    0.1291    1.6747 N   0  0  0  0  0  0  0  0  0  0  0  0
   -6.5398   -0.3829    3.0224 C   0  0  1  0  0  0  0  0  0  0  0  0
   -6.7708    0.7107    3.9874 C   0  0  0  0  0  0  0  0  0  0  0  0
   -7.8566    1.6286    3.7452 C   0  0  0  0  0  0  0  0  0  0  0  0
   -7.7673    2.7955    2.9897 C   0  0  0  0  0  0  0  0  0  0  0  0
   -8.9263    3.3923    2.8519 N   0  0  0  0  0  0  0  0  0  0  0  0
   -9.8396    2.6431    3.5153 C   0  0  0  0  0  0  0  0  0  0  0  0
  -11.1892    2.8605    3.6573 C   0  0  0  0  0  0  0  0  0  0  0  0
  -11.9376    1.9779    4.3767 C   0  0  0  0  0  0  0  0  0  0  0  0
  -11.3132    0.8804    4.9476 C   0  0  0  0  0  0  0  0  0  0  0  0
   -9.9636    0.6741    4.7979 C   0  0  0  0  0  0  0  0  0  0  0  0
   -9.1811    1.5407    4.0788 C   0  0  0  0  0  0  0  0  0  0  0  0
   -7.4659   -1.5124    2.9911 C   0  0  0  0  0  0  0  0  0  0  0  0
   -7.8218   -2.2995    4.1203 N   0  0  0  0  0  0  0  0  0  0  0  0
   -8.0033   -1.8439    1.8903 O   0  0  0  0  0  0  0  0  0  0  0  0
   -4.3379    0.4849   -3.5733 H   0  0  0  0  0  0  0  0  0  0  0  0
   -5.7204   -0.0125   -4.5825 H   0  0  0  0  0  0  0  0  0  0  0  0
   -5.1085   -1.1956   -3.3526 H   0  0  0  0  0  0  0  0  0  0  0  0
   -6.2546    1.5915   -2.7195 H   0  0  0  0  0  0  0  0  0  0  0  0
   -7.7294   -1.0852   -3.0112 H   0  0  0  0  0  0  0  0  0  0  0  0
   -8.4403    0.4237   -2.3537 H   0  0  0  0  0  0  0  0  0  0  0  0
   -7.8518    0.3908   -4.0449 H   0  0  0  0  0  0  0  0  0  0  0  0
   -6.4174   -1.0002   -1.1189 H   0  0  0  0  0  0  0  0  0  0  0  0
   -6.9991    0.5980   -0.6552 H   0  0  0  0  0  0  0  0  0  0  0  0
   -4.7011    1.4411   -0.3117 H   0  0  0  0  0  0  0  0  0  0  0  0
   -3.8509   -1.2076   -1.3596 H   0  0  0  0  0  0  0  0  0  0  0  0
   -0.8675   -0.1059   -2.3892 H   0  0  0  0  0  0  0  0  0  0  0  0
   -2.4390   -2.1409   -2.1591 H   0  0  0  0  0  0  0  0  0  0  0  0
   -1.8404   -2.2723   -0.4839 H   0  0  0  0  0  0  0  0  0  0  0  0
    0.2717   -3.8575   -0.2292 H   0  0  0  0  0  0  0  0  0  0  0  0
    1.8889   -5.0170   -1.9144 H   0  0  0  0  0  0  0  0  0  0  0  0
    2.2872   -4.8424   -4.7193 H   0  0  0  0  0  0  0  0  0  0  0  0
    1.4361   -3.6815   -6.7470 H   0  0  0  0  0  0  0  0  0  0  0  0
   -0.3780   -2.0375   -6.6136 H   0  0  0  0  0  0  0  0  0  0  0  0
   -1.3560   -1.5608   -4.3863 H   0  0  0  0  0  0  0  0  0  0  0  0
   -0.4642   -0.2485    0.5962 H   0  0  0  0  0  0  0  0  0  0  0  0
    1.8723   -0.8297    1.2651 H   0  0  0  0  0  0  0  0  0  0  0  0
    1.7512    0.9253    1.1284 H   0  0  0  0  0  0  0  0  0  0  0  0
    3.9999    0.9457    0.4119 H   0  0  0  0  0  0  0  0  0  0  0  0
    5.6735   -1.6320   -1.7010 H   0  0  0  0  0  0  0  0  0  0  0  0
    6.8546   -3.0098   -0.2850 H   0  0  0  0  0  0  0  0  0  0  0  0
    5.1812   -3.2906    0.3028 H   0  0  0  0  0  0  0  0  0  0  0  0
    7.3438   -2.3986    1.8883 H   0  0  0  0  0  0  0  0  0  0  0  0
    5.5949   -2.0423    2.2263 H   0  0  0  0  0  0  0  0  0  0  0  0
    7.5371   -0.0771    1.6244 H   0  0  0  0  0  0  0  0  0  0  0  0
    5.7483    0.1262    1.6539 H   0  0  0  0  0  0  0  0  0  0  0  0
    7.8764    1.8514    0.4092 H   0  0  0  0  0  0  0  0  0  0  0  0
    9.9270    0.3598   -1.0307 H   0  0  0  0  0  0  0  0  0  0  0  0
    8.8212   -0.5583   -0.2136 H   0  0  0  0  0  0  0  0  0  0  0  0
    7.9573    3.0374   -1.8872 H   0  0  0  0  0  0  0  0  0  0  0  0
    9.1431    1.8400   -2.4296 H   0  0  0  0  0  0  0  0  0  0  0  0
    9.3862    3.9602   -0.2224 H   0  0  0  0  0  0  0  0  0  0  0  0
   10.1650    3.9473   -1.8292 H   0  0  0  0  0  0  0  0  0  0  0  0
   10.9793    1.9640    0.4004 H   0  0  0  0  0  0  0  0  0  0  0  0
   11.5619    2.0543   -1.2972 H   0  0  0  0  0  0  0  0  0  0  0  0
   14.6494    4.4770    1.1543 H   0  0  0  0  0  0  0  0  0  0  0  0
   13.3080    5.3175    1.9818 H   0  0  0  0  0  0  0  0  0  0  0  0
   11.8839    2.1823    2.3791 H   0  0  0  0  0  0  0  0  0  0  0  0
   13.3415    1.5548    1.5625 H   0  0  0  0  0  0  0  0  0  0  0  0
   -7.0029    0.7627    1.3058 H   0  0  0  0  0  0  0  0  0  0  0  0
   -5.5391   -0.8557    3.3157 H   0  0  0  0  0  0  0  0  0  0  0  0
   -6.9356    0.2194    4.9980 H   0  0  0  0  0  0  0  0  0  0  0  0
   -5.7786    1.2280    4.1356 H   0  0  0  0  0  0  0  0  0  0  0  0
   -6.8253    3.1432    2.5778 H   0  0  0  0  0  0  0  0  0  0  0  0
   -9.1250    4.2903    2.3207 H   0  0  0  0  0  0  0  0  0  0  0  0
  -11.6653    3.7097    3.1955 H   0  0  0  0  0  0  0  0  0  0  0  0
  -13.0146    2.1208    4.4983 H   0  0  0  0  0  0  0  0  0  0  0  0
  -11.9584    0.2030    5.5114 H   0  0  0  0  0  0  0  0  0  0  0  0
   -9.4814   -0.1666    5.2547 H   0  0  0  0  0  0  0  0  0  0  0  0
   -8.3045   -3.2008    4.0923 H   0  0  0  0  0  0  0  0  0  0  0  0
   -7.5596   -1.9091    5.0694 H   0  0  0  0  0  0  0  0  0  0  0  0
  1  2  1  0
  2  3  1  0
  2  4  1  0
  4  5  1  0
  5  6  1  0
  6  7  1  0
  7  8  2  0
  7  9  1  0
  9 10  1  0
 10 11  1  0
 11 12  2  0
 12 13  1  0
 13 14  1  0
 14 15  2  0
 15 16  1  0
 16 17  2  0
 17 18  1  0
 18 19  2  0
  9 20  1  0
 20 21  1  0
 21 22  2  0
 21 23  1  0
 23 24  1  0
 24 25  1  0
 25 26  2  0
 25 27  1  0
 27 28  1  0
 28 29  1  0
 29 30  1  0
 30 31  1  0
 31 32  1  0
 32 33  2  0
 32 34  1  0
 34 35  1  0
 34 36  1  0
 36 37  1  0
 37 38  1  0
 38 39  1  0
 39 40  2  3
 40 41  1  0
 40 42  1  0
  5 43  1  0
 43 44  2  0
 43 45  1  0
 45 46  1  0
 46 47  1  0
 47 48  1  0
 48 49  2  0
 49 50  1  0
 50 51  1  0
 51 52  2  0
 52 53  1  0
 53 54  2  0
 54 55  1  0
 55 56  2  0
 46 57  1  0
 57 58  1  0
 57 59  2  0
 19 11  1  0
 31 27  1  0
 56 48  1  0
 19 14  1  0
 56 51  1  0
  1 60  1  0
  1 61  1  0
  1 62  1  0
  2 63  1  0
  3 64  1  0
  3 65  1  0
  3 66  1  0
  4 67  1  0
  4 68  1  0
  5 69  1  1
  6 70  1  0
  9 71  1  6
 10 72  1  0
 10 73  1  0
 12 74  1  0
 13 75  1  0
 15 76  1  0
 16 77  1  0
 17 78  1  0
 18 79  1  0
 20 80  1  0
 23 81  1  0
 23 82  1  0
 24 83  1  0
 27 84  1  6
 28 85  1  0
 28 86  1  0
 29 87  1  0
 29 88  1  0
 30 89  1  0
 30 90  1  0
 34 91  1  1
 35 92  1  0
 35 93  1  0
 36 94  1  0
 36 95  1  0
 37 96  1  0
 37 97  1  0
 38 98  1  0
 38 99  1  0
 41100  1  0
 41101  1  0
 42102  1  0
 42103  1  0
 45104  1  0
 46105  1  1
 47106  1  0
 47107  1  0
 49108  1  0
 50109  1  0
 52110  1  0
 53111  1  0
 54112  1  0
 55113  1  0
 58114  1  0
 58115  1  0
M  END
$$$$
[H]O[C@@]1([H])[C@]([H])(n2c([H])nc3c(N([H])[H])nc([H])nc32)O[C@]([H])(C([H])([H])OP(=O)(O[H])OP(=O)(O[H])O[H])[C@]1([H])O[H]
     RDKit          3D

 42 44  0  0  0  0  0  0  0  0999 V2000
   -5.5921    2.8350   -0.4478 N   0  0  0  0  0  0  0  0  0  0  0  0
   -5.1824    1.5137   -0.1916 C   0  0  0  0  0  0  0  0  0  0  0  0
   -5.9252    0.4333   -0.3938 N   0  0  0  0  0  0  0  0  0  0  0  0
   -5.4940   -0.8130   -0.1351 C   0  0  0  0  0  0  0  0  0  0  0  0
   -4.2659   -1.0224    0.3500 N   0  0  0  0  0  0  0  0  0  0  0  0
   -3.4650    0.0392    0.5759 C   0  0  0  0  0  0  0  0  0  0  0  0
   -2.1881    0.1241    1.0575 N   0  0  0  0  0  0  0  0  0  0  0  0
   -1.8812    1.4225    1.0769 C   0  0  0  0  0  0  0  0  0  0  0  0
   -2.8975    2.1396    0.6344 N   0  0  0  0  0  0  0  0  0  0  0  0
   -3.9011    1.3047    0.3138 C   0  0  0  0  0  0  0  0  0  0  0  0
   -1.3382   -0.9411    1.4632 C   0  0  2  0  0  0  0  0  0  0  0  0
   -0.0829   -0.4424    1.7340 O   0  0  0  0  0  0  0  0  0  0  0  0
    0.8018   -0.8829    0.7935 C   0  0  2  0  0  0  0  0  0  0  0  0
    1.7182    0.2312    0.3505 C   0  0  0  0  0  0  0  0  0  0  0  0
    2.6289   -0.1779   -0.6024 O   0  0  0  0  0  0  0  0  0  0  0  0
    3.5910    1.1502   -1.0136 P   0  0  0  0  0  0  0  0  0  0  0  0
    2.9274    2.0227   -2.2929 O   0  0  0  0  0  0  0  0  0  0  0  0
    3.6703    2.0465    0.2068 O   0  0  0  0  0  0  0  0  0  0  0  0
    5.1570    0.6887   -1.4219 O   0  0  0  0  0  0  0  0  0  0  0  0
    5.9067   -0.1884   -0.2114 P   0  0  0  0  0  0  0  0  0  0  0  0
    6.4276   -1.6676   -0.8904 O   0  0  0  0  0  0  0  0  0  0  0  0
    7.2736    0.6419    0.3818 O   0  0  0  0  0  0  0  0  0  0  0  0
    4.9840   -0.4753    0.9601 O   0  0  0  0  0  0  0  0  0  0  0  0
    0.0350   -1.5057   -0.3319 C   0  0  2  0  0  0  0  0  0  0  0  0
   -0.4684   -0.5154   -1.1888 O   0  0  0  0  0  0  0  0  0  0  0  0
   -1.1858   -2.0306    0.4389 C   0  0  1  0  0  0  0  0  0  0  0  0
   -0.8360   -3.2116    1.0852 O   0  0  0  0  0  0  0  0  0  0  0  0
   -5.7524    3.4918    0.3323 H   0  0  0  0  0  0  0  0  0  0  0  0
   -5.7338    3.1522   -1.4192 H   0  0  0  0  0  0  0  0  0  0  0  0
   -6.1653   -1.6725   -0.3267 H   0  0  0  0  0  0  0  0  0  0  0  0
   -0.9379    1.8950    1.4018 H   0  0  0  0  0  0  0  0  0  0  0  0
   -1.7378   -1.3356    2.4335 H   0  0  0  0  0  0  0  0  0  0  0  0
    1.4035   -1.7132    1.2671 H   0  0  0  0  0  0  0  0  0  0  0  0
    1.0792    1.0539   -0.0311 H   0  0  0  0  0  0  0  0  0  0  0  0
    2.2877    0.5535    1.2451 H   0  0  0  0  0  0  0  0  0  0  0  0
    2.7877    1.3861   -3.0485 H   0  0  0  0  0  0  0  0  0  0  0  0
    6.3183   -1.6764   -1.8705 H   0  0  0  0  0  0  0  0  0  0  0  0
    7.8041   -0.0377    0.8743 H   0  0  0  0  0  0  0  0  0  0  0  0
    0.5549   -2.2993   -0.8649 H   0  0  0  0  0  0  0  0  0  0  0  0
    0.1173   -0.3196   -1.9405 H   0  0  0  0  0  0  0  0  0  0  0  0
   -2.0053   -2.1314   -0.2590 H   0  0  0  0  0  0  0  0  0  0  0  0
   -0.4379   -3.0656    1.9634 H   0  0  0  0  0  0  0  0  0  0  0  0
  1  2  1  0
  2  3  2  0
  3  4  1  0
  4  5  2  0
  5  6  1  0
  6  7  1  0
  7  8  1  0
  8  9  2  0
  9 10  1  0
  7 11  1  0
 11 12  1  0
 12 13  1  0
 13 14  1  0
 14 15  1  0
 15 16  1  0
 16 17  1  0
 16 18  2  0
 16 19  1  0
 19 20  1  0
 20 21  1  0
 20 22  1  0
 20 23  2  0
 13 24  1  0
 24 25  1  0
 24 26  1  0
 26 27  1  0
 10  2  1  0
 26 11  1  0
 10  6  2  0
  1 28  1  0
  1 29  1  0
  4 30  1  0
  8 31  1  0
 11 32  1  1
 13 33  1  1
 14 34  1  0
 14 35  1  0
 17 36  1  0
 21 37  1  0
 22 38  1  0
 24 39  1  6
 25 40  1  0
 26 41  1  6
 27 42  1  0
M  END
$$$$
[H]c1nc(N([H])c2c([H])c([H])c(N3C([H])([H])C([H])([H])C([H])(N4C([H])([H])C([H])([H])N(C([H])([H])[H])C([H])([H])C4([H])[H])C([H])([H])C3([H])[H])c([H])c2OC([H])([H])[H])nc(N([H])c2c([H])c([H])c([H])c([H])c2S(=O)(=O)C([H])(C([H])([H])[H])C([H])([H])[H])c1Cl
     RDKit          3D

 82 86  0  0  0  0  0  0  0  0999 V2000
   -0.1870    3.7228   -1.2569 C   0  0  0  0  0  0  0  0  0  0  0  0
    0.4390    2.5297   -0.8437 O   0  0  0  0  0  0  0  0  0  0  0  0
   -0.3483    1.4775   -0.4024 C   0  0  0  0  0  0  0  0  0  0  0  0
   -1.7220    1.6350   -0.3827 C   0  0  0  0  0  0  0  0  0  0  0  0
   -2.5624    0.6308    0.0436 C   0  0  0  0  0  0  0  0  0  0  0  0
   -1.9599   -0.5357    0.4478 C   0  0  0  0  0  0  0  0  0  0  0  0
   -0.5748   -0.7280    0.4408 C   0  0  0  0  0  0  0  0  0  0  0  0
    0.2576    0.2764    0.0150 C   0  0  0  0  0  0  0  0  0  0  0  0
    1.6540    0.2011   -0.0367 N   0  0  0  0  0  0  0  0  0  0  0  0
    2.4984   -0.8842    0.3177 C   0  0  0  0  0  0  0  0  0  0  0  0
    2.1033   -2.0726    0.7812 N   0  0  0  0  0  0  0  0  0  0  0  0
    2.9559   -3.0558    1.0957 C   0  0  0  0  0  0  0  0  0  0  0  0
    4.3092   -2.8632    0.9451 C   0  0  0  0  0  0  0  0  0  0  0  0
    5.4455   -4.1449    1.3534 Cl  0  0  0  0  0  0  0  0  0  0  0  0
    4.7527   -1.6166    0.4572 C   0  0  0  0  0  0  0  0  0  0  0  0
    6.1380   -1.4466    0.3110 N   0  0  0  0  0  0  0  0  0  0  0  0
    6.9009   -0.3576   -0.1368 C   0  0  0  0  0  0  0  0  0  0  0  0
    6.2766    0.8084   -0.5266 C   0  0  0  0  0  0  0  0  0  0  0  0
    7.0240    1.9039   -0.9778 C   0  0  0  0  0  0  0  0  0  0  0  0
    8.3820    1.8034   -1.0274 C   0  0  0  0  0  0  0  0  0  0  0  0
    9.0024    0.6381   -0.6374 C   0  0  0  0  0  0  0  0  0  0  0  0
    8.2961   -0.4485   -0.1920 C   0  0  0  0  0  0  0  0  0  0  0  0
    9.0842   -1.8926    0.2913 S   0  0  0  0  0  0  0  0  0  0  0  0
    8.6633   -3.0312   -0.6035 O   0  0  0  0  0  0  0  0  0  0  0  0
    8.8235   -2.3045    1.7132 O   0  0  0  0  0  0  0  0  0  0  0  0
   10.8572   -1.7881    0.1370 C   0  0  0  0  0  0  0  0  0  0  0  0
   11.2609   -1.6791   -1.2975 C   0  0  0  0  0  0  0  0  0  0  0  0
   11.4760   -0.7869    1.0544 C   0  0  0  0  0  0  0  0  0  0  0  0
    3.8248   -0.7008    0.1721 N   0  0  0  0  0  0  0  0  0  0  0  0
   -3.9818    0.8060    0.0512 N   0  0  0  0  0  0  0  0  0  0  0  0
   -4.5241    1.9609   -0.5784 C   0  0  0  0  0  0  0  0  0  0  0  0
   -6.0011    1.9283   -0.8544 C   0  0  0  0  0  0  0  0  0  0  0  0
   -6.8245    1.3726    0.2584 C   0  0  0  0  0  0  0  0  0  0  0  0
   -6.0036    0.6088    1.2781 C   0  0  0  0  0  0  0  0  0  0  0  0
   -4.8657   -0.1463    0.6796 C   0  0  0  0  0  0  0  0  0  0  0  0
   -7.9560    0.6086   -0.0875 N   0  0  0  0  0  0  0  0  0  0  0  0
   -7.7905   -0.5856   -0.8057 C   0  0  0  0  0  0  0  0  0  0  0  0
   -9.1362   -1.0235   -1.3907 C   0  0  0  0  0  0  0  0  0  0  0  0
  -10.1390   -0.8718   -0.3544 N   0  0  0  0  0  0  0  0  0  0  0  0
  -10.0361   -1.8235    0.7053 C   0  0  0  0  0  0  0  0  0  0  0  0
  -10.3349    0.4834    0.0484 C   0  0  0  0  0  0  0  0  0  0  0  0
   -9.1475    1.3193   -0.4248 C   0  0  0  0  0  0  0  0  0  0  0  0
    0.5375    4.4499   -1.6799 H   0  0  0  0  0  0  0  0  0  0  0  0
   -0.9481    3.5330   -2.0530 H   0  0  0  0  0  0  0  0  0  0  0  0
   -0.6880    4.2523   -0.4156 H   0  0  0  0  0  0  0  0  0  0  0  0
   -2.1476    2.5764   -0.7105 H   0  0  0  0  0  0  0  0  0  0  0  0
   -2.6020   -1.3517    0.7883 H   0  0  0  0  0  0  0  0  0  0  0  0
   -0.2121   -1.6859    0.7807 H   0  0  0  0  0  0  0  0  0  0  0  0
    2.1500    1.0935   -0.3956 H   0  0  0  0  0  0  0  0  0  0  0  0
    2.6174   -4.0222    1.4737 H   0  0  0  0  0  0  0  0  0  0  0  0
    6.7215   -2.3022    0.5911 H   0  0  0  0  0  0  0  0  0  0  0  0
    5.2202    0.9989   -0.5296 H   0  0  0  0  0  0  0  0  0  0  0  0
    6.5603    2.8305   -1.2896 H   0  0  0  0  0  0  0  0  0  0  0  0
    9.0220    2.6252   -1.3712 H   0  0  0  0  0  0  0  0  0  0  0  0
   10.0936    0.6299   -0.7052 H   0  0  0  0  0  0  0  0  0  0  0  0
   11.2252   -2.8031    0.4806 H   0  0  0  0  0  0  0  0  0  0  0  0
   11.9033   -0.7785   -1.4926 H   0  0  0  0  0  0  0  0  0  0  0  0
   10.3307   -1.5514   -1.9199 H   0  0  0  0  0  0  0  0  0  0  0  0
   11.7765   -2.5763   -1.6995 H   0  0  0  0  0  0  0  0  0  0  0  0
   12.0225   -1.2557    1.8769 H   0  0  0  0  0  0  0  0  0  0  0  0
   12.1781   -0.1622    0.4319 H   0  0  0  0  0  0  0  0  0  0  0  0
   10.7434   -0.0899    1.5079 H   0  0  0  0  0  0  0  0  0  0  0  0
   -4.2803    2.8410    0.0525 H   0  0  0  0  0  0  0  0  0  0  0  0
   -3.9354    2.1199   -1.5269 H   0  0  0  0  0  0  0  0  0  0  0  0
   -6.3084    2.9635   -1.1164 H   0  0  0  0  0  0  0  0  0  0  0  0
   -6.1470    1.3325   -1.7818 H   0  0  0  0  0  0  0  0  0  0  0  0
   -7.2139    2.2642    0.8421 H   0  0  0  0  0  0  0  0  0  0  0  0
   -6.6586   -0.1075    1.8153 H   0  0  0  0  0  0  0  0  0  0  0  0
   -5.5929    1.2907    2.0626 H   0  0  0  0  0  0  0  0  0  0  0  0
   -5.1731   -0.8869   -0.0780 H   0  0  0  0  0  0  0  0  0  0  0  0
   -4.3121   -0.6097    1.5260 H   0  0  0  0  0  0  0  0  0  0  0  0
   -7.5080   -1.4012   -0.0997 H   0  0  0  0  0  0  0  0  0  0  0  0
   -7.0082   -0.5774   -1.5870 H   0  0  0  0  0  0  0  0  0  0  0  0
   -9.4445   -0.3742   -2.2343 H   0  0  0  0  0  0  0  0  0  0  0  0
   -9.0261   -2.0597   -1.7202 H   0  0  0  0  0  0  0  0  0  0  0  0
   -9.1822   -2.5377    0.5321 H   0  0  0  0  0  0  0  0  0  0  0  0
   -9.9814   -1.3564    1.7041 H   0  0  0  0  0  0  0  0  0  0  0  0
  -10.9456   -2.4645    0.6802 H   0  0  0  0  0  0  0  0  0  0  0  0
  -11.2261    0.8855   -0.4545 H   0  0  0  0  0  0  0  0  0  0  0  0
  -10.4517    0.5517    1.1515 H   0  0  0  0  0  0  0  0  0  0  0  0
   -9.2778    1.5186   -1.4917 H   0  0  0  0  0  0  0  0  0  0  0  0
   -9.1611    2.2698    0.1783 H   0  0  0  0  0  0  0  0  0  0  0  0
  1  2  1  0
  2  3  1  0
  3  4  2  0
  4  5  1  0
  5  6  2  0
  6  7  1  0
  7  8  2  0
  8  9  1  0
  9 10  1  0
 10 11  2  0
 11 12  1  0
 12 13  2  0
 13 14  1  0
 13 15  1  0
 15 16  1  0
 16 17  1  0
 17 18  2  0
 18 19  1  0
 19 20  2  0
 20 21  1  0
 21 22  2  0
 22 23  1  0
 23 24  2  0
 23 25  2  0
 23 26  1  0
 26 27  1  0
 26 28  1  0
 15 29  2  0
  5 30  1  0
 30 31  1  0
 31 32  1  0
 32 33  1  0
 33 34  1  0
 34 35  1  0
 33 36  1  0
 36 37  1  0
 37 38  1  0
 38 39  1  0
 39 40  1  0
 39 41  1  0
 41 42  1  0
  8  3  1  0
 29 10  1  0
 35 30  1  0
 42 36  1  0
 22 17  1  0
  1 43  1  0
  1 44  1  0
  1 45  1  0
  4 46  1  0
  6 47  1  0
  7 48  1  0
  9 49  1  0
 12 50  1  0
 16 51  1  0
 18 52  1  0
 19 53  1  0
 20 54  1  0
 21 55  1  0
 26 56  1  0
 27 57  1  0
 27 58  1  0
 27 59  1  0
 28 60  1  0
 28 61  1  0
 28 62  1  0
 31 63  1  0
 31 64  1  0
 32 65  1  0
 32 66  1  0
 33 67  1  0
 34 68  1  0
 34 69  1  0
 35 70  1  0
 35 71  1  0
 37 72  1  0
 37 73  1  0
 38 74  1  0
 38 75  1  0
 40 76  1  0
 40 77  1  0
 40 78  1  0
 41 79  1  0
 41 80  1  0
 42 81  1  0
 42 82  1  0
M  END
$$$$
[H]C#C[C@]1(O[H])C([H])([H])C([H])([H])[C@]2([H])[C@]1(C([H])([H])[H])C([H])([H])C([H])([H])[C@]1([H])C3(C([H])([H])[H])C(=C([H])C(=O)C([H])([H])C3([H])[H])C([H])([H])C([H])([H])[C@]12[H]
     RDKit          3D

 51 54  0  0  0  0  0  0  0  0999 V2000
    1.7768   -1.1211    1.6164 C   0  0  0  0  0  0  0  0  0  0  0  0
    2.1181   -0.0356    0.6303 C   0  0  2  0  0  0  0  0  0  0  0  0
    1.5636    1.2681    1.0596 C   0  0  0  0  0  0  0  0  0  0  0  0
    0.0747    1.2149    1.1629 C   0  0  0  0  0  0  0  0  0  0  0  0
   -0.6206    0.5292    0.0359 C   0  0  1  0  0  0  0  0  0  0  0  0
    0.1001   -0.7198   -0.4545 C   0  0  1  0  0  0  0  0  0  0  0  0
   -0.6707   -1.1717   -1.7021 C   0  0  0  0  0  0  0  0  0  0  0  0
   -1.9387   -1.8111   -1.1733 C   0  0  0  0  0  0  0  0  0  0  0  0
   -2.7160   -0.7267   -0.4805 C   0  0  0  0  0  0  0  0  0  0  0  0
   -4.0304   -0.6992   -0.6358 C   0  0  0  0  0  0  0  0  0  0  0  0
   -4.8676    0.3167   -0.0015 C   0  0  0  0  0  0  0  0  0  0  0  0
   -6.0973    0.1538    0.1201 O   0  0  0  0  0  0  0  0  0  0  0  0
   -4.2298    1.5556    0.5007 C   0  0  0  0  0  0  0  0  0  0  0  0
   -2.7810    1.6332    0.1255 C   0  0  0  0  0  0  0  0  0  0  0  0
   -2.0592    0.2988    0.3607 C   0  0  0  0  0  0  0  0  0  0  0  0
   -2.2653   -0.1095    1.8057 C   0  0  0  0  0  0  0  0  0  0  0  0
    1.4778   -0.3038   -0.7422 C   0  0  2  0  0  0  0  0  0  0  0  0
    2.4117   -1.2650   -1.3294 C   0  0  0  0  0  0  0  0  0  0  0  0
    3.7454   -0.5356   -1.0843 C   0  0  0  0  0  0  0  0  0  0  0  0
    3.5701   -0.0778    0.3491 C   0  0  2  0  0  0  0  0  0  0  0  0
    4.2195   -1.0527    1.1401 O   0  0  0  0  0  0  0  0  0  0  0  0
    4.2621    1.1772    0.6092 C   0  0  0  0  0  0  0  0  0  0  0  0
    4.8281    2.2152    0.8350 C   0  0  0  0  0  0  0  0  0  0  0  0
    0.8685   -0.8917    2.2022 H   0  0  0  0  0  0  0  0  0  0  0  0
    2.6114   -1.1447    2.3726 H   0  0  0  0  0  0  0  0  0  0  0  0
    1.7627   -2.1236    1.1537 H   0  0  0  0  0  0  0  0  0  0  0  0
    1.9401    2.0731    0.3983 H   0  0  0  0  0  0  0  0  0  0  0  0
    1.9641    1.4996    2.0790 H   0  0  0  0  0  0  0  0  0  0  0  0
   -0.2843    2.2874    1.1551 H   0  0  0  0  0  0  0  0  0  0  0  0
   -0.2143    0.8364    2.1693 H   0  0  0  0  0  0  0  0  0  0  0  0
   -0.5960    1.2385   -0.8421 H   0  0  0  0  0  0  0  0  0  0  0  0
    0.0065   -1.5537    0.2676 H   0  0  0  0  0  0  0  0  0  0  0  0
   -0.8877   -0.3100   -2.3648 H   0  0  0  0  0  0  0  0  0  0  0  0
   -0.0885   -1.9508   -2.2504 H   0  0  0  0  0  0  0  0  0  0  0  0
   -1.6083   -2.5633   -0.4083 H   0  0  0  0  0  0  0  0  0  0  0  0
   -2.5592   -2.2606   -1.9579 H   0  0  0  0  0  0  0  0  0  0  0  0
   -4.4809   -1.4741   -1.2652 H   0  0  0  0  0  0  0  0  0  0  0  0
   -4.3521    1.6731    1.5869 H   0  0  0  0  0  0  0  0  0  0  0  0
   -4.7470    2.4044   -0.0352 H   0  0  0  0  0  0  0  0  0  0  0  0
   -2.2927    2.4633    0.6423 H   0  0  0  0  0  0  0  0  0  0  0  0
   -2.7424    1.7836   -0.9869 H   0  0  0  0  0  0  0  0  0  0  0  0
   -1.5280   -0.8562    2.1425 H   0  0  0  0  0  0  0  0  0  0  0  0
   -2.2397    0.8330    2.4090 H   0  0  0  0  0  0  0  0  0  0  0  0
   -3.2647   -0.5743    1.9489 H   0  0  0  0  0  0  0  0  0  0  0  0
    1.4754    0.6428   -1.3056 H   0  0  0  0  0  0  0  0  0  0  0  0
    2.3119   -1.3759   -2.4405 H   0  0  0  0  0  0  0  0  0  0  0  0
    2.4285   -2.2357   -0.8321 H   0  0  0  0  0  0  0  0  0  0  0  0
    4.6027   -1.1880   -1.2323 H   0  0  0  0  0  0  0  0  0  0  0  0
    3.7460    0.3714   -1.7343 H   0  0  0  0  0  0  0  0  0  0  0  0
    4.9525   -1.4685    0.6181 H   0  0  0  0  0  0  0  0  0  0  0  0
    5.3440    3.1315    1.0477 H   0  0  0  0  0  0  0  0  0  0  0  0
  2  1  1  1
  2  3  1  0
  3  4  1  0
  4  5  1  0
  5  6  1  0
  6  7  1  0
  7  8  1  0
  8  9  1  0
  9 10  2  0
 10 11  1  0
 11 12  2  0
 11 13  1  0
 13 14  1  0
 14 15  1  0
 15 16  1  0
  6 17  1  0
 17 18  1  0
 18 19  1  0
 19 20  1  0
 20 21  1  0
 20 22  1  6
 22 23  3  0
 17  2  1  0
 20  2  1  0
 15  5  1  0
 15  9  1  0
  1 24  1  0
  1 25  1  0
  1 26  1  0
  3 27  1  0
  3 28  1  0
  4 29  1  0
  4 30  1  0
  5 31  1  6
  6 32  1  1
  7 33  1  0
  7 34  1  0
  8 35  1  0
  8 36  1  0
 10 37  1  0
 13 38  1  0
 13 39  1  0
 14 40  1  0
 14 41  1  0
 16 42  1  0
 16 43  1  0
 16 44  1  0
 17 45  1  6
 18 46  1  0
 18 47  1  0
 19 48  1  0
 19 49  1  0
 21 50  1  0
 23 51  1  0
M  END
$$$$
[H]OC(=O)[C@@]([H])(N([H])C(=O)[C@@]([H])(S[H])C([H])(C([H])([H])[H])C([H])([H])[H])C([H])([H])c1c([H])c([H])c([H])c([H])c1[H]
     RDKit          3D

 38 38  0  0  0  0  0  0  0  0999 V2000
    5.3228   -0.1668   -0.7692 C   0  0  0  0  0  0  0  0  0  0  0  0
    4.0382    0.3607   -0.1277 C   0  0  0  0  0  0  0  0  0  0  0  0
    4.3102    0.5167    1.3469 C   0  0  0  0  0  0  0  0  0  0  0  0
    2.9653   -0.6755   -0.3872 C   0  0  2  0  0  0  0  0  0  0  0  0
    2.8329   -0.8169   -2.2121 S   0  0  0  0  0  0  0  0  0  0  0  0
    1.6459   -0.2367    0.0922 C   0  0  0  0  0  0  0  0  0  0  0  0
    1.5792    0.9076    0.6447 O   0  0  0  0  0  0  0  0  0  0  0  0
    0.4653   -0.9852   -0.0160 N   0  0  0  0  0  0  0  0  0  0  0  0
   -0.8259   -0.4778    0.4894 C   0  0  1  0  0  0  0  0  0  0  0  0
   -1.7784   -0.2777   -0.6404 C   0  0  0  0  0  0  0  0  0  0  0  0
   -3.1064    0.2247   -0.2862 C   0  0  0  0  0  0  0  0  0  0  0  0
   -4.1650   -0.6210   -0.0594 C   0  0  0  0  0  0  0  0  0  0  0  0
   -5.4306   -0.1406    0.2761 C   0  0  0  0  0  0  0  0  0  0  0  0
   -5.6239    1.2121    0.3826 C   0  0  0  0  0  0  0  0  0  0  0  0
   -4.5870    2.0834    0.1622 C   0  0  0  0  0  0  0  0  0  0  0  0
   -3.3334    1.5781   -0.1713 C   0  0  0  0  0  0  0  0  0  0  0  0
   -1.3007   -1.3095    1.6026 C   0  0  0  0  0  0  0  0  0  0  0  0
   -2.4340   -1.0840    2.3469 O   0  0  0  0  0  0  0  0  0  0  0  0
   -0.6181   -2.3395    1.9321 O   0  0  0  0  0  0  0  0  0  0  0  0
    5.8707    0.6550   -1.2841 H   0  0  0  0  0  0  0  0  0  0  0  0
    5.9735   -0.6726   -0.0261 H   0  0  0  0  0  0  0  0  0  0  0  0
    5.0985   -0.9263   -1.5537 H   0  0  0  0  0  0  0  0  0  0  0  0
    3.7261    1.3234   -0.5609 H   0  0  0  0  0  0  0  0  0  0  0  0
    5.3916    0.7798    1.4547 H   0  0  0  0  0  0  0  0  0  0  0  0
    3.7527    1.3757    1.7853 H   0  0  0  0  0  0  0  0  0  0  0  0
    4.1663   -0.4259    1.8820 H   0  0  0  0  0  0  0  0  0  0  0  0
    3.3135   -1.6247    0.0545 H   0  0  0  0  0  0  0  0  0  0  0  0
    2.7702    0.5068   -2.6957 H   0  0  0  0  0  0  0  0  0  0  0  0
    0.5183   -1.9231   -0.4688 H   0  0  0  0  0  0  0  0  0  0  0  0
   -0.6185    0.5432    0.9245 H   0  0  0  0  0  0  0  0  0  0  0  0
   -1.9500   -1.3013   -1.0984 H   0  0  0  0  0  0  0  0  0  0  0  0
   -1.3194    0.3499   -1.4622 H   0  0  0  0  0  0  0  0  0  0  0  0
   -4.0753   -1.7027   -0.1284 H   0  0  0  0  0  0  0  0  0  0  0  0
   -6.2725   -0.7974    0.4569 H   0  0  0  0  0  0  0  0  0  0  0  0
   -6.6252    1.5806    0.6480 H   0  0  0  0  0  0  0  0  0  0  0  0
   -4.7883    3.1411    0.2572 H   0  0  0  0  0  0  0  0  0  0  0  0
   -2.5530    2.3069   -0.3340 H   0  0  0  0  0  0  0  0  0  0  0  0
   -2.3355   -0.9406    3.3414 H   0  0  0  0  0  0  0  0  0  0  0  0
  1  2  1  0
  2  3  1  0
  2  4  1  0
  4  5  1  0
  4  6  1  0
  6  7  2  0
  6  8  1  0
  8  9  1  0
  9 10  1  0
 10 11  1  0
 11 12  2  0
 12 13  1  0
 13 14  2  0
 14 15  1  0
 15 16  2  0
  9 17  1  0
 17 18  1  0
 17 19  2  0
 16 11  1  0
  1 20  1  0
  1 21  1  0
  1 22  1  0
  2 23  1  0
  3 24  1  0
  3 25  1  0
  3 26  1  0
  4 27  1  1
  5 28  1  0
  8 29  1  0
  9 30  1  1
 10 31  1  0
 10 32  1  0
 12 33  1  0
 13 34  1  0
 14 35  1  0
 15 36  1  0
 16 37  1  0
 18 38  1  0
M  END
$$$$
[H]OC(=O)[C@@]([H])(N([H])C(=O)[C@@]([H])(N([H])C(=O)[C@@]([H])(N([H])C(=O)[C@@]1([H])N(C(=O)[C@@]([H])(N([H])[H])C([H])([H])c2c([H])c([H])c(O[H])c([H])c2[H])C([H])([H])C([H])([H])C1([H])[H])C([H])([H])c1c([H])c([H])c([H])c([H])c1[H])C([H])([H])C([H])(C([H])([H])[H])C([H])([H])[H])C([H])([H])c1c([H])c([H])c([H])c([H])c1[H]
     RDKit          3D

 97100  0  0  0  0  0  0  0  0999 V2000
   -6.1381   -3.0549    2.3023 C   0  0  0  0  0  0  0  0  0  0  0  0
   -5.4059   -2.2074    1.2250 C   0  0  0  0  0  0  0  0  0  0  0  0
   -5.6576   -3.0253   -0.0657 C   0  0  0  0  0  0  0  0  0  0  0  0
   -3.9684   -2.2092    1.5225 C   0  0  0  0  0  0  0  0  0  0  0  0
   -3.0085   -1.4981    0.6833 C   0  0  2  0  0  0  0  0  0  0  0  0
   -1.6055   -1.7478    1.1829 N   0  0  0  0  0  0  0  0  0  0  0  0
   -0.6176   -2.3192    0.3923 C   0  0  0  0  0  0  0  0  0  0  0  0
   -1.0423   -2.5803   -0.8320 O   0  0  0  0  0  0  0  0  0  0  0  0
    0.7561   -2.6862    0.5986 C   0  0  2  0  0  0  0  0  0  0  0  0
    1.3444   -2.6649    1.9444 C   0  0  0  0  0  0  0  0  0  0  0  0
    0.7990   -3.5852    2.9619 C   0  0  0  0  0  0  0  0  0  0  0  0
    1.2273   -4.9388    2.9535 C   0  0  0  0  0  0  0  0  0  0  0  0
    0.7948   -5.8287    3.8990 C   0  0  0  0  0  0  0  0  0  0  0  0
   -0.0862   -5.4300    4.9073 C   0  0  0  0  0  0  0  0  0  0  0  0
   -0.5143   -4.1264    4.9368 C   0  0  0  0  0  0  0  0  0  0  0  0
   -0.0545   -3.2526    3.9621 C   0  0  0  0  0  0  0  0  0  0  0  0
    1.6911   -2.2637   -0.4275 N   0  0  0  0  0  0  0  0  0  0  0  0
    2.0544   -2.9416   -1.5905 C   0  0  0  0  0  0  0  0  0  0  0  0
    1.5300   -4.0555   -1.8424 O   0  0  0  0  0  0  0  0  0  0  0  0
    3.0440   -2.4180   -2.5694 C   0  0  2  0  0  0  0  0  0  0  0  0
    4.1288   -3.3618   -2.9295 C   0  0  0  0  0  0  0  0  0  0  0  0
    5.1982   -3.2205   -1.8801 C   0  0  0  0  0  0  0  0  0  0  0  0
    4.7598   -1.9659   -1.1041 C   0  0  0  0  0  0  0  0  0  0  0  0
    3.8096   -1.3197   -1.9472 N   0  0  0  0  0  0  0  0  0  0  0  0
    3.5998    0.0348   -2.2000 C   0  0  0  0  0  0  0  0  0  0  0  0
    2.7198    0.4003   -3.0969 O   0  0  0  0  0  0  0  0  0  0  0  0
    4.2558    1.2035   -1.5697 C   0  0  1  0  0  0  0  0  0  0  0  0
    5.0529    0.9372   -0.4333 N   0  0  0  0  0  0  0  0  0  0  0  0
    5.0972    1.9843   -2.5891 C   0  0  0  0  0  0  0  0  0  0  0  0
    5.7144    3.1390   -1.9218 C   0  0  0  0  0  0  0  0  0  0  0  0
    6.9560    3.2012   -1.3725 C   0  0  0  0  0  0  0  0  0  0  0  0
    7.4732    4.3254   -0.7343 C   0  0  0  0  0  0  0  0  0  0  0  0
    6.6544    5.4330   -0.6700 C   0  0  0  0  0  0  0  0  0  0  0  0
    7.1157    6.5868   -0.0435 O   0  0  0  0  0  0  0  0  0  0  0  0
    5.3937    5.4096   -1.2142 C   0  0  0  0  0  0  0  0  0  0  0  0
    4.9237    4.2898   -1.8297 C   0  0  0  0  0  0  0  0  0  0  0  0
   -3.1372   -0.0725    0.4179 C   0  0  0  0  0  0  0  0  0  0  0  0
   -2.0891    0.4173   -0.1970 O   0  0  0  0  0  0  0  0  0  0  0  0
   -4.1338    0.8459    0.6875 N   0  0  0  0  0  0  0  0  0  0  0  0
   -3.9406    2.2668    0.2426 C   0  0  1  0  0  0  0  0  0  0  0  0
   -5.1342    2.5754   -0.5905 C   0  0  0  0  0  0  0  0  0  0  0  0
   -5.2133    3.9022   -1.1858 C   0  0  0  0  0  0  0  0  0  0  0  0
   -5.8410    4.9291   -0.5232 C   0  0  0  0  0  0  0  0  0  0  0  0
   -5.9158    6.1810   -1.1070 C   0  0  0  0  0  0  0  0  0  0  0  0
   -5.3756    6.4593   -2.3573 C   0  0  0  0  0  0  0  0  0  0  0  0
   -4.7448    5.4253   -3.0208 C   0  0  0  0  0  0  0  0  0  0  0  0
   -4.6815    4.1950   -2.4280 C   0  0  0  0  0  0  0  0  0  0  0  0
   -3.7644    3.1139    1.4351 C   0  0  0  0  0  0  0  0  0  0  0  0
   -3.5450    4.4795    1.4162 O   0  0  0  0  0  0  0  0  0  0  0  0
   -3.8136    2.5738    2.5799 O   0  0  0  0  0  0  0  0  0  0  0  0
   -7.1978   -3.1808    2.0202 H   0  0  0  0  0  0  0  0  0  0  0  0
   -5.6526   -4.0630    2.2551 H   0  0  0  0  0  0  0  0  0  0  0  0
   -5.9760   -2.6049    3.2815 H   0  0  0  0  0  0  0  0  0  0  0  0
   -5.9723   -1.3050    1.1630 H   0  0  0  0  0  0  0  0  0  0  0  0
   -6.6936   -3.4170   -0.0693 H   0  0  0  0  0  0  0  0  0  0  0  0
   -5.0054   -3.9386    0.0083 H   0  0  0  0  0  0  0  0  0  0  0  0
   -5.5005   -2.4343   -0.9653 H   0  0  0  0  0  0  0  0  0  0  0  0
   -3.8350   -1.7898    2.5859 H   0  0  0  0  0  0  0  0  0  0  0  0
   -3.6552   -3.2971    1.7064 H   0  0  0  0  0  0  0  0  0  0  0  0
   -2.9825   -1.9884   -0.3406 H   0  0  0  0  0  0  0  0  0  0  0  0
   -1.4689   -1.4197    2.1448 H   0  0  0  0  0  0  0  0  0  0  0  0
    0.7049   -3.8654    0.2949 H   0  0  0  0  0  0  0  0  0  0  0  0
    2.4479   -2.9606    1.8723 H   0  0  0  0  0  0  0  0  0  0  0  0
    1.4301   -1.6186    2.3515 H   0  0  0  0  0  0  0  0  0  0  0  0
    1.9077   -5.1949    2.1602 H   0  0  0  0  0  0  0  0  0  0  0  0
    1.1265   -6.8523    3.8836 H   0  0  0  0  0  0  0  0  0  0  0  0
   -0.4384   -6.1157    5.6619 H   0  0  0  0  0  0  0  0  0  0  0  0
   -1.2049   -3.8271    5.7294 H   0  0  0  0  0  0  0  0  0  0  0  0
   -0.4080   -2.2449    4.0385 H   0  0  0  0  0  0  0  0  0  0  0  0
    2.1338   -1.3157   -0.2364 H   0  0  0  0  0  0  0  0  0  0  0  0
    2.4939   -2.0931   -3.4624 H   0  0  0  0  0  0  0  0  0  0  0  0
    4.5827   -3.0652   -3.9073 H   0  0  0  0  0  0  0  0  0  0  0  0
    3.7989   -4.4102   -3.0640 H   0  0  0  0  0  0  0  0  0  0  0  0
    5.2320   -4.0884   -1.1862 H   0  0  0  0  0  0  0  0  0  0  0  0
    6.2082   -3.0530   -2.2995 H   0  0  0  0  0  0  0  0  0  0  0  0
    4.3248   -2.2898   -0.1267 H   0  0  0  0  0  0  0  0  0  0  0  0
    5.6837   -1.4290   -0.8880 H   0  0  0  0  0  0  0  0  0  0  0  0
    3.4112    1.8916   -1.2390 H   0  0  0  0  0  0  0  0  0  0  0  0
    4.6372    1.1100    0.4830 H   0  0  0  0  0  0  0  0  0  0  0  0
    6.0545    0.8533   -0.5263 H   0  0  0  0  0  0  0  0  0  0  0  0
    4.4140    2.2681   -3.4233 H   0  0  0  0  0  0  0  0  0  0  0  0
    5.9045    1.3465   -2.9931 H   0  0  0  0  0  0  0  0  0  0  0  0
    7.6148    2.3252   -1.4325 H   0  0  0  0  0  0  0  0  0  0  0  0
    8.4661    4.3196   -0.3134 H   0  0  0  0  0  0  0  0  0  0  0  0
    6.5871    7.4233    0.0431 H   0  0  0  0  0  0  0  0  0  0  0  0
    4.7741    6.2958   -1.1486 H   0  0  0  0  0  0  0  0  0  0  0  0
    3.9285    4.2962   -2.2487 H   0  0  0  0  0  0  0  0  0  0  0  0
   -4.9931    0.6149    1.1889 H   0  0  0  0  0  0  0  0  0  0  0  0
   -3.0252    2.2895   -0.3811 H   0  0  0  0  0  0  0  0  0  0  0  0
   -6.0435    2.3406    0.0434 H   0  0  0  0  0  0  0  0  0  0  0  0
   -5.1826    1.7745   -1.3872 H   0  0  0  0  0  0  0  0  0  0  0  0
   -6.2962    4.8271    0.4584 H   0  0  0  0  0  0  0  0  0  0  0  0
   -6.4081    7.0163   -0.6053 H   0  0  0  0  0  0  0  0  0  0  0  0
   -5.4596    7.4419   -2.7657 H   0  0  0  0  0  0  0  0  0  0  0  0
   -4.3145    5.6293   -4.0047 H   0  0  0  0  0  0  0  0  0  0  0  0
   -4.1835    3.3701   -2.9511 H   0  0  0  0  0  0  0  0  0  0  0  0
   -2.6354    4.8936    1.2006 H   0  0  0  0  0  0  0  0  0  0  0  0
  1  2  1  0
  2  3  1  0
  2  4  1  0
  4  5  1  0
  5  6  1  0
  6  7  1  0
  7  8  2  0
  7  9  1  0
  9 10  1  0
 10 11  1  0
 11 12  2  0
 12 13  1  0
 13 14  2  0
 14 15  1  0
 15 16  2  0
  9 17  1  0
 17 18  1  0
 18 19  2  0
 18 20  1  0
 20 21  1  0
 21 22  1  0
 22 23  1  0
 23 24  1  0
 24 25  1  0
 25 26  2  0
 25 27  1  0
 27 28  1  0
 27 29  1  0
 29 30  1  0
 30 31  2  0
 31 32  1  0
 32 33  2  0
 33 34  1  0
 33 35  1  0
 35 36  2  0
  5 37  1  0
 37 38  2  0
 37 39  1  0
 39 40  1  0
 40 41  1  0
 41 42  1  0
 42 43  2  0
 43 44  1  0
 44 45  2  0
 45 46  1  0
 46 47  2  0
 40 48  1  0
 48 49  1  0
 48 50  2  0
 16 11  1  0
 24 20  1  0
 36 30  1  0
 47 42  1  0
  1 51  1  0
  1 52  1  0
  1 53  1  0
  2 54  1  0
  3 55  1  0
  3 56  1  0
  3 57  1  0
  4 58  1  0
  4 59  1  0
  5 60  1  6
  6 61  1  0
  9 62  1  6
 10 63  1  0
 10 64  1  0
 12 65  1  0
 13 66  1  0
 14 67  1  0
 15 68  1  0
 16 69  1  0
 17 70  1  0
 20 71  1  6
 21 72  1  0
 21 73  1  0
 22 74  1  0
 22 75  1  0
 23 76  1  0
 23 77  1  0
 27 78  1  1
 28 79  1  0
 28 80  1  0
 29 81  1  0
 29 82  1  0
 31 83  1  0
 32 84  1  0
 34 85  1  0
 35 86  1  0
 36 87  1  0
 39 88  1  0
 40 89  1  6
 41 90  1  0
 41 91  1  0
 43 92  1  0
 44 93  1  0
 45 94  1  0
 46 95  1  0
 47 96  1  0
 49 97  1  0
M  END
$$$$
[H]c1c([H])c(C(=O)N2C([H])([H])C([H])([H])N(C3([H])C([H])([H])C([H])([H])C([H])([H])C([H])([H])C3([H])[H])C([H])([H])C2([H])[H])c([H])c([H])c1Cl
     RDKit          3D

 44 46  0  0  0  0  0  0  0  0999 V2000
    7.9705    2.3902    0.0522 Cl  0  0  0  0  0  0  0  0  0  0  0  0
    6.4494    1.5171   -0.0292 C   0  0  0  0  0  0  0  0  0  0  0  0
    6.4447    0.2218   -0.4835 C   0  0  0  0  0  0  0  0  0  0  0  0
    5.2805   -0.4885   -0.5611 C   0  0  0  0  0  0  0  0  0  0  0  0
    4.0416    0.0625   -0.1846 C   0  0  0  0  0  0  0  0  0  0  0  0
    4.1049    1.3567    0.2613 C   0  0  0  0  0  0  0  0  0  0  0  0
    5.2824    2.1043    0.3500 C   0  0  0  0  0  0  0  0  0  0  0  0
    2.8460   -0.7345   -0.2892 C   0  0  0  0  0  0  0  0  0  0  0  0
    3.1041   -1.9510   -0.7383 O   0  0  0  0  0  0  0  0  0  0  0  0
    1.5035   -0.5129   -0.0276 N   0  0  0  0  0  0  0  0  0  0  0  0
    0.9415    0.6904    0.4564 C   0  0  0  0  0  0  0  0  0  0  0  0
   -0.5661    0.7152    0.6040 C   0  0  0  0  0  0  0  0  0  0  0  0
   -1.2123   -0.5002    0.4849 N   0  0  0  0  0  0  0  0  0  0  0  0
   -0.4609   -1.6825    0.7525 C   0  0  0  0  0  0  0  0  0  0  0  0
    0.6241   -1.6929   -0.3062 C   0  0  0  0  0  0  0  0  0  0  0  0
   -2.5694   -0.6221    0.2300 C   0  0  0  0  0  0  0  0  0  0  0  0
   -2.9506   -0.0367   -1.0991 C   0  0  0  0  0  0  0  0  0  0  0  0
   -4.4429   -0.1205   -1.3552 C   0  0  0  0  0  0  0  0  0  0  0  0
   -5.2467    0.3963   -0.2011 C   0  0  0  0  0  0  0  0  0  0  0  0
   -4.8281   -0.3385    1.0744 C   0  0  0  0  0  0  0  0  0  0  0  0
   -3.3789    0.0415    1.3288 C   0  0  0  0  0  0  0  0  0  0  0  0
    7.4072   -0.2151   -0.7792 H   0  0  0  0  0  0  0  0  0  0  0  0
    5.3132   -1.5146   -0.9260 H   0  0  0  0  0  0  0  0  0  0  0  0
    3.2462    1.8870    0.5784 H   0  0  0  0  0  0  0  0  0  0  0  0
    5.2923    3.1237    0.7062 H   0  0  0  0  0  0  0  0  0  0  0  0
    1.4130    0.9298    1.4402 H   0  0  0  0  0  0  0  0  0  0  0  0
    1.2242    1.4975   -0.2542 H   0  0  0  0  0  0  0  0  0  0  0  0
   -0.7730    1.1358    1.6367 H   0  0  0  0  0  0  0  0  0  0  0  0
   -0.9772    1.4537   -0.1319 H   0  0  0  0  0  0  0  0  0  0  0  0
   -1.1159   -2.5494    0.6974 H   0  0  0  0  0  0  0  0  0  0  0  0
    0.0467   -1.5784    1.7296 H   0  0  0  0  0  0  0  0  0  0  0  0
    1.1862   -2.6190   -0.2361 H   0  0  0  0  0  0  0  0  0  0  0  0
    0.1312   -1.5279   -1.2784 H   0  0  0  0  0  0  0  0  0  0  0  0
   -2.8683   -1.6997    0.2367 H   0  0  0  0  0  0  0  0  0  0  0  0
   -2.4773   -0.6352   -1.9228 H   0  0  0  0  0  0  0  0  0  0  0  0
   -2.5962    1.0027   -1.2259 H   0  0  0  0  0  0  0  0  0  0  0  0
   -4.6438    0.5767   -2.2219 H   0  0  0  0  0  0  0  0  0  0  0  0
   -4.7606   -1.1138   -1.6890 H   0  0  0  0  0  0  0  0  0  0  0  0
   -6.3033    0.1975   -0.3774 H   0  0  0  0  0  0  0  0  0  0  0  0
   -4.9925    1.4717   -0.0685 H   0  0  0  0  0  0  0  0  0  0  0  0
   -4.8700   -1.4358    0.8658 H   0  0  0  0  0  0  0  0  0  0  0  0
   -5.4666   -0.0210    1.9010 H   0  0  0  0  0  0  0  0  0  0  0  0
   -3.3189    1.1384    1.3165 H   0  0  0  0  0  0  0  0  0  0  0  0
   -3.0337   -0.3204    2.3202 H   0  0  0  0  0  0  0  0  0  0  0  0
  1  2  1  0
  2  3  2  0
  3  4  1  0
  4  5  2  0
  5  6  1  0
  6  7  2  0
  5  8  1  0
  8  9  2  0
  8 10  1  0
 10 11  1  0
 11 12  1  0
 12 13  1  0
 13 14  1  0
 14 15  1  0
 13 16  1  0
 16 17  1  0
 17 18  1  0
 18 19  1  0
 19 20  1  0
 20 21  1  0
  7  2  1  0
 15 10  1  0
 21 16  1  0
  3 22  1  0
  4 23  1  0
  6 24  1  0
  7 25  1  0
 11 26  1  0
 11 27  1  0
 12 28  1  0
 12 29  1  0
 14 30  1  0
 14 31  1  0
 15 32  1  0
 15 33  1  0
 16 34  1  0
 17 35  1  0
 17 36  1  0
 18 37  1  0
 18 38  1  0
 19 39  1  0
 19 40  1  0
 20 41  1  0
 20 42  1  0
 21 43  1  0
 21 44  1  0
M  END
$$$$
[H]C1=C2C([H])([H])C([H])([H])[C@]3([H])[C@]([H])(C([H])([H])C([H])([H])[C@]4(C([H])([H])[H])C([H])([H])C([H])([H])C(=O)[C@]([H])(C([H])([H])C([H])([H])[H])C([H])([H])[C@@]34[H])[C@@]2(C([H])([H])[H])C([H])([H])C([H])([H])C1=O
     RDKit          3D

 59 62  0  0  0  0  0  0  0  0999 V2000
    3.7745    3.2550   -0.4320 C   0  0  0  0  0  0  0  0  0  0  0  0
    4.2553    1.9783    0.1503 C   0  0  0  0  0  0  0  0  0  0  0  0
    3.3837    0.7797   -0.2683 C   0  0  2  0  0  0  0  0  0  0  0  0
    1.9947    0.9655    0.1724 C   0  0  0  0  0  0  0  0  0  0  0  0
    1.1184   -0.1428    0.5014 C   0  0  1  0  0  0  0  0  0  0  0  0
   -0.3167    0.3147    0.1952 C   0  0  2  0  0  0  0  0  0  0  0  0
   -0.6019    1.6620    0.8191 C   0  0  0  0  0  0  0  0  0  0  0  0
   -1.7931    2.2416    0.0650 C   0  0  0  0  0  0  0  0  0  0  0  0
   -2.8927    1.2430    0.0444 C   0  0  0  0  0  0  0  0  0  0  0  0
   -4.1193    1.7295   -0.0036 C   0  0  0  0  0  0  0  0  0  0  0  0
   -5.2666    0.8392   -0.0270 C   0  0  0  0  0  0  0  0  0  0  0  0
   -6.3532    1.2382   -0.4780 O   0  0  0  0  0  0  0  0  0  0  0  0
   -5.1546   -0.5481    0.4843 C   0  0  0  0  0  0  0  0  0  0  0  0
   -3.7479   -0.8195    0.9917 C   0  0  0  0  0  0  0  0  0  0  0  0
   -2.6993   -0.2011    0.0679 C   0  0  1  0  0  0  0  0  0  0  0  0
   -2.9003   -0.7084   -1.3529 C   0  0  0  0  0  0  0  0  0  0  0  0
   -1.3568   -0.6254    0.6168 C   0  0  1  0  0  0  0  0  0  0  0  0
   -1.1412   -2.0499    0.1810 C   0  0  0  0  0  0  0  0  0  0  0  0
    0.2535   -2.4173    0.5121 C   0  0  0  0  0  0  0  0  0  0  0  0
    1.3129   -1.4730   -0.0838 C   0  0  1  0  0  0  0  0  0  0  0  0
    1.2611   -1.5516   -1.5759 C   0  0  0  0  0  0  0  0  0  0  0  0
    2.5796   -2.1851    0.4179 C   0  0  0  0  0  0  0  0  0  0  0  0
    3.8041   -1.7919   -0.3362 C   0  0  0  0  0  0  0  0  0  0  0  0
    4.0927   -0.4049    0.1881 C   0  0  0  0  0  0  0  0  0  0  0  0
    4.9659   -0.3882    1.0172 O   0  0  0  0  0  0  0  0  0  0  0  0
    2.7270    3.2695   -0.7528 H   0  0  0  0  0  0  0  0  0  0  0  0
    4.3975    3.6363   -1.2812 H   0  0  0  0  0  0  0  0  0  0  0  0
    3.8667    4.0498    0.3634 H   0  0  0  0  0  0  0  0  0  0  0  0
    4.3376    1.9788    1.2523 H   0  0  0  0  0  0  0  0  0  0  0  0
    5.2827    1.7710   -0.2354 H   0  0  0  0  0  0  0  0  0  0  0  0
    3.4548    0.7976   -1.3979 H   0  0  0  0  0  0  0  0  0  0  0  0
    2.0460    1.6571    1.0731 H   0  0  0  0  0  0  0  0  0  0  0  0
    1.5152    1.6346   -0.6105 H   0  0  0  0  0  0  0  0  0  0  0  0
    1.0979   -0.2939    1.6255 H   0  0  0  0  0  0  0  0  0  0  0  0
   -0.3515    0.4588   -0.9064 H   0  0  0  0  0  0  0  0  0  0  0  0
   -0.9324    1.5037    1.8723 H   0  0  0  0  0  0  0  0  0  0  0  0
    0.1924    2.3966    0.7345 H   0  0  0  0  0  0  0  0  0  0  0  0
   -1.4398    2.4534   -0.9651 H   0  0  0  0  0  0  0  0  0  0  0  0
   -2.1004    3.1920    0.5665 H   0  0  0  0  0  0  0  0  0  0  0  0
   -4.2965    2.8151   -0.0269 H   0  0  0  0  0  0  0  0  0  0  0  0
   -5.4301   -1.3116   -0.2557 H   0  0  0  0  0  0  0  0  0  0  0  0
   -5.8542   -0.6418    1.3400 H   0  0  0  0  0  0  0  0  0  0  0  0
   -3.6461   -0.3207    1.9699 H   0  0  0  0  0  0  0  0  0  0  0  0
   -3.6499   -1.9024    1.0933 H   0  0  0  0  0  0  0  0  0  0  0  0
   -1.9630   -0.6354   -1.9427 H   0  0  0  0  0  0  0  0  0  0  0  0
   -3.6300   -0.0770   -1.9188 H   0  0  0  0  0  0  0  0  0  0  0  0
   -3.3305   -1.7133   -1.3013 H   0  0  0  0  0  0  0  0  0  0  0  0
   -1.4552   -0.5878    1.7336 H   0  0  0  0  0  0  0  0  0  0  0  0
   -1.4227   -2.2655   -0.8459 H   0  0  0  0  0  0  0  0  0  0  0  0
   -1.7939   -2.6861    0.8322 H   0  0  0  0  0  0  0  0  0  0  0  0
    0.4522   -3.4456    0.1359 H   0  0  0  0  0  0  0  0  0  0  0  0
    0.4190   -2.4437    1.6076 H   0  0  0  0  0  0  0  0  0  0  0  0
    0.1930   -1.6586   -1.9286 H   0  0  0  0  0  0  0  0  0  0  0  0
    1.7856   -2.4467   -1.9666 H   0  0  0  0  0  0  0  0  0  0  0  0
    1.6225   -0.6198   -2.0074 H   0  0  0  0  0  0  0  0  0  0  0  0
    2.7209   -1.9576    1.4878 H   0  0  0  0  0  0  0  0  0  0  0  0
    2.4874   -3.2920    0.3313 H   0  0  0  0  0  0  0  0  0  0  0  0
    3.6215   -1.7735   -1.4199 H   0  0  0  0  0  0  0  0  0  0  0  0
    4.6233   -2.4813   -0.1230 H   0  0  0  0  0  0  0  0  0  0  0  0
  1  2  1  0
  2  3  1  0
  3  4  1  0
  4  5  1  0
  5  6  1  0
  6  7  1  0
  7  8  1  0
  8  9  1  0
  9 10  2  0
 10 11  1  0
 11 12  2  0
 11 13  1  0
 13 14  1  0
 14 15  1  0
 15 16  1  6
 15 17  1  0
 17 18  1  0
 18 19  1  0
 19 20  1  0
 20 21  1  6
 20 22  1  0
 22 23  1  0
 23 24  1  0
 24 25  2  0
 24  3  1  0
 20  5  1  0
 17  6  1  0
 15  9  1  0
  1 26  1  0
  1 27  1  0
  1 28  1  0
  2 29  1  0
  2 30  1  0
  3 31  1  6
  4 32  1  0
  4 33  1  0
  5 34  1  1
  6 35  1  6
  7 36  1  0
  7 37  1  0
  8 38  1  0
  8 39  1  0
 10 40  1  0
 13 41  1  0
 13 42  1  0
 14 43  1  0
 14 44  1  0
 16 45  1  0
 16 46  1  0
 16 47  1  0
 17 48  1  1
 18 49  1  0
 18 50  1  0
 19 51  1  0
 19 52  1  0
 21 53  1  0
 21 54  1  0
 21 55  1  0
 22 56  1  0
 22 57  1  0
 23 58  1  0
 23 59  1  0
M  END
$$$$
[H]c1nc(N2C([H])([H])c3c(c([H])nn3C3([H])C([H])([H])C3([H])[H])C([H])([H])C2([H])[H])c2c([C@@]3([H])C([H])([H])OC([H])([H])C3([H])[H])nc(C([H])([H])[H])n2n1
     RDKit          3D

 50 55  0  0  0  0  0  0  0  0999 V2000
   -5.0266    3.0231   -0.2075 C   0  0  0  0  0  0  0  0  0  0  0  0
   -3.8932    2.0384   -0.1865 C   0  0  0  0  0  0  0  0  0  0  0  0
   -3.7642    0.8290   -0.7369 N   0  0  0  0  0  0  0  0  0  0  0  0
   -2.5712    0.2522   -0.4294 C   0  0  0  0  0  0  0  0  0  0  0  0
   -2.1647   -1.1145   -0.6719 C   0  0  2  0  0  0  0  0  0  0  0  0
   -2.1646   -1.5706   -2.1372 C   0  0  0  0  0  0  0  0  0  0  0  0
   -2.3763   -3.0609   -1.9007 C   0  0  0  0  0  0  0  0  0  0  0  0
   -3.3558   -3.1511   -0.9107 O   0  0  0  0  0  0  0  0  0  0  0  0
   -3.5861   -1.9151   -0.4199 C   0  0  0  0  0  0  0  0  0  0  0  0
   -1.9458    1.1968    0.3676 C   0  0  0  0  0  0  0  0  0  0  0  0
   -0.6659    1.2141    0.9009 C   0  0  0  0  0  0  0  0  0  0  0  0
   -0.3134    2.3817    1.5594 N   0  0  0  0  0  0  0  0  0  0  0  0
   -1.1365    3.4216    1.6782 C   0  0  0  0  0  0  0  0  0  0  0  0
   -2.3674    3.3717    1.1464 N   0  0  0  0  0  0  0  0  0  0  0  0
   -2.7418    2.2559    0.5032 N   0  0  0  0  0  0  0  0  0  0  0  0
    0.2621    0.2251    0.8685 N   0  0  0  0  0  0  0  0  0  0  0  0
    0.3612   -0.6702    2.0596 C   0  0  0  0  0  0  0  0  0  0  0  0
    1.5666   -0.1422    2.8585 C   0  0  0  0  0  0  0  0  0  0  0  0
    2.7104   -0.3009    1.9142 C   0  0  0  0  0  0  0  0  0  0  0  0
    4.0347   -0.4908    2.2125 C   0  0  0  0  0  0  0  0  0  0  0  0
    4.6919   -0.5952    1.0618 N   0  0  0  0  0  0  0  0  0  0  0  0
    3.8257   -0.4876    0.0332 N   0  0  0  0  0  0  0  0  0  0  0  0
    4.2084   -0.6053   -1.3472 C   0  0  0  0  0  0  0  0  0  0  0  0
    5.1205    0.3618   -2.0089 C   0  0  0  0  0  0  0  0  0  0  0  0
    5.6723   -0.9438   -1.6029 C   0  0  0  0  0  0  0  0  0  0  0  0
    2.5858   -0.3025    0.5429 C   0  0  0  0  0  0  0  0  0  0  0  0
    1.2439   -0.0635   -0.1258 C   0  0  0  0  0  0  0  0  0  0  0  0
   -5.7878    2.7628   -0.9400 H   0  0  0  0  0  0  0  0  0  0  0  0
   -4.6426    4.0658   -0.2610 H   0  0  0  0  0  0  0  0  0  0  0  0
   -5.4868    2.9372    0.8378 H   0  0  0  0  0  0  0  0  0  0  0  0
   -1.5660   -1.6680   -0.0042 H   0  0  0  0  0  0  0  0  0  0  0  0
   -1.1088   -1.4844   -2.5432 H   0  0  0  0  0  0  0  0  0  0  0  0
   -2.9065   -1.0545   -2.6964 H   0  0  0  0  0  0  0  0  0  0  0  0
   -1.4395   -3.4316   -1.3735 H   0  0  0  0  0  0  0  0  0  0  0  0
   -2.5315   -3.6503   -2.7913 H   0  0  0  0  0  0  0  0  0  0  0  0
   -4.2052   -1.3560   -1.1876 H   0  0  0  0  0  0  0  0  0  0  0  0
   -3.8306   -1.7549    0.5995 H   0  0  0  0  0  0  0  0  0  0  0  0
   -0.8696    4.3501    2.2094 H   0  0  0  0  0  0  0  0  0  0  0  0
    0.5767   -1.6698    1.6793 H   0  0  0  0  0  0  0  0  0  0  0  0
   -0.5541   -0.5540    2.6169 H   0  0  0  0  0  0  0  0  0  0  0  0
    1.3593    0.9316    3.0865 H   0  0  0  0  0  0  0  0  0  0  0  0
    1.6193   -0.7232    3.7645 H   0  0  0  0  0  0  0  0  0  0  0  0
    4.4389   -0.5491    3.2183 H   0  0  0  0  0  0  0  0  0  0  0  0
    3.5323   -1.1650   -2.0545 H   0  0  0  0  0  0  0  0  0  0  0  0
    5.4039    1.2877   -1.4601 H   0  0  0  0  0  0  0  0  0  0  0  0
    5.0524    0.4730   -3.1344 H   0  0  0  0  0  0  0  0  0  0  0  0
    5.9243   -1.7247   -2.3202 H   0  0  0  0  0  0  0  0  0  0  0  0
    6.3317   -0.9102   -0.6863 H   0  0  0  0  0  0  0  0  0  0  0  0
    1.4340    0.7303   -0.8699 H   0  0  0  0  0  0  0  0  0  0  0  0
    1.0460   -1.0001   -0.7111 H   0  0  0  0  0  0  0  0  0  0  0  0
  1  2  1  0
  2  3  2  0
  3  4  1  0
  4  5  1  0
  5  6  1  0
  6  7  1  0
  7  8  1  0
  8  9  1  0
  4 10  2  0
 10 11  1  0
 11 12  2  0
 12 13  1  0
 13 14  2  0
 14 15  1  0
 11 16  1  0
 16 17  1  0
 17 18  1  0
 18 19  1  0
 19 20  1  0
 20 21  2  0
 21 22  1  0
 22 23  1  0
 23 24  1  0
 24 25  1  0
 22 26  1  0
 26 27  1  0
 15  2  1  0
 27 16  1  0
  9  5  1  0
 15 10  1  0
 26 19  2  0
 25 23  1  0
  1 28  1  0
  1 29  1  0
  1 30  1  0
  5 31  1  1
  6 32  1  0
  6 33  1  0
  7 34  1  0
  7 35  1  0
  9 36  1  0
  9 37  1  0
 13 38  1  0
 17 39  1  0
 17 40  1  0
 18 41  1  0
 18 42  1  0
 20 43  1  0
 23 44  1  0
 24 45  1  0
 24 46  1  0
 25 47  1  0
 25 48  1  0
 27 49  1  0
 27 50  1  0
M  END
$$$$
[H]O[C@]1([H])[C@]([H])(n2c([H])nc3c(N([H])[H])nc([H])nc32)O[C@@]([H])(C([H])([H])OP(=O)(O[H])OP(=O)(O[H])O[H])[C@]1([H])O[H]
     RDKit          3D

 42 44  0  0  0  0  0  0  0  0999 V2000
   -6.8167    0.3069   -1.1903 N   0  0  0  0  0  0  0  0  0  0  0  0
   -5.6200   -0.2837   -0.7141 C   0  0  0  0  0  0  0  0  0  0  0  0
   -5.4879   -1.5659   -0.3769 N   0  0  0  0  0  0  0  0  0  0  0  0
   -4.3222   -2.0681    0.0700 C   0  0  0  0  0  0  0  0  0  0  0  0
   -3.2223   -1.3046    0.2023 N   0  0  0  0  0  0  0  0  0  0  0  0
   -3.3287    0.0091   -0.1350 C   0  0  0  0  0  0  0  0  0  0  0  0
   -2.4138    0.9740   -0.1020 N   0  0  0  0  0  0  0  0  0  0  0  0
   -3.0000    2.1056   -0.5323 C   0  0  0  0  0  0  0  0  0  0  0  0
   -4.2844    1.8435   -0.8340 N   0  0  0  0  0  0  0  0  0  0  0  0
   -4.5116    0.5452   -0.5946 C   0  0  0  0  0  0  0  0  0  0  0  0
   -1.0323    0.8932    0.3073 C   0  0  2  0  0  0  0  0  0  0  0  0
   -0.4784   -0.3332    0.0459 O   0  0  0  0  0  0  0  0  0  0  0  0
    0.5812   -0.5442    0.8862 C   0  0  1  0  0  0  0  0  0  0  0  0
    1.9120   -0.6271    0.2151 C   0  0  0  0  0  0  0  0  0  0  0  0
    2.2161    0.5470   -0.4751 O   0  0  0  0  0  0  0  0  0  0  0  0
    3.7247    0.4143   -1.2185 P   0  0  0  0  0  0  0  0  0  0  0  0
    3.5862    1.0667   -2.7760 O   0  0  0  0  0  0  0  0  0  0  0  0
    4.7540    1.2750   -0.4863 O   0  0  0  0  0  0  0  0  0  0  0  0
    4.2586   -1.1720   -1.2470 O   0  0  0  0  0  0  0  0  0  0  0  0
    5.8455   -1.2937   -0.6644 P   0  0  0  0  0  0  0  0  0  0  0  0
    6.6003   -2.7036   -1.2043 O   0  0  0  0  0  0  0  0  0  0  0  0
    6.7130    0.0854   -1.1397 O   0  0  0  0  0  0  0  0  0  0  0  0
    5.8599   -1.3533    0.8623 O   0  0  0  0  0  0  0  0  0  0  0  0
    0.5360    0.5058    1.9722 C   0  0  2  0  0  0  0  0  0  0  0  0
    0.7650   -0.0204    3.2293 O   0  0  0  0  0  0  0  0  0  0  0  0
   -0.8853    1.0185    1.8106 C   0  0  2  0  0  0  0  0  0  0  0  0
   -1.7794    0.1513    2.4200 O   0  0  0  0  0  0  0  0  0  0  0  0
   -7.5337    0.7259   -0.5554 H   0  0  0  0  0  0  0  0  0  0  0  0
   -6.9788    0.3190   -2.2157 H   0  0  0  0  0  0  0  0  0  0  0  0
   -4.3206   -3.1270    0.3180 H   0  0  0  0  0  0  0  0  0  0  0  0
   -2.5548    3.0856   -0.6356 H   0  0  0  0  0  0  0  0  0  0  0  0
   -0.4307    1.6955   -0.1467 H   0  0  0  0  0  0  0  0  0  0  0  0
    0.4112   -1.5275    1.4025 H   0  0  0  0  0  0  0  0  0  0  0  0
    1.9022   -1.5134   -0.4517 H   0  0  0  0  0  0  0  0  0  0  0  0
    2.6780   -0.7958    1.0016 H   0  0  0  0  0  0  0  0  0  0  0  0
    2.9168    1.7927   -2.8084 H   0  0  0  0  0  0  0  0  0  0  0  0
    6.2110   -2.9396   -2.0774 H   0  0  0  0  0  0  0  0  0  0  0  0
    7.1914    0.4863   -0.3678 H   0  0  0  0  0  0  0  0  0  0  0  0
    1.2094    1.3558    1.7201 H   0  0  0  0  0  0  0  0  0  0  0  0
    1.4255    0.5662    3.6840 H   0  0  0  0  0  0  0  0  0  0  0  0
   -0.9901    2.0616    2.1615 H   0  0  0  0  0  0  0  0  0  0  0  0
   -1.3062   -0.6572    2.6986 H   0  0  0  0  0  0  0  0  0  0  0  0
  1  2  1  0
  2  3  2  0
  3  4  1  0
  4  5  2  0
  5  6  1  0
  6  7  1  0
  7  8  1  0
  8  9  2  0
  9 10  1  0
  7 11  1  0
 11 12  1  0
 12 13  1  0
 13 14  1  0
 14 15  1  0
 15 16  1  0
 16 17  1  0
 16 18  2  0
 16 19  1  0
 19 20  1  0
 20 21  1  0
 20 22  1  0
 20 23  2  0
 13 24  1  0
 24 25  1  0
 24 26  1  0
 26 27  1  0
 10  2  1  0
 26 11  1  0
 10  6  2  0
  1 28  1  0
  1 29  1  0
  4 30  1  0
  8 31  1  0
 11 32  1  6
 13 33  1  1
 14 34  1  0
 14 35  1  0
 17 36  1  0
 21 37  1  0
 22 38  1  0
 24 39  1  6
 25 40  1  0
 26 41  1  1
 27 42  1  0
M  END
$$$$
[H]c1nc(N([H])[H])nc([H])c1-c1c([H])nc(N([H])C(=O)N([H])C([H])([H])C([H])([H])[H])c([H])c1-c1nc(C(F)(F)F)c([H])s1
     RDKit          3D

 42 44  0  0  0  0  0  0  0  0999 V2000
    7.4432   -1.1897    0.1694 C   0  0  0  0  0  0  0  0  0  0  0  0
    5.9893   -1.4525   -0.2108 C   0  0  0  0  0  0  0  0  0  0  0  0
    5.1248   -0.4275    0.3073 N   0  0  0  0  0  0  0  0  0  0  0  0
    3.6938   -0.4033    0.0918 C   0  0  0  0  0  0  0  0  0  0  0  0
    3.2543   -1.3713   -0.5483 O   0  0  0  0  0  0  0  0  0  0  0  0
    2.9433    0.6731    0.6109 N   0  0  0  0  0  0  0  0  0  0  0  0
    1.5618    0.8383    0.5647 C   0  0  0  0  0  0  0  0  0  0  0  0
    0.6115   -0.0692    0.1811 C   0  0  0  0  0  0  0  0  0  0  0  0
   -0.7307    0.2623    0.1562 C   0  0  0  0  0  0  0  0  0  0  0  0
   -1.6931   -0.7798   -0.1814 C   0  0  0  0  0  0  0  0  0  0  0  0
   -1.4921   -2.0615   -0.4260 N   0  0  0  0  0  0  0  0  0  0  0  0
   -2.4787   -2.8586   -0.6671 C   0  0  0  0  0  0  0  0  0  0  0  0
   -3.7436   -2.3215   -0.6597 C   0  0  0  0  0  0  0  0  0  0  0  0
   -3.3971   -0.6986   -0.3029 S   0  0  0  0  0  0  0  0  0  0  0  0
   -2.2929   -4.3428   -0.9475 C   0  0  0  0  0  0  0  0  0  0  0  0
   -2.4835   -4.9666    0.2664 F   0  0  0  0  0  0  0  0  0  0  0  0
   -1.0605   -4.6140   -1.4731 F   0  0  0  0  0  0  0  0  0  0  0  0
   -3.2291   -4.7316   -1.8857 F   0  0  0  0  0  0  0  0  0  0  0  0
   -1.1176    1.5035    0.5085 C   0  0  0  0  0  0  0  0  0  0  0  0
   -0.1577    2.4672    0.9088 C   0  0  0  0  0  0  0  0  0  0  0  0
    1.0976    2.0926    0.9160 N   0  0  0  0  0  0  0  0  0  0  0  0
   -2.4828    1.9972    0.4532 C   0  0  0  0  0  0  0  0  0  0  0  0
   -2.9179    2.5312   -0.7687 C   0  0  0  0  0  0  0  0  0  0  0  0
   -4.1593    3.0297   -0.8423 N   0  0  0  0  0  0  0  0  0  0  0  0
   -5.0369    3.0582    0.1843 C   0  0  0  0  0  0  0  0  0  0  0  0
   -6.3269    3.6173    0.0094 N   0  0  0  0  0  0  0  0  0  0  0  0
   -4.6130    2.5405    1.3602 N   0  0  0  0  0  0  0  0  0  0  0  0
   -3.3703    2.0215    1.5008 C   0  0  0  0  0  0  0  0  0  0  0  0
    8.1079   -1.7793   -0.4921 H   0  0  0  0  0  0  0  0  0  0  0  0
    7.6531   -0.1036    0.1031 H   0  0  0  0  0  0  0  0  0  0  0  0
    7.5944   -1.4792    1.2342 H   0  0  0  0  0  0  0  0  0  0  0  0
    5.7771   -2.4641    0.2681 H   0  0  0  0  0  0  0  0  0  0  0  0
    5.9538   -1.6148   -1.2866 H   0  0  0  0  0  0  0  0  0  0  0  0
    5.5315    0.3403    0.8653 H   0  0  0  0  0  0  0  0  0  0  0  0
    3.5362    1.4379    1.0897 H   0  0  0  0  0  0  0  0  0  0  0  0
    0.9352   -1.0523   -0.0962 H   0  0  0  0  0  0  0  0  0  0  0  0
   -4.6929   -2.8524   -0.8392 H   0  0  0  0  0  0  0  0  0  0  0  0
   -0.4806    3.4530    1.1931 H   0  0  0  0  0  0  0  0  0  0  0  0
   -2.2251    2.5122   -1.5792 H   0  0  0  0  0  0  0  0  0  0  0  0
   -6.5165    4.2301   -0.8032 H   0  0  0  0  0  0  0  0  0  0  0  0
   -7.0811    3.4213    0.6810 H   0  0  0  0  0  0  0  0  0  0  0  0
   -3.0288    1.6066    2.4446 H   0  0  0  0  0  0  0  0  0  0  0  0
  1  2  1  0
  2  3  1  0
  3  4  1  0
  4  5  2  0
  4  6  1  0
  6  7  1  0
  7  8  2  0
  8  9  1  0
  9 10  1  0
 10 11  2  0
 11 12  1  0
 12 13  2  0
 13 14  1  0
 12 15  1  0
 15 16  1  0
 15 17  1  0
 15 18  1  0
  9 19  2  0
 19 20  1  0
 20 21  2  0
 19 22  1  0
 22 23  2  0
 23 24  1  0
 24 25  2  0
 25 26  1  0
 25 27  1  0
 27 28  2  0
 21  7  1  0
 28 22  1  0
 14 10  1  0
  1 29  1  0
  1 30  1  0
  1 31  1  0
  2 32  1  0
  2 33  1  0
  3 34  1  0
  6 35  1  0
  8 36  1  0
 13 37  1  0
 20 38  1  0
 23 39  1  0
 26 40  1  0
 26 41  1  0
 28 42  1  0
M  END
$$$$
[H]c1nc(N2C([H])([H])[C@@]3([H])N(C([H])([H])[H])C([H])([H])[C@]2([H])C3([H])[H])c([H])nc1-c1c([H])c([H])c([H])c([H])c1[H]
     RDKit          3D

 38 41  0  0  0  0  0  0  0  0999 V2000
   -5.6813   -0.2374    0.5568 C   0  0  0  0  0  0  0  0  0  0  0  0
   -4.3397   -0.8117    0.6072 N   0  0  0  0  0  0  0  0  0  0  0  0
   -3.4816    0.1925    1.2502 C   0  0  0  0  0  0  0  0  0  0  0  0
   -2.6041    0.7513    0.1496 C   0  0  2  0  0  0  0  0  0  0  0  0
   -3.5636    0.5585   -1.0421 C   0  0  0  0  0  0  0  0  0  0  0  0
   -3.8078   -0.9295   -0.7260 C   0  0  1  0  0  0  0  0  0  0  0  0
   -2.3780   -1.4062   -0.6235 C   0  0  0  0  0  0  0  0  0  0  0  0
   -1.6317   -0.2502   -0.1599 N   0  0  0  0  0  0  0  0  0  0  0  0
   -0.2279   -0.0923   -0.0228 C   0  0  0  0  0  0  0  0  0  0  0  0
    0.6340   -1.1192   -0.3477 C   0  0  0  0  0  0  0  0  0  0  0  0
    1.9607   -0.9513   -0.2115 N   0  0  0  0  0  0  0  0  0  0  0  0
    2.5242    0.1878    0.2350 C   0  0  0  0  0  0  0  0  0  0  0  0
    1.6645    1.2111    0.5587 C   0  0  0  0  0  0  0  0  0  0  0  0
    0.3214    1.0484    0.4235 N   0  0  0  0  0  0  0  0  0  0  0  0
    3.9774    0.2635    0.3448 C   0  0  0  0  0  0  0  0  0  0  0  0
    4.6343    1.3868    0.7908 C   0  0  0  0  0  0  0  0  0  0  0  0
    6.0312    1.4239    0.8834 C   0  0  0  0  0  0  0  0  0  0  0  0
    6.7928    0.3325    0.5293 C   0  0  0  0  0  0  0  0  0  0  0  0
    6.1417   -0.7918    0.0833 C   0  0  0  0  0  0  0  0  0  0  0  0
    4.7671   -0.8173   -0.0038 C   0  0  0  0  0  0  0  0  0  0  0  0
   -5.6707    0.8598    0.7216 H   0  0  0  0  0  0  0  0  0  0  0  0
   -6.1575   -0.4127   -0.4299 H   0  0  0  0  0  0  0  0  0  0  0  0
   -6.2922   -0.6599    1.3993 H   0  0  0  0  0  0  0  0  0  0  0  0
   -4.0582    0.9551    1.7810 H   0  0  0  0  0  0  0  0  0  0  0  0
   -2.8096   -0.3869    1.9210 H   0  0  0  0  0  0  0  0  0  0  0  0
   -2.2690    1.7536    0.2780 H   0  0  0  0  0  0  0  0  0  0  0  0
   -4.4856    1.1250   -0.9175 H   0  0  0  0  0  0  0  0  0  0  0  0
   -3.0440    0.6854   -1.9914 H   0  0  0  0  0  0  0  0  0  0  0  0
   -4.4187   -1.4262   -1.4447 H   0  0  0  0  0  0  0  0  0  0  0  0
   -2.3706   -2.1652    0.2128 H   0  0  0  0  0  0  0  0  0  0  0  0
   -1.9887   -1.8387   -1.5435 H   0  0  0  0  0  0  0  0  0  0  0  0
    0.2409   -2.0788   -0.7191 H   0  0  0  0  0  0  0  0  0  0  0  0
    2.0874    2.1378    0.9199 H   0  0  0  0  0  0  0  0  0  0  0  0
    4.0984    2.2630    1.0793 H   0  0  0  0  0  0  0  0  0  0  0  0
    6.5538    2.3038    1.2331 H   0  0  0  0  0  0  0  0  0  0  0  0
    7.8707    0.3214    0.5863 H   0  0  0  0  0  0  0  0  0  0  0  0
    6.7289   -1.6711   -0.2035 H   0  0  0  0  0  0  0  0  0  0  0  0
    4.2510   -1.7148   -0.3596 H   0  0  0  0  0  0  0  0  0  0  0  0
  1  2  1  0
  2  3  1  0
  3  4  1  0
  4  5  1  0
  5  6  1  0
  6  7  1  0
  7  8  1  0
  8  9  1  0
  9 10  2  0
 10 11  1  0
 11 12  2  0
 12 13  1  0
 13 14  2  0
 12 15  1  0
 15 16  2  0
 16 17  1  0
 17 18  2  0
 18 19  1  0
 19 20  2  0
  6  2  1  0
 14  9  1  0
 20 15  1  0
  8  4  1  0
  1 21  1  0
  1 22  1  0
  1 23  1  0
  3 24  1  0
  3 25  1  0
  4 26  1  1
  5 27  1  0
  5 28  1  0
  6 29  1  6
  7 30  1  0
  7 31  1  0
 10 32  1  0
 13 33  1  0
 16 34  1  0
 17 35  1  0
 18 36  1  0
 19 37  1  0
 20 38  1  0
M  END
$$$$
[H]c1nc(OC([H])([H])c2c(-c3c([H])c([H])c([H])c([H])c3[H])noc2C([H])([H])[H])c([H])c([H])c1C(=O)N([H])C([H])([H])C1([H])C([H])([H])C1([H])[H]
     RDKit          3D

 48 51  0  0  0  0  0  0  0  0999 V2000
   -2.3843   -3.5070   -0.1720 C   0  0  0  0  0  0  0  0  0  0  0  0
   -3.1725   -2.3948   -0.7872 C   0  0  0  0  0  0  0  0  0  0  0  0
   -3.7012   -2.3009   -1.9824 O   0  0  0  0  0  0  0  0  0  0  0  0
   -4.3115   -1.1668   -2.1368 N   0  0  0  0  0  0  0  0  0  0  0  0
   -4.2078   -0.4252   -0.9918 C   0  0  0  0  0  0  0  0  0  0  0  0
   -3.4844   -1.1986   -0.1288 C   0  0  0  0  0  0  0  0  0  0  0  0
   -3.1406   -0.9453    1.2841 C   0  0  0  0  0  0  0  0  0  0  0  0
   -1.8384   -1.1752    1.6365 O   0  0  0  0  0  0  0  0  0  0  0  0
   -0.6709   -0.6668    1.1871 C   0  0  0  0  0  0  0  0  0  0  0  0
    0.5181   -1.1405    1.7828 C   0  0  0  0  0  0  0  0  0  0  0  0
    1.7244   -0.6759    1.3717 C   0  0  0  0  0  0  0  0  0  0  0  0
    1.8326    0.2784    0.3564 C   0  0  0  0  0  0  0  0  0  0  0  0
    0.6822    0.7224   -0.2011 C   0  0  0  0  0  0  0  0  0  0  0  0
   -0.5234    0.2554    0.2114 N   0  0  0  0  0  0  0  0  0  0  0  0
    3.1425    0.7385   -0.0652 C   0  0  0  0  0  0  0  0  0  0  0  0
    3.2153    1.8944   -0.5954 O   0  0  0  0  0  0  0  0  0  0  0  0
    4.3214   -0.0111    0.0780 N   0  0  0  0  0  0  0  0  0  0  0  0
    5.5938    0.5255   -0.3554 C   0  0  0  0  0  0  0  0  0  0  0  0
    6.7277   -0.4273   -0.1521 C   0  0  0  0  0  0  0  0  0  0  0  0
    8.1160    0.1468   -0.5884 C   0  0  0  0  0  0  0  0  0  0  0  0
    7.7940   -0.1487    0.8376 C   0  0  0  0  0  0  0  0  0  0  0  0
   -4.7919    0.8784   -0.7383 C   0  0  0  0  0  0  0  0  0  0  0  0
   -4.1276    1.9710   -0.2381 C   0  0  0  0  0  0  0  0  0  0  0  0
   -4.7620    3.1910    0.0003 C   0  0  0  0  0  0  0  0  0  0  0  0
   -6.0932    3.3479   -0.2590 C   0  0  0  0  0  0  0  0  0  0  0  0
   -6.7980    2.2708   -0.7632 C   0  0  0  0  0  0  0  0  0  0  0  0
   -6.1527    1.0785   -0.9907 C   0  0  0  0  0  0  0  0  0  0  0  0
   -1.3061   -3.4223   -0.4576 H   0  0  0  0  0  0  0  0  0  0  0  0
   -2.5212   -3.5130    0.9114 H   0  0  0  0  0  0  0  0  0  0  0  0
   -2.7890   -4.4495   -0.5892 H   0  0  0  0  0  0  0  0  0  0  0  0
   -3.8744   -1.4767    1.9730 H   0  0  0  0  0  0  0  0  0  0  0  0
   -3.3502    0.1484    1.5489 H   0  0  0  0  0  0  0  0  0  0  0  0
    0.4082   -1.8806    2.5769 H   0  0  0  0  0  0  0  0  0  0  0  0
    2.6522   -1.0151    1.8020 H   0  0  0  0  0  0  0  0  0  0  0  0
    0.6807    1.4678   -1.0014 H   0  0  0  0  0  0  0  0  0  0  0  0
    4.2410   -0.9704    0.5117 H   0  0  0  0  0  0  0  0  0  0  0  0
    5.7832    1.5237    0.0880 H   0  0  0  0  0  0  0  0  0  0  0  0
    5.5122    0.6922   -1.4686 H   0  0  0  0  0  0  0  0  0  0  0  0
    6.5662   -1.4910   -0.4663 H   0  0  0  0  0  0  0  0  0  0  0  0
    8.1341    1.2262   -0.8429 H   0  0  0  0  0  0  0  0  0  0  0  0
    8.7561   -0.5328   -1.1570 H   0  0  0  0  0  0  0  0  0  0  0  0
    8.3875   -1.0110    1.2663 H   0  0  0  0  0  0  0  0  0  0  0  0
    7.6440    0.6712    1.5705 H   0  0  0  0  0  0  0  0  0  0  0  0
   -3.0723    1.8829   -0.0301 H   0  0  0  0  0  0  0  0  0  0  0  0
   -4.1962    4.0389    0.3938 H   0  0  0  0  0  0  0  0  0  0  0  0
   -6.6044    4.3045   -0.0738 H   0  0  0  0  0  0  0  0  0  0  0  0
   -7.8472    2.4444   -0.9550 H   0  0  0  0  0  0  0  0  0  0  0  0
   -6.7122    0.2475   -1.3754 H   0  0  0  0  0  0  0  0  0  0  0  0
  1  2  1  0
  2  3  1  0
  3  4  1  0
  4  5  2  0
  5  6  1  0
  6  7  1  0
  7  8  1  0
  8  9  1  0
  9 10  2  0
 10 11  1  0
 11 12  2  0
 12 13  1  0
 13 14  2  0
 12 15  1  0
 15 16  2  0
 15 17  1  0
 17 18  1  0
 18 19  1  0
 19 20  1  0
 20 21  1  0
  5 22  1  0
 22 23  2  0
 23 24  1  0
 24 25  2  0
 25 26  1  0
 26 27  2  0
  6  2  2  0
 14  9  1  0
 21 19  1  0
 27 22  1  0
  1 28  1  0
  1 29  1  0
  1 30  1  0
  7 31  1  0
  7 32  1  0
 10 33  1  0
 11 34  1  0
 13 35  1  0
 17 36  1  0
 18 37  1  0
 18 38  1  0
 19 39  1  0
 20 40  1  0
 20 41  1  0
 21 42  1  0
 21 43  1  0
 23 44  1  0
 24 45  1  0
 25 46  1  0
 26 47  1  0
 27 48  1  0
M  END
$$$$
[H]c1nc(N([H])c2c([H])c([H])c(F)c(Cl)c2[H])c2c([H])c(OC([H])([H])[H])c(OC([H])([H])[H])c([H])c2n1
     RDKit          3D

 36 38  0  0  0  0  0  0  0  0999 V2000
   -5.5222   -1.6438    0.4343 C   0  0  0  0  0  0  0  0  0  0  0  0
   -4.7198   -0.4817    0.4610 O   0  0  0  0  0  0  0  0  0  0  0  0
   -3.3526   -0.4907    0.3183 C   0  0  0  0  0  0  0  0  0  0  0  0
   -2.7212   -1.6837    0.1396 C   0  0  0  0  0  0  0  0  0  0  0  0
   -1.3706   -1.7424   -0.0061 C   0  0  0  0  0  0  0  0  0  0  0  0
   -0.7128   -2.9102   -0.1838 N   0  0  0  0  0  0  0  0  0  0  0  0
    0.6194   -2.9997   -0.3292 C   0  0  0  0  0  0  0  0  0  0  0  0
    1.3062   -1.8541   -0.2921 N   0  0  0  0  0  0  0  0  0  0  0  0
    0.7785   -0.6307   -0.1227 C   0  0  0  0  0  0  0  0  0  0  0  0
    1.5362    0.5517   -0.1219 N   0  0  0  0  0  0  0  0  0  0  0  0
    2.9503    0.5683   -0.2318 C   0  0  0  0  0  0  0  0  0  0  0  0
    3.5665    1.6780   -0.8182 C   0  0  0  0  0  0  0  0  0  0  0  0
    4.9223    1.7543   -0.9191 C   0  0  0  0  0  0  0  0  0  0  0  0
    5.7566    0.7758   -0.4655 C   0  0  0  0  0  0  0  0  0  0  0  0
    7.1094    0.8571   -0.5692 F   0  0  0  0  0  0  0  0  0  0  0  0
    5.1731   -0.3256    0.1157 C   0  0  0  0  0  0  0  0  0  0  0  0
    6.1784   -1.6191    0.7197 Cl  0  0  0  0  0  0  0  0  0  0  0  0
    3.7788   -0.4115    0.2237 C   0  0  0  0  0  0  0  0  0  0  0  0
   -0.6037   -0.5793    0.0245 C   0  0  0  0  0  0  0  0  0  0  0  0
   -1.2694    0.6139    0.2069 C   0  0  0  0  0  0  0  0  0  0  0  0
   -2.6534    0.6780    0.3566 C   0  0  0  0  0  0  0  0  0  0  0  0
   -3.2978    1.8786    0.5374 O   0  0  0  0  0  0  0  0  0  0  0  0
   -2.6705    3.1254    0.5909 C   0  0  0  0  0  0  0  0  0  0  0  0
   -6.5173   -1.4793    0.8872 H   0  0  0  0  0  0  0  0  0  0  0  0
   -5.0139   -2.3832    1.1211 H   0  0  0  0  0  0  0  0  0  0  0  0
   -5.6566   -2.0459   -0.5775 H   0  0  0  0  0  0  0  0  0  0  0  0
   -3.2659   -2.6428    0.1051 H   0  0  0  0  0  0  0  0  0  0  0  0
    1.1216   -3.9471   -0.4700 H   0  0  0  0  0  0  0  0  0  0  0  0
    1.1024    1.5078   -0.0377 H   0  0  0  0  0  0  0  0  0  0  0  0
    2.8960    2.4660   -1.1841 H   0  0  0  0  0  0  0  0  0  0  0  0
    5.3551    2.6376   -1.3832 H   0  0  0  0  0  0  0  0  0  0  0  0
    3.4172   -1.3178    0.7205 H   0  0  0  0  0  0  0  0  0  0  0  0
   -0.7451    1.5561    0.2431 H   0  0  0  0  0  0  0  0  0  0  0  0
   -1.7051    3.0911    1.1747 H   0  0  0  0  0  0  0  0  0  0  0  0
   -2.4870    3.5617   -0.4152 H   0  0  0  0  0  0  0  0  0  0  0  0
   -3.2829    3.8870    1.1466 H   0  0  0  0  0  0  0  0  0  0  0  0
  1  2  1  0
  2  3  1  0
  3  4  2  0
  4  5  1  0
  5  6  2  0
  6  7  1  0
  7  8  2  0
  8  9  1  0
  9 10  1  0
 10 11  1  0
 11 12  2  0
 12 13  1  0
 13 14  2  0
 14 15  1  0
 14 16  1  0
 16 17  1  0
 16 18  2  0
  9 19  2  0
 19 20  1  0
 20 21  2  0
 21 22  1  0
 22 23  1  0
 21  3  1  0
 19  5  1  0
 18 11  1  0
  1 24  1  0
  1 25  1  0
  1 26  1  0
  4 27  1  0
  7 28  1  0
 10 29  1  0
 12 30  1  0
 13 31  1  0
 18 32  1  0
 20 33  1  0
 23 34  1  0
 23 35  1  0
 23 36  1  0
M  END
$$$$
[H]Oc1c([H])c([H])c(C([H])([H])[C@@]([H])(C(=O)N2C([H])([H])c3c([H])c([H])c([H])c([H])c3C([H])([H])[C@@]2([H])C(=O)N([H])[C@]([H])(C(=O)N([H])[C@]([H])(C(=O)N([H])[H])C([H])([H])c2c([H])c([H])c([H])c([H])c2[H])C([H])([H])c2c([H])c([H])c([H])c([H])c2[H])N([H])[H])c([H])c1[H]
     RDKit          3D

 86 90  0  0  0  0  0  0  0  0999 V2000
   -3.6141    3.2321    0.6169 N   0  0  0  0  0  0  0  0  0  0  0  0
   -3.9698    1.8324    0.9463 C   0  0  1  0  0  0  0  0  0  0  0  0
   -4.8704    1.4321   -0.2342 C   0  0  0  0  0  0  0  0  0  0  0  0
   -6.0500    2.2918   -0.3439 C   0  0  0  0  0  0  0  0  0  0  0  0
   -7.2251    1.9925    0.2971 C   0  0  0  0  0  0  0  0  0  0  0  0
   -8.3468    2.7953    0.2013 C   0  0  0  0  0  0  0  0  0  0  0  0
   -8.2801    3.9385   -0.5674 C   0  0  0  0  0  0  0  0  0  0  0  0
   -9.3890    4.7698   -0.6862 O   0  0  0  0  0  0  0  0  0  0  0  0
   -7.1115    4.2712   -1.2270 C   0  0  0  0  0  0  0  0  0  0  0  0
   -6.0168    3.4410   -1.1033 C   0  0  0  0  0  0  0  0  0  0  0  0
   -2.7112    1.0362    0.8536 C   0  0  0  0  0  0  0  0  0  0  0  0
   -1.7401    1.6613    0.2912 O   0  0  0  0  0  0  0  0  0  0  0  0
   -2.5631   -0.2822    1.3288 N   0  0  0  0  0  0  0  0  0  0  0  0
   -3.7536   -0.9180    1.9217 C   0  0  0  0  0  0  0  0  0  0  0  0
   -3.9982   -2.1466    1.1220 C   0  0  0  0  0  0  0  0  0  0  0  0
   -5.2574   -2.7532    1.1661 C   0  0  0  0  0  0  0  0  0  0  0  0
   -5.5463   -3.8895    0.4410 C   0  0  0  0  0  0  0  0  0  0  0  0
   -4.5699   -4.4429   -0.3489 C   0  0  0  0  0  0  0  0  0  0  0  0
   -3.3329   -3.8489   -0.3931 C   0  0  0  0  0  0  0  0  0  0  0  0
   -3.0242   -2.7050    0.3305 C   0  0  0  0  0  0  0  0  0  0  0  0
   -1.6319   -2.1579    0.2074 C   0  0  0  0  0  0  0  0  0  0  0  0
   -1.4125   -1.1225    1.2974 C   0  0  1  0  0  0  0  0  0  0  0  0
   -0.0959   -0.5548    1.3836 C   0  0  0  0  0  0  0  0  0  0  0  0
    0.0948    0.5680    1.9433 O   0  0  0  0  0  0  0  0  0  0  0  0
    1.0288   -1.2311    0.8445 N   0  0  0  0  0  0  0  0  0  0  0  0
    2.3942   -0.7089    0.8954 C   0  0  1  0  0  0  0  0  0  0  0  0
    3.2869   -1.5736    1.7147 C   0  0  0  0  0  0  0  0  0  0  0  0
    3.4008   -2.9737    1.2481 C   0  0  0  0  0  0  0  0  0  0  0  0
    4.3627   -3.3856    0.3737 C   0  0  0  0  0  0  0  0  0  0  0  0
    4.3906   -4.7074   -0.0110 C   0  0  0  0  0  0  0  0  0  0  0  0
    3.4729   -5.6350    0.4616 C   0  0  0  0  0  0  0  0  0  0  0  0
    2.5083   -5.1871    1.3488 C   0  0  0  0  0  0  0  0  0  0  0  0
    2.4905   -3.8716    1.7233 C   0  0  0  0  0  0  0  0  0  0  0  0
    2.8672   -0.3514   -0.4454 C   0  0  0  0  0  0  0  0  0  0  0  0
    2.1186   -0.5606   -1.4292 O   0  0  0  0  0  0  0  0  0  0  0  0
    4.1358    0.2291   -0.7007 N   0  0  0  0  0  0  0  0  0  0  0  0
    4.5641    0.5842   -2.0387 C   0  0  1  0  0  0  0  0  0  0  0  0
    4.6278    2.0980   -2.1971 C   0  0  0  0  0  0  0  0  0  0  0  0
    5.5712    2.7384   -1.2529 C   0  0  0  0  0  0  0  0  0  0  0  0
    5.1188    3.1233   -0.0093 C   0  0  0  0  0  0  0  0  0  0  0  0
    5.9694    3.7152    0.8672 C   0  0  0  0  0  0  0  0  0  0  0  0
    7.2967    3.9519    0.5520 C   0  0  0  0  0  0  0  0  0  0  0  0
    7.7448    3.5732   -0.6759 C   0  0  0  0  0  0  0  0  0  0  0  0
    6.8901    2.9695   -1.5763 C   0  0  0  0  0  0  0  0  0  0  0  0
    5.7985   -0.0729   -2.4846 C   0  0  0  0  0  0  0  0  0  0  0  0
    6.3619    0.0850   -3.7682 N   0  0  0  0  0  0  0  0  0  0  0  0
    6.4576   -0.8548   -1.7087 O   0  0  0  0  0  0  0  0  0  0  0  0
   -3.0130    3.1533   -0.2317 H   0  0  0  0  0  0  0  0  0  0  0  0
   -3.0041    3.6195    1.3670 H   0  0  0  0  0  0  0  0  0  0  0  0
   -4.4710    1.7577    1.9103 H   0  0  0  0  0  0  0  0  0  0  0  0
   -5.1458    0.3839   -0.2386 H   0  0  0  0  0  0  0  0  0  0  0  0
   -4.2443    1.6041   -1.1582 H   0  0  0  0  0  0  0  0  0  0  0  0
   -7.3091    1.1127    0.9010 H   0  0  0  0  0  0  0  0  0  0  0  0
   -9.2838    2.5833    0.6958 H   0  0  0  0  0  0  0  0  0  0  0  0
   -9.3621    5.6087   -1.2399 H   0  0  0  0  0  0  0  0  0  0  0  0
   -7.1207    5.1735   -1.8126 H   0  0  0  0  0  0  0  0  0  0  0  0
   -5.1131    3.7365   -1.6378 H   0  0  0  0  0  0  0  0  0  0  0  0
   -4.6071   -0.2564    2.0044 H   0  0  0  0  0  0  0  0  0  0  0  0
   -3.4431   -1.2579    2.9413 H   0  0  0  0  0  0  0  0  0  0  0  0
   -6.0090   -2.3054    1.7908 H   0  0  0  0  0  0  0  0  0  0  0  0
   -6.5310   -4.3677    0.4717 H   0  0  0  0  0  0  0  0  0  0  0  0
   -4.8141   -5.3423   -0.9184 H   0  0  0  0  0  0  0  0  0  0  0  0
   -2.5690   -4.2905   -1.0153 H   0  0  0  0  0  0  0  0  0  0  0  0
   -0.9196   -2.9917    0.3209 H   0  0  0  0  0  0  0  0  0  0  0  0
   -1.4497   -1.6759   -0.7629 H   0  0  0  0  0  0  0  0  0  0  0  0
   -1.5093   -1.7688    2.2626 H   0  0  0  0  0  0  0  0  0  0  0  0
    0.8901   -2.1467    0.3859 H   0  0  0  0  0  0  0  0  0  0  0  0
    2.2785    0.2502    1.5031 H   0  0  0  0  0  0  0  0  0  0  0  0
    4.2843   -1.0925    1.7598 H   0  0  0  0  0  0  0  0  0  0  0  0
    2.9020   -1.5350    2.7621 H   0  0  0  0  0  0  0  0  0  0  0  0
    5.1111   -2.7101   -0.0282 H   0  0  0  0  0  0  0  0  0  0  0  0
    5.1326   -5.1005   -0.7068 H   0  0  0  0  0  0  0  0  0  0  0  0
    3.4856   -6.6763    0.1654 H   0  0  0  0  0  0  0  0  0  0  0  0
    1.7847   -5.9191    1.7210 H   0  0  0  0  0  0  0  0  0  0  0  0
    1.7081   -3.5784    2.4241 H   0  0  0  0  0  0  0  0  0  0  0  0
    4.7500    0.3896    0.1283 H   0  0  0  0  0  0  0  0  0  0  0  0
    3.7421    0.2657   -2.7337 H   0  0  0  0  0  0  0  0  0  0  0  0
    4.9435    2.3818   -3.2206 H   0  0  0  0  0  0  0  0  0  0  0  0
    3.5870    2.4766   -2.0740 H   0  0  0  0  0  0  0  0  0  0  0  0
    4.0723    2.9410    0.2457 H   0  0  0  0  0  0  0  0  0  0  0  0
    5.6430    4.0306    1.8567 H   0  0  0  0  0  0  0  0  0  0  0  0
    7.9413    4.4339    1.2987 H   0  0  0  0  0  0  0  0  0  0  0  0
    8.7884    3.7475   -0.9505 H   0  0  0  0  0  0  0  0  0  0  0  0
    7.2970    2.6844   -2.5555 H   0  0  0  0  0  0  0  0  0  0  0  0
    6.6264   -0.7430   -4.3183 H   0  0  0  0  0  0  0  0  0  0  0  0
    6.5091    1.0293   -4.1514 H   0  0  0  0  0  0  0  0  0  0  0  0
  1  2  1  0
  2  3  1  0
  3  4  1  0
  4  5  2  0
  5  6  1  0
  6  7  2  0
  7  8  1  0
  7  9  1  0
  9 10  2  0
  2 11  1  0
 11 12  2  0
 11 13  1  0
 13 14  1  0
 14 15  1  0
 15 16  2  0
 16 17  1  0
 17 18  2  0
 18 19  1  0
 19 20  2  0
 20 21  1  0
 21 22  1  0
 22 23  1  0
 23 24  2  0
 23 25  1  0
 25 26  1  0
 26 27  1  0
 27 28  1  0
 28 29  2  0
 29 30  1  0
 30 31  2  0
 31 32  1  0
 32 33  2  0
 26 34  1  0
 34 35  2  0
 34 36  1  0
 36 37  1  0
 37 38  1  0
 38 39  1  0
 39 40  2  0
 40 41  1  0
 41 42  2  0
 42 43  1  0
 43 44  2  0
 37 45  1  0
 45 46  1  0
 45 47  2  0
 10  4  1  0
 22 13  1  0
 33 28  1  0
 44 39  1  0
 20 15  1  0
  1 48  1  0
  1 49  1  0
  2 50  1  1
  3 51  1  0
  3 52  1  0
  5 53  1  0
  6 54  1  0
  8 55  1  0
  9 56  1  0
 10 57  1  0
 14 58  1  0
 14 59  1  0
 16 60  1  0
 17 61  1  0
 18 62  1  0
 19 63  1  0
 21 64  1  0
 21 65  1  0
 22 66  1  1
 25 67  1  0
 26 68  1  1
 27 69  1  0
 27 70  1  0
 29 71  1  0
 30 72  1  0
 31 73  1  0
 32 74  1  0
 33 75  1  0
 36 76  1  0
 37 77  1  6
 38 78  1  0
 38 79  1  0
 40 80  1  0
 41 81  1  0
 42 82  1  0
 43 83  1  0
 44 84  1  0
 46 85  1  0
 46 86  1  0
M  END
$$$$
[H]O[C@]1([H])[C@]([H])(C([H])([H])OP(=O)(O[H])OP(=O)(O[H])O[H])OC([H])(n2c([H])nc3c(N([H])[H])nc([H])nc32)[C@]1([H])O[H]
     RDKit          3D

 42 44  0  0  0  0  0  0  0  0999 V2000
   -7.0368    1.3310    0.7663 N   0  0  0  0  0  0  0  0  0  0  0  0
   -5.9548    0.4274    0.6693 C   0  0  0  0  0  0  0  0  0  0  0  0
   -6.1028   -0.8569    0.3491 N   0  0  0  0  0  0  0  0  0  0  0  0
   -5.0059   -1.6536    0.1589 C   0  0  0  0  0  0  0  0  0  0  0  0
   -3.7813   -1.1730    0.2930 N   0  0  0  0  0  0  0  0  0  0  0  0
   -3.5764    0.1103    0.6132 C   0  0  0  0  0  0  0  0  0  0  0  0
   -2.4040    0.7891    0.7857 N   0  0  0  0  0  0  0  0  0  0  0  0
   -2.8248    2.0480    1.0960 C   0  0  0  0  0  0  0  0  0  0  0  0
   -4.1473    2.1392    1.1090 N   0  0  0  0  0  0  0  0  0  0  0  0
   -4.6780    0.9070    0.8002 C   0  0  0  0  0  0  0  0  0  0  0  0
   -1.1477    0.3285    0.5047 C   0  0  0  0  0  0  0  0  0  0  0  0
   -0.2525   -0.4313    1.1747 O   0  0  0  0  0  0  0  0  0  0  0  0
    0.8085   -0.2637    0.3206 C   0  0  1  0  0  0  0  0  0  0  0  0
    2.1329   -0.8574    0.4735 C   0  0  0  0  0  0  0  0  0  0  0  0
    2.8209   -0.4560   -0.7543 O   0  0  0  0  0  0  0  0  0  0  0  0
    3.9977    0.6760   -0.3826 P   0  0  0  0  0  0  0  0  0  0  0  0
    3.5750    2.1356   -1.2647 O   0  0  0  0  0  0  0  0  0  0  0  0
    3.9930    1.0245    1.0940 O   0  0  0  0  0  0  0  0  0  0  0  0
    5.4895    0.2585   -0.9024 O   0  0  0  0  0  0  0  0  0  0  0  0
    6.3976   -0.5653    0.2716 P   0  0  0  0  0  0  0  0  0  0  0  0
    6.6991   -2.1278   -0.3390 O   0  0  0  0  0  0  0  0  0  0  0  0
    7.8261    0.3047    0.5032 O   0  0  0  0  0  0  0  0  0  0  0  0
    5.6002   -0.5998    1.5386 O   0  0  0  0  0  0  0  0  0  0  0  0
    0.3317   -0.1982   -1.1077 C   0  0  1  0  0  0  0  0  0  0  0  0
    0.8663   -1.1243   -1.9555 O   0  0  0  0  0  0  0  0  0  0  0  0
   -1.1563   -0.5085   -0.8189 C   0  0  1  0  0  0  0  0  0  0  0  0
   -1.1331   -1.8605   -0.5885 O   0  0  0  0  0  0  0  0  0  0  0  0
   -7.8143    1.3484    1.4356 H   0  0  0  0  0  0  0  0  0  0  0  0
   -7.1067    2.1443    0.0409 H   0  0  0  0  0  0  0  0  0  0  0  0
   -5.2222   -2.7030   -0.0903 H   0  0  0  0  0  0  0  0  0  0  0  0
   -2.1535    2.8891    1.3313 H   0  0  0  0  0  0  0  0  0  0  0  0
   -0.5181    1.2512    0.1857 H   0  0  0  0  0  0  0  0  0  0  0  0
    1.0280    0.9060    0.5603 H   0  0  0  0  0  0  0  0  0  0  0  0
    2.0856   -1.9961    0.3120 H   0  0  0  0  0  0  0  0  0  0  0  0
    2.7260   -0.6762    1.3381 H   0  0  0  0  0  0  0  0  0  0  0  0
    3.0912    1.7638   -2.0735 H   0  0  0  0  0  0  0  0  0  0  0  0
    6.2587   -2.2394   -1.2236 H   0  0  0  0  0  0  0  0  0  0  0  0
    8.2425    0.0641    1.3742 H   0  0  0  0  0  0  0  0  0  0  0  0
    0.3266    0.8420   -1.5093 H   0  0  0  0  0  0  0  0  0  0  0  0
    0.2177   -1.1820   -2.7346 H   0  0  0  0  0  0  0  0  0  0  0  0
   -1.8499   -0.1112   -1.5159 H   0  0  0  0  0  0  0  0  0  0  0  0
   -0.6482   -2.1046    0.2192 H   0  0  0  0  0  0  0  0  0  0  0  0
  1  2  1  0
  2  3  2  0
  3  4  1  0
  4  5  2  0
  5  6  1  0
  6  7  1  0
  7  8  1  0
  8  9  2  0
  9 10  1  0
  7 11  1  0
 11 12  1  0
 12 13  1  0
 13 14  1  0
 14 15  1  0
 15 16  1  0
 16 17  1  0
 16 18  2  0
 16 19  1  0
 19 20  1  0
 20 21  1  0
 20 22  1  0
 20 23  2  0
 13 24  1  0
 24 25  1  0
 24 26  1  0
 26 27  1  0
 10  2  1  0
 26 11  1  0
 10  6  2  0
  1 28  1  0
  1 29  1  0
  4 30  1  0
  8 31  1  0
 11 32  1  0
 13 33  1  1
 14 34  1  0
 14 35  1  0
 17 36  1  0
 21 37  1  0
 22 38  1  0
 24 39  1  6
 25 40  1  0
 26 41  1  6
 27 42  1  0
M  END
$$$$
[H]c1c([H])c([H])c2c(c1[H])c1c3c(c4c5c([H])c([H])c([H])c([H])c5n5c4c1n2[C@@]1(C([H])([H])[H])O[C@]5([H])C([H])([H])[C@@]([H])(N(C([H])([H])[H])C([H])([H])[H])[C@@]1([H])OC([H])([H])[H])C(=O)N([H])C3([H])[H]
     RDKit          3D

 64 71  0  0  0  0  0  0  0  0999 V2000
   -2.6590   -2.1737   -1.5272 C   0  0  0  0  0  0  0  0  0  0  0  0
   -1.9703   -1.1410   -0.9458 O   0  0  0  0  0  0  0  0  0  0  0  0
   -2.1814   -1.0043    0.4140 C   0  0  2  0  0  0  0  0  0  0  0  0
   -2.9478    0.3303    0.5502 C   0  0  1  0  0  0  0  0  0  0  0  0
   -2.0420    1.3339   -0.1600 C   0  0  0  0  0  0  0  0  0  0  0  0
   -0.8962    1.5047    0.8033 C   0  0  1  0  0  0  0  0  0  0  0  0
   -0.8082    0.4843    1.7165 O   0  0  0  0  0  0  0  0  0  0  0  0
   -0.9398   -0.8232    1.2124 C   0  0  1  0  0  0  0  0  0  0  0  0
   -1.1918   -1.6082    2.5360 C   0  0  0  0  0  0  0  0  0  0  0  0
    0.3173   -1.2346    0.6438 N   0  0  0  0  0  0  0  0  0  0  0  0
    0.7940   -2.5121    0.5802 C   0  0  0  0  0  0  0  0  0  0  0  0
    0.2507   -3.7287    0.8793 C   0  0  0  0  0  0  0  0  0  0  0  0
    0.9499   -4.9017    0.7045 C   0  0  0  0  0  0  0  0  0  0  0  0
    2.2299   -4.8805    0.2179 C   0  0  0  0  0  0  0  0  0  0  0  0
    2.8165   -3.6610   -0.0985 C   0  0  0  0  0  0  0  0  0  0  0  0
    2.0893   -2.5236    0.0887 C   0  0  0  0  0  0  0  0  0  0  0  0
    2.4248   -1.2051   -0.1670 C   0  0  0  0  0  0  0  0  0  0  0  0
    3.5537   -0.5935   -0.6784 C   0  0  0  0  0  0  0  0  0  0  0  0
    4.8333   -1.2334   -1.0826 C   0  0  0  0  0  0  0  0  0  0  0  0
    5.6646   -0.1306   -1.4644 N   0  0  0  0  0  0  0  0  0  0  0  0
    4.9321    1.1133   -1.3667 C   0  0  0  0  0  0  0  0  0  0  0  0
    5.4015    2.2302   -1.6659 O   0  0  0  0  0  0  0  0  0  0  0  0
    3.6222    0.7869   -0.8735 C   0  0  0  0  0  0  0  0  0  0  0  0
    2.4859    1.5156   -0.5246 C   0  0  0  0  0  0  0  0  0  0  0  0
    2.1866    2.8533   -0.6180 C   0  0  0  0  0  0  0  0  0  0  0  0
    2.8608    3.9553   -1.0563 C   0  0  0  0  0  0  0  0  0  0  0  0
    2.2063    5.1911   -1.0149 C   0  0  0  0  0  0  0  0  0  0  0  0
    0.9221    5.3086   -0.5475 C   0  0  0  0  0  0  0  0  0  0  0  0
    0.2481    4.1966   -0.1074 C   0  0  0  0  0  0  0  0  0  0  0  0
    0.8790    2.9756   -0.1435 C   0  0  0  0  0  0  0  0  0  0  0  0
    0.3890    1.8047    0.2235 N   0  0  0  0  0  0  0  0  0  0  0  0
    1.3494    0.8965   -0.0023 C   0  0  0  0  0  0  0  0  0  0  0  0
    1.3511   -0.4615    0.1675 C   0  0  0  0  0  0  0  0  0  0  0  0
   -4.2930    0.3446    0.2913 N   0  0  0  0  0  0  0  0  0  0  0  0
   -5.0436    0.7473    1.4641 C   0  0  0  0  0  0  0  0  0  0  0  0
   -4.8534    0.8849   -0.8712 C   0  0  0  0  0  0  0  0  0  0  0  0
   -3.7640   -2.0933   -1.3953 H   0  0  0  0  0  0  0  0  0  0  0  0
   -2.3627   -3.1828   -1.2036 H   0  0  0  0  0  0  0  0  0  0  0  0
   -2.4293   -2.1334   -2.6403 H   0  0  0  0  0  0  0  0  0  0  0  0
   -2.8470   -1.8327    0.7467 H   0  0  0  0  0  0  0  0  0  0  0  0
   -2.7864    0.5602    1.6769 H   0  0  0  0  0  0  0  0  0  0  0  0
   -2.6243    2.2673   -0.3305 H   0  0  0  0  0  0  0  0  0  0  0  0
   -1.6648    0.8808   -1.0826 H   0  0  0  0  0  0  0  0  0  0  0  0
   -1.1706    2.4178    1.4174 H   0  0  0  0  0  0  0  0  0  0  0  0
   -2.0795   -2.2416    2.4741 H   0  0  0  0  0  0  0  0  0  0  0  0
   -1.4293   -0.8889    3.3785 H   0  0  0  0  0  0  0  0  0  0  0  0
   -0.2629   -2.0992    2.8768 H   0  0  0  0  0  0  0  0  0  0  0  0
   -0.7835   -3.7567    1.2465 H   0  0  0  0  0  0  0  0  0  0  0  0
    0.4741   -5.8477    0.9538 H   0  0  0  0  0  0  0  0  0  0  0  0
    2.8283   -5.7697    0.0609 H   0  0  0  0  0  0  0  0  0  0  0  0
    3.8149   -3.6015   -0.4782 H   0  0  0  0  0  0  0  0  0  0  0  0
    5.2621   -1.7400   -0.1702 H   0  0  0  0  0  0  0  0  0  0  0  0
    4.7119   -1.9290   -1.9281 H   0  0  0  0  0  0  0  0  0  0  0  0
    6.6689   -0.1370   -1.7801 H   0  0  0  0  0  0  0  0  0  0  0  0
    3.8511    3.9738   -1.4434 H   0  0  0  0  0  0  0  0  0  0  0  0
    2.7407    6.0639   -1.3629 H   0  0  0  0  0  0  0  0  0  0  0  0
    0.4723    6.2896   -0.5402 H   0  0  0  0  0  0  0  0  0  0  0  0
   -0.7840    4.2633    0.2726 H   0  0  0  0  0  0  0  0  0  0  0  0
   -4.6624    0.2928    2.4020 H   0  0  0  0  0  0  0  0  0  0  0  0
   -4.7498    1.8498    1.5960 H   0  0  0  0  0  0  0  0  0  0  0  0
   -6.1311    0.7345    1.3414 H   0  0  0  0  0  0  0  0  0  0  0  0
   -4.1705    0.9920   -1.7347 H   0  0  0  0  0  0  0  0  0  0  0  0
   -5.6628    0.1710   -1.2194 H   0  0  0  0  0  0  0  0  0  0  0  0
   -5.3911    1.8557   -0.7112 H   0  0  0  0  0  0  0  0  0  0  0  0
  1  2  1  0
  2  3  1  0
  3  4  1  0
  4  5  1  0
  5  6  1  0
  6  7  1  0
  7  8  1  0
  8  9  1  1
  8 10  1  0
 10 11  1  0
 11 12  2  0
 12 13  1  0
 13 14  2  0
 14 15  1  0
 15 16  2  0
 16 17  1  0
 17 18  2  0
 18 19  1  0
 19 20  1  0
 20 21  1  0
 21 22  2  0
 21 23  1  0
 23 24  2  0
 24 25  1  0
 25 26  2  0
 26 27  1  0
 27 28  2  0
 28 29  1  0
 29 30  2  0
 30 31  1  0
 31 32  1  0
 32 33  2  0
  4 34  1  0
 34 35  1  0
 34 36  1  0
  8  3  1  0
 33 10  1  0
 31  6  1  0
 16 11  1  0
 33 17  1  0
 23 18  1  0
 32 24  1  0
 30 25  1  0
  1 37  1  0
  1 38  1  0
  1 39  1  0
  3 40  1  1
  4 41  1  1
  5 42  1  0
  5 43  1  0
  6 44  1  1
  9 45  1  0
  9 46  1  0
  9 47  1  0
 12 48  1  0
 13 49  1  0
 14 50  1  0
 15 51  1  0
 19 52  1  0
 19 53  1  0
 20 54  1  0
 26 55  1  0
 27 56  1  0
 28 57  1  0
 29 58  1  0
 35 59  1  0
 35 60  1  0
 35 61  1  0
 36 62  1  0
 36 63  1  0
 36 64  1  0
M  END
$$$$
[H]N=C(N([H])[H])N([H])C([H])([H])C([H])([H])C([H])([H])[C@@]([H])(C(=O)c1nc2c([H])c([H])c([H])c([H])c2s1)N([H])C(=O)[C@@]([H])(N([H])C(=O)[C@@]([H])(N([H])C(=O)[C@@]1([H])N(C(=O)OC([H])([H])c2c([H])c([H])c([H])c([H])c2[H])C([H])([H])C([H])([H])C1([H])[H])C([H])([H])C([H])([H])C([H])([H])N([H])C(=N[H])N([H])[H])C([H])([H])c1c([H])c([H])c([H])c([H])c1[H]
     RDKit          3D

110114  0  0  0  0  0  0  0  0999 V2000
    4.4157    1.5463   -6.5766 N   0  0  0  0  0  0  0  0  0  0  0  0
    4.4210    2.6495   -5.7202 C   0  0  0  0  0  0  0  0  0  0  0  0
    5.4903    3.4000   -5.6706 N   0  0  0  0  0  0  0  0  0  0  0  0
    3.3240    2.9829   -4.9239 N   0  0  0  0  0  0  0  0  0  0  0  0
    2.7842    1.9817   -3.9811 C   0  0  0  0  0  0  0  0  0  0  0  0
    1.6346    2.5956   -3.2667 C   0  0  0  0  0  0  0  0  0  0  0  0
    0.9079    1.7590   -2.3030 C   0  0  0  0  0  0  0  0  0  0  0  0
    1.5952    1.2124   -1.1022 C   0  0  2  0  0  0  0  0  0  0  0  0
    2.6941    0.3563   -1.4561 N   0  0  0  0  0  0  0  0  0  0  0  0
    3.8953    0.2048   -0.6833 C   0  0  0  0  0  0  0  0  0  0  0  0
    4.0018    0.8602    0.3643 O   0  0  0  0  0  0  0  0  0  0  0  0
    4.8991   -0.7051   -1.1806 C   0  0  2  0  0  0  0  0  0  0  0  0
    4.2735   -1.8775   -1.9492 C   0  0  0  0  0  0  0  0  0  0  0  0
    5.1281   -3.0729   -1.6334 C   0  0  0  0  0  0  0  0  0  0  0  0
    6.4190   -2.3908   -1.2155 C   0  0  0  0  0  0  0  0  0  0  0  0
    5.8403   -1.3096   -0.3246 N   0  0  0  0  0  0  0  0  0  0  0  0
    6.3333   -1.1752    0.9701 C   0  0  0  0  0  0  0  0  0  0  0  0
    7.2134   -2.0351    1.3688 O   0  0  0  0  0  0  0  0  0  0  0  0
    6.0100   -0.2420    1.8974 O   0  0  0  0  0  0  0  0  0  0  0  0
    6.5724   -0.2176    3.2132 C   0  0  0  0  0  0  0  0  0  0  0  0
    8.0501   -0.1014    3.1631 C   0  0  0  0  0  0  0  0  0  0  0  0
    8.6964    0.8679    2.4578 C   0  0  0  0  0  0  0  0  0  0  0  0
   10.0885    0.9441    2.4370 C   0  0  0  0  0  0  0  0  0  0  0  0
   10.8811    0.0492    3.1217 C   0  0  0  0  0  0  0  0  0  0  0  0
   10.2205   -0.9481    3.8468 C   0  0  0  0  0  0  0  0  0  0  0  0
    8.8507   -1.0127    3.8618 C   0  0  0  0  0  0  0  0  0  0  0  0
    0.5518    0.4015   -0.3744 C   0  0  0  0  0  0  0  0  0  0  0  0
    0.7195   -0.8086   -0.1969 O   0  0  0  0  0  0  0  0  0  0  0  0
   -0.6195    1.0391    0.0971 N   0  0  0  0  0  0  0  0  0  0  0  0
   -1.6406    0.2467    0.7864 C   0  0  1  0  0  0  0  0  0  0  0  0
   -1.4356    0.4861    2.2512 C   0  0  0  0  0  0  0  0  0  0  0  0
   -1.6139    1.8644    2.7104 C   0  0  0  0  0  0  0  0  0  0  0  0
   -0.5940    2.8066    2.7043 C   0  0  0  0  0  0  0  0  0  0  0  0
   -0.8818    4.0594    3.1875 C   0  0  0  0  0  0  0  0  0  0  0  0
   -2.0975    4.4424    3.6746 C   0  0  0  0  0  0  0  0  0  0  0  0
   -3.1523    3.5026    3.6922 C   0  0  0  0  0  0  0  0  0  0  0  0
   -2.8439    2.2633    3.2070 C   0  0  0  0  0  0  0  0  0  0  0  0
   -3.0406    0.6344    0.3681 C   0  0  0  0  0  0  0  0  0  0  0  0
   -3.1484    1.8354    0.0586 O   0  0  0  0  0  0  0  0  0  0  0  0
   -4.0445   -0.3108    0.3602 N   0  0  0  0  0  0  0  0  0  0  0  0
   -5.0602   -1.2280    0.3436 C   0  0  1  0  0  0  0  0  0  0  0  0
   -6.5025   -0.8219    0.2967 C   0  0  0  0  0  0  0  0  0  0  0  0
   -7.0757   -0.0606    1.4058 C   0  0  0  0  0  0  0  0  0  0  0  0
   -6.7014    1.3542    1.6587 C   0  0  0  0  0  0  0  0  0  0  0  0
   -7.1411    2.2394    0.5662 N   0  0  0  0  0  0  0  0  0  0  0  0
   -7.0163    3.6272    0.7558 C   0  0  0  0  0  0  0  0  0  0  0  0
   -7.5520    4.6022   -0.1279 N   0  0  0  0  0  0  0  0  0  0  0  0
   -6.3923    4.1190    1.8000 N   0  0  0  0  0  0  0  0  0  0  0  0
   -4.8159   -2.2517   -0.7222 C   0  0  0  0  0  0  0  0  0  0  0  0
   -3.9205   -2.0191   -1.6057 O   0  0  0  0  0  0  0  0  0  0  0  0
   -5.5294   -3.5114   -0.8231 C   0  0  0  0  0  0  0  0  0  0  0  0
   -6.4688   -4.0253   -0.0603 N   0  0  0  0  0  0  0  0  0  0  0  0
   -6.9773   -5.1873   -0.3183 C   0  0  0  0  0  0  0  0  0  0  0  0
   -7.9764   -5.8448    0.4188 C   0  0  0  0  0  0  0  0  0  0  0  0
   -8.4372   -7.0685    0.0625 C   0  0  0  0  0  0  0  0  0  0  0  0
   -7.9655   -7.7409   -1.0312 C   0  0  0  0  0  0  0  0  0  0  0  0
   -6.9891   -7.1327   -1.7767 C   0  0  0  0  0  0  0  0  0  0  0  0
   -6.5052   -5.8663   -1.4153 C   0  0  0  0  0  0  0  0  0  0  0  0
   -5.3321   -4.7458   -2.0066 S   0  0  0  0  0  0  0  0  0  0  0  0
    4.0388    0.6234   -6.2435 H   0  0  0  0  0  0  0  0  0  0  0  0
    4.7800    1.5850   -7.5698 H   0  0  0  0  0  0  0  0  0  0  0  0
    5.5139    4.2388   -5.0298 H   0  0  0  0  0  0  0  0  0  0  0  0
    2.8559    3.9362   -4.9724 H   0  0  0  0  0  0  0  0  0  0  0  0
    3.6386    1.7414   -3.3376 H   0  0  0  0  0  0  0  0  0  0  0  0
    2.5221    1.0647   -4.5526 H   0  0  0  0  0  0  0  0  0  0  0  0
    0.9055    3.0054   -4.0420 H   0  0  0  0  0  0  0  0  0  0  0  0
    2.0504    3.5053   -2.7206 H   0  0  0  0  0  0  0  0  0  0  0  0
    0.4757    0.8655   -2.9076 H   0  0  0  0  0  0  0  0  0  0  0  0
   -0.0731    2.2696   -2.0007 H   0  0  0  0  0  0  0  0  0  0  0  0
    1.9513    2.0205   -0.4443 H   0  0  0  0  0  0  0  0  0  0  0  0
    2.6051   -0.1772   -2.3247 H   0  0  0  0  0  0  0  0  0  0  0  0
    5.5154   -0.1398   -1.9658 H   0  0  0  0  0  0  0  0  0  0  0  0
    3.2634   -2.0604   -1.5432 H   0  0  0  0  0  0  0  0  0  0  0  0
    4.3077   -1.6810   -3.0407 H   0  0  0  0  0  0  0  0  0  0  0  0
    5.3238   -3.7080   -2.5041 H   0  0  0  0  0  0  0  0  0  0  0  0
    4.7797   -3.6469   -0.7460 H   0  0  0  0  0  0  0  0  0  0  0  0
    7.0740   -3.0502   -0.6488 H   0  0  0  0  0  0  0  0  0  0  0  0
    6.9749   -1.9306   -2.0449 H   0  0  0  0  0  0  0  0  0  0  0  0
    6.1721    0.6798    3.7097 H   0  0  0  0  0  0  0  0  0  0  0  0
    6.3154   -1.1503    3.7663 H   0  0  0  0  0  0  0  0  0  0  0  0
    8.1509    1.6040    1.8930 H   0  0  0  0  0  0  0  0  0  0  0  0
   10.5873    1.7334    1.8648 H   0  0  0  0  0  0  0  0  0  0  0  0
   11.9755    0.0915    3.1107 H   0  0  0  0  0  0  0  0  0  0  0  0
   10.8807   -1.6374    4.3760 H   0  0  0  0  0  0  0  0  0  0  0  0
    8.3683   -1.8024    4.4342 H   0  0  0  0  0  0  0  0  0  0  0  0
   -0.7212    2.0651   -0.0654 H   0  0  0  0  0  0  0  0  0  0  0  0
   -1.4789   -0.8188    0.6019 H   0  0  0  0  0  0  0  0  0  0  0  0
   -0.3683    0.2158    2.5308 H   0  0  0  0  0  0  0  0  0  0  0  0
   -2.0523   -0.1860    2.8701 H   0  0  0  0  0  0  0  0  0  0  0  0
    0.3851    2.5436    2.3310 H   0  0  0  0  0  0  0  0  0  0  0  0
   -0.0567    4.8092    3.1788 H   0  0  0  0  0  0  0  0  0  0  0  0
   -2.3082    5.4286    4.0455 H   0  0  0  0  0  0  0  0  0  0  0  0
   -4.1038    3.8268    4.0747 H   0  0  0  0  0  0  0  0  0  0  0  0
   -3.6815    1.5337    3.2371 H   0  0  0  0  0  0  0  0  0  0  0  0
   -4.9008    0.5792   -0.2539 H   0  0  0  0  0  0  0  0  0  0  0  0
   -4.9945   -1.8868    1.3396 H   0  0  0  0  0  0  0  0  0  0  0  0
   -6.6602   -0.1665   -0.6507 H   0  0  0  0  0  0  0  0  0  0  0  0
   -7.1873   -1.6778    0.0779 H   0  0  0  0  0  0  0  0  0  0  0  0
   -8.2016   -0.1775    1.4797 H   0  0  0  0  0  0  0  0  0  0  0  0
   -6.7614   -0.6023    2.3915 H   0  0  0  0  0  0  0  0  0  0  0  0
   -7.1976    1.7372    2.5896 H   0  0  0  0  0  0  0  0  0  0  0  0
   -5.6265    1.5314    1.7955 H   0  0  0  0  0  0  0  0  0  0  0  0
   -7.5131    1.8272   -0.2878 H   0  0  0  0  0  0  0  0  0  0  0  0
   -8.5668    4.8510   -0.1599 H   0  0  0  0  0  0  0  0  0  0  0  0
   -6.9116    5.0943   -0.7684 H   0  0  0  0  0  0  0  0  0  0  0  0
   -6.0031    3.4385    2.4663 H   0  0  0  0  0  0  0  0  0  0  0  0
   -8.4037   -5.3533    1.3183 H   0  0  0  0  0  0  0  0  0  0  0  0
   -9.2157   -7.5599    0.6491 H   0  0  0  0  0  0  0  0  0  0  0  0
   -8.3335   -8.6914   -1.3013 H   0  0  0  0  0  0  0  0  0  0  0  0
   -6.5300   -7.5637   -2.6677 H   0  0  0  0  0  0  0  0  0  0  0  0
  1  2  1  0
  2  3  2  3
  2  4  1  0
  4  5  1  0
  5  6  1  0
  6  7  1  0
  7  8  1  0
  8  9  1  0
  9 10  1  0
 10 11  2  0
 10 12  1  0
 12 13  1  0
 13 14  1  0
 14 15  1  0
 15 16  1  0
 16 17  1  0
 17 18  2  0
 17 19  1  0
 19 20  1  0
 20 21  1  0
 21 22  2  0
 22 23  1  0
 23 24  2  0
 24 25  1  0
 25 26  2  0
  8 27  1  0
 27 28  2  0
 27 29  1  0
 29 30  1  0
 30 31  1  0
 31 32  1  0
 32 33  2  0
 33 34  1  0
 34 35  2  0
 35 36  1  0
 36 37  2  0
 30 38  1  0
 38 39  2  0
 38 40  1  0
 40 41  1  0
 41 42  1  0
 42 43  1  0
 43 44  1  0
 44 45  1  0
 45 46  1  0
 46 47  1  0
 46 48  2  3
 41 49  1  0
 49 50  2  0
 49 51  1  0
 51 52  2  0
 52 53  1  0
 53 54  2  0
 54 55  1  0
 55 56  2  0
 56 57  1  0
 57 58  2  0
 58 59  1  0
 16 12  1  0
 26 21  1  0
 37 32  1  0
 59 51  1  0
 58 53  1  0
  1 60  1  0
  1 61  1  0
  3 62  1  0
  4 63  1  0
  5 64  1  0
  5 65  1  0
  6 66  1  0
  6 67  1  0
  7 68  1  0
  7 69  1  0
  8 70  1  1
  9 71  1  0
 12 72  1  6
 13 73  1  0
 13 74  1  0
 14 75  1  0
 14 76  1  0
 15 77  1  0
 15 78  1  0
 20 79  1  0
 20 80  1  0
 22 81  1  0
 23 82  1  0
 24 83  1  0
 25 84  1  0
 26 85  1  0
 29 86  1  0
 30 87  1  1
 31 88  1  0
 31 89  1  0
 33 90  1  0
 34 91  1  0
 35 92  1  0
 36 93  1  0
 37 94  1  0
 40 95  1  0
 41 96  1  1
 42 97  1  0
 42 98  1  0
 43 99  1  0
 43100  1  0
 44101  1  0
 44102  1  0
 45103  1  0
 47104  1  0
 47105  1  0
 48106  1  0
 54107  1  0
 55108  1  0
 56109  1  0
 57110  1  0
M  END
$$$$
[H]c1c([H])c([H])c(C([H])([H])[C@@]([H])(C(=O)N([H])[H])N([H])C(=O)[C@@]([H])(N([H])C(=O)[C@@]([H])(N([H])C(=O)C([H])([H])N([H])C(=O)[C@@]2([H])N(C(=O)[C@@]([H])(N([H])[H])C([H])([H])c3c([H])n([H])c4c([H])c([H])c([H])c([H])c34)C([H])([H])C([H])([H])C2([H])[H])C([H])([H])c2c([H])c([H])c([H])c([H])c2[H])C([H])([H])C([H])(C([H])([H])[H])C([H])([H])[H])c([H])c1[H]
     RDKit          3D

108112  0  0  0  0  0  0  0  0999 V2000
   -4.7142    1.1029   -3.6341 C   0  0  0  0  0  0  0  0  0  0  0  0
   -4.8270    0.9286   -2.1003 C   0  0  0  0  0  0  0  0  0  0  0  0
   -4.6340    2.3276   -1.5626 C   0  0  0  0  0  0  0  0  0  0  0  0
   -3.8224   -0.0570   -1.6259 C   0  0  0  0  0  0  0  0  0  0  0  0
   -3.8538   -0.3179   -0.1195 C   0  0  2  0  0  0  0  0  0  0  0  0
   -2.7731   -1.3146    0.0461 N   0  0  0  0  0  0  0  0  0  0  0  0
   -1.4511   -0.9472    0.4168 C   0  0  0  0  0  0  0  0  0  0  0  0
   -1.1691    0.2551    0.6033 O   0  0  0  0  0  0  0  0  0  0  0  0
   -0.3831   -1.9638    0.5865 C   0  0  2  0  0  0  0  0  0  0  0  0
   -0.1043   -2.3054    2.0267 C   0  0  0  0  0  0  0  0  0  0  0  0
   -1.2889   -2.8658    2.7387 C   0  0  0  0  0  0  0  0  0  0  0  0
   -1.5388   -4.2234    2.7503 C   0  0  0  0  0  0  0  0  0  0  0  0
   -2.6227   -4.7149    3.4250 C   0  0  0  0  0  0  0  0  0  0  0  0
   -3.5220   -3.9186    4.1243 C   0  0  0  0  0  0  0  0  0  0  0  0
   -3.2384   -2.5579    4.0897 C   0  0  0  0  0  0  0  0  0  0  0  0
   -2.1574   -2.0461    3.4188 C   0  0  0  0  0  0  0  0  0  0  0  0
    0.9148   -1.4976    0.0479 N   0  0  0  0  0  0  0  0  0  0  0  0
    1.4558   -2.0879   -1.1080 C   0  0  0  0  0  0  0  0  0  0  0  0
    0.7217   -3.0178   -1.6303 O   0  0  0  0  0  0  0  0  0  0  0  0
    2.6984   -1.7945   -1.7763 C   0  0  0  0  0  0  0  0  0  0  0  0
    3.5593   -0.8226   -1.1868 N   0  0  0  0  0  0  0  0  0  0  0  0
    4.1589   -0.9446    0.0900 C   0  0  0  0  0  0  0  0  0  0  0  0
    3.9250   -1.9612    0.7773 O   0  0  0  0  0  0  0  0  0  0  0  0
    5.0727    0.0879    0.6697 C   0  0  2  0  0  0  0  0  0  0  0  0
    4.4429    0.8894    1.7593 C   0  0  0  0  0  0  0  0  0  0  0  0
    3.9419    2.1171    1.0718 C   0  0  0  0  0  0  0  0  0  0  0  0
    4.7914    2.2591   -0.1494 C   0  0  0  0  0  0  0  0  0  0  0  0
    5.4910    1.0237   -0.3261 N   0  0  0  0  0  0  0  0  0  0  0  0
    6.4707    0.7331   -1.3432 C   0  0  0  0  0  0  0  0  0  0  0  0
    6.7292    1.6268   -2.2176 O   0  0  0  0  0  0  0  0  0  0  0  0
    7.1792   -0.5395   -1.4209 C   0  0  1  0  0  0  0  0  0  0  0  0
    7.6127   -0.7772   -2.8394 N   0  0  0  0  0  0  0  0  0  0  0  0
    8.4023   -0.6912   -0.5655 C   0  0  0  0  0  0  0  0  0  0  0  0
    9.5010    0.2326   -0.8305 C   0  0  0  0  0  0  0  0  0  0  0  0
   10.5946   -0.0365   -1.6796 C   0  0  0  0  0  0  0  0  0  0  0  0
   11.4156    0.9996   -1.7586 N   0  0  0  0  0  0  0  0  0  0  0  0
   10.8959    1.9623   -0.9797 C   0  0  0  0  0  0  0  0  0  0  0  0
   11.3277    3.2273   -0.6824 C   0  0  0  0  0  0  0  0  0  0  0  0
   10.6261    4.0432    0.1688 C   0  0  0  0  0  0  0  0  0  0  0  0
    9.4636    3.5957    0.7426 C   0  0  0  0  0  0  0  0  0  0  0  0
    8.9992    2.3347    0.4687 C   0  0  0  0  0  0  0  0  0  0  0  0
    9.7107    1.5149   -0.3919 C   0  0  0  0  0  0  0  0  0  0  0  0
   -5.1308   -0.9201    0.3289 C   0  0  0  0  0  0  0  0  0  0  0  0
   -5.1591   -2.1679    0.3295 O   0  0  0  0  0  0  0  0  0  0  0  0
   -6.2554   -0.1779    0.7391 N   0  0  0  0  0  0  0  0  0  0  0  0
   -7.4931   -0.6804    1.2003 C   0  0  1  0  0  0  0  0  0  0  0  0
   -8.7046   -0.4786    0.3749 C   0  0  0  0  0  0  0  0  0  0  0  0
   -9.0763    0.9355    0.1480 C   0  0  0  0  0  0  0  0  0  0  0  0
   -8.6927    1.6960   -0.9294 C   0  0  0  0  0  0  0  0  0  0  0  0
   -9.0824    3.0281   -1.0916 C   0  0  0  0  0  0  0  0  0  0  0  0
   -9.8959    3.6331   -0.1316 C   0  0  0  0  0  0  0  0  0  0  0  0
  -10.2846    2.8908    0.9434 C   0  0  0  0  0  0  0  0  0  0  0  0
   -9.8903    1.5754    1.0891 C   0  0  0  0  0  0  0  0  0  0  0  0
   -7.4952   -1.9400    1.9823 C   0  0  0  0  0  0  0  0  0  0  0  0
   -8.7560   -2.5932    2.2211 N   0  0  0  0  0  0  0  0  0  0  0  0
   -6.5056   -2.5069    2.4624 O   0  0  0  0  0  0  0  0  0  0  0  0
   -4.6658    0.1296   -4.1419 H   0  0  0  0  0  0  0  0  0  0  0  0
   -3.9439    1.8208   -3.9093 H   0  0  0  0  0  0  0  0  0  0  0  0
   -5.6953    1.5714   -3.9579 H   0  0  0  0  0  0  0  0  0  0  0  0
   -5.8681    0.6234   -1.9366 H   0  0  0  0  0  0  0  0  0  0  0  0
   -3.5881    2.6922   -1.6956 H   0  0  0  0  0  0  0  0  0  0  0  0
   -5.0079    2.5073   -0.5640 H   0  0  0  0  0  0  0  0  0  0  0  0
   -5.2492    2.9888   -2.2451 H   0  0  0  0  0  0  0  0  0  0  0  0
   -3.8634   -0.9631   -2.2229 H   0  0  0  0  0  0  0  0  0  0  0  0
   -2.8085    0.4103   -1.8026 H   0  0  0  0  0  0  0  0  0  0  0  0
   -3.5590    0.5677    0.4435 H   0  0  0  0  0  0  0  0  0  0  0  0
   -2.9554   -2.3399   -0.1110 H   0  0  0  0  0  0  0  0  0  0  0  0
   -0.6426   -2.8742    0.0053 H   0  0  0  0  0  0  0  0  0  0  0  0
    0.7034   -3.0200    2.1602 H   0  0  0  0  0  0  0  0  0  0  0  0
    0.1758   -1.3927    2.6117 H   0  0  0  0  0  0  0  0  0  0  0  0
   -0.8652   -4.8912    2.2157 H   0  0  0  0  0  0  0  0  0  0  0  0
   -2.8025   -5.7853    3.4204 H   0  0  0  0  0  0  0  0  0  0  0  0
   -4.3677   -4.3269    4.6503 H   0  0  0  0  0  0  0  0  0  0  0  0
   -3.9493   -1.9317    4.6429 H   0  0  0  0  0  0  0  0  0  0  0  0
   -1.9913   -0.9553    3.4308 H   0  0  0  0  0  0  0  0  0  0  0  0
    1.4183   -0.7266    0.5172 H   0  0  0  0  0  0  0  0  0  0  0  0
    3.2390   -2.7917   -1.9101 H   0  0  0  0  0  0  0  0  0  0  0  0
    2.4925   -1.4236   -2.8362 H   0  0  0  0  0  0  0  0  0  0  0  0
    3.8046    0.0795   -1.7006 H   0  0  0  0  0  0  0  0  0  0  0  0
    5.8967   -0.5005    1.1404 H   0  0  0  0  0  0  0  0  0  0  0  0
    3.6280    0.3570    2.2974 H   0  0  0  0  0  0  0  0  0  0  0  0
    5.2661    1.1972    2.4708 H   0  0  0  0  0  0  0  0  0  0  0  0
    4.0605    2.9941    1.7687 H   0  0  0  0  0  0  0  0  0  0  0  0
    2.8488    2.0934    0.8614 H   0  0  0  0  0  0  0  0  0  0  0  0
    4.2097    2.5921   -1.0410 H   0  0  0  0  0  0  0  0  0  0  0  0
    5.5173    3.1056    0.0593 H   0  0  0  0  0  0  0  0  0  0  0  0
    6.5009   -1.3768   -1.1915 H   0  0  0  0  0  0  0  0  0  0  0  0
    6.7603   -0.8367   -3.4480 H   0  0  0  0  0  0  0  0  0  0  0  0
    8.0425   -1.7525   -2.8702 H   0  0  0  0  0  0  0  0  0  0  0  0
    8.7828   -1.7398   -0.7487 H   0  0  0  0  0  0  0  0  0  0  0  0
    8.1436   -0.6689    0.5154 H   0  0  0  0  0  0  0  0  0  0  0  0
   10.7055   -0.9804   -2.1801 H   0  0  0  0  0  0  0  0  0  0  0  0
   12.3028    1.1163   -2.2962 H   0  0  0  0  0  0  0  0  0  0  0  0
   12.2462    3.6180   -1.1165 H   0  0  0  0  0  0  0  0  0  0  0  0
   11.0077    5.0485    0.3796 H   0  0  0  0  0  0  0  0  0  0  0  0
    8.9501    4.2715    1.4030 H   0  0  0  0  0  0  0  0  0  0  0  0
    8.0862    2.0037    0.9412 H   0  0  0  0  0  0  0  0  0  0  0  0
   -6.1825    0.9134    0.7127 H   0  0  0  0  0  0  0  0  0  0  0  0
   -7.7006    0.0752    2.1273 H   0  0  0  0  0  0  0  0  0  0  0  0
   -8.5322   -0.8957   -0.6668 H   0  0  0  0  0  0  0  0  0  0  0  0
   -9.5901   -1.0504    0.7314 H   0  0  0  0  0  0  0  0  0  0  0  0
   -8.0732    1.2833   -1.7076 H   0  0  0  0  0  0  0  0  0  0  0  0
   -8.7850    3.6251   -1.9317 H   0  0  0  0  0  0  0  0  0  0  0  0
  -10.2222    4.6651   -0.2172 H   0  0  0  0  0  0  0  0  0  0  0  0
  -10.9118    3.3557    1.6881 H   0  0  0  0  0  0  0  0  0  0  0  0
  -10.1965    0.9748    1.9442 H   0  0  0  0  0  0  0  0  0  0  0  0
   -8.8758   -3.5448    1.8648 H   0  0  0  0  0  0  0  0  0  0  0  0
   -9.4766   -2.0647    2.7404 H   0  0  0  0  0  0  0  0  0  0  0  0
  1  2  1  0
  2  3  1  0
  2  4  1  0
  4  5  1  0
  5  6  1  0
  6  7  1  0
  7  8  2  0
  7  9  1  0
  9 10  1  0
 10 11  1  0
 11 12  2  0
 12 13  1  0
 13 14  2  0
 14 15  1  0
 15 16  2  0
  9 17  1  0
 17 18  1  0
 18 19  2  0
 18 20  1  0
 20 21  1  0
 21 22  1  0
 22 23  2  0
 22 24  1  0
 24 25  1  0
 25 26  1  0
 26 27  1  0
 27 28  1  0
 28 29  1  0
 29 30  2  0
 29 31  1  0
 31 32  1  0
 31 33  1  0
 33 34  1  0
 34 35  2  0
 35 36  1  0
 36 37  1  0
 37 38  2  0
 38 39  1  0
 39 40  2  0
 40 41  1  0
 41 42  2  0
  5 43  1  0
 43 44  2  0
 43 45  1  0
 45 46  1  0
 46 47  1  0
 47 48  1  0
 48 49  2  0
 49 50  1  0
 50 51  2  0
 51 52  1  0
 52 53  2  0
 46 54  1  0
 54 55  1  0
 54 56  2  0
 16 11  1  0
 28 24  1  0
 42 34  1  0
 53 48  1  0
 42 37  1  0
  1 57  1  0
  1 58  1  0
  1 59  1  0
  2 60  1  0
  3 61  1  0
  3 62  1  0
  3 63  1  0
  4 64  1  0
  4 65  1  0
  5 66  1  1
  6 67  1  0
  9 68  1  6
 10 69  1  0
 10 70  1  0
 12 71  1  0
 13 72  1  0
 14 73  1  0
 15 74  1  0
 16 75  1  0
 17 76  1  0
 20 77  1  0
 20 78  1  0
 21 79  1  0
 24 80  1  1
 25 81  1  0
 25 82  1  0
 26 83  1  0
 26 84  1  0
 27 85  1  0
 27 86  1  0
 31 87  1  1
 32 88  1  0
 32 89  1  0
 33 90  1  0
 33 91  1  0
 35 92  1  0
 36 93  1  0
 38 94  1  0
 39 95  1  0
 40 96  1  0
 41 97  1  0
 45 98  1  0
 46 99  1  1
 47100  1  0
 47101  1  0
 49102  1  0
 50103  1  0
 51104  1  0
 52105  1  0
 53106  1  0
 55107  1  0
 55108  1  0
M  END
$$$$
[H]C([H])=C([H])C(=O)N1C([H])([H])C([H])([H])C([H])([H])[C@@]([H])(n2c([H])c(-c3c([H])c([H])c(Oc4c([H])c([H])c([H])c([H])c4[H])c([H])c3[H])c3c(N([H])[H])nc([H])nc32)C1([H])[H]
     RDKit          3D

 58 62  0  0  0  0  0  0  0  0999 V2000
    2.0021    3.0683   -0.5502 N   0  0  0  0  0  0  0  0  0  0  0  0
    0.5912    3.0303   -0.3929 C   0  0  0  0  0  0  0  0  0  0  0  0
   -0.1453    4.1552   -0.3381 N   0  0  0  0  0  0  0  0  0  0  0  0
   -1.4789    4.1697   -0.1685 C   0  0  0  0  0  0  0  0  0  0  0  0
   -2.1083    2.9879   -0.0471 N   0  0  0  0  0  0  0  0  0  0  0  0
   -1.4811    1.8102   -0.0864 C   0  0  0  0  0  0  0  0  0  0  0  0
   -1.9092    0.5243    0.0230 N   0  0  0  0  0  0  0  0  0  0  0  0
   -0.8382   -0.2552   -0.0821 C   0  0  0  0  0  0  0  0  0  0  0  0
    0.3146    0.5268   -0.2642 C   0  0  0  0  0  0  0  0  0  0  0  0
    1.6324   -0.0097   -0.4542 C   0  0  0  0  0  0  0  0  0  0  0  0
    2.4203    0.1525   -1.5672 C   0  0  0  0  0  0  0  0  0  0  0  0
    3.6784   -0.3937   -1.6458 C   0  0  0  0  0  0  0  0  0  0  0  0
    4.2043   -1.1261   -0.6160 C   0  0  0  0  0  0  0  0  0  0  0  0
    5.4796   -1.6932   -0.6674 O   0  0  0  0  0  0  0  0  0  0  0  0
    6.5608   -0.9495   -0.2102 C   0  0  0  0  0  0  0  0  0  0  0  0
    7.1975   -0.1546   -1.1549 C   0  0  0  0  0  0  0  0  0  0  0  0
    8.2750    0.5950   -0.7275 C   0  0  0  0  0  0  0  0  0  0  0  0
    8.7317    0.5832    0.5742 C   0  0  0  0  0  0  0  0  0  0  0  0
    8.0784   -0.2172    1.4919 C   0  0  0  0  0  0  0  0  0  0  0  0
    6.9896   -0.9840    1.0921 C   0  0  0  0  0  0  0  0  0  0  0  0
    3.4316   -1.3026    0.5112 C   0  0  0  0  0  0  0  0  0  0  0  0
    2.1753   -0.7583    0.5923 C   0  0  0  0  0  0  0  0  0  0  0  0
   -0.0932    1.8168   -0.2645 C   0  0  0  0  0  0  0  0  0  0  0  0
   -3.2674    0.1106    0.2154 C   0  0  2  0  0  0  0  0  0  0  0  0
   -3.3743   -0.7049    1.5168 C   0  0  0  0  0  0  0  0  0  0  0  0
   -4.8056   -0.6762    1.8982 C   0  0  0  0  0  0  0  0  0  0  0  0
   -5.7326   -0.9973    0.7774 C   0  0  0  0  0  0  0  0  0  0  0  0
   -5.2038   -1.0945   -0.5294 N   0  0  0  0  0  0  0  0  0  0  0  0
   -3.7855   -0.7868   -0.8503 C   0  0  0  0  0  0  0  0  0  0  0  0
   -5.9741   -1.4912   -1.6369 C   0  0  0  0  0  0  0  0  0  0  0  0
   -5.3658   -1.5424   -2.8030 O   0  0  0  0  0  0  0  0  0  0  0  0
   -7.3572   -1.8657   -1.7333 C   0  0  0  0  0  0  0  0  0  0  0  0
   -8.2917   -1.9472   -0.8380 C   0  0  0  0  0  0  0  0  0  0  0  0
    2.6874    2.8010    0.1889 H   0  0  0  0  0  0  0  0  0  0  0  0
    2.3976    3.3833   -1.4627 H   0  0  0  0  0  0  0  0  0  0  0  0
   -2.0193    5.1279   -0.1331 H   0  0  0  0  0  0  0  0  0  0  0  0
   -0.8013   -1.3499   -0.0403 H   0  0  0  0  0  0  0  0  0  0  0  0
    2.0375    0.7160   -2.4059 H   0  0  0  0  0  0  0  0  0  0  0  0
    4.2902   -0.2501   -2.5465 H   0  0  0  0  0  0  0  0  0  0  0  0
    6.8714   -0.1158   -2.1877 H   0  0  0  0  0  0  0  0  0  0  0  0
    8.8129    1.2406   -1.4373 H   0  0  0  0  0  0  0  0  0  0  0  0
    9.5968    1.2032    0.8557 H   0  0  0  0  0  0  0  0  0  0  0  0
    8.4122   -0.2493    2.5233 H   0  0  0  0  0  0  0  0  0  0  0  0
    6.4822   -1.6107    1.8218 H   0  0  0  0  0  0  0  0  0  0  0  0
    3.8291   -1.8895    1.3590 H   0  0  0  0  0  0  0  0  0  0  0  0
    1.5953   -0.9220    1.5043 H   0  0  0  0  0  0  0  0  0  0  0  0
   -3.9711    0.9603    0.3250 H   0  0  0  0  0  0  0  0  0  0  0  0
   -2.6907   -0.2399    2.2247 H   0  0  0  0  0  0  0  0  0  0  0  0
   -3.0851   -1.7533    1.2572 H   0  0  0  0  0  0  0  0  0  0  0  0
   -5.0436    0.3719    2.2561 H   0  0  0  0  0  0  0  0  0  0  0  0
   -4.9691   -1.3048    2.8014 H   0  0  0  0  0  0  0  0  0  0  0  0
   -6.6185   -0.2938    0.8083 H   0  0  0  0  0  0  0  0  0  0  0  0
   -6.1476   -2.0219    1.0318 H   0  0  0  0  0  0  0  0  0  0  0  0
   -3.6786   -0.4266   -1.8729 H   0  0  0  0  0  0  0  0  0  0  0  0
   -3.2774   -1.7912   -0.8056 H   0  0  0  0  0  0  0  0  0  0  0  0
   -7.7311   -2.1471   -2.7690 H   0  0  0  0  0  0  0  0  0  0  0  0
   -8.2287   -1.7481    0.1868 H   0  0  0  0  0  0  0  0  0  0  0  0
   -9.3011   -2.2706   -1.1891 H   0  0  0  0  0  0  0  0  0  0  0  0
  1  2  1  0
  2  3  2  0
  3  4  1  0
  4  5  2  0
  5  6  1  0
  6  7  1  0
  7  8  1  0
  8  9  2  0
  9 10  1  0
 10 11  2  0
 11 12  1  0
 12 13  2  0
 13 14  1  0
 14 15  1  0
 15 16  2  0
 16 17  1  0
 17 18  2  0
 18 19  1  0
 19 20  2  0
 13 21  1  0
 21 22  2  0
  9 23  1  0
  7 24  1  0
 24 25  1  0
 25 26  1  0
 26 27  1  0
 27 28  1  0
 28 29  1  0
 28 30  1  0
 30 31  2  0
 30 32  1  0
 32 33  2  3
 23  2  1  0
 29 24  1  0
 23  6  2  0
 22 10  1  0
 20 15  1  0
  1 34  1  0
  1 35  1  0
  4 36  1  0
  8 37  1  0
 11 38  1  0
 12 39  1  0
 16 40  1  0
 17 41  1  0
 18 42  1  0
 19 43  1  0
 20 44  1  0
 21 45  1  0
 22 46  1  0
 24 47  1  1
 25 48  1  0
 25 49  1  0
 26 50  1  0
 26 51  1  0
 27 52  1  0
 27 53  1  0
 29 54  1  0
 29 55  1  0
 32 56  1  0
 33 57  1  0
 33 58  1  0
M  END
$$$$
[H]c1c([H])c([H])c(C([H])([H])OC(=O)N2C([H])([H])C([H])([H])C([H])(c3c([H])n([H])c4c([H])c([N+](=O)[O-])c([H])c([H])c34)C([H])([H])C2([H])[H])c([H])c1[H]
     RDKit          3D

 49 52  0  0  0  0  0  0  0  0999 V2000
    8.1488    3.3724   -0.9830 O   0  0  0  0  0  0  0  0  0  0  0  0
    7.9518    2.2759   -0.1860 N   0  0  0  0  0  0  0  0  0  0  0  0
    8.8603    1.7356    0.4348 O   0  0  0  0  0  0  0  0  0  0  0  0
    6.6215    1.7367   -0.0886 C   0  0  0  0  0  0  0  0  0  0  0  0
    5.5686    2.2862   -0.8487 C   0  0  0  0  0  0  0  0  0  0  0  0
    4.3061    1.7635   -0.8337 C   0  0  0  0  0  0  0  0  0  0  0  0
    4.1082    0.6524   -0.0275 C   0  0  0  0  0  0  0  0  0  0  0  0
    2.9634   -0.1235    0.0886 C   0  0  0  0  0  0  0  0  0  0  0  0
    3.2577   -1.1742    0.9404 C   0  0  0  0  0  0  0  0  0  0  0  0
    4.5472   -1.0279    1.3141 N   0  0  0  0  0  0  0  0  0  0  0  0
    5.0836    0.0816    0.7270 C   0  0  0  0  0  0  0  0  0  0  0  0
    6.3640    0.6431    0.6937 C   0  0  0  0  0  0  0  0  0  0  0  0
    1.6235    0.1166   -0.4656 C   0  0  0  0  0  0  0  0  0  0  0  0
    1.1720   -0.9085   -1.4391 C   0  0  0  0  0  0  0  0  0  0  0  0
    0.1870   -1.9534   -0.9663 C   0  0  0  0  0  0  0  0  0  0  0  0
   -1.0118   -1.2296   -0.5598 N   0  0  0  0  0  0  0  0  0  0  0  0
   -0.7739   -0.0652    0.2759 C   0  0  0  0  0  0  0  0  0  0  0  0
    0.6667   -0.0595    0.7390 C   0  0  0  0  0  0  0  0  0  0  0  0
   -2.3052   -1.5647   -0.9503 C   0  0  0  0  0  0  0  0  0  0  0  0
   -2.4167   -2.5487   -1.7558 O   0  0  0  0  0  0  0  0  0  0  0  0
   -3.4403   -0.9237   -0.5256 O   0  0  0  0  0  0  0  0  0  0  0  0
   -4.7315   -1.3083   -0.9770 C   0  0  0  0  0  0  0  0  0  0  0  0
   -5.6921   -0.4410   -0.2611 C   0  0  0  0  0  0  0  0  0  0  0  0
   -5.3093    0.5130    0.6480 C   0  0  0  0  0  0  0  0  0  0  0  0
   -6.2404    1.2788    1.2956 C   0  0  0  0  0  0  0  0  0  0  0  0
   -7.5861    1.1318    1.0771 C   0  0  0  0  0  0  0  0  0  0  0  0
   -8.0059    0.1646    0.1613 C   0  0  0  0  0  0  0  0  0  0  0  0
   -7.0554   -0.5946   -0.4835 C   0  0  0  0  0  0  0  0  0  0  0  0
    5.7926    3.1378   -1.4530 H   0  0  0  0  0  0  0  0  0  0  0  0
    3.4744    2.1591   -1.3849 H   0  0  0  0  0  0  0  0  0  0  0  0
    2.6593   -1.9948    1.2933 H   0  0  0  0  0  0  0  0  0  0  0  0
    5.0453   -1.6620    1.9631 H   0  0  0  0  0  0  0  0  0  0  0  0
    7.1106    0.1623    1.2950 H   0  0  0  0  0  0  0  0  0  0  0  0
    1.5241    1.1111   -0.8112 H   0  0  0  0  0  0  0  0  0  0  0  0
    0.5447   -0.3422   -2.2097 H   0  0  0  0  0  0  0  0  0  0  0  0
    1.9771   -1.3112   -2.1207 H   0  0  0  0  0  0  0  0  0  0  0  0
   -0.1232   -2.5325   -1.8635 H   0  0  0  0  0  0  0  0  0  0  0  0
    0.6039   -2.6183   -0.1772 H   0  0  0  0  0  0  0  0  0  0  0  0
   -1.4439   -0.1142    1.1840 H   0  0  0  0  0  0  0  0  0  0  0  0
   -1.0747    0.8648   -0.2571 H   0  0  0  0  0  0  0  0  0  0  0  0
    0.8491   -1.0625    1.2277 H   0  0  0  0  0  0  0  0  0  0  0  0
    0.8392    0.7544    1.4602 H   0  0  0  0  0  0  0  0  0  0  0  0
   -4.8959   -2.3875   -0.7060 H   0  0  0  0  0  0  0  0  0  0  0  0
   -4.7628   -1.1448   -2.0905 H   0  0  0  0  0  0  0  0  0  0  0  0
   -4.2440    0.6466    0.8297 H   0  0  0  0  0  0  0  0  0  0  0  0
   -5.9616    2.0300    2.0088 H   0  0  0  0  0  0  0  0  0  0  0  0
   -8.3347    1.7314    1.5908 H   0  0  0  0  0  0  0  0  0  0  0  0
   -9.0810    0.0751    0.0165 H   0  0  0  0  0  0  0  0  0  0  0  0
   -7.3600   -1.3318   -1.1808 H   0  0  0  0  0  0  0  0  0  0  0  0
  1  2  1  0
  2  3  2  0
  2  4  1  0
  4  5  2  0
  5  6  1  0
  6  7  2  0
  7  8  1  0
  8  9  2  0
  9 10  1  0
 10 11  1  0
 11 12  2  0
  8 13  1  0
 13 14  1  0
 14 15  1  0
 15 16  1  0
 16 17  1  0
 17 18  1  0
 16 19  1  0
 19 20  2  0
 19 21  1  0
 21 22  1  0
 22 23  1  0
 23 24  2  0
 24 25  1  0
 25 26  2  0
 26 27  1  0
 27 28  2  0
 12  4  1  0
 18 13  1  0
 28 23  1  0
 11  7  1  0
  5 29  1  0
  6 30  1  0
  9 31  1  0
 10 32  1  0
 12 33  1  0
 13 34  1  0
 14 35  1  0
 14 36  1  0
 15 37  1  0
 15 38  1  0
 17 39  1  0
 17 40  1  0
 18 41  1  0
 18 42  1  0
 22 43  1  0
 22 44  1  0
 24 45  1  0
 25 46  1  0
 26 47  1  0
 27 48  1  0
 28 49  1  0
M  CHG  2   1  -1   2   1
M  END
$$$$
[H]c1c(N([H])C(=O)[C@]2([H])N(C(=O)c3c([H])c([H])c([H])c(C(F)(F)F)c3[H])C([H])([H])c3c([H])c([H])c([H])c([H])c3C2([H])[H])noc1C(C([H])([H])[H])(C([H])([H])[H])C([H])([H])[H]
     RDKit          3D

 58 61  0  0  0  0  0  0  0  0999 V2000
    5.9199    2.0454    1.2424 C   0  0  0  0  0  0  0  0  0  0  0  0
    5.7951    0.7020    0.5284 C   0  0  0  0  0  0  0  0  0  0  0  0
    6.1858    0.9196   -0.9057 C   0  0  0  0  0  0  0  0  0  0  0  0
    6.7725   -0.2490    1.2183 C   0  0  0  0  0  0  0  0  0  0  0  0
    4.3977    0.2311    0.6972 C   0  0  0  0  0  0  0  0  0  0  0  0
    3.2921    0.7618    0.0805 C   0  0  0  0  0  0  0  0  0  0  0  0
    2.1635    0.0742    0.4572 C   0  0  0  0  0  0  0  0  0  0  0  0
    0.8275    0.2620    0.0141 N   0  0  0  0  0  0  0  0  0  0  0  0
   -0.2617   -0.5090    0.5393 C   0  0  0  0  0  0  0  0  0  0  0  0
   -0.0088   -1.2893    1.4643 O   0  0  0  0  0  0  0  0  0  0  0  0
   -1.5783   -0.2903   -0.1143 C   0  0  1  0  0  0  0  0  0  0  0  0
   -1.3202   -0.9105   -1.5384 C   0  0  0  0  0  0  0  0  0  0  0  0
   -1.2641   -2.3715   -1.4270 C   0  0  0  0  0  0  0  0  0  0  0  0
   -0.6409   -3.0936   -2.4738 C   0  0  0  0  0  0  0  0  0  0  0  0
   -0.5653   -4.4545   -2.4502 C   0  0  0  0  0  0  0  0  0  0  0  0
   -1.1262   -5.1291   -1.3504 C   0  0  0  0  0  0  0  0  0  0  0  0
   -1.7281   -4.4408   -0.3337 C   0  0  0  0  0  0  0  0  0  0  0  0
   -1.8015   -3.0572   -0.3634 C   0  0  0  0  0  0  0  0  0  0  0  0
   -2.4985   -2.4122    0.7594 C   0  0  0  0  0  0  0  0  0  0  0  0
   -2.6888   -0.9741    0.4268 N   0  0  0  0  0  0  0  0  0  0  0  0
   -3.9613   -0.4861    0.6354 C   0  0  0  0  0  0  0  0  0  0  0  0
   -4.8840   -1.3209    1.0674 O   0  0  0  0  0  0  0  0  0  0  0  0
   -4.4552    0.8466    0.4361 C   0  0  0  0  0  0  0  0  0  0  0  0
   -5.8241    1.0245    0.1137 C   0  0  0  0  0  0  0  0  0  0  0  0
   -6.4068    2.2559   -0.0329 C   0  0  0  0  0  0  0  0  0  0  0  0
   -5.6646    3.3973    0.1354 C   0  0  0  0  0  0  0  0  0  0  0  0
   -4.3419    3.2801    0.4507 C   0  0  0  0  0  0  0  0  0  0  0  0
   -3.7563    2.0125    0.5968 C   0  0  0  0  0  0  0  0  0  0  0  0
   -3.4522    4.4667    0.6591 C   0  0  0  0  0  0  0  0  0  0  0  0
   -2.1448    4.0445    0.7986 F   0  0  0  0  0  0  0  0  0  0  0  0
   -3.5233    5.3083   -0.4215 F   0  0  0  0  0  0  0  0  0  0  0  0
   -3.8834    5.1502    1.7802 F   0  0  0  0  0  0  0  0  0  0  0  0
    2.6364   -0.8703    1.3128 N   0  0  0  0  0  0  0  0  0  0  0  0
    3.9363   -0.7648    1.4423 O   0  0  0  0  0  0  0  0  0  0  0  0
    5.3940    2.7671    0.5549 H   0  0  0  0  0  0  0  0  0  0  0  0
    5.3670    1.9966    2.1847 H   0  0  0  0  0  0  0  0  0  0  0  0
    6.9493    2.3720    1.3468 H   0  0  0  0  0  0  0  0  0  0  0  0
    5.9628    0.0611   -1.5687 H   0  0  0  0  0  0  0  0  0  0  0  0
    5.8109    1.8892   -1.2939 H   0  0  0  0  0  0  0  0  0  0  0  0
    7.3100    1.0150   -0.9182 H   0  0  0  0  0  0  0  0  0  0  0  0
    6.5103   -1.2823    0.9081 H   0  0  0  0  0  0  0  0  0  0  0  0
    6.6316   -0.0887    2.3257 H   0  0  0  0  0  0  0  0  0  0  0  0
    7.7905    0.0243    0.9116 H   0  0  0  0  0  0  0  0  0  0  0  0
    3.3420    1.6185   -0.5960 H   0  0  0  0  0  0  0  0  0  0  0  0
    0.6562    0.9397   -0.7548 H   0  0  0  0  0  0  0  0  0  0  0  0
   -1.6754    0.7572   -0.3558 H   0  0  0  0  0  0  0  0  0  0  0  0
   -0.3572   -0.4447   -1.8212 H   0  0  0  0  0  0  0  0  0  0  0  0
   -2.1438   -0.5140   -2.1535 H   0  0  0  0  0  0  0  0  0  0  0  0
   -0.2211   -2.4992   -3.2989 H   0  0  0  0  0  0  0  0  0  0  0  0
   -0.0912   -5.0154   -3.2523 H   0  0  0  0  0  0  0  0  0  0  0  0
   -1.0397   -6.2120   -1.3963 H   0  0  0  0  0  0  0  0  0  0  0  0
   -2.1573   -4.9761    0.5098 H   0  0  0  0  0  0  0  0  0  0  0  0
   -3.4873   -2.9071    0.8701 H   0  0  0  0  0  0  0  0  0  0  0  0
   -1.9967   -2.5074    1.7288 H   0  0  0  0  0  0  0  0  0  0  0  0
   -6.4110    0.1137   -0.0227 H   0  0  0  0  0  0  0  0  0  0  0  0
   -7.4564    2.3513   -0.2740 H   0  0  0  0  0  0  0  0  0  0  0  0
   -6.1279    4.3930    0.0140 H   0  0  0  0  0  0  0  0  0  0  0  0
   -2.7061    1.9891    0.9066 H   0  0  0  0  0  0  0  0  0  0  0  0
  1  2  1  0
  2  3  1  0
  2  4  1  0
  2  5  1  0
  5  6  2  0
  6  7  1  0
  7  8  1  0
  8  9  1  0
  9 10  2  0
  9 11  1  0
 11 12  1  0
 12 13  1  0
 13 14  2  0
 14 15  1  0
 15 16  2  0
 16 17  1  0
 17 18  2  0
 18 19  1  0
 19 20  1  0
 20 21  1  0
 21 22  2  0
 21 23  1  0
 23 24  2  0
 24 25  1  0
 25 26  2  0
 26 27  1  0
 27 28  2  0
 27 29  1  0
 29 30  1  0
 29 31  1  0
 29 32  1  0
  7 33  2  0
 33 34  1  0
 34  5  1  0
 20 11  1  0
 28 23  1  0
 18 13  1  0
  1 35  1  0
  1 36  1  0
  1 37  1  0
  3 38  1  0
  3 39  1  0
  3 40  1  0
  4 41  1  0
  4 42  1  0
  4 43  1  0
  6 44  1  0
  8 45  1  0
 11 46  1  6
 12 47  1  0
 12 48  1  0
 14 49  1  0
 15 50  1  0
 16 51  1  0
 17 52  1  0
 19 53  1  0
 19 54  1  0
 24 55  1  0
 25 56  1  0
 26 57  1  0
 28 58  1  0
M  END
$$$$
[H]OC(=O)c1c([H])c([H])c(N([H])C(=O)[C@]2([H])N([H])[C@@]([H])(C([H])([H])C(C([H])([H])[H])(C([H])([H])[H])C([H])([H])[H])[C@](C#N)(c3c([H])c([H])c(Cl)c([H])c3Cl)[C@@]2([H])c2c([H])c([H])c([H])c(Cl)c2F)c(OC([H])([H])[H])c1[H]
     RDKit          3D

 71 74  0  0  0  0  0  0  0  0999 V2000
    5.4864   -1.0156   -2.8934 C   0  0  0  0  0  0  0  0  0  0  0  0
    4.4279   -0.6822   -2.0293 O   0  0  0  0  0  0  0  0  0  0  0  0
    4.7102   -0.2065   -0.7602 C   0  0  0  0  0  0  0  0  0  0  0  0
    5.9941   -0.0529   -0.3280 C   0  0  0  0  0  0  0  0  0  0  0  0
    6.2818    0.4273    0.9451 C   0  0  0  0  0  0  0  0  0  0  0  0
    5.2144    0.7353    1.7409 C   0  0  0  0  0  0  0  0  0  0  0  0
    3.8755    0.5999    1.3559 C   0  0  0  0  0  0  0  0  0  0  0  0
    3.6277    0.1213    0.0838 C   0  0  0  0  0  0  0  0  0  0  0  0
    2.3331   -0.0351   -0.4507 N   0  0  0  0  0  0  0  0  0  0  0  0
    1.1230    0.3308    0.1750 C   0  0  0  0  0  0  0  0  0  0  0  0
    1.0629    0.8292    1.3073 O   0  0  0  0  0  0  0  0  0  0  0  0
   -0.1848    0.1385   -0.5495 C   0  0  2  0  0  0  0  0  0  0  0  0
   -0.9774    1.2669   -0.0885 N   0  0  0  0  0  0  0  0  0  0  0  0
   -2.3516    0.8589    0.0824 C   0  0  1  0  0  0  0  0  0  0  0  0
   -3.1860    1.3098   -1.0519 C   0  0  0  0  0  0  0  0  0  0  0  0
   -3.1399    2.8505   -1.1488 C   0  0  0  0  0  0  0  0  0  0  0  0
   -4.0924    3.2351   -2.2620 C   0  0  0  0  0  0  0  0  0  0  0  0
   -1.7595    3.3255   -1.6039 C   0  0  0  0  0  0  0  0  0  0  0  0
   -3.5254    3.5027    0.1239 C   0  0  0  0  0  0  0  0  0  0  0  0
   -2.3243   -0.6198    0.3665 C   0  0  1  0  0  0  0  0  0  0  0  0
   -3.4692   -1.3451   -0.2059 C   0  0  0  0  0  0  0  0  0  0  0  0
   -4.3901   -1.9332   -0.6167 N   0  0  0  0  0  0  0  0  0  0  0  0
   -0.9912   -1.0234   -0.1868 C   0  0  1  0  0  0  0  0  0  0  0  0
   -0.9553   -2.2655   -0.9078 C   0  0  0  0  0  0  0  0  0  0  0  0
   -0.4079   -3.3947   -0.2905 C   0  0  0  0  0  0  0  0  0  0  0  0
   -0.4853   -4.6619   -0.8126 C   0  0  0  0  0  0  0  0  0  0  0  0
   -1.1372   -4.8684   -2.0195 C   0  0  0  0  0  0  0  0  0  0  0  0
   -1.6807   -3.7882   -2.6508 C   0  0  0  0  0  0  0  0  0  0  0  0
   -2.5172   -3.9858   -4.1831 Cl  0  0  0  0  0  0  0  0  0  0  0  0
   -1.5912   -2.5294   -2.1153 C   0  0  0  0  0  0  0  0  0  0  0  0
   -2.0065   -1.5197   -2.8624 F   0  0  0  0  0  0  0  0  0  0  0  0
   -2.4797   -0.7396    1.8345 C   0  0  0  0  0  0  0  0  0  0  0  0
   -1.4870   -1.2261    2.6544 C   0  0  0  0  0  0  0  0  0  0  0  0
   -1.6271   -1.2697    4.0617 C   0  0  0  0  0  0  0  0  0  0  0  0
   -2.7669   -0.8267    4.6575 C   0  0  0  0  0  0  0  0  0  0  0  0
   -3.0016   -0.8487    6.4064 Cl  0  0  0  0  0  0  0  0  0  0  0  0
   -3.7677   -0.3427    3.8680 C   0  0  0  0  0  0  0  0  0  0  0  0
   -3.5998   -0.3135    2.4780 C   0  0  0  0  0  0  0  0  0  0  0  0
   -4.9844    0.2146    1.6058 Cl  0  0  0  0  0  0  0  0  0  0  0  0
    7.6808    0.6052    1.3925 C   0  0  0  0  0  0  0  0  0  0  0  0
    7.9795    1.0700    2.6423 O   0  0  0  0  0  0  0  0  0  0  0  0
    8.5622    0.3100    0.5684 O   0  0  0  0  0  0  0  0  0  0  0  0
    5.1669   -1.0188   -3.9706 H   0  0  0  0  0  0  0  0  0  0  0  0
    6.3433   -0.3145   -2.8715 H   0  0  0  0  0  0  0  0  0  0  0  0
    5.9153   -2.0215   -2.6240 H   0  0  0  0  0  0  0  0  0  0  0  0
    6.8152   -0.3093   -0.9872 H   0  0  0  0  0  0  0  0  0  0  0  0
    5.4377    1.1151    2.7394 H   0  0  0  0  0  0  0  0  0  0  0  0
    3.1007    0.8698    2.0612 H   0  0  0  0  0  0  0  0  0  0  0  0
    2.2375   -0.4714   -1.3930 H   0  0  0  0  0  0  0  0  0  0  0  0
   -0.0603    0.3283   -1.6383 H   0  0  0  0  0  0  0  0  0  0  0  0
   -0.5881    1.7995    0.6773 H   0  0  0  0  0  0  0  0  0  0  0  0
   -2.7512    1.4295    0.9869 H   0  0  0  0  0  0  0  0  0  0  0  0
   -2.7115    1.0301   -2.0529 H   0  0  0  0  0  0  0  0  0  0  0  0
   -4.2243    1.0262   -1.0275 H   0  0  0  0  0  0  0  0  0  0  0  0
   -3.6079    3.0772   -3.2253 H   0  0  0  0  0  0  0  0  0  0  0  0
   -4.3925    4.3008   -2.0790 H   0  0  0  0  0  0  0  0  0  0  0  0
   -5.0068    2.6032   -2.1536 H   0  0  0  0  0  0  0  0  0  0  0  0
   -1.1871    3.6771   -0.7381 H   0  0  0  0  0  0  0  0  0  0  0  0
   -1.2276    2.6107   -2.2234 H   0  0  0  0  0  0  0  0  0  0  0  0
   -1.9208    4.2351   -2.2639 H   0  0  0  0  0  0  0  0  0  0  0  0
   -2.6840    3.4787    0.8833 H   0  0  0  0  0  0  0  0  0  0  0  0
   -4.4397    3.0676    0.5588 H   0  0  0  0  0  0  0  0  0  0  0  0
   -3.7319    4.5759   -0.0359 H   0  0  0  0  0  0  0  0  0  0  0  0
   -0.3946   -1.3338    0.8092 H   0  0  0  0  0  0  0  0  0  0  0  0
    0.1311   -3.3435    0.6664 H   0  0  0  0  0  0  0  0  0  0  0  0
   -0.0568   -5.5152   -0.3105 H   0  0  0  0  0  0  0  0  0  0  0  0
   -1.1909   -5.8731   -2.4137 H   0  0  0  0  0  0  0  0  0  0  0  0
   -0.5365   -1.6221    2.3674 H   0  0  0  0  0  0  0  0  0  0  0  0
   -0.8433   -1.6445    4.6912 H   0  0  0  0  0  0  0  0  0  0  0  0
   -4.6684    0.0154    4.3209 H   0  0  0  0  0  0  0  0  0  0  0  0
    7.6038    1.9903    2.9136 H   0  0  0  0  0  0  0  0  0  0  0  0
  1  2  1  0
  2  3  1  0
  3  4  2  0
  4  5  1  0
  5  6  2  0
  6  7  1  0
  7  8  2  0
  8  9  1  0
  9 10  1  0
 10 11  2  0
 10 12  1  0
 12 13  1  0
 13 14  1  0
 14 15  1  0
 15 16  1  0
 16 17  1  0
 16 18  1  0
 16 19  1  0
 14 20  1  0
 20 21  1  6
 21 22  3  0
 20 23  1  0
 23 24  1  0
 24 25  2  0
 25 26  1  0
 26 27  2  0
 27 28  1  0
 28 29  1  0
 28 30  2  0
 30 31  1  0
 20 32  1  0
 32 33  2  0
 33 34  1  0
 34 35  2  0
 35 36  1  0
 35 37  1  0
 37 38  2  0
 38 39  1  0
  5 40  1  0
 40 41  1  0
 40 42  2  0
  8  3  1  0
 23 12  1  0
 30 24  1  0
 38 32  1  0
  1 43  1  0
  1 44  1  0
  1 45  1  0
  4 46  1  0
  6 47  1  0
  7 48  1  0
  9 49  1  0
 12 50  1  6
 13 51  1  0
 14 52  1  1
 15 53  1  0
 15 54  1  0
 17 55  1  0
 17 56  1  0
 17 57  1  0
 18 58  1  0
 18 59  1  0
 18 60  1  0
 19 61  1  0
 19 62  1  0
 19 63  1  0
 23 64  1  1
 25 65  1  0
 26 66  1  0
 27 67  1  0
 33 68  1  0
 34 69  1  0
 37 70  1  0
 41 71  1  0
M  END
$$$$
[H]O[C@@]1([H])C([H])([H])[C@]2([H])[C@]1(C([H])([H])[H])C([H])([H])C([H])([H])[C@]1([H])[C@@]3(C([H])([H])[H])C([H])=C([H])C(=O)C([H])=C3C([H])([H])C([H])([H])[C@]12[H]
     RDKit          3D

 44 47  0  0  0  0  0  0  0  0999 V2000
    2.4582    0.5940   -1.3518 C   0  0  0  0  0  0  0  0  0  0  0  0
    2.3682   -0.5202   -0.3599 C   0  0  2  0  0  0  0  0  0  0  0  0
    1.6431   -1.6954   -0.8495 C   0  0  0  0  0  0  0  0  0  0  0  0
    0.2283   -1.2618   -1.1728 C   0  0  0  0  0  0  0  0  0  0  0  0
   -0.4424   -0.5601   -0.0126 C   0  0  1  0  0  0  0  0  0  0  0  0
    0.4309    0.5769    0.5423 C   0  0  1  0  0  0  0  0  0  0  0  0
   -0.2636    1.2591    1.6754 C   0  0  0  0  0  0  0  0  0  0  0  0
   -1.4786    1.9967    1.0807 C   0  0  0  0  0  0  0  0  0  0  0  0
   -2.3560    0.8340    0.6501 C   0  0  0  0  0  0  0  0  0  0  0  0
   -3.5447    0.6850    1.1520 C   0  0  0  0  0  0  0  0  0  0  0  0
   -4.4598   -0.4008    0.8117 C   0  0  0  0  0  0  0  0  0  0  0  0
   -5.5949   -0.5273    1.3001 O   0  0  0  0  0  0  0  0  0  0  0  0
   -3.9588   -1.3624   -0.1630 C   0  0  0  0  0  0  0  0  0  0  0  0
   -2.7527   -1.1748   -0.6502 C   0  0  0  0  0  0  0  0  0  0  0  0
   -1.8188   -0.1013   -0.3460 C   0  0  2  0  0  0  0  0  0  0  0  0
   -1.7026    0.7321   -1.6480 C   0  0  0  0  0  0  0  0  0  0  0  0
    1.6599   -0.1441    0.9573 C   0  0  2  0  0  0  0  0  0  0  0  0
    2.8952    0.4792    1.3518 C   0  0  0  0  0  0  0  0  0  0  0  0
    3.5751   -0.6089    0.4846 C   0  0  2  0  0  0  0  0  0  0  0  0
    4.7466   -0.0866   -0.0409 O   0  0  0  0  0  0  0  0  0  0  0  0
    3.2721    0.3039   -2.0741 H   0  0  0  0  0  0  0  0  0  0  0  0
    1.5667    0.7783   -1.9447 H   0  0  0  0  0  0  0  0  0  0  0  0
    2.7858    1.5603   -0.9223 H   0  0  0  0  0  0  0  0  0  0  0  0
    2.0768   -2.0738   -1.8031 H   0  0  0  0  0  0  0  0  0  0  0  0
    1.5765   -2.5374   -0.1512 H   0  0  0  0  0  0  0  0  0  0  0  0
    0.1714   -0.6952   -2.1195 H   0  0  0  0  0  0  0  0  0  0  0  0
   -0.3460   -2.2058   -1.3407 H   0  0  0  0  0  0  0  0  0  0  0  0
   -0.5090   -1.3058    0.8063 H   0  0  0  0  0  0  0  0  0  0  0  0
    0.6360    1.3504   -0.2231 H   0  0  0  0  0  0  0  0  0  0  0  0
   -0.6969    0.4682    2.3388 H   0  0  0  0  0  0  0  0  0  0  0  0
    0.3793    1.9567    2.2298 H   0  0  0  0  0  0  0  0  0  0  0  0
   -1.1739    2.5031    0.1495 H   0  0  0  0  0  0  0  0  0  0  0  0
   -1.9376    2.6213    1.8335 H   0  0  0  0  0  0  0  0  0  0  0  0
   -3.9218    1.4156    1.8933 H   0  0  0  0  0  0  0  0  0  0  0  0
   -4.5781   -2.1975   -0.4617 H   0  0  0  0  0  0  0  0  0  0  0  0
   -2.4484   -1.9565   -1.3817 H   0  0  0  0  0  0  0  0  0  0  0  0
   -0.8594    1.4029   -1.5316 H   0  0  0  0  0  0  0  0  0  0  0  0
   -1.6518    0.1027   -2.5345 H   0  0  0  0  0  0  0  0  0  0  0  0
   -2.6206    1.3639   -1.7555 H   0  0  0  0  0  0  0  0  0  0  0  0
    1.4186   -1.0647    1.5247 H   0  0  0  0  0  0  0  0  0  0  0  0
    3.1516    1.4939    1.0833 H   0  0  0  0  0  0  0  0  0  0  0  0
    3.1437    0.3122    2.4402 H   0  0  0  0  0  0  0  0  0  0  0  0
    3.7053   -1.5224    1.0917 H   0  0  0  0  0  0  0  0  0  0  0  0
    5.2270   -0.7877   -0.5588 H   0  0  0  0  0  0  0  0  0  0  0  0
  2  1  1  6
  2  3  1  0
  3  4  1  0
  4  5  1  0
  5  6  1  0
  6  7  1  0
  7  8  1  0
  8  9  1  0
  9 10  2  0
 10 11  1  0
 11 12  2  0
 11 13  1  0
 13 14  2  0
 14 15  1  0
 15 16  1  6
  6 17  1  0
 17 18  1  0
 18 19  1  0
 19 20  1  0
 17  2  1  0
 19  2  1  0
 15  5  1  0
 15  9  1  0
  1 21  1  0
  1 22  1  0
  1 23  1  0
  3 24  1  0
  3 25  1  0
  4 26  1  0
  4 27  1  0
  5 28  1  1
  6 29  1  6
  7 30  1  0
  7 31  1  0
  8 32  1  0
  8 33  1  0
 10 34  1  0
 13 35  1  0
 14 36  1  0
 16 37  1  0
 16 38  1  0
 16 39  1  0
 17 40  1  1
 18 41  1  0
 18 42  1  0
 19 43  1  1
 20 44  1  0
M  END
$$$$
[H]OC(=O)[C@@]([H])(N([H])C(=O)[C@]([H])(C([H])([H])S[H])C([H])([H])c1c([H])c([H])c([H])c([H])c1[H])C([H])([H])[H]
     RDKit          3D

 35 35  0  0  0  0  0  0  0  0999 V2000
    2.6281   -0.9252    1.8963 C   0  0  0  0  0  0  0  0  0  0  0  0
    2.6449    0.2071    0.8683 C   0  0  2  0  0  0  0  0  0  0  0  0
    1.7845   -0.0640   -0.2476 N   0  0  0  0  0  0  0  0  0  0  0  0
    0.6982    0.7953   -0.5724 C   0  0  0  0  0  0  0  0  0  0  0  0
    0.4942    1.8289    0.1534 O   0  0  0  0  0  0  0  0  0  0  0  0
   -0.1865    0.5053   -1.7299 C   0  0  2  0  0  0  0  0  0  0  0  0
   -1.1517    1.6658   -1.8721 C   0  0  0  0  0  0  0  0  0  0  0  0
   -0.1199    3.1471   -2.1535 S   0  0  0  0  0  0  0  0  0  0  0  0
   -0.8989   -0.8096   -1.5956 C   0  0  0  0  0  0  0  0  0  0  0  0
   -1.7776   -0.9294   -0.4257 C   0  0  0  0  0  0  0  0  0  0  0  0
   -1.4149   -1.4294    0.8016 C   0  0  0  0  0  0  0  0  0  0  0  0
   -2.3160   -1.5010    1.8634 C   0  0  0  0  0  0  0  0  0  0  0  0
   -3.6146   -1.0715    1.7257 C   0  0  0  0  0  0  0  0  0  0  0  0
   -3.9922   -0.5678    0.4997 C   0  0  0  0  0  0  0  0  0  0  0  0
   -3.1014   -0.4969   -0.5494 C   0  0  0  0  0  0  0  0  0  0  0  0
    4.0669    0.3589    0.4503 C   0  0  0  0  0  0  0  0  0  0  0  0
    5.0456    0.6219    1.3727 O   0  0  0  0  0  0  0  0  0  0  0  0
    4.3256    0.2367   -0.7707 O   0  0  0  0  0  0  0  0  0  0  0  0
    2.4053   -1.9043    1.4150 H   0  0  0  0  0  0  0  0  0  0  0  0
    3.6242   -1.0106    2.3844 H   0  0  0  0  0  0  0  0  0  0  0  0
    1.8397   -0.7427    2.6527 H   0  0  0  0  0  0  0  0  0  0  0  0
    2.3030    1.1407    1.3644 H   0  0  0  0  0  0  0  0  0  0  0  0
    1.9386   -0.8986   -0.8445 H   0  0  0  0  0  0  0  0  0  0  0  0
    0.4524    0.5078   -2.6350 H   0  0  0  0  0  0  0  0  0  0  0  0
   -1.7109    1.8247   -0.9376 H   0  0  0  0  0  0  0  0  0  0  0  0
   -1.8354    1.5597   -2.7166 H   0  0  0  0  0  0  0  0  0  0  0  0
   -0.7570    4.0715   -2.9762 H   0  0  0  0  0  0  0  0  0  0  0  0
   -0.1131   -1.5988   -1.5476 H   0  0  0  0  0  0  0  0  0  0  0  0
   -1.4325   -0.9869   -2.5593 H   0  0  0  0  0  0  0  0  0  0  0  0
   -0.3985   -1.7760    0.9254 H   0  0  0  0  0  0  0  0  0  0  0  0
   -2.0110   -1.8970    2.8195 H   0  0  0  0  0  0  0  0  0  0  0  0
   -4.3348   -1.1203    2.5478 H   0  0  0  0  0  0  0  0  0  0  0  0
   -5.0258   -0.2343    0.4163 H   0  0  0  0  0  0  0  0  0  0  0  0
   -3.4251   -0.1001   -1.4909 H   0  0  0  0  0  0  0  0  0  0  0  0
    5.3667    1.5926    1.4678 H   0  0  0  0  0  0  0  0  0  0  0  0
  1  2  1  0
  2  3  1  0
  3  4  1  0
  4  5  2  0
  4  6  1  0
  6  7  1  0
  7  8  1  0
  6  9  1  0
  9 10  1  0
 10 11  2  0
 11 12  1  0
 12 13  2  0
 13 14  1  0
 14 15  2  0
  2 16  1  0
 16 17  1  0
 16 18  2  0
 15 10  1  0
  1 19  1  0
  1 20  1  0
  1 21  1  0
  2 22  1  1
  3 23  1  0
  6 24  1  6
  7 25  1  0
  7 26  1  0
  8 27  1  0
  9 28  1  0
  9 29  1  0
 11 30  1  0
 12 31  1  0
 13 32  1  0
 14 33  1  0
 15 34  1  0
 17 35  1  0
M  END
$$$$
[H]/C(C(=O)N1C([H])([H])C([H])([H])C([H])([H])[C@@]([H])(n2nc(-c3c([H])c([H])c(Oc4c([H])c([H])c([H])c([H])c4[H])c([H])c3[H])c3c(N([H])[H])nc([H])nc32)C1([H])[H])=C(/[H])C([H])([H])N(C([H])([H])[H])C([H])([H])[H]
     RDKit          3D

 68 72  0  0  0  0  0  0  0  0999 V2000
   -6.2361    3.7076   -0.3725 C   0  0  0  0  0  0  0  0  0  0  0  0
   -7.1462    3.2511    0.6535 N   0  0  0  0  0  0  0  0  0  0  0  0
   -8.3764    2.7490    0.0474 C   0  0  0  0  0  0  0  0  0  0  0  0
   -6.5490    2.1900    1.4787 C   0  0  0  0  0  0  0  0  0  0  0  0
   -6.3625    0.9536    0.7025 C   0  0  0  0  0  0  0  0  0  0  0  0
   -5.1945    0.3581    0.4935 C   0  0  0  0  0  0  0  0  0  0  0  0
   -5.1198   -0.8680   -0.2939 C   0  0  0  0  0  0  0  0  0  0  0  0
   -6.2034   -1.3272   -0.7618 O   0  0  0  0  0  0  0  0  0  0  0  0
   -3.9018   -1.5379   -0.5407 N   0  0  0  0  0  0  0  0  0  0  0  0
   -3.9287   -2.7570   -1.3481 C   0  0  0  0  0  0  0  0  0  0  0  0
   -2.9077   -2.6693   -2.4723 C   0  0  0  0  0  0  0  0  0  0  0  0
   -1.5723   -2.2270   -1.9672 C   0  0  0  0  0  0  0  0  0  0  0  0
   -1.6225   -2.1903   -0.4493 C   0  0  2  0  0  0  0  0  0  0  0  0
   -2.6049   -1.1151   -0.0527 C   0  0  0  0  0  0  0  0  0  0  0  0
   -0.2922   -1.9324    0.0755 N   0  0  0  0  0  0  0  0  0  0  0  0
    0.7816   -1.5326   -0.5599 N   0  0  0  0  0  0  0  0  0  0  0  0
    1.8504   -1.4170    0.2793 C   0  0  0  0  0  0  0  0  0  0  0  0
    3.1890   -1.0317   -0.1183 C   0  0  0  0  0  0  0  0  0  0  0  0
    3.8645   -1.7689   -1.0932 C   0  0  0  0  0  0  0  0  0  0  0  0
    5.1139   -1.3832   -1.5274 C   0  0  0  0  0  0  0  0  0  0  0  0
    5.7213   -0.2520   -0.9995 C   0  0  0  0  0  0  0  0  0  0  0  0
    6.9959    0.1100   -1.4653 O   0  0  0  0  0  0  0  0  0  0  0  0
    7.5965    1.2372   -0.9131 C   0  0  0  0  0  0  0  0  0  0  0  0
    8.3892    1.1539    0.2129 C   0  0  0  0  0  0  0  0  0  0  0  0
    8.9896    2.2625    0.7696 C   0  0  0  0  0  0  0  0  0  0  0  0
    8.8220    3.5157    0.2183 C   0  0  0  0  0  0  0  0  0  0  0  0
    8.0300    3.6148   -0.9112 C   0  0  0  0  0  0  0  0  0  0  0  0
    7.4295    2.5047   -1.4671 C   0  0  0  0  0  0  0  0  0  0  0  0
    5.0616    0.4701   -0.0468 C   0  0  0  0  0  0  0  0  0  0  0  0
    3.8142    0.0734    0.3767 C   0  0  0  0  0  0  0  0  0  0  0  0
    1.4287   -1.7669    1.5236 C   0  0  0  0  0  0  0  0  0  0  0  0
    2.0332   -1.8690    2.7670 C   0  0  0  0  0  0  0  0  0  0  0  0
    3.4164   -1.5956    2.9550 N   0  0  0  0  0  0  0  0  0  0  0  0
    1.2620   -2.2789    3.7987 N   0  0  0  0  0  0  0  0  0  0  0  0
   -0.0362   -2.5883    3.6838 C   0  0  0  0  0  0  0  0  0  0  0  0
   -0.5883   -2.4813    2.4681 N   0  0  0  0  0  0  0  0  0  0  0  0
    0.0712   -2.0877    1.3740 C   0  0  0  0  0  0  0  0  0  0  0  0
   -5.2109    3.6468    0.0390 H   0  0  0  0  0  0  0  0  0  0  0  0
   -6.3421    3.1163   -1.3225 H   0  0  0  0  0  0  0  0  0  0  0  0
   -6.4184    4.7538   -0.6572 H   0  0  0  0  0  0  0  0  0  0  0  0
   -8.9315    2.2146    0.8217 H   0  0  0  0  0  0  0  0  0  0  0  0
   -8.9061    3.6352   -0.3684 H   0  0  0  0  0  0  0  0  0  0  0  0
   -8.1510    2.1015   -0.8297 H   0  0  0  0  0  0  0  0  0  0  0  0
   -7.2672    2.0680    2.3335 H   0  0  0  0  0  0  0  0  0  0  0  0
   -5.5998    2.5533    1.9084 H   0  0  0  0  0  0  0  0  0  0  0  0
   -7.2486    0.4942    0.2679 H   0  0  0  0  0  0  0  0  0  0  0  0
   -4.2963    0.8077    0.9240 H   0  0  0  0  0  0  0  0  0  0  0  0
   -3.8547   -3.6733   -0.7631 H   0  0  0  0  0  0  0  0  0  0  0  0
   -4.9231   -2.8277   -1.8865 H   0  0  0  0  0  0  0  0  0  0  0  0
   -3.3392   -1.9281   -3.2089 H   0  0  0  0  0  0  0  0  0  0  0  0
   -2.8794   -3.6788   -2.9474 H   0  0  0  0  0  0  0  0  0  0  0  0
   -1.3941   -1.1836   -2.2974 H   0  0  0  0  0  0  0  0  0  0  0  0
   -0.7277   -2.8311   -2.3364 H   0  0  0  0  0  0  0  0  0  0  0  0
   -2.0044   -3.1820   -0.1074 H   0  0  0  0  0  0  0  0  0  0  0  0
   -2.6105   -0.9455    1.0443 H   0  0  0  0  0  0  0  0  0  0  0  0
   -2.3160   -0.1952   -0.6121 H   0  0  0  0  0  0  0  0  0  0  0  0
    3.3512   -2.6398   -1.4735 H   0  0  0  0  0  0  0  0  0  0  0  0
    5.6079   -1.9770   -2.2846 H   0  0  0  0  0  0  0  0  0  0  0  0
    8.5511    0.1949    0.6817 H   0  0  0  0  0  0  0  0  0  0  0  0
    9.6105    2.1966    1.6524 H   0  0  0  0  0  0  0  0  0  0  0  0
    9.2963    4.3871    0.6595 H   0  0  0  0  0  0  0  0  0  0  0  0
    7.9081    4.6111   -1.3341 H   0  0  0  0  0  0  0  0  0  0  0  0
    6.8034    2.6018   -2.3648 H   0  0  0  0  0  0  0  0  0  0  0  0
    5.5196    1.3448    0.3683 H   0  0  0  0  0  0  0  0  0  0  0  0
    3.3094    0.7054    1.1367 H   0  0  0  0  0  0  0  0  0  0  0  0
    3.6744   -0.7045    3.4232 H   0  0  0  0  0  0  0  0  0  0  0  0
    4.1944   -2.2227    2.6587 H   0  0  0  0  0  0  0  0  0  0  0  0
   -0.6238   -2.9181    4.5557 H   0  0  0  0  0  0  0  0  0  0  0  0
  1  2  1  0
  2  3  1  0
  2  4  1  0
  4  5  1  0
  5  6  2  0
  6  7  1  0
  7  8  2  0
  7  9  1  0
  9 10  1  0
 10 11  1  0
 11 12  1  0
 12 13  1  0
 13 14  1  0
 13 15  1  0
 15 16  1  0
 16 17  2  0
 17 18  1  0
 18 19  2  0
 19 20  1  0
 20 21  2  0
 21 22  1  0
 22 23  1  0
 23 24  2  0
 24 25  1  0
 25 26  2  0
 26 27  1  0
 27 28  2  0
 21 29  1  0
 29 30  2  0
 17 31  1  0
 31 32  2  0
 32 33  1  0
 32 34  1  0
 34 35  2  0
 35 36  1  0
 36 37  2  0
 14  9  1  0
 37 15  1  0
 30 18  1  0
 37 31  1  0
 28 23  1  0
  1 38  1  0
  1 39  1  0
  1 40  1  0
  3 41  1  0
  3 42  1  0
  3 43  1  0
  4 44  1  0
  4 45  1  0
  5 46  1  0
  6 47  1  0
 10 48  1  0
 10 49  1  0
 11 50  1  0
 11 51  1  0
 12 52  1  0
 12 53  1  0
 13 54  1  1
 14 55  1  0
 14 56  1  0
 19 57  1  0
 20 58  1  0
 24 59  1  0
 25 60  1  0
 26 61  1  0
 27 62  1  0
 28 63  1  0
 29 64  1  0
 30 65  1  0
 33 66  1  0
 33 67  1  0
 35 68  1  0
M  END
$$$$
[H]c1c(OC([H])([H])[H])c(OC([H])([H])[H])c(OC([H])([H])[H])c([H])c1C(=O)N1C([H])([H])C([H])([H])C([H])(c2nc3c([H])c([H])c([H])c([H])c3n2[H])C([H])([H])C1([H])[H]
     RDKit          3D

 54 57  0  0  0  0  0  0  0  0999 V2000
   -6.0525    1.9208    1.1535 C   0  0  0  0  0  0  0  0  0  0  0  0
   -5.8350    1.0379    0.0748 O   0  0  0  0  0  0  0  0  0  0  0  0
   -4.5806    0.4034   -0.0078 C   0  0  0  0  0  0  0  0  0  0  0  0
   -3.5991    0.6273    0.9194 C   0  0  0  0  0  0  0  0  0  0  0  0
   -2.3399   -0.0090    0.8372 C   0  0  0  0  0  0  0  0  0  0  0  0
   -2.2017   -0.8476   -0.2311 C   0  0  0  0  0  0  0  0  0  0  0  0
   -3.2077   -1.0788   -1.1835 C   0  0  0  0  0  0  0  0  0  0  0  0
   -3.0087   -1.9433   -2.2489 O   0  0  0  0  0  0  0  0  0  0  0  0
   -1.7548   -2.5907   -2.3512 C   0  0  0  0  0  0  0  0  0  0  0  0
   -4.4174   -0.4465   -1.0753 C   0  0  0  0  0  0  0  0  0  0  0  0
   -5.3932   -0.6862   -2.0198 O   0  0  0  0  0  0  0  0  0  0  0  0
   -5.4405    0.1415   -3.1685 C   0  0  0  0  0  0  0  0  0  0  0  0
   -1.3465    0.2790    1.8433 C   0  0  0  0  0  0  0  0  0  0  0  0
   -1.7268    1.1744    2.7361 O   0  0  0  0  0  0  0  0  0  0  0  0
   -0.0728   -0.2102    2.0432 N   0  0  0  0  0  0  0  0  0  0  0  0
    0.6257   -1.1885    1.2702 C   0  0  0  0  0  0  0  0  0  0  0  0
    1.9384   -1.5693    1.9831 C   0  0  0  0  0  0  0  0  0  0  0  0
    2.8457   -0.4071    2.1941 C   0  0  0  0  0  0  0  0  0  0  0  0
    2.0173    0.7953    2.6712 C   0  0  0  0  0  0  0  0  0  0  0  0
    0.6980    0.3311    3.1908 C   0  0  0  0  0  0  0  0  0  0  0  0
    3.5822   -0.0228    0.9730 C   0  0  0  0  0  0  0  0  0  0  0  0
    3.1015    0.3276   -0.2360 N   0  0  0  0  0  0  0  0  0  0  0  0
    4.1101    0.6075   -1.0827 C   0  0  0  0  0  0  0  0  0  0  0  0
    4.1950    1.0083   -2.4106 C   0  0  0  0  0  0  0  0  0  0  0  0
    5.4274    1.2205   -3.0116 C   0  0  0  0  0  0  0  0  0  0  0  0
    6.5834    1.0322   -2.2848 C   0  0  0  0  0  0  0  0  0  0  0  0
    6.4939    0.6346   -0.9678 C   0  0  0  0  0  0  0  0  0  0  0  0
    5.2613    0.4268   -0.3817 C   0  0  0  0  0  0  0  0  0  0  0  0
    4.9100    0.0437    0.8652 N   0  0  0  0  0  0  0  0  0  0  0  0
   -5.3744    2.8003    1.1107 H   0  0  0  0  0  0  0  0  0  0  0  0
   -5.9217    1.4479    2.1432 H   0  0  0  0  0  0  0  0  0  0  0  0
   -7.1125    2.2569    1.0799 H   0  0  0  0  0  0  0  0  0  0  0  0
   -3.7836    1.3056    1.7374 H   0  0  0  0  0  0  0  0  0  0  0  0
   -1.2833   -1.3801   -0.3983 H   0  0  0  0  0  0  0  0  0  0  0  0
   -1.5423   -3.2073   -1.4461 H   0  0  0  0  0  0  0  0  0  0  0  0
   -1.6889   -3.2247   -3.2564 H   0  0  0  0  0  0  0  0  0  0  0  0
   -0.9385   -1.8299   -2.4355 H   0  0  0  0  0  0  0  0  0  0  0  0
   -5.6961    1.1828   -2.8732 H   0  0  0  0  0  0  0  0  0  0  0  0
   -6.1931   -0.2484   -3.9073 H   0  0  0  0  0  0  0  0  0  0  0  0
   -4.4494    0.1941   -3.6673 H   0  0  0  0  0  0  0  0  0  0  0  0
    0.8547   -0.8756    0.2334 H   0  0  0  0  0  0  0  0  0  0  0  0
    0.0329   -2.1323    1.2823 H   0  0  0  0  0  0  0  0  0  0  0  0
    2.4165   -2.4053    1.4276 H   0  0  0  0  0  0  0  0  0  0  0  0
    1.6428   -1.9866    2.9601 H   0  0  0  0  0  0  0  0  0  0  0  0
    3.5900   -0.6317    2.9950 H   0  0  0  0  0  0  0  0  0  0  0  0
    2.6070    1.3765    3.3828 H   0  0  0  0  0  0  0  0  0  0  0  0
    1.8095    1.3965    1.7466 H   0  0  0  0  0  0  0  0  0  0  0  0
    0.7437   -0.4837    3.9297 H   0  0  0  0  0  0  0  0  0  0  0  0
    0.1788    1.2161    3.6110 H   0  0  0  0  0  0  0  0  0  0  0  0
    3.2905    1.1523   -2.9681 H   0  0  0  0  0  0  0  0  0  0  0  0
    5.4522    1.5361   -4.0609 H   0  0  0  0  0  0  0  0  0  0  0  0
    7.5452    1.2005   -2.7625 H   0  0  0  0  0  0  0  0  0  0  0  0
    7.4198    0.4927   -0.4154 H   0  0  0  0  0  0  0  0  0  0  0  0
    5.5878   -0.1647    1.6187 H   0  0  0  0  0  0  0  0  0  0  0  0
  1  2  1  0
  2  3  1  0
  3  4  2  0
  4  5  1  0
  5  6  2  0
  6  7  1  0
  7  8  1  0
  8  9  1  0
  7 10  2  0
 10 11  1  0
 11 12  1  0
  5 13  1  0
 13 14  2  0
 13 15  1  0
 15 16  1  0
 16 17  1  0
 17 18  1  0
 18 19  1  0
 19 20  1  0
 18 21  1  0
 21 22  2  0
 22 23  1  0
 23 24  2  0
 24 25  1  0
 25 26  2  0
 26 27  1  0
 27 28  2  0
 28 29  1  0
 10  3  1  0
 20 15  1  0
 29 21  1  0
 28 23  1  0
  1 30  1  0
  1 31  1  0
  1 32  1  0
  4 33  1  0
  6 34  1  0
  9 35  1  0
  9 36  1  0
  9 37  1  0
 12 38  1  0
 12 39  1  0
 12 40  1  0
 16 41  1  0
 16 42  1  0
 17 43  1  0
 17 44  1  0
 18 45  1  0
 19 46  1  0
 19 47  1  0
 20 48  1  0
 20 49  1  0
 24 50  1  0
 25 51  1  0
 26 52  1  0
 27 53  1  0
 29 54  1  0
M  END
$$$$
[H]OC(C([H])([H])[H])(C([H])([H])[H])C([H])([H])N([H])S(=O)(=O)c1c([H])c([H])c(C([H])([H])[H])c(-c2c([H])nc(N([H])[H])c(-c3c([H])c([H])nc(C([H])([H])[H])c3[H])c2[H])c1[H]
     RDKit          3D

 56 58  0  0  0  0  0  0  0  0999 V2000
   -6.6220    0.9611    2.1897 C   0  0  0  0  0  0  0  0  0  0  0  0
   -6.0412    1.2203    0.8387 C   0  0  0  0  0  0  0  0  0  0  0  0
   -4.9762    0.4690    0.3877 C   0  0  0  0  0  0  0  0  0  0  0  0
   -4.4297    0.6986   -0.8599 C   0  0  0  0  0  0  0  0  0  0  0  0
   -4.9707    1.6927   -1.6422 C   0  0  0  0  0  0  0  0  0  0  0  0
   -6.0402    2.4173   -1.1402 C   0  0  0  0  0  0  0  0  0  0  0  0
   -6.5648    2.1854    0.0762 N   0  0  0  0  0  0  0  0  0  0  0  0
   -3.3038   -0.1251   -1.2691 C   0  0  0  0  0  0  0  0  0  0  0  0
   -2.2183   -0.3351   -0.4412 C   0  0  0  0  0  0  0  0  0  0  0  0
   -1.1234   -1.1166   -0.8155 C   0  0  0  0  0  0  0  0  0  0  0  0
   -1.1886   -1.6731   -2.0740 C   0  0  0  0  0  0  0  0  0  0  0  0
   -2.2405   -1.4738   -2.8845 N   0  0  0  0  0  0  0  0  0  0  0  0
   -3.3055   -0.7097   -2.5115 C   0  0  0  0  0  0  0  0  0  0  0  0
   -4.4075   -0.5200   -3.3832 N   0  0  0  0  0  0  0  0  0  0  0  0
   -0.0157   -1.2772    0.1035 C   0  0  0  0  0  0  0  0  0  0  0  0
    0.5896   -0.1753    0.7165 C   0  0  0  0  0  0  0  0  0  0  0  0
    1.6486   -0.3080    1.5812 C   0  0  0  0  0  0  0  0  0  0  0  0
    2.1369   -1.5621    1.8597 C   0  0  0  0  0  0  0  0  0  0  0  0
    1.5480   -2.6556    1.2616 C   0  0  0  0  0  0  0  0  0  0  0  0
    0.4705   -2.5235    0.3818 C   0  0  0  0  0  0  0  0  0  0  0  0
   -0.1182   -3.7358   -0.2120 C   0  0  0  0  0  0  0  0  0  0  0  0
    2.3662    1.1251    2.3206 S   0  0  0  0  0  0  0  0  0  0  0  0
    2.8598    0.7880    3.6911 O   0  0  0  0  0  0  0  0  0  0  0  0
    1.3150    2.1858    2.3782 O   0  0  0  0  0  0  0  0  0  0  0  0
    3.6486    1.7309    1.3108 N   0  0  0  0  0  0  0  0  0  0  0  0
    4.6408    0.6570    1.2425 C   0  0  0  0  0  0  0  0  0  0  0  0
    5.7676    1.1528    0.3720 C   0  0  0  0  0  0  0  0  0  0  0  0
    5.1968    1.5175   -0.9763 C   0  0  0  0  0  0  0  0  0  0  0  0
    6.8714    0.1349    0.2408 C   0  0  0  0  0  0  0  0  0  0  0  0
    6.3177    2.2954    0.9377 O   0  0  0  0  0  0  0  0  0  0  0  0
   -6.9437    1.9081    2.6353 H   0  0  0  0  0  0  0  0  0  0  0  0
   -7.5516    0.3567    2.0068 H   0  0  0  0  0  0  0  0  0  0  0  0
   -5.9243    0.4610    2.8642 H   0  0  0  0  0  0  0  0  0  0  0  0
   -4.6069   -0.2958    1.0646 H   0  0  0  0  0  0  0  0  0  0  0  0
   -4.5856    1.9128   -2.6066 H   0  0  0  0  0  0  0  0  0  0  0  0
   -6.5040    3.2150   -1.7214 H   0  0  0  0  0  0  0  0  0  0  0  0
   -2.2382    0.1388    0.5414 H   0  0  0  0  0  0  0  0  0  0  0  0
   -0.3768   -2.2862   -2.4361 H   0  0  0  0  0  0  0  0  0  0  0  0
   -4.2035   -0.2039   -4.3546 H   0  0  0  0  0  0  0  0  0  0  0  0
   -5.4074   -0.6705   -3.1339 H   0  0  0  0  0  0  0  0  0  0  0  0
    0.1860    0.7957    0.4797 H   0  0  0  0  0  0  0  0  0  0  0  0
    2.9699   -1.6579    2.5406 H   0  0  0  0  0  0  0  0  0  0  0  0
    1.9198   -3.6487    1.4698 H   0  0  0  0  0  0  0  0  0  0  0  0
    0.0408   -4.5672    0.5445 H   0  0  0  0  0  0  0  0  0  0  0  0
    0.4114   -4.1008   -1.1174 H   0  0  0  0  0  0  0  0  0  0  0  0
   -1.2023   -3.6895   -0.3556 H   0  0  0  0  0  0  0  0  0  0  0  0
    4.1070    2.5017    1.8412 H   0  0  0  0  0  0  0  0  0  0  0  0
    5.0045    0.3771    2.2540 H   0  0  0  0  0  0  0  0  0  0  0  0
    4.1586   -0.1822    0.7343 H   0  0  0  0  0  0  0  0  0  0  0  0
    4.2039    1.9572   -0.8422 H   0  0  0  0  0  0  0  0  0  0  0  0
    5.0729    0.5468   -1.5359 H   0  0  0  0  0  0  0  0  0  0  0  0
    5.9236    2.1802   -1.4910 H   0  0  0  0  0  0  0  0  0  0  0  0
    7.5236    0.4624   -0.5993 H   0  0  0  0  0  0  0  0  0  0  0  0
    6.4909   -0.8979    0.1048 H   0  0  0  0  0  0  0  0  0  0  0  0
    7.4847    0.1571    1.1536 H   0  0  0  0  0  0  0  0  0  0  0  0
    6.2354    2.1888    1.9361 H   0  0  0  0  0  0  0  0  0  0  0  0
  1  2  1  0
  2  3  2  0
  3  4  1  0
  4  5  2  0
  5  6  1  0
  6  7  2  0
  4  8  1  0
  8  9  2  0
  9 10  1  0
 10 11  2  0
 11 12  1  0
 12 13  2  0
 13 14  1  0
 10 15  1  0
 15 16  2  0
 16 17  1  0
 17 18  2  0
 18 19  1  0
 19 20  2  0
 20 21  1  0
 17 22  1  0
 22 23  2  0
 22 24  2  0
 22 25  1  0
 25 26  1  0
 26 27  1  0
 27 28  1  0
 27 29  1  0
 27 30  1  0
  7  2  1  0
 13  8  1  0
 20 15  1  0
  1 31  1  0
  1 32  1  0
  1 33  1  0
  3 34  1  0
  5 35  1  0
  6 36  1  0
  9 37  1  0
 11 38  1  0
 14 39  1  0
 14 40  1  0
 16 41  1  0
 18 42  1  0
 19 43  1  0
 21 44  1  0
 21 45  1  0
 21 46  1  0
 25 47  1  0
 26 48  1  0
 26 49  1  0
 28 50  1  0
 28 51  1  0
 28 52  1  0
 29 53  1  0
 29 54  1  0
 29 55  1  0
 30 56  1  0
M  END
$$$$
[H]Oc1c([H])c([H])c([H])c(C2([H])C([H])([H])C([H])([H])N([C@@]3([H])C([H])([H])C([H])([H])C([H])([H])C([H])([H])[C@@]3([H])O[H])C([H])([H])C2([H])[H])c1[H]
     RDKit          3D

 45 47  0  0  0  0  0  0  0  0999 V2000
   -2.6365    2.4196    0.4942 O   0  0  0  0  0  0  0  0  0  0  0  0
   -3.2116    1.2182    0.1666 C   0  0  2  0  0  0  0  0  0  0  0  0
   -3.9403    0.5984    1.3600 C   0  0  0  0  0  0  0  0  0  0  0  0
   -4.9651   -0.3484    0.8043 C   0  0  0  0  0  0  0  0  0  0  0  0
   -4.4834   -0.9123   -0.5343 C   0  0  0  0  0  0  0  0  0  0  0  0
   -2.9895   -1.1256   -0.4019 C   0  0  0  0  0  0  0  0  0  0  0  0
   -2.2941    0.2171   -0.4530 C   0  0  2  0  0  0  0  0  0  0  0  0
   -0.9814    0.1686    0.0851 N   0  0  0  0  0  0  0  0  0  0  0  0
   -0.1830    1.3019   -0.0269 C   0  0  0  0  0  0  0  0  0  0  0  0
    1.2607    1.1513   -0.3321 C   0  0  0  0  0  0  0  0  0  0  0  0
    1.8420   -0.0491    0.3357 C   0  0  0  0  0  0  0  0  0  0  0  0
    1.0230   -1.2443   -0.0985 C   0  0  0  0  0  0  0  0  0  0  0  0
   -0.4228   -1.0851    0.3438 C   0  0  0  0  0  0  0  0  0  0  0  0
    3.2388   -0.3017   -0.0865 C   0  0  0  0  0  0  0  0  0  0  0  0
    3.5448   -0.5189   -1.4048 C   0  0  0  0  0  0  0  0  0  0  0  0
    4.8498   -0.7514   -1.7728 C   0  0  0  0  0  0  0  0  0  0  0  0
    5.8487   -0.7654   -0.8110 C   0  0  0  0  0  0  0  0  0  0  0  0
    5.5538   -0.5459    0.5370 C   0  0  0  0  0  0  0  0  0  0  0  0
    6.5913   -0.5714    1.4502 O   0  0  0  0  0  0  0  0  0  0  0  0
    4.2325   -0.3165    0.8644 C   0  0  0  0  0  0  0  0  0  0  0  0
   -2.7988    3.1040   -0.2272 H   0  0  0  0  0  0  0  0  0  0  0  0
   -4.0273    1.4381   -0.5819 H   0  0  0  0  0  0  0  0  0  0  0  0
   -3.2314    0.1240    2.0596 H   0  0  0  0  0  0  0  0  0  0  0  0
   -4.4437    1.4159    1.9092 H   0  0  0  0  0  0  0  0  0  0  0  0
   -5.1219   -1.2003    1.5014 H   0  0  0  0  0  0  0  0  0  0  0  0
   -5.9322    0.1622    0.6750 H   0  0  0  0  0  0  0  0  0  0  0  0
   -4.7669   -0.2868   -1.3819 H   0  0  0  0  0  0  0  0  0  0  0  0
   -4.9274   -1.9478   -0.6150 H   0  0  0  0  0  0  0  0  0  0  0  0
   -2.8423   -1.5661    0.6276 H   0  0  0  0  0  0  0  0  0  0  0  0
   -2.6608   -1.8075   -1.1979 H   0  0  0  0  0  0  0  0  0  0  0  0
   -2.2015    0.4627   -1.5517 H   0  0  0  0  0  0  0  0  0  0  0  0
   -0.2612    1.8926    0.9346 H   0  0  0  0  0  0  0  0  0  0  0  0
   -0.6017    1.9923   -0.8202 H   0  0  0  0  0  0  0  0  0  0  0  0
    1.8160    2.0475    0.0754 H   0  0  0  0  0  0  0  0  0  0  0  0
    1.4528    1.1875   -1.4274 H   0  0  0  0  0  0  0  0  0  0  0  0
    1.7890    0.1066    1.4277 H   0  0  0  0  0  0  0  0  0  0  0  0
    1.0553   -1.2708   -1.2046 H   0  0  0  0  0  0  0  0  0  0  0  0
    1.4164   -2.1870    0.3258 H   0  0  0  0  0  0  0  0  0  0  0  0
   -0.9518   -1.9488   -0.0676 H   0  0  0  0  0  0  0  0  0  0  0  0
   -0.4004   -1.2441    1.4629 H   0  0  0  0  0  0  0  0  0  0  0  0
    2.7158   -0.4964   -2.1161 H   0  0  0  0  0  0  0  0  0  0  0  0
    5.0741   -0.9200   -2.8107 H   0  0  0  0  0  0  0  0  0  0  0  0
    6.8617   -0.9469   -1.1066 H   0  0  0  0  0  0  0  0  0  0  0  0
    7.0865    0.2990    1.6606 H   0  0  0  0  0  0  0  0  0  0  0  0
    4.0239   -0.1462    1.9295 H   0  0  0  0  0  0  0  0  0  0  0  0
  1  2  1  0
  2  3  1  0
  3  4  1  0
  4  5  1  0
  5  6  1  0
  6  7  1  0
  7  8  1  0
  8  9  1  0
  9 10  1  0
 10 11  1  0
 11 12  1  0
 12 13  1  0
 11 14  1  0
 14 15  2  0
 15 16  1  0
 16 17  2  0
 17 18  1  0
 18 19  1  0
 18 20  2  0
  7  2  1  0
 13  8  1  0
 20 14  1  0
  1 21  1  0
  2 22  1  6
  3 23  1  0
  3 24  1  0
  4 25  1  0
  4 26  1  0
  5 27  1  0
  5 28  1  0
  6 29  1  0
  6 30  1  0
  7 31  1  6
  9 32  1  0
  9 33  1  0
 10 34  1  0
 10 35  1  0
 11 36  1  0
 12 37  1  0
 12 38  1  0
 13 39  1  0
 13 40  1  0
 15 41  1  0
 16 42  1  0
 17 43  1  0
 19 44  1  0
 20 45  1  0
M  END
$$$$
[H]OC(=O)C([H])([H])n1c([H])c(C(=O)OC2([H])C([H])([H])C3([H])N(C([H])([H])[H])C([H])(C([H])([H])C3([H])[H])C2([H])[H])c2c([H])c([H])c([H])c([H])c21
     RDKit          3D

 47 50  0  0  0  0  0  0  0  0999 V2000
    5.8040    0.5159    0.3856 C   0  0  0  0  0  0  0  0  0  0  0  0
    4.3892    0.3629    0.3886 N   0  0  0  0  0  0  0  0  0  0  0  0
    3.8099    0.2670   -0.9373 C   0  0  0  0  0  0  0  0  0  0  0  0
    3.8401   -1.1779   -1.3247 C   0  0  0  0  0  0  0  0  0  0  0  0
    4.3700   -1.8812   -0.0727 C   0  0  0  0  0  0  0  0  0  0  0  0
    3.9795   -0.8789    0.9925 C   0  0  0  0  0  0  0  0  0  0  0  0
    2.4605   -0.9326    1.1197 C   0  0  0  0  0  0  0  0  0  0  0  0
    1.8152    0.2856    0.5664 C   0  0  0  0  0  0  0  0  0  0  0  0
    2.3727    0.6915   -0.7826 C   0  0  0  0  0  0  0  0  0  0  0  0
    0.4377    0.1015    0.3816 O   0  0  0  0  0  0  0  0  0  0  0  0
   -0.5289    0.8818    0.9791 C   0  0  0  0  0  0  0  0  0  0  0  0
   -0.1823    1.7927    1.7331 O   0  0  0  0  0  0  0  0  0  0  0  0
   -1.9415    0.6511    0.7295 C   0  0  0  0  0  0  0  0  0  0  0  0
   -2.9775    1.4451    1.1888 C   0  0  0  0  0  0  0  0  0  0  0  0
   -4.1390    0.9835    0.7617 N   0  0  0  0  0  0  0  0  0  0  0  0
   -5.4503    1.5428    1.0296 C   0  0  0  0  0  0  0  0  0  0  0  0
   -5.7841    2.5288   -0.0321 C   0  0  0  0  0  0  0  0  0  0  0  0
   -6.0183    2.1502   -1.3478 O   0  0  0  0  0  0  0  0  0  0  0  0
   -5.8520    3.7452    0.2812 O   0  0  0  0  0  0  0  0  0  0  0  0
   -3.8834   -0.1046    0.0273 C   0  0  0  0  0  0  0  0  0  0  0  0
   -4.7854   -0.9395   -0.6332 C   0  0  0  0  0  0  0  0  0  0  0  0
   -4.2972   -2.0101   -1.3309 C   0  0  0  0  0  0  0  0  0  0  0  0
   -2.9194   -2.2423   -1.3672 C   0  0  0  0  0  0  0  0  0  0  0  0
   -2.0304   -1.4036   -0.7051 C   0  0  0  0  0  0  0  0  0  0  0  0
   -2.5327   -0.3467   -0.0178 C   0  0  0  0  0  0  0  0  0  0  0  0
    6.2900    0.1272    1.3010 H   0  0  0  0  0  0  0  0  0  0  0  0
    6.0159    1.6320    0.3143 H   0  0  0  0  0  0  0  0  0  0  0  0
    6.2978    0.1195   -0.5498 H   0  0  0  0  0  0  0  0  0  0  0  0
    4.2993    0.9295   -1.6787 H   0  0  0  0  0  0  0  0  0  0  0  0
    2.8369   -1.6158   -1.5229 H   0  0  0  0  0  0  0  0  0  0  0  0
    4.4896   -1.3991   -2.1997 H   0  0  0  0  0  0  0  0  0  0  0  0
    5.4679   -1.8966   -0.1430 H   0  0  0  0  0  0  0  0  0  0  0  0
    3.9028   -2.8689    0.0643 H   0  0  0  0  0  0  0  0  0  0  0  0
    4.4736   -1.0658    1.9664 H   0  0  0  0  0  0  0  0  0  0  0  0
    2.0713   -1.8575    0.6451 H   0  0  0  0  0  0  0  0  0  0  0  0
    2.2445   -0.9946    2.2060 H   0  0  0  0  0  0  0  0  0  0  0  0
    2.0069    1.1521    1.2591 H   0  0  0  0  0  0  0  0  0  0  0  0
    2.3049    1.7798   -0.9590 H   0  0  0  0  0  0  0  0  0  0  0  0
    1.8122    0.1973   -1.6211 H   0  0  0  0  0  0  0  0  0  0  0  0
   -2.8553    2.3391    1.8205 H   0  0  0  0  0  0  0  0  0  0  0  0
   -6.2425    0.7915    1.0599 H   0  0  0  0  0  0  0  0  0  0  0  0
   -5.3744    2.0616    1.9958 H   0  0  0  0  0  0  0  0  0  0  0  0
   -5.6073    2.6091   -2.1595 H   0  0  0  0  0  0  0  0  0  0  0  0
   -5.8576   -0.7332   -0.5864 H   0  0  0  0  0  0  0  0  0  0  0  0
   -4.9857   -2.6666   -1.8477 H   0  0  0  0  0  0  0  0  0  0  0  0
   -2.5815   -3.0873   -1.9211 H   0  0  0  0  0  0  0  0  0  0  0  0
   -0.9659   -1.5818   -0.7310 H   0  0  0  0  0  0  0  0  0  0  0  0
  1  2  1  0
  2  3  1  0
  3  4  1  0
  4  5  1  0
  5  6  1  0
  6  7  1  0
  7  8  1  0
  8  9  1  0
  8 10  1  0
 10 11  1  0
 11 12  2  0
 11 13  1  0
 13 14  2  0
 14 15  1  0
 15 16  1  0
 16 17  1  0
 17 18  1  0
 17 19  2  0
 15 20  1  0
 20 21  2  0
 21 22  1  0
 22 23  2  0
 23 24  1  0
 24 25  2  0
  6  2  1  0
 25 13  1  0
  9  3  1  0
 25 20  1  0
  1 26  1  0
  1 27  1  0
  1 28  1  0
  3 29  1  0
  4 30  1  0
  4 31  1  0
  5 32  1  0
  5 33  1  0
  6 34  1  0
  7 35  1  0
  7 36  1  0
  8 37  1  0
  9 38  1  0
  9 39  1  0
 14 40  1  0
 16 41  1  0
 16 42  1  0
 18 43  1  0
 21 44  1  0
 22 45  1  0
 23 46  1  0
 24 47  1  0
M  END
$$$$
[H]N=C(N([H])[H])N([H])C([H])([H])C([H])([H])C([H])([H])[C@@]([H])(C(=O)c1nc2c([H])c([H])c([H])c([H])c2s1)N([H])C(=O)[C@@]([H])(N([H])C(=O)[C@@]1([H])N([H])C(=O)C([H])([H])C1([H])[H])C([H])([H])C([H])([H])C([H])([H])N=C(N([H])[H])N([H])[H]
     RDKit          3D

 73 75  0  0  0  0  0  0  0  0999 V2000
    5.0181   -2.1444   -5.0635 N   0  0  0  0  0  0  0  0  0  0  0  0
    4.4226   -1.9719   -3.7954 C   0  0  0  0  0  0  0  0  0  0  0  0
    4.8648   -2.7922   -2.7241 N   0  0  0  0  0  0  0  0  0  0  0  0
    3.4983   -1.1074   -3.5626 N   0  0  0  0  0  0  0  0  0  0  0  0
    2.9216   -0.9922   -2.1847 C   0  0  0  0  0  0  0  0  0  0  0  0
    3.7214    0.0710   -1.5308 C   0  0  0  0  0  0  0  0  0  0  0  0
    3.5341    0.4631   -0.1513 C   0  0  0  0  0  0  0  0  0  0  0  0
    2.3564    1.0537    0.4681 C   0  0  2  0  0  0  0  0  0  0  0  0
    2.8117    1.2643    1.9114 N   0  0  0  0  0  0  0  0  0  0  0  0
    2.8610    2.5256    2.4829 C   0  0  0  0  0  0  0  0  0  0  0  0
    2.5109    3.5351    1.7764 O   0  0  0  0  0  0  0  0  0  0  0  0
    3.2916    2.8115    3.8647 C   0  0  2  0  0  0  0  0  0  0  0  0
    2.4688    2.1460    4.9184 C   0  0  0  0  0  0  0  0  0  0  0  0
    2.9155    2.9171    6.1657 C   0  0  0  0  0  0  0  0  0  0  0  0
    2.9325    4.3131    5.6188 C   0  0  0  0  0  0  0  0  0  0  0  0
    2.7363    5.3492    6.3011 O   0  0  0  0  0  0  0  0  0  0  0  0
    3.2098    4.2149    4.2064 N   0  0  0  0  0  0  0  0  0  0  0  0
    1.0889    0.3621    0.5905 C   0  0  0  0  0  0  0  0  0  0  0  0
    0.7923   -0.1374    1.7594 O   0  0  0  0  0  0  0  0  0  0  0  0
    0.0847    0.1375   -0.3604 N   0  0  0  0  0  0  0  0  0  0  0  0
   -1.1925   -0.5947   -0.0347 C   0  0  1  0  0  0  0  0  0  0  0  0
   -2.2437    0.3954   -0.1594 C   0  0  0  0  0  0  0  0  0  0  0  0
   -3.6518    0.1323    0.1430 C   0  0  0  0  0  0  0  0  0  0  0  0
   -4.4659    1.4244   -0.0401 C   0  0  0  0  0  0  0  0  0  0  0  0
   -3.9872    2.3907    0.9019 N   0  0  0  0  0  0  0  0  0  0  0  0
   -4.5156    3.7353    0.9340 C   0  0  0  0  0  0  0  0  0  0  0  0
   -3.6276    4.8281    1.0843 N   0  0  0  0  0  0  0  0  0  0  0  0
   -5.7751    3.9862    0.8295 N   0  0  0  0  0  0  0  0  0  0  0  0
   -1.1293   -1.8970   -0.6160 C   0  0  0  0  0  0  0  0  0  0  0  0
    0.0954   -2.4393   -0.4769 O   0  0  0  0  0  0  0  0  0  0  0  0
   -2.0281   -2.7867   -1.3159 C   0  0  0  0  0  0  0  0  0  0  0  0
   -3.2624   -2.7585   -1.7185 N   0  0  0  0  0  0  0  0  0  0  0  0
   -3.8271   -3.7448   -2.3442 C   0  0  0  0  0  0  0  0  0  0  0  0
   -5.1589   -3.7853   -2.8092 C   0  0  0  0  0  0  0  0  0  0  0  0
   -5.6124   -4.8924   -3.4502 C   0  0  0  0  0  0  0  0  0  0  0  0
   -4.8549   -6.0202   -3.6939 C   0  0  0  0  0  0  0  0  0  0  0  0
   -3.5559   -5.9854   -3.2425 C   0  0  0  0  0  0  0  0  0  0  0  0
   -3.0719   -4.8530   -2.5802 C   0  0  0  0  0  0  0  0  0  0  0  0
   -1.5877   -4.3902   -1.8766 S   0  0  0  0  0  0  0  0  0  0  0  0
    5.0951   -3.1191   -5.4311 H   0  0  0  0  0  0  0  0  0  0  0  0
    5.3826   -1.3758   -5.6519 H   0  0  0  0  0  0  0  0  0  0  0  0
    4.2717   -3.6125   -2.4702 H   0  0  0  0  0  0  0  0  0  0  0  0
    5.7578   -2.5494   -2.2325 H   0  0  0  0  0  0  0  0  0  0  0  0
    1.8599   -0.8129   -2.3140 H   0  0  0  0  0  0  0  0  0  0  0  0
    3.0898   -2.0028   -1.7175 H   0  0  0  0  0  0  0  0  0  0  0  0
    3.6458    0.9904   -2.2060 H   0  0  0  0  0  0  0  0  0  0  0  0
    4.8187   -0.2764   -1.6676 H   0  0  0  0  0  0  0  0  0  0  0  0
    3.8173   -0.4485    0.5326 H   0  0  0  0  0  0  0  0  0  0  0  0
    4.4226    1.1519    0.1692 H   0  0  0  0  0  0  0  0  0  0  0  0
    2.2247    2.1211    0.1170 H   0  0  0  0  0  0  0  0  0  0  0  0
    3.0793    0.4183    2.4368 H   0  0  0  0  0  0  0  0  0  0  0  0
    4.3419    2.4359    3.9808 H   0  0  0  0  0  0  0  0  0  0  0  0
    2.6720    1.0664    5.0223 H   0  0  0  0  0  0  0  0  0  0  0  0
    1.3817    2.3345    4.8010 H   0  0  0  0  0  0  0  0  0  0  0  0
    3.9513    2.5834    6.4118 H   0  0  0  0  0  0  0  0  0  0  0  0
    2.2151    2.7893    6.9945 H   0  0  0  0  0  0  0  0  0  0  0  0
    3.3162    5.0455    3.6156 H   0  0  0  0  0  0  0  0  0  0  0  0
    0.1553    0.4669   -1.3343 H   0  0  0  0  0  0  0  0  0  0  0  0
   -1.0447   -0.7582    1.1017 H   0  0  0  0  0  0  0  0  0  0  0  0
   -1.9649    1.3559    0.4015 H   0  0  0  0  0  0  0  0  0  0  0  0
   -2.2425    0.7944   -1.2481 H   0  0  0  0  0  0  0  0  0  0  0  0
   -4.1757   -0.5943   -0.4451 H   0  0  0  0  0  0  0  0  0  0  0  0
   -3.7487   -0.0575    1.2578 H   0  0  0  0  0  0  0  0  0  0  0  0
   -4.4159    1.7725   -1.0901 H   0  0  0  0  0  0  0  0  0  0  0  0
   -5.5071    1.1557    0.2339 H   0  0  0  0  0  0  0  0  0  0  0  0
   -3.2621    2.1509    1.5937 H   0  0  0  0  0  0  0  0  0  0  0  0
   -3.8141    5.6455    1.7286 H   0  0  0  0  0  0  0  0  0  0  0  0
   -2.7332    4.8615    0.5482 H   0  0  0  0  0  0  0  0  0  0  0  0
   -6.4988    3.2524    0.7157 H   0  0  0  0  0  0  0  0  0  0  0  0
   -5.8389   -2.9546   -2.6712 H   0  0  0  0  0  0  0  0  0  0  0  0
   -6.6426   -4.9212   -3.8089 H   0  0  0  0  0  0  0  0  0  0  0  0
   -5.2939   -6.8501   -4.2067 H   0  0  0  0  0  0  0  0  0  0  0  0
   -2.9045   -6.8227   -3.3929 H   0  0  0  0  0  0  0  0  0  0  0  0
  1  2  1  0
  2  3  1  0
  2  4  2  3
  4  5  1  0
  5  6  1  0
  6  7  1  0
  7  8  1  0
  8  9  1  0
  9 10  1  0
 10 11  2  0
 10 12  1  0
 12 13  1  0
 13 14  1  0
 14 15  1  0
 15 16  2  0
 15 17  1  0
  8 18  1  0
 18 19  2  0
 18 20  1  0
 20 21  1  0
 21 22  1  0
 22 23  1  0
 23 24  1  0
 24 25  1  0
 25 26  1  0
 26 27  1  0
 26 28  2  3
 21 29  1  0
 29 30  2  0
 29 31  1  0
 31 32  2  0
 32 33  1  0
 33 34  2  0
 34 35  1  0
 35 36  2  0
 36 37  1  0
 37 38  2  0
 38 39  1  0
 17 12  1  0
 39 31  1  0
 38 33  1  0
  1 40  1  0
  1 41  1  0
  3 42  1  0
  3 43  1  0
  5 44  1  0
  5 45  1  0
  6 46  1  0
  6 47  1  0
  7 48  1  0
  7 49  1  0
  8 50  1  6
  9 51  1  0
 12 52  1  6
 13 53  1  0
 13 54  1  0
 14 55  1  0
 14 56  1  0
 17 57  1  0
 20 58  1  0
 21 59  1  1
 22 60  1  0
 22 61  1  0
 23 62  1  0
 23 63  1  0
 24 64  1  0
 24 65  1  0
 25 66  1  0
 27 67  1  0
 27 68  1  0
 28 69  1  0
 34 70  1  0
 35 71  1  0
 36 72  1  0
 37 73  1  0
M  END
$$$$
[H]c1c([H])c(OC([H])([H])[H])c([H])c(C2([H])C(C(=O)OC(C([H])([H])[H])(C([H])([H])[H])C([H])([H])[H])=C(C([H])([H])[H])N=C(C([H])([H])[H])C2([H])C(=O)OC([H])([H])[H])c1[H]
     RDKit          3D

 54 55  0  0  0  0  0  0  0  0999 V2000
    2.8186    5.0506   -1.6714 C   0  0  0  0  0  0  0  0  0  0  0  0
    2.4495    4.1060   -0.6685 O   0  0  0  0  0  0  0  0  0  0  0  0
    1.7551    2.9588   -0.9385 C   0  0  0  0  0  0  0  0  0  0  0  0
    1.4230    2.7179   -2.1218 O   0  0  0  0  0  0  0  0  0  0  0  0
    1.4016    2.0050    0.1904 C   0  0  0  0  0  0  0  0  0  0  0  0
    0.6817    0.8261   -0.3220 C   0  0  0  0  0  0  0  0  0  0  0  0
   -0.6977    0.6644    0.2113 C   0  0  0  0  0  0  0  0  0  0  0  0
   -1.5408   -0.4235   -0.3043 C   0  0  0  0  0  0  0  0  0  0  0  0
   -1.0455   -1.1915   -1.1948 O   0  0  0  0  0  0  0  0  0  0  0  0
   -2.8053   -0.6799    0.0889 O   0  0  0  0  0  0  0  0  0  0  0  0
   -3.6516   -1.6970   -0.3651 C   0  0  0  0  0  0  0  0  0  0  0  0
   -4.9715   -1.5621    0.3868 C   0  0  0  0  0  0  0  0  0  0  0  0
   -3.9558   -1.4867   -1.8333 C   0  0  0  0  0  0  0  0  0  0  0  0
   -3.1322   -3.0764   -0.1207 C   0  0  0  0  0  0  0  0  0  0  0  0
   -1.1728    1.4879    1.1363 C   0  0  0  0  0  0  0  0  0  0  0  0
   -2.5497    1.3163    1.6659 C   0  0  0  0  0  0  0  0  0  0  0  0
   -0.4140    2.5781    1.6325 N   0  0  0  0  0  0  0  0  0  0  0  0
    0.7441    2.8123    1.2105 C   0  0  0  0  0  0  0  0  0  0  0  0
    1.4758    3.9758    1.7973 C   0  0  0  0  0  0  0  0  0  0  0  0
    1.4660   -0.3845    0.0257 C   0  0  0  0  0  0  0  0  0  0  0  0
    1.6312   -0.7147    1.3395 C   0  0  0  0  0  0  0  0  0  0  0  0
    2.3654   -1.8339    1.6574 C   0  0  0  0  0  0  0  0  0  0  0  0
    2.9295   -2.6170    0.6867 C   0  0  0  0  0  0  0  0  0  0  0  0
    2.7641   -2.2857   -0.6386 C   0  0  0  0  0  0  0  0  0  0  0  0
    3.3183   -3.0515   -1.6483 O   0  0  0  0  0  0  0  0  0  0  0  0
    4.0694   -4.1952   -1.3408 C   0  0  0  0  0  0  0  0  0  0  0  0
    2.0197   -1.1513   -0.9541 C   0  0  0  0  0  0  0  0  0  0  0  0
    1.9957    5.8119   -1.8139 H   0  0  0  0  0  0  0  0  0  0  0  0
    3.6693    5.6230   -1.2428 H   0  0  0  0  0  0  0  0  0  0  0  0
    3.1165    4.5732   -2.6104 H   0  0  0  0  0  0  0  0  0  0  0  0
    2.4382    1.6699    0.5457 H   0  0  0  0  0  0  0  0  0  0  0  0
    0.5677    0.8728   -1.4407 H   0  0  0  0  0  0  0  0  0  0  0  0
   -4.7633   -1.5087    1.4917 H   0  0  0  0  0  0  0  0  0  0  0  0
   -5.5116   -0.6358    0.0612 H   0  0  0  0  0  0  0  0  0  0  0  0
   -5.5940   -2.4494    0.2333 H   0  0  0  0  0  0  0  0  0  0  0  0
   -4.8351   -2.1271   -2.0833 H   0  0  0  0  0  0  0  0  0  0  0  0
   -3.1307   -1.7664   -2.4948 H   0  0  0  0  0  0  0  0  0  0  0  0
   -4.2965   -0.4360   -1.9550 H   0  0  0  0  0  0  0  0  0  0  0  0
   -2.7015   -3.1576    0.8944 H   0  0  0  0  0  0  0  0  0  0  0  0
   -2.4491   -3.4457   -0.9081 H   0  0  0  0  0  0  0  0  0  0  0  0
   -4.0116   -3.7792   -0.1367 H   0  0  0  0  0  0  0  0  0  0  0  0
   -3.3388    1.5104    0.9191 H   0  0  0  0  0  0  0  0  0  0  0  0
   -2.7176    2.1177    2.4517 H   0  0  0  0  0  0  0  0  0  0  0  0
   -2.6844    0.3755    2.2405 H   0  0  0  0  0  0  0  0  0  0  0  0
    1.2401    4.9336    1.2982 H   0  0  0  0  0  0  0  0  0  0  0  0
    1.1213    4.1192    2.8568 H   0  0  0  0  0  0  0  0  0  0  0  0
    2.5771    3.8508    1.7660 H   0  0  0  0  0  0  0  0  0  0  0  0
    1.2152   -0.1423    2.1344 H   0  0  0  0  0  0  0  0  0  0  0  0
    2.5152   -2.1240    2.6991 H   0  0  0  0  0  0  0  0  0  0  0  0
    3.5155   -3.5090    0.9198 H   0  0  0  0  0  0  0  0  0  0  0  0
    4.5661   -4.5291   -2.2947 H   0  0  0  0  0  0  0  0  0  0  0  0
    4.8259   -4.0379   -0.5515 H   0  0  0  0  0  0  0  0  0  0  0  0
    3.3778   -5.0283   -1.0420 H   0  0  0  0  0  0  0  0  0  0  0  0
    1.9163   -0.9293   -2.0190 H   0  0  0  0  0  0  0  0  0  0  0  0
  1  2  1  0
  2  3  1  0
  3  4  2  0
  3  5  1  0
  5  6  1  0
  6  7  1  0
  7  8  1  0
  8  9  2  0
  8 10  1  0
 10 11  1  0
 11 12  1  0
 11 13  1  0
 11 14  1  0
  7 15  2  0
 15 16  1  0
 15 17  1  0
 17 18  2  0
 18 19  1  0
  6 20  1  0
 20 21  2  0
 21 22  1  0
 22 23  2  0
 23 24  1  0
 24 25  1  0
 25 26  1  0
 24 27  2  0
 18  5  1  0
 27 20  1  0
  1 28  1  0
  1 29  1  0
  1 30  1  0
  5 31  1  0
  6 32  1  0
 12 33  1  0
 12 34  1  0
 12 35  1  0
 13 36  1  0
 13 37  1  0
 13 38  1  0
 14 39  1  0
 14 40  1  0
 14 41  1  0
 16 42  1  0
 16 43  1  0
 16 44  1  0
 19 45  1  0
 19 46  1  0
 19 47  1  0
 21 48  1  0
 22 49  1  0
 23 50  1  0
 26 51  1  0
 26 52  1  0
 26 53  1  0
 27 54  1  0
M  END
$$$$
[H]Oc1c([H])c(-n2c3c(c4c2C([H])([H])C(C([H])([H])[H])(C([H])([H])[H])C([H])([H])C4=O)C([H])([H])C([H])([H])N(C([H])([H])[H])C3([H])[H])c([H])c([H])c1F
     RDKit          3D

 48 51  0  0  0  0  0  0  0  0999 V2000
    3.9430   -1.6379    1.0334 C   0  0  0  0  0  0  0  0  0  0  0  0
    3.6208   -1.1717   -0.2841 N   0  0  0  0  0  0  0  0  0  0  0  0
    3.2451   -2.1828   -1.2089 C   0  0  0  0  0  0  0  0  0  0  0  0
    1.8013   -2.5310   -1.2322 C   0  0  0  0  0  0  0  0  0  0  0  0
    0.9299   -1.4191   -0.8298 C   0  0  0  0  0  0  0  0  0  0  0  0
    1.4080   -0.2049   -0.3965 C   0  0  0  0  0  0  0  0  0  0  0  0
    2.8621    0.0271   -0.3204 C   0  0  0  0  0  0  0  0  0  0  0  0
    0.3683    0.6243   -0.0947 N   0  0  0  0  0  0  0  0  0  0  0  0
   -0.7628   -0.0662   -0.3373 C   0  0  0  0  0  0  0  0  0  0  0  0
   -2.2010    0.2971   -0.2013 C   0  0  0  0  0  0  0  0  0  0  0  0
   -3.0802   -0.9170    0.0075 C   0  0  0  0  0  0  0  0  0  0  0  0
   -2.8046   -1.6146    1.3132 C   0  0  0  0  0  0  0  0  0  0  0  0
   -4.5153   -0.4293   -0.0732 C   0  0  0  0  0  0  0  0  0  0  0  0
   -2.8955   -1.8669   -1.1794 C   0  0  0  0  0  0  0  0  0  0  0  0
   -1.4813   -2.3107   -1.1387 C   0  0  0  0  0  0  0  0  0  0  0  0
   -1.1393   -3.4901   -1.3909 O   0  0  0  0  0  0  0  0  0  0  0  0
   -0.4656   -1.3307   -0.7920 C   0  0  0  0  0  0  0  0  0  0  0  0
    0.5004    1.9561    0.3822 C   0  0  0  0  0  0  0  0  0  0  0  0
    1.1003    2.1934    1.5976 C   0  0  0  0  0  0  0  0  0  0  0  0
    1.2429    3.4721    2.0862 C   0  0  0  0  0  0  0  0  0  0  0  0
    0.7773    4.5755    1.3533 C   0  0  0  0  0  0  0  0  0  0  0  0
    0.9148    5.8352    1.8285 F   0  0  0  0  0  0  0  0  0  0  0  0
    0.1755    4.3406    0.1345 C   0  0  0  0  0  0  0  0  0  0  0  0
   -0.3032    5.3913   -0.6328 O   0  0  0  0  0  0  0  0  0  0  0  0
    0.0350    3.0580   -0.3507 C   0  0  0  0  0  0  0  0  0  0  0  0
    4.8597   -2.2389    0.9962 H   0  0  0  0  0  0  0  0  0  0  0  0
    3.1255   -2.1383    1.5548 H   0  0  0  0  0  0  0  0  0  0  0  0
    4.1958   -0.7285    1.6423 H   0  0  0  0  0  0  0  0  0  0  0  0
    3.8115   -3.1153   -0.9349 H   0  0  0  0  0  0  0  0  0  0  0  0
    3.6384   -1.8918   -2.2161 H   0  0  0  0  0  0  0  0  0  0  0  0
    1.5447   -3.4325   -0.6269 H   0  0  0  0  0  0  0  0  0  0  0  0
    1.5476   -2.8268   -2.2926 H   0  0  0  0  0  0  0  0  0  0  0  0
    3.2087    0.6377   -1.2023 H   0  0  0  0  0  0  0  0  0  0  0  0
    3.1417    0.6333    0.5676 H   0  0  0  0  0  0  0  0  0  0  0  0
   -2.5045    0.7222   -1.1864 H   0  0  0  0  0  0  0  0  0  0  0  0
   -2.3768    0.9979    0.6323 H   0  0  0  0  0  0  0  0  0  0  0  0
   -3.7233   -1.6196    1.9465 H   0  0  0  0  0  0  0  0  0  0  0  0
   -1.9512   -1.2109    1.8646 H   0  0  0  0  0  0  0  0  0  0  0  0
   -2.6073   -2.6937    1.0853 H   0  0  0  0  0  0  0  0  0  0  0  0
   -5.2019   -1.2657    0.1256 H   0  0  0  0  0  0  0  0  0  0  0  0
   -4.6694    0.4260    0.6163 H   0  0  0  0  0  0  0  0  0  0  0  0
   -4.6986   -0.0763   -1.1088 H   0  0  0  0  0  0  0  0  0  0  0  0
   -3.0752   -1.2765   -2.0959 H   0  0  0  0  0  0  0  0  0  0  0  0
   -3.5410   -2.7328   -1.0505 H   0  0  0  0  0  0  0  0  0  0  0  0
    1.4637    1.3667    2.1757 H   0  0  0  0  0  0  0  0  0  0  0  0
    1.7145    3.6392    3.0387 H   0  0  0  0  0  0  0  0  0  0  0  0
   -0.7446    5.3062   -1.5122 H   0  0  0  0  0  0  0  0  0  0  0  0
   -0.4338    2.9205   -1.2927 H   0  0  0  0  0  0  0  0  0  0  0  0
  1  2  1  0
  2  3  1  0
  3  4  1  0
  4  5  1  0
  5  6  2  0
  6  7  1  0
  6  8  1  0
  8  9  1  0
  9 10  1  0
 10 11  1  0
 11 12  1  0
 11 13  1  0
 11 14  1  0
 14 15  1  0
 15 16  2  0
 15 17  1  0
  8 18  1  0
 18 19  2  0
 19 20  1  0
 20 21  2  0
 21 22  1  0
 21 23  1  0
 23 24  1  0
 23 25  2  0
  7  2  1  0
 17  9  2  0
 25 18  1  0
 17  5  1  0
  1 26  1  0
  1 27  1  0
  1 28  1  0
  3 29  1  0
  3 30  1  0
  4 31  1  0
  4 32  1  0
  7 33  1  0
  7 34  1  0
 10 35  1  0
 10 36  1  0
 12 37  1  0
 12 38  1  0
 12 39  1  0
 13 40  1  0
 13 41  1  0
 13 42  1  0
 14 43  1  0
 14 44  1  0
 19 45  1  0
 20 46  1  0
 24 47  1  0
 25 48  1  0
M  END
$$$$
[H]O[C@]([H])(C([H])([H])N([H])C(=O)c1c(C([H])([H])[H])c(/C([H])=C2\C(=O)N([H])c3c([H])c([H])c(F)c([H])c32)n([H])c1C([H])([H])[H])C([H])([H])N1C([H])([H])C([H])([H])OC([H])([H])C1([H])[H]
     RDKit          3D

 59 62  0  0  0  0  0  0  0  0999 V2000
   -0.0067    3.0051   -1.0071 C   0  0  0  0  0  0  0  0  0  0  0  0
   -0.8501    1.8317   -0.6247 C   0  0  0  0  0  0  0  0  0  0  0  0
   -2.0811    1.8440   -0.1243 N   0  0  0  0  0  0  0  0  0  0  0  0
   -2.5055    0.6096    0.0967 C   0  0  0  0  0  0  0  0  0  0  0  0
   -3.7672    0.1046    0.6046 C   0  0  0  0  0  0  0  0  0  0  0  0
   -4.9551    0.3616    0.1015 C   0  0  0  0  0  0  0  0  0  0  0  0
   -5.2686    1.1831   -1.0526 C   0  0  0  0  0  0  0  0  0  0  0  0
   -4.4447    1.7926   -1.8068 O   0  0  0  0  0  0  0  0  0  0  0  0
   -6.6877    1.1703   -1.1787 N   0  0  0  0  0  0  0  0  0  0  0  0
   -7.2854    0.3683   -0.1452 C   0  0  0  0  0  0  0  0  0  0  0  0
   -8.5932    0.0485    0.1572 C   0  0  0  0  0  0  0  0  0  0  0  0
   -8.8890   -0.7569    1.2253 C   0  0  0  0  0  0  0  0  0  0  0  0
   -7.8675   -1.2558    2.0099 C   0  0  0  0  0  0  0  0  0  0  0  0
   -8.1704   -2.0582    3.0732 F   0  0  0  0  0  0  0  0  0  0  0  0
   -6.5671   -0.9274    1.6946 C   0  0  0  0  0  0  0  0  0  0  0  0
   -6.2525   -0.1198    0.6256 C   0  0  0  0  0  0  0  0  0  0  0  0
   -1.4701   -0.2719   -0.2891 C   0  0  0  0  0  0  0  0  0  0  0  0
   -1.5634   -1.7560   -0.2190 C   0  0  0  0  0  0  0  0  0  0  0  0
   -0.4504    0.4817   -0.7334 C   0  0  0  0  0  0  0  0  0  0  0  0
    0.8421    0.0665   -1.2851 C   0  0  0  0  0  0  0  0  0  0  0  0
    1.4391    0.9461   -2.0019 O   0  0  0  0  0  0  0  0  0  0  0  0
    1.4641   -1.1610   -1.1017 N   0  0  0  0  0  0  0  0  0  0  0  0
    2.7215   -1.6317   -1.5988 C   0  0  0  0  0  0  0  0  0  0  0  0
    3.9100   -0.9040   -1.0858 C   0  0  1  0  0  0  0  0  0  0  0  0
    3.9623    0.4288   -1.4233 O   0  0  0  0  0  0  0  0  0  0  0  0
    3.9389   -1.0769    0.4336 C   0  0  0  0  0  0  0  0  0  0  0  0
    5.1145   -0.5489    1.0231 N   0  0  0  0  0  0  0  0  0  0  0  0
    6.3057   -1.2328    0.7606 C   0  0  0  0  0  0  0  0  0  0  0  0
    7.5650   -0.4418    0.7566 C   0  0  0  0  0  0  0  0  0  0  0  0
    7.4895    0.7846    1.3637 O   0  0  0  0  0  0  0  0  0  0  0  0
    6.4448    1.4794    0.7104 C   0  0  0  0  0  0  0  0  0  0  0  0
    5.1722    0.8464    1.2284 C   0  0  0  0  0  0  0  0  0  0  0  0
    0.0822    3.1015   -2.1049 H   0  0  0  0  0  0  0  0  0  0  0  0
    0.9945    2.8829   -0.5849 H   0  0  0  0  0  0  0  0  0  0  0  0
   -0.4526    3.9508   -0.6159 H   0  0  0  0  0  0  0  0  0  0  0  0
   -2.6066    2.7533    0.0695 H   0  0  0  0  0  0  0  0  0  0  0  0
   -3.7823   -0.5608    1.4939 H   0  0  0  0  0  0  0  0  0  0  0  0
   -7.2117    1.6663   -1.9082 H   0  0  0  0  0  0  0  0  0  0  0  0
   -9.3955    0.4290   -0.4451 H   0  0  0  0  0  0  0  0  0  0  0  0
   -9.9115   -1.0343    1.4983 H   0  0  0  0  0  0  0  0  0  0  0  0
   -5.7718   -1.3177    2.3089 H   0  0  0  0  0  0  0  0  0  0  0  0
   -2.6454   -2.0706   -0.0938 H   0  0  0  0  0  0  0  0  0  0  0  0
   -1.2591   -2.2559   -1.1569 H   0  0  0  0  0  0  0  0  0  0  0  0
   -1.0707   -2.1818    0.6776 H   0  0  0  0  0  0  0  0  0  0  0  0
    0.9409   -1.8713   -0.4745 H   0  0  0  0  0  0  0  0  0  0  0  0
    2.7227   -1.5655   -2.7387 H   0  0  0  0  0  0  0  0  0  0  0  0
    2.8856   -2.7214   -1.3345 H   0  0  0  0  0  0  0  0  0  0  0  0
    4.8252   -1.3984   -1.5342 H   0  0  0  0  0  0  0  0  0  0  0  0
    4.6728    0.6685   -2.0620 H   0  0  0  0  0  0  0  0  0  0  0  0
    3.8608   -2.1623    0.6551 H   0  0  0  0  0  0  0  0  0  0  0  0
    3.0333   -0.6218    0.8919 H   0  0  0  0  0  0  0  0  0  0  0  0
    6.4000   -2.0516    1.5425 H   0  0  0  0  0  0  0  0  0  0  0  0
    6.2394   -1.7948   -0.1894 H   0  0  0  0  0  0  0  0  0  0  0  0
    8.3678   -1.0168    1.3034 H   0  0  0  0  0  0  0  0  0  0  0  0
    7.9510   -0.2953   -0.2738 H   0  0  0  0  0  0  0  0  0  0  0  0
    6.5258    1.2239   -0.3654 H   0  0  0  0  0  0  0  0  0  0  0  0
    6.4620    2.5549    0.9159 H   0  0  0  0  0  0  0  0  0  0  0  0
    5.1227    1.0724    2.3311 H   0  0  0  0  0  0  0  0  0  0  0  0
    4.3267    1.4070    0.7958 H   0  0  0  0  0  0  0  0  0  0  0  0
  1  2  1  0
  2  3  1  0
  3  4  1  0
  4  5  1  0
  5  6  2  0
  6  7  1  0
  7  8  2  0
  7  9  1  0
  9 10  1  0
 10 11  2  0
 11 12  1  0
 12 13  2  0
 13 14  1  0
 13 15  1  0
 15 16  2  0
  4 17  2  0
 17 18  1  0
 17 19  1  0
 19 20  1  0
 20 21  2  0
 20 22  1  0
 22 23  1  0
 23 24  1  0
 24 25  1  0
 24 26  1  0
 26 27  1  0
 27 28  1  0
 28 29  1  0
 29 30  1  0
 30 31  1  0
 31 32  1  0
 19  2  2  0
 32 27  1  0
 16  6  1  0
 16 10  1  0
  1 33  1  0
  1 34  1  0
  1 35  1  0
  3 36  1  0
  5 37  1  0
  9 38  1  0
 11 39  1  0
 12 40  1  0
 15 41  1  0
 18 42  1  0
 18 43  1  0
 18 44  1  0
 22 45  1  0
 23 46  1  0
 23 47  1  0
 24 48  1  6
 25 49  1  0
 26 50  1  0
 26 51  1  0
 28 52  1  0
 28 53  1  0
 29 54  1  0
 29 55  1  0
 31 56  1  0
 31 57  1  0
 32 58  1  0
 32 59  1  0
M  END
$$$$
[H]c1nc([H])c2sc(C(=O)N([H])C([H])([H])[H])c([H])c2c1Oc1c([H])c([H])c(C(=O)N([H])C2(C#N)C([H])([H])C2([H])[H])c([H])c1[H]
     RDKit          3D

 44 47  0  0  0  0  0  0  0  0999 V2000
   -7.4445    1.5023   -2.5099 C   0  0  0  0  0  0  0  0  0  0  0  0
   -6.4201    1.1009   -1.5579 N   0  0  0  0  0  0  0  0  0  0  0  0
   -6.7024    0.8275   -0.2147 C   0  0  0  0  0  0  0  0  0  0  0  0
   -7.8561    0.9168    0.2293 O   0  0  0  0  0  0  0  0  0  0  0  0
   -5.6207    0.4307    0.6776 C   0  0  0  0  0  0  0  0  0  0  0  0
   -4.2854    0.2677    0.4130 C   0  0  0  0  0  0  0  0  0  0  0  0
   -3.4754   -0.1089    1.4135 C   0  0  0  0  0  0  0  0  0  0  0  0
   -2.0916   -0.3290    1.3533 C   0  0  0  0  0  0  0  0  0  0  0  0
   -1.3525   -0.1830    0.2194 O   0  0  0  0  0  0  0  0  0  0  0  0
   -0.0438   -0.3499   -0.0087 C   0  0  0  0  0  0  0  0  0  0  0  0
    0.5174   -1.5468   -0.4030 C   0  0  0  0  0  0  0  0  0  0  0  0
    1.8766   -1.6771   -0.6280 C   0  0  0  0  0  0  0  0  0  0  0  0
    2.7407   -0.6018   -0.4657 C   0  0  0  0  0  0  0  0  0  0  0  0
    2.1867    0.5925   -0.0732 C   0  0  0  0  0  0  0  0  0  0  0  0
    0.8225    0.7102    0.1492 C   0  0  0  0  0  0  0  0  0  0  0  0
    4.1640   -0.7813   -0.7123 C   0  0  0  0  0  0  0  0  0  0  0  0
    4.5755   -1.9110   -1.0679 O   0  0  0  0  0  0  0  0  0  0  0  0
    5.1400    0.2388   -0.5798 N   0  0  0  0  0  0  0  0  0  0  0  0
    6.5414    0.0258   -0.8321 C   0  0  0  0  0  0  0  0  0  0  0  0
    7.4340    1.2287   -0.6398 C   0  0  0  0  0  0  0  0  0  0  0  0
    7.5182    0.0322    0.2950 C   0  0  0  0  0  0  0  0  0  0  0  0
    6.8762   -0.7386   -2.0575 C   0  0  0  0  0  0  0  0  0  0  0  0
    7.1258   -1.3463   -2.9986 N   0  0  0  0  0  0  0  0  0  0  0  0
   -1.4479   -0.7127    2.5012 C   0  0  0  0  0  0  0  0  0  0  0  0
   -2.0179   -0.9044    3.7063 N   0  0  0  0  0  0  0  0  0  0  0  0
   -3.3527   -0.6959    3.7804 C   0  0  0  0  0  0  0  0  0  0  0  0
   -4.0521   -0.3047    2.6408 C   0  0  0  0  0  0  0  0  0  0  0  0
   -5.6961    0.0404    2.3629 S   0  0  0  0  0  0  0  0  0  0  0  0
   -7.8200    0.5599   -2.9946 H   0  0  0  0  0  0  0  0  0  0  0  0
   -8.2605    2.0677   -2.0156 H   0  0  0  0  0  0  0  0  0  0  0  0
   -7.0124    2.1500   -3.2780 H   0  0  0  0  0  0  0  0  0  0  0  0
   -5.4515    1.0267   -1.9339 H   0  0  0  0  0  0  0  0  0  0  0  0
   -3.9576    0.4627   -0.6343 H   0  0  0  0  0  0  0  0  0  0  0  0
   -0.1560   -2.4039   -0.5345 H   0  0  0  0  0  0  0  0  0  0  0  0
    2.3095   -2.6242   -0.9384 H   0  0  0  0  0  0  0  0  0  0  0  0
    2.8552    1.4373    0.0557 H   0  0  0  0  0  0  0  0  0  0  0  0
    0.4255    1.6568    0.4543 H   0  0  0  0  0  0  0  0  0  0  0  0
    4.8168    1.1846   -0.2851 H   0  0  0  0  0  0  0  0  0  0  0  0
    7.0186    2.1465   -0.1828 H   0  0  0  0  0  0  0  0  0  0  0  0
    8.2609    1.4228   -1.3446 H   0  0  0  0  0  0  0  0  0  0  0  0
    8.4503   -0.5671    0.1449 H   0  0  0  0  0  0  0  0  0  0  0  0
    7.1156    0.1114    1.3091 H   0  0  0  0  0  0  0  0  0  0  0  0
   -0.3688   -0.8911    2.4823 H   0  0  0  0  0  0  0  0  0  0  0  0
   -3.8854   -0.8263    4.7031 H   0  0  0  0  0  0  0  0  0  0  0  0
  1  2  1  0
  2  3  1  0
  3  4  2  0
  3  5  1  0
  5  6  2  0
  6  7  1  0
  7  8  2  0
  8  9  1  0
  9 10  1  0
 10 11  2  0
 11 12  1  0
 12 13  2  0
 13 14  1  0
 14 15  2  0
 13 16  1  0
 16 17  2  0
 16 18  1  0
 18 19  1  0
 19 20  1  0
 20 21  1  0
 19 22  1  0
 22 23  3  0
  8 24  1  0
 24 25  2  0
 25 26  1  0
 26 27  2  0
 27 28  1  0
 28  5  1  0
 27  7  1  0
 15 10  1  0
 21 19  1  0
  1 29  1  0
  1 30  1  0
  1 31  1  0
  2 32  1  0
  6 33  1  0
 11 34  1  0
 12 35  1  0
 14 36  1  0
 15 37  1  0
 18 38  1  0
 20 39  1  0
 20 40  1  0
 21 41  1  0
 21 42  1  0
 24 43  1  0
 26 44  1  0
M  END
$$$$
[H]c1c([H])c([H])c(C([H])([H])n2c(C3([H])C([H])([H])C([H])([H])N(C(=O)c4c([H])c(OC([H])([H])[H])c(OC([H])([H])[H])c(OC([H])([H])[H])c4[H])C([H])([H])C3([H])[H])nc3c([H])c([H])c([H])c([H])c32)c([H])c1[H]
     RDKit          3D

 67 71  0  0  0  0  0  0  0  0999 V2000
   -7.6447   -0.4678    1.5611 C   0  0  0  0  0  0  0  0  0  0  0  0
   -7.4354    0.0844    0.2983 O   0  0  0  0  0  0  0  0  0  0  0  0
   -6.1895    0.0909   -0.3096 C   0  0  0  0  0  0  0  0  0  0  0  0
   -5.1406   -0.4259    0.3885 C   0  0  0  0  0  0  0  0  0  0  0  0
   -3.8627   -0.4243   -0.2104 C   0  0  0  0  0  0  0  0  0  0  0  0
   -3.7546    0.1005   -1.4699 C   0  0  0  0  0  0  0  0  0  0  0  0
   -4.8559    0.6161   -2.1504 C   0  0  0  0  0  0  0  0  0  0  0  0
   -4.7049    1.1354   -3.4384 O   0  0  0  0  0  0  0  0  0  0  0  0
   -3.3907    1.1506   -4.0001 C   0  0  0  0  0  0  0  0  0  0  0  0
   -6.0964    0.6212   -1.5797 C   0  0  0  0  0  0  0  0  0  0  0  0
   -7.2188    1.1215   -2.2050 O   0  0  0  0  0  0  0  0  0  0  0  0
   -7.5573    2.5002   -1.9974 C   0  0  0  0  0  0  0  0  0  0  0  0
   -2.7673   -1.0337    0.4848 C   0  0  0  0  0  0  0  0  0  0  0  0
   -3.1187   -1.8286    1.4608 O   0  0  0  0  0  0  0  0  0  0  0  0
   -1.4093   -0.9233    0.3012 N   0  0  0  0  0  0  0  0  0  0  0  0
   -0.4966   -1.7738    1.0998 C   0  0  0  0  0  0  0  0  0  0  0  0
    0.7649   -2.0100    0.2642 C   0  0  0  0  0  0  0  0  0  0  0  0
    1.5390   -0.7024    0.1499 C   0  0  0  0  0  0  0  0  0  0  0  0
    0.5241    0.4427    0.2367 C   0  0  0  0  0  0  0  0  0  0  0  0
   -0.7346    0.0183   -0.5374 C   0  0  0  0  0  0  0  0  0  0  0  0
    2.5837   -0.6229    1.1926 C   0  0  0  0  0  0  0  0  0  0  0  0
    2.5220   -1.4051    2.3261 N   0  0  0  0  0  0  0  0  0  0  0  0
    3.5669   -1.1511    3.1163 C   0  0  0  0  0  0  0  0  0  0  0  0
    3.9812   -1.6457    4.3513 C   0  0  0  0  0  0  0  0  0  0  0  0
    5.1377   -1.1723    4.9371 C   0  0  0  0  0  0  0  0  0  0  0  0
    5.8658   -0.2052    4.2745 C   0  0  0  0  0  0  0  0  0  0  0  0
    5.4955    0.3005    3.0730 C   0  0  0  0  0  0  0  0  0  0  0  0
    4.3323   -0.1873    2.4997 C   0  0  0  0  0  0  0  0  0  0  0  0
    3.6943    0.1145    1.3135 N   0  0  0  0  0  0  0  0  0  0  0  0
    4.1454    1.1114    0.3988 C   0  0  0  0  0  0  0  0  0  0  0  0
    4.9793    0.7118   -0.7194 C   0  0  0  0  0  0  0  0  0  0  0  0
    6.2866    0.3481   -0.6586 C   0  0  0  0  0  0  0  0  0  0  0  0
    7.0231    0.0280   -1.7748 C   0  0  0  0  0  0  0  0  0  0  0  0
    6.4644    0.0594   -3.0433 C   0  0  0  0  0  0  0  0  0  0  0  0
    5.1328    0.4268   -3.1302 C   0  0  0  0  0  0  0  0  0  0  0  0
    4.4297    0.7396   -2.0007 C   0  0  0  0  0  0  0  0  0  0  0  0
   -7.4362   -1.5539    1.5761 H   0  0  0  0  0  0  0  0  0  0  0  0
   -8.6771   -0.2967    1.9374 H   0  0  0  0  0  0  0  0  0  0  0  0
   -6.9236   -0.0467    2.3280 H   0  0  0  0  0  0  0  0  0  0  0  0
   -5.2821   -0.8257    1.3703 H   0  0  0  0  0  0  0  0  0  0  0  0
   -2.8389    0.1220   -2.0101 H   0  0  0  0  0  0  0  0  0  0  0  0
   -2.7029    1.7478   -3.3822 H   0  0  0  0  0  0  0  0  0  0  0  0
   -3.4055    1.4114   -5.0647 H   0  0  0  0  0  0  0  0  0  0  0  0
   -3.0468    0.0761   -3.9855 H   0  0  0  0  0  0  0  0  0  0  0  0
   -6.6893    3.0913   -1.6467 H   0  0  0  0  0  0  0  0  0  0  0  0
   -8.0117    2.8402   -2.9280 H   0  0  0  0  0  0  0  0  0  0  0  0
   -8.3608    2.5591   -1.2063 H   0  0  0  0  0  0  0  0  0  0  0  0
   -1.0067   -2.7469    1.1809 H   0  0  0  0  0  0  0  0  0  0  0  0
   -0.2760   -1.2721    2.0471 H   0  0  0  0  0  0  0  0  0  0  0  0
    1.3990   -2.7157    0.8192 H   0  0  0  0  0  0  0  0  0  0  0  0
    0.4619   -2.3513   -0.7286 H   0  0  0  0  0  0  0  0  0  0  0  0
    1.9284   -0.6383   -0.8836 H   0  0  0  0  0  0  0  0  0  0  0  0
    0.9069    1.3396   -0.2937 H   0  0  0  0  0  0  0  0  0  0  0  0
    0.2146    0.6598    1.2501 H   0  0  0  0  0  0  0  0  0  0  0  0
   -0.5313   -0.3266   -1.5469 H   0  0  0  0  0  0  0  0  0  0  0  0
   -1.2960    1.0066   -0.6291 H   0  0  0  0  0  0  0  0  0  0  0  0
    3.3481   -2.3971    4.7974 H   0  0  0  0  0  0  0  0  0  0  0  0
    5.4352   -1.5720    5.8893 H   0  0  0  0  0  0  0  0  0  0  0  0
    6.7917    0.1829    4.7224 H   0  0  0  0  0  0  0  0  0  0  0  0
    6.0639    1.0721    2.5332 H   0  0  0  0  0  0  0  0  0  0  0  0
    3.2190    1.6128   -0.0052 H   0  0  0  0  0  0  0  0  0  0  0  0
    4.6423    1.9547    0.9542 H   0  0  0  0  0  0  0  0  0  0  0  0
    6.7989    0.2996    0.2925 H   0  0  0  0  0  0  0  0  0  0  0  0
    8.0736   -0.2623   -1.7105 H   0  0  0  0  0  0  0  0  0  0  0  0
    7.0637   -0.1965   -3.9254 H   0  0  0  0  0  0  0  0  0  0  0  0
    4.6813    0.4576   -4.1311 H   0  0  0  0  0  0  0  0  0  0  0  0
    3.3654    1.0254   -2.1234 H   0  0  0  0  0  0  0  0  0  0  0  0
  1  2  1  0
  2  3  1  0
  3  4  2  0
  4  5  1  0
  5  6  2  0
  6  7  1  0
  7  8  1  0
  8  9  1  0
  7 10  2  0
 10 11  1  0
 11 12  1  0
  5 13  1  0
 13 14  2  0
 13 15  1  0
 15 16  1  0
 16 17  1  0
 17 18  1  0
 18 19  1  0
 19 20  1  0
 18 21  1  0
 21 22  2  0
 22 23  1  0
 23 24  2  0
 24 25  1  0
 25 26  2  0
 26 27  1  0
 27 28  2  0
 28 29  1  0
 29 30  1  0
 30 31  1  0
 31 32  2  0
 32 33  1  0
 33 34  2  0
 34 35  1  0
 35 36  2  0
 10  3  1  0
 20 15  1  0
 29 21  1  0
 36 31  1  0
 28 23  1  0
  1 37  1  0
  1 38  1  0
  1 39  1  0
  4 40  1  0
  6 41  1  0
  9 42  1  0
  9 43  1  0
  9 44  1  0
 12 45  1  0
 12 46  1  0
 12 47  1  0
 16 48  1  0
 16 49  1  0
 17 50  1  0
 17 51  1  0
 18 52  1  0
 19 53  1  0
 19 54  1  0
 20 55  1  0
 20 56  1  0
 24 57  1  0
 25 58  1  0
 26 59  1  0
 27 60  1  0
 30 61  1  0
 30 62  1  0
 32 63  1  0
 33 64  1  0
 34 65  1  0
 35 66  1  0
 36 67  1  0
M  END
$$$$
[H]ON([H])C(=O)c1c([H])nc(N2C([H])([H])C([H])([H])N(S(=O)(=O)c3c([H])c([H])c([H])c([H])c3[H])C([H])([H])C2([H])[H])nc1[H]
     RDKit          3D

 42 44  0  0  0  0  0  0  0  0999 V2000
    8.5666    1.1272   -0.6244 O   0  0  0  0  0  0  0  0  0  0  0  0
    7.2921    0.6743   -0.4791 N   0  0  0  0  0  0  0  0  0  0  0  0
    6.2663    1.4999    0.0623 C   0  0  0  0  0  0  0  0  0  0  0  0
    6.5823    2.6700    0.4036 O   0  0  0  0  0  0  0  0  0  0  0  0
    4.8956    1.0504    0.2321 C   0  0  0  0  0  0  0  0  0  0  0  0
    4.5011   -0.2232   -0.1268 C   0  0  0  0  0  0  0  0  0  0  0  0
    3.1961   -0.5480    0.0715 N   0  0  0  0  0  0  0  0  0  0  0  0
    2.2906    0.2900    0.5880 C   0  0  0  0  0  0  0  0  0  0  0  0
    2.7064    1.5229    0.9272 N   0  0  0  0  0  0  0  0  0  0  0  0
    3.9765    1.9245    0.7646 C   0  0  0  0  0  0  0  0  0  0  0  0
    0.9629   -0.1560    0.7485 N   0  0  0  0  0  0  0  0  0  0  0  0
   -0.0793    0.7044    1.3059 C   0  0  0  0  0  0  0  0  0  0  0  0
   -1.3413    0.3894    0.5262 C   0  0  0  0  0  0  0  0  0  0  0  0
   -1.7874   -0.9203    0.8837 N   0  0  0  0  0  0  0  0  0  0  0  0
   -0.6850   -1.8228    1.1602 C   0  0  0  0  0  0  0  0  0  0  0  0
    0.5525   -1.4929    0.3708 C   0  0  0  0  0  0  0  0  0  0  0  0
   -2.8032   -1.6476   -0.2802 S   0  0  0  0  0  0  0  0  0  0  0  0
   -3.1083   -3.0569    0.1951 O   0  0  0  0  0  0  0  0  0  0  0  0
   -1.9958   -1.8071   -1.5532 O   0  0  0  0  0  0  0  0  0  0  0  0
   -4.2703   -0.7776   -0.5589 C   0  0  0  0  0  0  0  0  0  0  0  0
   -4.3470    0.2019   -1.5238 C   0  0  0  0  0  0  0  0  0  0  0  0
   -5.5164    0.9107   -1.7616 C   0  0  0  0  0  0  0  0  0  0  0  0
   -6.6448    0.6538   -1.0339 C   0  0  0  0  0  0  0  0  0  0  0  0
   -6.5925   -0.3218   -0.0629 C   0  0  0  0  0  0  0  0  0  0  0  0
   -5.4099   -1.0332    0.1721 C   0  0  0  0  0  0  0  0  0  0  0  0
    8.6335    2.0933   -0.4757 H   0  0  0  0  0  0  0  0  0  0  0  0
    7.1073   -0.3009   -0.7824 H   0  0  0  0  0  0  0  0  0  0  0  0
    5.2022   -0.9297   -0.5472 H   0  0  0  0  0  0  0  0  0  0  0  0
    4.2799    2.9162    1.0450 H   0  0  0  0  0  0  0  0  0  0  0  0
   -0.1753    0.4418    2.3697 H   0  0  0  0  0  0  0  0  0  0  0  0
    0.2189    1.7803    1.1524 H   0  0  0  0  0  0  0  0  0  0  0  0
   -2.0966    1.1463    0.8124 H   0  0  0  0  0  0  0  0  0  0  0  0
   -1.0512    0.4744   -0.5584 H   0  0  0  0  0  0  0  0  0  0  0  0
   -0.9555   -2.8799    0.9118 H   0  0  0  0  0  0  0  0  0  0  0  0
   -0.4667   -1.7675    2.2390 H   0  0  0  0  0  0  0  0  0  0  0  0
    1.3105   -2.2494    0.6061 H   0  0  0  0  0  0  0  0  0  0  0  0
    0.3438   -1.5679   -0.7132 H   0  0  0  0  0  0  0  0  0  0  0  0
   -3.4965    0.4575   -2.1354 H   0  0  0  0  0  0  0  0  0  0  0  0
   -5.5751    1.6892   -2.5294 H   0  0  0  0  0  0  0  0  0  0  0  0
   -7.5876    1.1975   -1.1974 H   0  0  0  0  0  0  0  0  0  0  0  0
   -7.4948   -0.5109    0.5024 H   0  0  0  0  0  0  0  0  0  0  0  0
   -5.4046   -1.8017    0.9517 H   0  0  0  0  0  0  0  0  0  0  0  0
  1  2  1  0
  2  3  1  0
  3  4  2  0
  3  5  1  0
  5  6  2  0
  6  7  1  0
  7  8  2  0
  8  9  1  0
  9 10  2  0
  8 11  1  0
 11 12  1  0
 12 13  1  0
 13 14  1  0
 14 15  1  0
 15 16  1  0
 14 17  1  0
 17 18  2  0
 17 19  2  0
 17 20  1  0
 20 21  2  0
 21 22  1  0
 22 23  2  0
 23 24  1  0
 24 25  2  0
 10  5  1  0
 16 11  1  0
 25 20  1  0
  1 26  1  0
  2 27  1  0
  6 28  1  0
 10 29  1  0
 12 30  1  0
 12 31  1  0
 13 32  1  0
 13 33  1  0
 15 34  1  0
 15 35  1  0
 16 36  1  0
 16 37  1  0
 21 38  1  0
 22 39  1  0
 23 40  1  0
 24 41  1  0
 25 42  1  0
M  END
$$$$
[H]OC([H])([H])C([H])([H])Oc1nc([H])c(-c2c(C([H])([H])[H])nc([H])c(N([H])C(=O)c3c([H])c([H])c([H])c(C(F)(F)F)c3[H])c2[H])c([H])c1N1C([H])([H])C([H])([H])OC([H])([H])C1([H])[H]
     RDKit          3D

 61 64  0  0  0  0  0  0  0  0999 V2000
   -1.0478   -1.6207    3.5053 C   0  0  0  0  0  0  0  0  0  0  0  0
    0.1766   -1.1925    2.7955 C   0  0  0  0  0  0  0  0  0  0  0  0
    1.3257   -1.0825    3.4680 N   0  0  0  0  0  0  0  0  0  0  0  0
    2.4807   -0.7144    2.9087 C   0  0  0  0  0  0  0  0  0  0  0  0
    2.5518   -0.4133    1.5431 C   0  0  0  0  0  0  0  0  0  0  0  0
    3.8026   -0.0344    1.0189 N   0  0  0  0  0  0  0  0  0  0  0  0
    4.0530    0.4836   -0.2595 C   0  0  0  0  0  0  0  0  0  0  0  0
    3.2193    0.7059   -1.1649 O   0  0  0  0  0  0  0  0  0  0  0  0
    5.4466    0.8175   -0.6170 C   0  0  0  0  0  0  0  0  0  0  0  0
    5.6539    1.9033   -1.4294 C   0  0  0  0  0  0  0  0  0  0  0  0
    6.9225    2.2945   -1.8348 C   0  0  0  0  0  0  0  0  0  0  0  0
    7.9585    1.5341   -1.3822 C   0  0  0  0  0  0  0  0  0  0  0  0
    7.8315    0.4297   -0.5664 C   0  0  0  0  0  0  0  0  0  0  0  0
    6.5312    0.0968   -0.1967 C   0  0  0  0  0  0  0  0  0  0  0  0
    9.0106   -0.3453   -0.1284 C   0  0  0  0  0  0  0  0  0  0  0  0
    9.4558   -1.1528   -1.1713 F   0  0  0  0  0  0  0  0  0  0  0  0
   10.0124    0.5505    0.2423 F   0  0  0  0  0  0  0  0  0  0  0  0
    8.7145   -1.1484    0.9535 F   0  0  0  0  0  0  0  0  0  0  0  0
    1.3746   -0.5263    0.8625 C   0  0  0  0  0  0  0  0  0  0  0  0
    0.1808   -0.9090    1.4443 C   0  0  0  0  0  0  0  0  0  0  0  0
   -1.0432   -0.9973    0.6608 C   0  0  0  0  0  0  0  0  0  0  0  0
   -1.4183   -2.1600    0.0278 C   0  0  0  0  0  0  0  0  0  0  0  0
   -2.5655   -2.1624   -0.6691 N   0  0  0  0  0  0  0  0  0  0  0  0
   -3.3794   -1.1038   -0.7919 C   0  0  0  0  0  0  0  0  0  0  0  0
   -4.5558   -1.0701   -1.4924 O   0  0  0  0  0  0  0  0  0  0  0  0
   -5.0857   -2.1506   -2.1861 C   0  0  0  0  0  0  0  0  0  0  0  0
   -5.4131   -3.3579   -1.3258 C   0  0  0  0  0  0  0  0  0  0  0  0
   -5.9426   -4.3749   -2.1589 O   0  0  0  0  0  0  0  0  0  0  0  0
   -3.0378    0.1092   -0.1636 C   0  0  0  0  0  0  0  0  0  0  0  0
   -1.8739    0.1199    0.5470 C   0  0  0  0  0  0  0  0  0  0  0  0
   -3.8882    1.2294   -0.3014 N   0  0  0  0  0  0  0  0  0  0  0  0
   -5.2777    1.2118    0.0904 C   0  0  0  0  0  0  0  0  0  0  0  0
   -5.6339    2.5594    0.6664 C   0  0  0  0  0  0  0  0  0  0  0  0
   -4.4326    3.1334    1.1555 O   0  0  0  0  0  0  0  0  0  0  0  0
   -3.8201    3.6757    0.0156 C   0  0  0  0  0  0  0  0  0  0  0  0
   -3.3787    2.4904   -0.8543 C   0  0  0  0  0  0  0  0  0  0  0  0
   -1.2820   -2.6748    3.2915 H   0  0  0  0  0  0  0  0  0  0  0  0
   -0.8857   -1.5084    4.5786 H   0  0  0  0  0  0  0  0  0  0  0  0
   -1.9209   -0.9514    3.2327 H   0  0  0  0  0  0  0  0  0  0  0  0
    3.3841   -0.6344    3.5059 H   0  0  0  0  0  0  0  0  0  0  0  0
    4.6577   -0.1410    1.6460 H   0  0  0  0  0  0  0  0  0  0  0  0
    4.8240    2.4720   -1.7626 H   0  0  0  0  0  0  0  0  0  0  0  0
    7.0474    3.1633   -2.4788 H   0  0  0  0  0  0  0  0  0  0  0  0
    8.9680    1.8112   -1.6749 H   0  0  0  0  0  0  0  0  0  0  0  0
    6.3854   -0.7591    0.4425 H   0  0  0  0  0  0  0  0  0  0  0  0
    1.3685   -0.3109   -0.2160 H   0  0  0  0  0  0  0  0  0  0  0  0
   -0.8031   -3.0537    0.0943 H   0  0  0  0  0  0  0  0  0  0  0  0
   -4.3815   -2.5223   -2.9838 H   0  0  0  0  0  0  0  0  0  0  0  0
   -6.0624   -1.8779   -2.6725 H   0  0  0  0  0  0  0  0  0  0  0  0
   -4.4848   -3.7720   -0.9182 H   0  0  0  0  0  0  0  0  0  0  0  0
   -6.1557   -3.1436   -0.5532 H   0  0  0  0  0  0  0  0  0  0  0  0
   -6.5425   -4.9618   -1.6134 H   0  0  0  0  0  0  0  0  0  0  0  0
   -1.5579    1.0327    1.0458 H   0  0  0  0  0  0  0  0  0  0  0  0
   -5.8699    1.1153   -0.8704 H   0  0  0  0  0  0  0  0  0  0  0  0
   -5.5229    0.4543    0.8320 H   0  0  0  0  0  0  0  0  0  0  0  0
   -6.4021    2.5252    1.4491 H   0  0  0  0  0  0  0  0  0  0  0  0
   -6.0386    3.2531   -0.1241 H   0  0  0  0  0  0  0  0  0  0  0  0
   -2.9601    4.3300    0.2566 H   0  0  0  0  0  0  0  0  0  0  0  0
   -4.5658    4.2977   -0.4931 H   0  0  0  0  0  0  0  0  0  0  0  0
   -3.8185    2.5672   -1.8721 H   0  0  0  0  0  0  0  0  0  0  0  0
   -2.2892    2.4610   -0.9211 H   0  0  0  0  0  0  0  0  0  0  0  0
  1  2  1  0
  2  3  2  0
  3  4  1  0
  4  5  2  0
  5  6  1  0
  6  7  1  0
  7  8  2  0
  7  9  1  0
  9 10  2  0
 10 11  1  0
 11 12  2  0
 12 13  1  0
 13 14  2  0
 13 15  1  0
 15 16  1  0
 15 17  1  0
 15 18  1  0
  5 19  1  0
 19 20  2  0
 20 21  1  0
 21 22  2  0
 22 23  1  0
 23 24  2  0
 24 25  1  0
 25 26  1  0
 26 27  1  0
 27 28  1  0
 24 29  1  0
 29 30  2  0
 29 31  1  0
 31 32  1  0
 32 33  1  0
 33 34  1  0
 34 35  1  0
 35 36  1  0
 20  2  1  0
 30 21  1  0
 36 31  1  0
 14  9  1  0
  1 37  1  0
  1 38  1  0
  1 39  1  0
  4 40  1  0
  6 41  1  0
 10 42  1  0
 11 43  1  0
 12 44  1  0
 14 45  1  0
 19 46  1  0
 22 47  1  0
 26 48  1  0
 26 49  1  0
 27 50  1  0
 27 51  1  0
 28 52  1  0
 30 53  1  0
 32 54  1  0
 32 55  1  0
 33 56  1  0
 33 57  1  0
 35 58  1  0
 35 59  1  0
 36 60  1  0
 36 61  1  0
M  END
$$$$
[H]C1=C2C([H])([H])C([H])([H])[C@@]3([H])[C@]4([H])C([H])([H])C([H])([H])C(=O)[C@@]4(C([H])([H])[H])C([H])([H])C([H])([H])[C@]3([H])[C@@]2(C([H])([H])[H])C([H])([H])C([H])([H])C1=O
     RDKit          3D

 47 50  0  0  0  0  0  0  0  0999 V2000
    2.6396    1.2197    0.9531 C   0  0  0  0  0  0  0  0  0  0  0  0
    2.3973    0.7670   -0.4636 C   0  0  2  0  0  0  0  0  0  0  0  0
    1.5004    1.7083   -1.1903 C   0  0  0  0  0  0  0  0  0  0  0  0
    0.0585    1.4268   -1.1366 C   0  0  0  0  0  0  0  0  0  0  0  0
   -0.4200    0.1692   -0.5425 C   0  0  1  0  0  0  0  0  0  0  0  0
    0.5806   -0.5825    0.3126 C   0  0  1  0  0  0  0  0  0  0  0  0
    0.1337   -1.9966    0.5570 C   0  0  0  0  0  0  0  0  0  0  0  0
   -1.2806   -2.1434    0.9939 C   0  0  0  0  0  0  0  0  0  0  0  0
   -2.1914   -1.0906    0.4737 C   0  0  0  0  0  0  0  0  0  0  0  0
   -3.4545   -1.4865    0.2593 C   0  0  0  0  0  0  0  0  0  0  0  0
   -4.4611   -0.5844   -0.2442 C   0  0  0  0  0  0  0  0  0  0  0  0
   -5.5573   -0.9581   -0.6885 O   0  0  0  0  0  0  0  0  0  0  0  0
   -4.1546    0.8633   -0.2228 C   0  0  0  0  0  0  0  0  0  0  0  0
   -2.7156    1.0067   -0.6775 C   0  0  0  0  0  0  0  0  0  0  0  0
   -1.7394    0.2983    0.2106 C   0  0  2  0  0  0  0  0  0  0  0  0
   -1.5800    1.0895    1.4819 C   0  0  0  0  0  0  0  0  0  0  0  0
    1.8180   -0.6297   -0.5366 C   0  0  2  0  0  0  0  0  0  0  0  0
    2.9282   -1.4611   -0.0121 C   0  0  0  0  0  0  0  0  0  0  0  0
    4.1567   -0.7973   -0.6492 C   0  0  0  0  0  0  0  0  0  0  0  0
    3.7018    0.5344   -1.1052 C   0  0  0  0  0  0  0  0  0  0  0  0
    4.2746    1.2859   -1.8507 O   0  0  0  0  0  0  0  0  0  0  0  0
    1.7712    1.8477    1.2604 H   0  0  0  0  0  0  0  0  0  0  0  0
    2.7266    0.4035    1.6756 H   0  0  0  0  0  0  0  0  0  0  0  0
    3.5214    1.8914    0.9729 H   0  0  0  0  0  0  0  0  0  0  0  0
    1.8789    1.7499   -2.2564 H   0  0  0  0  0  0  0  0  0  0  0  0
    1.7402    2.7420   -0.8001 H   0  0  0  0  0  0  0  0  0  0  0  0
   -0.4404    2.2735   -0.5752 H   0  0  0  0  0  0  0  0  0  0  0  0
   -0.3602    1.5492   -2.1819 H   0  0  0  0  0  0  0  0  0  0  0  0
   -0.6589   -0.5442   -1.3888 H   0  0  0  0  0  0  0  0  0  0  0  0
    0.7781   -0.0594    1.2582 H   0  0  0  0  0  0  0  0  0  0  0  0
    0.7903   -2.4104    1.3648 H   0  0  0  0  0  0  0  0  0  0  0  0
    0.3907   -2.5922   -0.3519 H   0  0  0  0  0  0  0  0  0  0  0  0
   -1.3979   -2.1615    2.1070 H   0  0  0  0  0  0  0  0  0  0  0  0
   -1.6216   -3.1660    0.6591 H   0  0  0  0  0  0  0  0  0  0  0  0
   -3.7681   -2.5167    0.4605 H   0  0  0  0  0  0  0  0  0  0  0  0
   -4.7752    1.4295   -0.9440 H   0  0  0  0  0  0  0  0  0  0  0  0
   -4.3247    1.3148    0.7715 H   0  0  0  0  0  0  0  0  0  0  0  0
   -2.6491    0.5341   -1.6834 H   0  0  0  0  0  0  0  0  0  0  0  0
   -2.5320    2.0823   -0.7620 H   0  0  0  0  0  0  0  0  0  0  0  0
   -0.5943    1.5687    1.5658 H   0  0  0  0  0  0  0  0  0  0  0  0
   -1.7887    0.4451    2.3660 H   0  0  0  0  0  0  0  0  0  0  0  0
   -2.3447    1.9188    1.5386 H   0  0  0  0  0  0  0  0  0  0  0  0
    1.6351   -0.8716   -1.5820 H   0  0  0  0  0  0  0  0  0  0  0  0
    2.8557   -2.4806   -0.4224 H   0  0  0  0  0  0  0  0  0  0  0  0
    3.0100   -1.5258    1.0686 H   0  0  0  0  0  0  0  0  0  0  0  0
    4.9358   -0.6443    0.1243 H   0  0  0  0  0  0  0  0  0  0  0  0
    4.5869   -1.4168   -1.4417 H   0  0  0  0  0  0  0  0  0  0  0  0
  2  1  1  1
  2  3  1  0
  3  4  1  0
  4  5  1  0
  5  6  1  0
  6  7  1  0
  7  8  1  0
  8  9  1  0
  9 10  2  0
 10 11  1  0
 11 12  2  0
 11 13  1  0
 13 14  1  0
 14 15  1  0
 15 16  1  1
  6 17  1  0
 17 18  1  0
 18 19  1  0
 19 20  1  0
 20 21  2  0
 17  2  1  0
 20  2  1  0
 15  5  1  0
 15  9  1  0
  1 22  1  0
  1 23  1  0
  1 24  1  0
  3 25  1  0
  3 26  1  0
  4 27  1  0
  4 28  1  0
  5 29  1  6
  6 30  1  1
  7 31  1  0
  7 32  1  0
  8 33  1  0
  8 34  1  0
 10 35  1  0
 13 36  1  0
 13 37  1  0
 14 38  1  0
 14 39  1  0
 16 40  1  0
 16 41  1  0
 16 42  1  0
 17 43  1  6
 18 44  1  0
 18 45  1  0
 19 46  1  0
 19 47  1  0
M  END
$$$$
[H]Oc1c([H])c([H])c(C([H])([H])[C@@]([H])(C(=O)N([H])[C@]([H])(C(=O)N([H])[C@]([H])(C(=O)N([H])[C@]([H])(C(=O)N([H])[C@]([H])(C(=O)N([H])[C@]([H])(C(=O)N([H])[C@]([H])(C(=O)N([H])[H])C([H])([H])c2c([H])c([H])c([H])c([H])c2[H])C([H])([H])C([H])([H])C([H])([H])C([H])([H])N([H])[H])C([H])([H])C([H])(C([H])([H])[H])C([H])([H])[H])C([H])([H])C([H])([H])C(=O)N([H])[H])C([H])([H])C([H])(C([H])([H])[H])C([H])([H])[H])C([H])(C([H])([H])[H])C([H])([H])[H])N([H])[H])c([H])c1[H]
     RDKit          3D

137138  0  0  0  0  0  0  0  0999 V2000
   -3.1744   -0.5134    4.9713 C   0  0  0  0  0  0  0  0  0  0  0  0
   -2.4927   -1.0362    3.7217 C   0  0  0  0  0  0  0  0  0  0  0  0
   -2.6157   -2.5296    3.7566 C   0  0  0  0  0  0  0  0  0  0  0  0
   -3.1719   -0.4107    2.5408 C   0  0  0  0  0  0  0  0  0  0  0  0
   -2.5863   -0.8397    1.2126 C   0  0  2  0  0  0  0  0  0  0  0  0
   -1.1768   -0.4716    1.1276 N   0  0  0  0  0  0  0  0  0  0  0  0
   -0.1999   -1.4223    0.6931 C   0  0  0  0  0  0  0  0  0  0  0  0
   -0.5945   -2.5701    0.3881 O   0  0  0  0  0  0  0  0  0  0  0  0
    1.2237   -1.0976    0.5935 C   0  0  2  0  0  0  0  0  0  0  0  0
    1.5482    0.2626    0.0929 C   0  0  0  0  0  0  0  0  0  0  0  0
    1.1143    0.7146   -1.2230 C   0  0  0  0  0  0  0  0  0  0  0  0
    1.5824    0.0782   -2.4342 C   0  0  0  0  0  0  0  0  0  0  0  0
    0.9449    0.3002   -3.7000 N   0  0  0  0  0  0  0  0  0  0  0  0
    2.5569   -0.6921   -2.4599 O   0  0  0  0  0  0  0  0  0  0  0  0
    2.0290   -2.1562    0.0575 N   0  0  0  0  0  0  0  0  0  0  0  0
    3.2769   -2.4750    0.6029 C   0  0  0  0  0  0  0  0  0  0  0  0
    3.6878   -1.8076    1.5977 O   0  0  0  0  0  0  0  0  0  0  0  0
    4.1158   -3.5803    0.0122 C   0  0  2  0  0  0  0  0  0  0  0  0
    3.7030   -4.9375    0.4222 C   0  0  0  0  0  0  0  0  0  0  0  0
    2.3367   -5.3872    0.0481 C   0  0  0  0  0  0  0  0  0  0  0  0
    2.1442   -6.8043    0.6362 C   0  0  0  0  0  0  0  0  0  0  0  0
    2.2111   -5.6175   -1.4572 C   0  0  0  0  0  0  0  0  0  0  0  0
    5.4729   -3.3703    0.5847 N   0  0  0  0  0  0  0  0  0  0  0  0
    6.3608   -2.5017   -0.0770 C   0  0  0  0  0  0  0  0  0  0  0  0
    5.9196   -1.9369   -1.1341 O   0  0  0  0  0  0  0  0  0  0  0  0
    7.7451   -2.1731    0.3233 C   0  0  1  0  0  0  0  0  0  0  0  0
    7.8943   -0.7503    0.1346 N   0  0  0  0  0  0  0  0  0  0  0  0
    8.6301   -0.1920   -0.9296 C   0  0  0  0  0  0  0  0  0  0  0  0
    9.2060   -0.9022   -1.7804 O   0  0  0  0  0  0  0  0  0  0  0  0
    8.7345    1.2973   -1.0594 C   0  0  1  0  0  0  0  0  0  0  0  0
    8.0735    1.9689    0.0296 N   0  0  0  0  0  0  0  0  0  0  0  0
   10.1626    1.7072   -1.2498 C   0  0  0  0  0  0  0  0  0  0  0  0
   10.2808    3.2000   -1.3690 C   0  0  0  0  0  0  0  0  0  0  0  0
   10.4892    3.9610   -0.2154 C   0  0  0  0  0  0  0  0  0  0  0  0
   10.5992    5.3171   -0.2912 C   0  0  0  0  0  0  0  0  0  0  0  0
   10.5059    5.9705   -1.5143 C   0  0  0  0  0  0  0  0  0  0  0  0
   10.6115    7.3494   -1.6304 O   0  0  0  0  0  0  0  0  0  0  0  0
   10.3013    5.2420   -2.6600 C   0  0  0  0  0  0  0  0  0  0  0  0
   10.1920    3.8641   -2.5651 C   0  0  0  0  0  0  0  0  0  0  0  0
    8.0288   -2.6163    1.7185 C   0  0  0  0  0  0  0  0  0  0  0  0
    7.1423   -1.9612    2.7308 C   0  0  0  0  0  0  0  0  0  0  0  0
    9.4956   -2.2899    2.0130 C   0  0  0  0  0  0  0  0  0  0  0  0
   -3.3771   -0.1289    0.1652 C   0  0  0  0  0  0  0  0  0  0  0  0
   -2.7963    0.6859   -0.5693 O   0  0  0  0  0  0  0  0  0  0  0  0
   -4.7479   -0.4046    0.0420 N   0  0  0  0  0  0  0  0  0  0  0  0
   -5.5452    0.2897   -0.9960 C   0  0  1  0  0  0  0  0  0  0  0  0
   -5.7703   -0.6315   -2.1427 C   0  0  0  0  0  0  0  0  0  0  0  0
   -6.4461   -1.9149   -1.8714 C   0  0  0  0  0  0  0  0  0  0  0  0
   -7.8458   -1.9165   -1.4061 C   0  0  0  0  0  0  0  0  0  0  0  0
   -8.8156   -1.3549   -2.4310 C   0  0  0  0  0  0  0  0  0  0  0  0
  -10.1520   -1.3889   -1.8745 N   0  0  0  0  0  0  0  0  0  0  0  0
   -6.6509    0.9879   -0.3880 C   0  0  0  0  0  0  0  0  0  0  0  0
   -6.8618    0.8364    0.8683 O   0  0  0  0  0  0  0  0  0  0  0  0
   -7.5466    1.8521   -1.0476 N   0  0  0  0  0  0  0  0  0  0  0  0
   -8.6380    2.5352   -0.3205 C   0  0  1  0  0  0  0  0  0  0  0  0
   -8.1193    3.9844   -0.2646 C   0  0  0  0  0  0  0  0  0  0  0  0
   -9.0448    4.8729    0.4467 C   0  0  0  0  0  0  0  0  0  0  0  0
  -10.0175    5.6388   -0.1584 C   0  0  0  0  0  0  0  0  0  0  0  0
  -10.8658    6.4758    0.5263 C   0  0  0  0  0  0  0  0  0  0  0  0
  -10.7707    6.5847    1.8896 C   0  0  0  0  0  0  0  0  0  0  0  0
   -9.8145    5.8405    2.5446 C   0  0  0  0  0  0  0  0  0  0  0  0
   -8.9762    5.0086    1.8411 C   0  0  0  0  0  0  0  0  0  0  0  0
   -9.8276    2.4732   -1.1740 C   0  0  0  0  0  0  0  0  0  0  0  0
  -11.1089    2.7850   -0.6820 N   0  0  0  0  0  0  0  0  0  0  0  0
   -9.7397    2.1331   -2.3761 O   0  0  0  0  0  0  0  0  0  0  0  0
   -4.2337   -0.8228    4.9679 H   0  0  0  0  0  0  0  0  0  0  0  0
   -2.6268   -0.8508    5.8811 H   0  0  0  0  0  0  0  0  0  0  0  0
   -3.1572    0.5890    4.9047 H   0  0  0  0  0  0  0  0  0  0  0  0
   -1.4185   -0.7787    3.7852 H   0  0  0  0  0  0  0  0  0  0  0  0
   -1.8289   -3.0372    3.1593 H   0  0  0  0  0  0  0  0  0  0  0  0
   -3.6324   -2.8377    3.4587 H   0  0  0  0  0  0  0  0  0  0  0  0
   -2.4800   -2.8351    4.8128 H   0  0  0  0  0  0  0  0  0  0  0  0
   -4.2666   -0.5431    2.5729 H   0  0  0  0  0  0  0  0  0  0  0  0
   -2.9954    0.6899    2.6182 H   0  0  0  0  0  0  0  0  0  0  0  0
   -2.6696   -1.8987    0.9873 H   0  0  0  0  0  0  0  0  0  0  0  0
   -0.9205    0.5004    1.3983 H   0  0  0  0  0  0  0  0  0  0  0  0
    1.5712   -1.0394    1.7071 H   0  0  0  0  0  0  0  0  0  0  0  0
    2.6638    0.3805    0.2108 H   0  0  0  0  0  0  0  0  0  0  0  0
    1.1367    0.9910    0.8743 H   0  0  0  0  0  0  0  0  0  0  0  0
    1.4433    1.8151   -1.3112 H   0  0  0  0  0  0  0  0  0  0  0  0
   -0.0133    0.8401   -1.2178 H   0  0  0  0  0  0  0  0  0  0  0  0
    1.5711    0.4394   -4.5195 H   0  0  0  0  0  0  0  0  0  0  0  0
   -0.0749    0.3286   -3.8536 H   0  0  0  0  0  0  0  0  0  0  0  0
    1.6509   -2.6840   -0.7407 H   0  0  0  0  0  0  0  0  0  0  0  0
    4.1513   -3.4540   -1.0874 H   0  0  0  0  0  0  0  0  0  0  0  0
    3.8058   -5.0855    1.5411 H   0  0  0  0  0  0  0  0  0  0  0  0
    4.4147   -5.7188    0.0092 H   0  0  0  0  0  0  0  0  0  0  0  0
    1.5226   -4.7677    0.3957 H   0  0  0  0  0  0  0  0  0  0  0  0
    1.8455   -6.6885    1.6974 H   0  0  0  0  0  0  0  0  0  0  0  0
    1.3611   -7.3320    0.0839 H   0  0  0  0  0  0  0  0  0  0  0  0
    3.0770   -7.3788    0.6108 H   0  0  0  0  0  0  0  0  0  0  0  0
    2.0161   -4.6865   -1.9836 H   0  0  0  0  0  0  0  0  0  0  0  0
    1.3564   -6.3032   -1.6004 H   0  0  0  0  0  0  0  0  0  0  0  0
    3.1207   -6.1421   -1.8386 H   0  0  0  0  0  0  0  0  0  0  0  0
    5.7422   -3.8535    1.4391 H   0  0  0  0  0  0  0  0  0  0  0  0
    8.4477   -2.6969   -0.4114 H   0  0  0  0  0  0  0  0  0  0  0  0
    7.4346   -0.1132    0.8209 H   0  0  0  0  0  0  0  0  0  0  0  0
    8.1718    1.5509   -2.0080 H   0  0  0  0  0  0  0  0  0  0  0  0
    7.0538    1.7731   -0.0144 H   0  0  0  0  0  0  0  0  0  0  0  0
    8.5078    1.6405    0.9208 H   0  0  0  0  0  0  0  0  0  0  0  0
   10.7758    1.4079   -0.3796 H   0  0  0  0  0  0  0  0  0  0  0  0
   10.5765    1.2220   -2.1669 H   0  0  0  0  0  0  0  0  0  0  0  0
   10.5611    3.4460    0.7286 H   0  0  0  0  0  0  0  0  0  0  0  0
   10.7657    5.9342    0.5887 H   0  0  0  0  0  0  0  0  0  0  0  0
   11.5598    7.7169   -1.7772 H   0  0  0  0  0  0  0  0  0  0  0  0
   10.2244    5.7248   -3.6320 H   0  0  0  0  0  0  0  0  0  0  0  0
   10.0280    3.2420   -3.4551 H   0  0  0  0  0  0  0  0  0  0  0  0
    7.9495   -3.7228    1.8323 H   0  0  0  0  0  0  0  0  0  0  0  0
    6.4400   -1.2737    2.2428 H   0  0  0  0  0  0  0  0  0  0  0  0
    7.7764   -1.3811    3.4523 H   0  0  0  0  0  0  0  0  0  0  0  0
    6.5821   -2.7058    3.3255 H   0  0  0  0  0  0  0  0  0  0  0  0
   10.0946   -2.3626    1.0580 H   0  0  0  0  0  0  0  0  0  0  0  0
    9.5874   -1.2708    2.4140 H   0  0  0  0  0  0  0  0  0  0  0  0
    9.9287   -3.0172    2.7022 H   0  0  0  0  0  0  0  0  0  0  0  0
   -5.2105   -1.0846    0.6613 H   0  0  0  0  0  0  0  0  0  0  0  0
   -4.7925    1.0642   -1.4153 H   0  0  0  0  0  0  0  0  0  0  0  0
   -4.7462   -0.8770   -2.5548 H   0  0  0  0  0  0  0  0  0  0  0  0
   -6.2395   -0.0413   -2.9707 H   0  0  0  0  0  0  0  0  0  0  0  0
   -5.8391   -2.4231   -1.0505 H   0  0  0  0  0  0  0  0  0  0  0  0
   -6.3429   -2.6438   -2.7198 H   0  0  0  0  0  0  0  0  0  0  0  0
   -8.1472   -2.9948   -1.2662 H   0  0  0  0  0  0  0  0  0  0  0  0
   -8.0265   -1.4541   -0.4174 H   0  0  0  0  0  0  0  0  0  0  0  0
   -8.5134   -0.4044   -2.8661 H   0  0  0  0  0  0  0  0  0  0  0  0
   -8.8613   -2.0712   -3.3127 H   0  0  0  0  0  0  0  0  0  0  0  0
  -10.8838   -1.2180   -2.5894 H   0  0  0  0  0  0  0  0  0  0  0  0
  -10.2003   -0.7558   -1.0518 H   0  0  0  0  0  0  0  0  0  0  0  0
   -7.4591    2.0257   -2.0544 H   0  0  0  0  0  0  0  0  0  0  0  0
   -8.7410    2.2034    0.7049 H   0  0  0  0  0  0  0  0  0  0  0  0
   -8.0113    4.3658   -1.3080 H   0  0  0  0  0  0  0  0  0  0  0  0
   -7.1079    3.9174    0.1746 H   0  0  0  0  0  0  0  0  0  0  0  0
  -10.0773    5.5496   -1.2550 H   0  0  0  0  0  0  0  0  0  0  0  0
  -11.6071    7.0460   -0.0029 H   0  0  0  0  0  0  0  0  0  0  0  0
  -11.4448    7.2506    2.4434 H   0  0  0  0  0  0  0  0  0  0  0  0
   -9.7220    5.9100    3.6205 H   0  0  0  0  0  0  0  0  0  0  0  0
   -8.2147    4.4153    2.3381 H   0  0  0  0  0  0  0  0  0  0  0  0
  -11.8230    3.2344   -1.3080 H   0  0  0  0  0  0  0  0  0  0  0  0
  -11.4171    2.6012    0.2882 H   0  0  0  0  0  0  0  0  0  0  0  0
  1  2  1  0
  2  3  1  0
  2  4  1  0
  4  5  1  0
  5  6  1  0
  6  7  1  0
  7  8  2  0
  7  9  1  0
  9 10  1  0
 10 11  1  0
 11 12  1  0
 12 13  1  0
 12 14  2  0
  9 15  1  0
 15 16  1  0
 16 17  2  0
 16 18  1  0
 18 19  1  0
 19 20  1  0
 20 21  1  0
 20 22  1  0
 18 23  1  0
 23 24  1  0
 24 25  2  0
 24 26  1  0
 26 27  1  0
 27 28  1  0
 28 29  2  0
 28 30  1  0
 30 31  1  0
 30 32  1  0
 32 33  1  0
 33 34  2  0
 34 35  1  0
 35 36  2  0
 36 37  1  0
 36 38  1  0
 38 39  2  0
 26 40  1  0
 40 41  1  0
 40 42  1  0
  5 43  1  0
 43 44  2  0
 43 45  1  0
 45 46  1  0
 46 47  1  0
 47 48  1  0
 48 49  1  0
 49 50  1  0
 50 51  1  0
 46 52  1  0
 52 53  2  0
 52 54  1  0
 54 55  1  0
 55 56  1  0
 56 57  1  0
 57 58  2  0
 58 59  1  0
 59 60  2  0
 60 61  1  0
 61 62  2  0
 55 63  1  0
 63 64  1  0
 63 65  2  0
 39 33  1  0
 62 57  1  0
  1 66  1  0
  1 67  1  0
  1 68  1  0
  2 69  1  0
  3 70  1  0
  3 71  1  0
  3 72  1  0
  4 73  1  0
  4 74  1  0
  5 75  1  6
  6 76  1  0
  9 77  1  1
 10 78  1  0
 10 79  1  0
 11 80  1  0
 11 81  1  0
 13 82  1  0
 13 83  1  0
 15 84  1  0
 18 85  1  6
 19 86  1  0
 19 87  1  0
 20 88  1  0
 21 89  1  0
 21 90  1  0
 21 91  1  0
 22 92  1  0
 22 93  1  0
 22 94  1  0
 23 95  1  0
 26 96  1  6
 27 97  1  0
 30 98  1  6
 31 99  1  0
 31100  1  0
 32101  1  0
 32102  1  0
 34103  1  0
 35104  1  0
 37105  1  0
 38106  1  0
 39107  1  0
 40108  1  0
 41109  1  0
 41110  1  0
 41111  1  0
 42112  1  0
 42113  1  0
 42114  1  0
 45115  1  0
 46116  1  6
 47117  1  0
 47118  1  0
 48119  1  0
 48120  1  0
 49121  1  0
 49122  1  0
 50123  1  0
 50124  1  0
 51125  1  0
 51126  1  0
 54127  1  0
 55128  1  1
 56129  1  0
 56130  1  0
 58131  1  0
 59132  1  0
 60133  1  0
 61134  1  0
 62135  1  0
 64136  1  0
 64137  1  0
M  END
$$$$
[H]c1nc(C([H])([H])[H])oc1-c1c(N([H])[H])nc([H])c(-c2c([H])c(S(=O)(=O)N([H])C([H])([H])C(C([H])([H])[H])(C([H])([H])[H])C([H])([H])[H])c([H])c([H])c2C([H])([H])[H])c1[H]
     RDKit          3D

 55 57  0  0  0  0  0  0  0  0999 V2000
    6.9984    3.3388   -0.1838 C   0  0  0  0  0  0  0  0  0  0  0  0
    5.7126    2.5671   -0.1899 C   0  0  0  0  0  0  0  0  0  0  0  0
    4.4834    3.1284   -0.2076 N   0  0  0  0  0  0  0  0  0  0  0  0
    3.5887    2.0998   -0.2073 C   0  0  0  0  0  0  0  0  0  0  0  0
    4.3068    0.9246   -0.1892 C   0  0  0  0  0  0  0  0  0  0  0  0
    5.5545    1.2638   -0.1795 O   0  0  0  0  0  0  0  0  0  0  0  0
    3.7529   -0.4233   -0.1825 C   0  0  0  0  0  0  0  0  0  0  0  0
    2.3913   -0.6440   -0.1945 C   0  0  0  0  0  0  0  0  0  0  0  0
    1.8785   -1.9201   -0.1880 C   0  0  0  0  0  0  0  0  0  0  0  0
    2.7446   -2.9762   -0.1692 C   0  0  0  0  0  0  0  0  0  0  0  0
    4.0669   -2.7407   -0.1579 N   0  0  0  0  0  0  0  0  0  0  0  0
    4.5838   -1.5241   -0.1639 C   0  0  0  0  0  0  0  0  0  0  0  0
    6.0209   -1.3581   -0.1508 N   0  0  0  0  0  0  0  0  0  0  0  0
    0.4470   -2.1553   -0.1768 C   0  0  0  0  0  0  0  0  0  0  0  0
   -0.3709   -1.5595    0.7764 C   0  0  0  0  0  0  0  0  0  0  0  0
   -1.7292   -1.7480    0.8594 C   0  0  0  0  0  0  0  0  0  0  0  0
   -2.2954   -2.5878   -0.0752 C   0  0  0  0  0  0  0  0  0  0  0  0
   -1.5184   -3.1993   -1.0391 C   0  0  0  0  0  0  0  0  0  0  0  0
   -0.1367   -2.9816   -1.0911 C   0  0  0  0  0  0  0  0  0  0  0  0
    0.6185   -3.6595   -2.1668 C   0  0  0  0  0  0  0  0  0  0  0  0
   -2.7168   -0.9756    2.0776 S   0  0  0  0  0  0  0  0  0  0  0  0
   -1.8355   -0.7259    3.2691 O   0  0  0  0  0  0  0  0  0  0  0  0
   -3.8263   -1.8781    2.5353 O   0  0  0  0  0  0  0  0  0  0  0  0
   -3.3083    0.5486    1.5440 N   0  0  0  0  0  0  0  0  0  0  0  0
   -4.1551    0.4237    0.3697 C   0  0  0  0  0  0  0  0  0  0  0  0
   -4.6040    1.8281    0.0086 C   0  0  0  0  0  0  0  0  0  0  0  0
   -5.4981    1.8338   -1.2068 C   0  0  0  0  0  0  0  0  0  0  0  0
   -3.3517    2.6170   -0.3122 C   0  0  0  0  0  0  0  0  0  0  0  0
   -5.3155    2.4939    1.1655 C   0  0  0  0  0  0  0  0  0  0  0  0
    7.7781    2.6232    0.2020 H   0  0  0  0  0  0  0  0  0  0  0  0
    7.2453    3.5486   -1.2382 H   0  0  0  0  0  0  0  0  0  0  0  0
    6.9280    4.2475    0.4445 H   0  0  0  0  0  0  0  0  0  0  0  0
    2.5017    2.1835   -0.2192 H   0  0  0  0  0  0  0  0  0  0  0  0
    1.7315    0.2351   -0.2093 H   0  0  0  0  0  0  0  0  0  0  0  0
    2.4265   -4.0258   -0.1567 H   0  0  0  0  0  0  0  0  0  0  0  0
    6.5491   -1.2829    0.7449 H   0  0  0  0  0  0  0  0  0  0  0  0
    6.4855   -1.3194   -1.0796 H   0  0  0  0  0  0  0  0  0  0  0  0
    0.0981   -0.9089    1.4932 H   0  0  0  0  0  0  0  0  0  0  0  0
   -3.3610   -2.8029   -0.0952 H   0  0  0  0  0  0  0  0  0  0  0  0
   -1.9519   -3.8563   -1.7725 H   0  0  0  0  0  0  0  0  0  0  0  0
   -0.0505   -3.7183   -3.0671 H   0  0  0  0  0  0  0  0  0  0  0  0
    1.5213   -3.1110   -2.4963 H   0  0  0  0  0  0  0  0  0  0  0  0
    0.9522   -4.6908   -1.8743 H   0  0  0  0  0  0  0  0  0  0  0  0
   -3.9144    0.9238    2.3069 H   0  0  0  0  0  0  0  0  0  0  0  0
   -3.5905    0.0389   -0.5044 H   0  0  0  0  0  0  0  0  0  0  0  0
   -5.0690   -0.1684    0.5795 H   0  0  0  0  0  0  0  0  0  0  0  0
   -6.3234    1.1069   -1.1313 H   0  0  0  0  0  0  0  0  0  0  0  0
   -4.8629    1.6325   -2.0966 H   0  0  0  0  0  0  0  0  0  0  0  0
   -5.8717    2.8735   -1.3235 H   0  0  0  0  0  0  0  0  0  0  0  0
   -2.9069    3.0660    0.5961 H   0  0  0  0  0  0  0  0  0  0  0  0
   -3.6258    3.4404   -1.0007 H   0  0  0  0  0  0  0  0  0  0  0  0
   -2.6403    1.9634   -0.8638 H   0  0  0  0  0  0  0  0  0  0  0  0
   -6.1395    3.1026    0.7536 H   0  0  0  0  0  0  0  0  0  0  0  0
   -5.7418    1.7047    1.8360 H   0  0  0  0  0  0  0  0  0  0  0  0
   -4.6547    3.1833    1.7313 H   0  0  0  0  0  0  0  0  0  0  0  0
  1  2  1  0
  2  3  2  0
  3  4  1  0
  4  5  2  0
  5  6  1  0
  5  7  1  0
  7  8  2  0
  8  9  1  0
  9 10  2  0
 10 11  1  0
 11 12  2  0
 12 13  1  0
  9 14  1  0
 14 15  2  0
 15 16  1  0
 16 17  2  0
 17 18  1  0
 18 19  2  0
 19 20  1  0
 16 21  1  0
 21 22  2  0
 21 23  2  0
 21 24  1  0
 24 25  1  0
 25 26  1  0
 26 27  1  0
 26 28  1  0
 26 29  1  0
  6  2  1  0
 12  7  1  0
 19 14  1  0
  1 30  1  0
  1 31  1  0
  1 32  1  0
  4 33  1  0
  8 34  1  0
 10 35  1  0
 13 36  1  0
 13 37  1  0
 15 38  1  0
 17 39  1  0
 18 40  1  0
 20 41  1  0
 20 42  1  0
 20 43  1  0
 24 44  1  0
 25 45  1  0
 25 46  1  0
 27 47  1  0
 27 48  1  0
 27 49  1  0
 28 50  1  0
 28 51  1  0
 28 52  1  0
 29 53  1  0
 29 54  1  0
 29 55  1  0
M  END
$$$$
[H]Oc1c([H])c([H])c(C([H])([H])[C@@]2([H])C(=O)N([H])[C@@]([H])(C([H])([H])c3c([H])c([H])c(O[H])c([H])c3[H])C(=O)N([H])[C@@]([H])(C([H])([H])c3c([H])n([H])c4c([H])c([H])c([H])c([H])c34)C(=O)N([H])[C@@]([H])(C([H])(C([H])([H])[H])C([H])([H])[H])C(=O)N([H])[C@@]([H])(C([H])(C([H])([H])[H])C([H])([H])[H])C(=O)N([H])[C@@]([H])(C([H])([H])c3c([H])nc([H])n3[H])C(=O)N2[H])c([H])c1[H]
     RDKit          3D

115120  0  0  0  0  0  0  0  0999 V2000
    2.5993    4.5021    2.7001 C   0  0  0  0  0  0  0  0  0  0  0  0
    1.5733    3.7735    1.8777 C   0  0  0  0  0  0  0  0  0  0  0  0
    0.1996    3.9642    2.4822 C   0  0  0  0  0  0  0  0  0  0  0  0
    1.6151    4.0957    0.3963 C   0  0  2  0  0  0  0  0  0  0  0  0
    0.6036    3.3904   -0.3140 N   0  0  0  0  0  0  0  0  0  0  0  0
   -0.2494    3.6325   -1.3833 C   0  0  0  0  0  0  0  0  0  0  0  0
    0.1431    3.1700   -2.5646 O   0  0  0  0  0  0  0  0  0  0  0  0
   -1.5405    4.3001   -1.5355 C   0  0  1  0  0  0  0  0  0  0  0  0
   -2.6273    3.4454   -2.0389 N   0  0  0  0  0  0  0  0  0  0  0  0
   -2.7625    2.1100   -2.2311 C   0  0  0  0  0  0  0  0  0  0  0  0
   -2.9526    1.6950   -3.4420 O   0  0  0  0  0  0  0  0  0  0  0  0
   -2.7376    0.9367   -1.2748 C   0  0  2  0  0  0  0  0  0  0  0  0
   -3.0213    1.4086    0.1315 C   0  0  0  0  0  0  0  0  0  0  0  0
   -3.0494    0.3877    1.1639 C   0  0  0  0  0  0  0  0  0  0  0  0
   -2.0882    0.0671    2.1086 C   0  0  0  0  0  0  0  0  0  0  0  0
   -2.5075   -0.9440    2.8889 N   0  0  0  0  0  0  0  0  0  0  0  0
   -3.7339   -1.2874    2.4634 C   0  0  0  0  0  0  0  0  0  0  0  0
   -4.6294   -2.2537    2.8955 C   0  0  0  0  0  0  0  0  0  0  0  0
   -5.8611   -2.4430    2.3086 C   0  0  0  0  0  0  0  0  0  0  0  0
   -6.1998   -1.6133    1.2333 C   0  0  0  0  0  0  0  0  0  0  0  0
   -5.3347   -0.6537    0.7885 C   0  0  0  0  0  0  0  0  0  0  0  0
   -4.1113   -0.4862    1.3928 C   0  0  0  0  0  0  0  0  0  0  0  0
   -1.4665    0.2507   -1.3376 N   0  0  0  0  0  0  0  0  0  0  0  0
   -0.9581   -0.7624   -2.1248 C   0  0  0  0  0  0  0  0  0  0  0  0
   -0.1803   -0.4407   -3.1196 O   0  0  0  0  0  0  0  0  0  0  0  0
   -1.1531   -2.2339   -2.0275 C   0  0  2  0  0  0  0  0  0  0  0  0
   -2.6280   -2.5778   -1.8936 C   0  0  0  0  0  0  0  0  0  0  0  0
   -2.8492   -4.0587   -1.7960 C   0  0  0  0  0  0  0  0  0  0  0  0
   -2.9834   -4.8412   -2.9229 C   0  0  0  0  0  0  0  0  0  0  0  0
   -3.2042   -6.1972   -2.8854 C   0  0  0  0  0  0  0  0  0  0  0  0
   -3.2913   -6.7767   -1.6321 C   0  0  0  0  0  0  0  0  0  0  0  0
   -3.5124   -8.1374   -1.5677 O   0  0  0  0  0  0  0  0  0  0  0  0
   -3.1579   -5.9992   -0.4822 C   0  0  0  0  0  0  0  0  0  0  0  0
   -2.9391   -4.6536   -0.5667 C   0  0  0  0  0  0  0  0  0  0  0  0
   -0.3141   -2.8692   -1.0350 N   0  0  0  0  0  0  0  0  0  0  0  0
    0.6526   -2.3081   -0.1907 C   0  0  0  0  0  0  0  0  0  0  0  0
    0.4210   -2.3308    1.0735 O   0  0  0  0  0  0  0  0  0  0  0  0
    1.9448   -1.6723   -0.5324 C   0  0  2  0  0  0  0  0  0  0  0  0
    3.0321   -2.7639   -0.5236 C   0  0  0  0  0  0  0  0  0  0  0  0
    3.1849   -3.4356    0.7574 C   0  0  0  0  0  0  0  0  0  0  0  0
    4.0354   -2.9343    1.7115 C   0  0  0  0  0  0  0  0  0  0  0  0
    4.1789   -3.5988    2.9323 C   0  0  0  0  0  0  0  0  0  0  0  0
    3.4835   -4.7499    3.2011 C   0  0  0  0  0  0  0  0  0  0  0  0
    3.6362   -5.4062    4.4285 O   0  0  0  0  0  0  0  0  0  0  0  0
    2.6252   -5.2588    2.2428 C   0  0  0  0  0  0  0  0  0  0  0  0
    2.4878   -4.5908    1.0287 C   0  0  0  0  0  0  0  0  0  0  0  0
    2.2488   -0.5982    0.3519 N   0  0  0  0  0  0  0  0  0  0  0  0
    3.0633    0.5415    0.0906 C   0  0  0  0  0  0  0  0  0  0  0  0
    3.8183    0.8995    1.0591 O   0  0  0  0  0  0  0  0  0  0  0  0
    3.1115    1.3096   -1.1373 C   0  0  2  0  0  0  0  0  0  0  0  0
    4.2248    0.7066   -2.0083 C   0  0  0  0  0  0  0  0  0  0  0  0
    5.5469    0.7801   -1.3535 C   0  0  0  0  0  0  0  0  0  0  0  0
    6.2025   -0.1130   -0.5438 C   0  0  0  0  0  0  0  0  0  0  0  0
    7.3934    0.3984   -0.1861 N   0  0  0  0  0  0  0  0  0  0  0  0
    7.4844    1.6039   -0.7674 C   0  0  0  0  0  0  0  0  0  0  0  0
    6.3807    1.8433   -1.4710 N   0  0  0  0  0  0  0  0  0  0  0  0
    3.3158    2.7250   -1.0366 N   0  0  0  0  0  0  0  0  0  0  0  0
    2.9936    3.6711   -0.0865 C   0  0  0  0  0  0  0  0  0  0  0  0
    3.9247    4.2977    0.4859 O   0  0  0  0  0  0  0  0  0  0  0  0
   -2.0200    5.2045   -0.4601 C   0  0  0  0  0  0  0  0  0  0  0  0
   -1.1507    6.3994   -0.2094 C   0  0  0  0  0  0  0  0  0  0  0  0
   -3.4210    5.7190   -0.8149 C   0  0  0  0  0  0  0  0  0  0  0  0
    2.8136    5.5035    2.2429 H   0  0  0  0  0  0  0  0  0  0  0  0
    3.5471    3.9846    2.8419 H   0  0  0  0  0  0  0  0  0  0  0  0
    2.1995    4.6949    3.7436 H   0  0  0  0  0  0  0  0  0  0  0  0
    1.7916    2.6744    2.0471 H   0  0  0  0  0  0  0  0  0  0  0  0
   -0.5913    3.4675    1.9066 H   0  0  0  0  0  0  0  0  0  0  0  0
    0.1462    3.5642    3.5127 H   0  0  0  0  0  0  0  0  0  0  0  0
   -0.0542    5.0414    2.5280 H   0  0  0  0  0  0  0  0  0  0  0  0
    1.5207    5.1831    0.3211 H   0  0  0  0  0  0  0  0  0  0  0  0
    0.5114    2.3846    0.0964 H   0  0  0  0  0  0  0  0  0  0  0  0
   -1.3423    5.0463   -2.4157 H   0  0  0  0  0  0  0  0  0  0  0  0
   -3.4687    4.0659   -2.3069 H   0  0  0  0  0  0  0  0  0  0  0  0
   -3.5472    0.2218   -1.5288 H   0  0  0  0  0  0  0  0  0  0  0  0
   -4.0456    1.8936    0.1165 H   0  0  0  0  0  0  0  0  0  0  0  0
   -2.3483    2.2365    0.4568 H   0  0  0  0  0  0  0  0  0  0  0  0
   -1.1323    0.5701    2.1961 H   0  0  0  0  0  0  0  0  0  0  0  0
   -2.0036   -1.4074    3.6897 H   0  0  0  0  0  0  0  0  0  0  0  0
   -4.3490   -2.8819    3.7245 H   0  0  0  0  0  0  0  0  0  0  0  0
   -6.5486   -3.2112    2.6681 H   0  0  0  0  0  0  0  0  0  0  0  0
   -7.1754   -1.7938    0.8005 H   0  0  0  0  0  0  0  0  0  0  0  0
   -5.5947   -0.0177   -0.0358 H   0  0  0  0  0  0  0  0  0  0  0  0
   -0.7801    0.6505   -0.6140 H   0  0  0  0  0  0  0  0  0  0  0  0
   -0.8686   -2.7341   -2.9895 H   0  0  0  0  0  0  0  0  0  0  0  0
   -3.1025   -2.0556   -1.0661 H   0  0  0  0  0  0  0  0  0  0  0  0
   -3.0861   -2.2798   -2.8829 H   0  0  0  0  0  0  0  0  0  0  0  0
   -2.9091   -4.3507   -3.8979 H   0  0  0  0  0  0  0  0  0  0  0  0
   -3.2958   -6.7269   -3.8055 H   0  0  0  0  0  0  0  0  0  0  0  0
   -2.6963   -8.7420   -1.5515 H   0  0  0  0  0  0  0  0  0  0  0  0
   -3.2320   -6.4902    0.4880 H   0  0  0  0  0  0  0  0  0  0  0  0
   -2.8296   -4.0145    0.3216 H   0  0  0  0  0  0  0  0  0  0  0  0
   -0.4715   -3.9230   -0.9494 H   0  0  0  0  0  0  0  0  0  0  0  0
    1.9885   -1.2990   -1.5664 H   0  0  0  0  0  0  0  0  0  0  0  0
    3.9711   -2.3317   -0.9422 H   0  0  0  0  0  0  0  0  0  0  0  0
    2.6879   -3.4657   -1.3431 H   0  0  0  0  0  0  0  0  0  0  0  0
    4.6157   -2.0327    1.5732 H   0  0  0  0  0  0  0  0  0  0  0  0
    4.8452   -3.2121    3.6875 H   0  0  0  0  0  0  0  0  0  0  0  0
    3.1064   -6.2520    4.5902 H   0  0  0  0  0  0  0  0  0  0  0  0
    2.0952   -6.1657    2.4904 H   0  0  0  0  0  0  0  0  0  0  0  0
    1.8008   -5.0382    0.3196 H   0  0  0  0  0  0  0  0  0  0  0  0
    1.8208   -0.6460    1.3244 H   0  0  0  0  0  0  0  0  0  0  0  0
    2.1750    1.0950   -1.7389 H   0  0  0  0  0  0  0  0  0  0  0  0
    4.0050   -0.3241   -2.2987 H   0  0  0  0  0  0  0  0  0  0  0  0
    4.2245    1.2938   -2.9626 H   0  0  0  0  0  0  0  0  0  0  0  0
    5.8580   -1.0729   -0.2252 H   0  0  0  0  0  0  0  0  0  0  0  0
    8.3486    2.2681   -0.6609 H   0  0  0  0  0  0  0  0  0  0  0  0
    6.2035    2.7294   -2.0266 H   0  0  0  0  0  0  0  0  0  0  0  0
    3.8433    3.1245   -1.9004 H   0  0  0  0  0  0  0  0  0  0  0  0
   -2.1429    4.6839    0.5201 H   0  0  0  0  0  0  0  0  0  0  0  0
   -0.9298    6.5375    0.8686 H   0  0  0  0  0  0  0  0  0  0  0  0
   -0.2102    6.3707   -0.8188 H   0  0  0  0  0  0  0  0  0  0  0  0
   -1.6779    7.3102   -0.5665 H   0  0  0  0  0  0  0  0  0  0  0  0
   -4.1721    4.9546   -0.6113 H   0  0  0  0  0  0  0  0  0  0  0  0
   -3.5666    6.6195   -0.1869 H   0  0  0  0  0  0  0  0  0  0  0  0
   -3.4370    6.0596   -1.8812 H   0  0  0  0  0  0  0  0  0  0  0  0
  1  2  1  0
  2  3  1  0
  2  4  1  0
  4  5  1  0
  5  6  1  0
  6  7  2  0
  6  8  1  0
  8  9  1  0
  9 10  1  0
 10 11  2  0
 10 12  1  0
 12 13  1  0
 13 14  1  0
 14 15  2  0
 15 16  1  0
 16 17  1  0
 17 18  2  0
 18 19  1  0
 19 20  2  0
 20 21  1  0
 21 22  2  0
 12 23  1  0
 23 24  1  0
 24 25  2  0
 24 26  1  0
 26 27  1  0
 27 28  1  0
 28 29  2  0
 29 30  1  0
 30 31  2  0
 31 32  1  0
 31 33  1  0
 33 34  2  0
 26 35  1  0
 35 36  1  0
 36 37  2  0
 36 38  1  0
 38 39  1  0
 39 40  1  0
 40 41  2  0
 41 42  1  0
 42 43  2  0
 43 44  1  0
 43 45  1  0
 45 46  2  0
 38 47  1  0
 47 48  1  0
 48 49  2  0
 48 50  1  0
 50 51  1  0
 51 52  1  0
 52 53  2  0
 53 54  1  0
 54 55  2  0
 55 56  1  0
 50 57  1  0
 57 58  1  0
 58 59  2  0
  8 60  1  0
 60 61  1  0
 60 62  1  0
 58  4  1  0
 22 14  1  0
 34 28  1  0
 46 40  1  0
 56 52  1  0
 22 17  1  0
  1 63  1  0
  1 64  1  0
  1 65  1  0
  2 66  1  0
  3 67  1  0
  3 68  1  0
  3 69  1  0
  4 70  1  1
  5 71  1  0
  8 72  1  6
  9 73  1  0
 12 74  1  6
 13 75  1  0
 13 76  1  0
 15 77  1  0
 16 78  1  0
 18 79  1  0
 19 80  1  0
 20 81  1  0
 21 82  1  0
 23 83  1  0
 26 84  1  6
 27 85  1  0
 27 86  1  0
 29 87  1  0
 30 88  1  0
 32 89  1  0
 33 90  1  0
 34 91  1  0
 35 92  1  0
 38 93  1  6
 39 94  1  0
 39 95  1  0
 41 96  1  0
 42 97  1  0
 44 98  1  0
 45 99  1  0
 46100  1  0
 47101  1  0
 50102  1  6
 51103  1  0
 51104  1  0
 53105  1  0
 55106  1  0
 56107  1  0
 57108  1  0
 60109  1  0
 61110  1  0
 61111  1  0
 61112  1  0
 62113  1  0
 62114  1  0
 62115  1  0
M  END
$$$$
[H]c1nc(C([H])([H])[H])c([H])c(-c2nc(-c3c([H])c([H])c(Cl)c(C(F)(F)F)c3[H])n3c2C([H])([H])C([H])([H])O[C@]([H])(C([H])([H])[H])C3([H])[H])c1[H]
     RDKit          3D

 48 51  0  0  0  0  0  0  0  0999 V2000
    1.1243    4.5967   -0.1177 C   0  0  0  0  0  0  0  0  0  0  0  0
    0.6271    3.2423    0.2346 C   0  0  2  0  0  0  0  0  0  0  0  0
    1.0401    2.2632   -0.8499 C   0  0  0  0  0  0  0  0  0  0  0  0
    0.3805    1.0170   -0.5169 N   0  0  0  0  0  0  0  0  0  0  0  0
   -0.9736    0.7862   -0.6946 C   0  0  0  0  0  0  0  0  0  0  0  0
   -1.9164    1.8017   -1.1809 C   0  0  0  0  0  0  0  0  0  0  0  0
   -1.5037    3.1548   -0.6613 C   0  0  0  0  0  0  0  0  0  0  0  0
   -0.7439    3.1568    0.4707 O   0  0  0  0  0  0  0  0  0  0  0  0
   -1.2506   -0.5056   -0.3300 C   0  0  0  0  0  0  0  0  0  0  0  0
   -0.0973   -1.0236    0.0538 N   0  0  0  0  0  0  0  0  0  0  0  0
    0.9177   -0.0917   -0.0552 C   0  0  0  0  0  0  0  0  0  0  0  0
    2.2913   -0.4441    0.2892 C   0  0  0  0  0  0  0  0  0  0  0  0
    3.2999    0.4294    0.5626 C   0  0  0  0  0  0  0  0  0  0  0  0
    4.6130    0.0170    0.8161 C   0  0  0  0  0  0  0  0  0  0  0  0
    4.8746   -1.3287    0.7850 C   0  0  0  0  0  0  0  0  0  0  0  0
    6.5193   -1.9022    1.0988 Cl  0  0  0  0  0  0  0  0  0  0  0  0
    3.8845   -2.2248    0.5159 C   0  0  0  0  0  0  0  0  0  0  0  0
    2.6175   -1.8074    0.2717 C   0  0  0  0  0  0  0  0  0  0  0  0
    4.2441   -3.6798    0.4988 C   0  0  0  0  0  0  0  0  0  0  0  0
    3.1578   -4.4692    0.2161 F   0  0  0  0  0  0  0  0  0  0  0  0
    4.7602   -3.9671    1.7546 F   0  0  0  0  0  0  0  0  0  0  0  0
    5.2454   -3.8159   -0.4460 F   0  0  0  0  0  0  0  0  0  0  0  0
   -2.5670   -1.1331   -0.3736 C   0  0  0  0  0  0  0  0  0  0  0  0
   -3.3879   -1.0021   -1.4681 C   0  0  0  0  0  0  0  0  0  0  0  0
   -4.6130   -1.6173   -1.4448 C   0  0  0  0  0  0  0  0  0  0  0  0
   -5.0200   -2.3355   -0.3870 N   0  0  0  0  0  0  0  0  0  0  0  0
   -4.2597   -2.4963    0.7072 C   0  0  0  0  0  0  0  0  0  0  0  0
   -4.7329   -3.3051    1.8835 C   0  0  0  0  0  0  0  0  0  0  0  0
   -3.0312   -1.8838    0.6928 C   0  0  0  0  0  0  0  0  0  0  0  0
    1.0640    4.8350   -1.1987 H   0  0  0  0  0  0  0  0  0  0  0  0
    0.6688    5.4049    0.4984 H   0  0  0  0  0  0  0  0  0  0  0  0
    2.2257    4.6234    0.1301 H   0  0  0  0  0  0  0  0  0  0  0  0
    1.1248    2.9122    1.1671 H   0  0  0  0  0  0  0  0  0  0  0  0
    2.0744    2.1849   -1.0566 H   0  0  0  0  0  0  0  0  0  0  0  0
    0.5205    2.6253   -1.8215 H   0  0  0  0  0  0  0  0  0  0  0  0
   -2.9731    1.5654   -0.9594 H   0  0  0  0  0  0  0  0  0  0  0  0
   -1.8091    1.8183   -2.3058 H   0  0  0  0  0  0  0  0  0  0  0  0
   -1.1052    3.7920   -1.4792 H   0  0  0  0  0  0  0  0  0  0  0  0
   -2.4708    3.6759   -0.3808 H   0  0  0  0  0  0  0  0  0  0  0  0
    3.1310    1.4771    0.6370 H   0  0  0  0  0  0  0  0  0  0  0  0
    5.3954    0.7103    1.0279 H   0  0  0  0  0  0  0  0  0  0  0  0
    1.8405   -2.5522    0.0562 H   0  0  0  0  0  0  0  0  0  0  0  0
   -3.0461   -0.4140   -2.3257 H   0  0  0  0  0  0  0  0  0  0  0  0
   -5.2661   -1.5114   -2.3190 H   0  0  0  0  0  0  0  0  0  0  0  0
   -4.7170   -2.7222    2.8102 H   0  0  0  0  0  0  0  0  0  0  0  0
   -4.0348   -4.1689    1.9817 H   0  0  0  0  0  0  0  0  0  0  0  0
   -5.7334   -3.6865    1.6343 H   0  0  0  0  0  0  0  0  0  0  0  0
   -2.3898   -2.0012    1.5788 H   0  0  0  0  0  0  0  0  0  0  0  0
  1  2  1  0
  2  3  1  0
  3  4  1  0
  4  5  1  0
  5  6  1  0
  6  7  1  0
  7  8  1  0
  5  9  2  0
  9 10  1  0
 10 11  2  0
 11 12  1  0
 12 13  2  0
 13 14  1  0
 14 15  2  0
 15 16  1  0
 15 17  1  0
 17 18  2  0
 17 19  1  0
 19 20  1  0
 19 21  1  0
 19 22  1  0
  9 23  1  0
 23 24  2  0
 24 25  1  0
 25 26  2  0
 26 27  1  0
 27 28  1  0
 27 29  2  0
  8  2  1  0
 18 12  1  0
 29 23  1  0
 11  4  1  0
  1 30  1  0
  1 31  1  0
  1 32  1  0
  2 33  1  1
  3 34  1  0
  3 35  1  0
  6 36  1  0
  6 37  1  0
  7 38  1  0
  7 39  1  0
 13 40  1  0
 14 41  1  0
 18 42  1  0
 24 43  1  0
 25 44  1  0
 28 45  1  0
 28 46  1  0
 28 47  1  0
 29 48  1  0
M  END
$$$$
[H]c1c([H])c([H])c(S(=O)(=O)N2C([H])([H])C([H])([H])N(C([H])([H])c3c([H])c([H])c([N+](=O)[O-])c([H])c3[H])C([H])([H])C2([H])[H])c([H])c1[H]
     RDKit          3D

 44 46  0  0  0  0  0  0  0  0999 V2000
    7.1107    2.3381   -1.1069 O   0  0  0  0  0  0  0  0  0  0  0  0
    6.8826    1.0102   -0.8553 N   0  0  0  0  0  0  0  0  0  0  0  0
    7.7897    0.2042   -1.1072 O   0  0  0  0  0  0  0  0  0  0  0  0
    5.6163    0.6405   -0.3194 C   0  0  0  0  0  0  0  0  0  0  0  0
    4.6350    1.5715   -0.0525 C   0  0  0  0  0  0  0  0  0  0  0  0
    3.4174    1.1895    0.4667 C   0  0  0  0  0  0  0  0  0  0  0  0
    3.0985   -0.1215    0.7508 C   0  0  0  0  0  0  0  0  0  0  0  0
    1.7877   -0.5254    1.3100 C   0  0  0  0  0  0  0  0  0  0  0  0
    0.9212   -1.2059    0.3773 N   0  0  0  0  0  0  0  0  0  0  0  0
    0.5834   -0.4164   -0.7567 C   0  0  0  0  0  0  0  0  0  0  0  0
   -0.7190    0.3178   -0.6348 C   0  0  0  0  0  0  0  0  0  0  0  0
   -1.1957    0.4249    0.7119 N   0  0  0  0  0  0  0  0  0  0  0  0
   -1.2608   -0.7530    1.4802 C   0  0  0  0  0  0  0  0  0  0  0  0
   -0.2035   -1.7125    1.1118 C   0  0  0  0  0  0  0  0  0  0  0  0
   -2.6338    1.3622    0.7330 S   0  0  0  0  0  0  0  0  0  0  0  0
   -2.3185    2.6977    0.1158 O   0  0  0  0  0  0  0  0  0  0  0  0
   -3.0519    1.6011    2.1480 O   0  0  0  0  0  0  0  0  0  0  0  0
   -3.8989    0.6290   -0.1965 C   0  0  0  0  0  0  0  0  0  0  0  0
   -4.7717   -0.2520    0.4241 C   0  0  0  0  0  0  0  0  0  0  0  0
   -5.7987   -0.8664   -0.2673 C   0  0  0  0  0  0  0  0  0  0  0  0
   -5.9833   -0.6140   -1.6133 C   0  0  0  0  0  0  0  0  0  0  0  0
   -5.1381    0.2466   -2.2397 C   0  0  0  0  0  0  0  0  0  0  0  0
   -4.1137    0.8563   -1.5397 C   0  0  0  0  0  0  0  0  0  0  0  0
    4.0833   -1.0589    0.4832 C   0  0  0  0  0  0  0  0  0  0  0  0
    5.3029   -0.6793   -0.0365 C   0  0  0  0  0  0  0  0  0  0  0  0
    4.8729    2.6242   -0.2736 H   0  0  0  0  0  0  0  0  0  0  0  0
    2.6629    1.9356    0.6682 H   0  0  0  0  0  0  0  0  0  0  0  0
    1.9312   -1.1217    2.2502 H   0  0  0  0  0  0  0  0  0  0  0  0
    1.2070    0.3751    1.6677 H   0  0  0  0  0  0  0  0  0  0  0  0
    1.3975    0.2950   -0.9694 H   0  0  0  0  0  0  0  0  0  0  0  0
    0.5131   -1.0893   -1.6381 H   0  0  0  0  0  0  0  0  0  0  0  0
   -1.5197   -0.1632   -1.2327 H   0  0  0  0  0  0  0  0  0  0  0  0
   -0.6163    1.3475   -1.0340 H   0  0  0  0  0  0  0  0  0  0  0  0
   -1.0659   -0.4503    2.5563 H   0  0  0  0  0  0  0  0  0  0  0  0
   -2.2682   -1.2235    1.4796 H   0  0  0  0  0  0  0  0  0  0  0  0
   -0.6771   -2.4935    0.4432 H   0  0  0  0  0  0  0  0  0  0  0  0
    0.1141   -2.3017    2.0088 H   0  0  0  0  0  0  0  0  0  0  0  0
   -4.6312   -0.4483    1.4626 H   0  0  0  0  0  0  0  0  0  0  0  0
   -6.4730   -1.5497    0.2220 H   0  0  0  0  0  0  0  0  0  0  0  0
   -6.8008   -1.1139   -2.1272 H   0  0  0  0  0  0  0  0  0  0  0  0
   -5.2540    0.4651   -3.2866 H   0  0  0  0  0  0  0  0  0  0  0  0
   -3.4494    1.5355   -2.0410 H   0  0  0  0  0  0  0  0  0  0  0  0
    3.8422   -2.0948    0.7036 H   0  0  0  0  0  0  0  0  0  0  0  0
    6.0738   -1.4124   -0.2464 H   0  0  0  0  0  0  0  0  0  0  0  0
  1  2  1  0
  2  3  2  0
  2  4  1  0
  4  5  2  0
  5  6  1  0
  6  7  2  0
  7  8  1  0
  8  9  1  0
  9 10  1  0
 10 11  1  0
 11 12  1  0
 12 13  1  0
 13 14  1  0
 12 15  1  0
 15 16  2  0
 15 17  2  0
 15 18  1  0
 18 19  2  0
 19 20  1  0
 20 21  2  0
 21 22  1  0
 22 23  2  0
  7 24  1  0
 24 25  2  0
 25  4  1  0
 14  9  1  0
 23 18  1  0
  5 26  1  0
  6 27  1  0
  8 28  1  0
  8 29  1  0
 10 30  1  0
 10 31  1  0
 11 32  1  0
 11 33  1  0
 13 34  1  0
 13 35  1  0
 14 36  1  0
 14 37  1  0
 19 38  1  0
 20 39  1  0
 21 40  1  0
 22 41  1  0
 23 42  1  0
 24 43  1  0
 25 44  1  0
M  CHG  2   1  -1   2   1
M  END
$$$$
[H]c1nc([H])c(-c2c([H])c3nc(N([H])C(=O)N([H])C([H])([H])C([H])([H])[H])sc3n(C3([H])C([H])([H])C([H])([H])C([H])([H])C3([H])[H])c2=O)c([H])c1[H]
     RDKit          3D

 48 51  0  0  0  0  0  0  0  0999 V2000
    7.1573    0.7564    0.3172 C   0  0  0  0  0  0  0  0  0  0  0  0
    7.0264    0.2847   -1.1160 C   0  0  0  0  0  0  0  0  0  0  0  0
    5.9595   -0.6772   -1.2166 N   0  0  0  0  0  0  0  0  0  0  0  0
    4.6374   -0.3041   -0.8580 C   0  0  0  0  0  0  0  0  0  0  0  0
    4.3670    0.8570   -0.4498 O   0  0  0  0  0  0  0  0  0  0  0  0
    3.6001   -1.2324   -0.9538 N   0  0  0  0  0  0  0  0  0  0  0  0
    2.2345   -0.9156   -0.6046 C   0  0  0  0  0  0  0  0  0  0  0  0
    1.7381    0.2254   -0.1609 N   0  0  0  0  0  0  0  0  0  0  0  0
    0.4725    0.3327    0.1052 C   0  0  0  0  0  0  0  0  0  0  0  0
   -0.1856    1.4886    0.5840 C   0  0  0  0  0  0  0  0  0  0  0  0
   -1.5398    1.4320    0.8165 C   0  0  0  0  0  0  0  0  0  0  0  0
   -2.2623    2.6186    1.3217 C   0  0  0  0  0  0  0  0  0  0  0  0
   -3.1508    2.5684    2.3681 C   0  0  0  0  0  0  0  0  0  0  0  0
   -3.7740    3.7512    2.7523 C   0  0  0  0  0  0  0  0  0  0  0  0
   -3.5241    4.9460    2.1193 C   0  0  0  0  0  0  0  0  0  0  0  0
   -2.6561    4.9755    1.1030 N   0  0  0  0  0  0  0  0  0  0  0  0
   -2.0544    3.8557    0.7256 C   0  0  0  0  0  0  0  0  0  0  0  0
   -2.3018    0.3070    0.6092 C   0  0  0  0  0  0  0  0  0  0  0  0
   -3.5035    0.3064    0.8303 O   0  0  0  0  0  0  0  0  0  0  0  0
   -1.6627   -0.7921    0.1515 N   0  0  0  0  0  0  0  0  0  0  0  0
   -2.3183   -2.0285   -0.1107 C   0  0  0  0  0  0  0  0  0  0  0  0
   -1.9756   -2.6298   -1.4593 C   0  0  0  0  0  0  0  0  0  0  0  0
   -3.2621   -3.2996   -1.9660 C   0  0  0  0  0  0  0  0  0  0  0  0
   -4.0991   -3.4099   -0.6830 C   0  0  0  0  0  0  0  0  0  0  0  0
   -3.7900   -2.0102   -0.1134 C   0  0  0  0  0  0  0  0  0  0  0  0
   -0.3147   -0.7723   -0.0910 C   0  0  0  0  0  0  0  0  0  0  0  0
    0.8417   -1.9068   -0.6541 S   0  0  0  0  0  0  0  0  0  0  0  0
    6.6836    1.7429    0.4238 H   0  0  0  0  0  0  0  0  0  0  0  0
    6.6305    0.0205    0.9888 H   0  0  0  0  0  0  0  0  0  0  0  0
    8.2240    0.7809    0.6158 H   0  0  0  0  0  0  0  0  0  0  0  0
    6.8195    1.1589   -1.7678 H   0  0  0  0  0  0  0  0  0  0  0  0
    7.9603   -0.1673   -1.4865 H   0  0  0  0  0  0  0  0  0  0  0  0
    6.1475   -1.6452   -1.5501 H   0  0  0  0  0  0  0  0  0  0  0  0
    3.7811   -2.2019   -1.2865 H   0  0  0  0  0  0  0  0  0  0  0  0
    0.3508    2.4116    0.7702 H   0  0  0  0  0  0  0  0  0  0  0  0
   -3.3511    1.6344    2.8735 H   0  0  0  0  0  0  0  0  0  0  0  0
   -4.4795    3.7445    3.5734 H   0  0  0  0  0  0  0  0  0  0  0  0
   -3.9932    5.8744    2.3976 H   0  0  0  0  0  0  0  0  0  0  0  0
   -1.3473    3.8851   -0.1039 H   0  0  0  0  0  0  0  0  0  0  0  0
   -1.9783   -2.7582    0.6538 H   0  0  0  0  0  0  0  0  0  0  0  0
   -1.6473   -1.8454   -2.1751 H   0  0  0  0  0  0  0  0  0  0  0  0
   -1.2497   -3.4632   -1.3667 H   0  0  0  0  0  0  0  0  0  0  0  0
   -3.8002   -2.5982   -2.6371 H   0  0  0  0  0  0  0  0  0  0  0  0
   -3.0790   -4.2787   -2.4008 H   0  0  0  0  0  0  0  0  0  0  0  0
   -3.6341   -4.1497   -0.0346 H   0  0  0  0  0  0  0  0  0  0  0  0
   -5.1590   -3.5349   -0.8868 H   0  0  0  0  0  0  0  0  0  0  0  0
   -4.2552   -1.3203   -0.8451 H   0  0  0  0  0  0  0  0  0  0  0  0
   -4.2828   -2.0175    0.8774 H   0  0  0  0  0  0  0  0  0  0  0  0
  1  2  1  0
  2  3  1  0
  3  4  1  0
  4  5  2  0
  4  6  1  0
  6  7  1  0
  7  8  2  0
  8  9  1  0
  9 10  1  0
 10 11  2  0
 11 12  1  0
 12 13  2  0
 13 14  1  0
 14 15  2  0
 15 16  1  0
 16 17  2  0
 11 18  1  0
 18 19  2  0
 18 20  1  0
 20 21  1  0
 21 22  1  0
 22 23  1  0
 23 24  1  0
 24 25  1  0
 20 26  1  0
 26 27  1  0
 27  7  1  0
 26  9  2  0
 17 12  1  0
 25 21  1  0
  1 28  1  0
  1 29  1  0
  1 30  1  0
  2 31  1  0
  2 32  1  0
  3 33  1  0
  6 34  1  0
 10 35  1  0
 13 36  1  0
 14 37  1  0
 15 38  1  0
 17 39  1  0
 21 40  1  0
 22 41  1  0
 22 42  1  0
 23 43  1  0
 23 44  1  0
 24 45  1  0
 24 46  1  0
 25 47  1  0
 25 48  1  0
M  END
$$$$
