[H]Oc1nc([H])c(N([H])C(=O)c2c([H])c([H])c(OC(F)(F)F)c([H])c2[H])c([H])c1-c1c([H])c(OC2([H])C([H])([H])C([H])([H])N([H])C([H])([H])C2([H])[H])c([H])c([C@@]2([H])OC(=O)C([H])([H])C(C([H])([H])[H])(C([H])([H])[H])O[C@@]2([H])C([H])([H])[H])c1[H]
     RDKit          3D

 79 83  0  0  0  0  0  0  0  0999 V2000
   -5.7203   -0.7941    0.3785 C   0  0  0  0  0  0  0  0  0  0  0  0
   -4.9674   -1.7118   -0.5602 C   0  0  1  0  0  0  0  0  0  0  0  0
   -3.6267   -2.1094   -0.0284 C   0  0  2  0  0  0  0  0  0  0  0  0
   -3.8002   -2.8326    1.1607 O   0  0  0  0  0  0  0  0  0  0  0  0
   -4.5220   -4.0076    1.2672 C   0  0  0  0  0  0  0  0  0  0  0  0
   -4.3910   -4.5690    2.4097 O   0  0  0  0  0  0  0  0  0  0  0  0
   -5.3787   -4.6720    0.2990 C   0  0  0  0  0  0  0  0  0  0  0  0
   -6.1714   -3.7792   -0.5886 C   0  0  0  0  0  0  0  0  0  0  0  0
   -7.5182   -3.5377    0.1149 C   0  0  0  0  0  0  0  0  0  0  0  0
   -6.5714   -4.6837   -1.7840 C   0  0  0  0  0  0  0  0  0  0  0  0
   -5.6627   -2.6997   -1.1087 O   0  0  0  0  0  0  0  0  0  0  0  0
   -2.6171   -1.0540    0.0625 C   0  0  0  0  0  0  0  0  0  0  0  0
   -2.8028    0.2368   -0.3672 C   0  0  0  0  0  0  0  0  0  0  0  0
   -1.7832    1.1917   -0.2495 C   0  0  0  0  0  0  0  0  0  0  0  0
   -2.0309    2.4491   -0.6932 O   0  0  0  0  0  0  0  0  0  0  0  0
   -1.2211    3.5718   -0.7023 C   0  0  0  0  0  0  0  0  0  0  0  0
   -0.9831    4.1332   -2.0864 C   0  0  0  0  0  0  0  0  0  0  0  0
   -1.8459    5.3669   -2.2424 C   0  0  0  0  0  0  0  0  0  0  0  0
   -1.4034    6.4474   -1.3924 N   0  0  0  0  0  0  0  0  0  0  0  0
   -1.0819    5.9760   -0.0586 C   0  0  0  0  0  0  0  0  0  0  0  0
   -1.7987    4.6877    0.1771 C   0  0  0  0  0  0  0  0  0  0  0  0
   -0.5820    0.8223    0.3060 C   0  0  0  0  0  0  0  0  0  0  0  0
   -0.3637   -0.4755    0.7503 C   0  0  0  0  0  0  0  0  0  0  0  0
   -1.3887   -1.3688    0.6131 C   0  0  0  0  0  0  0  0  0  0  0  0
    0.9482   -0.8396    1.3424 C   0  0  0  0  0  0  0  0  0  0  0  0
    2.1189   -0.4914    0.7751 C   0  0  0  0  0  0  0  0  0  0  0  0
    3.3306   -0.8755    1.3960 C   0  0  0  0  0  0  0  0  0  0  0  0
    4.5076   -0.4579    0.7523 N   0  0  0  0  0  0  0  0  0  0  0  0
    5.8041   -0.9588    0.9259 C   0  0  0  0  0  0  0  0  0  0  0  0
    6.0508   -1.9111    1.7364 O   0  0  0  0  0  0  0  0  0  0  0  0
    6.9694   -0.4466    0.2092 C   0  0  0  0  0  0  0  0  0  0  0  0
    8.2238   -0.9187    0.4949 C   0  0  0  0  0  0  0  0  0  0  0  0
    9.3599   -0.4714   -0.1524 C   0  0  0  0  0  0  0  0  0  0  0  0
    9.2248    0.4889   -1.1250 C   0  0  0  0  0  0  0  0  0  0  0  0
   10.3427    0.9878   -1.8226 O   0  0  0  0  0  0  0  0  0  0  0  0
   10.9954    2.1081   -1.2819 C   0  0  0  0  0  0  0  0  0  0  0  0
   11.4872    1.8876   -0.0205 F   0  0  0  0  0  0  0  0  0  0  0  0
   12.0664    2.4004   -2.1100 F   0  0  0  0  0  0  0  0  0  0  0  0
   10.1777    3.2225   -1.2327 F   0  0  0  0  0  0  0  0  0  0  0  0
    7.9776    0.9873   -1.4390 C   0  0  0  0  0  0  0  0  0  0  0  0
    6.8471    0.5094   -0.7610 C   0  0  0  0  0  0  0  0  0  0  0  0
    3.2880   -1.5933    2.5624 C   0  0  0  0  0  0  0  0  0  0  0  0
    2.0979   -1.9316    3.1132 N   0  0  0  0  0  0  0  0  0  0  0  0
    0.9603   -1.5621    2.5153 C   0  0  0  0  0  0  0  0  0  0  0  0
   -0.2221   -1.9496    3.1471 O   0  0  0  0  0  0  0  0  0  0  0  0
   -6.4381   -1.2862    1.0300 H   0  0  0  0  0  0  0  0  0  0  0  0
   -5.0119   -0.2431    1.0617 H   0  0  0  0  0  0  0  0  0  0  0  0
   -6.2640    0.0125   -0.1584 H   0  0  0  0  0  0  0  0  0  0  0  0
   -4.7139   -1.0289   -1.4446 H   0  0  0  0  0  0  0  0  0  0  0  0
   -3.2320   -2.8666   -0.7769 H   0  0  0  0  0  0  0  0  0  0  0  0
   -4.7508   -5.3601   -0.3064 H   0  0  0  0  0  0  0  0  0  0  0  0
   -6.0875   -5.3418    0.8678 H   0  0  0  0  0  0  0  0  0  0  0  0
   -8.1993   -4.3993   -0.0341 H   0  0  0  0  0  0  0  0  0  0  0  0
   -7.9671   -2.6216   -0.2643 H   0  0  0  0  0  0  0  0  0  0  0  0
   -7.3298   -3.5060    1.2221 H   0  0  0  0  0  0  0  0  0  0  0  0
   -5.7813   -4.6027   -2.5846 H   0  0  0  0  0  0  0  0  0  0  0  0
   -6.6119   -5.7310   -1.4926 H   0  0  0  0  0  0  0  0  0  0  0  0
   -7.4981   -4.3045   -2.2508 H   0  0  0  0  0  0  0  0  0  0  0  0
   -3.7402    0.5581   -0.8055 H   0  0  0  0  0  0  0  0  0  0  0  0
   -0.2349    3.3431   -0.2746 H   0  0  0  0  0  0  0  0  0  0  0  0
    0.0666    4.4642   -2.2032 H   0  0  0  0  0  0  0  0  0  0  0  0
   -1.2383    3.4175   -2.8919 H   0  0  0  0  0  0  0  0  0  0  0  0
   -2.9113    5.1838   -2.0364 H   0  0  0  0  0  0  0  0  0  0  0  0
   -1.7882    5.7647   -3.2960 H   0  0  0  0  0  0  0  0  0  0  0  0
   -0.6249    6.9976   -1.8159 H   0  0  0  0  0  0  0  0  0  0  0  0
   -1.4715    6.7075    0.7018 H   0  0  0  0  0  0  0  0  0  0  0  0
   -0.0020    5.9177    0.0808 H   0  0  0  0  0  0  0  0  0  0  0  0
   -1.6840    4.4288    1.2509 H   0  0  0  0  0  0  0  0  0  0  0  0
   -2.8707    4.8039   -0.0366 H   0  0  0  0  0  0  0  0  0  0  0  0
    0.2498    1.5204    0.4243 H   0  0  0  0  0  0  0  0  0  0  0  0
   -1.2239   -2.3993    0.9598 H   0  0  0  0  0  0  0  0  0  0  0  0
    2.1148    0.0717   -0.1386 H   0  0  0  0  0  0  0  0  0  0  0  0
    4.4319    0.3426    0.0419 H   0  0  0  0  0  0  0  0  0  0  0  0
    8.3792   -1.6891    1.2672 H   0  0  0  0  0  0  0  0  0  0  0  0
   10.3471   -0.8505    0.0803 H   0  0  0  0  0  0  0  0  0  0  0  0
    7.9244    1.7406   -2.2103 H   0  0  0  0  0  0  0  0  0  0  0  0
    5.9226    0.9591   -1.0788 H   0  0  0  0  0  0  0  0  0  0  0  0
    4.2119   -1.8740    3.0421 H   0  0  0  0  0  0  0  0  0  0  0  0
   -0.2968   -2.9011    3.4805 H   0  0  0  0  0  0  0  0  0  0  0  0
  1  2  1  0
  2  3  1  0
  3  4  1  0
  4  5  1  0
  5  6  2  0
  5  7  1  0
  7  8  1  0
  8  9  1  0
  8 10  1  0
  8 11  1  0
  3 12  1  0
 12 13  2  0
 13 14  1  0
 14 15  1  0
 15 16  1  0
 16 17  1  0
 17 18  1  0
 18 19  1  0
 19 20  1  0
 20 21  1  0
 14 22  2  0
 22 23  1  0
 23 24  2  0
 23 25  1  0
 25 26  2  0
 26 27  1  0
 27 28  1  0
 28 29  1  0
 29 30  2  0
 29 31  1  0
 31 32  2  0
 32 33  1  0
 33 34  2  0
 34 35  1  0
 35 36  1  0
 36 37  1  0
 36 38  1  0
 36 39  1  0
 34 40  1  0
 40 41  2  0
 27 42  2  0
 42 43  1  0
 43 44  2  0
 44 45  1  0
 11  2  1  0
 24 12  1  0
 44 25  1  0
 21 16  1  0
 41 31  1  0
  1 46  1  0
  1 47  1  0
  1 48  1  0
  2 49  1  6
  3 50  1  6
  7 51  1  0
  7 52  1  0
  9 53  1  0
  9 54  1  0
  9 55  1  0
 10 56  1  0
 10 57  1  0
 10 58  1  0
 13 59  1  0
 16 60  1  0
 17 61  1  0
 17 62  1  0
 18 63  1  0
 18 64  1  0
 19 65  1  0
 20 66  1  0
 20 67  1  0
 21 68  1  0
 21 69  1  0
 22 70  1  0
 24 71  1  0
 26 72  1  0
 28 73  1  0
 32 74  1  0
 33 75  1  0
 40 76  1  0
 41 77  1  0
 42 78  1  0
 45 79  1  0
M  END
$$$$
[H]c1c(OC([H])([H])[H])c(OC([H])([H])[H])c([H])c2c1c(=O)n(C([H])([H])C1([H])C([H])([H])C1([H])[H])c1c2c([H])nc2c1c([H])c([H])n2[H]
     RDKit          3D

 45 49  0  0  0  0  0  0  0  0999 V2000
    5.1040   -1.1582   -1.3143 C   0  0  0  0  0  0  0  0  0  0  0  0
    4.8465   -0.3601   -0.1857 O   0  0  0  0  0  0  0  0  0  0  0  0
    3.5293   -0.1504    0.1997 C   0  0  0  0  0  0  0  0  0  0  0  0
    2.4844   -0.7422   -0.5496 C   0  0  0  0  0  0  0  0  0  0  0  0
    1.1681   -0.5482   -0.1861 C   0  0  0  0  0  0  0  0  0  0  0  0
    0.1179   -1.1040   -0.8825 C   0  0  0  0  0  0  0  0  0  0  0  0
    0.3687   -1.9016   -1.9753 C   0  0  0  0  0  0  0  0  0  0  0  0
   -0.6079   -2.4779   -2.6704 N   0  0  0  0  0  0  0  0  0  0  0  0
   -1.8780   -2.2684   -2.2839 C   0  0  0  0  0  0  0  0  0  0  0  0
   -3.0511   -2.7285   -2.7773 N   0  0  0  0  0  0  0  0  0  0  0  0
   -4.0607   -2.2657   -2.0532 C   0  0  0  0  0  0  0  0  0  0  0  0
   -3.5503   -1.4549   -1.0224 C   0  0  0  0  0  0  0  0  0  0  0  0
   -2.1995   -1.4664   -1.1801 C   0  0  0  0  0  0  0  0  0  0  0  0
   -1.1921   -0.8595   -0.4490 C   0  0  0  0  0  0  0  0  0  0  0  0
   -1.4914   -0.1087    0.6091 N   0  0  0  0  0  0  0  0  0  0  0  0
   -2.7849    0.2347    1.0752 C   0  0  0  0  0  0  0  0  0  0  0  0
   -3.4199    1.5046    0.5977 C   0  0  0  0  0  0  0  0  0  0  0  0
   -2.9643    2.8668    0.7631 C   0  0  0  0  0  0  0  0  0  0  0  0
   -2.8013    2.2281   -0.5735 C   0  0  0  0  0  0  0  0  0  0  0  0
   -0.4101    0.4238    1.2756 C   0  0  0  0  0  0  0  0  0  0  0  0
   -0.5722    1.1425    2.2916 O   0  0  0  0  0  0  0  0  0  0  0  0
    0.8935    0.2226    0.9057 C   0  0  0  0  0  0  0  0  0  0  0  0
    1.9357    0.7943    1.6272 C   0  0  0  0  0  0  0  0  0  0  0  0
    3.2562    0.6260    1.2993 C   0  0  0  0  0  0  0  0  0  0  0  0
    4.2878    1.2099    2.0386 O   0  0  0  0  0  0  0  0  0  0  0  0
    4.0300    2.0132    3.1747 C   0  0  0  0  0  0  0  0  0  0  0  0
    6.2005   -1.1819   -1.4785 H   0  0  0  0  0  0  0  0  0  0  0  0
    4.5358   -0.7818   -2.1749 H   0  0  0  0  0  0  0  0  0  0  0  0
    4.6952   -2.1807   -1.0706 H   0  0  0  0  0  0  0  0  0  0  0  0
    2.7282   -1.3341   -1.3914 H   0  0  0  0  0  0  0  0  0  0  0  0
    1.3673   -2.0766   -2.2924 H   0  0  0  0  0  0  0  0  0  0  0  0
   -3.1045   -3.3616   -3.6187 H   0  0  0  0  0  0  0  0  0  0  0  0
   -5.1280   -2.4590   -2.2003 H   0  0  0  0  0  0  0  0  0  0  0  0
   -4.2364   -1.0191   -0.3601 H   0  0  0  0  0  0  0  0  0  0  0  0
   -3.4557   -0.5646    1.4415 H   0  0  0  0  0  0  0  0  0  0  0  0
   -2.5674    0.6034    2.1780 H   0  0  0  0  0  0  0  0  0  0  0  0
   -4.5464    1.3747    0.5514 H   0  0  0  0  0  0  0  0  0  0  0  0
   -3.7621    3.6880    0.7251 H   0  0  0  0  0  0  0  0  0  0  0  0
   -2.1226    3.2553    1.3274 H   0  0  0  0  0  0  0  0  0  0  0  0
   -1.7939    1.9260   -0.9253 H   0  0  0  0  0  0  0  0  0  0  0  0
   -3.4899    2.4512   -1.4137 H   0  0  0  0  0  0  0  0  0  0  0  0
    1.7121    1.4000    2.4858 H   0  0  0  0  0  0  0  0  0  0  0  0
    3.1866    2.6980    3.0493 H   0  0  0  0  0  0  0  0  0  0  0  0
    4.9650    2.5714    3.3839 H   0  0  0  0  0  0  0  0  0  0  0  0
    3.7776    1.3194    4.0292 H   0  0  0  0  0  0  0  0  0  0  0  0
  1  2  1  0
  2  3  1  0
  3  4  2  0
  4  5  1  0
  5  6  1  0
  6  7  2  0
  7  8  1  0
  8  9  2  0
  9 10  1  0
 10 11  1  0
 11 12  2  0
 12 13  1  0
 13 14  2  0
 14 15  1  0
 15 16  1  0
 16 17  1  0
 17 18  1  0
 18 19  1  0
 15 20  1  0
 20 21  2  0
 20 22  1  0
 22 23  1  0
 23 24  2  0
 24 25  1  0
 25 26  1  0
 24  3  1  0
 22  5  2  0
 14  6  1  0
 19 17  1  0
 13  9  1  0
  1 27  1  0
  1 28  1  0
  1 29  1  0
  4 30  1  0
  7 31  1  0
 10 32  1  0
 11 33  1  0
 12 34  1  0
 16 35  1  0
 16 36  1  0
 17 37  1  0
 18 38  1  0
 18 39  1  0
 19 40  1  0
 19 41  1  0
 23 42  1  0
 26 43  1  0
 26 44  1  0
 26 45  1  0
M  END
$$$$
[H]OC(=O)c1c([H])c([H])c(-c2nc(N([H])c3c([H])c([H])c4c([H])c([H])c([H])c([H])c4c3[H])nc([H])c2[H])c([H])c1OC([H])([H])[H]
     RDKit          3D

 45 48  0  0  0  0  0  0  0  0999 V2000
   -6.5667   -1.5506   -1.3035 C   0  0  0  0  0  0  0  0  0  0  0  0
   -6.6234   -0.6357   -0.2392 O   0  0  0  0  0  0  0  0  0  0  0  0
   -5.4278   -0.1328    0.2788 C   0  0  0  0  0  0  0  0  0  0  0  0
   -4.2012   -0.5449   -0.2661 C   0  0  0  0  0  0  0  0  0  0  0  0
   -3.0115   -0.0730    0.2162 C   0  0  0  0  0  0  0  0  0  0  0  0
   -3.0564    0.8349    1.2716 C   0  0  0  0  0  0  0  0  0  0  0  0
   -4.2707    1.2370    1.8042 C   0  0  0  0  0  0  0  0  0  0  0  0
   -5.4738    0.7662    1.3239 C   0  0  0  0  0  0  0  0  0  0  0  0
   -6.7510    1.1909    1.8862 C   0  0  0  0  0  0  0  0  0  0  0  0
   -6.7594    2.0949    2.9352 O   0  0  0  0  0  0  0  0  0  0  0  0
   -7.8563    0.7762    1.4656 O   0  0  0  0  0  0  0  0  0  0  0  0
   -1.6919   -0.4632   -0.3085 C   0  0  0  0  0  0  0  0  0  0  0  0
   -1.5956   -1.3573   -1.3507 C   0  0  0  0  0  0  0  0  0  0  0  0
   -0.3536   -1.7320   -1.8530 C   0  0  0  0  0  0  0  0  0  0  0  0
    0.7173   -1.1817   -1.2732 N   0  0  0  0  0  0  0  0  0  0  0  0
    0.6394   -0.3125   -0.2609 C   0  0  0  0  0  0  0  0  0  0  0  0
    1.7934    0.2351    0.3118 N   0  0  0  0  0  0  0  0  0  0  0  0
    3.1516   -0.0000   -0.0077 C   0  0  0  0  0  0  0  0  0  0  0  0
    3.5718   -1.1433   -0.6288 C   0  0  0  0  0  0  0  0  0  0  0  0
    4.9143   -1.3273   -0.9522 C   0  0  0  0  0  0  0  0  0  0  0  0
    5.8196   -0.3203   -0.6278 C   0  0  0  0  0  0  0  0  0  0  0  0
    7.1456   -0.4681   -0.9308 C   0  0  0  0  0  0  0  0  0  0  0  0
    8.0307    0.5303   -0.6067 C   0  0  0  0  0  0  0  0  0  0  0  0
    7.6294    1.6801    0.0152 C   0  0  0  0  0  0  0  0  0  0  0  0
    6.2973    1.8346    0.3224 C   0  0  0  0  0  0  0  0  0  0  0  0
    5.3869    0.8250   -0.0026 C   0  0  0  0  0  0  0  0  0  0  0  0
    4.0660    1.0123    0.3182 C   0  0  0  0  0  0  0  0  0  0  0  0
   -0.5748    0.0586    0.2358 N   0  0  0  0  0  0  0  0  0  0  0  0
   -5.9267   -1.1634   -2.1480 H   0  0  0  0  0  0  0  0  0  0  0  0
   -6.0238   -2.4520   -0.9330 H   0  0  0  0  0  0  0  0  0  0  0  0
   -7.5362   -1.7819   -1.7433 H   0  0  0  0  0  0  0  0  0  0  0  0
   -4.1900   -1.2477   -1.0818 H   0  0  0  0  0  0  0  0  0  0  0  0
   -2.1153    1.2030    1.6472 H   0  0  0  0  0  0  0  0  0  0  0  0
   -4.2986    1.9387    2.6196 H   0  0  0  0  0  0  0  0  0  0  0  0
   -6.5219    3.0701    2.7957 H   0  0  0  0  0  0  0  0  0  0  0  0
   -2.4588   -1.8111   -1.8299 H   0  0  0  0  0  0  0  0  0  0  0  0
   -0.2505   -2.4341   -2.6730 H   0  0  0  0  0  0  0  0  0  0  0  0
    1.6109    0.9297    1.1087 H   0  0  0  0  0  0  0  0  0  0  0  0
    2.9297   -1.9745   -0.8940 H   0  0  0  0  0  0  0  0  0  0  0  0
    5.2880   -2.1963   -1.4345 H   0  0  0  0  0  0  0  0  0  0  0  0
    7.4725   -1.3844   -1.4276 H   0  0  0  0  0  0  0  0  0  0  0  0
    9.0655    0.3717   -0.8639 H   0  0  0  0  0  0  0  0  0  0  0  0
    8.3566    2.4569    0.2606 H   0  0  0  0  0  0  0  0  0  0  0  0
    5.9191    2.7174    0.8121 H   0  0  0  0  0  0  0  0  0  0  0  0
    3.7304    1.9242    0.8144 H   0  0  0  0  0  0  0  0  0  0  0  0
  1  2  1  0
  2  3  1  0
  3  4  2  0
  4  5  1  0
  5  6  2  0
  6  7  1  0
  7  8  2  0
  8  9  1  0
  9 10  1  0
  9 11  2  0
  5 12  1  0
 12 13  2  0
 13 14  1  0
 14 15  2  0
 15 16  1  0
 16 17  1  0
 17 18  1  0
 18 19  2  0
 19 20  1  0
 20 21  2  0
 21 22  1  0
 22 23  2  0
 23 24  1  0
 24 25  2  0
 25 26  1  0
 26 27  2  0
 16 28  2  0
  8  3  1  0
 28 12  1  0
 27 18  1  0
 26 21  1  0
  1 29  1  0
  1 30  1  0
  1 31  1  0
  4 32  1  0
  6 33  1  0
  7 34  1  0
 10 35  1  0
 13 36  1  0
 14 37  1  0
 17 38  1  0
 19 39  1  0
 20 40  1  0
 22 41  1  0
 23 42  1  0
 24 43  1  0
 25 44  1  0
 27 45  1  0
M  END
$$$$
[H]c1nc([H])c(C([H])([H])n2c([H])nc3nc(-c4c([H])c([H])c([H])c([H])c4[H])c([H])c(C([H])([H])[H])c32)c([H])c1[H]
     RDKit          3D

 39 42  0  0  0  0  0  0  0  0999 V2000
    0.4540   -0.3109    2.2648 C   0  0  0  0  0  0  0  0  0  0  0  0
   -0.2606   -0.3335    0.9835 C   0  0  0  0  0  0  0  0  0  0  0  0
   -1.5469    0.2237    0.8826 C   0  0  0  0  0  0  0  0  0  0  0  0
   -2.2750    0.1933   -0.2728 C   0  0  0  0  0  0  0  0  0  0  0  0
   -1.7503   -0.3890   -1.3572 N   0  0  0  0  0  0  0  0  0  0  0  0
   -0.5226   -0.9266   -1.2816 C   0  0  0  0  0  0  0  0  0  0  0  0
    0.2096   -1.5795   -2.2180 N   0  0  0  0  0  0  0  0  0  0  0  0
    1.3567   -1.9464   -1.6857 C   0  0  0  0  0  0  0  0  0  0  0  0
    1.4203   -1.5399   -0.3606 N   0  0  0  0  0  0  0  0  0  0  0  0
    2.5672   -1.7400    0.4467 C   0  0  0  0  0  0  0  0  0  0  0  0
    3.6839   -0.7902    0.2555 C   0  0  0  0  0  0  0  0  0  0  0  0
    4.4005   -0.7323   -0.9260 C   0  0  0  0  0  0  0  0  0  0  0  0
    5.4645    0.1226   -1.0847 C   0  0  0  0  0  0  0  0  0  0  0  0
    5.8267    0.9386   -0.0487 C   0  0  0  0  0  0  0  0  0  0  0  0
    5.1555    0.9055    1.1031 N   0  0  0  0  0  0  0  0  0  0  0  0
    4.0993    0.0476    1.2414 C   0  0  0  0  0  0  0  0  0  0  0  0
    0.2581   -0.9228   -0.1404 C   0  0  0  0  0  0  0  0  0  0  0  0
   -3.6125    0.7807   -0.3534 C   0  0  0  0  0  0  0  0  0  0  0  0
   -4.2344    1.3998    0.7070 C   0  0  0  0  0  0  0  0  0  0  0  0
   -5.4978    1.9424    0.5920 C   0  0  0  0  0  0  0  0  0  0  0  0
   -6.1929    1.8865   -0.5965 C   0  0  0  0  0  0  0  0  0  0  0  0
   -5.5749    1.2658   -1.6677 C   0  0  0  0  0  0  0  0  0  0  0  0
   -4.3202    0.7244   -1.5612 C   0  0  0  0  0  0  0  0  0  0  0  0
   -0.2789    0.1152    3.0317 H   0  0  0  0  0  0  0  0  0  0  0  0
    1.2870    0.3737    2.3364 H   0  0  0  0  0  0  0  0  0  0  0  0
    0.6210   -1.3345    2.7120 H   0  0  0  0  0  0  0  0  0  0  0  0
   -1.9264    0.6876    1.7996 H   0  0  0  0  0  0  0  0  0  0  0  0
    2.1241   -2.4888   -2.2066 H   0  0  0  0  0  0  0  0  0  0  0  0
    2.4081   -1.9942    1.5076 H   0  0  0  0  0  0  0  0  0  0  0  0
    3.0275   -2.7297    0.0762 H   0  0  0  0  0  0  0  0  0  0  0  0
    4.1284   -1.3731   -1.7522 H   0  0  0  0  0  0  0  0  0  0  0  0
    6.0150    0.1628   -2.0017 H   0  0  0  0  0  0  0  0  0  0  0  0
    6.6660    1.6404   -0.1173 H   0  0  0  0  0  0  0  0  0  0  0  0
    3.6029    0.0667    2.2106 H   0  0  0  0  0  0  0  0  0  0  0  0
   -3.7363    1.4772    1.6772 H   0  0  0  0  0  0  0  0  0  0  0  0
   -5.9323    2.4181    1.4699 H   0  0  0  0  0  0  0  0  0  0  0  0
   -7.1687    2.3077   -0.6786 H   0  0  0  0  0  0  0  0  0  0  0  0
   -6.1209    1.2145   -2.6245 H   0  0  0  0  0  0  0  0  0  0  0  0
   -3.8247    0.2368   -2.3881 H   0  0  0  0  0  0  0  0  0  0  0  0
  1  2  1  0
  2  3  2  0
  3  4  1  0
  4  5  2  0
  5  6  1  0
  6  7  1  0
  7  8  2  0
  8  9  1  0
  9 10  1  0
 10 11  1  0
 11 12  2  0
 12 13  1  0
 13 14  2  0
 14 15  1  0
 15 16  2  0
  9 17  1  0
  4 18  1  0
 18 19  2  0
 19 20  1  0
 20 21  2  0
 21 22  1  0
 22 23  2  0
 17  2  1  0
 23 18  1  0
 17  6  2  0
 16 11  1  0
  1 24  1  0
  1 25  1  0
  1 26  1  0
  3 27  1  0
  8 28  1  0
 10 29  1  0
 10 30  1  0
 12 31  1  0
 13 32  1  0
 14 33  1  0
 16 34  1  0
 19 35  1  0
 20 36  1  0
 21 37  1  0
 22 38  1  0
 23 39  1  0
M  END
$$$$
[H]c1nc2c([H])c(Br)c([H])c([H])c2s1
     RDKit          3D

 14 15  0  0  0  0  0  0  0  0999 V2000
    3.4897   -1.2958    0.3175 Br  0  0  0  0  0  0  0  0  0  0  0  0
    1.7741   -0.4340    0.1348 C   0  0  0  0  0  0  0  0  0  0  0  0
    1.7791    0.9287   -0.0260 C   0  0  0  0  0  0  0  0  0  0  0  0
    0.5516    1.5398   -0.1560 C   0  0  0  0  0  0  0  0  0  0  0  0
   -0.6318    0.7791   -0.1218 C   0  0  0  0  0  0  0  0  0  0  0  0
   -2.3075    1.0838   -0.2367 S   0  0  0  0  0  0  0  0  0  0  0  0
   -2.8844   -0.5171   -0.0747 C   0  0  0  0  0  0  0  0  0  0  0  0
   -1.7643   -1.2013    0.0589 N   0  0  0  0  0  0  0  0  0  0  0  0
   -0.6106   -0.5795    0.0397 C   0  0  0  0  0  0  0  0  0  0  0  0
    0.6485   -1.2004    0.1724 C   0  0  0  0  0  0  0  0  0  0  0  0
    2.6939    1.4622   -0.0460 H   0  0  0  0  0  0  0  0  0  0  0  0
    0.4329    2.6002   -0.2870 H   0  0  0  0  0  0  0  0  0  0  0  0
   -3.9250   -0.8973   -0.0787 H   0  0  0  0  0  0  0  0  0  0  0  0
    0.7540   -2.2683    0.3036 H   0  0  0  0  0  0  0  0  0  0  0  0
  1  2  1  0
  2  3  2  0
  3  4  1  0
  4  5  2  0
  5  6  1  0
  6  7  1  0
  7  8  2  0
  8  9  1  0
  9 10  2  0
 10  2  1  0
  9  5  1  0
  3 11  1  0
  4 12  1  0
  7 13  1  0
 10 14  1  0
M  END
$$$$
[H]c1c([H])c([C@@]([H])(F)C([H])([H])N2C([H])([H])C([H])([H])C([H])(c3noc4c([H])c(F)c([H])c([H])c34)C([H])([H])C2([H])[H])c([H])c([H])c1F
     RDKit          3D

 45 48  0  0  0  0  0  0  0  0999 V2000
    4.1387    2.4276    1.1507 F   0  0  0  0  0  0  0  0  0  0  0  0
    3.1087    1.4723    1.0759 C   0  0  1  0  0  0  0  0  0  0  0  0
    2.2243    1.7706   -0.0579 C   0  0  0  0  0  0  0  0  0  0  0  0
    1.1237    1.0240   -0.3698 N   0  0  0  0  0  0  0  0  0  0  0  0
    1.0513   -0.2543   -0.8442 C   0  0  0  0  0  0  0  0  0  0  0  0
   -0.1410   -0.9552   -0.1616 C   0  0  0  0  0  0  0  0  0  0  0  0
   -1.3761   -0.3467   -0.7775 C   0  0  0  0  0  0  0  0  0  0  0  0
   -1.2464    1.1168   -1.0372 C   0  0  0  0  0  0  0  0  0  0  0  0
   -0.0832    1.7718   -0.3943 C   0  0  0  0  0  0  0  0  0  0  0  0
   -2.6002   -0.7021   -0.0055 C   0  0  0  0  0  0  0  0  0  0  0  0
   -2.6316   -1.4241    1.1491 N   0  0  0  0  0  0  0  0  0  0  0  0
   -3.8469   -1.5567    1.5685 O   0  0  0  0  0  0  0  0  0  0  0  0
   -4.6879   -0.9545    0.7540 C   0  0  0  0  0  0  0  0  0  0  0  0
   -6.0453   -0.7914    0.7266 C   0  0  0  0  0  0  0  0  0  0  0  0
   -6.6852   -0.0837   -0.2908 C   0  0  0  0  0  0  0  0  0  0  0  0
   -8.0236    0.0735   -0.3123 F   0  0  0  0  0  0  0  0  0  0  0  0
   -5.8871    0.4461   -1.2709 C   0  0  0  0  0  0  0  0  0  0  0  0
   -4.5219    0.2982   -1.2691 C   0  0  0  0  0  0  0  0  0  0  0  0
   -3.9179   -0.4002   -0.2602 C   0  0  0  0  0  0  0  0  0  0  0  0
    3.8659    0.1855    0.8678 C   0  0  0  0  0  0  0  0  0  0  0  0
    3.7712   -0.8832    1.7045 C   0  0  0  0  0  0  0  0  0  0  0  0
    4.5160   -2.0212    1.4450 C   0  0  0  0  0  0  0  0  0  0  0  0
    5.3474   -2.0703    0.3471 C   0  0  0  0  0  0  0  0  0  0  0  0
    6.0844   -3.1727    0.0749 F   0  0  0  0  0  0  0  0  0  0  0  0
    5.4322   -0.9667   -0.4988 C   0  0  0  0  0  0  0  0  0  0  0  0
    4.7006    0.1654   -0.2539 C   0  0  0  0  0  0  0  0  0  0  0  0
    2.6644    1.4245    2.0592 H   0  0  0  0  0  0  0  0  0  0  0  0
    2.8890    1.8241   -0.9792 H   0  0  0  0  0  0  0  0  0  0  0  0
    1.9156    2.8583    0.0483 H   0  0  0  0  0  0  0  0  0  0  0  0
    0.7402   -0.2312   -1.9344 H   0  0  0  0  0  0  0  0  0  0  0  0
    1.8625   -0.9535   -0.7818 H   0  0  0  0  0  0  0  0  0  0  0  0
   -0.0910   -0.8324    0.9371 H   0  0  0  0  0  0  0  0  0  0  0  0
   -0.0771   -2.0158   -0.4729 H   0  0  0  0  0  0  0  0  0  0  0  0
   -1.4995   -0.8525   -1.7715 H   0  0  0  0  0  0  0  0  0  0  0  0
   -1.1825    1.3433   -2.1438 H   0  0  0  0  0  0  0  0  0  0  0  0
   -2.1675    1.6749   -0.7050 H   0  0  0  0  0  0  0  0  0  0  0  0
   -0.3263    2.0721    0.6455 H   0  0  0  0  0  0  0  0  0  0  0  0
    0.1429    2.7383   -0.9371 H   0  0  0  0  0  0  0  0  0  0  0  0
   -6.6742   -1.2021    1.4882 H   0  0  0  0  0  0  0  0  0  0  0  0
   -6.3840    1.0058   -2.0778 H   0  0  0  0  0  0  0  0  0  0  0  0
   -3.9101    0.7161   -2.0404 H   0  0  0  0  0  0  0  0  0  0  0  0
    3.1261   -0.8358    2.5500 H   0  0  0  0  0  0  0  0  0  0  0  0
    4.4124   -2.8456    2.1318 H   0  0  0  0  0  0  0  0  0  0  0  0
    6.0977   -1.0518   -1.3476 H   0  0  0  0  0  0  0  0  0  0  0  0
    4.7914    0.9942   -0.9261 H   0  0  0  0  0  0  0  0  0  0  0  0
  1  2  1  0
  2  3  1  0
  3  4  1  0
  4  5  1  0
  5  6  1  0
  6  7  1  0
  7  8  1  0
  8  9  1  0
  7 10  1  0
 10 11  2  0
 11 12  1  0
 12 13  1  0
 13 14  2  0
 14 15  1  0
 15 16  1  0
 15 17  2  0
 17 18  1  0
 18 19  2  0
  2 20  1  0
 20 21  2  0
 21 22  1  0
 22 23  2  0
 23 24  1  0
 23 25  1  0
 25 26  2  0
  9  4  1  0
 19 10  1  0
 26 20  1  0
 19 13  1  0
  2 27  1  1
  3 28  1  0
  3 29  1  0
  5 30  1  0
  5 31  1  0
  6 32  1  0
  6 33  1  0
  7 34  1  0
  8 35  1  0
  8 36  1  0
  9 37  1  0
  9 38  1  0
 14 39  1  0
 17 40  1  0
 18 41  1  0
 21 42  1  0
 22 43  1  0
 25 44  1  0
 26 45  1  0
M  END
$$$$
[H]C([H])=C([H])C(=O)N1C([H])([H])[C@@]2([H])N(C([H])(C([H])([H])[H])C([H])([H])N(c3nc(N([H])c4c([H])nn(C([H])([H])[H])c4[H])nc([H])c3C#N)[C@@]3([H])C([H])([H])C([H])([H])[C@@]([H])(N4C(=O)C(C([H])([H])[H])(C([H])([H])[H])C4=O)C3([H])[H])C([H])([H])C([H])([H])O[C@@]1([H])C2([H])[H]
     RDKit          3D

 85 90  0  0  0  0  0  0  0  0999 V2000
   -1.9925    0.8161   -1.1383 C   0  0  0  0  0  0  0  0  0  0  0  0
   -2.1978    0.0342    0.1198 C   0  0  0  0  0  0  0  0  0  0  0  0
   -1.3262    0.4116    1.2708 C   0  0  0  0  0  0  0  0  0  0  0  0
    0.0861    0.3191    1.1478 N   0  0  0  0  0  0  0  0  0  0  0  0
    0.6570   -0.9897    1.0760 C   0  0  1  0  0  0  0  0  0  0  0  0
    0.2956   -1.8812   -0.0495 C   0  0  0  0  0  0  0  0  0  0  0  0
    1.4893   -2.8393   -0.1898 C   0  0  0  0  0  0  0  0  0  0  0  0
    2.2913   -2.6005    1.0990 C   0  0  2  0  0  0  0  0  0  0  0  0
    2.1487   -1.0817    1.1064 C   0  0  0  0  0  0  0  0  0  0  0  0
    3.6922   -2.9193    0.9340 N   0  0  0  0  0  0  0  0  0  0  0  0
    4.5838   -3.7263    1.6523 C   0  0  0  0  0  0  0  0  0  0  0  0
    4.6624   -4.2452    2.8043 O   0  0  0  0  0  0  0  0  0  0  0  0
    5.4773   -3.7509    0.4665 C   0  0  0  0  0  0  0  0  0  0  0  0
    5.2134   -4.9606   -0.3866 C   0  0  0  0  0  0  0  0  0  0  0  0
    6.9356   -3.5010    0.7792 C   0  0  0  0  0  0  0  0  0  0  0  0
    4.7117   -2.5785    0.0385 C   0  0  0  0  0  0  0  0  0  0  0  0
    4.8871   -1.6462   -0.7881 O   0  0  0  0  0  0  0  0  0  0  0  0
    1.0035    1.4309    1.1011 C   0  0  0  0  0  0  0  0  0  0  0  0
    1.7615    1.6736    0.0171 N   0  0  0  0  0  0  0  0  0  0  0  0
    2.6315    2.6575   -0.1529 C   0  0  0  0  0  0  0  0  0  0  0  0
    3.3363    2.7350   -1.3720 N   0  0  0  0  0  0  0  0  0  0  0  0
    4.2879    3.6872   -1.7513 C   0  0  0  0  0  0  0  0  0  0  0  0
    5.0303    3.7174   -2.9450 C   0  0  0  0  0  0  0  0  0  0  0  0
    5.8206    4.7972   -2.9080 N   0  0  0  0  0  0  0  0  0  0  0  0
    5.6585    5.4690   -1.8010 N   0  0  0  0  0  0  0  0  0  0  0  0
    6.3253    6.6950   -1.3774 C   0  0  0  0  0  0  0  0  0  0  0  0
    4.7107    4.7926   -1.0734 C   0  0  0  0  0  0  0  0  0  0  0  0
    2.7663    3.5067    0.8825 N   0  0  0  0  0  0  0  0  0  0  0  0
    2.0464    3.3386    2.0084 C   0  0  0  0  0  0  0  0  0  0  0  0
    1.1484    2.3018    2.1524 C   0  0  0  0  0  0  0  0  0  0  0  0
    0.3851    2.0940    3.3424 C   0  0  0  0  0  0  0  0  0  0  0  0
   -0.2121    1.9330    4.3186 N   0  0  0  0  0  0  0  0  0  0  0  0
   -3.5770    0.2299    0.6246 N   0  0  0  0  0  0  0  0  0  0  0  0
   -3.9172   -0.8157    1.6076 C   0  0  0  0  0  0  0  0  0  0  0  0
   -5.2408   -1.4143    1.6091 C   0  0  0  0  0  0  0  0  0  0  0  0
   -6.1640   -1.4274    0.6383 O   0  0  0  0  0  0  0  0  0  0  0  0
   -6.7328   -0.2520    0.1918 C   0  0  1  0  0  0  0  0  0  0  0  0
   -5.7430    0.7380    0.7524 C   0  0  0  0  0  0  0  0  0  0  0  0
   -4.6110    0.2632   -0.1763 C   0  0  1  0  0  0  0  0  0  0  0  0
   -5.2366    0.8458   -1.3241 C   0  0  0  0  0  0  0  0  0  0  0  0
   -6.5318    0.0499   -1.2145 N   0  0  0  0  0  0  0  0  0  0  0  0
   -7.2190   -0.2482   -2.3889 C   0  0  0  0  0  0  0  0  0  0  0  0
   -6.7484    0.2621   -3.5003 O   0  0  0  0  0  0  0  0  0  0  0  0
   -8.3788   -1.0464   -2.5300 C   0  0  0  0  0  0  0  0  0  0  0  0
   -9.0220   -1.6787   -1.5861 C   0  0  0  0  0  0  0  0  0  0  0  0
   -0.9926    1.2905   -1.1439 H   0  0  0  0  0  0  0  0  0  0  0  0
   -2.1632    0.2311   -2.0596 H   0  0  0  0  0  0  0  0  0  0  0  0
   -2.6966    1.6983   -1.2111 H   0  0  0  0  0  0  0  0  0  0  0  0
   -2.2089   -1.0267   -0.1544 H   0  0  0  0  0  0  0  0  0  0  0  0
   -1.7043   -0.2974    2.0988 H   0  0  0  0  0  0  0  0  0  0  0  0
   -1.6766    1.3670    1.7562 H   0  0  0  0  0  0  0  0  0  0  0  0
    0.3787   -1.6051    2.0033 H   0  0  0  0  0  0  0  0  0  0  0  0
   -0.5405   -2.5967    0.2046 H   0  0  0  0  0  0  0  0  0  0  0  0
    0.1871   -1.4192   -1.0329 H   0  0  0  0  0  0  0  0  0  0  0  0
    1.2185   -3.8903   -0.1966 H   0  0  0  0  0  0  0  0  0  0  0  0
    2.0859   -2.6292   -1.0820 H   0  0  0  0  0  0  0  0  0  0  0  0
    1.8303   -3.0832    1.9546 H   0  0  0  0  0  0  0  0  0  0  0  0
    2.6331   -0.7444    2.0134 H   0  0  0  0  0  0  0  0  0  0  0  0
    2.6404   -0.7887    0.1609 H   0  0  0  0  0  0  0  0  0  0  0  0
    6.0493   -5.6852   -0.2995 H   0  0  0  0  0  0  0  0  0  0  0  0
    4.3025   -5.5048   -0.0561 H   0  0  0  0  0  0  0  0  0  0  0  0
    5.0376   -4.6795   -1.4574 H   0  0  0  0  0  0  0  0  0  0  0  0
    7.0874   -2.8809    1.6638 H   0  0  0  0  0  0  0  0  0  0  0  0
    7.3778   -4.5049    1.0105 H   0  0  0  0  0  0  0  0  0  0  0  0
    7.4785   -3.1109   -0.1064 H   0  0  0  0  0  0  0  0  0  0  0  0
    3.1211    1.9819   -2.0894 H   0  0  0  0  0  0  0  0  0  0  0  0
    4.9719    3.0074   -3.7347 H   0  0  0  0  0  0  0  0  0  0  0  0
    5.5251    7.3223   -0.9140 H   0  0  0  0  0  0  0  0  0  0  0  0
    7.1123    6.4445   -0.6431 H   0  0  0  0  0  0  0  0  0  0  0  0
    6.7371    7.2303   -2.2506 H   0  0  0  0  0  0  0  0  0  0  0  0
    4.3801    5.1310   -0.1061 H   0  0  0  0  0  0  0  0  0  0  0  0
    2.1343    4.0073    2.8591 H   0  0  0  0  0  0  0  0  0  0  0  0
   -3.1183   -1.6062    1.4672 H   0  0  0  0  0  0  0  0  0  0  0  0
   -3.6744   -0.3583    2.5937 H   0  0  0  0  0  0  0  0  0  0  0  0
   -5.7855   -1.1064    2.5644 H   0  0  0  0  0  0  0  0  0  0  0  0
   -5.1039   -2.5279    1.8543 H   0  0  0  0  0  0  0  0  0  0  0  0
   -7.7546   -0.0445    0.5599 H   0  0  0  0  0  0  0  0  0  0  0  0
   -6.1006    1.7535    0.4916 H   0  0  0  0  0  0  0  0  0  0  0  0
   -5.5584    0.7414    1.7941 H   0  0  0  0  0  0  0  0  0  0  0  0
   -4.6784   -0.8251   -0.5174 H   0  0  0  0  0  0  0  0  0  0  0  0
   -5.4760    1.9182   -1.1881 H   0  0  0  0  0  0  0  0  0  0  0  0
   -4.7919    0.6886   -2.3093 H   0  0  0  0  0  0  0  0  0  0  0  0
   -8.7780   -1.1356   -3.5824 H   0  0  0  0  0  0  0  0  0  0  0  0
   -9.9162   -2.2588   -1.8745 H   0  0  0  0  0  0  0  0  0  0  0  0
   -8.7631   -1.6999   -0.5589 H   0  0  0  0  0  0  0  0  0  0  0  0
  1  2  1  0
  2  3  1  0
  3  4  1  0
  4  5  1  0
  5  6  1  0
  6  7  1  0
  7  8  1  0
  8  9  1  0
  8 10  1  0
 10 11  1  0
 11 12  2  0
 11 13  1  0
 13 14  1  0
 13 15  1  0
 13 16  1  0
 16 17  2  0
  4 18  1  0
 18 19  2  0
 19 20  1  0
 20 21  1  0
 21 22  1  0
 22 23  1  0
 23 24  2  0
 24 25  1  0
 25 26  1  0
 25 27  1  0
 20 28  2  0
 28 29  1  0
 29 30  2  0
 30 31  1  0
 31 32  3  0
  2 33  1  0
 33 34  1  0
 34 35  1  0
 35 36  1  0
 36 37  1  0
 37 38  1  0
 38 39  1  0
 39 40  1  0
 40 41  1  0
 41 42  1  0
 42 43  2  0
 42 44  1  0
 44 45  2  3
  9  5  1  0
 16 10  1  0
 30 18  1  0
 39 33  1  0
 27 22  2  0
 41 37  1  0
  1 46  1  0
  1 47  1  0
  1 48  1  0
  2 49  1  0
  3 50  1  0
  3 51  1  0
  5 52  1  1
  6 53  1  0
  6 54  1  0
  7 55  1  0
  7 56  1  0
  8 57  1  1
  9 58  1  0
  9 59  1  0
 14 60  1  0
 14 61  1  0
 14 62  1  0
 15 63  1  0
 15 64  1  0
 15 65  1  0
 21 66  1  0
 23 67  1  0
 26 68  1  0
 26 69  1  0
 26 70  1  0
 27 71  1  0
 29 72  1  0
 34 73  1  0
 34 74  1  0
 35 75  1  0
 35 76  1  0
 37 77  1  1
 38 78  1  0
 38 79  1  0
 39 80  1  6
 40 81  1  0
 40 82  1  0
 44 83  1  0
 45 84  1  0
 45 85  1  0
M  END
$$$$
[H]OC([H])([H])c1sc(-c2c([H])c([H])c(F)c([H])c2[H])c(C(=O)N([H])C2([H])C([H])([H])C([H])([H])N(c3nc([H])c([H])c([H])c3[H])C([H])([H])C2([H])[H])c1[H]
     RDKit          3D

 51 54  0  0  0  0  0  0  0  0999 V2000
   -5.3856    4.7028    2.0202 O   0  0  0  0  0  0  0  0  0  0  0  0
   -4.7835    4.5727    0.7512 C   0  0  0  0  0  0  0  0  0  0  0  0
   -4.3084    3.1467    0.6013 C   0  0  0  0  0  0  0  0  0  0  0  0
   -3.1264    2.6328    0.9993 C   0  0  0  0  0  0  0  0  0  0  0  0
   -2.8858    1.3054    0.7626 C   0  0  0  0  0  0  0  0  0  0  0  0
   -3.8639    0.6043    0.1449 C   0  0  0  0  0  0  0  0  0  0  0  0
   -5.0889    1.8180   -0.0922 S   0  0  0  0  0  0  0  0  0  0  0  0
   -3.9964   -0.8129   -0.2647 C   0  0  0  0  0  0  0  0  0  0  0  0
   -5.0962   -1.1122   -1.0648 C   0  0  0  0  0  0  0  0  0  0  0  0
   -5.3948   -2.3786   -1.5000 C   0  0  0  0  0  0  0  0  0  0  0  0
   -4.5394   -3.3838   -1.1060 C   0  0  0  0  0  0  0  0  0  0  0  0
   -4.7822   -4.6748   -1.5082 F   0  0  0  0  0  0  0  0  0  0  0  0
   -3.4463   -3.1288   -0.3179 C   0  0  0  0  0  0  0  0  0  0  0  0
   -3.1740   -1.8239    0.1081 C   0  0  0  0  0  0  0  0  0  0  0  0
   -1.5504    0.7520    1.1124 C   0  0  0  0  0  0  0  0  0  0  0  0
   -1.3590    0.5474    2.3348 O   0  0  0  0  0  0  0  0  0  0  0  0
   -0.5225    0.4633    0.2107 N   0  0  0  0  0  0  0  0  0  0  0  0
    0.7672   -0.0809    0.6279 C   0  0  0  0  0  0  0  0  0  0  0  0
    1.8073    1.0109    0.6980 C   0  0  0  0  0  0  0  0  0  0  0  0
    3.0345    0.3341    1.3432 C   0  0  0  0  0  0  0  0  0  0  0  0
    3.5415   -0.4950    0.2317 N   0  0  0  0  0  0  0  0  0  0  0  0
    2.6216   -1.1161   -0.6629 C   0  0  0  0  0  0  0  0  0  0  0  0
    1.2054   -1.2225   -0.1742 C   0  0  0  0  0  0  0  0  0  0  0  0
    4.9334   -0.6195    0.0915 C   0  0  0  0  0  0  0  0  0  0  0  0
    5.5064   -1.3806   -0.8929 C   0  0  0  0  0  0  0  0  0  0  0  0
    6.8786   -1.5064   -1.0556 C   0  0  0  0  0  0  0  0  0  0  0  0
    7.7117   -0.8379   -0.1916 C   0  0  0  0  0  0  0  0  0  0  0  0
    7.1258   -0.0795    0.7898 C   0  0  0  0  0  0  0  0  0  0  0  0
    5.8018    0.0199    0.9189 N   0  0  0  0  0  0  0  0  0  0  0  0
   -4.7055    4.7230    2.7345 H   0  0  0  0  0  0  0  0  0  0  0  0
   -5.4901    4.7867   -0.0509 H   0  0  0  0  0  0  0  0  0  0  0  0
   -3.8881    5.2201    0.7503 H   0  0  0  0  0  0  0  0  0  0  0  0
   -2.3809    3.2967    1.5061 H   0  0  0  0  0  0  0  0  0  0  0  0
   -5.7933   -0.3142   -1.3911 H   0  0  0  0  0  0  0  0  0  0  0  0
   -6.2492   -2.6057   -2.1200 H   0  0  0  0  0  0  0  0  0  0  0  0
   -2.7743   -3.9467   -0.0133 H   0  0  0  0  0  0  0  0  0  0  0  0
   -2.3276   -1.6682    0.7480 H   0  0  0  0  0  0  0  0  0  0  0  0
   -0.6472    0.6336   -0.8003 H   0  0  0  0  0  0  0  0  0  0  0  0
    0.5605   -0.4445    1.6936 H   0  0  0  0  0  0  0  0  0  0  0  0
    2.1335    1.3463   -0.2993 H   0  0  0  0  0  0  0  0  0  0  0  0
    1.4224    1.8096    1.3578 H   0  0  0  0  0  0  0  0  0  0  0  0
    2.6790   -0.3385    2.1461 H   0  0  0  0  0  0  0  0  0  0  0  0
    3.7353    1.1071    1.6411 H   0  0  0  0  0  0  0  0  0  0  0  0
    2.6620   -0.6556   -1.6931 H   0  0  0  0  0  0  0  0  0  0  0  0
    3.0109   -2.1672   -0.8470 H   0  0  0  0  0  0  0  0  0  0  0  0
    0.5591   -1.3348   -1.1134 H   0  0  0  0  0  0  0  0  0  0  0  0
    1.0870   -2.1931    0.3920 H   0  0  0  0  0  0  0  0  0  0  0  0
    4.8454   -1.9180   -1.5913 H   0  0  0  0  0  0  0  0  0  0  0  0
    7.3025   -2.1176   -1.8492 H   0  0  0  0  0  0  0  0  0  0  0  0
    8.8020   -0.9157   -0.2907 H   0  0  0  0  0  0  0  0  0  0  0  0
    7.8250    0.4400    1.4599 H   0  0  0  0  0  0  0  0  0  0  0  0
  1  2  1  0
  2  3  1  0
  3  4  2  0
  4  5  1  0
  5  6  2  0
  6  7  1  0
  6  8  1  0
  8  9  2  0
  9 10  1  0
 10 11  2  0
 11 12  1  0
 11 13  1  0
 13 14  2  0
  5 15  1  0
 15 16  2  0
 15 17  1  0
 17 18  1  0
 18 19  1  0
 19 20  1  0
 20 21  1  0
 21 22  1  0
 22 23  1  0
 21 24  1  0
 24 25  2  0
 25 26  1  0
 26 27  2  0
 27 28  1  0
 28 29  2  0
  7  3  1  0
 14  8  1  0
 23 18  1  0
 29 24  1  0
  1 30  1  0
  2 31  1  0
  2 32  1  0
  4 33  1  0
  9 34  1  0
 10 35  1  0
 13 36  1  0
 14 37  1  0
 17 38  1  0
 18 39  1  0
 19 40  1  0
 19 41  1  0
 20 42  1  0
 20 43  1  0
 22 44  1  0
 22 45  1  0
 23 46  1  0
 23 47  1  0
 25 48  1  0
 26 49  1  0
 27 50  1  0
 28 51  1  0
M  END
$$$$
[H]c1nc(C([H])([H])[H])c(-c2c([H])c([H])c(C([H])([H])n3c(C([H])(C([H])([H])[H])C([H])([H])[H])nc4c([H])c([H])c(C([H])(C([H])([H])[H])C([H])([H])[H])c([H])c4c3=O)c([H])c2[H])c([H])c1[H]
     RDKit          3D

 60 63  0  0  0  0  0  0  0  0999 V2000
   -1.4958   -2.4579    3.9539 C   0  0  0  0  0  0  0  0  0  0  0  0
   -0.4980   -2.0696    2.8643 C   0  0  0  0  0  0  0  0  0  0  0  0
   -0.3351   -3.3514    2.0299 C   0  0  0  0  0  0  0  0  0  0  0  0
   -1.1316   -1.0820    1.9654 C   0  0  0  0  0  0  0  0  0  0  0  0
   -2.3159   -1.4935    1.3870 N   0  0  0  0  0  0  0  0  0  0  0  0
   -3.0409   -0.7040    0.5924 C   0  0  0  0  0  0  0  0  0  0  0  0
   -4.2299   -1.1129    0.0100 C   0  0  0  0  0  0  0  0  0  0  0  0
   -4.9663   -0.2819   -0.8088 C   0  0  0  0  0  0  0  0  0  0  0  0
   -4.4641    0.9881   -1.0264 C   0  0  0  0  0  0  0  0  0  0  0  0
   -3.2759    1.3988   -0.4453 C   0  0  0  0  0  0  0  0  0  0  0  0
   -2.5476    0.5594    0.3718 C   0  0  0  0  0  0  0  0  0  0  0  0
   -1.3611    0.9448    0.9620 C   0  0  0  0  0  0  0  0  0  0  0  0
   -0.9348    2.0965    0.7487 O   0  0  0  0  0  0  0  0  0  0  0  0
   -0.6231    0.1310    1.7733 N   0  0  0  0  0  0  0  0  0  0  0  0
    0.6066    0.5863    2.3182 C   0  0  0  0  0  0  0  0  0  0  0  0
    1.8083    0.4987    1.4714 C   0  0  0  0  0  0  0  0  0  0  0  0
    2.3034    1.6513    0.8524 C   0  0  0  0  0  0  0  0  0  0  0  0
    3.4060    1.6037    0.0549 C   0  0  0  0  0  0  0  0  0  0  0  0
    4.1074    0.4383   -0.1988 C   0  0  0  0  0  0  0  0  0  0  0  0
    3.6324   -0.6932    0.4026 C   0  0  0  0  0  0  0  0  0  0  0  0
    2.5006   -0.6476    1.2214 C   0  0  0  0  0  0  0  0  0  0  0  0
    5.2923    0.4621   -1.0485 C   0  0  0  0  0  0  0  0  0  0  0  0
    6.3306    1.3716   -0.7967 C   0  0  0  0  0  0  0  0  0  0  0  0
    7.4354    1.3404   -1.6213 C   0  0  0  0  0  0  0  0  0  0  0  0
    7.5495    0.4546   -2.6717 C   0  0  0  0  0  0  0  0  0  0  0  0
    6.5320   -0.3951   -2.8734 N   0  0  0  0  0  0  0  0  0  0  0  0
    5.4096   -0.4126   -2.0898 C   0  0  0  0  0  0  0  0  0  0  0  0
    4.3084   -1.3660   -2.3735 C   0  0  0  0  0  0  0  0  0  0  0  0
   -5.2281    1.9154   -1.9034 C   0  0  0  0  0  0  0  0  0  0  0  0
   -6.5988    2.2240   -1.2889 C   0  0  0  0  0  0  0  0  0  0  0  0
   -5.4493    1.3510   -3.2681 C   0  0  0  0  0  0  0  0  0  0  0  0
   -0.9438   -3.0163    4.7366 H   0  0  0  0  0  0  0  0  0  0  0  0
   -2.2554   -3.1684    3.5203 H   0  0  0  0  0  0  0  0  0  0  0  0
   -1.9961   -1.5549    4.3440 H   0  0  0  0  0  0  0  0  0  0  0  0
    0.4680   -1.8195    3.2556 H   0  0  0  0  0  0  0  0  0  0  0  0
   -1.3000   -3.8170    1.8138 H   0  0  0  0  0  0  0  0  0  0  0  0
    0.1383   -3.0000    1.0712 H   0  0  0  0  0  0  0  0  0  0  0  0
    0.3872   -4.0081    2.5445 H   0  0  0  0  0  0  0  0  0  0  0  0
   -4.5981   -2.1189    0.2012 H   0  0  0  0  0  0  0  0  0  0  0  0
   -5.8981   -0.5771   -1.2759 H   0  0  0  0  0  0  0  0  0  0  0  0
   -2.8965    2.3986   -0.6268 H   0  0  0  0  0  0  0  0  0  0  0  0
    0.4856    1.6850    2.6507 H   0  0  0  0  0  0  0  0  0  0  0  0
    0.8374    0.1013    3.2980 H   0  0  0  0  0  0  0  0  0  0  0  0
    1.7720    2.5923    1.0561 H   0  0  0  0  0  0  0  0  0  0  0  0
    3.7567    2.5318   -0.4093 H   0  0  0  0  0  0  0  0  0  0  0  0
    4.1125   -1.6306    0.2686 H   0  0  0  0  0  0  0  0  0  0  0  0
    2.2162   -1.5905    1.6526 H   0  0  0  0  0  0  0  0  0  0  0  0
    6.2182    2.0573    0.0336 H   0  0  0  0  0  0  0  0  0  0  0  0
    8.2502    2.0301   -1.4500 H   0  0  0  0  0  0  0  0  0  0  0  0
    8.4327    0.4459   -3.3127 H   0  0  0  0  0  0  0  0  0  0  0  0
    3.3040   -0.9727   -2.2082 H   0  0  0  0  0  0  0  0  0  0  0  0
    4.4762   -2.3801   -1.9511 H   0  0  0  0  0  0  0  0  0  0  0  0
    4.3517   -1.5483   -3.4957 H   0  0  0  0  0  0  0  0  0  0  0  0
   -4.6947    2.8793   -1.9721 H   0  0  0  0  0  0  0  0  0  0  0  0
   -6.4809    2.8553   -0.3813 H   0  0  0  0  0  0  0  0  0  0  0  0
   -7.1591    2.8255   -2.0267 H   0  0  0  0  0  0  0  0  0  0  0  0
   -7.1153    1.2732   -1.0823 H   0  0  0  0  0  0  0  0  0  0  0  0
   -5.3970    2.1360   -4.0623 H   0  0  0  0  0  0  0  0  0  0  0  0
   -6.4649    0.9143   -3.3199 H   0  0  0  0  0  0  0  0  0  0  0  0
   -4.7334    0.5283   -3.4378 H   0  0  0  0  0  0  0  0  0  0  0  0
  1  2  1  0
  2  3  1  0
  2  4  1  0
  4  5  2  0
  5  6  1  0
  6  7  2  0
  7  8  1  0
  8  9  2  0
  9 10  1  0
 10 11  2  0
 11 12  1  0
 12 13  2  0
 12 14  1  0
 14 15  1  0
 15 16  1  0
 16 17  2  0
 17 18  1  0
 18 19  2  0
 19 20  1  0
 20 21  2  0
 19 22  1  0
 22 23  2  0
 23 24  1  0
 24 25  2  0
 25 26  1  0
 26 27  2  0
 27 28  1  0
  9 29  1  0
 29 30  1  0
 29 31  1  0
 14  4  1  0
 21 16  1  0
 27 22  1  0
 11  6  1  0
  1 32  1  0
  1 33  1  0
  1 34  1  0
  2 35  1  0
  3 36  1  0
  3 37  1  0
  3 38  1  0
  7 39  1  0
  8 40  1  0
 10 41  1  0
 15 42  1  0
 15 43  1  0
 17 44  1  0
 18 45  1  0
 20 46  1  0
 21 47  1  0
 23 48  1  0
 24 49  1  0
 25 50  1  0
 28 51  1  0
 28 52  1  0
 28 53  1  0
 29 54  1  0
 30 55  1  0
 30 56  1  0
 30 57  1  0
 31 58  1  0
 31 59  1  0
 31 60  1  0
M  END
$$$$
[H]O[C@@]1([H])[C@]([H])(OP(=O)(O[H])O[H])[C@]([H])(C([H])([H])OP(=O)(O[H])O[H])O[C@]1([H])C([H])([H])OP(=O)(O[H])OP(=O)(O[H])OP(=O)(O[H])OP(=O)(O[H])O[H]
     RDKit          3D

 53 53  0  0  0  0  0  0  0  0999 V2000
   -7.9138   -0.5616    2.6633 O   0  0  0  0  0  0  0  0  0  0  0  0
   -6.8461   -0.8722    1.3958 P   0  0  0  0  0  0  0  0  0  0  0  0
   -5.8560   -2.1947    1.7051 O   0  0  0  0  0  0  0  0  0  0  0  0
   -7.6454   -1.1955    0.1416 O   0  0  0  0  0  0  0  0  0  0  0  0
   -5.9853    0.5350    1.0793 O   0  0  0  0  0  0  0  0  0  0  0  0
   -4.6774    0.4886    1.5748 C   0  0  0  0  0  0  0  0  0  0  0  0
   -3.8411   -0.2247    0.5652 C   0  0  2  0  0  0  0  0  0  0  0  0
   -2.5759   -0.5867    1.0434 O   0  0  0  0  0  0  0  0  0  0  0  0
   -2.0084   -1.1443   -0.1135 C   0  0  2  0  0  0  0  0  0  0  0  0
   -0.5177   -1.2890   -0.0108 C   0  0  0  0  0  0  0  0  0  0  0  0
    0.1833   -0.2838   -0.6520 O   0  0  0  0  0  0  0  0  0  0  0  0
    1.7341   -0.2326    0.0445 P   0  0  0  0  0  0  0  0  0  0  0  0
    1.9192    1.1899    0.9586 O   0  0  0  0  0  0  0  0  0  0  0  0
    1.9350   -1.3852    1.0156 O   0  0  0  0  0  0  0  0  0  0  0  0
    2.9461   -0.3239   -1.1143 O   0  0  0  0  0  0  0  0  0  0  0  0
    4.0174    0.9691   -1.0518 P   0  0  0  0  0  0  0  0  0  0  0  0
    4.2298    1.5726    0.5013 O   0  0  0  0  0  0  0  0  0  0  0  0
    3.4254    2.0824   -1.9015 O   0  0  0  0  0  0  0  0  0  0  0  0
    5.5250    0.6079   -1.6976 O   0  0  0  0  0  0  0  0  0  0  0  0
    6.4546   -0.3703   -0.6983 P   0  0  0  0  0  0  0  0  0  0  0  0
    7.7801    0.4538   -0.0413 O   0  0  0  0  0  0  0  0  0  0  0  0
    5.6100   -0.9915    0.3839 O   0  0  0  0  0  0  0  0  0  0  0  0
    7.0933   -1.6153   -1.6651 O   0  0  0  0  0  0  0  0  0  0  0  0
    8.2803   -2.4526   -0.8177 P   0  0  0  0  0  0  0  0  0  0  0  0
    9.6498   -1.4640   -0.6510 O   0  0  0  0  0  0  0  0  0  0  0  0
    7.7175   -2.8806    0.7073 O   0  0  0  0  0  0  0  0  0  0  0  0
    8.6620   -3.6902   -1.5853 O   0  0  0  0  0  0  0  0  0  0  0  0
   -2.4471   -0.2964   -1.2731 C   0  0  1  0  0  0  0  0  0  0  0  0
   -3.2218   -1.1015   -2.1124 O   0  0  0  0  0  0  0  0  0  0  0  0
   -3.4188    0.6660   -0.5983 C   0  0  2  0  0  0  0  0  0  0  0  0
   -2.6683    1.7335   -0.1393 O   0  0  0  0  0  0  0  0  0  0  0  0
   -3.3462    3.2253   -0.5155 P   0  0  0  0  0  0  0  0  0  0  0  0
   -3.1921    4.2606    0.8121 O   0  0  0  0  0  0  0  0  0  0  0  0
   -2.5682    3.9673   -1.8205 O   0  0  0  0  0  0  0  0  0  0  0  0
   -4.8057    3.1169   -0.8517 O   0  0  0  0  0  0  0  0  0  0  0  0
   -8.5281   -1.3011    2.8531 H   0  0  0  0  0  0  0  0  0  0  0  0
   -5.8953   -2.8831    0.9816 H   0  0  0  0  0  0  0  0  0  0  0  0
   -4.6924   -0.1205    2.4984 H   0  0  0  0  0  0  0  0  0  0  0  0
   -4.2805    1.4998    1.7385 H   0  0  0  0  0  0  0  0  0  0  0  0
   -4.3035   -1.1197    0.1258 H   0  0  0  0  0  0  0  0  0  0  0  0
   -2.4267   -2.1816   -0.1674 H   0  0  0  0  0  0  0  0  0  0  0  0
   -0.1823   -2.2779   -0.4024 H   0  0  0  0  0  0  0  0  0  0  0  0
   -0.2222   -1.2762    1.0620 H   0  0  0  0  0  0  0  0  0  0  0  0
    1.3036    1.8571    0.5451 H   0  0  0  0  0  0  0  0  0  0  0  0
    4.2533    2.5605    0.5364 H   0  0  0  0  0  0  0  0  0  0  0  0
    7.5841    1.3911    0.1735 H   0  0  0  0  0  0  0  0  0  0  0  0
    9.8996   -1.3471    0.2958 H   0  0  0  0  0  0  0  0  0  0  0  0
    8.3324   -2.5777    1.4281 H   0  0  0  0  0  0  0  0  0  0  0  0
   -1.6320    0.2192   -1.7951 H   0  0  0  0  0  0  0  0  0  0  0  0
   -3.1604   -2.0663   -1.8556 H   0  0  0  0  0  0  0  0  0  0  0  0
   -4.2583    0.9458   -1.2459 H   0  0  0  0  0  0  0  0  0  0  0  0
   -2.3000    4.2077    1.2270 H   0  0  0  0  0  0  0  0  0  0  0  0
   -3.1190    4.7573   -2.0678 H   0  0  0  0  0  0  0  0  0  0  0  0
  1  2  1  0
  2  3  1  0
  2  4  2  0
  2  5  1  0
  5  6  1  0
  6  7  1  0
  7  8  1  0
  8  9  1  0
  9 10  1  0
 10 11  1  0
 11 12  1  0
 12 13  1  0
 12 14  2  0
 12 15  1  0
 15 16  1  0
 16 17  1  0
 16 18  2  0
 16 19  1  0
 19 20  1  0
 20 21  1  0
 20 22  2  0
 20 23  1  0
 23 24  1  0
 24 25  1  0
 24 26  1  0
 24 27  2  0
  9 28  1  0
 28 29  1  0
 28 30  1  0
 30 31  1  0
 31 32  1  0
 32 33  1  0
 32 34  1  0
 32 35  2  0
 30  7  1  0
  1 36  1  0
  3 37  1  0
  6 38  1  0
  6 39  1  0
  7 40  1  6
  9 41  1  6
 10 42  1  0
 10 43  1  0
 13 44  1  0
 17 45  1  0
 21 46  1  0
 25 47  1  0
 26 48  1  0
 28 49  1  6
 29 50  1  0
 30 51  1  6
 33 52  1  0
 34 53  1  0
M  END
$$$$
[H]c1c([H])c(Cl)c([H])c(N([H])C(=O)C2([H])C([H])([H])N(C([H])([H])C([H])([H])OC([H])([H])[H])C([H])([H])C([H])([H])C2([H])[H])c1[H]
     RDKit          3D

 41 42  0  0  0  0  0  0  0  0999 V2000
    5.3557   -0.9262    0.8306 C   0  0  0  0  0  0  0  0  0  0  0  0
    4.2172   -1.2153    1.5512 O   0  0  0  0  0  0  0  0  0  0  0  0
    3.6430   -0.1199    2.1473 C   0  0  0  0  0  0  0  0  0  0  0  0
    3.0907    0.8699    1.1850 C   0  0  0  0  0  0  0  0  0  0  0  0
    2.0319    0.4359    0.3572 N   0  0  0  0  0  0  0  0  0  0  0  0
    2.2191   -0.5098   -0.6297 C   0  0  0  0  0  0  0  0  0  0  0  0
    1.1235   -0.7078   -1.6289 C   0  0  0  0  0  0  0  0  0  0  0  0
    0.3480    0.5417   -1.9364 C   0  0  0  0  0  0  0  0  0  0  0  0
   -0.0964    1.1974   -0.6785 C   0  0  0  0  0  0  0  0  0  0  0  0
    1.0550    1.4447    0.2062 C   0  0  0  0  0  0  0  0  0  0  0  0
   -1.2405    0.4971   -0.0124 C   0  0  0  0  0  0  0  0  0  0  0  0
   -1.1383    0.0399    1.1370 O   0  0  0  0  0  0  0  0  0  0  0  0
   -2.4456    0.3729   -0.7364 N   0  0  0  0  0  0  0  0  0  0  0  0
   -3.6533   -0.2344   -0.3490 C   0  0  0  0  0  0  0  0  0  0  0  0
   -3.7538   -1.0462    0.7357 C   0  0  0  0  0  0  0  0  0  0  0  0
   -4.9703   -1.6038    1.0873 C   0  0  0  0  0  0  0  0  0  0  0  0
   -6.0689   -1.3355    0.3402 C   0  0  0  0  0  0  0  0  0  0  0  0
   -6.0082   -0.5236   -0.7589 C   0  0  0  0  0  0  0  0  0  0  0  0
   -7.4473   -0.2124   -1.6830 Cl  0  0  0  0  0  0  0  0  0  0  0  0
   -4.8161    0.0181   -1.0970 C   0  0  0  0  0  0  0  0  0  0  0  0
    5.1983   -0.2071    0.0143 H   0  0  0  0  0  0  0  0  0  0  0  0
    5.7943   -1.8909    0.4430 H   0  0  0  0  0  0  0  0  0  0  0  0
    6.1662   -0.4963    1.4797 H   0  0  0  0  0  0  0  0  0  0  0  0
    2.9080   -0.4080    2.9439 H   0  0  0  0  0  0  0  0  0  0  0  0
    4.4690    0.4084    2.7205 H   0  0  0  0  0  0  0  0  0  0  0  0
    3.9679    1.2794    0.6031 H   0  0  0  0  0  0  0  0  0  0  0  0
    2.6821    1.7310    1.8051 H   0  0  0  0  0  0  0  0  0  0  0  0
    3.1298   -0.2404   -1.2458 H   0  0  0  0  0  0  0  0  0  0  0  0
    2.4624   -1.5047   -0.1878 H   0  0  0  0  0  0  0  0  0  0  0  0
    1.4779   -1.1187   -2.5960 H   0  0  0  0  0  0  0  0  0  0  0  0
    0.3836   -1.4583   -1.2400 H   0  0  0  0  0  0  0  0  0  0  0  0
    0.9275    1.2461   -2.5558 H   0  0  0  0  0  0  0  0  0  0  0  0
   -0.5416    0.2388   -2.5488 H   0  0  0  0  0  0  0  0  0  0  0  0
   -0.5247    2.2015   -0.9764 H   0  0  0  0  0  0  0  0  0  0  0  0
    1.5837    2.3633   -0.1895 H   0  0  0  0  0  0  0  0  0  0  0  0
    0.6833    1.7442    1.2064 H   0  0  0  0  0  0  0  0  0  0  0  0
   -2.4543    0.7939   -1.7256 H   0  0  0  0  0  0  0  0  0  0  0  0
   -2.9225   -1.3245    1.3856 H   0  0  0  0  0  0  0  0  0  0  0  0
   -5.0457   -2.2375    1.9363 H   0  0  0  0  0  0  0  0  0  0  0  0
   -7.0121   -1.7869    0.6395 H   0  0  0  0  0  0  0  0  0  0  0  0
   -4.7786    0.6657   -1.9791 H   0  0  0  0  0  0  0  0  0  0  0  0
  1  2  1  0
  2  3  1  0
  3  4  1  0
  4  5  1  0
  5  6  1  0
  6  7  1  0
  7  8  1  0
  8  9  1  0
  9 10  1  0
  9 11  1  0
 11 12  2  0
 11 13  1  0
 13 14  1  0
 14 15  2  0
 15 16  1  0
 16 17  2  0
 17 18  1  0
 18 19  1  0
 18 20  2  0
 10  5  1  0
 20 14  1  0
  1 21  1  0
  1 22  1  0
  1 23  1  0
  3 24  1  0
  3 25  1  0
  4 26  1  0
  4 27  1  0
  6 28  1  0
  6 29  1  0
  7 30  1  0
  7 31  1  0
  8 32  1  0
  8 33  1  0
  9 34  1  0
 10 35  1  0
 10 36  1  0
 13 37  1  0
 15 38  1  0
 16 39  1  0
 17 40  1  0
 20 41  1  0
M  END
$$$$
[H]O[C@]1([H])C([H])([H])C([H])([H])[C@@]([H])(N([H])c2c([H])nc([H])c(-c3c([H])c([H])c4c(c3[H])c(C([H])([H])[H])c([H])c3nn([H])c(=O)n34)c2[H])C([H])([H])C1([H])[H]
     RDKit          3D

 52 56  0  0  0  0  0  0  0  0999 V2000
    4.8784   -2.5554   -0.1154 C   0  0  0  0  0  0  0  0  0  0  0  0
    4.8017   -1.1094    0.1638 C   0  0  0  0  0  0  0  0  0  0  0  0
    5.8826   -0.4606    0.7175 C   0  0  0  0  0  0  0  0  0  0  0  0
    5.8181    0.8939    0.9820 C   0  0  0  0  0  0  0  0  0  0  0  0
    6.7598    1.7085    1.5176 N   0  0  0  0  0  0  0  0  0  0  0  0
    6.2539    2.9088    1.5796 N   0  0  0  0  0  0  0  0  0  0  0  0
    5.0010    2.8770    1.0916 C   0  0  0  0  0  0  0  0  0  0  0  0
    4.2865    3.8894    1.0333 O   0  0  0  0  0  0  0  0  0  0  0  0
    4.7248    1.6381    0.7209 N   0  0  0  0  0  0  0  0  0  0  0  0
    3.6544    1.0313    0.1801 C   0  0  0  0  0  0  0  0  0  0  0  0
    2.5374    1.7801   -0.0893 C   0  0  0  0  0  0  0  0  0  0  0  0
    1.4366    1.1459   -0.6477 C   0  0  0  0  0  0  0  0  0  0  0  0
    1.4335   -0.1990   -0.9360 C   0  0  0  0  0  0  0  0  0  0  0  0
    2.5777   -0.9002   -0.6460 C   0  0  0  0  0  0  0  0  0  0  0  0
    3.6994   -0.3302   -0.0933 C   0  0  0  0  0  0  0  0  0  0  0  0
    0.2926   -0.8890   -1.5216 C   0  0  0  0  0  0  0  0  0  0  0  0
    0.4913   -1.9733   -2.3502 C   0  0  0  0  0  0  0  0  0  0  0  0
   -0.5133   -2.6464   -2.9160 N   0  0  0  0  0  0  0  0  0  0  0  0
   -1.7533   -2.2576   -2.6721 C   0  0  0  0  0  0  0  0  0  0  0  0
   -2.0335   -1.1781   -1.8509 C   0  0  0  0  0  0  0  0  0  0  0  0
   -3.3652   -0.8122   -1.6430 N   0  0  0  0  0  0  0  0  0  0  0  0
   -3.7052    0.1916   -0.6524 C   0  0  1  0  0  0  0  0  0  0  0  0
   -5.1868    0.4478   -0.7637 C   0  0  0  0  0  0  0  0  0  0  0  0
   -5.7846    1.1275    0.4140 C   0  0  0  0  0  0  0  0  0  0  0  0
   -5.2130    0.7488    1.7362 C   0  0  2  0  0  0  0  0  0  0  0  0
   -4.2006    1.6431    2.0915 O   0  0  0  0  0  0  0  0  0  0  0  0
   -4.5351   -0.6086    1.5724 C   0  0  0  0  0  0  0  0  0  0  0  0
   -3.3279   -0.3773    0.6954 C   0  0  0  0  0  0  0  0  0  0  0  0
   -1.0095   -0.4992   -1.2801 C   0  0  0  0  0  0  0  0  0  0  0  0
    4.4408   -2.8255   -1.1068 H   0  0  0  0  0  0  0  0  0  0  0  0
    4.4832   -3.1843    0.7034 H   0  0  0  0  0  0  0  0  0  0  0  0
    5.9679   -2.8373   -0.2034 H   0  0  0  0  0  0  0  0  0  0  0  0
    6.8003   -0.9743    0.9603 H   0  0  0  0  0  0  0  0  0  0  0  0
    6.7706    3.7353    1.9545 H   0  0  0  0  0  0  0  0  0  0  0  0
    2.4206    2.8318    0.0904 H   0  0  0  0  0  0  0  0  0  0  0  0
    0.5451    1.6980   -0.8724 H   0  0  0  0  0  0  0  0  0  0  0  0
    2.6082   -1.9611   -0.8608 H   0  0  0  0  0  0  0  0  0  0  0  0
    1.5165   -2.2981   -2.5542 H   0  0  0  0  0  0  0  0  0  0  0  0
   -2.5639   -2.8084   -3.1346 H   0  0  0  0  0  0  0  0  0  0  0  0
   -4.1117   -1.2855   -2.2264 H   0  0  0  0  0  0  0  0  0  0  0  0
   -3.1485    1.1110   -0.9060 H   0  0  0  0  0  0  0  0  0  0  0  0
   -5.6614   -0.5374   -0.9872 H   0  0  0  0  0  0  0  0  0  0  0  0
   -5.3439    1.0798   -1.6624 H   0  0  0  0  0  0  0  0  0  0  0  0
   -6.8806    0.8678    0.4242 H   0  0  0  0  0  0  0  0  0  0  0  0
   -5.7838    2.2512    0.2942 H   0  0  0  0  0  0  0  0  0  0  0  0
   -6.0126    0.7006    2.4881 H   0  0  0  0  0  0  0  0  0  0  0  0
   -3.8808    2.0635    1.2543 H   0  0  0  0  0  0  0  0  0  0  0  0
   -4.1997   -1.0285    2.5239 H   0  0  0  0  0  0  0  0  0  0  0  0
   -5.2308   -1.2536    1.0063 H   0  0  0  0  0  0  0  0  0  0  0  0
   -2.7053    0.3807    1.2137 H   0  0  0  0  0  0  0  0  0  0  0  0
   -2.7370   -1.3072    0.6324 H   0  0  0  0  0  0  0  0  0  0  0  0
   -1.1947    0.3460   -0.6449 H   0  0  0  0  0  0  0  0  0  0  0  0
  1  2  1  0
  2  3  2  0
  3  4  1  0
  4  5  2  0
  5  6  1  0
  6  7  1  0
  7  8  2  0
  7  9  1  0
  9 10  1  0
 10 11  2  0
 11 12  1  0
 12 13  2  0
 13 14  1  0
 14 15  2  0
 13 16  1  0
 16 17  2  0
 17 18  1  0
 18 19  2  0
 19 20  1  0
 20 21  1  0
 21 22  1  0
 22 23  1  0
 23 24  1  0
 24 25  1  0
 25 26  1  0
 25 27  1  0
 27 28  1  0
 20 29  2  0
 15  2  1  0
 29 16  1  0
  9  4  1  0
 15 10  1  0
 28 22  1  0
  1 30  1  0
  1 31  1  0
  1 32  1  0
  3 33  1  0
  6 34  1  0
 11 35  1  0
 12 36  1  0
 14 37  1  0
 17 38  1  0
 19 39  1  0
 21 40  1  0
 22 41  1  6
 23 42  1  0
 23 43  1  0
 24 44  1  0
 24 45  1  0
 25 46  1  1
 26 47  1  0
 27 48  1  0
 27 49  1  0
 28 50  1  0
 28 51  1  0
 29 52  1  0
M  END
$$$$
[H]c1nc(N([H])c2c([H])c([H])c3c(c2[H])C([H])([H])N(c2c([H])c([H])c(C(F)(F)F)c([H])c2[H])C(=O)C([H])([H])C3([H])[H])nc([H])c1N=C(N([H])[H])N([H])[H]
     RDKit          3D

 53 56  0  0  0  0  0  0  0  0999 V2000
    9.1308    0.9785    1.8263 N   0  0  0  0  0  0  0  0  0  0  0  0
    8.5176   -0.2326    1.3589 C   0  0  0  0  0  0  0  0  0  0  0  0
    9.4373   -1.3661    1.1694 N   0  0  0  0  0  0  0  0  0  0  0  0
    7.3590   -0.4706    1.1108 N   0  0  0  0  0  0  0  0  0  0  0  0
    6.0893   -0.1033    1.0356 C   0  0  0  0  0  0  0  0  0  0  0  0
    5.3922   -0.0506   -0.2073 C   0  0  0  0  0  0  0  0  0  0  0  0
    4.1183    0.2743   -0.2567 N   0  0  0  0  0  0  0  0  0  0  0  0
    3.3733    0.5782    0.7990 C   0  0  0  0  0  0  0  0  0  0  0  0
    1.9843    0.7368    0.7944 N   0  0  0  0  0  0  0  0  0  0  0  0
    1.0884    0.4864   -0.2783 C   0  0  0  0  0  0  0  0  0  0  0  0
    1.4211   -0.2825   -1.3785 C   0  0  0  0  0  0  0  0  0  0  0  0
    0.4832   -0.5625   -2.3752 C   0  0  0  0  0  0  0  0  0  0  0  0
   -0.8137   -0.0829   -2.2993 C   0  0  0  0  0  0  0  0  0  0  0  0
   -1.5534   -0.5557   -3.4573 C   0  0  0  0  0  0  0  0  0  0  0  0
   -3.0166   -0.4678   -3.4693 C   0  0  0  0  0  0  0  0  0  0  0  0
   -3.5569   -0.7051   -2.1079 C   0  0  0  0  0  0  0  0  0  0  0  0
   -4.1107   -1.8319   -1.8632 O   0  0  0  0  0  0  0  0  0  0  0  0
   -3.5074    0.2408   -1.0217 N   0  0  0  0  0  0  0  0  0  0  0  0
   -2.4785    1.2527   -0.8962 C   0  0  0  0  0  0  0  0  0  0  0  0
   -1.1377    0.6757   -1.2120 C   0  0  0  0  0  0  0  0  0  0  0  0
   -0.2086    0.9497   -0.2338 C   0  0  0  0  0  0  0  0  0  0  0  0
   -4.5261    0.1162   -0.0850 C   0  0  0  0  0  0  0  0  0  0  0  0
   -5.8187   -0.2160   -0.5017 C   0  0  0  0  0  0  0  0  0  0  0  0
   -6.8020   -0.3329    0.4394 C   0  0  0  0  0  0  0  0  0  0  0  0
   -6.5890   -0.1366    1.7990 C   0  0  0  0  0  0  0  0  0  0  0  0
   -5.2994    0.1886    2.1588 C   0  0  0  0  0  0  0  0  0  0  0  0
   -4.2475    0.3231    1.2640 C   0  0  0  0  0  0  0  0  0  0  0  0
   -7.7038   -0.2537    2.7739 C   0  0  0  0  0  0  0  0  0  0  0  0
   -7.3661   -1.2104    3.7006 F   0  0  0  0  0  0  0  0  0  0  0  0
   -8.8336   -0.6426    2.0838 F   0  0  0  0  0  0  0  0  0  0  0  0
   -7.9029    0.9180    3.4792 F   0  0  0  0  0  0  0  0  0  0  0  0
    4.0230    0.5410    1.9902 N   0  0  0  0  0  0  0  0  0  0  0  0
    5.3021    0.2235    2.1473 C   0  0  0  0  0  0  0  0  0  0  0  0
    9.8533    0.9180    2.5692 H   0  0  0  0  0  0  0  0  0  0  0  0
    8.8755    1.9172    1.4252 H   0  0  0  0  0  0  0  0  0  0  0  0
    9.2224   -2.2106    1.6967 H   0  0  0  0  0  0  0  0  0  0  0  0
   10.2338   -1.2617    0.5326 H   0  0  0  0  0  0  0  0  0  0  0  0
    6.0176   -0.3073   -1.0687 H   0  0  0  0  0  0  0  0  0  0  0  0
    1.5446    1.0880    1.7031 H   0  0  0  0  0  0  0  0  0  0  0  0
    2.4157   -0.7141   -1.4921 H   0  0  0  0  0  0  0  0  0  0  0  0
    0.8261   -1.1636   -3.2018 H   0  0  0  0  0  0  0  0  0  0  0  0
   -1.1120   -0.0557   -4.3773 H   0  0  0  0  0  0  0  0  0  0  0  0
   -1.2918   -1.6581   -3.6416 H   0  0  0  0  0  0  0  0  0  0  0  0
   -3.4358    0.4381   -3.9500 H   0  0  0  0  0  0  0  0  0  0  0  0
   -3.4158   -1.3151   -4.0911 H   0  0  0  0  0  0  0  0  0  0  0  0
   -2.4433    1.5748    0.1554 H   0  0  0  0  0  0  0  0  0  0  0  0
   -2.7159    2.0708   -1.6201 H   0  0  0  0  0  0  0  0  0  0  0  0
   -0.4724    1.5583    0.6192 H   0  0  0  0  0  0  0  0  0  0  0  0
   -6.0019   -0.3749   -1.5744 H   0  0  0  0  0  0  0  0  0  0  0  0
   -7.8106   -0.6038    0.0823 H   0  0  0  0  0  0  0  0  0  0  0  0
   -5.0961    0.3513    3.2195 H   0  0  0  0  0  0  0  0  0  0  0  0
   -3.2449    0.5701    1.6200 H   0  0  0  0  0  0  0  0  0  0  0  0
    5.8045    0.1987    3.1069 H   0  0  0  0  0  0  0  0  0  0  0  0
  1  2  1  0
  2  3  1  0
  2  4  2  3
  4  5  1  0
  5  6  2  0
  6  7  1  0
  7  8  2  0
  8  9  1  0
  9 10  1  0
 10 11  2  0
 11 12  1  0
 12 13  2  0
 13 14  1  0
 14 15  1  0
 15 16  1  0
 16 17  2  0
 16 18  1  0
 18 19  1  0
 19 20  1  0
 20 21  2  0
 18 22  1  0
 22 23  2  0
 23 24  1  0
 24 25  2  0
 25 26  1  0
 26 27  2  0
 25 28  1  0
 28 29  1  0
 28 30  1  0
 28 31  1  0
  8 32  1  0
 32 33  2  0
 33  5  1  0
 21 10  1  0
 27 22  1  0
 20 13  1  0
  1 34  1  0
  1 35  1  0
  3 36  1  0
  3 37  1  0
  6 38  1  0
  9 39  1  0
 11 40  1  0
 12 41  1  0
 14 42  1  0
 14 43  1  0
 15 44  1  0
 15 45  1  0
 19 46  1  0
 19 47  1  0
 21 48  1  0
 23 49  1  0
 24 50  1  0
 26 51  1  0
 27 52  1  0
 33 53  1  0
M  END
$$$$
[H]c1c([H])c([H])c(-c2nc(-c3c([H])c([H])c(F)c(C(=O)N([H])[H])c3[H])n3c2C([H])([H])C([H])([H])O[C@]([H])(C([H])([H])[H])C3([H])[H])c(C#N)c1[H]
     RDKit          3D

 48 51  0  0  0  0  0  0  0  0999 V2000
    0.8882    4.0976   -0.7257 C   0  0  0  0  0  0  0  0  0  0  0  0
   -0.0632    2.9303   -0.8218 C   0  0  2  0  0  0  0  0  0  0  0  0
    0.7559    1.6488   -0.8579 C   0  0  0  0  0  0  0  0  0  0  0  0
   -0.0097    0.5298   -0.3491 N   0  0  0  0  0  0  0  0  0  0  0  0
   -1.3590    0.4210   -0.4616 C   0  0  0  0  0  0  0  0  0  0  0  0
   -2.2593    1.2921   -1.2498 C   0  0  0  0  0  0  0  0  0  0  0  0
   -1.4520    1.9557   -2.3801 C   0  0  0  0  0  0  0  0  0  0  0  0
   -0.9016    3.1090   -1.8724 O   0  0  0  0  0  0  0  0  0  0  0  0
   -1.7383   -0.7019    0.2145 C   0  0  0  0  0  0  0  0  0  0  0  0
   -0.5903   -1.2224    0.6976 N   0  0  0  0  0  0  0  0  0  0  0  0
    0.4752   -0.4822    0.3603 C   0  0  0  0  0  0  0  0  0  0  0  0
    1.8270   -0.8176    0.7772 C   0  0  0  0  0  0  0  0  0  0  0  0
    2.0207   -1.7355    1.8206 C   0  0  0  0  0  0  0  0  0  0  0  0
    3.2403   -2.1646    2.2573 C   0  0  0  0  0  0  0  0  0  0  0  0
    4.3748   -1.6761    1.6460 C   0  0  0  0  0  0  0  0  0  0  0  0
    5.5781   -2.1082    2.0881 F   0  0  0  0  0  0  0  0  0  0  0  0
    4.2443   -0.7755    0.6184 C   0  0  0  0  0  0  0  0  0  0  0  0
    2.9795   -0.3592    0.1973 C   0  0  0  0  0  0  0  0  0  0  0  0
    5.4403   -0.2540   -0.0355 C   0  0  0  0  0  0  0  0  0  0  0  0
    5.3723    0.6773   -1.0918 N   0  0  0  0  0  0  0  0  0  0  0  0
    6.5753   -0.6250    0.3294 O   0  0  0  0  0  0  0  0  0  0  0  0
   -3.0640   -1.3285    0.4140 C   0  0  0  0  0  0  0  0  0  0  0  0
   -4.2417   -0.6501    0.2560 C   0  0  0  0  0  0  0  0  0  0  0  0
   -5.4727   -1.2649    0.5279 C   0  0  0  0  0  0  0  0  0  0  0  0
   -5.5434   -2.5589    0.9606 C   0  0  0  0  0  0  0  0  0  0  0  0
   -4.3722   -3.2447    1.1228 C   0  0  0  0  0  0  0  0  0  0  0  0
   -3.1372   -2.6348    0.8513 C   0  0  0  0  0  0  0  0  0  0  0  0
   -1.9683   -3.4553    1.0442 C   0  0  0  0  0  0  0  0  0  0  0  0
   -1.0324   -4.1526    1.2042 N   0  0  0  0  0  0  0  0  0  0  0  0
    0.3154    5.0475   -0.6331 H   0  0  0  0  0  0  0  0  0  0  0  0
    1.5591    4.0377    0.1557 H   0  0  0  0  0  0  0  0  0  0  0  0
    1.4763    4.2096   -1.6759 H   0  0  0  0  0  0  0  0  0  0  0  0
   -0.6531    2.8990    0.1161 H   0  0  0  0  0  0  0  0  0  0  0  0
    1.5265    1.8474   -0.0450 H   0  0  0  0  0  0  0  0  0  0  0  0
    1.2918    1.4717   -1.7744 H   0  0  0  0  0  0  0  0  0  0  0  0
   -3.0081    0.6797   -1.8270 H   0  0  0  0  0  0  0  0  0  0  0  0
   -2.6930    2.0667   -0.6326 H   0  0  0  0  0  0  0  0  0  0  0  0
   -0.7670    1.2595   -2.8522 H   0  0  0  0  0  0  0  0  0  0  0  0
   -2.2014    2.2695   -3.1371 H   0  0  0  0  0  0  0  0  0  0  0  0
    1.1315   -2.1115    2.2930 H   0  0  0  0  0  0  0  0  0  0  0  0
    3.3754   -2.8718    3.0639 H   0  0  0  0  0  0  0  0  0  0  0  0
    2.9965    0.3192   -0.6335 H   0  0  0  0  0  0  0  0  0  0  0  0
    5.7229    1.6365   -0.9433 H   0  0  0  0  0  0  0  0  0  0  0  0
    4.9774    0.4000   -1.9976 H   0  0  0  0  0  0  0  0  0  0  0  0
   -4.2982    0.3965   -0.0483 H   0  0  0  0  0  0  0  0  0  0  0  0
   -6.3845   -0.6911    0.3884 H   0  0  0  0  0  0  0  0  0  0  0  0
   -6.5083   -3.0485    1.1759 H   0  0  0  0  0  0  0  0  0  0  0  0
   -4.4257   -4.2670    1.4649 H   0  0  0  0  0  0  0  0  0  0  0  0
  1  2  1  0
  2  3  1  0
  3  4  1  0
  4  5  1  0
  5  6  1  0
  6  7  1  0
  7  8  1  0
  5  9  2  0
  9 10  1  0
 10 11  2  0
 11 12  1  0
 12 13  2  0
 13 14  1  0
 14 15  2  0
 15 16  1  0
 15 17  1  0
 17 18  2  0
 17 19  1  0
 19 20  1  0
 19 21  2  0
  9 22  1  0
 22 23  2  0
 23 24  1  0
 24 25  2  0
 25 26  1  0
 26 27  2  0
 27 28  1  0
 28 29  3  0
  8  2  1  0
 18 12  1  0
 27 22  1  0
 11  4  1  0
  1 30  1  0
  1 31  1  0
  1 32  1  0
  2 33  1  1
  3 34  1  0
  3 35  1  0
  6 36  1  0
  6 37  1  0
  7 38  1  0
  7 39  1  0
 13 40  1  0
 14 41  1  0
 18 42  1  0
 20 43  1  0
 20 44  1  0
 23 45  1  0
 24 46  1  0
 25 47  1  0
 26 48  1  0
M  END
$$$$
[H]O[C@]1([H])C([H])([H])C([H])([H])C([H])([H])C([H])([H])[C@]1([H])C(=O)N(C([H])([H])[H])C([H])([H])[C@@]1([H])C(=O)O[C@]([H])(C([H])([H])[H])C([H])([H])C([H])([H])N(c2nc(C([H])([H])[H])c([H])c(-c3c([H])c([H])c([H])c([H])c3[H])c2[H])C([H])([H])[C@]1([H])C([H])([H])[H]
     RDKit          3D

 78 81  0  0  0  0  0  0  0  0999 V2000
   -0.4354    2.3213   -0.3345 C   0  0  0  0  0  0  0  0  0  0  0  0
   -0.4129    0.9292    0.1995 C   0  0  1  0  0  0  0  0  0  0  0  0
   -1.4851    0.0514   -0.4614 C   0  0  0  0  0  0  0  0  0  0  0  0
   -2.2442   -0.7139    0.4845 N   0  0  0  0  0  0  0  0  0  0  0  0
   -1.5505   -1.5512    1.4937 C   0  0  0  0  0  0  0  0  0  0  0  0
   -0.6818   -2.5995    0.8951 C   0  0  0  0  0  0  0  0  0  0  0  0
    0.6523   -2.7913    1.5847 C   0  0  1  0  0  0  0  0  0  0  0  0
    1.3485   -3.9850    0.9125 C   0  0  0  0  0  0  0  0  0  0  0  0
    1.5113   -1.7136    1.4807 O   0  0  0  0  0  0  0  0  0  0  0  0
    1.3067   -0.3856    1.3491 C   0  0  0  0  0  0  0  0  0  0  0  0
    1.4154    0.3896    2.3667 O   0  0  0  0  0  0  0  0  0  0  0  0
    0.9508    0.2702    0.0765 C   0  0  2  0  0  0  0  0  0  0  0  0
    1.9658    1.1508   -0.5483 C   0  0  0  0  0  0  0  0  0  0  0  0
    3.2632    0.5631   -0.7100 N   0  0  0  0  0  0  0  0  0  0  0  0
    3.5046   -0.2504   -1.9116 C   0  0  0  0  0  0  0  0  0  0  0  0
    4.3276    0.7108    0.2077 C   0  0  0  0  0  0  0  0  0  0  0  0
    4.2742    1.4038    1.2555 O   0  0  0  0  0  0  0  0  0  0  0  0
    5.6324    0.0153   -0.0378 C   0  0  1  0  0  0  0  0  0  0  0  0
    6.3026    0.4961   -1.2946 C   0  0  0  0  0  0  0  0  0  0  0  0
    7.6904    1.0586   -0.9815 C   0  0  0  0  0  0  0  0  0  0  0  0
    7.4558    2.1582    0.0623 C   0  0  0  0  0  0  0  0  0  0  0  0
    7.0989    1.5002    1.3746 C   0  0  0  0  0  0  0  0  0  0  0  0
    6.4910    0.1335    1.1748 C   0  0  1  0  0  0  0  0  0  0  0  0
    5.7207   -0.1530    2.3006 O   0  0  0  0  0  0  0  0  0  0  0  0
   -3.6573   -0.6825    0.4807 C   0  0  0  0  0  0  0  0  0  0  0  0
   -4.4202    0.1076   -0.2988 C   0  0  0  0  0  0  0  0  0  0  0  0
   -5.8296    0.0859   -0.2517 C   0  0  0  0  0  0  0  0  0  0  0  0
   -6.4226   -0.7834    0.6313 C   0  0  0  0  0  0  0  0  0  0  0  0
   -5.6432   -1.5906    1.4275 C   0  0  0  0  0  0  0  0  0  0  0  0
   -6.2980   -2.5238    2.3768 C   0  0  0  0  0  0  0  0  0  0  0  0
   -4.3084   -1.5260    1.3390 N   0  0  0  0  0  0  0  0  0  0  0  0
   -6.5969    0.9574   -1.1075 C   0  0  0  0  0  0  0  0  0  0  0  0
   -6.1013    1.3057   -2.3671 C   0  0  0  0  0  0  0  0  0  0  0  0
   -6.8723    2.1478   -3.1579 C   0  0  0  0  0  0  0  0  0  0  0  0
   -8.0911    2.6294   -2.7199 C   0  0  0  0  0  0  0  0  0  0  0  0
   -8.5849    2.2894   -1.4794 C   0  0  0  0  0  0  0  0  0  0  0  0
   -7.8188    1.4592   -0.7066 C   0  0  0  0  0  0  0  0  0  0  0  0
   -1.4874    2.6878   -0.2480 H   0  0  0  0  0  0  0  0  0  0  0  0
   -0.1590    2.4097   -1.3932 H   0  0  0  0  0  0  0  0  0  0  0  0
    0.1580    2.9625    0.3489 H   0  0  0  0  0  0  0  0  0  0  0  0
   -0.6632    0.9679    1.2775 H   0  0  0  0  0  0  0  0  0  0  0  0
   -0.9181   -0.6602   -1.1246 H   0  0  0  0  0  0  0  0  0  0  0  0
   -2.0721    0.7184   -1.0765 H   0  0  0  0  0  0  0  0  0  0  0  0
   -1.1055   -0.9361    2.2854 H   0  0  0  0  0  0  0  0  0  0  0  0
   -2.3814   -2.1113    2.0327 H   0  0  0  0  0  0  0  0  0  0  0  0
   -0.5668   -2.4038   -0.1874 H   0  0  0  0  0  0  0  0  0  0  0  0
   -1.2143   -3.6177    0.8993 H   0  0  0  0  0  0  0  0  0  0  0  0
    0.4780   -3.1344    2.6293 H   0  0  0  0  0  0  0  0  0  0  0  0
    1.8931   -4.6047    1.6277 H   0  0  0  0  0  0  0  0  0  0  0  0
    0.6200   -4.6251    0.3792 H   0  0  0  0  0  0  0  0  0  0  0  0
    2.0841   -3.6302    0.1530 H   0  0  0  0  0  0  0  0  0  0  0  0
    0.8045   -0.5796   -0.6664 H   0  0  0  0  0  0  0  0  0  0  0  0
    1.6079    1.4075   -1.5703 H   0  0  0  0  0  0  0  0  0  0  0  0
    2.0438    2.1062    0.0310 H   0  0  0  0  0  0  0  0  0  0  0  0
    4.1895   -1.0788   -1.7471 H   0  0  0  0  0  0  0  0  0  0  0  0
    2.4928   -0.6546   -2.2063 H   0  0  0  0  0  0  0  0  0  0  0  0
    3.8462    0.3427   -2.7662 H   0  0  0  0  0  0  0  0  0  0  0  0
    5.4453   -1.0928   -0.1727 H   0  0  0  0  0  0  0  0  0  0  0  0
    6.4176   -0.2813   -2.0731 H   0  0  0  0  0  0  0  0  0  0  0  0
    5.7176    1.3674   -1.6959 H   0  0  0  0  0  0  0  0  0  0  0  0
    8.1140    1.5177   -1.8854 H   0  0  0  0  0  0  0  0  0  0  0  0
    8.3100    0.2997   -0.5055 H   0  0  0  0  0  0  0  0  0  0  0  0
    6.5819    2.7724   -0.2553 H   0  0  0  0  0  0  0  0  0  0  0  0
    8.3269    2.8279    0.1424 H   0  0  0  0  0  0  0  0  0  0  0  0
    6.4887    2.1275    2.0408 H   0  0  0  0  0  0  0  0  0  0  0  0
    8.0814    1.3382    1.9076 H   0  0  0  0  0  0  0  0  0  0  0  0
    7.2897   -0.6604    1.1651 H   0  0  0  0  0  0  0  0  0  0  0  0
    5.0777   -0.8848    2.1417 H   0  0  0  0  0  0  0  0  0  0  0  0
   -3.9582    0.7955   -0.9953 H   0  0  0  0  0  0  0  0  0  0  0  0
   -7.5194   -0.8515    0.7190 H   0  0  0  0  0  0  0  0  0  0  0  0
   -6.6014   -1.9446    3.2891 H   0  0  0  0  0  0  0  0  0  0  0  0
   -7.2028   -2.9204    1.8822 H   0  0  0  0  0  0  0  0  0  0  0  0
   -5.6129   -3.3521    2.6656 H   0  0  0  0  0  0  0  0  0  0  0  0
   -5.1459    0.9220   -2.6984 H   0  0  0  0  0  0  0  0  0  0  0  0
   -6.5068    2.4273   -4.1313 H   0  0  0  0  0  0  0  0  0  0  0  0
   -8.6893    3.2876   -3.3436 H   0  0  0  0  0  0  0  0  0  0  0  0
   -9.5456    2.6875   -1.1700 H   0  0  0  0  0  0  0  0  0  0  0  0
   -8.1764    1.1659    0.2857 H   0  0  0  0  0  0  0  0  0  0  0  0
  1  2  1  0
  2  3  1  0
  3  4  1  0
  4  5  1  0
  5  6  1  0
  6  7  1  0
  7  8  1  0
  7  9  1  0
  9 10  1  0
 10 11  2  0
 10 12  1  0
 12 13  1  0
 13 14  1  0
 14 15  1  0
 14 16  1  0
 16 17  2  0
 16 18  1  0
 18 19  1  0
 19 20  1  0
 20 21  1  0
 21 22  1  0
 22 23  1  0
 23 24  1  0
  4 25  1  0
 25 26  2  0
 26 27  1  0
 27 28  2  0
 28 29  1  0
 29 30  1  0
 29 31  2  0
 27 32  1  0
 32 33  2  0
 33 34  1  0
 34 35  2  0
 35 36  1  0
 36 37  2  0
 12  2  1  0
 23 18  1  0
 31 25  1  0
 37 32  1  0
  1 38  1  0
  1 39  1  0
  1 40  1  0
  2 41  1  1
  3 42  1  0
  3 43  1  0
  5 44  1  0
  5 45  1  0
  6 46  1  0
  6 47  1  0
  7 48  1  1
  8 49  1  0
  8 50  1  0
  8 51  1  0
 12 52  1  6
 13 53  1  0
 13 54  1  0
 15 55  1  0
 15 56  1  0
 15 57  1  0
 18 58  1  6
 19 59  1  0
 19 60  1  0
 20 61  1  0
 20 62  1  0
 21 63  1  0
 21 64  1  0
 22 65  1  0
 22 66  1  0
 23 67  1  6
 24 68  1  0
 26 69  1  0
 28 70  1  0
 30 71  1  0
 30 72  1  0
 30 73  1  0
 33 74  1  0
 34 75  1  0
 35 76  1  0
 36 77  1  0
 37 78  1  0
M  END
$$$$
[H]c1c([H])c(C([H])([H])[H])c(N2C([H])([H])C([H])([H])N(C([H])([H])[H])C([H])([H])C2([H])[H])c([H])c1C(=O)N([H])c1c([H])c([H])c(C([H])([H])N2C([H])([H])C([H])([H])N(C([H])([H])C([H])([H])[H])C([H])([H])C2([H])[H])c(C(F)(F)F)c1[H]
     RDKit          3D

 72 75  0  0  0  0  0  0  0  0999 V2000
    9.9347    2.1475   -0.3610 C   0  0  0  0  0  0  0  0  0  0  0  0
    8.6018    2.2074    0.3570 C   0  0  0  0  0  0  0  0  0  0  0  0
    7.5303    1.7362   -0.5009 N   0  0  0  0  0  0  0  0  0  0  0  0
    7.7150    0.3147   -0.6975 C   0  0  0  0  0  0  0  0  0  0  0  0
    6.8791   -0.3648    0.3671 C   0  0  0  0  0  0  0  0  0  0  0  0
    5.4824   -0.3116   -0.1111 N   0  0  0  0  0  0  0  0  0  0  0  0
    4.6331   -0.7867    0.9724 C   0  0  0  0  0  0  0  0  0  0  0  0
    3.2467   -0.9489    0.6148 C   0  0  0  0  0  0  0  0  0  0  0  0
    2.7880   -0.7595   -0.6559 C   0  0  0  0  0  0  0  0  0  0  0  0
    1.4421   -0.9404   -1.0251 C   0  0  0  0  0  0  0  0  0  0  0  0
    0.5324   -1.3261   -0.0763 C   0  0  0  0  0  0  0  0  0  0  0  0
   -0.8331   -1.5391   -0.2969 N   0  0  0  0  0  0  0  0  0  0  0  0
   -1.5748   -1.3555   -1.4730 C   0  0  0  0  0  0  0  0  0  0  0  0
   -1.0714   -0.9529   -2.5358 O   0  0  0  0  0  0  0  0  0  0  0  0
   -3.0253   -1.6371   -1.5121 C   0  0  0  0  0  0  0  0  0  0  0  0
   -3.4549   -2.8570   -1.9811 C   0  0  0  0  0  0  0  0  0  0  0  0
   -4.7978   -3.1759   -2.0473 C   0  0  0  0  0  0  0  0  0  0  0  0
   -5.7499   -2.2501   -1.6335 C   0  0  0  0  0  0  0  0  0  0  0  0
   -7.1875   -2.5959   -1.7081 C   0  0  0  0  0  0  0  0  0  0  0  0
   -5.3318   -1.0298   -1.1644 C   0  0  0  0  0  0  0  0  0  0  0  0
   -3.9657   -0.7302   -1.1061 C   0  0  0  0  0  0  0  0  0  0  0  0
   -6.3105   -0.0654   -0.7381 N   0  0  0  0  0  0  0  0  0  0  0  0
   -7.2198   -0.3169    0.3411 C   0  0  0  0  0  0  0  0  0  0  0  0
   -7.3971    0.8643    1.2737 C   0  0  0  0  0  0  0  0  0  0  0  0
   -7.5535    2.1023    0.5343 N   0  0  0  0  0  0  0  0  0  0  0  0
   -7.5266    3.1981    1.4815 C   0  0  0  0  0  0  0  0  0  0  0  0
   -6.4673    2.3019   -0.4067 C   0  0  0  0  0  0  0  0  0  0  0  0
   -6.3843    1.2087   -1.4218 C   0  0  0  0  0  0  0  0  0  0  0  0
    1.0173   -1.5140    1.2054 C   0  0  0  0  0  0  0  0  0  0  0  0
    2.3291   -1.3415    1.5830 C   0  0  0  0  0  0  0  0  0  0  0  0
    2.7594   -1.5630    2.9677 C   0  0  0  0  0  0  0  0  0  0  0  0
    3.7076   -2.5420    3.1348 F   0  0  0  0  0  0  0  0  0  0  0  0
    1.6453   -2.0079    3.7032 F   0  0  0  0  0  0  0  0  0  0  0  0
    3.1169   -0.3745    3.6113 F   0  0  0  0  0  0  0  0  0  0  0  0
    5.1672    1.0887   -0.4206 C   0  0  0  0  0  0  0  0  0  0  0  0
    6.2339    2.0379    0.0705 C   0  0  0  0  0  0  0  0  0  0  0  0
    9.6915    2.1382   -1.4583 H   0  0  0  0  0  0  0  0  0  0  0  0
   10.5160    3.0379   -0.0690 H   0  0  0  0  0  0  0  0  0  0  0  0
   10.4630    1.1919   -0.1734 H   0  0  0  0  0  0  0  0  0  0  0  0
    8.7104    1.5564    1.2596 H   0  0  0  0  0  0  0  0  0  0  0  0
    8.3893    3.2346    0.7301 H   0  0  0  0  0  0  0  0  0  0  0  0
    7.3520   -0.0192   -1.6913 H   0  0  0  0  0  0  0  0  0  0  0  0
    8.7800    0.0858   -0.5820 H   0  0  0  0  0  0  0  0  0  0  0  0
    7.1626   -1.4111    0.4574 H   0  0  0  0  0  0  0  0  0  0  0  0
    6.8945    0.1637    1.3282 H   0  0  0  0  0  0  0  0  0  0  0  0
    4.7471   -0.0039    1.7790 H   0  0  0  0  0  0  0  0  0  0  0  0
    5.1557   -1.6777    1.3715 H   0  0  0  0  0  0  0  0  0  0  0  0
    3.4192   -0.4754   -1.4734 H   0  0  0  0  0  0  0  0  0  0  0  0
    1.1405   -0.7803   -2.0379 H   0  0  0  0  0  0  0  0  0  0  0  0
   -1.4308   -1.8974    0.5357 H   0  0  0  0  0  0  0  0  0  0  0  0
   -2.7014   -3.5794   -2.3034 H   0  0  0  0  0  0  0  0  0  0  0  0
   -5.1414   -4.1292   -2.4147 H   0  0  0  0  0  0  0  0  0  0  0  0
   -7.3496   -3.4851   -2.3633 H   0  0  0  0  0  0  0  0  0  0  0  0
   -7.7939   -1.7708   -2.1121 H   0  0  0  0  0  0  0  0  0  0  0  0
   -7.6126   -2.8712   -0.7186 H   0  0  0  0  0  0  0  0  0  0  0  0
   -3.6442    0.2231   -0.7403 H   0  0  0  0  0  0  0  0  0  0  0  0
   -6.8080   -1.1633    0.9476 H   0  0  0  0  0  0  0  0  0  0  0  0
   -8.1987   -0.6551   -0.0316 H   0  0  0  0  0  0  0  0  0  0  0  0
   -8.3427    0.6775    1.8271 H   0  0  0  0  0  0  0  0  0  0  0  0
   -6.5525    0.9575    1.9519 H   0  0  0  0  0  0  0  0  0  0  0  0
   -6.8668    3.0092    2.3551 H   0  0  0  0  0  0  0  0  0  0  0  0
   -8.5651    3.4078    1.8703 H   0  0  0  0  0  0  0  0  0  0  0  0
   -7.1679    4.1582    1.0299 H   0  0  0  0  0  0  0  0  0  0  0  0
   -6.7487    3.2423   -0.9677 H   0  0  0  0  0  0  0  0  0  0  0  0
   -5.4970    2.4614    0.0644 H   0  0  0  0  0  0  0  0  0  0  0  0
   -5.4674    1.3590   -2.0217 H   0  0  0  0  0  0  0  0  0  0  0  0
   -7.3034    1.2082   -2.0669 H   0  0  0  0  0  0  0  0  0  0  0  0
    0.3285   -1.8193    1.9731 H   0  0  0  0  0  0  0  0  0  0  0  0
    5.0833    1.2059   -1.4968 H   0  0  0  0  0  0  0  0  0  0  0  0
    4.2231    1.3530    0.0796 H   0  0  0  0  0  0  0  0  0  0  0  0
    6.2801    2.1017    1.1762 H   0  0  0  0  0  0  0  0  0  0  0  0
    5.9445    3.0440   -0.2998 H   0  0  0  0  0  0  0  0  0  0  0  0
  1  2  1  0
  2  3  1  0
  3  4  1  0
  4  5  1  0
  5  6  1  0
  6  7  1  0
  7  8  1  0
  8  9  2  0
  9 10  1  0
 10 11  2  0
 11 12  1  0
 12 13  1  0
 13 14  2  0
 13 15  1  0
 15 16  2  0
 16 17  1  0
 17 18  2  0
 18 19  1  0
 18 20  1  0
 20 21  2  0
 20 22  1  0
 22 23  1  0
 23 24  1  0
 24 25  1  0
 25 26  1  0
 25 27  1  0
 27 28  1  0
 11 29  1  0
 29 30  2  0
 30 31  1  0
 31 32  1  0
 31 33  1  0
 31 34  1  0
  6 35  1  0
 35 36  1  0
 36  3  1  0
 30  8  1  0
 21 15  1  0
 28 22  1  0
  1 37  1  0
  1 38  1  0
  1 39  1  0
  2 40  1  0
  2 41  1  0
  4 42  1  0
  4 43  1  0
  5 44  1  0
  5 45  1  0
  7 46  1  0
  7 47  1  0
  9 48  1  0
 10 49  1  0
 12 50  1  0
 16 51  1  0
 17 52  1  0
 19 53  1  0
 19 54  1  0
 19 55  1  0
 21 56  1  0
 23 57  1  0
 23 58  1  0
 24 59  1  0
 24 60  1  0
 26 61  1  0
 26 62  1  0
 26 63  1  0
 27 64  1  0
 27 65  1  0
 28 66  1  0
 28 67  1  0
 29 68  1  0
 35 69  1  0
 35 70  1  0
 36 71  1  0
 36 72  1  0
M  END
$$$$
[H]c1nc2c(nc([H])n2-c2c([H])c(-c3c([H])c(OC([H])([H])[H])c(OC([H])([H])[H])c(OC([H])([H])[H])c3[H])c([H])c([H])c2OC([H])([H])[H])c([H])c1N([H])C(=O)N([H])C([H])([H])C([H])([H])[H]
     RDKit          3D

 62 65  0  0  0  0  0  0  0  0999 V2000
    9.3608   -1.0605    2.2144 C   0  0  0  0  0  0  0  0  0  0  0  0
    9.5123   -1.1623    0.6961 C   0  0  0  0  0  0  0  0  0  0  0  0
    8.2959   -1.6085    0.0667 N   0  0  0  0  0  0  0  0  0  0  0  0
    7.1116   -0.8004    0.2398 C   0  0  0  0  0  0  0  0  0  0  0  0
    7.1987    0.2453    0.9261 O   0  0  0  0  0  0  0  0  0  0  0  0
    5.8905   -1.1680   -0.3411 N   0  0  0  0  0  0  0  0  0  0  0  0
    4.6698   -0.4945   -0.2506 C   0  0  0  0  0  0  0  0  0  0  0  0
    3.6152   -0.8748   -1.1106 C   0  0  0  0  0  0  0  0  0  0  0  0
    2.4127   -0.2930   -1.0794 N   0  0  0  0  0  0  0  0  0  0  0  0
    2.1110    0.6948   -0.2326 C   0  0  0  0  0  0  0  0  0  0  0  0
    0.9777    1.4317   -0.0155 N   0  0  0  0  0  0  0  0  0  0  0  0
    1.2505    2.3093    0.9837 C   0  0  0  0  0  0  0  0  0  0  0  0
    2.5246    2.1075    1.3641 N   0  0  0  0  0  0  0  0  0  0  0  0
    3.0788    1.1237    0.6366 C   0  0  0  0  0  0  0  0  0  0  0  0
    4.3444    0.5165    0.6092 C   0  0  0  0  0  0  0  0  0  0  0  0
   -0.2349    1.2809   -0.7190 C   0  0  0  0  0  0  0  0  0  0  0  0
   -1.4027    0.9170   -0.0951 C   0  0  0  0  0  0  0  0  0  0  0  0
   -2.5941    0.7745   -0.8182 C   0  0  0  0  0  0  0  0  0  0  0  0
   -2.5883    1.0034   -2.1707 C   0  0  0  0  0  0  0  0  0  0  0  0
   -1.4440    1.3639   -2.8058 C   0  0  0  0  0  0  0  0  0  0  0  0
   -0.2641    1.5027   -2.0754 C   0  0  0  0  0  0  0  0  0  0  0  0
    0.8727    1.8656   -2.7344 O   0  0  0  0  0  0  0  0  0  0  0  0
    0.8463    2.0940   -4.1265 C   0  0  0  0  0  0  0  0  0  0  0  0
   -3.8057    0.3837   -0.0912 C   0  0  0  0  0  0  0  0  0  0  0  0
   -5.0598    0.8004   -0.4868 C   0  0  0  0  0  0  0  0  0  0  0  0
   -6.2050    0.4366    0.1924 C   0  0  0  0  0  0  0  0  0  0  0  0
   -7.4646    0.8529   -0.2018 O   0  0  0  0  0  0  0  0  0  0  0  0
   -7.5906    1.6807   -1.3404 C   0  0  0  0  0  0  0  0  0  0  0  0
   -6.1383   -0.3710    1.3114 C   0  0  0  0  0  0  0  0  0  0  0  0
   -7.2770   -0.7538    2.0162 O   0  0  0  0  0  0  0  0  0  0  0  0
   -7.9971   -1.9356    1.7005 C   0  0  0  0  0  0  0  0  0  0  0  0
   -4.8840   -0.7881    1.7075 C   0  0  0  0  0  0  0  0  0  0  0  0
   -4.8393   -1.6084    2.8475 O   0  0  0  0  0  0  0  0  0  0  0  0
   -3.5709   -2.0566    3.2849 C   0  0  0  0  0  0  0  0  0  0  0  0
   -3.7383   -0.4227    1.0260 C   0  0  0  0  0  0  0  0  0  0  0  0
   10.3344   -1.3042    2.6875 H   0  0  0  0  0  0  0  0  0  0  0  0
    8.6071   -1.8113    2.5135 H   0  0  0  0  0  0  0  0  0  0  0  0
    9.0432   -0.0673    2.5377 H   0  0  0  0  0  0  0  0  0  0  0  0
    9.7754   -0.1552    0.2981 H   0  0  0  0  0  0  0  0  0  0  0  0
   10.3751   -1.8132    0.4671 H   0  0  0  0  0  0  0  0  0  0  0  0
    8.2898   -2.4745   -0.4828 H   0  0  0  0  0  0  0  0  0  0  0  0
    5.9342   -2.0804   -0.9130 H   0  0  0  0  0  0  0  0  0  0  0  0
    3.8276   -1.6799   -1.8167 H   0  0  0  0  0  0  0  0  0  0  0  0
    0.5248    3.0200    1.3607 H   0  0  0  0  0  0  0  0  0  0  0  0
    5.0676    0.8817    1.3186 H   0  0  0  0  0  0  0  0  0  0  0  0
   -1.4439    0.7292    0.9670 H   0  0  0  0  0  0  0  0  0  0  0  0
   -3.5315    0.8817   -2.6908 H   0  0  0  0  0  0  0  0  0  0  0  0
   -1.4186    1.5473   -3.8624 H   0  0  0  0  0  0  0  0  0  0  0  0
    1.9118    2.2510   -4.4383 H   0  0  0  0  0  0  0  0  0  0  0  0
    0.5224    1.1731   -4.6559 H   0  0  0  0  0  0  0  0  0  0  0  0
    0.2142    2.9708   -4.4049 H   0  0  0  0  0  0  0  0  0  0  0  0
   -5.1117    1.4334   -1.3639 H   0  0  0  0  0  0  0  0  0  0  0  0
   -6.9798    1.2221   -2.1549 H   0  0  0  0  0  0  0  0  0  0  0  0
   -8.6576    1.7178   -1.6944 H   0  0  0  0  0  0  0  0  0  0  0  0
   -7.1903    2.6937   -1.1421 H   0  0  0  0  0  0  0  0  0  0  0  0
   -7.5582   -2.8284    2.1865 H   0  0  0  0  0  0  0  0  0  0  0  0
   -7.9703   -2.1281    0.5986 H   0  0  0  0  0  0  0  0  0  0  0  0
   -9.0846   -1.8173    1.9423 H   0  0  0  0  0  0  0  0  0  0  0  0
   -2.9309   -1.1869    3.6075 H   0  0  0  0  0  0  0  0  0  0  0  0
   -3.7268   -2.7568    4.1553 H   0  0  0  0  0  0  0  0  0  0  0  0
   -3.0242   -2.5631    2.4907 H   0  0  0  0  0  0  0  0  0  0  0  0
   -2.7738   -0.7650    1.3607 H   0  0  0  0  0  0  0  0  0  0  0  0
  1  2  1  0
  2  3  1  0
  3  4  1  0
  4  5  2  0
  4  6  1  0
  6  7  1  0
  7  8  2  0
  8  9  1  0
  9 10  2  0
 10 11  1  0
 11 12  1  0
 12 13  2  0
 13 14  1  0
 14 15  2  0
 11 16  1  0
 16 17  2  0
 17 18  1  0
 18 19  2  0
 19 20  1  0
 20 21  2  0
 21 22  1  0
 22 23  1  0
 18 24  1  0
 24 25  2  0
 25 26  1  0
 26 27  1  0
 27 28  1  0
 26 29  2  0
 29 30  1  0
 30 31  1  0
 29 32  1  0
 32 33  1  0
 33 34  1  0
 32 35  2  0
 15  7  1  0
 21 16  1  0
 35 24  1  0
 14 10  1  0
  1 36  1  0
  1 37  1  0
  1 38  1  0
  2 39  1  0
  2 40  1  0
  3 41  1  0
  6 42  1  0
  8 43  1  0
 12 44  1  0
 15 45  1  0
 17 46  1  0
 19 47  1  0
 20 48  1  0
 23 49  1  0
 23 50  1  0
 23 51  1  0
 25 52  1  0
 28 53  1  0
 28 54  1  0
 28 55  1  0
 31 56  1  0
 31 57  1  0
 31 58  1  0
 34 59  1  0
 34 60  1  0
 34 61  1  0
 35 62  1  0
M  END
$$$$
[H]OC(=O)C1([H])C([H])([H])N(C([H])([H])[C@@]2([H])Oc3c([H])c([H])c([N+](=O)[O-])c([H])c3C([H])([H])C2([H])[H])C([H])([H])C([H])([H])C1([H])[H]
     RDKit          3D

 43 45  0  0  0  0  0  0  0  0999 V2000
    7.1150    1.3250    1.5864 O   0  0  0  0  0  0  0  0  0  0  0  0
    6.5004    0.5318    0.6614 N   0  0  0  0  0  0  0  0  0  0  0  0
    7.1423   -0.2198   -0.0802 O   0  0  0  0  0  0  0  0  0  0  0  0
    5.0828    0.5696    0.5464 C   0  0  0  0  0  0  0  0  0  0  0  0
    4.3436    1.4077    1.3709 C   0  0  0  0  0  0  0  0  0  0  0  0
    2.9768    1.4024    1.2149 C   0  0  0  0  0  0  0  0  0  0  0  0
    2.3359    0.6086    0.2864 C   0  0  0  0  0  0  0  0  0  0  0  0
    0.9789    0.5792    0.1056 O   0  0  0  0  0  0  0  0  0  0  0  0
    0.2963    0.2192   -1.0710 C   0  0  2  0  0  0  0  0  0  0  0  0
   -0.6233   -0.9600   -0.8597 C   0  0  0  0  0  0  0  0  0  0  0  0
   -1.6384   -0.6920    0.1405 N   0  0  0  0  0  0  0  0  0  0  0  0
   -2.4526   -1.8637    0.2651 C   0  0  0  0  0  0  0  0  0  0  0  0
   -3.8538   -1.6900   -0.2672 C   0  0  0  0  0  0  0  0  0  0  0  0
   -4.5805   -0.5448    0.4048 C   0  0  0  0  0  0  0  0  0  0  0  0
   -3.5745    0.4797    0.8651 C   0  0  0  0  0  0  0  0  0  0  0  0
   -2.4386    0.4522   -0.1659 C   0  0  0  0  0  0  0  0  0  0  0  0
   -4.1376    1.8125    1.0350 C   0  0  0  0  0  0  0  0  0  0  0  0
   -3.3320    2.8515    1.4530 O   0  0  0  0  0  0  0  0  0  0  0  0
   -5.3461    2.0412    0.8091 O   0  0  0  0  0  0  0  0  0  0  0  0
    1.2802   -0.1739   -2.1455 C   0  0  0  0  0  0  0  0  0  0  0  0
    2.3277   -1.0647   -1.5246 C   0  0  0  0  0  0  0  0  0  0  0  0
    3.0816   -0.2300   -0.5380 C   0  0  0  0  0  0  0  0  0  0  0  0
    4.4426   -0.2402   -0.3992 C   0  0  0  0  0  0  0  0  0  0  0  0
    4.8615    2.0301    2.1005 H   0  0  0  0  0  0  0  0  0  0  0  0
    2.3919    2.0504    1.8510 H   0  0  0  0  0  0  0  0  0  0  0  0
   -0.2617    1.1290   -1.3880 H   0  0  0  0  0  0  0  0  0  0  0  0
   -1.1635   -1.2189   -1.7921 H   0  0  0  0  0  0  0  0  0  0  0  0
   -0.0216   -1.7961   -0.4752 H   0  0  0  0  0  0  0  0  0  0  0  0
   -2.5096   -2.1547    1.3326 H   0  0  0  0  0  0  0  0  0  0  0  0
   -2.0175   -2.7382   -0.2664 H   0  0  0  0  0  0  0  0  0  0  0  0
   -4.4120   -2.6158   -0.0117 H   0  0  0  0  0  0  0  0  0  0  0  0
   -3.8678   -1.6152   -1.3744 H   0  0  0  0  0  0  0  0  0  0  0  0
   -5.2332   -0.9009    1.2089 H   0  0  0  0  0  0  0  0  0  0  0  0
   -5.2272   -0.0658   -0.3650 H   0  0  0  0  0  0  0  0  0  0  0  0
   -3.1399    0.1104    1.8210 H   0  0  0  0  0  0  0  0  0  0  0  0
   -1.9044    1.4013   -0.1619 H   0  0  0  0  0  0  0  0  0  0  0  0
   -2.9177    0.3627   -1.1812 H   0  0  0  0  0  0  0  0  0  0  0  0
   -3.0466    3.6059    0.8234 H   0  0  0  0  0  0  0  0  0  0  0  0
    0.7652   -0.6593   -2.9960 H   0  0  0  0  0  0  0  0  0  0  0  0
    1.7997    0.7642   -2.4612 H   0  0  0  0  0  0  0  0  0  0  0  0
    1.9402   -1.9253   -0.9764 H   0  0  0  0  0  0  0  0  0  0  0  0
    3.0211   -1.4658   -2.3048 H   0  0  0  0  0  0  0  0  0  0  0  0
    5.0165   -0.8996   -1.0488 H   0  0  0  0  0  0  0  0  0  0  0  0
  1  2  1  0
  2  3  2  0
  2  4  1  0
  4  5  2  0
  5  6  1  0
  6  7  2  0
  7  8  1  0
  8  9  1  0
  9 10  1  0
 10 11  1  0
 11 12  1  0
 12 13  1  0
 13 14  1  0
 14 15  1  0
 15 16  1  0
 15 17  1  0
 17 18  1  0
 17 19  2  0
  9 20  1  0
 20 21  1  0
 21 22  1  0
 22 23  2  0
 23  4  1  0
 22  7  1  0
 16 11  1  0
  5 24  1  0
  6 25  1  0
  9 26  1  6
 10 27  1  0
 10 28  1  0
 12 29  1  0
 12 30  1  0
 13 31  1  0
 13 32  1  0
 14 33  1  0
 14 34  1  0
 15 35  1  0
 16 36  1  0
 16 37  1  0
 18 38  1  0
 20 39  1  0
 20 40  1  0
 21 41  1  0
 21 42  1  0
 23 43  1  0
M  CHG  2   1  -1   2   1
M  END
$$$$
[H]c1c(OC([H])([H])C(F)(F)F)c(C(F)(F)F)c2nnc(C([H])([H])C3([H])C([H])([H])OC([H])([H])C3([H])[H])n2c1[H]
     RDKit          3D

 38 40  0  0  0  0  0  0  0  0999 V2000
    3.5048   -2.7877    0.3797 F   0  0  0  0  0  0  0  0  0  0  0  0
    2.7905   -2.2944   -0.7061 C   0  0  0  0  0  0  0  0  0  0  0  0
    3.7127   -1.9929   -1.6821 F   0  0  0  0  0  0  0  0  0  0  0  0
    1.9192   -3.2844   -1.0865 F   0  0  0  0  0  0  0  0  0  0  0  0
    2.0228   -1.0975   -0.3304 C   0  0  0  0  0  0  0  0  0  0  0  0
    2.7164   -0.0107    0.1381 C   0  0  0  0  0  0  0  0  0  0  0  0
    4.0932   -0.0604    0.2457 O   0  0  0  0  0  0  0  0  0  0  0  0
    4.8942    0.9812    0.7071 C   0  0  0  0  0  0  0  0  0  0  0  0
    6.3452    0.4827    0.6543 C   0  0  0  0  0  0  0  0  0  0  0  0
    7.1262    1.5279    1.1155 F   0  0  0  0  0  0  0  0  0  0  0  0
    6.7295    0.2466   -0.6482 F   0  0  0  0  0  0  0  0  0  0  0  0
    6.4916   -0.6649    1.3716 F   0  0  0  0  0  0  0  0  0  0  0  0
    2.0171    1.1178    0.4944 C   0  0  0  0  0  0  0  0  0  0  0  0
    0.6260    1.1006    0.3606 C   0  0  0  0  0  0  0  0  0  0  0  0
   -0.0367    0.0282   -0.0997 N   0  0  0  0  0  0  0  0  0  0  0  0
   -1.3491   -0.1820   -0.2982 C   0  0  0  0  0  0  0  0  0  0  0  0
   -2.4737    0.7561   -0.0517 C   0  0  0  0  0  0  0  0  0  0  0  0
   -3.7747    0.0994   -0.4156 C   0  0  0  0  0  0  0  0  0  0  0  0
   -4.9271    1.0463   -0.1684 C   0  0  0  0  0  0  0  0  0  0  0  0
   -5.5860    0.4754    1.0449 C   0  0  0  0  0  0  0  0  0  0  0  0
   -5.4247   -0.8854    0.8916 O   0  0  0  0  0  0  0  0  0  0  0  0
   -4.1097   -1.0827    0.4527 C   0  0  0  0  0  0  0  0  0  0  0  0
   -1.4474   -1.4357   -0.7743 N   0  0  0  0  0  0  0  0  0  0  0  0
   -0.2647   -1.9941   -0.8741 N   0  0  0  0  0  0  0  0  0  0  0  0
    0.6292   -1.0813   -0.4521 C   0  0  0  0  0  0  0  0  0  0  0  0
    4.7498    1.8494    0.0593 H   0  0  0  0  0  0  0  0  0  0  0  0
    4.6666    1.2905    1.7445 H   0  0  0  0  0  0  0  0  0  0  0  0
    2.5471    1.9817    0.8649 H   0  0  0  0  0  0  0  0  0  0  0  0
    0.0645    1.9739    0.6345 H   0  0  0  0  0  0  0  0  0  0  0  0
   -2.4946    0.9605    1.0353 H   0  0  0  0  0  0  0  0  0  0  0  0
   -2.3860    1.6759   -0.6599 H   0  0  0  0  0  0  0  0  0  0  0  0
   -3.8055   -0.2065   -1.4874 H   0  0  0  0  0  0  0  0  0  0  0  0
   -4.5762    2.0768    0.0285 H   0  0  0  0  0  0  0  0  0  0  0  0
   -5.6490    1.0088   -1.0314 H   0  0  0  0  0  0  0  0  0  0  0  0
   -5.1307    0.8540    1.9775 H   0  0  0  0  0  0  0  0  0  0  0  0
   -6.6726    0.6831    1.0980 H   0  0  0  0  0  0  0  0  0  0  0  0
   -3.4843   -1.1206    1.3700 H   0  0  0  0  0  0  0  0  0  0  0  0
   -4.0540   -2.0357   -0.1042 H   0  0  0  0  0  0  0  0  0  0  0  0
  1  2  1  0
  2  3  1  0
  2  4  1  0
  2  5  1  0
  5  6  2  0
  6  7  1  0
  7  8  1  0
  8  9  1  0
  9 10  1  0
  9 11  1  0
  9 12  1  0
  6 13  1  0
 13 14  2  0
 14 15  1  0
 15 16  1  0
 16 17  1  0
 17 18  1  0
 18 19  1  0
 19 20  1  0
 20 21  1  0
 21 22  1  0
 16 23  2  0
 23 24  1  0
 24 25  2  0
 25  5  1  0
 25 15  1  0
 22 18  1  0
  8 26  1  0
  8 27  1  0
 13 28  1  0
 14 29  1  0
 17 30  1  0
 17 31  1  0
 18 32  1  0
 19 33  1  0
 19 34  1  0
 20 35  1  0
 20 36  1  0
 22 37  1  0
 22 38  1  0
M  END
$$$$
[H]c1c([H])c([H])c(C([H])([H])C([H])([H])[H])c(-c2c3c([H])c(C#N)c([H])c([H])c3nn2[H])c1[H]
     RDKit          3D

 32 34  0  0  0  0  0  0  0  0999 V2000
   -1.8518    2.0787    0.7420 C   0  0  0  0  0  0  0  0  0  0  0  0
   -1.8334    0.6228    1.0136 C   0  0  0  0  0  0  0  0  0  0  0  0
   -1.8140   -0.3141   -0.1034 C   0  0  0  0  0  0  0  0  0  0  0  0
   -2.9797   -0.3159   -0.8992 C   0  0  0  0  0  0  0  0  0  0  0  0
   -3.1245   -1.1304   -1.9992 C   0  0  0  0  0  0  0  0  0  0  0  0
   -2.1227   -1.9940   -2.3768 C   0  0  0  0  0  0  0  0  0  0  0  0
   -0.9910   -2.0052   -1.6186 C   0  0  0  0  0  0  0  0  0  0  0  0
   -0.8225   -1.1744   -0.4865 C   0  0  0  0  0  0  0  0  0  0  0  0
    0.4402   -1.2580    0.2094 C   0  0  0  0  0  0  0  0  0  0  0  0
    0.8352   -2.4171    0.7982 N   0  0  0  0  0  0  0  0  0  0  0  0
    2.0281   -2.2198    1.2829 N   0  0  0  0  0  0  0  0  0  0  0  0
    2.4751   -0.9597    1.0419 C   0  0  0  0  0  0  0  0  0  0  0  0
    3.6328   -0.2941    1.3317 C   0  0  0  0  0  0  0  0  0  0  0  0
    3.7789    1.0091    0.9247 C   0  0  0  0  0  0  0  0  0  0  0  0
    2.7566    1.6272    0.2291 C   0  0  0  0  0  0  0  0  0  0  0  0
    1.6016    0.9752   -0.0621 C   0  0  0  0  0  0  0  0  0  0  0  0
    1.4398   -0.3440    0.3472 C   0  0  0  0  0  0  0  0  0  0  0  0
    2.9354    2.9805   -0.1843 C   0  0  0  0  0  0  0  0  0  0  0  0
    3.0860    4.0849   -0.5476 N   0  0  0  0  0  0  0  0  0  0  0  0
   -0.9422    2.5270    0.3490 H   0  0  0  0  0  0  0  0  0  0  0  0
   -2.6703    2.3822    0.0310 H   0  0  0  0  0  0  0  0  0  0  0  0
   -2.1558    2.6002    1.6906 H   0  0  0  0  0  0  0  0  0  0  0  0
   -2.7305    0.4004    1.6763 H   0  0  0  0  0  0  0  0  0  0  0  0
   -0.9551    0.4212    1.6959 H   0  0  0  0  0  0  0  0  0  0  0  0
   -3.7786    0.3539   -0.6515 H   0  0  0  0  0  0  0  0  0  0  0  0
   -4.0453   -1.0750   -2.5842 H   0  0  0  0  0  0  0  0  0  0  0  0
   -2.2526   -2.6231   -3.2542 H   0  0  0  0  0  0  0  0  0  0  0  0
   -0.2041   -2.6963   -1.9102 H   0  0  0  0  0  0  0  0  0  0  0  0
    0.3001   -3.3354    0.8831 H   0  0  0  0  0  0  0  0  0  0  0  0
    4.4172   -0.8281    1.8784 H   0  0  0  0  0  0  0  0  0  0  0  0
    4.7137    1.4887    1.1673 H   0  0  0  0  0  0  0  0  0  0  0  0
    0.8333    1.4326   -0.6145 H   0  0  0  0  0  0  0  0  0  0  0  0
  1  2  1  0
  2  3  1  0
  3  4  2  0
  4  5  1  0
  5  6  2  0
  6  7  1  0
  7  8  2  0
  8  9  1  0
  9 10  1  0
 10 11  1  0
 11 12  2  0
 12 13  1  0
 13 14  2  0
 14 15  1  0
 15 16  2  0
 16 17  1  0
 15 18  1  0
 18 19  3  0
  8  3  1  0
 17  9  2  0
 17 12  1  0
  1 20  1  0
  1 21  1  0
  1 22  1  0
  2 23  1  0
  2 24  1  0
  4 25  1  0
  5 26  1  0
  6 27  1  0
  7 28  1  0
 10 29  1  0
 13 30  1  0
 14 31  1  0
 16 32  1  0
M  END
$$$$
[H]c1c([H])c(C([H])([H])[H])c([H])c(F)c1OC([H])([H])C(=O)N([H])c1nc2c(C3([H])C([H])([H])C([H])([H])N(C([H])([H])[H])C([H])([H])C3([H])[H])c([H])n([H])c2c([H])c1[H]
     RDKit          3D

 54 57  0  0  0  0  0  0  0  0999 V2000
   -7.0522   -2.3697    0.2633 C   0  0  0  0  0  0  0  0  0  0  0  0
   -6.4893   -1.1332   -0.2223 N   0  0  0  0  0  0  0  0  0  0  0  0
   -6.7162   -0.0703    0.6840 C   0  0  0  0  0  0  0  0  0  0  0  0
   -5.8465    1.1476    0.5018 C   0  0  0  0  0  0  0  0  0  0  0  0
   -4.4116    0.8098    0.1584 C   0  0  0  0  0  0  0  0  0  0  0  0
   -4.1484   -0.6417    0.3500 C   0  0  0  0  0  0  0  0  0  0  0  0
   -5.1322   -1.3638   -0.5980 C   0  0  0  0  0  0  0  0  0  0  0  0
   -3.4706    1.7338    0.8046 C   0  0  0  0  0  0  0  0  0  0  0  0
   -3.7881    2.9124    1.4162 C   0  0  0  0  0  0  0  0  0  0  0  0
   -2.6514    3.5184    1.8441 N   0  0  0  0  0  0  0  0  0  0  0  0
   -1.5692    2.7496    1.5212 C   0  0  0  0  0  0  0  0  0  0  0  0
   -0.2218    2.8884    1.7033 C   0  0  0  0  0  0  0  0  0  0  0  0
    0.5945    1.8554    1.2129 C   0  0  0  0  0  0  0  0  0  0  0  0
    0.1105    0.7472    0.5768 C   0  0  0  0  0  0  0  0  0  0  0  0
    0.8803   -0.3006    0.0361 N   0  0  0  0  0  0  0  0  0  0  0  0
    2.2225   -0.4932   -0.1416 C   0  0  0  0  0  0  0  0  0  0  0  0
    2.5845   -1.6379   -0.6438 O   0  0  0  0  0  0  0  0  0  0  0  0
    3.3963    0.3893    0.1292 C   0  0  0  0  0  0  0  0  0  0  0  0
    4.5640   -0.0717   -0.2075 O   0  0  0  0  0  0  0  0  0  0  0  0
    5.7059   -0.5285   -0.5316 C   0  0  0  0  0  0  0  0  0  0  0  0
    6.3041   -1.6356    0.1108 C   0  0  0  0  0  0  0  0  0  0  0  0
    7.5532   -2.0527   -0.3223 C   0  0  0  0  0  0  0  0  0  0  0  0
    8.2400   -1.4708   -1.3202 C   0  0  0  0  0  0  0  0  0  0  0  0
    9.5510   -1.9435   -1.7530 C   0  0  0  0  0  0  0  0  0  0  0  0
    7.6985   -0.3800   -1.9844 C   0  0  0  0  0  0  0  0  0  0  0  0
    6.4774    0.0475   -1.5791 C   0  0  0  0  0  0  0  0  0  0  0  0
    5.8467    1.1167   -2.1907 F   0  0  0  0  0  0  0  0  0  0  0  0
   -1.2515    0.7077    0.4439 N   0  0  0  0  0  0  0  0  0  0  0  0
   -2.0740    1.6408    0.8789 C   0  0  0  0  0  0  0  0  0  0  0  0
   -8.1519   -2.4178    0.2016 H   0  0  0  0  0  0  0  0  0  0  0  0
   -6.7751   -2.5763    1.3319 H   0  0  0  0  0  0  0  0  0  0  0  0
   -6.6734   -3.2471   -0.3047 H   0  0  0  0  0  0  0  0  0  0  0  0
   -6.6514   -0.3941    1.7467 H   0  0  0  0  0  0  0  0  0  0  0  0
   -7.7789    0.2631    0.5556 H   0  0  0  0  0  0  0  0  0  0  0  0
   -5.8871    1.6851    1.4874 H   0  0  0  0  0  0  0  0  0  0  0  0
   -6.3312    1.7973   -0.2443 H   0  0  0  0  0  0  0  0  0  0  0  0
   -4.3624    0.9590   -0.9763 H   0  0  0  0  0  0  0  0  0  0  0  0
   -3.1571   -0.9441   -0.0527 H   0  0  0  0  0  0  0  0  0  0  0  0
   -4.3305   -0.9970    1.3888 H   0  0  0  0  0  0  0  0  0  0  0  0
   -4.9146   -0.9806   -1.6150 H   0  0  0  0  0  0  0  0  0  0  0  0
   -4.8521   -2.4416   -0.5264 H   0  0  0  0  0  0  0  0  0  0  0  0
   -4.7715    3.3325    1.5612 H   0  0  0  0  0  0  0  0  0  0  0  0
   -2.5458    4.4174    2.3472 H   0  0  0  0  0  0  0  0  0  0  0  0
    0.1718    3.7489    2.1996 H   0  0  0  0  0  0  0  0  0  0  0  0
    1.6436    1.9595    1.3577 H   0  0  0  0  0  0  0  0  0  0  0  0
    0.2646   -1.1567   -0.2828 H   0  0  0  0  0  0  0  0  0  0  0  0
    3.2106    1.4283   -0.2779 H   0  0  0  0  0  0  0  0  0  0  0  0
    3.4208    0.6134    1.2677 H   0  0  0  0  0  0  0  0  0  0  0  0
    5.7548   -2.0970    0.9024 H   0  0  0  0  0  0  0  0  0  0  0  0
    7.9413   -2.9154    0.2445 H   0  0  0  0  0  0  0  0  0  0  0  0
   10.0340   -1.2438   -2.4793 H   0  0  0  0  0  0  0  0  0  0  0  0
    9.4074   -2.9268   -2.2871 H   0  0  0  0  0  0  0  0  0  0  0  0
   10.2013   -2.1403   -0.8827 H   0  0  0  0  0  0  0  0  0  0  0  0
    8.2266    0.1025   -2.7891 H   0  0  0  0  0  0  0  0  0  0  0  0
  1  2  1  0
  2  3  1  0
  3  4  1  0
  4  5  1  0
  5  6  1  0
  6  7  1  0
  5  8  1  0
  8  9  2  0
  9 10  1  0
 10 11  1  0
 11 12  2  0
 12 13  1  0
 13 14  2  0
 14 15  1  0
 15 16  1  0
 16 17  2  0
 16 18  1  0
 18 19  1  0
 19 20  1  0
 20 21  2  0
 21 22  1  0
 22 23  2  0
 23 24  1  0
 23 25  1  0
 25 26  2  0
 26 27  1  0
 14 28  1  0
 28 29  2  0
  7  2  1  0
 29  8  1  0
 29 11  1  0
 26 20  1  0
  1 30  1  0
  1 31  1  0
  1 32  1  0
  3 33  1  0
  3 34  1  0
  4 35  1  0
  4 36  1  0
  5 37  1  0
  6 38  1  0
  6 39  1  0
  7 40  1  0
  7 41  1  0
  9 42  1  0
 10 43  1  0
 12 44  1  0
 13 45  1  0
 15 46  1  0
 18 47  1  0
 18 48  1  0
 21 49  1  0
 22 50  1  0
 24 51  1  0
 24 52  1  0
 24 53  1  0
 25 54  1  0
M  END
$$$$
[H]OC(=O)c1c([H])c([H])c(N([H])C(=O)N([H])c2c(Cl)sc([H])c2[H])c(OC([H])([H])C([H])([H])[H])c1[H]
     RDKit          3D

 35 36  0  0  0  0  0  0  0  0999 V2000
    2.9777    3.0646   -0.3200 C   0  0  0  0  0  0  0  0  0  0  0  0
    2.1259    2.7678    0.8845 C   0  0  0  0  0  0  0  0  0  0  0  0
    1.2665    1.7229    0.6062 O   0  0  0  0  0  0  0  0  0  0  0  0
    1.5609    0.4303    0.2489 C   0  0  0  0  0  0  0  0  0  0  0  0
    2.8320   -0.0433    0.1105 C   0  0  0  0  0  0  0  0  0  0  0  0
    3.0406   -1.3666   -0.2544 C   0  0  0  0  0  0  0  0  0  0  0  0
    1.9772   -2.2136   -0.4800 C   0  0  0  0  0  0  0  0  0  0  0  0
    0.6690   -1.7339   -0.3396 C   0  0  0  0  0  0  0  0  0  0  0  0
    0.4655   -0.4329    0.0191 C   0  0  0  0  0  0  0  0  0  0  0  0
   -0.8090    0.1074    0.1758 N   0  0  0  0  0  0  0  0  0  0  0  0
   -2.0553   -0.5208    0.0116 C   0  0  0  0  0  0  0  0  0  0  0  0
   -2.1524   -1.6976   -0.3108 O   0  0  0  0  0  0  0  0  0  0  0  0
   -3.2441    0.2222    0.2235 N   0  0  0  0  0  0  0  0  0  0  0  0
   -4.5969   -0.2606    0.0999 C   0  0  0  0  0  0  0  0  0  0  0  0
   -4.9693   -1.4964   -0.2372 C   0  0  0  0  0  0  0  0  0  0  0  0
   -6.3126   -1.7745   -0.3047 C   0  0  0  0  0  0  0  0  0  0  0  0
   -7.0347   -0.2974    0.1059 S   0  0  0  0  0  0  0  0  0  0  0  0
   -5.6412    0.6355    0.3530 C   0  0  0  0  0  0  0  0  0  0  0  0
   -5.5204    2.3421    0.8210 Cl  0  0  0  0  0  0  0  0  0  0  0  0
    4.3917   -1.8616   -0.3993 C   0  0  0  0  0  0  0  0  0  0  0  0
    5.4607   -1.0255   -0.1766 O   0  0  0  0  0  0  0  0  0  0  0  0
    4.5940   -3.0466   -0.7261 O   0  0  0  0  0  0  0  0  0  0  0  0
    2.7393    4.0522   -0.7681 H   0  0  0  0  0  0  0  0  0  0  0  0
    2.8094    2.3217   -1.1470 H   0  0  0  0  0  0  0  0  0  0  0  0
    4.0680    2.9636   -0.0758 H   0  0  0  0  0  0  0  0  0  0  0  0
    1.4920    3.6752    1.0906 H   0  0  0  0  0  0  0  0  0  0  0  0
    2.7259    2.6246    1.8063 H   0  0  0  0  0  0  0  0  0  0  0  0
    3.6850    0.5825    0.2795 H   0  0  0  0  0  0  0  0  0  0  0  0
    2.1787   -3.2386   -0.7629 H   0  0  0  0  0  0  0  0  0  0  0  0
   -0.0944   -2.4634   -0.5349 H   0  0  0  0  0  0  0  0  0  0  0  0
   -0.9044    1.1479    0.4621 H   0  0  0  0  0  0  0  0  0  0  0  0
   -3.0614    1.2287    0.4986 H   0  0  0  0  0  0  0  0  0  0  0  0
   -4.2755   -2.3359   -0.4724 H   0  0  0  0  0  0  0  0  0  0  0  0
   -6.7838   -2.7418   -0.5673 H   0  0  0  0  0  0  0  0  0  0  0  0
    6.3954   -1.3379    0.0800 H   0  0  0  0  0  0  0  0  0  0  0  0
  1  2  1  0
  2  3  1  0
  3  4  1  0
  4  5  2  0
  5  6  1  0
  6  7  2  0
  7  8  1  0
  8  9  2  0
  9 10  1  0
 10 11  1  0
 11 12  2  0
 11 13  1  0
 13 14  1  0
 14 15  1  0
 15 16  2  0
 16 17  1  0
 17 18  1  0
 18 19  1  0
  6 20  1  0
 20 21  1  0
 20 22  2  0
  9  4  1  0
 18 14  2  0
  1 23  1  0
  1 24  1  0
  1 25  1  0
  2 26  1  0
  2 27  1  0
  5 28  1  0
  7 29  1  0
  8 30  1  0
 10 31  1  0
 13 32  1  0
 15 33  1  0
 16 34  1  0
 21 35  1  0
M  END
$$$$
[H]OC1([H])C2(O[C@]([H])(C(=O)c3c([H])c([H])c([H])c([H])c3[H])N(C3([H])C([H])([H])C([H])([H])C([H])([H])C([H])([H])C3([H])[H])C2=O)C([H])([H])[C@]1([H])O[H]
     RDKit          3D

 48 51  0  0  0  0  0  0  0  0999 V2000
    0.9038   -2.4231    1.0439 O   0  0  0  0  0  0  0  0  0  0  0  0
    1.4959   -1.2858    0.8160 C   0  0  0  0  0  0  0  0  0  0  0  0
    0.6978   -0.1133    1.1519 C   0  0  1  0  0  0  0  0  0  0  0  0
    1.2723    1.0840    0.9183 O   0  0  0  0  0  0  0  0  0  0  0  0
    0.4804    1.8845    0.1269 C   0  0  0  0  0  0  0  0  0  0  0  0
    1.1406    2.8767   -0.7595 C   0  0  0  0  0  0  0  0  0  0  0  0
   -0.0420    3.8156   -0.4816 C   0  0  2  0  0  0  0  0  0  0  0  0
    0.3119    5.1244   -0.2775 O   0  0  0  0  0  0  0  0  0  0  0  0
   -0.2636    2.9996    0.7993 C   0  0  0  0  0  0  0  0  0  0  0  0
    0.4101    3.6227    1.8448 O   0  0  0  0  0  0  0  0  0  0  0  0
   -0.4530    0.9200   -0.5371 C   0  0  0  0  0  0  0  0  0  0  0  0
   -1.0254    1.0207   -1.6491 O   0  0  0  0  0  0  0  0  0  0  0  0
   -0.5536   -0.1651    0.3907 N   0  0  0  0  0  0  0  0  0  0  0  0
   -1.6558   -1.0726    0.5200 C   0  0  0  0  0  0  0  0  0  0  0  0
   -2.9241   -0.3386    0.9959 C   0  0  0  0  0  0  0  0  0  0  0  0
   -3.9826   -0.3948   -0.0618 C   0  0  0  0  0  0  0  0  0  0  0  0
   -4.4252   -1.8516   -0.1727 C   0  0  0  0  0  0  0  0  0  0  0  0
   -3.2173   -2.6640   -0.4845 C   0  0  0  0  0  0  0  0  0  0  0  0
   -1.9767   -1.8390   -0.7242 C   0  0  0  0  0  0  0  0  0  0  0  0
    2.8067   -1.3887    0.2836 C   0  0  0  0  0  0  0  0  0  0  0  0
    3.6218   -0.3342   -0.0016 C   0  0  0  0  0  0  0  0  0  0  0  0
    4.9099   -0.4798   -0.5347 C   0  0  0  0  0  0  0  0  0  0  0  0
    5.3870   -1.7300   -0.7864 C   0  0  0  0  0  0  0  0  0  0  0  0
    4.6121   -2.8210   -0.5190 C   0  0  0  0  0  0  0  0  0  0  0  0
    3.3519   -2.6564    0.0035 C   0  0  0  0  0  0  0  0  0  0  0  0
    0.4353   -0.1175    2.2654 H   0  0  0  0  0  0  0  0  0  0  0  0
    2.0676    3.2802   -0.3179 H   0  0  0  0  0  0  0  0  0  0  0  0
    1.1683    2.6163   -1.8211 H   0  0  0  0  0  0  0  0  0  0  0  0
   -0.8695    3.6847   -1.2073 H   0  0  0  0  0  0  0  0  0  0  0  0
   -0.0666    5.6634   -1.0366 H   0  0  0  0  0  0  0  0  0  0  0  0
   -1.3076    2.7570    0.9999 H   0  0  0  0  0  0  0  0  0  0  0  0
    0.3078    4.6061    1.6953 H   0  0  0  0  0  0  0  0  0  0  0  0
   -1.4261   -1.8031    1.3224 H   0  0  0  0  0  0  0  0  0  0  0  0
   -3.3051   -0.7285    1.9370 H   0  0  0  0  0  0  0  0  0  0  0  0
   -2.6592    0.7405    1.1465 H   0  0  0  0  0  0  0  0  0  0  0  0
   -3.6481   -0.0522   -1.0418 H   0  0  0  0  0  0  0  0  0  0  0  0
   -4.8406    0.2446    0.2546 H   0  0  0  0  0  0  0  0  0  0  0  0
   -4.8468   -2.1089    0.8272 H   0  0  0  0  0  0  0  0  0  0  0  0
   -5.2456   -1.9670   -0.9057 H   0  0  0  0  0  0  0  0  0  0  0  0
   -3.4277   -3.2417   -1.4221 H   0  0  0  0  0  0  0  0  0  0  0  0
   -3.0569   -3.3937    0.3051 H   0  0  0  0  0  0  0  0  0  0  0  0
   -2.0785   -1.2071   -1.6265 H   0  0  0  0  0  0  0  0  0  0  0  0
   -1.1628   -2.5549   -0.9501 H   0  0  0  0  0  0  0  0  0  0  0  0
    3.3518    0.6932    0.1613 H   0  0  0  0  0  0  0  0  0  0  0  0
    5.5370    0.3583   -0.7531 H   0  0  0  0  0  0  0  0  0  0  0  0
    6.3805   -1.8883   -1.1997 H   0  0  0  0  0  0  0  0  0  0  0  0
    5.0174   -3.8100   -0.7294 H   0  0  0  0  0  0  0  0  0  0  0  0
    2.7920   -3.5616    0.1913 H   0  0  0  0  0  0  0  0  0  0  0  0
  1  2  2  0
  2  3  1  0
  3  4  1  0
  4  5  1  0
  5  6  1  0
  6  7  1  0
  7  8  1  0
  7  9  1  0
  9 10  1  0
  5 11  1  0
 11 12  2  0
 11 13  1  0
 13 14  1  0
 14 15  1  0
 15 16  1  0
 16 17  1  0
 17 18  1  0
 18 19  1  0
  2 20  1  0
 20 21  2  0
 21 22  1  0
 22 23  2  0
 23 24  1  0
 24 25  2  0
 13  3  1  0
 19 14  1  0
 25 20  1  0
  9  5  1  0
  3 26  1  1
  6 27  1  0
  6 28  1  0
  7 29  1  6
  8 30  1  0
  9 31  1  0
 10 32  1  0
 14 33  1  0
 15 34  1  0
 15 35  1  0
 16 36  1  0
 16 37  1  0
 17 38  1  0
 17 39  1  0
 18 40  1  0
 18 41  1  0
 19 42  1  0
 19 43  1  0
 21 44  1  0
 22 45  1  0
 23 46  1  0
 24 47  1  0
 25 48  1  0
M  END
$$$$
[H]c1c([H])c(F)c(F)c(C([H])(N([H])C(=O)c2c([H])c3c([H])c([H])c([H])c([H])c3n2C([H])([H])C([H])([H])F)C2([H])C([H])([H])C2([H])[H])c1[H]
     RDKit          3D

 46 49  0  0  0  0  0  0  0  0999 V2000
   -1.4903   -1.5555   -2.7016 F   0  0  0  0  0  0  0  0  0  0  0  0
   -2.2015   -2.2564   -1.7988 C   0  0  0  0  0  0  0  0  0  0  0  0
   -2.0476   -1.8231   -0.3508 C   0  0  0  0  0  0  0  0  0  0  0  0
   -2.3961   -0.4498   -0.1485 N   0  0  0  0  0  0  0  0  0  0  0  0
   -1.5966    0.6081   -0.0175 C   0  0  0  0  0  0  0  0  0  0  0  0
   -2.4617    1.7407   -0.0095 C   0  0  0  0  0  0  0  0  0  0  0  0
   -3.7254    1.2782   -0.1286 C   0  0  0  0  0  0  0  0  0  0  0  0
   -4.9409    1.9610   -0.1738 C   0  0  0  0  0  0  0  0  0  0  0  0
   -6.1251    1.2621   -0.3065 C   0  0  0  0  0  0  0  0  0  0  0  0
   -6.0931   -0.0912   -0.3911 C   0  0  0  0  0  0  0  0  0  0  0  0
   -4.8905   -0.7971   -0.3464 C   0  0  0  0  0  0  0  0  0  0  0  0
   -3.7297   -0.0792   -0.2170 C   0  0  0  0  0  0  0  0  0  0  0  0
   -0.1775    0.7842    0.2183 C   0  0  0  0  0  0  0  0  0  0  0  0
    0.3299    1.9502   -0.0975 O   0  0  0  0  0  0  0  0  0  0  0  0
    0.7698   -0.0788    0.7477 N   0  0  0  0  0  0  0  0  0  0  0  0
    2.1808    0.1684    1.0012 C   0  0  0  0  0  0  0  0  0  0  0  0
    2.5010    0.0165    2.4144 C   0  0  0  0  0  0  0  0  0  0  0  0
    3.7981    0.0686    3.1299 C   0  0  0  0  0  0  0  0  0  0  0  0
    2.9807    1.2808    3.1434 C   0  0  0  0  0  0  0  0  0  0  0  0
    3.1302   -0.0432   -0.0845 C   0  0  0  0  0  0  0  0  0  0  0  0
    4.4544    0.3726   -0.0096 C   0  0  0  0  0  0  0  0  0  0  0  0
    5.3614    0.2999   -1.0341 C   0  0  0  0  0  0  0  0  0  0  0  0
    4.9159   -0.2281   -2.2437 C   0  0  0  0  0  0  0  0  0  0  0  0
    3.6159   -0.6442   -2.3455 C   0  0  0  0  0  0  0  0  0  0  0  0
    3.1382   -1.1641   -3.5269 F   0  0  0  0  0  0  0  0  0  0  0  0
    2.7385   -0.5588   -1.2993 C   0  0  0  0  0  0  0  0  0  0  0  0
    1.4668   -1.0158   -1.4422 F   0  0  0  0  0  0  0  0  0  0  0  0
   -1.8215   -3.3295   -1.8588 H   0  0  0  0  0  0  0  0  0  0  0  0
   -3.2833   -2.3570   -2.0610 H   0  0  0  0  0  0  0  0  0  0  0  0
   -2.6518   -2.5123    0.2981 H   0  0  0  0  0  0  0  0  0  0  0  0
   -1.0084   -2.0116   -0.1091 H   0  0  0  0  0  0  0  0  0  0  0  0
   -2.1310    2.7528    0.0834 H   0  0  0  0  0  0  0  0  0  0  0  0
   -4.9404    3.0466   -0.1029 H   0  0  0  0  0  0  0  0  0  0  0  0
   -7.0283    1.8501   -0.3335 H   0  0  0  0  0  0  0  0  0  0  0  0
   -7.0070   -0.6471   -0.4984 H   0  0  0  0  0  0  0  0  0  0  0  0
   -4.8644   -1.8703   -0.4015 H   0  0  0  0  0  0  0  0  0  0  0  0
    0.4558   -1.0372    1.0491 H   0  0  0  0  0  0  0  0  0  0  0  0
    2.1135    1.4064    0.8744 H   0  0  0  0  0  0  0  0  0  0  0  0
    1.6521   -0.5279    3.0030 H   0  0  0  0  0  0  0  0  0  0  0  0
    3.7714   -0.5587    4.1291 H   0  0  0  0  0  0  0  0  0  0  0  0
    4.7834    0.0154    2.6984 H   0  0  0  0  0  0  0  0  0  0  0  0
    2.4842    1.5390    4.1089 H   0  0  0  0  0  0  0  0  0  0  0  0
    3.2403    2.0994    2.4779 H   0  0  0  0  0  0  0  0  0  0  0  0
    4.8161    0.8465    0.8885 H   0  0  0  0  0  0  0  0  0  0  0  0
    6.3733    0.6141   -0.9589 H   0  0  0  0  0  0  0  0  0  0  0  0
    5.5405   -0.3247   -3.0995 H   0  0  0  0  0  0  0  0  0  0  0  0
  1  2  1  0
  2  3  1  0
  3  4  1  0
  4  5  1  0
  5  6  2  0
  6  7  1  0
  7  8  2  0
  8  9  1  0
  9 10  2  0
 10 11  1  0
 11 12  2  0
  5 13  1  0
 13 14  2  0
 13 15  1  0
 15 16  1  0
 16 17  1  0
 17 18  1  0
 18 19  1  0
 16 20  1  0
 20 21  2  0
 21 22  1  0
 22 23  2  0
 23 24  1  0
 24 25  1  0
 24 26  2  0
 26 27  1  0
 12  4  1  0
 19 17  1  0
 26 20  1  0
 12  7  1  0
  2 28  1  0
  2 29  1  0
  3 30  1  0
  3 31  1  0
  6 32  1  0
  8 33  1  0
  9 34  1  0
 10 35  1  0
 11 36  1  0
 15 37  1  0
 16 38  1  0
 17 39  1  0
 18 40  1  0
 18 41  1  0
 19 42  1  0
 19 43  1  0
 21 44  1  0
 22 45  1  0
 23 46  1  0
M  END
$$$$
[H]c1nc2nc([H])c(-c3c(C([H])(C([H])([H])[H])C([H])([H])[H])c4c([H])c(C5([H])C([H])([H])C([H])([H])N(C([H])([H])c6c([H])nn(C([H])([H])[H])c6[H])C([H])([H])C5([H])[H])c([H])c([H])c4n3[H])c([H])n2n1
     RDKit          3D

 64 69  0  0  0  0  0  0  0  0999 V2000
   -2.4616    1.4217   -2.3153 C   0  0  0  0  0  0  0  0  0  0  0  0
   -3.2191    0.1817   -1.8616 C   0  0  0  0  0  0  0  0  0  0  0  0
   -4.3051   -0.3236   -2.7453 C   0  0  0  0  0  0  0  0  0  0  0  0
   -3.1674   -0.1728   -0.4479 C   0  0  0  0  0  0  0  0  0  0  0  0
   -4.2187   -0.3672    0.4218 C   0  0  0  0  0  0  0  0  0  0  0  0
   -3.7260   -0.9314    1.5769 N   0  0  0  0  0  0  0  0  0  0  0  0
   -2.4189   -1.0889    1.4604 C   0  0  0  0  0  0  0  0  0  0  0  0
   -1.5019   -1.6261    2.3369 C   0  0  0  0  0  0  0  0  0  0  0  0
   -0.2046   -1.6970    1.9703 C   0  0  0  0  0  0  0  0  0  0  0  0
    0.1964   -1.2226    0.7173 C   0  0  0  0  0  0  0  0  0  0  0  0
   -0.7058   -0.7007   -0.1350 C   0  0  0  0  0  0  0  0  0  0  0  0
   -2.0386   -0.6349    0.2399 C   0  0  0  0  0  0  0  0  0  0  0  0
    1.6525   -1.3055    0.5067 C   0  0  0  0  0  0  0  0  0  0  0  0
    2.2333   -0.7937   -0.7242 C   0  0  0  0  0  0  0  0  0  0  0  0
    3.7469   -0.6995   -0.7252 C   0  0  0  0  0  0  0  0  0  0  0  0
    4.3153   -0.2592    0.4628 N   0  0  0  0  0  0  0  0  0  0  0  0
    4.9687    0.9457    0.6387 C   0  0  0  0  0  0  0  0  0  0  0  0
    6.2915    1.0359   -0.0365 C   0  0  0  0  0  0  0  0  0  0  0  0
    6.6859    1.7319   -1.1388 C   0  0  0  0  0  0  0  0  0  0  0  0
    8.0001    1.4794   -1.3272 N   0  0  0  0  0  0  0  0  0  0  0  0
    8.4367    0.6628   -0.3969 N   0  0  0  0  0  0  0  0  0  0  0  0
    9.8096    0.1774   -0.3051 C   0  0  0  0  0  0  0  0  0  0  0  0
    7.4389    0.3669    0.4076 C   0  0  0  0  0  0  0  0  0  0  0  0
    3.7628   -0.8509    1.6576 C   0  0  0  0  0  0  0  0  0  0  0  0
    2.2907   -0.5190    1.7112 C   0  0  0  0  0  0  0  0  0  0  0  0
   -5.5935    0.1440    0.3909 C   0  0  0  0  0  0  0  0  0  0  0  0
   -5.7737    1.3591    1.1000 C   0  0  0  0  0  0  0  0  0  0  0  0
   -6.9995    1.8876    1.2392 N   0  0  0  0  0  0  0  0  0  0  0  0
   -8.1070    1.3199    0.7282 C   0  0  0  0  0  0  0  0  0  0  0  0
   -9.4248    1.6529    0.7441 N   0  0  0  0  0  0  0  0  0  0  0  0
  -10.0687    0.6809    0.0788 C   0  0  0  0  0  0  0  0  0  0  0  0
   -9.1544   -0.2104   -0.3293 N   0  0  0  0  0  0  0  0  0  0  0  0
   -7.9544    0.1658    0.0531 N   0  0  0  0  0  0  0  0  0  0  0  0
   -6.7060   -0.4062   -0.1054 C   0  0  0  0  0  0  0  0  0  0  0  0
   -1.6478    1.6067   -1.6174 H   0  0  0  0  0  0  0  0  0  0  0  0
   -3.1701    2.3008   -2.3739 H   0  0  0  0  0  0  0  0  0  0  0  0
   -2.1269    1.2710   -3.3572 H   0  0  0  0  0  0  0  0  0  0  0  0
   -2.3316   -0.6192   -2.2617 H   0  0  0  0  0  0  0  0  0  0  0  0
   -4.9718    0.4358   -3.2026 H   0  0  0  0  0  0  0  0  0  0  0  0
   -3.9021   -0.8793   -3.6751 H   0  0  0  0  0  0  0  0  0  0  0  0
   -4.8540   -1.1017   -2.2224 H   0  0  0  0  0  0  0  0  0  0  0  0
   -4.3041   -1.1835    2.4035 H   0  0  0  0  0  0  0  0  0  0  0  0
   -1.8574   -1.9785    3.3059 H   0  0  0  0  0  0  0  0  0  0  0  0
    0.5147   -2.1412    2.6247 H   0  0  0  0  0  0  0  0  0  0  0  0
   -0.4300   -0.3369   -1.0973 H   0  0  0  0  0  0  0  0  0  0  0  0
    2.0112   -2.3621    0.7333 H   0  0  0  0  0  0  0  0  0  0  0  0
    2.0079   -1.5090   -1.5789 H   0  0  0  0  0  0  0  0  0  0  0  0
    1.7437    0.1534   -1.0506 H   0  0  0  0  0  0  0  0  0  0  0  0
    4.0426   -0.0451   -1.5613 H   0  0  0  0  0  0  0  0  0  0  0  0
    4.1070   -1.7334   -0.9629 H   0  0  0  0  0  0  0  0  0  0  0  0
    5.2221    1.0538    1.7475 H   0  0  0  0  0  0  0  0  0  0  0  0
    4.3846    1.8750    0.3980 H   0  0  0  0  0  0  0  0  0  0  0  0
    6.0397    2.3669   -1.7119 H   0  0  0  0  0  0  0  0  0  0  0  0
    9.9255   -0.7827   -0.8281 H   0  0  0  0  0  0  0  0  0  0  0  0
   10.0806    0.0508    0.7683 H   0  0  0  0  0  0  0  0  0  0  0  0
   10.5144    0.9284   -0.6973 H   0  0  0  0  0  0  0  0  0  0  0  0
    7.4433   -0.2844    1.2656 H   0  0  0  0  0  0  0  0  0  0  0  0
    4.2265   -0.3359    2.5281 H   0  0  0  0  0  0  0  0  0  0  0  0
    3.9121   -1.9321    1.6727 H   0  0  0  0  0  0  0  0  0  0  0  0
    2.1627    0.5527    1.4384 H   0  0  0  0  0  0  0  0  0  0  0  0
    1.8643   -0.8271    2.6586 H   0  0  0  0  0  0  0  0  0  0  0  0
   -4.8989    1.8399    1.5221 H   0  0  0  0  0  0  0  0  0  0  0  0
  -11.1452    0.7115   -0.0597 H   0  0  0  0  0  0  0  0  0  0  0  0
   -6.6426   -1.3346   -0.6573 H   0  0  0  0  0  0  0  0  0  0  0  0
  1  2  1  0
  2  3  1  0
  2  4  1  0
  4  5  2  0
  5  6  1  0
  6  7  1  0
  7  8  2  0
  8  9  1  0
  9 10  2  0
 10 11  1  0
 11 12  2  0
 10 13  1  0
 13 14  1  0
 14 15  1  0
 15 16  1  0
 16 17  1  0
 17 18  1  0
 18 19  1  0
 19 20  2  0
 20 21  1  0
 21 22  1  0
 21 23  1  0
 16 24  1  0
 24 25  1  0
  5 26  1  0
 26 27  1  0
 27 28  2  0
 28 29  1  0
 29 30  2  0
 30 31  1  0
 31 32  2  0
 32 33  1  0
 33 34  1  0
 12  4  1  0
 25 13  1  0
 34 26  2  0
 12  7  1  0
 23 18  2  0
 33 29  1  0
  1 35  1  0
  1 36  1  0
  1 37  1  0
  2 38  1  0
  3 39  1  0
  3 40  1  0
  3 41  1  0
  6 42  1  0
  8 43  1  0
  9 44  1  0
 11 45  1  0
 13 46  1  0
 14 47  1  0
 14 48  1  0
 15 49  1  0
 15 50  1  0
 17 51  1  0
 17 52  1  0
 19 53  1  0
 22 54  1  0
 22 55  1  0
 22 56  1  0
 23 57  1  0
 24 58  1  0
 24 59  1  0
 25 60  1  0
 25 61  1  0
 27 62  1  0
 31 63  1  0
 34 64  1  0
M  END
$$$$
[H]c1c([H])c([H])c([C@@]([H])(C(=O)N([H])C([H])([H])C2([H])C([H])([H])C([H])([H])N(C([H])([H])[H])C([H])([H])C2([H])[H])N([H])c2c([H])c(-c3c([H])c([H])c4nc(C([H])([H])[H])n(C([H])([H])c5c([H])c([H])c(F)c([H])c5F)c4c3[H])c([H])c(C([H])([H])[H])c2[H])c([H])c1[H]
     RDKit          3D

 84 89  0  0  0  0  0  0  0  0999 V2000
    9.1636    3.2323    0.9379 C   0  0  0  0  0  0  0  0  0  0  0  0
    7.6741    3.0081    0.8222 C   0  0  0  0  0  0  0  0  0  0  0  0
    6.7236    3.7143    1.4577 N   0  0  0  0  0  0  0  0  0  0  0  0
    5.4928    3.2421    1.1266 C   0  0  0  0  0  0  0  0  0  0  0  0
    4.2048    3.5864    1.4766 C   0  0  0  0  0  0  0  0  0  0  0  0
    3.1216    2.8803    0.9434 C   0  0  0  0  0  0  0  0  0  0  0  0
    3.3066    1.8365    0.0664 C   0  0  0  0  0  0  0  0  0  0  0  0
    4.5997    1.5064   -0.2726 C   0  0  0  0  0  0  0  0  0  0  0  0
    5.6998    2.1976    0.2477 C   0  0  0  0  0  0  0  0  0  0  0  0
    7.0390    2.0853    0.0863 N   0  0  0  0  0  0  0  0  0  0  0  0
    7.6557    1.1298   -0.7851 C   0  0  0  0  0  0  0  0  0  0  0  0
    8.0475   -0.1572   -0.2234 C   0  0  0  0  0  0  0  0  0  0  0  0
    8.6876   -1.0308   -1.1146 C   0  0  0  0  0  0  0  0  0  0  0  0
    9.1117   -2.2669   -0.7414 C   0  0  0  0  0  0  0  0  0  0  0  0
    8.9128   -2.6973    0.5646 C   0  0  0  0  0  0  0  0  0  0  0  0
    9.3457   -3.9320    0.9029 F   0  0  0  0  0  0  0  0  0  0  0  0
    8.2798   -1.8295    1.4407 C   0  0  0  0  0  0  0  0  0  0  0  0
    7.8579   -0.5915    1.0572 C   0  0  0  0  0  0  0  0  0  0  0  0
    7.2549    0.1756    1.9830 F   0  0  0  0  0  0  0  0  0  0  0  0
    2.1327    1.1177   -0.4787 C   0  0  0  0  0  0  0  0  0  0  0  0
    2.1424    0.5493   -1.7380 C   0  0  0  0  0  0  0  0  0  0  0  0
    1.0648   -0.1169   -2.2757 C   0  0  0  0  0  0  0  0  0  0  0  0
    1.0928   -0.7324   -3.6372 C   0  0  0  0  0  0  0  0  0  0  0  0
   -0.0916   -0.2083   -1.4811 C   0  0  0  0  0  0  0  0  0  0  0  0
   -0.1633    0.3342   -0.2238 C   0  0  0  0  0  0  0  0  0  0  0  0
   -1.3133    0.2401    0.5662 N   0  0  0  0  0  0  0  0  0  0  0  0
   -2.5449   -0.4159    0.2511 C   0  0  2  0  0  0  0  0  0  0  0  0
   -3.5721   -0.2273    1.3087 C   0  0  0  0  0  0  0  0  0  0  0  0
   -3.2206   -0.1249    2.4955 O   0  0  0  0  0  0  0  0  0  0  0  0
   -4.9497   -0.1597    0.9753 N   0  0  0  0  0  0  0  0  0  0  0  0
   -5.9596    0.0209    1.9878 C   0  0  0  0  0  0  0  0  0  0  0  0
   -7.3032    0.0983    1.3445 C   0  0  0  0  0  0  0  0  0  0  0  0
   -7.7101   -1.1028    0.5524 C   0  0  0  0  0  0  0  0  0  0  0  0
   -8.4788   -0.7432   -0.6973 C   0  0  0  0  0  0  0  0  0  0  0  0
   -9.3970    0.3412   -0.5197 N   0  0  0  0  0  0  0  0  0  0  0  0
   -9.8501    0.7519   -1.8439 C   0  0  0  0  0  0  0  0  0  0  0  0
   -8.8665    1.4981    0.1384 C   0  0  0  0  0  0  0  0  0  0  0  0
   -7.3800    1.3209    0.4153 C   0  0  0  0  0  0  0  0  0  0  0  0
   -2.3604   -1.8910   -0.0147 C   0  0  0  0  0  0  0  0  0  0  0  0
   -3.1369   -2.5896   -0.9181 C   0  0  0  0  0  0  0  0  0  0  0  0
   -2.9461   -3.9348   -1.1633 C   0  0  0  0  0  0  0  0  0  0  0  0
   -1.9585   -4.6181   -0.4990 C   0  0  0  0  0  0  0  0  0  0  0  0
   -1.1706   -3.9483    0.4056 C   0  0  0  0  0  0  0  0  0  0  0  0
   -1.3781   -2.6040    0.6366 C   0  0  0  0  0  0  0  0  0  0  0  0
    0.9770    0.9998    0.2585 C   0  0  0  0  0  0  0  0  0  0  0  0
    9.5528    2.7932    1.8665 H   0  0  0  0  0  0  0  0  0  0  0  0
    9.2949    4.3376    1.0062 H   0  0  0  0  0  0  0  0  0  0  0  0
    9.6945    2.9015    0.0234 H   0  0  0  0  0  0  0  0  0  0  0  0
    4.0310    4.4112    2.1699 H   0  0  0  0  0  0  0  0  0  0  0  0
    2.1283    3.1619    1.2270 H   0  0  0  0  0  0  0  0  0  0  0  0
    4.7554    0.6892   -0.9590 H   0  0  0  0  0  0  0  0  0  0  0  0
    8.5610    1.5801   -1.2629 H   0  0  0  0  0  0  0  0  0  0  0  0
    6.9767    0.9176   -1.6524 H   0  0  0  0  0  0  0  0  0  0  0  0
    8.8633   -0.7207   -2.1586 H   0  0  0  0  0  0  0  0  0  0  0  0
    9.6035   -2.9058   -1.4711 H   0  0  0  0  0  0  0  0  0  0  0  0
    8.1502   -2.2209    2.4479 H   0  0  0  0  0  0  0  0  0  0  0  0
    3.0477    0.6427   -2.3107 H   0  0  0  0  0  0  0  0  0  0  0  0
    0.6150   -1.7295   -3.5374 H   0  0  0  0  0  0  0  0  0  0  0  0
    0.6898   -0.1018   -4.4250 H   0  0  0  0  0  0  0  0  0  0  0  0
    2.1703   -0.9462   -3.8988 H   0  0  0  0  0  0  0  0  0  0  0  0
   -0.9305   -0.7238   -1.9168 H   0  0  0  0  0  0  0  0  0  0  0  0
   -1.2838    0.7096    1.5222 H   0  0  0  0  0  0  0  0  0  0  0  0
   -2.9804   -0.0002   -0.6944 H   0  0  0  0  0  0  0  0  0  0  0  0
   -5.2448   -0.2438   -0.0416 H   0  0  0  0  0  0  0  0  0  0  0  0
   -5.9843   -0.8150    2.7188 H   0  0  0  0  0  0  0  0  0  0  0  0
   -5.7616    0.9800    2.5310 H   0  0  0  0  0  0  0  0  0  0  0  0
   -8.0738    0.2856    2.1398 H   0  0  0  0  0  0  0  0  0  0  0  0
   -8.4036   -1.7264    1.1965 H   0  0  0  0  0  0  0  0  0  0  0  0
   -6.8403   -1.7144    0.3040 H   0  0  0  0  0  0  0  0  0  0  0  0
   -7.8156   -0.5581   -1.5679 H   0  0  0  0  0  0  0  0  0  0  0  0
   -9.1004   -1.6527   -0.9496 H   0  0  0  0  0  0  0  0  0  0  0  0
  -10.0356   -0.1357   -2.4715 H   0  0  0  0  0  0  0  0  0  0  0  0
  -10.7508    1.4141   -1.7591 H   0  0  0  0  0  0  0  0  0  0  0  0
   -9.0126    1.3363   -2.3267 H   0  0  0  0  0  0  0  0  0  0  0  0
   -9.0758    2.4465   -0.4125 H   0  0  0  0  0  0  0  0  0  0  0  0
   -9.3412    1.5490    1.1622 H   0  0  0  0  0  0  0  0  0  0  0  0
   -6.8086    1.1610   -0.5104 H   0  0  0  0  0  0  0  0  0  0  0  0
   -6.9935    2.2019    0.9495 H   0  0  0  0  0  0  0  0  0  0  0  0
   -3.9023   -2.0244   -1.4234 H   0  0  0  0  0  0  0  0  0  0  0  0
   -3.5760   -4.4505   -1.8807 H   0  0  0  0  0  0  0  0  0  0  0  0
   -1.8245   -5.6747   -0.7053 H   0  0  0  0  0  0  0  0  0  0  0  0
   -0.3878   -4.4728    0.9360 H   0  0  0  0  0  0  0  0  0  0  0  0
   -0.7602   -2.0666    1.3484 H   0  0  0  0  0  0  0  0  0  0  0  0
    0.9168    1.4200    1.2360 H   0  0  0  0  0  0  0  0  0  0  0  0
  1  2  1  0
  2  3  2  0
  3  4  1  0
  4  5  2  0
  5  6  1  0
  6  7  2  0
  7  8  1  0
  8  9  2  0
  9 10  1  0
 10 11  1  0
 11 12  1  0
 12 13  2  0
 13 14  1  0
 14 15  2  0
 15 16  1  0
 15 17  1  0
 17 18  2  0
 18 19  1  0
  7 20  1  0
 20 21  2  0
 21 22  1  0
 22 23  1  0
 22 24  2  0
 24 25  1  0
 25 26  1  0
 26 27  1  0
 27 28  1  0
 28 29  2  0
 28 30  1  0
 30 31  1  0
 31 32  1  0
 32 33  1  0
 33 34  1  0
 34 35  1  0
 35 36  1  0
 35 37  1  0
 37 38  1  0
 27 39  1  0
 39 40  2  0
 40 41  1  0
 41 42  2  0
 42 43  1  0
 43 44  2  0
 25 45  2  0
 10  2  1  0
 18 12  1  0
 45 20  1  0
  9  4  1  0
 38 32  1  0
 44 39  1  0
  1 46  1  0
  1 47  1  0
  1 48  1  0
  5 49  1  0
  6 50  1  0
  8 51  1  0
 11 52  1  0
 11 53  1  0
 13 54  1  0
 14 55  1  0
 17 56  1  0
 21 57  1  0
 23 58  1  0
 23 59  1  0
 23 60  1  0
 24 61  1  0
 26 62  1  0
 27 63  1  6
 30 64  1  0
 31 65  1  0
 31 66  1  0
 32 67  1  0
 33 68  1  0
 33 69  1  0
 34 70  1  0
 34 71  1  0
 36 72  1  0
 36 73  1  0
 36 74  1  0
 37 75  1  0
 37 76  1  0
 38 77  1  0
 38 78  1  0
 40 79  1  0
 41 80  1  0
 42 81  1  0
 43 82  1  0
 44 83  1  0
 45 84  1  0
M  END
$$$$
[H]c1nc2c([H])c(OC([H])([H])C([H])([H])C([H])([H])N3C([H])([H])C([H])([H])OC([H])([H])C3([H])[H])c(OC([H])([H])[H])c([H])c2c(Oc2c([H])c([H])c(N([H])C(=O)c3c(C([H])([H])[H])nn(C([H])([H])[H])c3C([H])([H])[H])c([H])c2F)c1[H]
     RDKit          3D

 75 79  0  0  0  0  0  0  0  0999 V2000
    0.0243   -2.1236    2.1824 C   0  0  0  0  0  0  0  0  0  0  0  0
   -1.3139   -1.9508    1.7894 O   0  0  0  0  0  0  0  0  0  0  0  0
   -1.6980   -1.6233    0.4757 C   0  0  0  0  0  0  0  0  0  0  0  0
   -0.7868   -1.4479   -0.5331 C   0  0  0  0  0  0  0  0  0  0  0  0
   -1.1282   -1.1229   -1.8296 C   0  0  0  0  0  0  0  0  0  0  0  0
   -0.1940   -0.9524   -2.8495 C   0  0  0  0  0  0  0  0  0  0  0  0
    1.1000   -1.0849   -2.6581 O   0  0  0  0  0  0  0  0  0  0  0  0
    2.1623   -0.6299   -2.0353 C   0  0  0  0  0  0  0  0  0  0  0  0
    2.2436    0.4540   -1.1835 C   0  0  0  0  0  0  0  0  0  0  0  0
    3.3957    0.8428   -0.5861 C   0  0  0  0  0  0  0  0  0  0  0  0
    4.5979    0.1574   -0.7991 C   0  0  0  0  0  0  0  0  0  0  0  0
    5.7859    0.6213   -0.1677 N   0  0  0  0  0  0  0  0  0  0  0  0
    6.8213   -0.2189    0.2480 C   0  0  0  0  0  0  0  0  0  0  0  0
    6.6237   -1.4736    0.0297 O   0  0  0  0  0  0  0  0  0  0  0  0
    8.0613    0.1605    0.8809 C   0  0  0  0  0  0  0  0  0  0  0  0
    9.0415   -0.7552    1.2329 C   0  0  0  0  0  0  0  0  0  0  0  0
    9.0863   -2.2179    1.0732 C   0  0  0  0  0  0  0  0  0  0  0  0
   10.0508   -0.0562    1.7934 N   0  0  0  0  0  0  0  0  0  0  0  0
    9.7396    1.2000    1.7981 N   0  0  0  0  0  0  0  0  0  0  0  0
   10.5859    2.2489    2.3180 C   0  0  0  0  0  0  0  0  0  0  0  0
    8.5139    1.3882    1.2423 C   0  0  0  0  0  0  0  0  0  0  0  0
    7.8660    2.7201    1.1019 C   0  0  0  0  0  0  0  0  0  0  0  0
    4.5378   -0.9177   -1.6410 C   0  0  0  0  0  0  0  0  0  0  0  0
    3.3681   -1.3190   -2.2519 C   0  0  0  0  0  0  0  0  0  0  0  0
    3.3871   -2.4035   -3.0793 F   0  0  0  0  0  0  0  0  0  0  0  0
   -0.6539   -0.6264   -4.1502 C   0  0  0  0  0  0  0  0  0  0  0  0
   -1.9870   -0.4920   -4.3556 C   0  0  0  0  0  0  0  0  0  0  0  0
   -2.8965   -0.6612   -3.3504 N   0  0  0  0  0  0  0  0  0  0  0  0
   -2.4635   -0.9723   -2.1070 C   0  0  0  0  0  0  0  0  0  0  0  0
   -3.4182   -1.1476   -1.0942 C   0  0  0  0  0  0  0  0  0  0  0  0
   -3.0632   -1.4706    0.1997 C   0  0  0  0  0  0  0  0  0  0  0  0
   -3.9894   -1.6425    1.1970 O   0  0  0  0  0  0  0  0  0  0  0  0
   -5.3435   -1.4898    1.0662 C   0  0  0  0  0  0  0  0  0  0  0  0
   -5.8752   -0.1136    0.7701 C   0  0  0  0  0  0  0  0  0  0  0  0
   -7.3789   -0.2792    0.6176 C   0  0  0  0  0  0  0  0  0  0  0  0
   -8.1009    0.8877    0.3218 N   0  0  0  0  0  0  0  0  0  0  0  0
   -8.2247    1.9042    1.2906 C   0  0  0  0  0  0  0  0  0  0  0  0
   -9.5663    2.6180    1.1208 C   0  0  0  0  0  0  0  0  0  0  0  0
  -10.5994    1.7446    0.8710 O   0  0  0  0  0  0  0  0  0  0  0  0
  -10.4315    0.9138   -0.2081 C   0  0  0  0  0  0  0  0  0  0  0  0
   -9.0239    0.8645   -0.7534 C   0  0  0  0  0  0  0  0  0  0  0  0
    0.7603   -1.5318    1.6203 H   0  0  0  0  0  0  0  0  0  0  0  0
    0.3447   -3.1923    2.1286 H   0  0  0  0  0  0  0  0  0  0  0  0
    0.0510   -1.8742    3.2766 H   0  0  0  0  0  0  0  0  0  0  0  0
    0.2502   -1.5915   -0.3204 H   0  0  0  0  0  0  0  0  0  0  0  0
    1.3285    1.0222   -0.9873 H   0  0  0  0  0  0  0  0  0  0  0  0
    3.4660    1.7034    0.0927 H   0  0  0  0  0  0  0  0  0  0  0  0
    5.8340    1.6608   -0.0322 H   0  0  0  0  0  0  0  0  0  0  0  0
    8.1518   -2.6676    1.4536 H   0  0  0  0  0  0  0  0  0  0  0  0
    9.2647   -2.5126   -0.0005 H   0  0  0  0  0  0  0  0  0  0  0  0
    9.9761   -2.6532    1.6034 H   0  0  0  0  0  0  0  0  0  0  0  0
   10.9117    2.9309    1.4905 H   0  0  0  0  0  0  0  0  0  0  0  0
   10.0549    2.9038    3.0662 H   0  0  0  0  0  0  0  0  0  0  0  0
   11.4909    1.8692    2.8014 H   0  0  0  0  0  0  0  0  0  0  0  0
    7.7786    3.0143    0.0379 H   0  0  0  0  0  0  0  0  0  0  0  0
    8.5525    3.5064    1.5395 H   0  0  0  0  0  0  0  0  0  0  0  0
    6.9368    2.8277    1.6840 H   0  0  0  0  0  0  0  0  0  0  0  0
    5.4518   -1.4860   -1.8770 H   0  0  0  0  0  0  0  0  0  0  0  0
    0.0765   -0.4907   -4.9515 H   0  0  0  0  0  0  0  0  0  0  0  0
   -2.4070   -0.2432   -5.3252 H   0  0  0  0  0  0  0  0  0  0  0  0
   -4.4422   -1.0371   -1.4124 H   0  0  0  0  0  0  0  0  0  0  0  0
   -5.9233   -1.8499    1.9672 H   0  0  0  0  0  0  0  0  0  0  0  0
   -5.6763   -2.1225    0.1798 H   0  0  0  0  0  0  0  0  0  0  0  0
   -5.3846    0.4211   -0.0157 H   0  0  0  0  0  0  0  0  0  0  0  0
   -5.7158    0.4672    1.7489 H   0  0  0  0  0  0  0  0  0  0  0  0
   -7.7864   -0.7298    1.5425 H   0  0  0  0  0  0  0  0  0  0  0  0
   -7.5688   -1.0247   -0.1967 H   0  0  0  0  0  0  0  0  0  0  0  0
   -8.3054    1.3994    2.2978 H   0  0  0  0  0  0  0  0  0  0  0  0
   -7.4554    2.6906    1.3069 H   0  0  0  0  0  0  0  0  0  0  0  0
   -9.5294    3.4285    0.3827 H   0  0  0  0  0  0  0  0  0  0  0  0
   -9.7803    3.0989    2.1034 H   0  0  0  0  0  0  0  0  0  0  0  0
  -10.6804   -0.1324    0.1321 H   0  0  0  0  0  0  0  0  0  0  0  0
  -11.1033    1.1576   -1.0585 H   0  0  0  0  0  0  0  0  0  0  0  0
   -8.8634    1.6383   -1.5380 H   0  0  0  0  0  0  0  0  0  0  0  0
   -8.9153   -0.1341   -1.2666 H   0  0  0  0  0  0  0  0  0  0  0  0
  1  2  1  0
  2  3  1  0
  3  4  2  0
  4  5  1  0
  5  6  2  0
  6  7  1  0
  7  8  1  0
  8  9  2  0
  9 10  1  0
 10 11  2  0
 11 12  1  0
 12 13  1  0
 13 14  2  0
 13 15  1  0
 15 16  1  0
 16 17  1  0
 16 18  2  0
 18 19  1  0
 19 20  1  0
 19 21  1  0
 21 22  1  0
 11 23  1  0
 23 24  2  0
 24 25  1  0
  6 26  1  0
 26 27  2  0
 27 28  1  0
 28 29  2  0
 29 30  1  0
 30 31  2  0
 31 32  1  0
 32 33  1  0
 33 34  1  0
 34 35  1  0
 35 36  1  0
 36 37  1  0
 37 38  1  0
 38 39  1  0
 39 40  1  0
 40 41  1  0
 31  3  1  0
 41 36  1  0
 29  5  1  0
 24  8  1  0
 21 15  2  0
  1 42  1  0
  1 43  1  0
  1 44  1  0
  4 45  1  0
  9 46  1  0
 10 47  1  0
 12 48  1  0
 17 49  1  0
 17 50  1  0
 17 51  1  0
 20 52  1  0
 20 53  1  0
 20 54  1  0
 22 55  1  0
 22 56  1  0
 22 57  1  0
 23 58  1  0
 26 59  1  0
 27 60  1  0
 30 61  1  0
 33 62  1  0
 33 63  1  0
 34 64  1  0
 34 65  1  0
 35 66  1  0
 35 67  1  0
 37 68  1  0
 37 69  1  0
 38 70  1  0
 38 71  1  0
 40 72  1  0
 40 73  1  0
 41 74  1  0
 41 75  1  0
M  END
$$$$
[H]c1c(-c2c(OC([H])([H])C([H])(C([H])([H])[H])C([H])([H])[H])nc3sc(N([H])C(=O)N([H])C([H])([H])C([H])([H])[H])nc3c2[H])nn([H])c1[H]
     RDKit          3D

 45 47  0  0  0  0  0  0  0  0999 V2000
    7.5908   -0.0826   -0.9987 C   0  0  0  0  0  0  0  0  0  0  0  0
    7.3867    1.1946   -1.7899 C   0  0  0  0  0  0  0  0  0  0  0  0
    6.2006    1.0775   -2.5958 N   0  0  0  0  0  0  0  0  0  0  0  0
    4.9039    0.8525   -2.0494 C   0  0  0  0  0  0  0  0  0  0  0  0
    4.8243    0.7555   -0.7915 O   0  0  0  0  0  0  0  0  0  0  0  0
    3.7457    0.7373   -2.8222 N   0  0  0  0  0  0  0  0  0  0  0  0
    2.4845    0.5107   -2.1760 C   0  0  0  0  0  0  0  0  0  0  0  0
    2.2271    0.3863   -0.8976 N   0  0  0  0  0  0  0  0  0  0  0  0
    1.0057    0.1812   -0.4875 C   0  0  0  0  0  0  0  0  0  0  0  0
    0.5520    0.0229    0.8379 C   0  0  0  0  0  0  0  0  0  0  0  0
   -0.7663   -0.1912    1.1478 C   0  0  0  0  0  0  0  0  0  0  0  0
   -1.1329   -0.3456    2.5877 C   0  0  0  0  0  0  0  0  0  0  0  0
   -2.3267   -0.6641    3.1422 C   0  0  0  0  0  0  0  0  0  0  0  0
   -2.1223   -0.6951    4.5265 C   0  0  0  0  0  0  0  0  0  0  0  0
   -0.8320   -0.3979    4.7314 N   0  0  0  0  0  0  0  0  0  0  0  0
   -0.2315   -0.1878    3.5896 N   0  0  0  0  0  0  0  0  0  0  0  0
   -1.6859   -0.2548    0.1407 C   0  0  0  0  0  0  0  0  0  0  0  0
   -3.0112   -0.4628    0.3949 O   0  0  0  0  0  0  0  0  0  0  0  0
   -4.0033   -0.5402   -0.6088 C   0  0  0  0  0  0  0  0  0  0  0  0
   -5.3306   -0.7627    0.0369 C   0  0  0  0  0  0  0  0  0  0  0  0
   -6.4560   -0.8682   -0.9723 C   0  0  0  0  0  0  0  0  0  0  0  0
   -5.5857    0.3903    1.0050 C   0  0  0  0  0  0  0  0  0  0  0  0
   -1.2860   -0.1081   -1.1374 N   0  0  0  0  0  0  0  0  0  0  0  0
    0.0295    0.1050   -1.4467 C   0  0  0  0  0  0  0  0  0  0  0  0
    0.9297    0.3334   -2.8832 S   0  0  0  0  0  0  0  0  0  0  0  0
    7.0901   -0.8934   -1.5760 H   0  0  0  0  0  0  0  0  0  0  0  0
    8.6782   -0.2964   -0.9335 H   0  0  0  0  0  0  0  0  0  0  0  0
    7.1462   -0.0421   -0.0003 H   0  0  0  0  0  0  0  0  0  0  0  0
    7.3457    2.0641   -1.1024 H   0  0  0  0  0  0  0  0  0  0  0  0
    8.2549    1.3384   -2.4552 H   0  0  0  0  0  0  0  0  0  0  0  0
    6.2760    1.1585   -3.6267 H   0  0  0  0  0  0  0  0  0  0  0  0
    3.7499    0.8072   -3.8442 H   0  0  0  0  0  0  0  0  0  0  0  0
    1.2792    0.0721    1.6539 H   0  0  0  0  0  0  0  0  0  0  0  0
   -3.2422   -0.8602    2.6361 H   0  0  0  0  0  0  0  0  0  0  0  0
   -2.9157   -0.9255    5.2231 H   0  0  0  0  0  0  0  0  0  0  0  0
   -0.4094   -0.3531    5.7054 H   0  0  0  0  0  0  0  0  0  0  0  0
   -4.0347    0.4806   -1.0839 H   0  0  0  0  0  0  0  0  0  0  0  0
   -3.7672   -1.2466   -1.4088 H   0  0  0  0  0  0  0  0  0  0  0  0
   -5.3161   -1.6823    0.6296 H   0  0  0  0  0  0  0  0  0  0  0  0
   -6.1402   -1.3627   -1.9015 H   0  0  0  0  0  0  0  0  0  0  0  0
   -6.8750    0.1524   -1.2097 H   0  0  0  0  0  0  0  0  0  0  0  0
   -7.3120   -1.4472   -0.5660 H   0  0  0  0  0  0  0  0  0  0  0  0
   -4.9017    1.2392    0.7633 H   0  0  0  0  0  0  0  0  0  0  0  0
   -5.3725    0.1011    2.0546 H   0  0  0  0  0  0  0  0  0  0  0  0
   -6.6436    0.7097    0.9659 H   0  0  0  0  0  0  0  0  0  0  0  0
  1  2  1  0
  2  3  1  0
  3  4  1  0
  4  5  2  0
  4  6  1  0
  6  7  1  0
  7  8  2  0
  8  9  1  0
  9 10  2  0
 10 11  1  0
 11 12  1  0
 12 13  1  0
 13 14  2  0
 14 15  1  0
 15 16  1  0
 11 17  2  0
 17 18  1  0
 18 19  1  0
 19 20  1  0
 20 21  1  0
 20 22  1  0
 17 23  1  0
 23 24  2  0
 24 25  1  0
 25  7  1  0
 24  9  1  0
 16 12  2  0
  1 26  1  0
  1 27  1  0
  1 28  1  0
  2 29  1  0
  2 30  1  0
  3 31  1  0
  6 32  1  0
 10 33  1  0
 13 34  1  0
 14 35  1  0
 15 36  1  0
 19 37  1  0
 19 38  1  0
 20 39  1  0
 21 40  1  0
 21 41  1  0
 21 42  1  0
 22 43  1  0
 22 44  1  0
 22 45  1  0
M  END
$$$$
[H]N=C(N([H])[H])N([H])C([H])([H])C([H])([H])[C@@]([H])(C(=O)O[H])N([H])C(=O)[C@@]([H])(N([H])c1c([H])c([H])c([H])c(C([H])([H])C(=O)N([H])C([H])(C([H])([H])[H])C([H])([H])[H])c1[H])C([H])([H])[H]
     RDKit          3D

 59 59  0  0  0  0  0  0  0  0999 V2000
   -1.4468    1.1501    1.8147 C   0  0  0  0  0  0  0  0  0  0  0  0
   -1.1231   -0.0789    0.9621 C   0  0  2  0  0  0  0  0  0  0  0  0
   -0.0680    0.0623    0.0617 N   0  0  0  0  0  0  0  0  0  0  0  0
    1.2489    0.5993    0.1721 C   0  0  0  0  0  0  0  0  0  0  0  0
    1.5882    1.5765    1.0507 C   0  0  0  0  0  0  0  0  0  0  0  0
    2.8847    2.0678    1.0719 C   0  0  0  0  0  0  0  0  0  0  0  0
    3.8384    1.6000    0.2273 C   0  0  0  0  0  0  0  0  0  0  0  0
    3.5326    0.5733   -0.7065 C   0  0  0  0  0  0  0  0  0  0  0  0
    4.6107    0.1250   -1.6250 C   0  0  0  0  0  0  0  0  0  0  0  0
    5.8268   -0.1726   -0.7333 C   0  0  0  0  0  0  0  0  0  0  0  0
    5.6224   -0.3463    0.4852 O   0  0  0  0  0  0  0  0  0  0  0  0
    7.0768   -0.2324   -1.2854 N   0  0  0  0  0  0  0  0  0  0  0  0
    8.2945   -0.4837   -0.5580 C   0  0  0  0  0  0  0  0  0  0  0  0
    8.1469   -1.1530    0.7917 C   0  0  0  0  0  0  0  0  0  0  0  0
    9.0103    0.8626   -0.2568 C   0  0  0  0  0  0  0  0  0  0  0  0
    2.2541    0.1197   -0.6905 C   0  0  0  0  0  0  0  0  0  0  0  0
   -2.4503   -0.1480    0.1274 C   0  0  0  0  0  0  0  0  0  0  0  0
   -2.4626    0.7799   -0.7704 O   0  0  0  0  0  0  0  0  0  0  0  0
   -3.4075   -1.0750    0.3807 N   0  0  0  0  0  0  0  0  0  0  0  0
   -4.3946   -2.0218    0.6333 C   0  0  1  0  0  0  0  0  0  0  0  0
   -5.6355   -1.4840    1.3065 C   0  0  0  0  0  0  0  0  0  0  0  0
   -6.1814   -0.4114    0.4266 C   0  0  0  0  0  0  0  0  0  0  0  0
   -7.4248    0.1809    0.9388 N   0  0  0  0  0  0  0  0  0  0  0  0
   -7.9240    1.2713    0.1877 C   0  0  0  0  0  0  0  0  0  0  0  0
   -8.6324    1.0009   -0.9993 N   0  0  0  0  0  0  0  0  0  0  0  0
   -7.7206    2.4516    0.6049 N   0  0  0  0  0  0  0  0  0  0  0  0
   -4.7833   -2.7694   -0.6225 C   0  0  0  0  0  0  0  0  0  0  0  0
   -6.1070   -3.2961   -0.6047 O   0  0  0  0  0  0  0  0  0  0  0  0
   -4.0794   -2.9495   -1.6201 O   0  0  0  0  0  0  0  0  0  0  0  0
   -1.2944    2.0780    1.2500 H   0  0  0  0  0  0  0  0  0  0  0  0
   -1.0356    1.1089    2.8429 H   0  0  0  0  0  0  0  0  0  0  0  0
   -2.5873    1.1608    1.9929 H   0  0  0  0  0  0  0  0  0  0  0  0
   -1.0847   -0.9673    1.6055 H   0  0  0  0  0  0  0  0  0  0  0  0
   -0.2751   -0.3117   -0.9506 H   0  0  0  0  0  0  0  0  0  0  0  0
    0.8713    2.0067    1.7677 H   0  0  0  0  0  0  0  0  0  0  0  0
    3.1107    2.8503    1.7957 H   0  0  0  0  0  0  0  0  0  0  0  0
    4.8683    1.9718    0.1914 H   0  0  0  0  0  0  0  0  0  0  0  0
    4.2881   -0.7970   -2.1268 H   0  0  0  0  0  0  0  0  0  0  0  0
    4.8315    0.9035   -2.3470 H   0  0  0  0  0  0  0  0  0  0  0  0
    7.2122   -0.0870   -2.3497 H   0  0  0  0  0  0  0  0  0  0  0  0
    8.9375   -1.1553   -1.1795 H   0  0  0  0  0  0  0  0  0  0  0  0
    7.7758   -2.1807    0.7489 H   0  0  0  0  0  0  0  0  0  0  0  0
    7.6856   -0.4313    1.4670 H   0  0  0  0  0  0  0  0  0  0  0  0
    9.2340   -1.2544    1.1441 H   0  0  0  0  0  0  0  0  0  0  0  0
    9.0371    1.0494    0.8442 H   0  0  0  0  0  0  0  0  0  0  0  0
   10.0315    0.7516   -0.6703 H   0  0  0  0  0  0  0  0  0  0  0  0
    8.4422    1.7057   -0.7394 H   0  0  0  0  0  0  0  0  0  0  0  0
    1.9826   -0.6651   -1.4014 H   0  0  0  0  0  0  0  0  0  0  0  0
   -4.2045   -0.4727   -0.5798 H   0  0  0  0  0  0  0  0  0  0  0  0
   -3.9729   -2.8080    1.3514 H   0  0  0  0  0  0  0  0  0  0  0  0
   -5.4202   -1.0435    2.3096 H   0  0  0  0  0  0  0  0  0  0  0  0
   -6.3560   -2.2877    1.4347 H   0  0  0  0  0  0  0  0  0  0  0  0
   -6.3424   -0.8235   -0.5821 H   0  0  0  0  0  0  0  0  0  0  0  0
   -5.5033    0.4786    0.3874 H   0  0  0  0  0  0  0  0  0  0  0  0
   -7.8929   -0.1699    1.7765 H   0  0  0  0  0  0  0  0  0  0  0  0
   -9.5494    0.5183   -0.9654 H   0  0  0  0  0  0  0  0  0  0  0  0
   -8.2303    1.2609   -1.9217 H   0  0  0  0  0  0  0  0  0  0  0  0
   -8.0785    3.2661    0.0661 H   0  0  0  0  0  0  0  0  0  0  0  0
   -6.5749   -3.4545   -1.5105 H   0  0  0  0  0  0  0  0  0  0  0  0
  1  2  1  0
  2  3  1  0
  3  4  1  0
  4  5  2  0
  5  6  1  0
  6  7  2  0
  7  8  1  0
  8  9  1  0
  9 10  1  0
 10 11  2  0
 10 12  1  0
 12 13  1  0
 13 14  1  0
 13 15  1  0
  8 16  2  0
  2 17  1  0
 17 18  2  0
 17 19  1  0
 19 20  1  0
 20 21  1  0
 21 22  1  0
 22 23  1  0
 23 24  1  0
 24 25  1  0
 24 26  2  3
 20 27  1  0
 27 28  1  0
 27 29  2  0
 16  4  1  0
  1 30  1  0
  1 31  1  0
  1 32  1  0
  2 33  1  1
  3 34  1  0
  5 35  1  0
  6 36  1  0
  7 37  1  0
  9 38  1  0
  9 39  1  0
 12 40  1  0
 13 41  1  0
 14 42  1  0
 14 43  1  0
 14 44  1  0
 15 45  1  0
 15 46  1  0
 15 47  1  0
 16 48  1  0
 19 49  1  0
 20 50  1  1
 21 51  1  0
 21 52  1  0
 22 53  1  0
 22 54  1  0
 23 55  1  0
 25 56  1  0
 25 57  1  0
 26 58  1  0
 28 59  1  0
M  END
$$$$
[H]OC(=O)[C@@]([H])(N([H])C(=O)c1c([H])c([H])c([H])c(-c2c([H])c([H])c(C([H])([H])O[H])c([H])c2[H])c1[H])C([H])([H])N([H])C(=O)OC([H])([H])c1sc([H])c([H])c1[H]
     RDKit          3D

 54 56  0  0  0  0  0  0  0  0999 V2000
  -10.4122    0.3617   -0.5763 O   0  0  0  0  0  0  0  0  0  0  0  0
   -9.5584    1.4581   -0.7392 C   0  0  0  0  0  0  0  0  0  0  0  0
   -8.1495    0.9820   -0.6083 C   0  0  0  0  0  0  0  0  0  0  0  0
   -7.0831    1.7833   -0.9845 C   0  0  0  0  0  0  0  0  0  0  0  0
   -5.7662    1.3952   -0.8657 C   0  0  0  0  0  0  0  0  0  0  0  0
   -5.4538    0.1434   -0.3437 C   0  0  0  0  0  0  0  0  0  0  0  0
   -6.5062   -0.6531    0.0291 C   0  0  0  0  0  0  0  0  0  0  0  0
   -7.8461   -0.2667   -0.0912 C   0  0  0  0  0  0  0  0  0  0  0  0
   -4.0578   -0.2298   -0.1859 C   0  0  0  0  0  0  0  0  0  0  0  0
   -3.5960   -1.5245   -0.2807 C   0  0  0  0  0  0  0  0  0  0  0  0
   -2.2554   -1.8425   -0.0624 C   0  0  0  0  0  0  0  0  0  0  0  0
   -1.3367   -0.8533    0.2571 C   0  0  0  0  0  0  0  0  0  0  0  0
   -1.7647    0.4206    0.3494 C   0  0  0  0  0  0  0  0  0  0  0  0
   -3.1031    0.7396    0.1335 C   0  0  0  0  0  0  0  0  0  0  0  0
   -0.7659    1.5051    0.6910 C   0  0  0  0  0  0  0  0  0  0  0  0
   -1.3904    2.4583    1.2927 O   0  0  0  0  0  0  0  0  0  0  0  0
    0.5255    1.3964    0.3786 N   0  0  0  0  0  0  0  0  0  0  0  0
    1.8849    1.2837    0.0507 C   0  0  1  0  0  0  0  0  0  0  0  0
    2.5535    0.1107    0.7834 C   0  0  0  0  0  0  0  0  0  0  0  0
    3.9830    0.0778    0.4466 N   0  0  0  0  0  0  0  0  0  0  0  0
    4.7986   -0.9703    0.9471 C   0  0  0  0  0  0  0  0  0  0  0  0
    4.3793   -1.9081    1.6663 O   0  0  0  0  0  0  0  0  0  0  0  0
    6.1562   -0.9444    0.6124 O   0  0  0  0  0  0  0  0  0  0  0  0
    7.0540   -1.9507    1.0674 C   0  0  0  0  0  0  0  0  0  0  0  0
    8.3966   -1.5129    0.5370 C   0  0  0  0  0  0  0  0  0  0  0  0
    9.2620   -0.6683    1.1775 C   0  0  0  0  0  0  0  0  0  0  0  0
   10.4132   -0.3764    0.5649 C   0  0  0  0  0  0  0  0  0  0  0  0
   10.6372   -0.9452   -0.6629 C   0  0  0  0  0  0  0  0  0  0  0  0
    9.2156   -1.8779   -0.9069 S   0  0  0  0  0  0  0  0  0  0  0  0
    1.9381    0.9609   -1.4472 C   0  0  0  0  0  0  0  0  0  0  0  0
    3.0709    0.5094   -2.0637 O   0  0  0  0  0  0  0  0  0  0  0  0
    0.8824    1.1257   -2.0886 O   0  0  0  0  0  0  0  0  0  0  0  0
  -10.9319    0.2900   -1.4508 H   0  0  0  0  0  0  0  0  0  0  0  0
   -9.6389    1.9448   -1.7213 H   0  0  0  0  0  0  0  0  0  0  0  0
   -9.8250    2.1911    0.0429 H   0  0  0  0  0  0  0  0  0  0  0  0
   -7.3469    2.7587   -1.3983 H   0  0  0  0  0  0  0  0  0  0  0  0
   -4.9478    2.0310   -1.1601 H   0  0  0  0  0  0  0  0  0  0  0  0
   -6.2342   -1.6391    0.4494 H   0  0  0  0  0  0  0  0  0  0  0  0
   -8.6384   -0.9275    0.2227 H   0  0  0  0  0  0  0  0  0  0  0  0
   -4.2880   -2.3267   -0.5369 H   0  0  0  0  0  0  0  0  0  0  0  0
   -1.9262   -2.8779   -0.1314 H   0  0  0  0  0  0  0  0  0  0  0  0
   -0.2886   -1.1315    0.4303 H   0  0  0  0  0  0  0  0  0  0  0  0
   -3.3837    1.7703    0.2141 H   0  0  0  0  0  0  0  0  0  0  0  0
    0.7762    2.6031    0.9618 H   0  0  0  0  0  0  0  0  0  0  0  0
    2.5643    2.1193    0.1812 H   0  0  0  0  0  0  0  0  0  0  0  0
    2.5224    0.3240    1.8594 H   0  0  0  0  0  0  0  0  0  0  0  0
    2.0839   -0.8464    0.5735 H   0  0  0  0  0  0  0  0  0  0  0  0
    4.4480    0.8197   -0.1472 H   0  0  0  0  0  0  0  0  0  0  0  0
    7.0352   -1.9872    2.1498 H   0  0  0  0  0  0  0  0  0  0  0  0
    6.8388   -2.9167    0.5503 H   0  0  0  0  0  0  0  0  0  0  0  0
    8.9910   -0.2479    2.1815 H   0  0  0  0  0  0  0  0  0  0  0  0
   11.1826    0.3123    1.0007 H   0  0  0  0  0  0  0  0  0  0  0  0
   11.5175   -0.8102   -1.2977 H   0  0  0  0  0  0  0  0  0  0  0  0
    3.3839   -0.4797   -2.0516 H   0  0  0  0  0  0  0  0  0  0  0  0
  1  2  1  0
  2  3  1  0
  3  4  2  0
  4  5  1  0
  5  6  2  0
  6  7  1  0
  7  8  2  0
  6  9  1  0
  9 10  2  0
 10 11  1  0
 11 12  2  0
 12 13  1  0
 13 14  2  0
 13 15  1  0
 15 16  2  0
 15 17  1  0
 17 18  1  0
 18 19  1  0
 19 20  1  0
 20 21  1  0
 21 22  2  0
 21 23  1  0
 23 24  1  0
 24 25  1  0
 25 26  2  0
 26 27  1  0
 27 28  2  0
 28 29  1  0
 18 30  1  0
 30 31  1  0
 30 32  2  0
  8  3  1  0
 14  9  1  0
 29 25  1  0
  1 33  1  0
  2 34  1  0
  2 35  1  0
  4 36  1  0
  5 37  1  0
  7 38  1  0
  8 39  1  0
 10 40  1  0
 11 41  1  0
 12 42  1  0
 14 43  1  0
 17 44  1  0
 18 45  1  6
 19 46  1  0
 19 47  1  0
 20 48  1  0
 24 49  1  0
 24 50  1  0
 26 51  1  0
 27 52  1  0
 28 53  1  0
 31 54  1  0
M  END
$$$$
[H]Oc1c([H])c([H])c([H])c(Oc2c(F)c([H])c(F)c([H])c2F)c1[H]
     RDKit          3D

 24 25  0  0  0  0  0  0  0  0999 V2000
   -3.8450    1.3355   -1.4947 O   0  0  0  0  0  0  0  0  0  0  0  0
   -3.0471    0.5768   -0.6330 C   0  0  0  0  0  0  0  0  0  0  0  0
   -3.5357    0.3258    0.6288 C   0  0  0  0  0  0  0  0  0  0  0  0
   -2.7541   -0.4210    1.4815 C   0  0  0  0  0  0  0  0  0  0  0  0
   -1.5038   -0.9118    1.0867 C   0  0  0  0  0  0  0  0  0  0  0  0
   -1.0006   -0.6716   -0.1651 C   0  0  0  0  0  0  0  0  0  0  0  0
    0.2266   -1.1380   -0.5935 O   0  0  0  0  0  0  0  0  0  0  0  0
    1.4558   -0.5403   -0.3656 C   0  0  0  0  0  0  0  0  0  0  0  0
    1.9405    0.4950   -1.1736 C   0  0  0  0  0  0  0  0  0  0  0  0
    1.2233    0.9444   -2.2219 F   0  0  0  0  0  0  0  0  0  0  0  0
    3.1872    1.0392   -0.8730 C   0  0  0  0  0  0  0  0  0  0  0  0
    3.9294    0.5706    0.1948 C   0  0  0  0  0  0  0  0  0  0  0  0
    5.1342    1.0764    0.5088 F   0  0  0  0  0  0  0  0  0  0  0  0
    3.4494   -0.4552    0.9939 C   0  0  0  0  0  0  0  0  0  0  0  0
    2.2239   -0.9911    0.6990 C   0  0  0  0  0  0  0  0  0  0  0  0
    1.7459   -2.0168    1.4481 F   0  0  0  0  0  0  0  0  0  0  0  0
   -1.8236    0.0904   -1.0045 C   0  0  0  0  0  0  0  0  0  0  0  0
   -4.5075    0.8172   -2.0868 H   0  0  0  0  0  0  0  0  0  0  0  0
   -4.4954    0.7096    0.9151 H   0  0  0  0  0  0  0  0  0  0  0  0
   -3.1124   -0.6367    2.4850 H   0  0  0  0  0  0  0  0  0  0  0  0
   -0.9637   -1.4976    1.8296 H   0  0  0  0  0  0  0  0  0  0  0  0
    3.5627    1.8412   -1.4983 H   0  0  0  0  0  0  0  0  0  0  0  0
    4.0097   -0.8440    1.8392 H   0  0  0  0  0  0  0  0  0  0  0  0
   -1.4995    0.3019   -2.0006 H   0  0  0  0  0  0  0  0  0  0  0  0
  1  2  1  0
  2  3  2  0
  3  4  1  0
  4  5  2  0
  5  6  1  0
  6  7  1  0
  7  8  1  0
  8  9  2  0
  9 10  1  0
  9 11  1  0
 11 12  2  0
 12 13  1  0
 12 14  1  0
 14 15  2  0
 15 16  1  0
  6 17  2  0
 17  2  1  0
 15  8  1  0
  1 18  1  0
  3 19  1  0
  4 20  1  0
  5 21  1  0
 11 22  1  0
 14 23  1  0
 17 24  1  0
M  END
$$$$
[H]c1nn2c(-c3c([H])c([H])c(Cl)c(Cl)c3[H])c(C(=O)N([H])[C@@]3([H])C([H])([H])N([H])C([H])([H])C([H])([H])C3([H])[H])nc2c([H])c1[H]
     RDKit          3D

 43 46  0  0  0  0  0  0  0  0999 V2000
   -3.3071   -4.1620    1.1537 Cl  0  0  0  0  0  0  0  0  0  0  0  0
   -2.8015   -2.6080    0.5640 C   0  0  0  0  0  0  0  0  0  0  0  0
   -1.8858   -2.5184   -0.4578 C   0  0  0  0  0  0  0  0  0  0  0  0
   -1.4901   -1.2639   -0.9181 C   0  0  0  0  0  0  0  0  0  0  0  0
   -2.0128   -0.0948   -0.3517 C   0  0  0  0  0  0  0  0  0  0  0  0
   -2.9217   -0.1999    0.6625 C   0  0  0  0  0  0  0  0  0  0  0  0
   -3.3131   -1.4566    1.1168 C   0  0  0  0  0  0  0  0  0  0  0  0
   -4.4877   -1.6359    2.4261 Cl  0  0  0  0  0  0  0  0  0  0  0  0
   -1.5446    1.2252   -0.7853 C   0  0  0  0  0  0  0  0  0  0  0  0
   -0.3920    1.5782   -1.3918 C   0  0  0  0  0  0  0  0  0  0  0  0
   -0.5231    2.8827   -1.7777 N   0  0  0  0  0  0  0  0  0  0  0  0
   -1.7347    3.3083   -1.4031 C   0  0  0  0  0  0  0  0  0  0  0  0
   -2.3319    4.5711   -1.5799 C   0  0  0  0  0  0  0  0  0  0  0  0
   -3.5993    4.7330   -1.1007 C   0  0  0  0  0  0  0  0  0  0  0  0
   -4.2331    3.6800   -0.4756 C   0  0  0  0  0  0  0  0  0  0  0  0
   -3.6285    2.5034   -0.3307 N   0  0  0  0  0  0  0  0  0  0  0  0
   -2.3814    2.3143   -0.7923 N   0  0  0  0  0  0  0  0  0  0  0  0
    0.9153    0.8514   -1.5205 C   0  0  0  0  0  0  0  0  0  0  0  0
    1.4473    1.0987   -2.6594 O   0  0  0  0  0  0  0  0  0  0  0  0
    1.4526    0.0500   -0.5376 N   0  0  0  0  0  0  0  0  0  0  0  0
    1.9851   -0.7441    0.4362 C   0  0  2  0  0  0  0  0  0  0  0  0
    3.3475   -0.2656    0.9817 C   0  0  0  0  0  0  0  0  0  0  0  0
    4.0396   -1.4032    1.7070 C   0  0  0  0  0  0  0  0  0  0  0  0
    4.3972   -2.5033    0.7210 C   0  0  0  0  0  0  0  0  0  0  0  0
    3.4606   -2.4703   -0.3976 N   0  0  0  0  0  0  0  0  0  0  0  0
    2.1574   -2.2086    0.0895 C   0  0  0  0  0  0  0  0  0  0  0  0
   -1.4739   -3.4340   -0.9039 H   0  0  0  0  0  0  0  0  0  0  0  0
   -0.8083   -1.2260   -1.7251 H   0  0  0  0  0  0  0  0  0  0  0  0
   -3.3522    0.6324    1.1535 H   0  0  0  0  0  0  0  0  0  0  0  0
   -1.7502    5.3454   -2.0883 H   0  0  0  0  0  0  0  0  0  0  0  0
   -4.0926    5.6962   -1.2206 H   0  0  0  0  0  0  0  0  0  0  0  0
   -5.2460    3.8163   -0.0940 H   0  0  0  0  0  0  0  0  0  0  0  0
    2.5547   -0.2006   -1.3336 H   0  0  0  0  0  0  0  0  0  0  0  0
    1.2552   -0.6886    1.3374 H   0  0  0  0  0  0  0  0  0  0  0  0
    3.9731    0.1498    0.1887 H   0  0  0  0  0  0  0  0  0  0  0  0
    3.1172    0.5081    1.7442 H   0  0  0  0  0  0  0  0  0  0  0  0
    4.9808   -1.0300    2.1386 H   0  0  0  0  0  0  0  0  0  0  0  0
    3.4217   -1.8302    2.5063 H   0  0  0  0  0  0  0  0  0  0  0  0
    4.2656   -3.4674    1.2319 H   0  0  0  0  0  0  0  0  0  0  0  0
    5.4251   -2.4335    0.3533 H   0  0  0  0  0  0  0  0  0  0  0  0
    3.7450   -1.7552   -1.0867 H   0  0  0  0  0  0  0  0  0  0  0  0
    1.3577   -2.5641   -0.5948 H   0  0  0  0  0  0  0  0  0  0  0  0
    2.0128   -2.7799    1.0416 H   0  0  0  0  0  0  0  0  0  0  0  0
  1  2  1  0
  2  3  2  0
  3  4  1  0
  4  5  2  0
  5  6  1  0
  6  7  2  0
  7  8  1  0
  5  9  1  0
  9 10  2  0
 10 11  1  0
 11 12  2  0
 12 13  1  0
 13 14  2  0
 14 15  1  0
 15 16  2  0
 16 17  1  0
 10 18  1  0
 18 19  2  0
 18 20  1  0
 20 21  1  0
 21 22  1  0
 22 23  1  0
 23 24  1  0
 24 25  1  0
 25 26  1  0
  7  2  1  0
 17  9  1  0
 26 21  1  0
 17 12  1  0
  3 27  1  0
  4 28  1  0
  6 29  1  0
 13 30  1  0
 14 31  1  0
 15 32  1  0
 20 33  1  0
 21 34  1  1
 22 35  1  0
 22 36  1  0
 23 37  1  0
 23 38  1  0
 24 39  1  0
 24 40  1  0
 25 41  1  0
 26 42  1  0
 26 43  1  0
M  END
$$$$
[H]c1nc(N([H])c2c([H])c([H])c(C([H])([H])[H])c(OC([H])([H])C([H])([H])[H])c2[H])nc2c1C(C([H])([H])[H])(C([H])([H])[H])N([H])c1nc(Br)c(Br)c([H])c1N([H])C2=O
     RDKit          3D

 54 57  0  0  0  0  0  0  0  0999 V2000
    3.9792    2.4407   -1.0579 C   0  0  0  0  0  0  0  0  0  0  0  0
    4.4526    1.3392   -1.9862 C   0  0  0  0  0  0  0  0  0  0  0  0
    5.2306    0.4323   -1.2968 O   0  0  0  0  0  0  0  0  0  0  0  0
    4.8430   -0.3577   -0.2600 C   0  0  0  0  0  0  0  0  0  0  0  0
    3.5645   -0.3779    0.2574 C   0  0  0  0  0  0  0  0  0  0  0  0
    3.1476   -1.1661    1.3003 C   0  0  0  0  0  0  0  0  0  0  0  0
    1.8527   -1.2306    1.8287 N   0  0  0  0  0  0  0  0  0  0  0  0
    0.6550   -0.9136    1.1481 C   0  0  0  0  0  0  0  0  0  0  0  0
    0.6428   -0.5271   -0.1030 N   0  0  0  0  0  0  0  0  0  0  0  0
   -0.4969   -0.2184   -0.7754 C   0  0  0  0  0  0  0  0  0  0  0  0
   -1.7275   -0.2997   -0.1544 C   0  0  0  0  0  0  0  0  0  0  0  0
   -2.6943    0.0854   -1.1406 C   0  0  0  0  0  0  0  0  0  0  0  0
   -2.9808   -1.1157   -2.0774 C   0  0  0  0  0  0  0  0  0  0  0  0
   -2.1332    1.1549   -2.0996 C   0  0  0  0  0  0  0  0  0  0  0  0
   -3.9741    0.5497   -0.7440 N   0  0  0  0  0  0  0  0  0  0  0  0
   -4.8926    0.6994    0.3209 C   0  0  0  0  0  0  0  0  0  0  0  0
   -5.8864    1.4873   -0.1103 N   0  0  0  0  0  0  0  0  0  0  0  0
   -6.9061    1.7965    0.7038 C   0  0  0  0  0  0  0  0  0  0  0  0
   -8.3119    2.9215    0.0725 Br  0  0  0  0  0  0  0  0  0  0  0  0
   -6.9942    1.3356    2.0030 C   0  0  0  0  0  0  0  0  0  0  0  0
   -8.4745    1.8034    3.1393 Br  0  0  0  0  0  0  0  0  0  0  0  0
   -5.9731    0.5308    2.4351 C   0  0  0  0  0  0  0  0  0  0  0  0
   -4.9274    0.2166    1.5927 C   0  0  0  0  0  0  0  0  0  0  0  0
   -4.0488   -0.6275    2.3545 N   0  0  0  0  0  0  0  0  0  0  0  0
   -2.6717   -0.9415    2.1965 C   0  0  0  0  0  0  0  0  0  0  0  0
   -2.2205   -1.5657    3.2021 O   0  0  0  0  0  0  0  0  0  0  0  0
   -1.6896   -0.7037    1.1461 C   0  0  0  0  0  0  0  0  0  0  0  0
   -0.5401   -1.0049    1.7905 N   0  0  0  0  0  0  0  0  0  0  0  0
    4.1206   -2.0025    1.8602 C   0  0  0  0  0  0  0  0  0  0  0  0
    5.3878   -2.0115    1.3795 C   0  0  0  0  0  0  0  0  0  0  0  0
    5.7850   -1.2159    0.3351 C   0  0  0  0  0  0  0  0  0  0  0  0
    7.1838   -1.2801   -0.1345 C   0  0  0  0  0  0  0  0  0  0  0  0
    2.8678    2.5401   -1.0608 H   0  0  0  0  0  0  0  0  0  0  0  0
    4.4372    3.3933   -1.4014 H   0  0  0  0  0  0  0  0  0  0  0  0
    4.2617    2.2298    0.0088 H   0  0  0  0  0  0  0  0  0  0  0  0
    5.0125    1.7714   -2.8510 H   0  0  0  0  0  0  0  0  0  0  0  0
    3.5379    0.8957   -2.4456 H   0  0  0  0  0  0  0  0  0  0  0  0
    2.8713    0.2975   -0.2219 H   0  0  0  0  0  0  0  0  0  0  0  0
    1.7753   -1.5466    2.8442 H   0  0  0  0  0  0  0  0  0  0  0  0
   -0.3628    0.0780   -1.7810 H   0  0  0  0  0  0  0  0  0  0  0  0
   -3.4854   -0.6957   -2.9514 H   0  0  0  0  0  0  0  0  0  0  0  0
   -3.6521   -1.8301   -1.5951 H   0  0  0  0  0  0  0  0  0  0  0  0
   -1.9995   -1.5840   -2.3068 H   0  0  0  0  0  0  0  0  0  0  0  0
   -1.7902    0.7144   -3.0573 H   0  0  0  0  0  0  0  0  0  0  0  0
   -2.9697    1.8428   -2.4233 H   0  0  0  0  0  0  0  0  0  0  0  0
   -1.4051    1.8145   -1.6078 H   0  0  0  0  0  0  0  0  0  0  0  0
   -4.4527    0.9608   -1.6128 H   0  0  0  0  0  0  0  0  0  0  0  0
   -5.9763    0.1347    3.4387 H   0  0  0  0  0  0  0  0  0  0  0  0
   -4.5434   -1.0703    3.1598 H   0  0  0  0  0  0  0  0  0  0  0  0
    3.8219   -2.6453    2.6940 H   0  0  0  0  0  0  0  0  0  0  0  0
    6.1253   -2.6788    1.8410 H   0  0  0  0  0  0  0  0  0  0  0  0
    7.3886   -2.2384   -0.6533 H   0  0  0  0  0  0  0  0  0  0  0  0
    7.8655   -1.1705    0.7386 H   0  0  0  0  0  0  0  0  0  0  0  0
    7.3706   -0.4464   -0.8666 H   0  0  0  0  0  0  0  0  0  0  0  0
  1  2  1  0
  2  3  1  0
  3  4  1  0
  4  5  2  0
  5  6  1  0
  6  7  1  0
  7  8  1  0
  8  9  2  0
  9 10  1  0
 10 11  2  0
 11 12  1  0
 12 13  1  0
 12 14  1  0
 12 15  1  0
 15 16  1  0
 16 17  2  0
 17 18  1  0
 18 19  1  0
 18 20  2  0
 20 21  1  0
 20 22  1  0
 22 23  2  0
 23 24  1  0
 24 25  1  0
 25 26  2  0
 25 27  1  0
 27 28  2  0
  6 29  2  0
 29 30  1  0
 30 31  2  0
 31 32  1  0
 31  4  1  0
 28  8  1  0
 27 11  1  0
 23 16  1  0
  1 33  1  0
  1 34  1  0
  1 35  1  0
  2 36  1  0
  2 37  1  0
  5 38  1  0
  7 39  1  0
 10 40  1  0
 13 41  1  0
 13 42  1  0
 13 43  1  0
 14 44  1  0
 14 45  1  0
 14 46  1  0
 15 47  1  0
 22 48  1  0
 24 49  1  0
 29 50  1  0
 30 51  1  0
 32 52  1  0
 32 53  1  0
 32 54  1  0
M  END
$$$$
[H]c1nc([H])c(C(=O)OC2([H])C([H])([H])C3([H])N(C([H])([H])[H])C([H])(C([H])([H])C3([H])[H])C2([H])[H])c([H])c1[H]
     RDKit          3D

 36 38  0  0  0  0  0  0  0  0999 V2000
   -4.1099   -1.4740   -0.6172 C   0  0  0  0  0  0  0  0  0  0  0  0
   -2.7196   -1.1016   -0.4830 N   0  0  0  0  0  0  0  0  0  0  0  0
   -2.3631   -0.7914    0.8854 C   0  0  0  0  0  0  0  0  0  0  0  0
   -2.9775    0.5637    1.1325 C   0  0  0  0  0  0  0  0  0  0  0  0
   -2.8531    1.2361   -0.1997 C   0  0  0  0  0  0  0  0  0  0  0  0
   -2.4318    0.1489   -1.1508 C   0  0  0  0  0  0  0  0  0  0  0  0
   -0.9122    0.1595   -1.3763 C   0  0  0  0  0  0  0  0  0  0  0  0
   -0.2666    0.2498   -0.0303 C   0  0  0  0  0  0  0  0  0  0  0  0
   -0.8671   -0.6804    0.9844 C   0  0  0  0  0  0  0  0  0  0  0  0
    1.1131    0.0018   -0.0362 O   0  0  0  0  0  0  0  0  0  0  0  0
    2.0858    0.8890    0.3517 C   0  0  0  0  0  0  0  0  0  0  0  0
    1.7540    2.0071    0.7439 O   0  0  0  0  0  0  0  0  0  0  0  0
    3.4911    0.5176    0.3018 C   0  0  0  0  0  0  0  0  0  0  0  0
    3.8902   -0.7252   -0.1322 C   0  0  0  0  0  0  0  0  0  0  0  0
    5.2359   -1.0278   -0.1603 C   0  0  0  0  0  0  0  0  0  0  0  0
    6.1215   -0.0508    0.2554 C   0  0  0  0  0  0  0  0  0  0  0  0
    5.7184    1.1508    0.6739 N   0  0  0  0  0  0  0  0  0  0  0  0
    4.4188    1.4402    0.7001 C   0  0  0  0  0  0  0  0  0  0  0  0
   -4.1487   -2.4788   -1.0579 H   0  0  0  0  0  0  0  0  0  0  0  0
   -4.5672   -0.7759   -1.3626 H   0  0  0  0  0  0  0  0  0  0  0  0
   -4.6887   -1.3597    0.3148 H   0  0  0  0  0  0  0  0  0  0  0  0
   -2.6980   -1.5663    1.5836 H   0  0  0  0  0  0  0  0  0  0  0  0
   -2.4210    1.0964    1.9371 H   0  0  0  0  0  0  0  0  0  0  0  0
   -4.0362    0.4299    1.4275 H   0  0  0  0  0  0  0  0  0  0  0  0
   -3.8744    1.5857   -0.5104 H   0  0  0  0  0  0  0  0  0  0  0  0
   -2.2031    2.1103   -0.2028 H   0  0  0  0  0  0  0  0  0  0  0  0
   -2.8973    0.2242   -2.1463 H   0  0  0  0  0  0  0  0  0  0  0  0
   -0.7223    1.0520   -1.9833 H   0  0  0  0  0  0  0  0  0  0  0  0
   -0.6920   -0.7939   -1.8975 H   0  0  0  0  0  0  0  0  0  0  0  0
   -0.4122    1.2920    0.3454 H   0  0  0  0  0  0  0  0  0  0  0  0
   -0.4462   -1.6991    0.7719 H   0  0  0  0  0  0  0  0  0  0  0  0
   -0.5571   -0.3399    1.9933 H   0  0  0  0  0  0  0  0  0  0  0  0
    3.1477   -1.4723   -0.4541 H   0  0  0  0  0  0  0  0  0  0  0  0
    5.5741   -2.0078   -0.5011 H   0  0  0  0  0  0  0  0  0  0  0  0
    7.1769   -0.2541    0.2459 H   0  0  0  0  0  0  0  0  0  0  0  0
    4.1377    2.4439    1.0531 H   0  0  0  0  0  0  0  0  0  0  0  0
  1  2  1  0
  2  3  1  0
  3  4  1  0
  4  5  1  0
  5  6  1  0
  6  7  1  0
  7  8  1  0
  8  9  1  0
  8 10  1  0
 10 11  1  0
 11 12  2  0
 11 13  1  0
 13 14  2  0
 14 15  1  0
 15 16  2  0
 16 17  1  0
 17 18  2  0
  6  2  1  0
 18 13  1  0
  9  3  1  0
  1 19  1  0
  1 20  1  0
  1 21  1  0
  3 22  1  0
  4 23  1  0
  4 24  1  0
  5 25  1  0
  5 26  1  0
  6 27  1  0
  7 28  1  0
  7 29  1  0
  8 30  1  0
  9 31  1  0
  9 32  1  0
 14 33  1  0
 15 34  1  0
 16 35  1  0
 18 36  1  0
M  END
$$$$
[H]c1c([H])c([H])c(-c2nc([C@]([H])(c3c([H])c([H])c([H])c([H])c3[H])N([H])C(=O)c3c([H])c([H])c(I)c([H])c3-n3c([H])nc(C([H])([H])[H])c3[H])c([H])n2[H])c([H])c1[H]
     RDKit          3D

 56 60  0  0  0  0  0  0  0  0999 V2000
   -7.1522   -0.3829    2.3771 C   0  0  0  0  0  0  0  0  0  0  0  0
   -5.9470   -0.2378    1.5181 C   0  0  0  0  0  0  0  0  0  0  0  0
   -5.5795    0.7463    0.6472 C   0  0  0  0  0  0  0  0  0  0  0  0
   -4.3845    0.4475    0.0610 N   0  0  0  0  0  0  0  0  0  0  0  0
   -4.0073   -0.7139    0.5638 C   0  0  0  0  0  0  0  0  0  0  0  0
   -4.9552   -1.1404    1.4546 N   0  0  0  0  0  0  0  0  0  0  0  0
   -3.7610    1.2820   -0.9021 C   0  0  0  0  0  0  0  0  0  0  0  0
   -4.5585    1.7872   -1.9567 C   0  0  0  0  0  0  0  0  0  0  0  0
   -3.9937    2.6299   -2.8613 C   0  0  0  0  0  0  0  0  0  0  0  0
   -5.1636    3.3853   -4.4309 I   0  0  0  0  0  0  0  0  0  0  0  0
   -2.6602    3.0174   -2.7944 C   0  0  0  0  0  0  0  0  0  0  0  0
   -1.9043    2.5144   -1.7644 C   0  0  0  0  0  0  0  0  0  0  0  0
   -2.4521    1.6345   -0.8039 C   0  0  0  0  0  0  0  0  0  0  0  0
   -1.5361    1.0959    0.1953 C   0  0  0  0  0  0  0  0  0  0  0  0
   -1.5572    1.4955    1.3816 O   0  0  0  0  0  0  0  0  0  0  0  0
   -0.6201    0.1076   -0.2597 N   0  0  0  0  0  0  0  0  0  0  0  0
    0.3835   -0.5550    0.5201 C   0  0  1  0  0  0  0  0  0  0  0  0
    0.4818   -2.0078    0.2887 C   0  0  0  0  0  0  0  0  0  0  0  0
    0.4781   -2.4790   -0.9906 C   0  0  0  0  0  0  0  0  0  0  0  0
    0.5866   -3.8239   -1.2243 C   0  0  0  0  0  0  0  0  0  0  0  0
    0.7038   -4.7399   -0.1916 C   0  0  0  0  0  0  0  0  0  0  0  0
    0.7041   -4.2216    1.0898 C   0  0  0  0  0  0  0  0  0  0  0  0
    0.5956   -2.8770    1.3532 C   0  0  0  0  0  0  0  0  0  0  0  0
    1.7163    0.0134    0.0976 C   0  0  0  0  0  0  0  0  0  0  0  0
    1.9432    0.6146   -1.1110 C   0  0  0  0  0  0  0  0  0  0  0  0
    3.2163    0.9589   -1.1778 N   0  0  0  0  0  0  0  0  0  0  0  0
    3.8441    0.5933   -0.0214 C   0  0  0  0  0  0  0  0  0  0  0  0
    2.8880    0.0178    0.7323 N   0  0  0  0  0  0  0  0  0  0  0  0
    5.2480    0.8033    0.2264 C   0  0  0  0  0  0  0  0  0  0  0  0
    5.8779    0.4002    1.3770 C   0  0  0  0  0  0  0  0  0  0  0  0
    7.2221    0.5885    1.5981 C   0  0  0  0  0  0  0  0  0  0  0  0
    7.9997    1.2052    0.6454 C   0  0  0  0  0  0  0  0  0  0  0  0
    7.4030    1.6224   -0.5175 C   0  0  0  0  0  0  0  0  0  0  0  0
    6.0435    1.4239   -0.7241 C   0  0  0  0  0  0  0  0  0  0  0  0
   -7.7488   -1.2944    2.0539 H   0  0  0  0  0  0  0  0  0  0  0  0
   -6.9136   -0.4632    3.4439 H   0  0  0  0  0  0  0  0  0  0  0  0
   -7.8475    0.4603    2.2187 H   0  0  0  0  0  0  0  0  0  0  0  0
   -6.1613    1.6198    0.4691 H   0  0  0  0  0  0  0  0  0  0  0  0
   -3.1158   -1.2912    0.3455 H   0  0  0  0  0  0  0  0  0  0  0  0
   -5.5857    1.4772   -1.9935 H   0  0  0  0  0  0  0  0  0  0  0  0
   -2.2655    3.6828   -3.5374 H   0  0  0  0  0  0  0  0  0  0  0  0
   -0.8742    2.7690   -1.6650 H   0  0  0  0  0  0  0  0  0  0  0  0
   -0.6604   -0.1901   -1.2848 H   0  0  0  0  0  0  0  0  0  0  0  0
    0.3149   -0.2902    1.6104 H   0  0  0  0  0  0  0  0  0  0  0  0
    0.3920   -1.8454   -1.8643 H   0  0  0  0  0  0  0  0  0  0  0  0
    0.5850   -4.1971   -2.2410 H   0  0  0  0  0  0  0  0  0  0  0  0
    0.7903   -5.8065   -0.3902 H   0  0  0  0  0  0  0  0  0  0  0  0
    0.7978   -4.9450    1.9060 H   0  0  0  0  0  0  0  0  0  0  0  0
    0.6028   -2.5278    2.3844 H   0  0  0  0  0  0  0  0  0  0  0  0
    1.1700    0.7674   -1.8628 H   0  0  0  0  0  0  0  0  0  0  0  0
    3.6806    1.4326   -1.9709 H   0  0  0  0  0  0  0  0  0  0  0  0
    5.3090   -0.0844    2.1442 H   0  0  0  0  0  0  0  0  0  0  0  0
    7.6982    0.2647    2.5084 H   0  0  0  0  0  0  0  0  0  0  0  0
    9.0779    1.3677    0.8121 H   0  0  0  0  0  0  0  0  0  0  0  0
    8.0120    2.1153   -1.2956 H   0  0  0  0  0  0  0  0  0  0  0  0
    5.6391    1.7730   -1.6396 H   0  0  0  0  0  0  0  0  0  0  0  0
  1  2  1  0
  2  3  2  0
  3  4  1  0
  4  5  1  0
  5  6  2  0
  4  7  1  0
  7  8  2  0
  8  9  1  0
  9 10  1  0
  9 11  2  0
 11 12  1  0
 12 13  2  0
 13 14  1  0
 14 15  2  0
 14 16  1  0
 16 17  1  0
 17 18  1  0
 18 19  2  0
 19 20  1  0
 20 21  2  0
 21 22  1  0
 22 23  2  0
 17 24  1  0
 24 25  2  0
 25 26  1  0
 26 27  1  0
 27 28  2  0
 27 29  1  0
 29 30  2  0
 30 31  1  0
 31 32  2  0
 32 33  1  0
 33 34  2  0
  6  2  1  0
 13  7  1  0
 23 18  1  0
 28 24  1  0
 34 29  1  0
  1 35  1  0
  1 36  1  0
  1 37  1  0
  3 38  1  0
  5 39  1  0
  8 40  1  0
 11 41  1  0
 12 42  1  0
 16 43  1  0
 17 44  1  1
 19 45  1  0
 20 46  1  0
 21 47  1  0
 22 48  1  0
 23 49  1  0
 25 50  1  0
 26 51  1  0
 30 52  1  0
 31 53  1  0
 32 54  1  0
 33 55  1  0
 34 56  1  0
M  END
$$$$
[H]c1c([H])c([H])c(C([H])(C([H])([H])C([H])([H])C([H])([H])[H])C([H])([H])C([H])([H])C([H])([H])[H])c(-n2c(=O)n([H])c3c([H])c([H])c([H])c([H])c32)c1[H]
     RDKit          3D

 47 49  0  0  0  0  0  0  0  0999 V2000
   -3.0878    2.6472   -0.8885 C   0  0  0  0  0  0  0  0  0  0  0  0
   -2.3219    2.5294    0.3596 C   0  0  0  0  0  0  0  0  0  0  0  0
   -1.8863    1.2377    0.9131 C   0  0  0  0  0  0  0  0  0  0  0  0
   -0.9343    0.3585    0.1597 C   0  0  0  0  0  0  0  0  0  0  0  0
   -1.4925   -0.1629   -1.1003 C   0  0  0  0  0  0  0  0  0  0  0  0
   -2.7154   -1.0110   -1.0501 C   0  0  0  0  0  0  0  0  0  0  0  0
   -2.6057   -2.3065   -0.2983 C   0  0  0  0  0  0  0  0  0  0  0  0
   -0.2645   -0.5894    1.0654 C   0  0  0  0  0  0  0  0  0  0  0  0
   -0.9251   -0.9019    2.2551 C   0  0  0  0  0  0  0  0  0  0  0  0
   -0.4102   -1.8078    3.1527 C   0  0  0  0  0  0  0  0  0  0  0  0
    0.7811   -2.4456    2.9148 C   0  0  0  0  0  0  0  0  0  0  0  0
    1.4326   -2.1519    1.7678 C   0  0  0  0  0  0  0  0  0  0  0  0
    0.9157   -1.2195    0.8331 C   0  0  0  0  0  0  0  0  0  0  0  0
    1.7691   -0.9749   -0.2697 N   0  0  0  0  0  0  0  0  0  0  0  0
    2.5799    0.1051   -0.4167 C   0  0  0  0  0  0  0  0  0  0  0  0
    2.8430    1.2420    0.3403 C   0  0  0  0  0  0  0  0  0  0  0  0
    3.7536    2.2126   -0.0463 C   0  0  0  0  0  0  0  0  0  0  0  0
    4.4439    2.0680   -1.2319 C   0  0  0  0  0  0  0  0  0  0  0  0
    4.1874    0.9440   -1.9852 C   0  0  0  0  0  0  0  0  0  0  0  0
    3.2820   -0.0239   -1.6027 C   0  0  0  0  0  0  0  0  0  0  0  0
    2.8566   -1.1909   -2.1214 N   0  0  0  0  0  0  0  0  0  0  0  0
    1.9416   -1.7739   -1.3221 C   0  0  0  0  0  0  0  0  0  0  0  0
    1.3489   -2.8916   -1.5374 O   0  0  0  0  0  0  0  0  0  0  0  0
   -2.4330    2.8627   -1.7949 H   0  0  0  0  0  0  0  0  0  0  0  0
   -3.7470    1.8130   -1.1625 H   0  0  0  0  0  0  0  0  0  0  0  0
   -3.7309    3.5931   -0.7905 H   0  0  0  0  0  0  0  0  0  0  0  0
   -1.3342    3.1234    0.2129 H   0  0  0  0  0  0  0  0  0  0  0  0
   -2.8712    3.1405    1.1506 H   0  0  0  0  0  0  0  0  0  0  0  0
   -2.8308    0.6695    1.1766 H   0  0  0  0  0  0  0  0  0  0  0  0
   -1.4300    1.4767    1.9364 H   0  0  0  0  0  0  0  0  0  0  0  0
   -0.1310    1.1157   -0.1991 H   0  0  0  0  0  0  0  0  0  0  0  0
   -1.7092    0.6943   -1.7831 H   0  0  0  0  0  0  0  0  0  0  0  0
   -0.7443   -0.7498   -1.7016 H   0  0  0  0  0  0  0  0  0  0  0  0
   -3.6269   -0.4766   -0.6934 H   0  0  0  0  0  0  0  0  0  0  0  0
   -2.9940   -1.2850   -2.1153 H   0  0  0  0  0  0  0  0  0  0  0  0
   -3.1960   -3.1100   -0.8640 H   0  0  0  0  0  0  0  0  0  0  0  0
   -1.6021   -2.7113   -0.1988 H   0  0  0  0  0  0  0  0  0  0  0  0
   -3.1633   -2.2670    0.6726 H   0  0  0  0  0  0  0  0  0  0  0  0
   -1.8704   -0.4594    2.5470 H   0  0  0  0  0  0  0  0  0  0  0  0
   -0.9238   -2.0601    4.0935 H   0  0  0  0  0  0  0  0  0  0  0  0
    1.1887   -3.1682    3.6310 H   0  0  0  0  0  0  0  0  0  0  0  0
    2.3723   -2.6408    1.5507 H   0  0  0  0  0  0  0  0  0  0  0  0
    2.3068    1.3867    1.2941 H   0  0  0  0  0  0  0  0  0  0  0  0
    3.9108    3.0721    0.5888 H   0  0  0  0  0  0  0  0  0  0  0  0
    5.1509    2.8397   -1.5160 H   0  0  0  0  0  0  0  0  0  0  0  0
    4.7294    0.8347   -2.9132 H   0  0  0  0  0  0  0  0  0  0  0  0
    3.1875   -1.5869   -3.0128 H   0  0  0  0  0  0  0  0  0  0  0  0
  1  2  1  0
  2  3  1  0
  3  4  1  0
  4  5  1  0
  5  6  1  0
  6  7  1  0
  4  8  1  0
  8  9  2  0
  9 10  1  0
 10 11  2  0
 11 12  1  0
 12 13  2  0
 13 14  1  0
 14 15  1  0
 15 16  2  0
 16 17  1  0
 17 18  2  0
 18 19  1  0
 19 20  2  0
 20 21  1  0
 21 22  1  0
 22 23  2  0
 13  8  1  0
 22 14  1  0
 20 15  1  0
  1 24  1  0
  1 25  1  0
  1 26  1  0
  2 27  1  0
  2 28  1  0
  3 29  1  0
  3 30  1  0
  4 31  1  0
  5 32  1  0
  5 33  1  0
  6 34  1  0
  6 35  1  0
  7 36  1  0
  7 37  1  0
  7 38  1  0
  9 39  1  0
 10 40  1  0
 11 41  1  0
 12 42  1  0
 16 43  1  0
 17 44  1  0
 18 45  1  0
 19 46  1  0
 21 47  1  0
M  END
$$$$
[H]c1c([H])c(-c2c([H])c(OC([H])([H])[H])c(OC([H])([H])[H])c(OC([H])([H])[H])c2[H])c(C([H])([H])[H])c([H])c1C(=O)N([H])[H]
     RDKit          3D

 41 42  0  0  0  0  0  0  0  0999 V2000
   -2.6762    3.2844    1.1787 C   0  0  0  0  0  0  0  0  0  0  0  0
   -3.2881    2.0796    0.7764 O   0  0  0  0  0  0  0  0  0  0  0  0
   -2.4595    1.0177    0.4161 C   0  0  0  0  0  0  0  0  0  0  0  0
   -1.0898    1.1405    0.4515 C   0  0  0  0  0  0  0  0  0  0  0  0
   -0.2249    0.0970    0.0972 C   0  0  0  0  0  0  0  0  0  0  0  0
   -0.8441   -1.0692   -0.2919 C   0  0  0  0  0  0  0  0  0  0  0  0
   -2.2324   -1.2173   -0.3359 C   0  0  0  0  0  0  0  0  0  0  0  0
   -2.8387   -2.3873   -0.7265 O   0  0  0  0  0  0  0  0  0  0  0  0
   -2.1651   -3.5491   -1.1197 C   0  0  0  0  0  0  0  0  0  0  0  0
   -3.0453   -0.1641    0.0214 C   0  0  0  0  0  0  0  0  0  0  0  0
   -4.4310   -0.2422    0.0009 O   0  0  0  0  0  0  0  0  0  0  0  0
   -5.1938   -0.6632    1.1138 C   0  0  0  0  0  0  0  0  0  0  0  0
    1.2138    0.2545    0.1704 C   0  0  0  0  0  0  0  0  0  0  0  0
    1.8379    0.6887    1.3495 C   0  0  0  0  0  0  0  0  0  0  0  0
    3.2089    0.8061    1.3846 C   0  0  0  0  0  0  0  0  0  0  0  0
    4.0192    0.5159    0.3071 C   0  0  0  0  0  0  0  0  0  0  0  0
    3.4055    0.0922   -0.8439 C   0  0  0  0  0  0  0  0  0  0  0  0
    2.0105   -0.0306   -0.8909 C   0  0  0  0  0  0  0  0  0  0  0  0
    1.4276   -0.4727   -2.1747 C   0  0  0  0  0  0  0  0  0  0  0  0
    5.4411    0.6740    0.4557 C   0  0  0  0  0  0  0  0  0  0  0  0
    6.3090    0.3862   -0.6280 N   0  0  0  0  0  0  0  0  0  0  0  0
    5.9488    1.0647    1.5306 O   0  0  0  0  0  0  0  0  0  0  0  0
   -1.9178    3.6528    0.4635 H   0  0  0  0  0  0  0  0  0  0  0  0
   -3.4269    4.1047    1.2750 H   0  0  0  0  0  0  0  0  0  0  0  0
   -2.1629    3.1781    2.1687 H   0  0  0  0  0  0  0  0  0  0  0  0
   -0.6532    2.0761    0.7641 H   0  0  0  0  0  0  0  0  0  0  0  0
   -0.2404   -1.9366   -0.5792 H   0  0  0  0  0  0  0  0  0  0  0  0
   -2.9113   -4.3899   -1.0853 H   0  0  0  0  0  0  0  0  0  0  0  0
   -1.3350   -3.8348   -0.4578 H   0  0  0  0  0  0  0  0  0  0  0  0
   -1.8777   -3.4393   -2.1747 H   0  0  0  0  0  0  0  0  0  0  0  0
   -5.1669    0.1441    1.8603 H   0  0  0  0  0  0  0  0  0  0  0  0
   -6.1967   -0.9771    0.8056 H   0  0  0  0  0  0  0  0  0  0  0  0
   -4.6356   -1.5309    1.5688 H   0  0  0  0  0  0  0  0  0  0  0  0
    1.2050    0.9171    2.1964 H   0  0  0  0  0  0  0  0  0  0  0  0
    3.6579    1.1433    2.3087 H   0  0  0  0  0  0  0  0  0  0  0  0
    4.0238   -0.1400   -1.6992 H   0  0  0  0  0  0  0  0  0  0  0  0
    1.4401   -1.5802   -2.1968 H   0  0  0  0  0  0  0  0  0  0  0  0
    0.4126   -0.0956   -2.3768 H   0  0  0  0  0  0  0  0  0  0  0  0
    2.1243   -0.1757   -2.9980 H   0  0  0  0  0  0  0  0  0  0  0  0
    6.0962   -0.2993   -1.3862 H   0  0  0  0  0  0  0  0  0  0  0  0
    7.2312    0.8779   -0.6997 H   0  0  0  0  0  0  0  0  0  0  0  0
  1  2  1  0
  2  3  1  0
  3  4  2  0
  4  5  1  0
  5  6  2  0
  6  7  1  0
  7  8  1  0
  8  9  1  0
  7 10  2  0
 10 11  1  0
 11 12  1  0
  5 13  1  0
 13 14  2  0
 14 15  1  0
 15 16  2  0
 16 17  1  0
 17 18  2  0
 18 19  1  0
 16 20  1  0
 20 21  1  0
 20 22  2  0
 10  3  1  0
 18 13  1  0
  1 23  1  0
  1 24  1  0
  1 25  1  0
  4 26  1  0
  6 27  1  0
  9 28  1  0
  9 29  1  0
  9 30  1  0
 12 31  1  0
 12 32  1  0
 12 33  1  0
 14 34  1  0
 15 35  1  0
 17 36  1  0
 19 37  1  0
 19 38  1  0
 19 39  1  0
 21 40  1  0
 21 41  1  0
M  END
$$$$
[H]OC(=O)C1([H])C([H])([H])C([H])([H])C([H])(c2nc3c(nc(N([H])C(=O)c4nc([H])c(N5C([H])([H])C([H])([H])OC([H])([H])C5([H])[H])c5sc([H])c([H])c45)n3C([H])([H])c3c([H])c([H])c(F)c([H])c3F)c([H])c2[H])C([H])([H])C1([H])[H]
     RDKit          3D

 75 81  0  0  0  0  0  0  0  0999 V2000
  -10.4483    1.1843    1.0901 O   0  0  0  0  0  0  0  0  0  0  0  0
   -9.4722    1.3794    0.1251 C   0  0  0  0  0  0  0  0  0  0  0  0
   -9.2962    2.5534   -0.2828 O   0  0  0  0  0  0  0  0  0  0  0  0
   -8.6428    0.2438   -0.4273 C   0  0  0  0  0  0  0  0  0  0  0  0
   -7.9185   -0.3585    0.7081 C   0  0  0  0  0  0  0  0  0  0  0  0
   -6.4351   -0.4097    0.6302 C   0  0  0  0  0  0  0  0  0  0  0  0
   -5.9892    0.9013   -0.0352 C   0  0  0  0  0  0  0  0  0  0  0  0
   -6.3852    0.7497   -1.4674 C   0  0  0  0  0  0  0  0  0  0  0  0
   -7.8664    0.7651   -1.5683 C   0  0  0  0  0  0  0  0  0  0  0  0
   -4.5502    1.1409    0.1804 C   0  0  0  0  0  0  0  0  0  0  0  0
   -4.1995    2.2642    0.9173 C   0  0  0  0  0  0  0  0  0  0  0  0
   -2.8883    2.5788    1.1773 C   0  0  0  0  0  0  0  0  0  0  0  0
   -1.9138    1.7133    0.6646 C   0  0  0  0  0  0  0  0  0  0  0  0
   -0.5968    1.7048    0.6896 N   0  0  0  0  0  0  0  0  0  0  0  0
   -0.0963    0.6322    0.0053 C   0  0  0  0  0  0  0  0  0  0  0  0
    1.2888    0.3804   -0.1568 N   0  0  0  0  0  0  0  0  0  0  0  0
    2.2538    1.2669    0.4683 C   0  0  0  0  0  0  0  0  0  0  0  0
    1.7865    2.2068    1.1431 O   0  0  0  0  0  0  0  0  0  0  0  0
    3.6808    1.0301    0.2881 C   0  0  0  0  0  0  0  0  0  0  0  0
    4.0109   -0.0199   -0.4766 N   0  0  0  0  0  0  0  0  0  0  0  0
    5.2484   -0.4220   -0.7732 C   0  0  0  0  0  0  0  0  0  0  0  0
    6.2601    0.3381   -0.2240 C   0  0  0  0  0  0  0  0  0  0  0  0
    7.6218    0.0542   -0.4353 N   0  0  0  0  0  0  0  0  0  0  0  0
    8.4528    1.0420   -1.0910 C   0  0  0  0  0  0  0  0  0  0  0  0
    9.8595    0.8739   -0.5012 C   0  0  0  0  0  0  0  0  0  0  0  0
   10.3382   -0.3208   -0.9780 O   0  0  0  0  0  0  0  0  0  0  0  0
    9.5414   -1.4139   -0.7728 C   0  0  0  0  0  0  0  0  0  0  0  0
    8.2676   -1.1736   -0.0361 C   0  0  0  0  0  0  0  0  0  0  0  0
    5.9661    1.4491    0.5849 C   0  0  0  0  0  0  0  0  0  0  0  0
    6.9137    2.6027    1.4224 S   0  0  0  0  0  0  0  0  0  0  0  0
    5.6706    3.5347    2.1051 C   0  0  0  0  0  0  0  0  0  0  0  0
    4.5323    2.9127    1.6555 C   0  0  0  0  0  0  0  0  0  0  0  0
    4.6802    1.8331    0.8685 C   0  0  0  0  0  0  0  0  0  0  0  0
   -1.1560   -0.0623   -0.4662 N   0  0  0  0  0  0  0  0  0  0  0  0
   -1.0486   -1.2457   -1.2607 C   0  0  0  0  0  0  0  0  0  0  0  0
   -0.9043   -2.5447   -0.5801 C   0  0  0  0  0  0  0  0  0  0  0  0
    0.3721   -3.1406   -0.4671 C   0  0  0  0  0  0  0  0  0  0  0  0
    0.5768   -4.3403    0.1593 C   0  0  0  0  0  0  0  0  0  0  0  0
   -0.4606   -5.0336    0.7156 C   0  0  0  0  0  0  0  0  0  0  0  0
   -0.2951   -6.2254    1.3448 F   0  0  0  0  0  0  0  0  0  0  0  0
   -1.7092   -4.5062    0.6340 C   0  0  0  0  0  0  0  0  0  0  0  0
   -1.9078   -3.2860   -0.0052 C   0  0  0  0  0  0  0  0  0  0  0  0
   -3.1859   -2.8853   -0.0625 F   0  0  0  0  0  0  0  0  0  0  0  0
   -2.2932    0.5972   -0.0679 C   0  0  0  0  0  0  0  0  0  0  0  0
   -3.5916    0.3430   -0.2891 N   0  0  0  0  0  0  0  0  0  0  0  0
  -10.6364    1.8449    1.8211 H   0  0  0  0  0  0  0  0  0  0  0  0
   -9.4324   -0.4808   -0.8004 H   0  0  0  0  0  0  0  0  0  0  0  0
   -8.2604   -1.4303    0.8344 H   0  0  0  0  0  0  0  0  0  0  0  0
   -8.1821    0.1108    1.6868 H   0  0  0  0  0  0  0  0  0  0  0  0
   -6.0159   -0.4829    1.6478 H   0  0  0  0  0  0  0  0  0  0  0  0
   -6.0601   -1.2478   -0.0203 H   0  0  0  0  0  0  0  0  0  0  0  0
   -6.6266    1.6818    0.4225 H   0  0  0  0  0  0  0  0  0  0  0  0
   -5.9275   -0.1709   -1.9306 H   0  0  0  0  0  0  0  0  0  0  0  0
   -5.9697    1.5868   -2.0745 H   0  0  0  0  0  0  0  0  0  0  0  0
   -8.1292    0.1595   -2.4877 H   0  0  0  0  0  0  0  0  0  0  0  0
   -8.1863    1.8036   -1.8570 H   0  0  0  0  0  0  0  0  0  0  0  0
   -4.9818    2.9228    1.3054 H   0  0  0  0  0  0  0  0  0  0  0  0
   -2.5564    3.4262    1.7364 H   0  0  0  0  0  0  0  0  0  0  0  0
    1.6797   -0.3876   -0.7085 H   0  0  0  0  0  0  0  0  0  0  0  0
    5.4778   -1.2726   -1.3925 H   0  0  0  0  0  0  0  0  0  0  0  0
    8.1255    2.0708   -0.9459 H   0  0  0  0  0  0  0  0  0  0  0  0
    8.4940    0.8183   -2.1841 H   0  0  0  0  0  0  0  0  0  0  0  0
   10.4626    1.6856   -0.9241 H   0  0  0  0  0  0  0  0  0  0  0  0
    9.7657    0.8984    0.5945 H   0  0  0  0  0  0  0  0  0  0  0  0
    9.3436   -1.8836   -1.7686 H   0  0  0  0  0  0  0  0  0  0  0  0
   10.1469   -2.1835   -0.2175 H   0  0  0  0  0  0  0  0  0  0  0  0
    7.5906   -2.0490   -0.2594 H   0  0  0  0  0  0  0  0  0  0  0  0
    8.4123   -1.2238    1.0762 H   0  0  0  0  0  0  0  0  0  0  0  0
    5.7151    4.4271    2.7552 H   0  0  0  0  0  0  0  0  0  0  0  0
    3.5549    3.3476    1.9753 H   0  0  0  0  0  0  0  0  0  0  0  0
   -1.9611   -1.2873   -1.9273 H   0  0  0  0  0  0  0  0  0  0  0  0
   -0.1324   -1.1201   -1.9125 H   0  0  0  0  0  0  0  0  0  0  0  0
    1.2184   -2.6273   -0.9070 H   0  0  0  0  0  0  0  0  0  0  0  0
    1.5655   -4.8002    0.2465 H   0  0  0  0  0  0  0  0  0  0  0  0
   -2.5656   -5.0238    1.0631 H   0  0  0  0  0  0  0  0  0  0  0  0
  1  2  1  0
  2  3  2  0
  2  4  1  0
  4  5  1  0
  5  6  1  0
  6  7  1  0
  7  8  1  0
  8  9  1  0
  7 10  1  0
 10 11  2  0
 11 12  1  0
 12 13  2  0
 13 14  1  0
 14 15  2  0
 15 16  1  0
 16 17  1  0
 17 18  2  0
 17 19  1  0
 19 20  2  0
 20 21  1  0
 21 22  2  0
 22 23  1  0
 23 24  1  0
 24 25  1  0
 25 26  1  0
 26 27  1  0
 27 28  1  0
 22 29  1  0
 29 30  1  0
 30 31  1  0
 31 32  2  0
 32 33  1  0
 15 34  1  0
 34 35  1  0
 35 36  1  0
 36 37  2  0
 37 38  1  0
 38 39  2  0
 39 40  1  0
 39 41  1  0
 41 42  2  0
 42 43  1  0
 34 44  1  0
 44 45  2  0
  9  4  1  0
 45 10  1  0
 44 13  1  0
 33 19  1  0
 42 36  1  0
 28 23  1  0
 33 29  2  0
  1 46  1  0
  4 47  1  0
  5 48  1  0
  5 49  1  0
  6 50  1  0
  6 51  1  0
  7 52  1  0
  8 53  1  0
  8 54  1  0
  9 55  1  0
  9 56  1  0
 11 57  1  0
 12 58  1  0
 16 59  1  0
 21 60  1  0
 24 61  1  0
 24 62  1  0
 25 63  1  0
 25 64  1  0
 27 65  1  0
 27 66  1  0
 28 67  1  0
 28 68  1  0
 31 69  1  0
 32 70  1  0
 35 71  1  0
 35 72  1  0
 37 73  1  0
 38 74  1  0
 41 75  1  0
M  END
$$$$
[H]ON([H])C(=O)[C@]([H])(N([H])S(=O)(=O)c1c([H])c([H])c(-c2c([H])c([H])c(Cl)c([H])c2[H])c([H])c1[H])C([H])(C([H])([H])[H])C([H])([H])[H]
     RDKit          3D

 44 45  0  0  0  0  0  0  0  0999 V2000
   -2.6505    1.3266    1.1346 C   0  0  0  0  0  0  0  0  0  0  0  0
   -2.3676   -0.1114    0.9109 C   0  0  0  0  0  0  0  0  0  0  0  0
   -3.0405   -1.0081    1.9443 C   0  0  0  0  0  0  0  0  0  0  0  0
   -2.7513   -0.6086   -0.4854 C   0  0  1  0  0  0  0  0  0  0  0  0
   -2.3746   -2.0251   -0.4650 N   0  0  0  0  0  0  0  0  0  0  0  0
   -1.1196   -2.3913   -1.5610 S   0  0  0  0  0  0  0  0  0  0  0  0
   -0.7811   -3.8337   -1.6050 O   0  0  0  0  0  0  0  0  0  0  0  0
   -1.4648   -1.9649   -2.9662 O   0  0  0  0  0  0  0  0  0  0  0  0
    0.3052   -1.4699   -1.0976 C   0  0  0  0  0  0  0  0  0  0  0  0
    1.1943   -1.9707   -0.1530 C   0  0  0  0  0  0  0  0  0  0  0  0
    2.3195   -1.2678    0.2210 C   0  0  0  0  0  0  0  0  0  0  0  0
    2.6209   -0.0290   -0.3245 C   0  0  0  0  0  0  0  0  0  0  0  0
    1.7374    0.4630   -1.2597 C   0  0  0  0  0  0  0  0  0  0  0  0
    0.6079   -0.2380   -1.6381 C   0  0  0  0  0  0  0  0  0  0  0  0
    3.8110    0.7123    0.0694 C   0  0  0  0  0  0  0  0  0  0  0  0
    3.8039    2.0898    0.0638 C   0  0  0  0  0  0  0  0  0  0  0  0
    4.9399    2.7881    0.4390 C   0  0  0  0  0  0  0  0  0  0  0  0
    6.0897    2.1410    0.8221 C   0  0  0  0  0  0  0  0  0  0  0  0
    7.5548    2.9893    1.3056 Cl  0  0  0  0  0  0  0  0  0  0  0  0
    6.1147    0.7578    0.8337 C   0  0  0  0  0  0  0  0  0  0  0  0
    4.9722    0.0766    0.4561 C   0  0  0  0  0  0  0  0  0  0  0  0
   -4.1862   -0.4610   -0.7763 C   0  0  0  0  0  0  0  0  0  0  0  0
   -4.8992   -1.5204   -0.8758 O   0  0  0  0  0  0  0  0  0  0  0  0
   -4.8636    0.7552   -0.9616 N   0  0  0  0  0  0  0  0  0  0  0  0
   -6.1818    0.8505   -1.2236 O   0  0  0  0  0  0  0  0  0  0  0  0
   -1.9810    1.6492    1.9957 H   0  0  0  0  0  0  0  0  0  0  0  0
   -3.7017    1.5815    1.3542 H   0  0  0  0  0  0  0  0  0  0  0  0
   -2.3259    1.9357    0.2730 H   0  0  0  0  0  0  0  0  0  0  0  0
   -1.2754   -0.2730    1.0527 H   0  0  0  0  0  0  0  0  0  0  0  0
   -2.8660   -0.5544    2.9464 H   0  0  0  0  0  0  0  0  0  0  0  0
   -2.4741   -1.9632    1.9439 H   0  0  0  0  0  0  0  0  0  0  0  0
   -4.1125   -1.1552    1.7268 H   0  0  0  0  0  0  0  0  0  0  0  0
   -2.1380   -0.0763   -1.2154 H   0  0  0  0  0  0  0  0  0  0  0  0
   -3.1903   -2.6535   -0.5193 H   0  0  0  0  0  0  0  0  0  0  0  0
    0.9743   -2.9444    0.2876 H   0  0  0  0  0  0  0  0  0  0  0  0
    3.0218   -1.6475    0.9573 H   0  0  0  0  0  0  0  0  0  0  0  0
    1.9454    1.4323   -1.7060 H   0  0  0  0  0  0  0  0  0  0  0  0
   -0.0826    0.1607   -2.3831 H   0  0  0  0  0  0  0  0  0  0  0  0
    2.9263    2.6762   -0.2284 H   0  0  0  0  0  0  0  0  0  0  0  0
    4.9409    3.8665    0.4370 H   0  0  0  0  0  0  0  0  0  0  0  0
    6.9725    0.1733    1.1197 H   0  0  0  0  0  0  0  0  0  0  0  0
    4.9589   -1.0216    0.4543 H   0  0  0  0  0  0  0  0  0  0  0  0
   -4.3436    1.6480   -0.9097 H   0  0  0  0  0  0  0  0  0  0  0  0
   -6.6393    1.1152   -0.3941 H   0  0  0  0  0  0  0  0  0  0  0  0
  1  2  1  0
  2  3  1  0
  2  4  1  0
  4  5  1  0
  5  6  1  0
  6  7  2  0
  6  8  2  0
  6  9  1  0
  9 10  2  0
 10 11  1  0
 11 12  2  0
 12 13  1  0
 13 14  2  0
 12 15  1  0
 15 16  2  0
 16 17  1  0
 17 18  2  0
 18 19  1  0
 18 20  1  0
 20 21  2  0
  4 22  1  0
 22 23  2  0
 22 24  1  0
 24 25  1  0
 14  9  1  0
 21 15  1  0
  1 26  1  0
  1 27  1  0
  1 28  1  0
  2 29  1  0
  3 30  1  0
  3 31  1  0
  3 32  1  0
  4 33  1  6
  5 34  1  0
 10 35  1  0
 11 36  1  0
 13 37  1  0
 14 38  1  0
 16 39  1  0
 17 40  1  0
 20 41  1  0
 21 42  1  0
 24 43  1  0
 25 44  1  0
M  END
$$$$
[H]c1c([H])c([H])c(N(C(=O)OC([H])([H])[H])C([H])([H])[H])c(-c2c([H])c([H])c3c(N([H])C(=O)C([H])([H])Oc4c([H])c([H])c(Cl)c([H])c4[H])c([H])c([H])c([H])c3c2[H])c1[H]
     RDKit          3D

 57 60  0  0  0  0  0  0  0  0999 V2000
   -2.4282    0.1640    3.2658 C   0  0  0  0  0  0  0  0  0  0  0  0
   -3.2096    0.1837    2.0728 O   0  0  0  0  0  0  0  0  0  0  0  0
   -4.0297   -0.8348    1.6921 C   0  0  0  0  0  0  0  0  0  0  0  0
   -4.0653   -1.8467    2.4802 O   0  0  0  0  0  0  0  0  0  0  0  0
   -4.8274   -0.8921    0.5484 N   0  0  0  0  0  0  0  0  0  0  0  0
   -5.6926   -2.0190    0.3171 C   0  0  0  0  0  0  0  0  0  0  0  0
   -4.8537    0.1615   -0.4161 C   0  0  0  0  0  0  0  0  0  0  0  0
   -6.0460    0.8533   -0.6088 C   0  0  0  0  0  0  0  0  0  0  0  0
   -6.1576    1.8668   -1.5070 C   0  0  0  0  0  0  0  0  0  0  0  0
   -5.0643    2.2439   -2.2693 C   0  0  0  0  0  0  0  0  0  0  0  0
   -3.9121    1.5608   -2.0688 C   0  0  0  0  0  0  0  0  0  0  0  0
   -3.7659    0.5041   -1.1436 C   0  0  0  0  0  0  0  0  0  0  0  0
   -2.4504   -0.1335   -1.0385 C   0  0  0  0  0  0  0  0  0  0  0  0
   -1.3354    0.7015   -1.0053 C   0  0  0  0  0  0  0  0  0  0  0  0
   -0.0364    0.1995   -0.9315 C   0  0  0  0  0  0  0  0  0  0  0  0
    0.2080   -1.1451   -0.8882 C   0  0  0  0  0  0  0  0  0  0  0  0
    1.5355   -1.6212   -0.8251 C   0  0  0  0  0  0  0  0  0  0  0  0
    2.5871   -0.7105   -0.7007 N   0  0  0  0  0  0  0  0  0  0  0  0
    3.5981    0.1260   -0.5921 C   0  0  0  0  0  0  0  0  0  0  0  0
    4.8399   -0.1910   -0.8399 O   0  0  0  0  0  0  0  0  0  0  0  0
    3.4481    1.5809   -0.1584 C   0  0  0  0  0  0  0  0  0  0  0  0
    4.6697    2.1642   -0.0421 O   0  0  0  0  0  0  0  0  0  0  0  0
    5.7145    1.9263    0.7922 C   0  0  0  0  0  0  0  0  0  0  0  0
    5.7248    0.9873    1.7848 C   0  0  0  0  0  0  0  0  0  0  0  0
    6.8387    0.8274    2.5733 C   0  0  0  0  0  0  0  0  0  0  0  0
    7.9509    1.6158    2.3630 C   0  0  0  0  0  0  0  0  0  0  0  0
    9.3632    1.3991    3.3692 Cl  0  0  0  0  0  0  0  0  0  0  0  0
    7.9475    2.5529    1.3762 C   0  0  0  0  0  0  0  0  0  0  0  0
    6.8478    2.7306    0.5764 C   0  0  0  0  0  0  0  0  0  0  0  0
    1.6581   -2.9946   -0.7984 C   0  0  0  0  0  0  0  0  0  0  0  0
    0.5649   -3.8582   -0.8304 C   0  0  0  0  0  0  0  0  0  0  0  0
   -0.6840   -3.3278   -0.8913 C   0  0  0  0  0  0  0  0  0  0  0  0
   -0.8886   -1.9622   -0.9213 C   0  0  0  0  0  0  0  0  0  0  0  0
   -2.2033   -1.4680   -0.9960 C   0  0  0  0  0  0  0  0  0  0  0  0
   -2.6380    1.0434    3.9232 H   0  0  0  0  0  0  0  0  0  0  0  0
   -2.6036   -0.7528    3.8632 H   0  0  0  0  0  0  0  0  0  0  0  0
   -1.3751    0.2767    2.9201 H   0  0  0  0  0  0  0  0  0  0  0  0
   -6.4872   -1.7476   -0.4065 H   0  0  0  0  0  0  0  0  0  0  0  0
   -5.1257   -2.8992   -0.0684 H   0  0  0  0  0  0  0  0  0  0  0  0
   -6.2190   -2.2887    1.2800 H   0  0  0  0  0  0  0  0  0  0  0  0
   -6.9115    0.5678   -0.0185 H   0  0  0  0  0  0  0  0  0  0  0  0
   -7.0746    2.4331   -1.6796 H   0  0  0  0  0  0  0  0  0  0  0  0
   -5.1112    3.0434   -2.9947 H   0  0  0  0  0  0  0  0  0  0  0  0
   -3.0211    1.8272   -2.6487 H   0  0  0  0  0  0  0  0  0  0  0  0
   -1.4754    1.7713   -1.0370 H   0  0  0  0  0  0  0  0  0  0  0  0
    0.8068    0.8607   -0.9219 H   0  0  0  0  0  0  0  0  0  0  0  0
    3.3761   -1.5804   -1.4072 H   0  0  0  0  0  0  0  0  0  0  0  0
    2.9306    1.5004    0.8416 H   0  0  0  0  0  0  0  0  0  0  0  0
    2.8329    2.1171   -0.8976 H   0  0  0  0  0  0  0  0  0  0  0  0
    4.8630    0.3613    1.9731 H   0  0  0  0  0  0  0  0  0  0  0  0
    6.8176    0.0694    3.3610 H   0  0  0  0  0  0  0  0  0  0  0  0
    8.8472    3.1599    1.2363 H   0  0  0  0  0  0  0  0  0  0  0  0
    6.8503    3.4748   -0.2052 H   0  0  0  0  0  0  0  0  0  0  0  0
    2.6514   -3.4639   -0.7366 H   0  0  0  0  0  0  0  0  0  0  0  0
    0.7314   -4.9171   -0.8068 H   0  0  0  0  0  0  0  0  0  0  0  0
   -1.5355   -3.9928   -0.9124 H   0  0  0  0  0  0  0  0  0  0  0  0
   -2.9756   -2.2092   -1.0260 H   0  0  0  0  0  0  0  0  0  0  0  0
  1  2  1  0
  2  3  1  0
  3  4  2  0
  3  5  1  0
  5  6  1  0
  5  7  1  0
  7  8  2  0
  8  9  1  0
  9 10  2  0
 10 11  1  0
 11 12  2  0
 12 13  1  0
 13 14  2  0
 14 15  1  0
 15 16  2  0
 16 17  1  0
 17 18  1  0
 18 19  1  0
 19 20  2  0
 19 21  1  0
 21 22  1  0
 22 23  1  0
 23 24  2  0
 24 25  1  0
 25 26  2  0
 26 27  1  0
 26 28  1  0
 28 29  2  0
 17 30  2  0
 30 31  1  0
 31 32  2  0
 32 33  1  0
 33 34  2  0
 12  7  1  0
 34 13  1  0
 33 16  1  0
 29 23  1  0
  1 35  1  0
  1 36  1  0
  1 37  1  0
  6 38  1  0
  6 39  1  0
  6 40  1  0
  8 41  1  0
  9 42  1  0
 10 43  1  0
 11 44  1  0
 14 45  1  0
 15 46  1  0
 18 47  1  0
 21 48  1  0
 21 49  1  0
 24 50  1  0
 25 51  1  0
 28 52  1  0
 29 53  1  0
 30 54  1  0
 31 55  1  0
 32 56  1  0
 34 57  1  0
M  END
$$$$
[H]OC(=O)C([H])([H])N1C(=O)C([H])([H])C([H])(N([H])C(=O)c2sc3c(O[H])c(C([H])([H])[H])c(C([H])([H])[H])c([H])c3c2[H])C1([H])[H]
     RDKit          3D

 43 45  0  0  0  0  0  0  0  0999 V2000
   -7.0523   -0.5385    0.5961 C   0  0  0  0  0  0  0  0  0  0  0  0
   -5.5850   -0.4312    0.4203 C   0  0  0  0  0  0  0  0  0  0  0  0
   -5.0287    0.6111   -0.2996 C   0  0  0  0  0  0  0  0  0  0  0  0
   -6.0062    1.6023   -0.8755 C   0  0  0  0  0  0  0  0  0  0  0  0
   -3.6983    0.7869   -0.5102 C   0  0  0  0  0  0  0  0  0  0  0  0
   -2.7810   -0.1384    0.0271 C   0  0  0  0  0  0  0  0  0  0  0  0
   -1.4333   -0.0895   -0.1020 C   0  0  0  0  0  0  0  0  0  0  0  0
   -0.7132   -1.0879    0.4972 C   0  0  0  0  0  0  0  0  0  0  0  0
   -1.9255   -2.0553    1.2155 S   0  0  0  0  0  0  0  0  0  0  0  0
   -3.2993   -1.1742    0.7401 C   0  0  0  0  0  0  0  0  0  0  0  0
   -4.6781   -1.3299    0.9410 C   0  0  0  0  0  0  0  0  0  0  0  0
   -5.1477   -2.4007    1.6733 O   0  0  0  0  0  0  0  0  0  0  0  0
    0.7503   -1.2898    0.5233 C   0  0  0  0  0  0  0  0  0  0  0  0
    1.1857   -2.2881    1.1429 O   0  0  0  0  0  0  0  0  0  0  0  0
    1.5724   -0.3609   -0.1419 N   0  0  0  0  0  0  0  0  0  0  0  0
    3.0146   -0.4811   -0.1675 C   0  0  0  0  0  0  0  0  0  0  0  0
    3.4870   -0.5226   -1.5994 C   0  0  0  0  0  0  0  0  0  0  0  0
    4.7823    0.1848   -1.5988 C   0  0  0  0  0  0  0  0  0  0  0  0
    5.5944    0.1856   -2.5603 O   0  0  0  0  0  0  0  0  0  0  0  0
    4.9616    0.8543   -0.3567 N   0  0  0  0  0  0  0  0  0  0  0  0
    6.1981    1.4917    0.0366 C   0  0  0  0  0  0  0  0  0  0  0  0
    7.0931    0.5521    0.7612 C   0  0  0  0  0  0  0  0  0  0  0  0
    8.3258    0.9193    1.2373 O   0  0  0  0  0  0  0  0  0  0  0  0
    6.7222   -0.6388    0.9572 O   0  0  0  0  0  0  0  0  0  0  0  0
    3.7018    0.7572    0.3765 C   0  0  0  0  0  0  0  0  0  0  0  0
   -7.3334   -1.5897    0.8365 H   0  0  0  0  0  0  0  0  0  0  0  0
   -7.4073    0.1180    1.3976 H   0  0  0  0  0  0  0  0  0  0  0  0
   -7.5772   -0.1923   -0.3406 H   0  0  0  0  0  0  0  0  0  0  0  0
   -5.4553    2.5244   -1.1408 H   0  0  0  0  0  0  0  0  0  0  0  0
   -6.7537    1.8225   -0.0683 H   0  0  0  0  0  0  0  0  0  0  0  0
   -6.4888    1.1953   -1.7897 H   0  0  0  0  0  0  0  0  0  0  0  0
   -3.3964    1.6425   -1.0899 H   0  0  0  0  0  0  0  0  0  0  0  0
   -0.8562    0.6968   -0.6564 H   0  0  0  0  0  0  0  0  0  0  0  0
   -4.4901   -3.0819    2.0701 H   0  0  0  0  0  0  0  0  0  0  0  0
    1.1524    0.4465   -0.6381 H   0  0  0  0  0  0  0  0  0  0  0  0
    3.2845   -1.3837    0.4017 H   0  0  0  0  0  0  0  0  0  0  0  0
    3.6108   -1.5576   -1.9783 H   0  0  0  0  0  0  0  0  0  0  0  0
    2.7913    0.0744   -2.2267 H   0  0  0  0  0  0  0  0  0  0  0  0
    6.7304    1.8524   -0.8690 H   0  0  0  0  0  0  0  0  0  0  0  0
    5.9049    2.3628    0.6805 H   0  0  0  0  0  0  0  0  0  0  0  0
    9.2053    0.6673    0.7805 H   0  0  0  0  0  0  0  0  0  0  0  0
    3.1136    1.6713    0.2396 H   0  0  0  0  0  0  0  0  0  0  0  0
    3.9245    0.6582    1.4575 H   0  0  0  0  0  0  0  0  0  0  0  0
  1  2  1  0
  2  3  2  0
  3  4  1  0
  3  5  1  0
  5  6  2  0
  6  7  1  0
  7  8  2  0
  8  9  1  0
  9 10  1  0
 10 11  2  0
 11 12  1  0
  8 13  1  0
 13 14  2  0
 13 15  1  0
 15 16  1  0
 16 17  1  0
 17 18  1  0
 18 19  2  0
 18 20  1  0
 20 21  1  0
 21 22  1  0
 22 23  1  0
 22 24  2  0
 20 25  1  0
 11  2  1  0
 25 16  1  0
 10  6  1  0
  1 26  1  0
  1 27  1  0
  1 28  1  0
  4 29  1  0
  4 30  1  0
  4 31  1  0
  5 32  1  0
  7 33  1  0
 12 34  1  0
 15 35  1  0
 16 36  1  0
 17 37  1  0
 17 38  1  0
 21 39  1  0
 21 40  1  0
 23 41  1  0
 25 42  1  0
 25 43  1  0
M  END
$$$$
[H]c1c([H])c([H])c2c(S(=O)(=O)N3C([H])([H])C([H])([H])N(C(=O)C4([H])C([H])([H])C4([H])[H])[C@]([H])(C([H])([H])[H])C3([H])[H])c([H])c([H])c([H])c2c1[H]
     RDKit          3D

 47 50  0  0  0  0  0  0  0  0999 V2000
    2.0283    2.1964    0.8362 C   0  0  0  0  0  0  0  0  0  0  0  0
    1.4919    0.8220    0.5228 C   0  0  2  0  0  0  0  0  0  0  0  0
    0.2281    0.5096    1.2978 C   0  0  0  0  0  0  0  0  0  0  0  0
   -0.1448   -0.8389    1.0091 N   0  0  0  0  0  0  0  0  0  0  0  0
    0.7942   -1.7451    1.6424 C   0  0  0  0  0  0  0  0  0  0  0  0
    2.1004   -1.0557    1.9835 C   0  0  0  0  0  0  0  0  0  0  0  0
    2.4459   -0.2208    0.8497 N   0  0  0  0  0  0  0  0  0  0  0  0
    3.6444   -0.4205    0.1137 C   0  0  0  0  0  0  0  0  0  0  0  0
    4.4071   -1.3496    0.4737 O   0  0  0  0  0  0  0  0  0  0  0  0
    4.0397    0.3954   -1.0397 C   0  0  0  0  0  0  0  0  0  0  0  0
    4.8428   -0.2233   -2.1410 C   0  0  0  0  0  0  0  0  0  0  0  0
    5.4731    0.7520   -1.1919 C   0  0  0  0  0  0  0  0  0  0  0  0
   -1.7126   -1.2643    1.4968 S   0  0  0  0  0  0  0  0  0  0  0  0
   -1.7981   -1.1340    3.0112 O   0  0  0  0  0  0  0  0  0  0  0  0
   -1.8905   -2.7525    1.2292 O   0  0  0  0  0  0  0  0  0  0  0  0
   -2.9842   -0.3671    0.7541 C   0  0  0  0  0  0  0  0  0  0  0  0
   -3.8349    0.3923    1.5408 C   0  0  0  0  0  0  0  0  0  0  0  0
   -4.8646    1.1338    1.0112 C   0  0  0  0  0  0  0  0  0  0  0  0
   -5.0748    1.1349   -0.3502 C   0  0  0  0  0  0  0  0  0  0  0  0
   -4.2349    0.3838   -1.1376 C   0  0  0  0  0  0  0  0  0  0  0  0
   -4.4499    0.3872   -2.4972 C   0  0  0  0  0  0  0  0  0  0  0  0
   -3.6087   -0.3672   -3.2888 C   0  0  0  0  0  0  0  0  0  0  0  0
   -2.5741   -1.1129   -2.7601 C   0  0  0  0  0  0  0  0  0  0  0  0
   -2.3499   -1.1234   -1.3993 C   0  0  0  0  0  0  0  0  0  0  0  0
   -3.1876   -0.3705   -0.5989 C   0  0  0  0  0  0  0  0  0  0  0  0
    1.8960    2.8185   -0.0534 H   0  0  0  0  0  0  0  0  0  0  0  0
    1.4315    2.6083    1.6592 H   0  0  0  0  0  0  0  0  0  0  0  0
    3.1104    2.1149    1.0603 H   0  0  0  0  0  0  0  0  0  0  0  0
    1.2337    0.7211   -0.5524 H   0  0  0  0  0  0  0  0  0  0  0  0
   -0.5212    1.2573    1.0010 H   0  0  0  0  0  0  0  0  0  0  0  0
    0.3947    0.6715    2.3995 H   0  0  0  0  0  0  0  0  0  0  0  0
    1.0093   -2.6148    0.9655 H   0  0  0  0  0  0  0  0  0  0  0  0
    0.3378   -2.1574    2.5863 H   0  0  0  0  0  0  0  0  0  0  0  0
    2.8503   -1.8512    2.1590 H   0  0  0  0  0  0  0  0  0  0  0  0
    1.9927   -0.4821    2.9238 H   0  0  0  0  0  0  0  0  0  0  0  0
    3.3223    1.1943   -1.3003 H   0  0  0  0  0  0  0  0  0  0  0  0
    5.0750   -1.3068   -2.0479 H   0  0  0  0  0  0  0  0  0  0  0  0
    4.7267    0.1235   -3.1918 H   0  0  0  0  0  0  0  0  0  0  0  0
    5.7327    1.7697   -1.5362 H   0  0  0  0  0  0  0  0  0  0  0  0
    6.2394    0.3133   -0.5170 H   0  0  0  0  0  0  0  0  0  0  0  0
   -3.6874    0.4060    2.6172 H   0  0  0  0  0  0  0  0  0  0  0  0
   -5.5434    1.7362    1.6096 H   0  0  0  0  0  0  0  0  0  0  0  0
   -5.8954    1.7242   -0.7867 H   0  0  0  0  0  0  0  0  0  0  0  0
   -5.2701    0.9780   -2.9186 H   0  0  0  0  0  0  0  0  0  0  0  0
   -3.7762   -0.3660   -4.3598 H   0  0  0  0  0  0  0  0  0  0  0  0
   -1.9085   -1.7100   -3.3871 H   0  0  0  0  0  0  0  0  0  0  0  0
   -1.5368   -1.7101   -0.9721 H   0  0  0  0  0  0  0  0  0  0  0  0
  1  2  1  0
  2  3  1  0
  3  4  1  0
  4  5  1  0
  5  6  1  0
  6  7  1  0
  7  8  1  0
  8  9  2  0
  8 10  1  0
 10 11  1  0
 11 12  1  0
  4 13  1  0
 13 14  2  0
 13 15  2  0
 13 16  1  0
 16 17  2  0
 17 18  1  0
 18 19  2  0
 19 20  1  0
 20 21  2  0
 21 22  1  0
 22 23  2  0
 23 24  1  0
 24 25  2  0
  7  2  1  0
 12 10  1  0
 25 16  1  0
 25 20  1  0
  1 26  1  0
  1 27  1  0
  1 28  1  0
  2 29  1  6
  3 30  1  0
  3 31  1  0
  5 32  1  0
  5 33  1  0
  6 34  1  0
  6 35  1  0
 10 36  1  0
 11 37  1  0
 11 38  1  0
 12 39  1  0
 12 40  1  0
 17 41  1  0
 18 42  1  0
 19 43  1  0
 21 44  1  0
 22 45  1  0
 23 46  1  0
 24 47  1  0
M  END
$$$$
[H]OC([H])([H])C([H])([H])N([H])S(=O)(=O)c1c([H])c([C@@]([H])(N([H])c2nc([H])nc3c2nc([H])n3[H])C([H])([H])[H])c([H])c([H])c1F
     RDKit          3D

 43 45  0  0  0  0  0  0  0  0999 V2000
   -1.2494   -2.0250   -0.4764 C   0  0  0  0  0  0  0  0  0  0  0  0
   -1.3944   -1.1685    0.7418 C   0  0  2  0  0  0  0  0  0  0  0  0
   -2.1807   -0.0047    0.4805 N   0  0  0  0  0  0  0  0  0  0  0  0
   -3.5388   -0.0034    0.0999 C   0  0  0  0  0  0  0  0  0  0  0  0
   -4.2826   -1.1090   -0.0567 N   0  0  0  0  0  0  0  0  0  0  0  0
   -5.5863   -1.0363   -0.4191 C   0  0  0  0  0  0  0  0  0  0  0  0
   -6.2120    0.1349   -0.6427 N   0  0  0  0  0  0  0  0  0  0  0  0
   -5.5160    1.2603   -0.5000 C   0  0  0  0  0  0  0  0  0  0  0  0
   -5.8672    2.5505   -0.6532 N   0  0  0  0  0  0  0  0  0  0  0  0
   -4.7911    3.3147   -0.3901 C   0  0  0  0  0  0  0  0  0  0  0  0
   -3.7788    2.4876   -0.0750 N   0  0  0  0  0  0  0  0  0  0  0  0
   -4.1880    1.1977   -0.1314 C   0  0  0  0  0  0  0  0  0  0  0  0
   -0.0283   -0.7412    1.2020 C   0  0  0  0  0  0  0  0  0  0  0  0
    0.1164    0.2671    2.1352 C   0  0  0  0  0  0  0  0  0  0  0  0
    1.3786    0.6371    2.5384 C   0  0  0  0  0  0  0  0  0  0  0  0
    2.5041    0.0120    2.0209 C   0  0  0  0  0  0  0  0  0  0  0  0
    3.7604    0.3527    2.3969 F   0  0  0  0  0  0  0  0  0  0  0  0
    2.3737   -0.9996    1.0855 C   0  0  0  0  0  0  0  0  0  0  0  0
    1.1010   -1.3511    0.6987 C   0  0  0  0  0  0  0  0  0  0  0  0
    3.7971   -1.7828    0.4377 S   0  0  0  0  0  0  0  0  0  0  0  0
    3.3329   -2.8319   -0.5485 O   0  0  0  0  0  0  0  0  0  0  0  0
    4.6010   -2.4448    1.5311 O   0  0  0  0  0  0  0  0  0  0  0  0
    4.8092   -0.6650   -0.3527 N   0  0  0  0  0  0  0  0  0  0  0  0
    4.1764   -0.0239   -1.4813 C   0  0  0  0  0  0  0  0  0  0  0  0
    5.0602    0.9559   -2.1759 C   0  0  0  0  0  0  0  0  0  0  0  0
    5.4857    1.9919   -1.3593 O   0  0  0  0  0  0  0  0  0  0  0  0
   -0.5430   -1.5135   -1.1732 H   0  0  0  0  0  0  0  0  0  0  0  0
   -2.1905   -2.2393   -1.0005 H   0  0  0  0  0  0  0  0  0  0  0  0
   -0.8085   -3.0241   -0.2365 H   0  0  0  0  0  0  0  0  0  0  0  0
   -1.8187   -1.8088    1.5463 H   0  0  0  0  0  0  0  0  0  0  0  0
   -1.7098    0.9439    0.5786 H   0  0  0  0  0  0  0  0  0  0  0  0
   -6.1495   -1.9449   -0.5346 H   0  0  0  0  0  0  0  0  0  0  0  0
   -6.7868    2.9643   -0.9246 H   0  0  0  0  0  0  0  0  0  0  0  0
   -4.6856    4.3901   -0.4080 H   0  0  0  0  0  0  0  0  0  0  0  0
   -0.7781    0.7344    2.5193 H   0  0  0  0  0  0  0  0  0  0  0  0
    1.5107    1.4244    3.2680 H   0  0  0  0  0  0  0  0  0  0  0  0
    1.0230   -2.1592   -0.0467 H   0  0  0  0  0  0  0  0  0  0  0  0
    5.2968   -0.0281    0.2802 H   0  0  0  0  0  0  0  0  0  0  0  0
    3.2243    0.4837   -1.1973 H   0  0  0  0  0  0  0  0  0  0  0  0
    3.9010   -0.8116   -2.2117 H   0  0  0  0  0  0  0  0  0  0  0  0
    5.9308    0.4401   -2.6523 H   0  0  0  0  0  0  0  0  0  0  0  0
    4.4765    1.4150   -3.0005 H   0  0  0  0  0  0  0  0  0  0  0  0
    6.2244    1.7580   -0.7630 H   0  0  0  0  0  0  0  0  0  0  0  0
  1  2  1  0
  2  3  1  0
  3  4  1  0
  4  5  2  0
  5  6  1  0
  6  7  2  0
  7  8  1  0
  8  9  1  0
  9 10  1  0
 10 11  2  0
 11 12  1  0
  2 13  1  0
 13 14  2  0
 14 15  1  0
 15 16  2  0
 16 17  1  0
 16 18  1  0
 18 19  2  0
 18 20  1  0
 20 21  2  0
 20 22  2  0
 20 23  1  0
 23 24  1  0
 24 25  1  0
 25 26  1  0
 12  4  1  0
 19 13  1  0
 12  8  2  0
  1 27  1  0
  1 28  1  0
  1 29  1  0
  2 30  1  1
  3 31  1  0
  6 32  1  0
  9 33  1  0
 10 34  1  0
 14 35  1  0
 15 36  1  0
 19 37  1  0
 23 38  1  0
 24 39  1  0
 24 40  1  0
 25 41  1  0
 25 42  1  0
 26 43  1  0
M  END
$$$$
[H]c1c([H])c(C(=O)N([H])c2c([H])c([H])c(C([H])([H])[H])c(N([H])c3nc(-c4c([H])c([H])c(F)c([H])c4[H])c([H])c(C(=O)N([H])[H])c3N3C([H])([H])C([H])([H])N(C([H])([H])[H])C([H])([H])C3([H])[H])c2[H])c([H])c([H])c1F
     RDKit          3D

 71 75  0  0  0  0  0  0  0  0999 V2000
   -4.5538    5.4511    0.5937 C   0  0  0  0  0  0  0  0  0  0  0  0
   -3.7943    4.2240    0.4751 N   0  0  0  0  0  0  0  0  0  0  0  0
   -3.8742    3.7822   -0.8829 C   0  0  0  0  0  0  0  0  0  0  0  0
   -3.1558    2.5088   -1.1297 C   0  0  0  0  0  0  0  0  0  0  0  0
   -3.2501    1.5302   -0.0728 N   0  0  0  0  0  0  0  0  0  0  0  0
   -3.7920    1.8862    1.2093 C   0  0  0  0  0  0  0  0  0  0  0  0
   -4.4380    3.2230    1.3059 C   0  0  0  0  0  0  0  0  0  0  0  0
   -2.7857    0.2096   -0.2717 C   0  0  0  0  0  0  0  0  0  0  0  0
   -1.4444   -0.1306    0.0181 C   0  0  0  0  0  0  0  0  0  0  0  0
   -0.6317    0.8831    0.5511 N   0  0  0  0  0  0  0  0  0  0  0  0
    0.7479    0.8163    0.8618 C   0  0  0  0  0  0  0  0  0  0  0  0
    1.6376   -0.1122    0.3955 C   0  0  0  0  0  0  0  0  0  0  0  0
    2.9947   -0.1388    0.6532 C   0  0  0  0  0  0  0  0  0  0  0  0
    3.9594   -0.9817    0.2219 N   0  0  0  0  0  0  0  0  0  0  0  0
    4.9192   -1.8321   -0.2109 C   0  0  0  0  0  0  0  0  0  0  0  0
    4.7519   -3.0263   -0.5686 O   0  0  0  0  0  0  0  0  0  0  0  0
    6.3559   -1.4086   -0.3078 C   0  0  0  0  0  0  0  0  0  0  0  0
    7.3312   -2.3708   -0.3093 C   0  0  0  0  0  0  0  0  0  0  0  0
    8.6830   -2.0542   -0.3864 C   0  0  0  0  0  0  0  0  0  0  0  0
    9.0097   -0.7264   -0.4624 C   0  0  0  0  0  0  0  0  0  0  0  0
   10.3178   -0.3493   -0.5441 F   0  0  0  0  0  0  0  0  0  0  0  0
    8.0598    0.2635   -0.4632 C   0  0  0  0  0  0  0  0  0  0  0  0
    6.7198   -0.0858   -0.3851 C   0  0  0  0  0  0  0  0  0  0  0  0
    3.4454    0.9311    1.4928 C   0  0  0  0  0  0  0  0  0  0  0  0
    2.5909    1.8729    1.9749 C   0  0  0  0  0  0  0  0  0  0  0  0
    1.2598    1.8361    1.6770 C   0  0  0  0  0  0  0  0  0  0  0  0
    0.3522    2.8717    2.2266 C   0  0  0  0  0  0  0  0  0  0  0  0
   -1.0263   -1.3895   -0.1824 N   0  0  0  0  0  0  0  0  0  0  0  0
   -1.7799   -2.3905   -0.6459 C   0  0  0  0  0  0  0  0  0  0  0  0
   -3.0809   -2.0809   -0.9336 C   0  0  0  0  0  0  0  0  0  0  0  0
   -3.5973   -0.7773   -0.7494 C   0  0  0  0  0  0  0  0  0  0  0  0
   -4.9758   -0.5791   -1.0970 C   0  0  0  0  0  0  0  0  0  0  0  0
   -5.7725    0.5633   -1.0365 N   0  0  0  0  0  0  0  0  0  0  0  0
   -5.6262   -1.6119   -1.5491 O   0  0  0  0  0  0  0  0  0  0  0  0
   -1.2348   -3.7424   -0.8172 C   0  0  0  0  0  0  0  0  0  0  0  0
   -1.9401   -4.8194   -1.2773 C   0  0  0  0  0  0  0  0  0  0  0  0
   -1.3763   -6.0831   -1.4176 C   0  0  0  0  0  0  0  0  0  0  0  0
   -0.0708   -6.2842   -1.0915 C   0  0  0  0  0  0  0  0  0  0  0  0
    0.4773   -7.5334   -1.2332 F   0  0  0  0  0  0  0  0  0  0  0  0
    0.6764   -5.2304   -0.6249 C   0  0  0  0  0  0  0  0  0  0  0  0
    0.0913   -3.9727   -0.4920 C   0  0  0  0  0  0  0  0  0  0  0  0
   -4.7180    5.7360    1.6594 H   0  0  0  0  0  0  0  0  0  0  0  0
   -4.0299    6.2890    0.0800 H   0  0  0  0  0  0  0  0  0  0  0  0
   -5.5457    5.3421    0.1085 H   0  0  0  0  0  0  0  0  0  0  0  0
   -3.4818    4.5442   -1.5875 H   0  0  0  0  0  0  0  0  0  0  0  0
   -4.9621    3.6415   -1.1142 H   0  0  0  0  0  0  0  0  0  0  0  0
   -3.4491    2.1227   -2.1330 H   0  0  0  0  0  0  0  0  0  0  0  0
   -2.0556    2.7716   -1.1798 H   0  0  0  0  0  0  0  0  0  0  0  0
   -2.9968    1.8756    2.0236 H   0  0  0  0  0  0  0  0  0  0  0  0
   -4.5311    1.1398    1.6047 H   0  0  0  0  0  0  0  0  0  0  0  0
   -4.3729    3.5798    2.3544 H   0  0  0  0  0  0  0  0  0  0  0  0
   -5.5443    3.1544    1.1103 H   0  0  0  0  0  0  0  0  0  0  0  0
   -1.0957    1.8247    0.7359 H   0  0  0  0  0  0  0  0  0  0  0  0
    1.2704   -0.9016   -0.2737 H   0  0  0  0  0  0  0  0  0  0  0  0
    3.0814   -2.0281    0.2529 H   0  0  0  0  0  0  0  0  0  0  0  0
    7.0546   -3.3986   -0.2445 H   0  0  0  0  0  0  0  0  0  0  0  0
    9.4654   -2.7783   -0.3889 H   0  0  0  0  0  0  0  0  0  0  0  0
    8.3707    1.3153   -0.5268 H   0  0  0  0  0  0  0  0  0  0  0  0
    5.9672    0.6591   -0.3845 H   0  0  0  0  0  0  0  0  0  0  0  0
    4.4726    0.9972    1.7488 H   0  0  0  0  0  0  0  0  0  0  0  0
    2.9263    2.6990    2.6153 H   0  0  0  0  0  0  0  0  0  0  0  0
   -0.5597    2.3576    2.6081 H   0  0  0  0  0  0  0  0  0  0  0  0
    0.8348    3.3675    3.0952 H   0  0  0  0  0  0  0  0  0  0  0  0
    0.0728    3.6312    1.4695 H   0  0  0  0  0  0  0  0  0  0  0  0
   -3.7036   -2.8855   -1.3127 H   0  0  0  0  0  0  0  0  0  0  0  0
   -5.8346    1.1610   -1.9130 H   0  0  0  0  0  0  0  0  0  0  0  0
   -6.3316    0.8993   -0.2264 H   0  0  0  0  0  0  0  0  0  0  0  0
   -2.9702   -4.7129   -1.5475 H   0  0  0  0  0  0  0  0  0  0  0  0
   -1.9617   -6.9229   -1.7838 H   0  0  0  0  0  0  0  0  0  0  0  0
    1.7117   -5.4191   -0.3762 H   0  0  0  0  0  0  0  0  0  0  0  0
    0.7363   -3.2030   -0.1228 H   0  0  0  0  0  0  0  0  0  0  0  0
  1  2  1  0
  2  3  1  0
  3  4  1  0
  4  5  1  0
  5  6  1  0
  6  7  1  0
  5  8  1  0
  8  9  1  0
  9 10  1  0
 10 11  1  0
 11 12  2  0
 12 13  1  0
 13 14  1  0
 14 15  1  0
 15 16  2  0
 15 17  1  0
 17 18  2  0
 18 19  1  0
 19 20  2  0
 20 21  1  0
 20 22  1  0
 22 23  2  0
 13 24  2  0
 24 25  1  0
 25 26  2  0
 26 27  1  0
  9 28  2  0
 28 29  1  0
 29 30  2  0
 30 31  1  0
 31 32  1  0
 32 33  1  0
 32 34  2  0
 29 35  1  0
 35 36  2  0
 36 37  1  0
 37 38  2  0
 38 39  1  0
 38 40  1  0
 40 41  2  0
  7  2  1  0
 31  8  2  0
 41 35  1  0
 26 11  1  0
 23 17  1  0
  1 42  1  0
  1 43  1  0
  1 44  1  0
  3 45  1  0
  3 46  1  0
  4 47  1  0
  4 48  1  0
  6 49  1  0
  6 50  1  0
  7 51  1  0
  7 52  1  0
 10 53  1  0
 12 54  1  0
 14 55  1  0
 18 56  1  0
 19 57  1  0
 22 58  1  0
 23 59  1  0
 24 60  1  0
 25 61  1  0
 27 62  1  0
 27 63  1  0
 27 64  1  0
 30 65  1  0
 33 66  1  0
 33 67  1  0
 36 68  1  0
 37 69  1  0
 40 70  1  0
 41 71  1  0
M  END
$$$$
[H]c1c([H])c(N([H])S(=O)(=O)C([H])([H])C([H])([H])[H])c([H])c(C([H])([H])C([H])([H])N([H])C(=O)N([H])c2c([H])c([H])c3c([H])c([H])c([H])c([H])c3c2[H])c1[H]
     RDKit          3D

 51 53  0  0  0  0  0  0  0  0999 V2000
   -5.6211   -2.6259   -0.7021 C   0  0  0  0  0  0  0  0  0  0  0  0
   -5.6882   -1.1140   -0.7111 C   0  0  0  0  0  0  0  0  0  0  0  0
   -6.0557   -0.5027    0.9304 S   0  0  0  0  0  0  0  0  0  0  0  0
   -5.0188   -1.0725    1.8440 O   0  0  0  0  0  0  0  0  0  0  0  0
   -7.4065   -1.0724    1.3201 O   0  0  0  0  0  0  0  0  0  0  0  0
   -6.1386    1.2045    0.9546 N   0  0  0  0  0  0  0  0  0  0  0  0
   -5.0398    2.0519    0.6214 C   0  0  0  0  0  0  0  0  0  0  0  0
   -5.2536    3.1413   -0.2202 C   0  0  0  0  0  0  0  0  0  0  0  0
   -4.2139    3.9780   -0.5622 C   0  0  0  0  0  0  0  0  0  0  0  0
   -2.9578    3.7079   -0.0492 C   0  0  0  0  0  0  0  0  0  0  0  0
   -2.7191    2.6389    0.7839 C   0  0  0  0  0  0  0  0  0  0  0  0
   -1.3749    2.3413    1.3388 C   0  0  0  0  0  0  0  0  0  0  0  0
   -0.5780    1.4301    0.4524 C   0  0  0  0  0  0  0  0  0  0  0  0
    0.6995    1.1855    1.0428 N   0  0  0  0  0  0  0  0  0  0  0  0
    1.6503    0.3365    0.3792 C   0  0  0  0  0  0  0  0  0  0  0  0
    1.3066   -0.1605   -0.7104 O   0  0  0  0  0  0  0  0  0  0  0  0
    2.9169    0.0861    0.9516 N   0  0  0  0  0  0  0  0  0  0  0  0
    3.8841   -0.7456    0.3678 C   0  0  0  0  0  0  0  0  0  0  0  0
    3.6519   -1.7278   -0.5485 C   0  0  0  0  0  0  0  0  0  0  0  0
    4.6572   -2.5115   -1.1181 C   0  0  0  0  0  0  0  0  0  0  0  0
    5.9487   -2.2736   -0.7276 C   0  0  0  0  0  0  0  0  0  0  0  0
    6.9930   -3.0162   -1.2546 C   0  0  0  0  0  0  0  0  0  0  0  0
    8.2777   -2.7574   -0.8459 C   0  0  0  0  0  0  0  0  0  0  0  0
    8.5545   -1.7681    0.0839 C   0  0  0  0  0  0  0  0  0  0  0  0
    7.5186   -1.0339    0.6045 C   0  0  0  0  0  0  0  0  0  0  0  0
    6.2184   -1.2932    0.1933 C   0  0  0  0  0  0  0  0  0  0  0  0
    5.2241   -0.5282    0.7470 C   0  0  0  0  0  0  0  0  0  0  0  0
   -3.7804    1.8058    1.1178 C   0  0  0  0  0  0  0  0  0  0  0  0
   -6.0818   -2.9717    0.2411 H   0  0  0  0  0  0  0  0  0  0  0  0
   -4.5701   -2.9766   -0.7504 H   0  0  0  0  0  0  0  0  0  0  0  0
   -6.1519   -2.9803   -1.6063 H   0  0  0  0  0  0  0  0  0  0  0  0
   -4.7330   -0.7434   -1.0915 H   0  0  0  0  0  0  0  0  0  0  0  0
   -6.4959   -0.7600   -1.4154 H   0  0  0  0  0  0  0  0  0  0  0  0
   -7.0445    1.6610    1.2287 H   0  0  0  0  0  0  0  0  0  0  0  0
   -6.2508    3.3231   -0.6038 H   0  0  0  0  0  0  0  0  0  0  0  0
   -4.3443    4.8409   -1.2189 H   0  0  0  0  0  0  0  0  0  0  0  0
   -2.1541    4.3569   -0.3152 H   0  0  0  0  0  0  0  0  0  0  0  0
   -0.8695    3.2841    1.5603 H   0  0  0  0  0  0  0  0  0  0  0  0
   -1.5251    1.8166    2.3034 H   0  0  0  0  0  0  0  0  0  0  0  0
   -0.4091    1.8514   -0.5592 H   0  0  0  0  0  0  0  0  0  0  0  0
   -1.1042    0.4470    0.3802 H   0  0  0  0  0  0  0  0  0  0  0  0
    0.9618    1.6040    1.9392 H   0  0  0  0  0  0  0  0  0  0  0  0
    3.1468    0.5648    1.8999 H   0  0  0  0  0  0  0  0  0  0  0  0
    2.6563   -1.9666   -0.8738 H   0  0  0  0  0  0  0  0  0  0  0  0
    4.4125   -3.2763   -1.8411 H   0  0  0  0  0  0  0  0  0  0  0  0
    6.7777   -3.7896   -1.9814 H   0  0  0  0  0  0  0  0  0  0  0  0
    9.0699   -3.3450   -1.2676 H   0  0  0  0  0  0  0  0  0  0  0  0
    9.5630   -1.5947    0.3780 H   0  0  0  0  0  0  0  0  0  0  0  0
    7.7034   -0.2467    1.3396 H   0  0  0  0  0  0  0  0  0  0  0  0
    5.4154    0.2517    1.4758 H   0  0  0  0  0  0  0  0  0  0  0  0
   -3.6276    0.9450    1.7799 H   0  0  0  0  0  0  0  0  0  0  0  0
  1  2  1  0
  2  3  1  0
  3  4  2  0
  3  5  2  0
  3  6  1  0
  6  7  1  0
  7  8  2  0
  8  9  1  0
  9 10  2  0
 10 11  1  0
 11 12  1  0
 12 13  1  0
 13 14  1  0
 14 15  1  0
 15 16  2  0
 15 17  1  0
 17 18  1  0
 18 19  2  0
 19 20  1  0
 20 21  2  0
 21 22  1  0
 22 23  2  0
 23 24  1  0
 24 25  2  0
 25 26  1  0
 26 27  2  0
 11 28  2  0
 28  7  1  0
 27 18  1  0
 26 21  1  0
  1 29  1  0
  1 30  1  0
  1 31  1  0
  2 32  1  0
  2 33  1  0
  6 34  1  0
  8 35  1  0
  9 36  1  0
 10 37  1  0
 12 38  1  0
 12 39  1  0
 13 40  1  0
 13 41  1  0
 14 42  1  0
 17 43  1  0
 19 44  1  0
 20 45  1  0
 22 46  1  0
 23 47  1  0
 24 48  1  0
 25 49  1  0
 27 50  1  0
 28 51  1  0
M  END
$$$$
[H]N=C(N([H])[H])N([H])C([H])([H])C([H])([H])C([H])([H])[C@]([H])(C(=O)N([H])[C@]([H])(C(=O)N([H])[H])C([H])([H])c1c([H])c([H])c([H])c([H])c1[H])N([H])C(=O)C1([H])c2c([H])c([H])c([H])c([H])c2C([H])([H])C([H])([H])N1C(=O)[C@@]([H])(N([H])[H])C([H])([H])c1c(C([H])([H])[H])c([H])c(O[H])c([H])c1C([H])([H])[H]
     RDKit          3D

 95 98  0  0  0  0  0  0  0  0999 V2000
    5.1213    2.3878    1.2476 C   0  0  0  0  0  0  0  0  0  0  0  0
    5.6742    1.0323    1.2619 C   0  0  0  0  0  0  0  0  0  0  0  0
    5.7727    0.4254    2.5179 C   0  0  0  0  0  0  0  0  0  0  0  0
    6.3021   -0.8173    2.7267 C   0  0  0  0  0  0  0  0  0  0  0  0
    6.3829   -1.3868    3.9900 O   0  0  0  0  0  0  0  0  0  0  0  0
    6.7588   -1.4981    1.6386 C   0  0  0  0  0  0  0  0  0  0  0  0
    6.6886   -0.9548    0.3790 C   0  0  0  0  0  0  0  0  0  0  0  0
    7.1874   -1.7083   -0.7920 C   0  0  0  0  0  0  0  0  0  0  0  0
    6.1390    0.3287    0.1756 C   0  0  0  0  0  0  0  0  0  0  0  0
    6.0302    0.8804   -1.1618 C   0  0  0  0  0  0  0  0  0  0  0  0
    4.7920    0.6868   -1.9525 C   0  0  2  0  0  0  0  0  0  0  0  0
    5.0964    1.4157   -3.2400 N   0  0  0  0  0  0  0  0  0  0  0  0
    3.5369    1.2110   -1.5117 C   0  0  0  0  0  0  0  0  0  0  0  0
    3.2213    2.4253   -1.7601 O   0  0  0  0  0  0  0  0  0  0  0  0
    2.5817    0.4469   -0.7981 N   0  0  0  0  0  0  0  0  0  0  0  0
    2.7698   -0.9473   -0.5030 C   0  0  0  0  0  0  0  0  0  0  0  0
    2.5540   -1.2602    0.9440 C   0  0  0  0  0  0  0  0  0  0  0  0
    1.8613   -0.2111    1.7114 C   0  0  0  0  0  0  0  0  0  0  0  0
    1.8348   -0.3929    3.0996 C   0  0  0  0  0  0  0  0  0  0  0  0
    1.2219    0.5286    3.9064 C   0  0  0  0  0  0  0  0  0  0  0  0
    0.6449    1.6157    3.3262 C   0  0  0  0  0  0  0  0  0  0  0  0
    0.6648    1.8078    1.9473 C   0  0  0  0  0  0  0  0  0  0  0  0
    1.2795    0.8832    1.1358 C   0  0  0  0  0  0  0  0  0  0  0  0
    1.3231    1.0606   -0.3238 C   0  0  0  0  0  0  0  0  0  0  0  0
    0.1477    0.5396   -1.0131 C   0  0  0  0  0  0  0  0  0  0  0  0
    0.2766   -0.2304   -1.9926 O   0  0  0  0  0  0  0  0  0  0  0  0
   -1.1732    0.8689   -0.6202 N   0  0  0  0  0  0  0  0  0  0  0  0
   -2.3272    0.3456   -1.3097 C   0  0  2  0  0  0  0  0  0  0  0  0
   -3.4612    1.2806   -1.5096 C   0  0  0  0  0  0  0  0  0  0  0  0
   -3.2457    2.5120   -2.2940 C   0  0  0  0  0  0  0  0  0  0  0  0
   -2.2603    3.4996   -1.7992 C   0  0  0  0  0  0  0  0  0  0  0  0
   -2.2198    4.6555   -2.7147 N   0  0  0  0  0  0  0  0  0  0  0  0
   -1.3793    5.7557   -2.4726 C   0  0  0  0  0  0  0  0  0  0  0  0
   -1.9273    6.8709   -1.7981 N   0  0  0  0  0  0  0  0  0  0  0  0
   -0.1521    5.7165   -2.8666 N   0  0  0  0  0  0  0  0  0  0  0  0
   -2.8629   -0.7563   -0.4074 C   0  0  0  0  0  0  0  0  0  0  0  0
   -2.3558   -1.0026    0.7128 O   0  0  0  0  0  0  0  0  0  0  0  0
   -3.9533   -1.5165   -0.8484 N   0  0  0  0  0  0  0  0  0  0  0  0
   -4.5566   -2.6139   -0.0568 C   0  0  1  0  0  0  0  0  0  0  0  0
   -5.9958   -2.2633    0.0654 C   0  0  0  0  0  0  0  0  0  0  0  0
   -6.8584   -3.1745    0.8052 C   0  0  0  0  0  0  0  0  0  0  0  0
   -7.5625   -4.1495    0.1295 C   0  0  0  0  0  0  0  0  0  0  0  0
   -8.3855   -5.0262    0.7937 C   0  0  0  0  0  0  0  0  0  0  0  0
   -8.4848   -4.8981    2.1651 C   0  0  0  0  0  0  0  0  0  0  0  0
   -7.7891   -3.9303    2.8571 C   0  0  0  0  0  0  0  0  0  0  0  0
   -6.9713   -3.0624    2.1794 C   0  0  0  0  0  0  0  0  0  0  0  0
   -4.2436   -3.8563   -0.7738 C   0  0  0  0  0  0  0  0  0  0  0  0
   -4.6123   -5.1085   -0.2451 N   0  0  0  0  0  0  0  0  0  0  0  0
   -3.6388   -3.8380   -1.8721 O   0  0  0  0  0  0  0  0  0  0  0  0
    5.4792    2.9459    2.1679 H   0  0  0  0  0  0  0  0  0  0  0  0
    5.3256    2.9808    0.3433 H   0  0  0  0  0  0  0  0  0  0  0  0
    4.0241    2.3453    1.3731 H   0  0  0  0  0  0  0  0  0  0  0  0
    5.4146    0.9522    3.3915 H   0  0  0  0  0  0  0  0  0  0  0  0
    6.7715   -2.2926    4.1239 H   0  0  0  0  0  0  0  0  0  0  0  0
    7.1859   -2.4887    1.7746 H   0  0  0  0  0  0  0  0  0  0  0  0
    6.3797   -1.9442   -1.5208 H   0  0  0  0  0  0  0  0  0  0  0  0
    7.5944   -2.6810   -0.4503 H   0  0  0  0  0  0  0  0  0  0  0  0
    8.0530   -1.2006   -1.3052 H   0  0  0  0  0  0  0  0  0  0  0  0
    6.3759    1.9639   -1.2062 H   0  0  0  0  0  0  0  0  0  0  0  0
    6.8509    0.3756   -1.7706 H   0  0  0  0  0  0  0  0  0  0  0  0
    4.7486   -0.3712   -2.3075 H   0  0  0  0  0  0  0  0  0  0  0  0
    5.0287    2.4142   -2.9611 H   0  0  0  0  0  0  0  0  0  0  0  0
    4.2940    1.1941   -3.8528 H   0  0  0  0  0  0  0  0  0  0  0  0
    2.0144   -1.5786   -1.0770 H   0  0  0  0  0  0  0  0  0  0  0  0
    3.7696   -1.3277   -0.8119 H   0  0  0  0  0  0  0  0  0  0  0  0
    1.9444   -2.1922    1.0796 H   0  0  0  0  0  0  0  0  0  0  0  0
    3.5164   -1.4996    1.4630 H   0  0  0  0  0  0  0  0  0  0  0  0
    2.2964   -1.2603    3.5537 H   0  0  0  0  0  0  0  0  0  0  0  0
    1.1924    0.4016    4.9924 H   0  0  0  0  0  0  0  0  0  0  0  0
    0.1655    2.3406    3.9411 H   0  0  0  0  0  0  0  0  0  0  0  0
    0.1951    2.6927    1.5498 H   0  0  0  0  0  0  0  0  0  0  0  0
    1.4059    2.1631   -0.5893 H   0  0  0  0  0  0  0  0  0  0  0  0
   -1.3274    1.5027    0.1839 H   0  0  0  0  0  0  0  0  0  0  0  0
   -1.9821   -0.1387   -2.2618 H   0  0  0  0  0  0  0  0  0  0  0  0
   -3.9024    1.6134   -0.5133 H   0  0  0  0  0  0  0  0  0  0  0  0
   -4.3231    0.6733   -1.9359 H   0  0  0  0  0  0  0  0  0  0  0  0
   -3.0809    2.2737   -3.3869 H   0  0  0  0  0  0  0  0  0  0  0  0
   -4.2481    3.0519   -2.3260 H   0  0  0  0  0  0  0  0  0  0  0  0
   -1.2082    3.1706   -1.7509 H   0  0  0  0  0  0  0  0  0  0  0  0
   -2.5852    3.8812   -0.8040 H   0  0  0  0  0  0  0  0  0  0  0  0
   -2.8224    4.6391   -3.5396 H   0  0  0  0  0  0  0  0  0  0  0  0
   -2.5128    6.7232   -0.9541 H   0  0  0  0  0  0  0  0  0  0  0  0
   -1.7333    7.8329   -2.1624 H   0  0  0  0  0  0  0  0  0  0  0  0
    0.5090    6.4959   -2.7156 H   0  0  0  0  0  0  0  0  0  0  0  0
   -4.3826   -1.3313   -1.7721 H   0  0  0  0  0  0  0  0  0  0  0  0
   -4.0293   -2.5567    0.9284 H   0  0  0  0  0  0  0  0  0  0  0  0
   -6.4461   -2.1662   -0.9718 H   0  0  0  0  0  0  0  0  0  0  0  0
   -6.0613   -1.1997    0.4484 H   0  0  0  0  0  0  0  0  0  0  0  0
   -7.4569   -4.2191   -0.9573 H   0  0  0  0  0  0  0  0  0  0  0  0
   -8.9333   -5.7855    0.2640 H   0  0  0  0  0  0  0  0  0  0  0  0
   -9.1280   -5.5832    2.6816 H   0  0  0  0  0  0  0  0  0  0  0  0
   -7.8697   -3.8308    3.9381 H   0  0  0  0  0  0  0  0  0  0  0  0
   -6.4133   -2.2867    2.7293 H   0  0  0  0  0  0  0  0  0  0  0  0
   -4.8424   -5.9284   -0.8790 H   0  0  0  0  0  0  0  0  0  0  0  0
   -4.6936   -5.3427    0.7769 H   0  0  0  0  0  0  0  0  0  0  0  0
  1  2  1  0
  2  3  2  0
  3  4  1  0
  4  5  1  0
  4  6  2  0
  6  7  1  0
  7  8  1  0
  7  9  2  0
  9 10  1  0
 10 11  1  0
 11 12  1  0
 11 13  1  0
 13 14  2  0
 13 15  1  0
 15 16  1  0
 16 17  1  0
 17 18  1  0
 18 19  2  0
 19 20  1  0
 20 21  2  0
 21 22  1  0
 22 23  2  0
 23 24  1  0
 24 25  1  0
 25 26  2  0
 25 27  1  0
 27 28  1  0
 28 29  1  0
 29 30  1  0
 30 31  1  0
 31 32  1  0
 32 33  1  0
 33 34  1  0
 33 35  2  3
 28 36  1  0
 36 37  2  0
 36 38  1  0
 38 39  1  0
 39 40  1  0
 40 41  1  0
 41 42  2  0
 42 43  1  0
 43 44  2  0
 44 45  1  0
 45 46  2  0
 39 47  1  0
 47 48  1  0
 47 49  2  0
  9  2  1  0
 24 15  1  0
 46 41  1  0
 23 18  1  0
  1 50  1  0
  1 51  1  0
  1 52  1  0
  3 53  1  0
  5 54  1  0
  6 55  1  0
  8 56  1  0
  8 57  1  0
  8 58  1  0
 10 59  1  0
 10 60  1  0
 11 61  1  6
 12 62  1  0
 12 63  1  0
 16 64  1  0
 16 65  1  0
 17 66  1  0
 17 67  1  0
 19 68  1  0
 20 69  1  0
 21 70  1  0
 22 71  1  0
 24 72  1  0
 27 73  1  0
 28 74  1  6
 29 75  1  0
 29 76  1  0
 30 77  1  0
 30 78  1  0
 31 79  1  0
 31 80  1  0
 32 81  1  0
 34 82  1  0
 34 83  1  0
 35 84  1  0
 38 85  1  0
 39 86  1  1
 40 87  1  0
 40 88  1  0
 42 89  1  0
 43 90  1  0
 44 91  1  0
 45 92  1  0
 46 93  1  0
 48 94  1  0
 48 95  1  0
M  END
$$$$
[H]c1nc(N([H])[H])c2c(-c3nc(N([H])c4c([H])c([H])c([H])c([H])c4OC([H])(C([H])([H])[H])C([H])([H])[H])nc([H])c3[H])c([H])n([H])c2n1
     RDKit          3D

 46 49  0  0  0  0  0  0  0  0999 V2000
   -4.5765    2.4572    0.1297 C   0  0  0  0  0  0  0  0  0  0  0  0
   -3.7017    1.4091    0.8496 C   0  0  0  0  0  0  0  0  0  0  0  0
   -4.2912    1.3494    2.2879 C   0  0  0  0  0  0  0  0  0  0  0  0
   -3.6509    0.2395    0.3235 O   0  0  0  0  0  0  0  0  0  0  0  0
   -3.5982   -0.9536   -0.2132 C   0  0  0  0  0  0  0  0  0  0  0  0
   -4.7964   -1.6720   -0.3936 C   0  0  0  0  0  0  0  0  0  0  0  0
   -4.7372   -2.9075   -0.9503 C   0  0  0  0  0  0  0  0  0  0  0  0
   -3.5601   -3.4817   -1.3427 C   0  0  0  0  0  0  0  0  0  0  0  0
   -2.3836   -2.7517   -1.1545 C   0  0  0  0  0  0  0  0  0  0  0  0
   -2.3595   -1.5205   -0.6094 C   0  0  0  0  0  0  0  0  0  0  0  0
   -1.2365   -0.7224   -0.3810 N   0  0  0  0  0  0  0  0  0  0  0  0
    0.1216   -0.9857   -0.6668 C   0  0  0  0  0  0  0  0  0  0  0  0
    0.5884   -2.0973   -1.2342 N   0  0  0  0  0  0  0  0  0  0  0  0
    1.8616   -2.3593   -1.5091 C   0  0  0  0  0  0  0  0  0  0  0  0
    2.8243   -1.3927   -1.1816 C   0  0  0  0  0  0  0  0  0  0  0  0
    2.3993   -0.2458   -0.6007 C   0  0  0  0  0  0  0  0  0  0  0  0
    1.0892   -0.0690   -0.3616 N   0  0  0  0  0  0  0  0  0  0  0  0
    3.2609    0.8805   -0.3004 C   0  0  0  0  0  0  0  0  0  0  0  0
    2.9175    2.2168   -0.6267 C   0  0  0  0  0  0  0  0  0  0  0  0
    3.8491    3.0610   -0.2022 N   0  0  0  0  0  0  0  0  0  0  0  0
    4.8128    2.3640    0.4014 C   0  0  0  0  0  0  0  0  0  0  0  0
    5.9438    2.7084    1.0127 N   0  0  0  0  0  0  0  0  0  0  0  0
    6.7745    1.8230    1.5926 C   0  0  0  0  0  0  0  0  0  0  0  0
    6.4310    0.5443    1.5433 N   0  0  0  0  0  0  0  0  0  0  0  0
    5.3100    0.1041    0.9480 C   0  0  0  0  0  0  0  0  0  0  0  0
    5.0273   -1.2594    1.0205 N   0  0  0  0  0  0  0  0  0  0  0  0
    4.4630    1.0069    0.3516 C   0  0  0  0  0  0  0  0  0  0  0  0
   -5.4592    1.9761   -0.3390 H   0  0  0  0  0  0  0  0  0  0  0  0
   -4.0041    2.9304   -0.6997 H   0  0  0  0  0  0  0  0  0  0  0  0
   -4.9647    3.1991    0.8550 H   0  0  0  0  0  0  0  0  0  0  0  0
   -2.7161    1.9825    0.9856 H   0  0  0  0  0  0  0  0  0  0  0  0
   -4.4141    2.3987    2.6030 H   0  0  0  0  0  0  0  0  0  0  0  0
   -3.5917    0.7719    2.9270 H   0  0  0  0  0  0  0  0  0  0  0  0
   -5.2757    0.8528    2.1723 H   0  0  0  0  0  0  0  0  0  0  0  0
   -5.7335   -1.2047   -0.0765 H   0  0  0  0  0  0  0  0  0  0  0  0
   -5.6998   -3.4305   -1.0712 H   0  0  0  0  0  0  0  0  0  0  0  0
   -3.5595   -4.4600   -1.7781 H   0  0  0  0  0  0  0  0  0  0  0  0
   -1.4706   -3.2341   -1.4748 H   0  0  0  0  0  0  0  0  0  0  0  0
   -1.3694    0.2455    0.0787 H   0  0  0  0  0  0  0  0  0  0  0  0
    2.1954   -3.2920   -1.9782 H   0  0  0  0  0  0  0  0  0  0  0  0
    3.8468   -1.6199   -1.4591 H   0  0  0  0  0  0  0  0  0  0  0  0
    2.0138    2.4948   -1.1516 H   0  0  0  0  0  0  0  0  0  0  0  0
    3.8620    4.1235   -0.3063 H   0  0  0  0  0  0  0  0  0  0  0  0
    7.6915    2.1045    2.0869 H   0  0  0  0  0  0  0  0  0  0  0  0
    4.3494   -1.6724    1.6937 H   0  0  0  0  0  0  0  0  0  0  0  0
    5.5164   -1.9118    0.3686 H   0  0  0  0  0  0  0  0  0  0  0  0
  1  2  1  0
  2  3  1  0
  2  4  1  0
  4  5  1  0
  5  6  2  0
  6  7  1  0
  7  8  2  0
  8  9  1  0
  9 10  2  0
 10 11  1  0
 11 12  1  0
 12 13  2  0
 13 14  1  0
 14 15  2  0
 15 16  1  0
 16 17  2  0
 16 18  1  0
 18 19  2  0
 19 20  1  0
 20 21  1  0
 21 22  2  0
 22 23  1  0
 23 24  2  0
 24 25  1  0
 25 26  1  0
 25 27  2  0
 10  5  1  0
 17 12  1  0
 27 18  1  0
 27 21  1  0
  1 28  1  0
  1 29  1  0
  1 30  1  0
  2 31  1  0
  3 32  1  0
  3 33  1  0
  3 34  1  0
  6 35  1  0
  7 36  1  0
  8 37  1  0
  9 38  1  0
 11 39  1  0
 14 40  1  0
 15 41  1  0
 19 42  1  0
 20 43  1  0
 23 44  1  0
 26 45  1  0
 26 46  1  0
M  END
$$$$
[H]c1nc([H])c(-c2c([H])c([H])c3nc([H])c4c(C([H])([H])[H])nn(C5([H])C([H])([H])C([H])(C([H])([H])[H])C([H])([H])C5([H])C([H])([H])[H])c4c3c2[H])c([H])c1C#N
     RDKit          3D

 52 56  0  0  0  0  0  0  0  0999 V2000
   -4.0849    2.8288    0.3150 C   0  0  0  0  0  0  0  0  0  0  0  0
   -3.4447    1.4427    0.0923 C   0  0  0  0  0  0  0  0  0  0  0  0
   -2.8051    1.4988   -1.2580 C   0  0  0  0  0  0  0  0  0  0  0  0
   -1.3308    1.6257   -0.9122 C   0  0  0  0  0  0  0  0  0  0  0  0
   -0.4704    1.3528   -2.0839 C   0  0  0  0  0  0  0  0  0  0  0  0
   -1.1242    0.7261    0.2927 C   0  0  0  0  0  0  0  0  0  0  0  0
   -2.3822    1.2285    1.1023 C   0  0  0  0  0  0  0  0  0  0  0  0
   -1.3340   -0.6481    0.0584 N   0  0  0  0  0  0  0  0  0  0  0  0
   -2.5935   -1.1174   -0.1010 N   0  0  0  0  0  0  0  0  0  0  0  0
   -2.6319   -2.4081   -0.2960 C   0  0  0  0  0  0  0  0  0  0  0  0
   -3.8044   -3.2903   -0.5107 C   0  0  0  0  0  0  0  0  0  0  0  0
   -1.3312   -2.8478   -0.2692 C   0  0  0  0  0  0  0  0  0  0  0  0
   -0.7222   -4.0656   -0.3991 C   0  0  0  0  0  0  0  0  0  0  0  0
    0.5987   -4.2387   -0.3243 N   0  0  0  0  0  0  0  0  0  0  0  0
    1.3689   -3.1587   -0.1112 C   0  0  0  0  0  0  0  0  0  0  0  0
    2.7510   -3.3016   -0.0332 C   0  0  0  0  0  0  0  0  0  0  0  0
    3.5534   -2.2130    0.1775 C   0  0  0  0  0  0  0  0  0  0  0  0
    2.9919   -0.9714    0.3122 C   0  0  0  0  0  0  0  0  0  0  0  0
    1.5987   -0.7998    0.2372 C   0  0  0  0  0  0  0  0  0  0  0  0
    0.8179   -1.8756    0.0319 C   0  0  0  0  0  0  0  0  0  0  0  0
   -0.5530   -1.7202   -0.0471 C   0  0  0  0  0  0  0  0  0  0  0  0
    3.8545    0.1911    0.5417 C   0  0  0  0  0  0  0  0  0  0  0  0
    5.0277    0.0661    1.2427 C   0  0  0  0  0  0  0  0  0  0  0  0
    5.8384    1.1278    1.4649 N   0  0  0  0  0  0  0  0  0  0  0  0
    5.4997    2.3511    0.9913 C   0  0  0  0  0  0  0  0  0  0  0  0
    4.3391    2.5132    0.2890 C   0  0  0  0  0  0  0  0  0  0  0  0
    3.9177    3.7822   -0.2424 C   0  0  0  0  0  0  0  0  0  0  0  0
    3.5686    4.7983   -0.6861 N   0  0  0  0  0  0  0  0  0  0  0  0
    3.5044    1.4254    0.0590 C   0  0  0  0  0  0  0  0  0  0  0  0
   -3.7048    3.5712   -0.4021 H   0  0  0  0  0  0  0  0  0  0  0  0
   -3.8096    3.1852    1.3488 H   0  0  0  0  0  0  0  0  0  0  0  0
   -5.1703    2.7962    0.2729 H   0  0  0  0  0  0  0  0  0  0  0  0
   -4.3061    0.7389    0.1404 H   0  0  0  0  0  0  0  0  0  0  0  0
   -3.0553    2.4298   -1.8343 H   0  0  0  0  0  0  0  0  0  0  0  0
   -3.0319    0.6618   -1.9254 H   0  0  0  0  0  0  0  0  0  0  0  0
   -1.1677    2.6682   -0.5749 H   0  0  0  0  0  0  0  0  0  0  0  0
    0.5905    1.5241   -1.8122 H   0  0  0  0  0  0  0  0  0  0  0  0
   -0.5341    0.3036   -2.4369 H   0  0  0  0  0  0  0  0  0  0  0  0
   -0.7144    2.0866   -2.8656 H   0  0  0  0  0  0  0  0  0  0  0  0
   -0.3633    1.0779    0.9641 H   0  0  0  0  0  0  0  0  0  0  0  0
   -2.1314    2.2071    1.5561 H   0  0  0  0  0  0  0  0  0  0  0  0
   -2.6140    0.4759    1.8728 H   0  0  0  0  0  0  0  0  0  0  0  0
   -4.5882   -2.7400   -1.0878 H   0  0  0  0  0  0  0  0  0  0  0  0
   -3.5231   -4.2067   -1.0656 H   0  0  0  0  0  0  0  0  0  0  0  0
   -4.2182   -3.5674    0.4845 H   0  0  0  0  0  0  0  0  0  0  0  0
   -1.3975   -4.9195   -0.5732 H   0  0  0  0  0  0  0  0  0  0  0  0
    3.1936   -4.2809   -0.1401 H   0  0  0  0  0  0  0  0  0  0  0  0
    4.6389   -2.3161    0.2407 H   0  0  0  0  0  0  0  0  0  0  0  0
    1.2821    0.1814    0.3263 H   0  0  0  0  0  0  0  0  0  0  0  0
    5.2807   -0.9173    1.6122 H   0  0  0  0  0  0  0  0  0  0  0  0
    6.1454    3.2198    1.1629 H   0  0  0  0  0  0  0  0  0  0  0  0
    2.5805    1.5180   -0.4923 H   0  0  0  0  0  0  0  0  0  0  0  0
  1  2  1  0
  2  3  1  0
  3  4  1  0
  4  5  1  0
  4  6  1  0
  6  7  1  0
  6  8  1  0
  8  9  1  0
  9 10  2  0
 10 11  1  0
 10 12  1  0
 12 13  2  0
 13 14  1  0
 14 15  2  0
 15 16  1  0
 16 17  2  0
 17 18  1  0
 18 19  2  0
 19 20  1  0
 20 21  2  0
 18 22  1  0
 22 23  2  0
 23 24  1  0
 24 25  2  0
 25 26  1  0
 26 27  1  0
 27 28  3  0
 26 29  2  0
  7  2  1  0
 21  8  1  0
 29 22  1  0
 21 12  1  0
 20 15  1  0
  1 30  1  0
  1 31  1  0
  1 32  1  0
  2 33  1  0
  3 34  1  0
  3 35  1  0
  4 36  1  0
  5 37  1  0
  5 38  1  0
  5 39  1  0
  6 40  1  0
  7 41  1  0
  7 42  1  0
 11 43  1  0
 11 44  1  0
 11 45  1  0
 13 46  1  0
 16 47  1  0
 17 48  1  0
 19 49  1  0
 23 50  1  0
 25 51  1  0
 29 52  1  0
M  END
$$$$
[H]c1c(OC([H])([H])[H])nc(N2C([H])([H])C([H])([H])N(C([H])([H])[H])C([H])([H])C2([H])[H])nc1N([H])c1nc2c([H])c([H])c(C(=O)N([H])c3c(Cl)c([H])c([H])c([H])c3C([H])([H])[H])c([H])c2s1
     RDKit          3D

 62 66  0  0  0  0  0  0  0  0999 V2000
   -4.0043   -4.4117    0.3366 C   0  0  0  0  0  0  0  0  0  0  0  0
   -3.0171   -3.4274    0.3044 O   0  0  0  0  0  0  0  0  0  0  0  0
   -3.3533   -2.0951    0.1999 C   0  0  0  0  0  0  0  0  0  0  0  0
   -2.3317   -1.1578    0.1721 C   0  0  0  0  0  0  0  0  0  0  0  0
   -2.6302    0.1588    0.0700 C   0  0  0  0  0  0  0  0  0  0  0  0
   -1.6800    1.1857    0.0330 N   0  0  0  0  0  0  0  0  0  0  0  0
   -0.2676    1.0808    0.0882 C   0  0  0  0  0  0  0  0  0  0  0  0
    0.5385    0.0495    0.1834 N   0  0  0  0  0  0  0  0  0  0  0  0
    1.8255    0.1855    0.2188 C   0  0  0  0  0  0  0  0  0  0  0  0
    2.7737   -0.8507    0.3189 C   0  0  0  0  0  0  0  0  0  0  0  0
    4.1048   -0.5751    0.3465 C   0  0  0  0  0  0  0  0  0  0  0  0
    4.6284    0.6892    0.2817 C   0  0  0  0  0  0  0  0  0  0  0  0
    3.6972    1.7170    0.1829 C   0  0  0  0  0  0  0  0  0  0  0  0
    2.3305    1.4559    0.1533 C   0  0  0  0  0  0  0  0  0  0  0  0
    0.8946    2.3799    0.0434 S   0  0  0  0  0  0  0  0  0  0  0  0
    6.0445    0.9141    0.3082 C   0  0  0  0  0  0  0  0  0  0  0  0
    6.5130    2.0848    0.5359 O   0  0  0  0  0  0  0  0  0  0  0  0
    6.9979   -0.0922    0.0938 N   0  0  0  0  0  0  0  0  0  0  0  0
    8.3902    0.1071    0.1166 C   0  0  0  0  0  0  0  0  0  0  0  0
    9.0503    0.4393   -1.0370 C   0  0  0  0  0  0  0  0  0  0  0  0
    8.3196    0.5899   -2.2960 C   0  0  0  0  0  0  0  0  0  0  0  0
   10.4312    0.6390   -1.0260 C   0  0  0  0  0  0  0  0  0  0  0  0
   11.1513    0.5104    0.1181 C   0  0  0  0  0  0  0  0  0  0  0  0
   10.4992    0.1759    1.2885 C   0  0  0  0  0  0  0  0  0  0  0  0
    9.1254   -0.0214    1.2716 C   0  0  0  0  0  0  0  0  0  0  0  0
    8.3419   -0.4425    2.7720 Cl  0  0  0  0  0  0  0  0  0  0  0  0
   -3.9604    0.4757   -0.0003 N   0  0  0  0  0  0  0  0  0  0  0  0
   -4.9408   -0.4326    0.0270 C   0  0  0  0  0  0  0  0  0  0  0  0
   -4.6250   -1.7304    0.1285 N   0  0  0  0  0  0  0  0  0  0  0  0
   -6.3178   -0.0285   -0.0525 N   0  0  0  0  0  0  0  0  0  0  0  0
   -7.3463   -1.0122   -0.0034 C   0  0  0  0  0  0  0  0  0  0  0  0
   -8.6495   -0.4971    0.5357 C   0  0  0  0  0  0  0  0  0  0  0  0
   -8.9601    0.8480    0.1590 N   0  0  0  0  0  0  0  0  0  0  0  0
   -9.2933    1.7038    1.2703 C   0  0  0  0  0  0  0  0  0  0  0  0
   -8.0482    1.4364   -0.7736 C   0  0  0  0  0  0  0  0  0  0  0  0
   -6.6429    1.3723   -0.1832 C   0  0  0  0  0  0  0  0  0  0  0  0
   -4.1572   -4.7805    1.3747 H   0  0  0  0  0  0  0  0  0  0  0  0
   -4.9680   -4.0370   -0.0658 H   0  0  0  0  0  0  0  0  0  0  0  0
   -3.6838   -5.3023   -0.2549 H   0  0  0  0  0  0  0  0  0  0  0  0
   -1.3235   -1.5123    0.2334 H   0  0  0  0  0  0  0  0  0  0  0  0
   -2.0233    2.2069   -0.0478 H   0  0  0  0  0  0  0  0  0  0  0  0
    2.4500   -1.9026    0.3763 H   0  0  0  0  0  0  0  0  0  0  0  0
    4.7895   -1.4246    0.4303 H   0  0  0  0  0  0  0  0  0  0  0  0
    4.0165    2.7350    0.1275 H   0  0  0  0  0  0  0  0  0  0  0  0
    6.6461   -1.0756   -0.1044 H   0  0  0  0  0  0  0  0  0  0  0  0
    8.9830    0.8906   -3.1338 H   0  0  0  0  0  0  0  0  0  0  0  0
    7.6023    1.4414   -2.1670 H   0  0  0  0  0  0  0  0  0  0  0  0
    7.8003   -0.3333   -2.6236 H   0  0  0  0  0  0  0  0  0  0  0  0
   10.9067    0.9027   -1.9775 H   0  0  0  0  0  0  0  0  0  0  0  0
   12.2348    0.6757    0.0848 H   0  0  0  0  0  0  0  0  0  0  0  0
   11.1003    0.0817    2.1801 H   0  0  0  0  0  0  0  0  0  0  0  0
   -7.0669   -1.9257    0.5585 H   0  0  0  0  0  0  0  0  0  0  0  0
   -7.5373   -1.3541   -1.0542 H   0  0  0  0  0  0  0  0  0  0  0  0
   -8.6114   -0.5443    1.6502 H   0  0  0  0  0  0  0  0  0  0  0  0
   -9.5106   -1.1399    0.2449 H   0  0  0  0  0  0  0  0  0  0  0  0
  -10.3577    1.5546    1.5317 H   0  0  0  0  0  0  0  0  0  0  0  0
   -9.1628    2.7609    0.9722 H   0  0  0  0  0  0  0  0  0  0  0  0
   -8.6494    1.4967    2.1638 H   0  0  0  0  0  0  0  0  0  0  0  0
   -8.3388    2.4999   -0.9033 H   0  0  0  0  0  0  0  0  0  0  0  0
   -8.1174    0.8710   -1.7255 H   0  0  0  0  0  0  0  0  0  0  0  0
   -5.9274    1.8834   -0.8619 H   0  0  0  0  0  0  0  0  0  0  0  0
   -6.6833    1.9075    0.7842 H   0  0  0  0  0  0  0  0  0  0  0  0
  1  2  1  0
  2  3  1  0
  3  4  2  0
  4  5  1  0
  5  6  1  0
  6  7  1  0
  7  8  2  0
  8  9  1  0
  9 10  2  0
 10 11  1  0
 11 12  2  0
 12 13  1  0
 13 14  2  0
 14 15  1  0
 12 16  1  0
 16 17  2  0
 16 18  1  0
 18 19  1  0
 19 20  2  0
 20 21  1  0
 20 22  1  0
 22 23  2  0
 23 24  1  0
 24 25  2  0
 25 26  1  0
  5 27  2  0
 27 28  1  0
 28 29  2  0
 28 30  1  0
 30 31  1  0
 31 32  1  0
 32 33  1  0
 33 34  1  0
 33 35  1  0
 35 36  1  0
 29  3  1  0
 36 30  1  0
 15  7  1  0
 25 19  1  0
 14  9  1  0
  1 37  1  0
  1 38  1  0
  1 39  1  0
  4 40  1  0
  6 41  1  0
 10 42  1  0
 11 43  1  0
 13 44  1  0
 18 45  1  0
 21 46  1  0
 21 47  1  0
 21 48  1  0
 22 49  1  0
 23 50  1  0
 24 51  1  0
 31 52  1  0
 31 53  1  0
 32 54  1  0
 32 55  1  0
 34 56  1  0
 34 57  1  0
 34 58  1  0
 35 59  1  0
 35 60  1  0
 36 61  1  0
 36 62  1  0
M  END
$$$$
[H]N=C(N([H])[H])N([H])C([H])([H])C([H])([H])C([H])([H])[C@@]([H])(C(=O)c1nc2c([H])c([H])c([H])c([H])c2s1)N([H])C(=O)[C@]([H])(N([H])C(=O)[C@@]([H])(N([H])c1c([H])c([H])c(C([H])=[N+]=[N-])c([H])c1[H])C([H])([H])c1c([H])c([H])c([H])c([H])c1[H])C([H])([H])C([H])([H])C([H])([H])N([H])[H]
     RDKit          3D

 88 91  0  0  0  0  0  0  0  0999 V2000
   -0.5002    5.0075    1.0912 N   0  0  0  0  0  0  0  0  0  0  0  0
   -0.3968    4.2960   -0.1841 C   0  0  0  0  0  0  0  0  0  0  0  0
   -0.0630    2.8553    0.1394 C   0  0  0  0  0  0  0  0  0  0  0  0
    0.0722    2.0094   -1.0844 C   0  0  0  0  0  0  0  0  0  0  0  0
    0.4058    0.5854   -0.6232 C   0  0  1  0  0  0  0  0  0  0  0  0
    1.6195    0.5165    0.1220 N   0  0  0  0  0  0  0  0  0  0  0  0
    2.7720   -0.1908   -0.3095 C   0  0  0  0  0  0  0  0  0  0  0  0
    2.6794   -0.7873   -1.4353 O   0  0  0  0  0  0  0  0  0  0  0  0
    4.0375   -0.2635    0.4768 C   0  0  2  0  0  0  0  0  0  0  0  0
    4.6123    1.1275    0.6909 C   0  0  0  0  0  0  0  0  0  0  0  0
    4.9403    1.8511   -0.5464 C   0  0  0  0  0  0  0  0  0  0  0  0
    6.1635    1.7076   -1.1652 C   0  0  0  0  0  0  0  0  0  0  0  0
    6.5021    2.3967   -2.3322 C   0  0  0  0  0  0  0  0  0  0  0  0
    5.5858    3.2575   -2.8976 C   0  0  0  0  0  0  0  0  0  0  0  0
    4.3709    3.4059   -2.2897 C   0  0  0  0  0  0  0  0  0  0  0  0
    4.0424    2.7150   -1.1265 C   0  0  0  0  0  0  0  0  0  0  0  0
    4.9864   -1.1405   -0.1500 N   0  0  0  0  0  0  0  0  0  0  0  0
    6.1746   -1.6246    0.4806 C   0  0  0  0  0  0  0  0  0  0  0  0
    7.1456   -2.2885   -0.2281 C   0  0  0  0  0  0  0  0  0  0  0  0
    8.2869   -2.7735    0.3540 C   0  0  0  0  0  0  0  0  0  0  0  0
    8.4583   -2.5816    1.7094 C   0  0  0  0  0  0  0  0  0  0  0  0
    7.5239   -1.9266    2.4699 C   0  0  0  0  0  0  0  0  0  0  0  0
    6.3896   -1.4541    1.8466 C   0  0  0  0  0  0  0  0  0  0  0  0
    9.6666   -3.0897    2.3495 C   0  0  0  0  0  0  0  0  0  0  0  0
   10.5443   -3.6934    1.6876 N   0  0  0  0  0  0  0  0  0  0  0  0
   11.5683   -3.9119    1.0065 N   0  0  0  0  0  0  0  0  0  0  0  0
   -0.7609   -0.0075    0.0516 C   0  0  0  0  0  0  0  0  0  0  0  0
   -0.6275   -0.5216    1.1791 O   0  0  0  0  0  0  0  0  0  0  0  0
   -2.0189    0.0063   -0.5728 N   0  0  0  0  0  0  0  0  0  0  0  0
   -3.2219   -0.5684    0.0451 C   0  0  1  0  0  0  0  0  0  0  0  0
   -4.1334    0.6425    0.3059 C   0  0  0  0  0  0  0  0  0  0  0  0
   -5.4322    0.2507    0.9372 C   0  0  0  0  0  0  0  0  0  0  0  0
   -6.3100    1.4607    1.2027 C   0  0  0  0  0  0  0  0  0  0  0  0
   -6.6285    2.1686   -0.0022 N   0  0  0  0  0  0  0  0  0  0  0  0
   -7.4291    3.3274    0.0022 C   0  0  0  0  0  0  0  0  0  0  0  0
   -8.8400    3.2250   -0.0647 N   0  0  0  0  0  0  0  0  0  0  0  0
   -6.9424    4.5374    0.0663 N   0  0  0  0  0  0  0  0  0  0  0  0
   -3.8926   -1.4172   -0.9405 C   0  0  0  0  0  0  0  0  0  0  0  0
   -3.8091   -1.1729   -2.1696 O   0  0  0  0  0  0  0  0  0  0  0  0
   -4.6896   -2.5933   -0.5369 C   0  0  0  0  0  0  0  0  0  0  0  0
   -5.3659   -3.4245   -1.3125 N   0  0  0  0  0  0  0  0  0  0  0  0
   -5.9989   -4.4299   -0.7928 C   0  0  0  0  0  0  0  0  0  0  0  0
   -6.7554   -5.3883   -1.4975 C   0  0  0  0  0  0  0  0  0  0  0  0
   -7.3785   -6.4013   -0.8529 C   0  0  0  0  0  0  0  0  0  0  0  0
   -7.3221   -6.5692    0.5109 C   0  0  0  0  0  0  0  0  0  0  0  0
   -6.5896   -5.6461    1.2200 C   0  0  0  0  0  0  0  0  0  0  0  0
   -5.9372   -4.5892    0.5658 C   0  0  0  0  0  0  0  0  0  0  0  0
   -4.9585   -3.2639    1.0177 S   0  0  0  0  0  0  0  0  0  0  0  0
    0.4674    4.9390    1.5148 H   0  0  0  0  0  0  0  0  0  0  0  0
   -1.0952    4.3891    1.7090 H   0  0  0  0  0  0  0  0  0  0  0  0
   -1.3297    4.3431   -0.7546 H   0  0  0  0  0  0  0  0  0  0  0  0
    0.4189    4.6974   -0.8053 H   0  0  0  0  0  0  0  0  0  0  0  0
    0.9414    2.8423    0.6563 H   0  0  0  0  0  0  0  0  0  0  0  0
   -0.8496    2.4253    0.7836 H   0  0  0  0  0  0  0  0  0  0  0  0
   -0.8061    2.0211   -1.7272 H   0  0  0  0  0  0  0  0  0  0  0  0
    0.9193    2.4130   -1.6941 H   0  0  0  0  0  0  0  0  0  0  0  0
    0.5579   -0.0134   -1.5566 H   0  0  0  0  0  0  0  0  0  0  0  0
    1.7132    1.0051    1.0584 H   0  0  0  0  0  0  0  0  0  0  0  0
    3.7829   -0.6712    1.4699 H   0  0  0  0  0  0  0  0  0  0  0  0
    5.4771    1.1390    1.3789 H   0  0  0  0  0  0  0  0  0  0  0  0
    3.8025    1.6828    1.2540 H   0  0  0  0  0  0  0  0  0  0  0  0
    6.9500    1.0649   -0.7963 H   0  0  0  0  0  0  0  0  0  0  0  0
    7.4639    2.2804   -2.8148 H   0  0  0  0  0  0  0  0  0  0  0  0
    5.8170    3.7967   -3.7889 H   0  0  0  0  0  0  0  0  0  0  0  0
    3.6592    4.0877   -2.7463 H   0  0  0  0  0  0  0  0  0  0  0  0
    3.0593    2.9324   -0.7410 H   0  0  0  0  0  0  0  0  0  0  0  0
    4.8079   -1.4512   -1.1284 H   0  0  0  0  0  0  0  0  0  0  0  0
    6.9807   -2.4252   -1.3015 H   0  0  0  0  0  0  0  0  0  0  0  0
    9.0565   -3.3051   -0.2334 H   0  0  0  0  0  0  0  0  0  0  0  0
    7.6768   -1.7822    3.5482 H   0  0  0  0  0  0  0  0  0  0  0  0
    5.6381   -0.9394    2.4549 H   0  0  0  0  0  0  0  0  0  0  0  0
    9.8368   -2.9615    3.3995 H   0  0  0  0  0  0  0  0  0  0  0  0
   -2.1133    0.4394   -1.5133 H   0  0  0  0  0  0  0  0  0  0  0  0
   -3.0187   -1.0256    1.0202 H   0  0  0  0  0  0  0  0  0  0  0  0
   -3.6245    1.3938    0.9182 H   0  0  0  0  0  0  0  0  0  0  0  0
   -4.3734    1.1026   -0.6954 H   0  0  0  0  0  0  0  0  0  0  0  0
   -5.2595   -0.2296    1.9022 H   0  0  0  0  0  0  0  0  0  0  0  0
   -6.0366   -0.4171    0.2762 H   0  0  0  0  0  0  0  0  0  0  0  0
   -5.8275    2.1716    1.8992 H   0  0  0  0  0  0  0  0  0  0  0  0
   -7.2480    1.0791    1.6612 H   0  0  0  0  0  0  0  0  0  0  0  0
   -6.2624    1.8218   -0.9092 H   0  0  0  0  0  0  0  0  0  0  0  0
   -9.2529    2.6566   -0.8292 H   0  0  0  0  0  0  0  0  0  0  0  0
   -9.4452    3.7112    0.6407 H   0  0  0  0  0  0  0  0  0  0  0  0
   -5.9065    4.6758    0.1178 H   0  0  0  0  0  0  0  0  0  0  0  0
   -6.8538   -5.3306   -2.5886 H   0  0  0  0  0  0  0  0  0  0  0  0
   -7.9587   -7.1242   -1.4574 H   0  0  0  0  0  0  0  0  0  0  0  0
   -7.8310   -7.3837    0.9656 H   0  0  0  0  0  0  0  0  0  0  0  0
   -6.4797   -5.6818    2.2844 H   0  0  0  0  0  0  0  0  0  0  0  0
  1  2  1  0
  2  3  1  0
  3  4  1  0
  4  5  1  0
  5  6  1  0
  6  7  1  0
  7  8  2  0
  7  9  1  0
  9 10  1  0
 10 11  1  0
 11 12  2  0
 12 13  1  0
 13 14  2  0
 14 15  1  0
 15 16  2  0
  9 17  1  0
 17 18  1  0
 18 19  2  0
 19 20  1  0
 20 21  2  0
 21 22  1  0
 22 23  2  0
 21 24  1  0
 24 25  2  3
 25 26  2  0
  5 27  1  0
 27 28  2  0
 27 29  1  0
 29 30  1  0
 30 31  1  0
 31 32  1  0
 32 33  1  0
 33 34  1  0
 34 35  1  0
 35 36  1  0
 35 37  2  3
 30 38  1  0
 38 39  2  0
 38 40  1  0
 40 41  2  0
 41 42  1  0
 42 43  2  0
 43 44  1  0
 44 45  2  0
 45 46  1  0
 46 47  2  0
 47 48  1  0
 16 11  1  0
 23 18  1  0
 48 40  1  0
 47 42  1  0
  1 49  1  0
  1 50  1  0
  2 51  1  0
  2 52  1  0
  3 53  1  0
  3 54  1  0
  4 55  1  0
  4 56  1  0
  5 57  1  6
  6 58  1  0
  9 59  1  1
 10 60  1  0
 10 61  1  0
 12 62  1  0
 13 63  1  0
 14 64  1  0
 15 65  1  0
 16 66  1  0
 17 67  1  0
 19 68  1  0
 20 69  1  0
 22 70  1  0
 23 71  1  0
 24 72  1  0
 29 73  1  0
 30 74  1  1
 31 75  1  0
 31 76  1  0
 32 77  1  0
 32 78  1  0
 33 79  1  0
 33 80  1  0
 34 81  1  0
 36 82  1  0
 36 83  1  0
 37 84  1  0
 43 85  1  0
 44 86  1  0
 45 87  1  0
 46 88  1  0
M  CHG  2  25   1  26  -1
M  END
$$$$
[H]c1c(C([H])([H])C([H])([H])[H])nc(C2(N3C([H])([H])C([H])([H])C([H])(C(=O)N([H])c4c([H])c([H])c(C([H])([H])[H])c(Cl)c4[H])C([H])([H])C3([H])[H])C([H])([H])C([H])([H])C2([H])[H])c([H])c1[H]
     RDKit          3D

 59 62  0  0  0  0  0  0  0  0999 V2000
   -7.3489    2.5097   -0.1750 C   0  0  0  0  0  0  0  0  0  0  0  0
   -6.7181    1.1681    0.0622 C   0  0  0  0  0  0  0  0  0  0  0  0
   -5.2708    1.1671   -0.2269 C   0  0  0  0  0  0  0  0  0  0  0  0
   -4.6389    2.3091   -0.6638 C   0  0  0  0  0  0  0  0  0  0  0  0
   -3.2697    2.2919   -0.9282 C   0  0  0  0  0  0  0  0  0  0  0  0
   -2.5684    1.1250   -0.7449 C   0  0  0  0  0  0  0  0  0  0  0  0
   -3.2052    0.0020   -0.3099 C   0  0  0  0  0  0  0  0  0  0  0  0
   -4.5312    0.0579   -0.0669 N   0  0  0  0  0  0  0  0  0  0  0  0
   -2.5205   -1.3048   -0.0853 C   0  0  0  0  0  0  0  0  0  0  0  0
   -3.0654   -2.3193   -1.0446 C   0  0  0  0  0  0  0  0  0  0  0  0
   -3.7682   -3.0210    0.0943 C   0  0  0  0  0  0  0  0  0  0  0  0
   -3.1525   -2.0551    1.0630 C   0  0  0  0  0  0  0  0  0  0  0  0
   -1.1096   -1.2139    0.0615 N   0  0  0  0  0  0  0  0  0  0  0  0
   -0.6677   -0.5084    1.2289 C   0  0  0  0  0  0  0  0  0  0  0  0
    0.7581    0.0184    0.9789 C   0  0  0  0  0  0  0  0  0  0  0  0
    1.4957   -0.9574    0.0954 C   0  0  0  0  0  0  0  0  0  0  0  0
    1.0183   -2.3349    0.5025 C   0  0  0  0  0  0  0  0  0  0  0  0
   -0.4355   -2.4972    0.0083 C   0  0  0  0  0  0  0  0  0  0  0  0
    2.9481   -0.8514    0.1509 C   0  0  0  0  0  0  0  0  0  0  0  0
    3.7130   -1.8157    0.4331 O   0  0  0  0  0  0  0  0  0  0  0  0
    3.5447    0.4030   -0.1331 N   0  0  0  0  0  0  0  0  0  0  0  0
    4.9149    0.7101   -0.1633 C   0  0  0  0  0  0  0  0  0  0  0  0
    5.6425    0.3392   -1.3032 C   0  0  0  0  0  0  0  0  0  0  0  0
    6.9835    0.6452   -1.4129 C   0  0  0  0  0  0  0  0  0  0  0  0
    7.6142    1.3201   -0.3956 C   0  0  0  0  0  0  0  0  0  0  0  0
    9.0469    1.6694   -0.5009 C   0  0  0  0  0  0  0  0  0  0  0  0
    6.9146    1.6861    0.7250 C   0  0  0  0  0  0  0  0  0  0  0  0
    7.7617    2.5445    1.9933 Cl  0  0  0  0  0  0  0  0  0  0  0  0
    5.5550    1.3883    0.8629 C   0  0  0  0  0  0  0  0  0  0  0  0
   -6.9392    3.2877    0.5290 H   0  0  0  0  0  0  0  0  0  0  0  0
   -8.4670    2.4510   -0.0306 H   0  0  0  0  0  0  0  0  0  0  0  0
   -7.1998    2.8094   -1.2242 H   0  0  0  0  0  0  0  0  0  0  0  0
   -7.1823    0.4658   -0.6819 H   0  0  0  0  0  0  0  0  0  0  0  0
   -6.9728    0.7318    1.0454 H   0  0  0  0  0  0  0  0  0  0  0  0
   -5.2501    3.1891   -0.7788 H   0  0  0  0  0  0  0  0  0  0  0  0
   -2.8100    3.2195   -1.2746 H   0  0  0  0  0  0  0  0  0  0  0  0
   -1.5009    1.0877   -0.9426 H   0  0  0  0  0  0  0  0  0  0  0  0
   -3.8528   -1.9275   -1.7557 H   0  0  0  0  0  0  0  0  0  0  0  0
   -2.3501   -2.9004   -1.6307 H   0  0  0  0  0  0  0  0  0  0  0  0
   -4.8686   -2.9560    0.0827 H   0  0  0  0  0  0  0  0  0  0  0  0
   -3.4164   -4.0624    0.2303 H   0  0  0  0  0  0  0  0  0  0  0  0
   -2.4406   -2.5158    1.7811 H   0  0  0  0  0  0  0  0  0  0  0  0
   -3.8612   -1.4316    1.6524 H   0  0  0  0  0  0  0  0  0  0  0  0
   -0.6384   -1.1391    2.1415 H   0  0  0  0  0  0  0  0  0  0  0  0
   -1.2748    0.3771    1.4826 H   0  0  0  0  0  0  0  0  0  0  0  0
    0.7328    1.0340    0.5423 H   0  0  0  0  0  0  0  0  0  0  0  0
    1.2066    0.1127    1.9811 H   0  0  0  0  0  0  0  0  0  0  0  0
    1.1158   -0.8377   -0.9707 H   0  0  0  0  0  0  0  0  0  0  0  0
    1.6241   -3.0779   -0.0315 H   0  0  0  0  0  0  0  0  0  0  0  0
    1.0481   -2.5431    1.5677 H   0  0  0  0  0  0  0  0  0  0  0  0
   -0.8859   -3.2721    0.6415 H   0  0  0  0  0  0  0  0  0  0  0  0
   -0.3774   -2.7969   -1.0563 H   0  0  0  0  0  0  0  0  0  0  0  0
    2.9041    1.2190   -0.3626 H   0  0  0  0  0  0  0  0  0  0  0  0
    5.1229   -0.1979   -2.1013 H   0  0  0  0  0  0  0  0  0  0  0  0
    7.5501    0.3568   -2.3086 H   0  0  0  0  0  0  0  0  0  0  0  0
    9.3114    2.0851   -1.5003 H   0  0  0  0  0  0  0  0  0  0  0  0
    9.6442    0.7352   -0.4170 H   0  0  0  0  0  0  0  0  0  0  0  0
    9.3683    2.3442    0.3206 H   0  0  0  0  0  0  0  0  0  0  0  0
    5.0191    1.6762    1.7529 H   0  0  0  0  0  0  0  0  0  0  0  0
  1  2  1  0
  2  3  1  0
  3  4  2  0
  4  5  1  0
  5  6  2  0
  6  7  1  0
  7  8  2  0
  7  9  1  0
  9 10  1  0
 10 11  1  0
 11 12  1  0
  9 13  1  0
 13 14  1  0
 14 15  1  0
 15 16  1  0
 16 17  1  0
 17 18  1  0
 16 19  1  0
 19 20  2  0
 19 21  1  0
 21 22  1  0
 22 23  2  0
 23 24  1  0
 24 25  2  0
 25 26  1  0
 25 27  1  0
 27 28  1  0
 27 29  2  0
  8  3  1  0
 12  9  1  0
 18 13  1  0
 29 22  1  0
  1 30  1  0
  1 31  1  0
  1 32  1  0
  2 33  1  0
  2 34  1  0
  4 35  1  0
  5 36  1  0
  6 37  1  0
 10 38  1  0
 10 39  1  0
 11 40  1  0
 11 41  1  0
 12 42  1  0
 12 43  1  0
 14 44  1  0
 14 45  1  0
 15 46  1  0
 15 47  1  0
 16 48  1  0
 17 49  1  0
 17 50  1  0
 18 51  1  0
 18 52  1  0
 21 53  1  0
 23 54  1  0
 24 55  1  0
 26 56  1  0
 26 57  1  0
 26 58  1  0
 29 59  1  0
M  END
$$$$
[H]c1nc([H])c(N([H])C(=O)c2c([H])c(C#N)c([H])c(Oc3c([H])c([H])c([H])c(Cl)c3C([H])([H])[H])c2[H])nc1[H]
     RDKit          3D

 39 41  0  0  0  0  0  0  0  0999 V2000
   -3.5821    1.8262   -0.1647 C   0  0  0  0  0  0  0  0  0  0  0  0
   -4.2835    0.5252   -0.1245 C   0  0  0  0  0  0  0  0  0  0  0  0
   -5.6150    0.5000   -0.5653 C   0  0  0  0  0  0  0  0  0  0  0  0
   -6.3445    1.9686   -1.1604 Cl  0  0  0  0  0  0  0  0  0  0  0  0
   -6.3100   -0.6857   -0.5158 C   0  0  0  0  0  0  0  0  0  0  0  0
   -5.7232   -1.8392   -0.0438 C   0  0  0  0  0  0  0  0  0  0  0  0
   -4.4159   -1.7766    0.3794 C   0  0  0  0  0  0  0  0  0  0  0  0
   -3.6624   -0.5969    0.3504 C   0  0  0  0  0  0  0  0  0  0  0  0
   -2.3732   -0.6025    0.7856 O   0  0  0  0  0  0  0  0  0  0  0  0
   -1.2196   -0.3642    0.0944 C   0  0  0  0  0  0  0  0  0  0  0  0
   -1.1843   -0.2345   -1.2798 C   0  0  0  0  0  0  0  0  0  0  0  0
   -0.0414    0.0068   -2.0090 C   0  0  0  0  0  0  0  0  0  0  0  0
    1.1521    0.1256   -1.3012 C   0  0  0  0  0  0  0  0  0  0  0  0
    1.1789    0.0052    0.0704 C   0  0  0  0  0  0  0  0  0  0  0  0
    0.0027   -0.2370    0.7553 C   0  0  0  0  0  0  0  0  0  0  0  0
    2.4032    0.1107    0.8755 C   0  0  0  0  0  0  0  0  0  0  0  0
    2.3044    0.3278    2.1009 O   0  0  0  0  0  0  0  0  0  0  0  0
    3.6619   -0.0313    0.2755 N   0  0  0  0  0  0  0  0  0  0  0  0
    4.9318    0.0371    0.8731 C   0  0  0  0  0  0  0  0  0  0  0  0
    5.2110    0.2605    2.1865 C   0  0  0  0  0  0  0  0  0  0  0  0
    6.4962    0.3030    2.6396 N   0  0  0  0  0  0  0  0  0  0  0  0
    7.5345    0.1239    1.7942 C   0  0  0  0  0  0  0  0  0  0  0  0
    7.2681   -0.1030    0.4629 C   0  0  0  0  0  0  0  0  0  0  0  0
    6.0085   -0.1376    0.0589 N   0  0  0  0  0  0  0  0  0  0  0  0
   -0.0656    0.1332   -3.4451 C   0  0  0  0  0  0  0  0  0  0  0  0
   -0.0714    0.2493   -4.6076 N   0  0  0  0  0  0  0  0  0  0  0  0
   -2.7061    1.8240    0.4949 H   0  0  0  0  0  0  0  0  0  0  0  0
   -4.2807    2.6445    0.1710 H   0  0  0  0  0  0  0  0  0  0  0  0
   -3.2958    2.0532   -1.2007 H   0  0  0  0  0  0  0  0  0  0  0  0
   -7.3466   -0.7505   -0.8483 H   0  0  0  0  0  0  0  0  0  0  0  0
   -6.2852   -2.7852   -0.0064 H   0  0  0  0  0  0  0  0  0  0  0  0
   -3.9498   -2.6664    0.7480 H   0  0  0  0  0  0  0  0  0  0  0  0
   -2.1056   -0.3265   -1.8787 H   0  0  0  0  0  0  0  0  0  0  0  0
    2.0492    0.3191   -1.8640 H   0  0  0  0  0  0  0  0  0  0  0  0
   -0.0084   -0.3371    1.8415 H   0  0  0  0  0  0  0  0  0  0  0  0
    3.6107   -0.2175   -0.7912 H   0  0  0  0  0  0  0  0  0  0  0  0
    4.4424    0.4080    2.8968 H   0  0  0  0  0  0  0  0  0  0  0  0
    8.5352    0.1605    2.1670 H   0  0  0  0  0  0  0  0  0  0  0  0
    8.0795   -0.2461   -0.2159 H   0  0  0  0  0  0  0  0  0  0  0  0
  1  2  1  0
  2  3  2  0
  3  4  1  0
  3  5  1  0
  5  6  2  0
  6  7  1  0
  7  8  2  0
  8  9  1  0
  9 10  1  0
 10 11  2  0
 11 12  1  0
 12 13  2  0
 13 14  1  0
 14 15  2  0
 14 16  1  0
 16 17  2  0
 16 18  1  0
 18 19  1  0
 19 20  2  0
 20 21  1  0
 21 22  2  0
 22 23  1  0
 23 24  2  0
 12 25  1  0
 25 26  3  0
  8  2  1  0
 15 10  1  0
 24 19  1  0
  1 27  1  0
  1 28  1  0
  1 29  1  0
  5 30  1  0
  6 31  1  0
  7 32  1  0
 11 33  1  0
 13 34  1  0
 15 35  1  0
 18 36  1  0
 20 37  1  0
 22 38  1  0
 23 39  1  0
M  END
$$$$
[H]C([H])=C([H])C([H])([H])Oc1c([H])c(Cl)c([H])c([H])c1C([H])([H])C([H])([H])C([H])([H])[H].[H]OP([O-])(=S)OC([H])([H])C([H])(C([H])([H])[H])C([H])([H])[H]
     RDKit          3D

 48 47  0  0  0  0  0  0  0  0999 V2000
   -1.6207   -0.5303    1.2412 C   0  0  0  0  0  0  0  0  0  0  0  0
   -1.0168    0.5353    0.3477 C   0  0  0  0  0  0  0  0  0  0  0  0
   -2.0070    0.8495   -0.7270 C   0  0  0  0  0  0  0  0  0  0  0  0
    0.2970    0.0256   -0.1751 C   0  0  0  0  0  0  0  0  0  0  0  0
    1.1406   -0.2368    0.9034 O   0  0  0  0  0  0  0  0  0  0  0  0
    2.6401   -0.8148    0.3873 P   0  0  0  0  0  0  0  0  0  0  0  0
    3.6843    0.5198    0.2977 O   0  0  0  0  0  0  0  0  0  0  0  0
    2.5228   -1.5358   -1.1585 O   0  0  0  0  0  0  0  0  0  0  0  0
    3.3001   -1.9055    1.5372 S   0  0  0  0  0  0  0  0  0  0  0  0
   -2.8993   -1.9380    0.9525 C   0  0  0  0  0  0  0  0  0  0  0  0
   -1.9463   -0.8046    0.7542 C   0  0  0  0  0  0  0  0  0  0  0  0
   -1.9228   -0.3062   -0.6728 C   0  0  0  0  0  0  0  0  0  0  0  0
   -0.9489    0.8091   -0.7491 C   0  0  0  0  0  0  0  0  0  0  0  0
   -1.4342    2.0918   -0.8073 C   0  0  0  0  0  0  0  0  0  0  0  0
   -0.5803    3.1687   -0.8770 C   0  0  0  0  0  0  0  0  0  0  0  0
    0.7780    2.9673   -0.8896 C   0  0  0  0  0  0  0  0  0  0  0  0
    1.9061    4.2997   -0.9771 Cl  0  0  0  0  0  0  0  0  0  0  0  0
    1.2573    1.6458   -0.8298 C   0  0  0  0  0  0  0  0  0  0  0  0
    0.4284    0.5746   -0.7598 C   0  0  0  0  0  0  0  0  0  0  0  0
    0.8227   -0.7038   -0.7039 O   0  0  0  0  0  0  0  0  0  0  0  0
    2.1056   -1.2074   -0.6723 C   0  0  0  0  0  0  0  0  0  0  0  0
    2.7995   -0.8076    0.5696 C   0  0  0  0  0  0  0  0  0  0  0  0
    3.2368   -1.7507    1.3883 C   0  0  0  0  0  0  0  0  0  0  0  0
   -0.7768   -1.0751    1.6996 H   0  0  0  0  0  0  0  0  0  0  0  0
   -2.2760   -0.0251    1.9793 H   0  0  0  0  0  0  0  0  0  0  0  0
   -2.2526   -1.1897    0.6023 H   0  0  0  0  0  0  0  0  0  0  0  0
   -0.8187    1.4150    1.0128 H   0  0  0  0  0  0  0  0  0  0  0  0
   -2.4935    1.8270   -0.4431 H   0  0  0  0  0  0  0  0  0  0  0  0
   -2.8564    0.1107   -0.7717 H   0  0  0  0  0  0  0  0  0  0  0  0
   -1.5617    0.9625   -1.7321 H   0  0  0  0  0  0  0  0  0  0  0  0
    0.7729    0.6702   -0.9129 H   0  0  0  0  0  0  0  0  0  0  0  0
    0.1361   -0.9686   -0.6774 H   0  0  0  0  0  0  0  0  0  0  0  0
    3.1863    1.3662    0.1985 H   0  0  0  0  0  0  0  0  0  0  0  0
   -3.6195   -1.9543    0.1150 H   0  0  0  0  0  0  0  0  0  0  0  0
   -3.4542   -1.7731    1.8923 H   0  0  0  0  0  0  0  0  0  0  0  0
   -2.3880   -2.9174    1.0438 H   0  0  0  0  0  0  0  0  0  0  0  0
   -0.9122   -1.0577    1.0402 H   0  0  0  0  0  0  0  0  0  0  0  0
   -2.2495    0.0522    1.3814 H   0  0  0  0  0  0  0  0  0  0  0  0
   -2.9026    0.0412   -1.0154 H   0  0  0  0  0  0  0  0  0  0  0  0
   -1.5175   -1.1412   -1.2936 H   0  0  0  0  0  0  0  0  0  0  0  0
   -2.5154    2.2673   -0.7986 H   0  0  0  0  0  0  0  0  0  0  0  0
   -0.9833    4.1672   -0.9213 H   0  0  0  0  0  0  0  0  0  0  0  0
    2.3327    1.5400   -0.8681 H   0  0  0  0  0  0  0  0  0  0  0  0
    2.1078   -2.3317   -0.7930 H   0  0  0  0  0  0  0  0  0  0  0  0
    2.7190   -0.8831   -1.5756 H   0  0  0  0  0  0  0  0  0  0  0  0
    2.9508    0.2122    0.8197 H   0  0  0  0  0  0  0  0  0  0  0  0
    3.7454   -1.4701    2.2994 H   0  0  0  0  0  0  0  0  0  0  0  0
    3.0840   -2.7902    1.1436 H   0  0  0  0  0  0  0  0  0  0  0  0
  1  2  1  0
  2  3  1  0
  2  4  1  0
  4  5  1  0
  5  6  1  0
  6  7  1  0
  6  8  1  0
  6  9  2  0
 10 11  1  0
 11 12  1  0
 12 13  1  0
 13 14  2  0
 14 15  1  0
 15 16  2  0
 16 17  1  0
 16 18  1  0
 18 19  2  0
 19 20  1  0
 20 21  1  0
 21 22  1  0
 22 23  2  3
 19 13  1  0
  1 24  1  0
  1 25  1  0
  1 26  1  0
  2 27  1  0
  3 28  1  0
  3 29  1  0
  3 30  1  0
  4 31  1  0
  4 32  1  0
  7 33  1  0
 10 34  1  0
 10 35  1  0
 10 36  1  0
 11 37  1  0
 11 38  1  0
 12 39  1  0
 12 40  1  0
 14 41  1  0
 15 42  1  0
 18 43  1  0
 21 44  1  0
 21 45  1  0
 22 46  1  0
 23 47  1  0
 23 48  1  0
M  CHG  1   8  -1
M  END
$$$$
[H]OC(=O)C([H])(Br)C([H])([H])C(=O)OC(=O)c1c([H])c([H])c(Sc2c([H])c([H])c([H])c([H])c2C([H])([H])N(C([H])([H])[H])C([H])([H])[H])c([H])c1[H]
     RDKit          3D

 48 49  0  0  0  0  0  0  0  0999 V2000
   -6.6149    0.0229   -0.7192 C   0  0  0  0  0  0  0  0  0  0  0  0
   -5.3029    0.3642   -1.1690 N   0  0  0  0  0  0  0  0  0  0  0  0
   -5.3054    1.4381   -2.1111 C   0  0  0  0  0  0  0  0  0  0  0  0
   -4.2888    0.4474   -0.1790 C   0  0  0  0  0  0  0  0  0  0  0  0
   -3.9174   -0.8029    0.4998 C   0  0  0  0  0  0  0  0  0  0  0  0
   -4.4825   -2.0091    0.1379 C   0  0  0  0  0  0  0  0  0  0  0  0
   -4.1269   -3.2064    0.7664 C   0  0  0  0  0  0  0  0  0  0  0  0
   -3.1914   -3.1921    1.7709 C   0  0  0  0  0  0  0  0  0  0  0  0
   -2.6381   -1.9864    2.1191 C   0  0  0  0  0  0  0  0  0  0  0  0
   -2.9742   -0.8009    1.5141 C   0  0  0  0  0  0  0  0  0  0  0  0
   -2.1925    0.6786    2.0944 S   0  0  0  0  0  0  0  0  0  0  0  0
   -0.6251    0.9218    1.2957 C   0  0  0  0  0  0  0  0  0  0  0  0
    0.5549    0.3728    1.8117 C   0  0  0  0  0  0  0  0  0  0  0  0
    1.7761    0.5693    1.1987 C   0  0  0  0  0  0  0  0  0  0  0  0
    1.8743    1.3127    0.0579 C   0  0  0  0  0  0  0  0  0  0  0  0
    0.7138    1.8542   -0.4521 C   0  0  0  0  0  0  0  0  0  0  0  0
   -0.5162    1.6634    0.1547 C   0  0  0  0  0  0  0  0  0  0  0  0
    3.1584    1.5380   -0.6134 C   0  0  0  0  0  0  0  0  0  0  0  0
    3.1838    2.2290   -1.6615 O   0  0  0  0  0  0  0  0  0  0  0  0
    4.3414    1.0207   -0.1393 O   0  0  0  0  0  0  0  0  0  0  0  0
    5.5604    1.2397   -0.7845 C   0  0  0  0  0  0  0  0  0  0  0  0
    5.5287    1.9390   -1.8313 O   0  0  0  0  0  0  0  0  0  0  0  0
    6.8340    0.6764   -0.2636 C   0  0  0  0  0  0  0  0  0  0  0  0
    7.2322   -0.5746   -1.0292 C   0  0  0  0  0  0  0  0  0  0  0  0
    5.8642   -1.9311   -0.8670 Br  0  0  0  0  0  0  0  0  0  0  0  0
    8.4946   -1.0914   -0.4420 C   0  0  0  0  0  0  0  0  0  0  0  0
    8.5764   -1.4708    0.8886 O   0  0  0  0  0  0  0  0  0  0  0  0
    9.5269   -1.1965   -1.1487 O   0  0  0  0  0  0  0  0  0  0  0  0
   -7.2429    0.9435   -0.7247 H   0  0  0  0  0  0  0  0  0  0  0  0
   -6.6454   -0.3813    0.3121 H   0  0  0  0  0  0  0  0  0  0  0  0
   -7.1177   -0.6827   -1.4367 H   0  0  0  0  0  0  0  0  0  0  0  0
   -4.3200    1.8342   -2.3494 H   0  0  0  0  0  0  0  0  0  0  0  0
   -5.9395    2.2635   -1.6757 H   0  0  0  0  0  0  0  0  0  0  0  0
   -5.8795    1.1144   -3.0265 H   0  0  0  0  0  0  0  0  0  0  0  0
   -3.3460    0.7891   -0.7117 H   0  0  0  0  0  0  0  0  0  0  0  0
   -4.4802    1.2804    0.5428 H   0  0  0  0  0  0  0  0  0  0  0  0
   -5.2096   -2.0928   -0.6489 H   0  0  0  0  0  0  0  0  0  0  0  0
   -4.5945   -4.1006    0.4463 H   0  0  0  0  0  0  0  0  0  0  0  0
   -2.9301   -4.1273    2.2445 H   0  0  0  0  0  0  0  0  0  0  0  0
   -1.8964   -2.0043    2.9211 H   0  0  0  0  0  0  0  0  0  0  0  0
    0.4633   -0.2185    2.7226 H   0  0  0  0  0  0  0  0  0  0  0  0
    2.6737    0.1378    1.6119 H   0  0  0  0  0  0  0  0  0  0  0  0
    0.7932    2.4405   -1.3523 H   0  0  0  0  0  0  0  0  0  0  0  0
   -1.3970    2.1207   -0.3010 H   0  0  0  0  0  0  0  0  0  0  0  0
    7.6447    1.4203   -0.4292 H   0  0  0  0  0  0  0  0  0  0  0  0
    6.7875    0.4727    0.8180 H   0  0  0  0  0  0  0  0  0  0  0  0
    7.3374   -0.3417   -2.1061 H   0  0  0  0  0  0  0  0  0  0  0  0
    8.2553   -0.8937    1.6564 H   0  0  0  0  0  0  0  0  0  0  0  0
  1  2  1  0
  2  3  1  0
  2  4  1  0
  4  5  1  0
  5  6  2  0
  6  7  1  0
  7  8  2  0
  8  9  1  0
  9 10  2  0
 10 11  1  0
 11 12  1  0
 12 13  2  0
 13 14  1  0
 14 15  2  0
 15 16  1  0
 16 17  2  0
 15 18  1  0
 18 19  2  0
 18 20  1  0
 20 21  1  0
 21 22  2  0
 21 23  1  0
 23 24  1  0
 24 25  1  0
 24 26  1  0
 26 27  1  0
 26 28  2  0
 10  5  1  0
 17 12  1  0
  1 29  1  0
  1 30  1  0
  1 31  1  0
  3 32  1  0
  3 33  1  0
  3 34  1  0
  4 35  1  0
  4 36  1  0
  6 37  1  0
  7 38  1  0
  8 39  1  0
  9 40  1  0
 13 41  1  0
 14 42  1  0
 16 43  1  0
 17 44  1  0
 23 45  1  0
 23 46  1  0
 24 47  1  0
 27 48  1  0
M  END
$$$$
[H]OP(=O)(C([H])([H])c1c([H])c([H])c([H])c([H])c1[H])C([H])([H])C([H])(C([H])([H])c1c([H])c([H])c([H])c([H])c1[H])C([H])([H])P(=O)(O[H])C([H])(N([H])[H])C([H])([H])C([H])([H])c1c([H])c([H])c([H])c([H])c1[H]
     RDKit          3D

 66 68  0  0  0  0  0  0  0  0999 V2000
   -2.0780   -0.1186   -3.1181 N   0  0  0  0  0  0  0  0  0  0  0  0
   -2.6257   -0.0607   -1.7390 C   0  0  0  0  0  0  0  0  0  0  0  0
   -2.5071   -1.4342   -1.2196 C   0  0  0  0  0  0  0  0  0  0  0  0
   -3.0307   -1.7432    0.1443 C   0  0  0  0  0  0  0  0  0  0  0  0
   -4.4892   -1.5632    0.3057 C   0  0  0  0  0  0  0  0  0  0  0  0
   -5.3319   -2.5768   -0.0726 C   0  0  0  0  0  0  0  0  0  0  0  0
   -6.6880   -2.4334    0.0929 C   0  0  0  0  0  0  0  0  0  0  0  0
   -7.2237   -1.2922    0.6313 C   0  0  0  0  0  0  0  0  0  0  0  0
   -6.3673   -0.2853    1.0059 C   0  0  0  0  0  0  0  0  0  0  0  0
   -4.9888   -0.4186    0.8436 C   0  0  0  0  0  0  0  0  0  0  0  0
   -1.5777    1.1756   -0.8685 P   0  0  0  0  0  0  0  0  0  0  0  0
   -0.8604    2.1026   -2.1053 O   0  0  0  0  0  0  0  0  0  0  0  0
   -2.5558    2.0811   -0.1706 O   0  0  0  0  0  0  0  0  0  0  0  0
   -0.4345    0.4352    0.2247 C   0  0  0  0  0  0  0  0  0  0  0  0
    0.9724    0.8311    0.3558 C   0  0  0  0  0  0  0  0  0  0  0  0
    1.3804    2.1380    0.8305 C   0  0  0  0  0  0  0  0  0  0  0  0
    1.0746    3.4021    0.1983 C   0  0  0  0  0  0  0  0  0  0  0  0
    1.8583    3.9120   -0.8396 C   0  0  0  0  0  0  0  0  0  0  0  0
    1.5728    5.1398   -1.3500 C   0  0  0  0  0  0  0  0  0  0  0  0
    0.5388    5.9321   -0.9017 C   0  0  0  0  0  0  0  0  0  0  0  0
   -0.2303    5.4413    0.1109 C   0  0  0  0  0  0  0  0  0  0  0  0
    0.0433    4.1975    0.6423 C   0  0  0  0  0  0  0  0  0  0  0  0
    1.5529   -0.2304    1.3479 C   0  0  0  0  0  0  0  0  0  0  0  0
    3.2766   -0.0055    1.6860 P   0  0  0  0  0  0  0  0  0  0  0  0
    4.1935    0.5347    0.3749 O   0  0  0  0  0  0  0  0  0  0  0  0
    3.5226    0.9533    2.8373 O   0  0  0  0  0  0  0  0  0  0  0  0
    3.9133   -1.6221    2.2752 C   0  0  0  0  0  0  0  0  0  0  0  0
    4.4283   -2.4254    1.1504 C   0  0  0  0  0  0  0  0  0  0  0  0
    3.5683   -3.2699    0.4933 C   0  0  0  0  0  0  0  0  0  0  0  0
    4.0696   -4.0126   -0.5557 C   0  0  0  0  0  0  0  0  0  0  0  0
    5.3991   -3.8948   -0.9173 C   0  0  0  0  0  0  0  0  0  0  0  0
    6.2602   -3.0346   -0.2425 C   0  0  0  0  0  0  0  0  0  0  0  0
    5.7590   -2.2918    0.8067 C   0  0  0  0  0  0  0  0  0  0  0  0
   -1.0561   -0.3216   -3.0312 H   0  0  0  0  0  0  0  0  0  0  0  0
   -2.5935   -0.8110   -3.6913 H   0  0  0  0  0  0  0  0  0  0  0  0
   -3.6659    0.2540   -1.8102 H   0  0  0  0  0  0  0  0  0  0  0  0
   -1.4626   -1.8382   -1.2505 H   0  0  0  0  0  0  0  0  0  0  0  0
   -3.0513   -2.1752   -1.9058 H   0  0  0  0  0  0  0  0  0  0  0  0
   -2.4988   -1.1833    0.9455 H   0  0  0  0  0  0  0  0  0  0  0  0
   -2.8406   -2.8345    0.3337 H   0  0  0  0  0  0  0  0  0  0  0  0
   -4.9811   -3.5085   -0.5055 H   0  0  0  0  0  0  0  0  0  0  0  0
   -7.3758   -3.2181   -0.1973 H   0  0  0  0  0  0  0  0  0  0  0  0
   -8.2956   -1.2055    0.7502 H   0  0  0  0  0  0  0  0  0  0  0  0
   -6.7677    0.6293    1.4353 H   0  0  0  0  0  0  0  0  0  0  0  0
   -4.3511    0.4116    1.1726 H   0  0  0  0  0  0  0  0  0  0  0  0
   -0.1743    1.5258   -2.5164 H   0  0  0  0  0  0  0  0  0  0  0  0
   -0.3880   -0.7028   -0.0019 H   0  0  0  0  0  0  0  0  0  0  0  0
   -0.8738    0.4991    1.2880 H   0  0  0  0  0  0  0  0  0  0  0  0
    1.4844    0.5687   -0.6483 H   0  0  0  0  0  0  0  0  0  0  0  0
    1.0410    2.2389    1.9259 H   0  0  0  0  0  0  0  0  0  0  0  0
    2.5272    2.1812    1.0006 H   0  0  0  0  0  0  0  0  0  0  0  0
    2.6706    3.3361   -1.2210 H   0  0  0  0  0  0  0  0  0  0  0  0
    2.1641    5.5754   -2.1651 H   0  0  0  0  0  0  0  0  0  0  0  0
    0.3211    6.9040   -1.3138 H   0  0  0  0  0  0  0  0  0  0  0  0
   -1.0540    6.0444    0.4857 H   0  0  0  0  0  0  0  0  0  0  0  0
   -0.6228    3.8745    1.4551 H   0  0  0  0  0  0  0  0  0  0  0  0
    1.3880   -1.1960    0.8336 H   0  0  0  0  0  0  0  0  0  0  0  0
    0.9737   -0.1230    2.2828 H   0  0  0  0  0  0  0  0  0  0  0  0
    3.7391    0.2526   -0.4387 H   0  0  0  0  0  0  0  0  0  0  0  0
    4.7417   -1.4731    2.9974 H   0  0  0  0  0  0  0  0  0  0  0  0
    3.1007   -2.2078    2.7632 H   0  0  0  0  0  0  0  0  0  0  0  0
    2.5334   -3.3391    0.8009 H   0  0  0  0  0  0  0  0  0  0  0  0
    3.4135   -4.6835   -1.0879 H   0  0  0  0  0  0  0  0  0  0  0  0
    5.8296   -4.4602   -1.7343 H   0  0  0  0  0  0  0  0  0  0  0  0
    7.2924   -2.9593   -0.5418 H   0  0  0  0  0  0  0  0  0  0  0  0
    6.4376   -1.6183    1.3334 H   0  0  0  0  0  0  0  0  0  0  0  0
  1  2  1  0
  2  3  1  0
  3  4  1  0
  4  5  1  0
  5  6  2  0
  6  7  1  0
  7  8  2  0
  8  9  1  0
  9 10  2  0
  2 11  1  0
 11 12  1  0
 11 13  2  0
 11 14  1  0
 14 15  1  0
 15 16  1  0
 16 17  1  0
 17 18  2  0
 18 19  1  0
 19 20  2  0
 20 21  1  0
 21 22  2  0
 15 23  1  0
 23 24  1  0
 24 25  1  0
 24 26  2  0
 24 27  1  0
 27 28  1  0
 28 29  2  0
 29 30  1  0
 30 31  2  0
 31 32  1  0
 32 33  2  0
 10  5  1  0
 22 17  1  0
 33 28  1  0
  1 34  1  0
  1 35  1  0
  2 36  1  0
  3 37  1  0
  3 38  1  0
  4 39  1  0
  4 40  1  0
  6 41  1  0
  7 42  1  0
  8 43  1  0
  9 44  1  0
 10 45  1  0
 12 46  1  0
 14 47  1  0
 14 48  1  0
 15 49  1  0
 16 50  1  0
 16 51  1  0
 18 52  1  0
 19 53  1  0
 20 54  1  0
 21 55  1  0
 22 56  1  0
 23 57  1  0
 23 58  1  0
 25 59  1  0
 27 60  1  0
 27 61  1  0
 29 62  1  0
 30 63  1  0
 31 64  1  0
 32 65  1  0
 33 66  1  0
M  END
$$$$
[H]OC(=O)C([H])([H])C(c1c([H])c([H])c(C([H])(c2c([H])c([H])c([H])c([H])c2[H])C(C([H])([H])[H])(C([H])([H])[H])C([H])([H])[H])c([H])c1[H])(C([H])([H])[H])C([H])([H])[H]
     RDKit          3D

 52 53  0  0  0  0  0  0  0  0999 V2000
   -4.1051   -1.1911   -0.9679 C   0  0  0  0  0  0  0  0  0  0  0  0
   -2.7139   -1.2882   -0.2776 C   0  0  0  0  0  0  0  0  0  0  0  0
   -3.0003   -1.8860    1.0345 C   0  0  0  0  0  0  0  0  0  0  0  0
   -2.0081   -2.3497   -1.1106 C   0  0  0  0  0  0  0  0  0  0  0  0
   -1.9862   -0.0004   -0.3930 C   0  0  0  0  0  0  0  0  0  0  0  0
   -2.5457    1.2082    0.1883 C   0  0  0  0  0  0  0  0  0  0  0  0
   -2.9387    2.2631   -0.6124 C   0  0  0  0  0  0  0  0  0  0  0  0
   -3.4714    3.4445   -0.1637 C   0  0  0  0  0  0  0  0  0  0  0  0
   -3.6261    3.5836    1.1981 C   0  0  0  0  0  0  0  0  0  0  0  0
   -3.2543    2.5705    2.0495 C   0  0  0  0  0  0  0  0  0  0  0  0
   -2.7279    1.4180    1.5377 C   0  0  0  0  0  0  0  0  0  0  0  0
   -0.4967   -0.0989   -0.3424 C   0  0  0  0  0  0  0  0  0  0  0  0
    0.2006   -0.6077    0.7396 C   0  0  0  0  0  0  0  0  0  0  0  0
    1.5858   -0.6983    0.7469 C   0  0  0  0  0  0  0  0  0  0  0  0
    2.3437   -0.2860   -0.3213 C   0  0  0  0  0  0  0  0  0  0  0  0
    1.6808    0.2274   -1.4157 C   0  0  0  0  0  0  0  0  0  0  0  0
    0.3194    0.3018   -1.3903 C   0  0  0  0  0  0  0  0  0  0  0  0
    3.8176   -0.3658   -0.3934 C   0  0  0  0  0  0  0  0  0  0  0  0
    4.1861   -1.2752   -1.5737 C   0  0  0  0  0  0  0  0  0  0  0  0
    4.2827    1.0287   -0.8037 C   0  0  0  0  0  0  0  0  0  0  0  0
    4.5179   -0.8521    0.8113 C   0  0  0  0  0  0  0  0  0  0  0  0
    4.3907   -0.0895    2.0404 C   0  0  0  0  0  0  0  0  0  0  0  0
    3.7444    1.1268    2.1641 O   0  0  0  0  0  0  0  0  0  0  0  0
    4.9084   -0.5635    3.0863 O   0  0  0  0  0  0  0  0  0  0  0  0
   -4.6968   -2.0820   -0.6891 H   0  0  0  0  0  0  0  0  0  0  0  0
   -3.9017   -1.0729   -2.0309 H   0  0  0  0  0  0  0  0  0  0  0  0
   -4.5646   -0.2365   -0.6268 H   0  0  0  0  0  0  0  0  0  0  0  0
   -3.6570   -2.8040    0.8216 H   0  0  0  0  0  0  0  0  0  0  0  0
   -2.1246   -2.3635    1.5225 H   0  0  0  0  0  0  0  0  0  0  0  0
   -3.6520   -1.3060    1.7211 H   0  0  0  0  0  0  0  0  0  0  0  0
   -1.0873   -2.7290   -0.6321 H   0  0  0  0  0  0  0  0  0  0  0  0
   -2.7109   -3.2085   -1.1525 H   0  0  0  0  0  0  0  0  0  0  0  0
   -1.8546   -2.0133   -2.1588 H   0  0  0  0  0  0  0  0  0  0  0  0
   -2.1326    0.1701   -1.5411 H   0  0  0  0  0  0  0  0  0  0  0  0
   -2.8353    2.1982   -1.7125 H   0  0  0  0  0  0  0  0  0  0  0  0
   -3.7515    4.2196   -0.8688 H   0  0  0  0  0  0  0  0  0  0  0  0
   -4.0467    4.5127    1.5793 H   0  0  0  0  0  0  0  0  0  0  0  0
   -3.3920    2.7207    3.1315 H   0  0  0  0  0  0  0  0  0  0  0  0
   -2.4407    0.6472    2.2305 H   0  0  0  0  0  0  0  0  0  0  0  0
   -0.3067   -0.9347    1.6032 H   0  0  0  0  0  0  0  0  0  0  0  0
    2.0500   -1.1314    1.6392 H   0  0  0  0  0  0  0  0  0  0  0  0
    2.2371    0.5739   -2.3089 H   0  0  0  0  0  0  0  0  0  0  0  0
   -0.1537    0.7240   -2.2925 H   0  0  0  0  0  0  0  0  0  0  0  0
    5.1643   -1.7484   -1.3809 H   0  0  0  0  0  0  0  0  0  0  0  0
    4.1845   -0.7038   -2.5237 H   0  0  0  0  0  0  0  0  0  0  0  0
    3.4258   -2.0805   -1.6104 H   0  0  0  0  0  0  0  0  0  0  0  0
    4.1108    1.1137   -1.8887 H   0  0  0  0  0  0  0  0  0  0  0  0
    5.3830    1.1517   -0.6572 H   0  0  0  0  0  0  0  0  0  0  0  0
    3.6837    1.8307   -0.3091 H   0  0  0  0  0  0  0  0  0  0  0  0
    5.6098   -1.0226    0.5896 H   0  0  0  0  0  0  0  0  0  0  0  0
    4.1343   -1.8968    1.0131 H   0  0  0  0  0  0  0  0  0  0  0  0
    4.2216    1.8513    2.7014 H   0  0  0  0  0  0  0  0  0  0  0  0
  1  2  1  0
  2  3  1  0
  2  4  1  0
  2  5  1  0
  5  6  1  0
  6  7  2  0
  7  8  1  0
  8  9  2  0
  9 10  1  0
 10 11  2  0
  5 12  1  0
 12 13  2  0
 13 14  1  0
 14 15  2  0
 15 16  1  0
 16 17  2  0
 15 18  1  0
 18 19  1  0
 18 20  1  0
 18 21  1  0
 21 22  1  0
 22 23  1  0
 22 24  2  0
 11  6  1  0
 17 12  1  0
  1 25  1  0
  1 26  1  0
  1 27  1  0
  3 28  1  0
  3 29  1  0
  3 30  1  0
  4 31  1  0
  4 32  1  0
  4 33  1  0
  5 34  1  0
  7 35  1  0
  8 36  1  0
  9 37  1  0
 10 38  1  0
 11 39  1  0
 13 40  1  0
 14 41  1  0
 16 42  1  0
 17 43  1  0
 19 44  1  0
 19 45  1  0
 19 46  1  0
 20 47  1  0
 20 48  1  0
 20 49  1  0
 21 50  1  0
 21 51  1  0
 23 52  1  0
M  END
$$$$
[H]OC([H])(c1c([H])c(F)c([H])c(-c2nc(N([H])[H])sc2[H])c1[H])C([H])([H])[H]
     RDKit          3D

 27 28  0  0  0  0  0  0  0  0999 V2000
   -3.1477   -1.4286   -0.3402 C   0  0  0  0  0  0  0  0  0  0  0  0
   -3.1147   -0.0295    0.1710 C   0  0  0  0  0  0  0  0  0  0  0  0
   -3.9407    0.8252   -0.5895 O   0  0  0  0  0  0  0  0  0  0  0  0
   -1.7741    0.5400    0.2979 C   0  0  0  0  0  0  0  0  0  0  0  0
   -1.6285    1.8740    0.6042 C   0  0  0  0  0  0  0  0  0  0  0  0
   -0.3656    2.4477    0.7324 C   0  0  0  0  0  0  0  0  0  0  0  0
   -0.2755    3.7719    1.0366 F   0  0  0  0  0  0  0  0  0  0  0  0
    0.7343    1.6533    0.5463 C   0  0  0  0  0  0  0  0  0  0  0  0
    0.6355    0.3169    0.2393 C   0  0  0  0  0  0  0  0  0  0  0  0
   -0.6142   -0.2097    0.1220 C   0  0  0  0  0  0  0  0  0  0  0  0
    1.8481   -0.5340    0.0400 C   0  0  0  0  0  0  0  0  0  0  0  0
    1.7412   -1.8704   -0.2670 C   0  0  0  0  0  0  0  0  0  0  0  0
    3.3798   -2.3375   -0.3794 S   0  0  0  0  0  0  0  0  0  0  0  0
    4.0994   -0.8064   -0.0295 C   0  0  0  0  0  0  0  0  0  0  0  0
    5.4921   -0.4777    0.0418 N   0  0  0  0  0  0  0  0  0  0  0  0
    3.0416   -0.0441    0.1490 N   0  0  0  0  0  0  0  0  0  0  0  0
   -4.1848   -1.6393   -0.7142 H   0  0  0  0  0  0  0  0  0  0  0  0
   -2.9539   -2.1692    0.4678 H   0  0  0  0  0  0  0  0  0  0  0  0
   -2.4699   -1.6331   -1.1823 H   0  0  0  0  0  0  0  0  0  0  0  0
   -3.5768   -0.0327    1.1991 H   0  0  0  0  0  0  0  0  0  0  0  0
   -4.1882    1.6134   -0.0189 H   0  0  0  0  0  0  0  0  0  0  0  0
   -2.4807    2.5234    0.7561 H   0  0  0  0  0  0  0  0  0  0  0  0
    1.7095    2.0888    0.6436 H   0  0  0  0  0  0  0  0  0  0  0  0
   -0.7390   -1.2419   -0.1150 H   0  0  0  0  0  0  0  0  0  0  0  0
    0.8196   -2.4676   -0.4015 H   0  0  0  0  0  0  0  0  0  0  0  0
    5.9377    0.0050   -0.7378 H   0  0  0  0  0  0  0  0  0  0  0  0
    6.0155   -0.7380    0.8842 H   0  0  0  0  0  0  0  0  0  0  0  0
  1  2  1  0
  2  3  1  0
  2  4  1  0
  4  5  2  0
  5  6  1  0
  6  7  1  0
  6  8  2  0
  8  9  1  0
  9 10  2  0
  9 11  1  0
 11 12  2  0
 12 13  1  0
 13 14  1  0
 14 15  1  0
 14 16  2  0
 10  4  1  0
 16 11  1  0
  1 17  1  0
  1 18  1  0
  1 19  1  0
  2 20  1  0
  3 21  1  0
  5 22  1  0
  8 23  1  0
 10 24  1  0
 12 25  1  0
 15 26  1  0
 15 27  1  0
M  END
$$$$
[H]OC(=O)[C@@]([H])(N([H])C(=O)[C@@]([H])(N([H])[H])C([H])([H])N([H])C(=O)C([H])(C([H])([H])c1c([H])c([H])c([H])c([H])c1[H])C([H])([H])c1c([H])c([H])c([H])c([H])c1[H])C([H])([H])c1c([H])c([H])c([H])c([H])c1[H]
     RDKit          3D

 66 68  0  0  0  0  0  0  0  0999 V2000
    0.1630    2.4570    2.6211 N   0  0  0  0  0  0  0  0  0  0  0  0
    0.8143    1.3100    2.0227 C   0  0  1  0  0  0  0  0  0  0  0  0
    0.0870    0.0348    2.1676 C   0  0  0  0  0  0  0  0  0  0  0  0
   -1.2056   -0.0865    1.6859 N   0  0  0  0  0  0  0  0  0  0  0  0
   -1.7798   -0.0267    0.4163 C   0  0  0  0  0  0  0  0  0  0  0  0
   -1.0888    0.1987   -0.5994 O   0  0  0  0  0  0  0  0  0  0  0  0
   -3.2164   -0.2353    0.2153 C   0  0  0  0  0  0  0  0  0  0  0  0
   -3.7171   -1.5136    0.8208 C   0  0  0  0  0  0  0  0  0  0  0  0
   -3.1444   -2.7536    0.3243 C   0  0  0  0  0  0  0  0  0  0  0  0
   -3.5856   -3.4008   -0.8180 C   0  0  0  0  0  0  0  0  0  0  0  0
   -3.0250   -4.5732   -1.2188 C   0  0  0  0  0  0  0  0  0  0  0  0
   -1.9894   -5.1863   -0.5171 C   0  0  0  0  0  0  0  0  0  0  0  0
   -1.5546   -4.5558    0.6028 C   0  0  0  0  0  0  0  0  0  0  0  0
   -2.1223   -3.3557    1.0209 C   0  0  0  0  0  0  0  0  0  0  0  0
   -4.0401    0.9008    0.7225 C   0  0  0  0  0  0  0  0  0  0  0  0
   -3.7575    2.1751    0.0367 C   0  0  0  0  0  0  0  0  0  0  0  0
   -2.9176    3.1401    0.5269 C   0  0  0  0  0  0  0  0  0  0  0  0
   -2.6932    4.2942   -0.1925 C   0  0  0  0  0  0  0  0  0  0  0  0
   -3.3203    4.4502   -1.3888 C   0  0  0  0  0  0  0  0  0  0  0  0
   -4.1702    3.4902   -1.8987 C   0  0  0  0  0  0  0  0  0  0  0  0
   -4.4004    2.3447   -1.1977 C   0  0  0  0  0  0  0  0  0  0  0  0
    1.3070    1.6116    0.6830 C   0  0  0  0  0  0  0  0  0  0  0  0
    0.9789    2.6771    0.0543 O   0  0  0  0  0  0  0  0  0  0  0  0
    2.1927    0.7105    0.0281 N   0  0  0  0  0  0  0  0  0  0  0  0
    2.6814    1.0228   -1.2931 C   0  0  1  0  0  0  0  0  0  0  0  0
    4.1732    1.3294   -1.2457 C   0  0  0  0  0  0  0  0  0  0  0  0
    4.9763    0.2168   -0.7368 C   0  0  0  0  0  0  0  0  0  0  0  0
    5.2092    0.1346    0.6249 C   0  0  0  0  0  0  0  0  0  0  0  0
    5.9603   -0.9089    1.0850 C   0  0  0  0  0  0  0  0  0  0  0  0
    6.4813   -1.8628    0.2430 C   0  0  0  0  0  0  0  0  0  0  0  0
    6.2541   -1.7877   -1.1103 C   0  0  0  0  0  0  0  0  0  0  0  0
    5.4868   -0.7250   -1.5985 C   0  0  0  0  0  0  0  0  0  0  0  0
    2.3500   -0.0236   -2.2706 C   0  0  0  0  0  0  0  0  0  0  0  0
    2.7143    0.0986   -3.6096 O   0  0  0  0  0  0  0  0  0  0  0  0
    1.7278   -1.0804   -1.9794 O   0  0  0  0  0  0  0  0  0  0  0  0
    0.4314    3.3508    2.1749 H   0  0  0  0  0  0  0  0  0  0  0  0
    0.2839    2.5048    3.6543 H   0  0  0  0  0  0  0  0  0  0  0  0
    1.7765    1.1856    2.7078 H   0  0  0  0  0  0  0  0  0  0  0  0
    0.7377   -0.8077    1.7015 H   0  0  0  0  0  0  0  0  0  0  0  0
    0.0887   -0.3073    3.2636 H   0  0  0  0  0  0  0  0  0  0  0  0
   -1.9822   -0.2701    2.4628 H   0  0  0  0  0  0  0  0  0  0  0  0
   -3.3464   -0.2861   -0.9230 H   0  0  0  0  0  0  0  0  0  0  0  0
   -3.5472   -1.4543    1.9199 H   0  0  0  0  0  0  0  0  0  0  0  0
   -4.8362   -1.5951    0.7254 H   0  0  0  0  0  0  0  0  0  0  0  0
   -4.3829   -2.9635   -1.3899 H   0  0  0  0  0  0  0  0  0  0  0  0
   -3.3553   -5.0991   -2.1135 H   0  0  0  0  0  0  0  0  0  0  0  0
   -1.5600   -6.1182   -0.8558 H   0  0  0  0  0  0  0  0  0  0  0  0
   -0.7495   -5.0001    1.1781 H   0  0  0  0  0  0  0  0  0  0  0  0
   -1.6913   -2.9691    1.9383 H   0  0  0  0  0  0  0  0  0  0  0  0
   -3.8802    1.0709    1.8267 H   0  0  0  0  0  0  0  0  0  0  0  0
   -5.1399    0.6471    0.6485 H   0  0  0  0  0  0  0  0  0  0  0  0
   -2.4555    2.9883    1.4806 H   0  0  0  0  0  0  0  0  0  0  0  0
   -2.0267    5.0347    0.2191 H   0  0  0  0  0  0  0  0  0  0  0  0
   -3.1655    5.3422   -1.9758 H   0  0  0  0  0  0  0  0  0  0  0  0
   -4.6699    3.6158   -2.8529 H   0  0  0  0  0  0  0  0  0  0  0  0
   -5.0652    1.5774   -1.5812 H   0  0  0  0  0  0  0  0  0  0  0  0
    2.4596   -0.1601    0.5397 H   0  0  0  0  0  0  0  0  0  0  0  0
    2.2105    1.9862   -1.6208 H   0  0  0  0  0  0  0  0  0  0  0  0
    4.2932    2.2113   -0.5792 H   0  0  0  0  0  0  0  0  0  0  0  0
    4.4540    1.6164   -2.2811 H   0  0  0  0  0  0  0  0  0  0  0  0
    4.8259    0.8542    1.3296 H   0  0  0  0  0  0  0  0  0  0  0  0
    6.1708   -1.0165    2.1502 H   0  0  0  0  0  0  0  0  0  0  0  0
    7.0799   -2.6964    0.5997 H   0  0  0  0  0  0  0  0  0  0  0  0
    6.6479   -2.5213   -1.8035 H   0  0  0  0  0  0  0  0  0  0  0  0
    5.3205   -0.6776   -2.6474 H   0  0  0  0  0  0  0  0  0  0  0  0
    3.2442   -0.5649   -4.1242 H   0  0  0  0  0  0  0  0  0  0  0  0
  1  2  1  0
  2  3  1  0
  3  4  1  0
  4  5  1  0
  5  6  2  0
  5  7  1  0
  7  8  1  0
  8  9  1  0
  9 10  2  0
 10 11  1  0
 11 12  2  0
 12 13  1  0
 13 14  2  0
  7 15  1  0
 15 16  1  0
 16 17  2  0
 17 18  1  0
 18 19  2  0
 19 20  1  0
 20 21  2  0
  2 22  1  0
 22 23  2  0
 22 24  1  0
 24 25  1  0
 25 26  1  0
 26 27  1  0
 27 28  2  0
 28 29  1  0
 29 30  2  0
 30 31  1  0
 31 32  2  0
 25 33  1  0
 33 34  1  0
 33 35  2  0
 14  9  1  0
 21 16  1  0
 32 27  1  0
  1 36  1  0
  1 37  1  0
  2 38  1  1
  3 39  1  0
  3 40  1  0
  4 41  1  0
  7 42  1  0
  8 43  1  0
  8 44  1  0
 10 45  1  0
 11 46  1  0
 12 47  1  0
 13 48  1  0
 14 49  1  0
 15 50  1  0
 15 51  1  0
 17 52  1  0
 18 53  1  0
 19 54  1  0
 20 55  1  0
 21 56  1  0
 24 57  1  0
 25 58  1  6
 26 59  1  0
 26 60  1  0
 28 61  1  0
 29 62  1  0
 30 63  1  0
 31 64  1  0
 32 65  1  0
 34 66  1  0
M  END
$$$$
[H]c1c([H])c(C([H])([H])S(=O)(=O)N2C([H])([H])C([H])([H])C([H])([H])C([H])([H])C([H])([H])C2([H])[H])c([H])c([H])c1OC([H])([H])[H]
     RDKit          3D

 40 41  0  0  0  0  0  0  0  0999 V2000
    6.5616    1.6960   -0.5459 C   0  0  0  0  0  0  0  0  0  0  0  0
    6.0669    0.8504    0.4701 O   0  0  0  0  0  0  0  0  0  0  0  0
    4.7929    0.3186    0.3704 C   0  0  0  0  0  0  0  0  0  0  0  0
    4.2962   -0.5087    1.3545 C   0  0  0  0  0  0  0  0  0  0  0  0
    3.0232   -1.0412    1.2567 C   0  0  0  0  0  0  0  0  0  0  0  0
    2.2021   -0.7680    0.1760 C   0  0  0  0  0  0  0  0  0  0  0  0
    0.8425   -1.3092    0.0261 C   0  0  0  0  0  0  0  0  0  0  0  0
   -0.3194   -0.2014    0.7687 S   0  0  0  0  0  0  0  0  0  0  0  0
   -0.0102   -0.0872    2.2301 O   0  0  0  0  0  0  0  0  0  0  0  0
   -0.2620    1.1354    0.0868 O   0  0  0  0  0  0  0  0  0  0  0  0
   -1.9420   -0.7849    0.6245 N   0  0  0  0  0  0  0  0  0  0  0  0
   -2.2644   -0.8844   -0.7427 C   0  0  0  0  0  0  0  0  0  0  0  0
   -3.7147   -0.7394   -1.0958 C   0  0  0  0  0  0  0  0  0  0  0  0
   -4.2711    0.6154   -0.7920 C   0  0  0  0  0  0  0  0  0  0  0  0
   -4.9650    0.5824    0.5292 C   0  0  0  0  0  0  0  0  0  0  0  0
   -4.1914   -0.2831    1.4928 C   0  0  0  0  0  0  0  0  0  0  0  0
   -2.7567    0.0909    1.4130 C   0  0  0  0  0  0  0  0  0  0  0  0
    2.7069    0.0588   -0.8012 C   0  0  0  0  0  0  0  0  0  0  0  0
    3.9713    0.5913   -0.7101 C   0  0  0  0  0  0  0  0  0  0  0  0
    6.4138    1.1863   -1.5272 H   0  0  0  0  0  0  0  0  0  0  0  0
    7.6423    1.8926   -0.4044 H   0  0  0  0  0  0  0  0  0  0  0  0
    5.9615    2.6385   -0.6041 H   0  0  0  0  0  0  0  0  0  0  0  0
    4.9307   -0.7335    2.2122 H   0  0  0  0  0  0  0  0  0  0  0  0
    2.6268   -1.6939    2.0297 H   0  0  0  0  0  0  0  0  0  0  0  0
    0.8021   -2.2762    0.5594 H   0  0  0  0  0  0  0  0  0  0  0  0
    0.5886   -1.5155   -1.0319 H   0  0  0  0  0  0  0  0  0  0  0  0
   -1.7065   -0.1411   -1.3831 H   0  0  0  0  0  0  0  0  0  0  0  0
   -1.9340   -1.8799   -1.1220 H   0  0  0  0  0  0  0  0  0  0  0  0
   -4.3452   -1.5500   -0.6690 H   0  0  0  0  0  0  0  0  0  0  0  0
   -3.7852   -0.8733   -2.2081 H   0  0  0  0  0  0  0  0  0  0  0  0
   -5.0484    0.9014   -1.5605 H   0  0  0  0  0  0  0  0  0  0  0  0
   -3.4848    1.3897   -0.8728 H   0  0  0  0  0  0  0  0  0  0  0  0
   -6.0319    0.2984    0.4605 H   0  0  0  0  0  0  0  0  0  0  0  0
   -4.9203    1.6290    0.9522 H   0  0  0  0  0  0  0  0  0  0  0  0
   -4.5877   -0.0253    2.5197 H   0  0  0  0  0  0  0  0  0  0  0  0
   -4.3898   -1.3624    1.3693 H   0  0  0  0  0  0  0  0  0  0  0  0
   -2.3361    0.0780    2.4526 H   0  0  0  0  0  0  0  0  0  0  0  0
   -2.6520    1.1547    1.0811 H   0  0  0  0  0  0  0  0  0  0  0  0
    2.1155    0.3015   -1.6555 H   0  0  0  0  0  0  0  0  0  0  0  0
    4.3741    1.2494   -1.4870 H   0  0  0  0  0  0  0  0  0  0  0  0
  1  2  1  0
  2  3  1  0
  3  4  2  0
  4  5  1  0
  5  6  2  0
  6  7  1  0
  7  8  1  0
  8  9  2  0
  8 10  2  0
  8 11  1  0
 11 12  1  0
 12 13  1  0
 13 14  1  0
 14 15  1  0
 15 16  1  0
 16 17  1  0
  6 18  1  0
 18 19  2  0
 19  3  1  0
 17 11  1  0
  1 20  1  0
  1 21  1  0
  1 22  1  0
  4 23  1  0
  5 24  1  0
  7 25  1  0
  7 26  1  0
 12 27  1  0
 12 28  1  0
 13 29  1  0
 13 30  1  0
 14 31  1  0
 14 32  1  0
 15 33  1  0
 15 34  1  0
 16 35  1  0
 16 36  1  0
 17 37  1  0
 17 38  1  0
 18 39  1  0
 19 40  1  0
M  END
$$$$
[H]C([H])=C([H])C([H])([H])C([H])([2H])Oc1c([H])nc([H])c(-c2c([H])c([H])c([H])c(F)c2[H])c1[H]
     RDKit          3D

 32 33  0  0  0  0  0  0  0  0999 V2000
    3.2148   -1.3579   -1.1780 H   0  0  0  0  0  0  0  0  0  0  0  0
    3.0104   -0.2452   -1.1231 C   0  0  0  0  0  0  0  0  0  0  0  0
    3.8717    0.2527    0.0005 C   0  0  0  0  0  0  0  0  0  0  0  0
    5.2697   -0.0813   -0.3541 C   0  0  0  0  0  0  0  0  0  0  0  0
    6.1547    0.8693   -0.4771 C   0  0  0  0  0  0  0  0  0  0  0  0
    1.6651   -0.0574   -1.0305 O   0  0  0  0  0  0  0  0  0  0  0  0
    0.7061   -0.4810   -0.1711 C   0  0  0  0  0  0  0  0  0  0  0  0
    0.9286   -1.2968    0.9029 C   0  0  0  0  0  0  0  0  0  0  0  0
   -0.0865   -1.6512    1.6855 N   0  0  0  0  0  0  0  0  0  0  0  0
   -1.3586   -1.2614    1.5030 C   0  0  0  0  0  0  0  0  0  0  0  0
   -1.5914   -0.4357    0.4174 C   0  0  0  0  0  0  0  0  0  0  0  0
   -0.5933   -0.0486   -0.4056 C   0  0  0  0  0  0  0  0  0  0  0  0
   -2.9900   -0.0009    0.2077 C   0  0  0  0  0  0  0  0  0  0  0  0
   -4.0557   -0.8094    0.5543 C   0  0  0  0  0  0  0  0  0  0  0  0
   -5.3648   -0.4109    0.3624 C   0  0  0  0  0  0  0  0  0  0  0  0
   -5.5969    0.8184   -0.1859 C   0  0  0  0  0  0  0  0  0  0  0  0
   -4.5447    1.6383   -0.5378 C   0  0  0  0  0  0  0  0  0  0  0  0
   -4.7663    2.8454   -1.0759 F   0  0  0  0  0  0  0  0  0  0  0  0
   -3.2306    1.2430   -0.3473 C   0  0  0  0  0  0  0  0  0  0  0  0
    3.4481    0.1814   -2.0597 H   0  0  0  0  0  0  0  0  0  0  0  0
    3.6342   -0.1283    0.9947 H   0  0  0  0  0  0  0  0  0  0  0  0
    3.7872    1.3810   -0.0421 H   0  0  0  0  0  0  0  0  0  0  0  0
    5.5364   -1.1070   -0.5059 H   0  0  0  0  0  0  0  0  0  0  0  0
    5.8995    1.9046   -0.3273 H   0  0  0  0  0  0  0  0  0  0  0  0
    7.1711    0.6129   -0.7360 H   0  0  0  0  0  0  0  0  0  0  0  0
    1.9089   -1.6683    1.1243 H   0  0  0  0  0  0  0  0  0  0  0  0
   -2.1478   -1.5813    2.1733 H   0  0  0  0  0  0  0  0  0  0  0  0
   -0.8034    0.5986   -1.2491 H   0  0  0  0  0  0  0  0  0  0  0  0
   -3.8855   -1.7675    0.9815 H   0  0  0  0  0  0  0  0  0  0  0  0
   -6.2109   -1.0269    0.6264 H   0  0  0  0  0  0  0  0  0  0  0  0
   -6.5981    1.2021   -0.3679 H   0  0  0  0  0  0  0  0  0  0  0  0
   -2.3819    1.8695   -0.6158 H   0  0  0  0  0  0  0  0  0  0  0  0
  1  2  1  0
  2  3  1  0
  3  4  1  0
  4  5  2  3
  2  6  1  0
  6  7  1  0
  7  8  2  0
  8  9  1  0
  9 10  2  0
 10 11  1  0
 11 12  2  0
 11 13  1  0
 13 14  2  0
 14 15  1  0
 15 16  2  0
 16 17  1  0
 17 18  1  0
 17 19  2  0
 12  7  1  0
 19 13  1  0
  2 20  1  0
  3 21  1  0
  3 22  1  0
  4 23  1  0
  5 24  1  0
  5 25  1  0
  8 26  1  0
 10 27  1  0
 12 28  1  0
 14 29  1  0
 15 30  1  0
 16 31  1  0
 19 32  1  0
M  ISO  1   1   2
M  END
$$$$
[H]c1c([H])c(Oc2c([H])c([H])c(N=[N+]=[N-])c([H])c2[H])c([H])c(N([H])C([H])([H])[H])c1C#N
     RDKit          3D

 31 32  0  0  0  0  0  0  0  0999 V2000
   -4.5057    1.2783   -1.3733 C   0  0  0  0  0  0  0  0  0  0  0  0
   -4.3338    0.5460   -0.1253 N   0  0  0  0  0  0  0  0  0  0  0  0
   -3.0146    0.1996    0.2693 C   0  0  0  0  0  0  0  0  0  0  0  0
   -1.9157    0.5511   -0.5162 C   0  0  0  0  0  0  0  0  0  0  0  0
   -0.6408    0.2094   -0.1226 C   0  0  0  0  0  0  0  0  0  0  0  0
    0.4298    0.5746   -0.9275 O   0  0  0  0  0  0  0  0  0  0  0  0
    1.7344    0.2295   -0.5328 C   0  0  0  0  0  0  0  0  0  0  0  0
    2.4236    1.1382    0.2588 C   0  0  0  0  0  0  0  0  0  0  0  0
    3.7006    0.7919    0.6405 C   0  0  0  0  0  0  0  0  0  0  0  0
    4.2720   -0.3948    0.2601 C   0  0  0  0  0  0  0  0  0  0  0  0
    3.5615   -1.2703   -0.5232 C   0  0  0  0  0  0  0  0  0  0  0  0
    2.2677   -0.9633   -0.9335 C   0  0  0  0  0  0  0  0  0  0  0  0
    5.5898   -0.6865    0.6892 N   0  0  0  0  0  0  0  0  0  0  0  0
    6.4452   -0.8475   -0.1868 N   0  0  0  0  0  0  0  0  0  0  0  0
    7.4653   -1.0333   -0.8193 N   0  0  0  0  0  0  0  0  0  0  0  0
   -0.4807   -0.4842    1.0594 C   0  0  0  0  0  0  0  0  0  0  0  0
   -1.5621   -0.8373    1.8450 C   0  0  0  0  0  0  0  0  0  0  0  0
   -2.8389   -0.4965    1.4534 C   0  0  0  0  0  0  0  0  0  0  0  0
   -4.0059   -0.8395    2.2348 C   0  0  0  0  0  0  0  0  0  0  0  0
   -4.9428   -1.0961    2.8636 N   0  0  0  0  0  0  0  0  0  0  0  0
   -3.9980    0.7234   -2.1812 H   0  0  0  0  0  0  0  0  0  0  0  0
   -3.9310    2.2371   -1.2311 H   0  0  0  0  0  0  0  0  0  0  0  0
   -5.5507    1.4974   -1.5886 H   0  0  0  0  0  0  0  0  0  0  0  0
   -5.1409    0.2819    0.4621 H   0  0  0  0  0  0  0  0  0  0  0  0
   -2.1056    1.0974   -1.4373 H   0  0  0  0  0  0  0  0  0  0  0  0
    1.9672    2.0743    0.5565 H   0  0  0  0  0  0  0  0  0  0  0  0
    4.2282    1.5217    1.2648 H   0  0  0  0  0  0  0  0  0  0  0  0
    4.0411   -2.1954   -0.8047 H   0  0  0  0  0  0  0  0  0  0  0  0
    1.7364   -1.6769   -1.5507 H   0  0  0  0  0  0  0  0  0  0  0  0
    0.5165   -0.7532    1.3704 H   0  0  0  0  0  0  0  0  0  0  0  0
   -1.4121   -1.3771    2.7611 H   0  0  0  0  0  0  0  0  0  0  0  0
  1  2  1  0
  2  3  1  0
  3  4  2  0
  4  5  1  0
  5  6  1  0
  6  7  1  0
  7  8  2  0
  8  9  1  0
  9 10  2  0
 10 11  1  0
 11 12  2  0
 10 13  1  0
 13 14  2  3
 14 15  2  0
  5 16  2  0
 16 17  1  0
 17 18  2  0
 18 19  1  0
 19 20  3  0
 18  3  1  0
 12  7  1  0
  1 21  1  0
  1 22  1  0
  1 23  1  0
  2 24  1  0
  4 25  1  0
  8 26  1  0
  9 27  1  0
 11 28  1  0
 12 29  1  0
 16 30  1  0
 17 31  1  0
M  CHG  2  14   1  15  -1
M  END
$$$$
[H]c1c([H])c([H])c(-c2c([H])c([H])c(C([H])([H])[C@]3([H])N(C([H])([H])[H])C([H])([H])C([H])([H])N([H])C(=O)C([H])([H])[C@]3([H])C(=O)OC(C([H])([H])[H])(C([H])([H])[H])C([H])([H])[H])c([H])c2[H])c([H])c1[H]
     RDKit          3D

 62 64  0  0  0  0  0  0  0  0999 V2000
    0.4221    3.0445    0.4115 C   0  0  0  0  0  0  0  0  0  0  0  0
   -0.1827    2.1572   -0.5141 N   0  0  0  0  0  0  0  0  0  0  0  0
   -0.9774    2.8124   -1.5126 C   0  0  0  0  0  0  0  0  0  0  0  0
   -1.8335    3.9307   -1.0594 C   0  0  0  0  0  0  0  0  0  0  0  0
   -2.5674    3.7726    0.1460 N   0  0  0  0  0  0  0  0  0  0  0  0
   -2.7655    2.9108    1.2539 C   0  0  0  0  0  0  0  0  0  0  0  0
   -3.3002    3.4716    2.2284 O   0  0  0  0  0  0  0  0  0  0  0  0
   -2.4678    1.4760    1.4958 C   0  0  0  0  0  0  0  0  0  0  0  0
   -2.1040    0.8094    0.1840 C   0  0  1  0  0  0  0  0  0  0  0  0
   -0.6241    0.8970   -0.1076 C   0  0  2  0  0  0  0  0  0  0  0  0
    0.1737    0.1860    0.9092 C   0  0  0  0  0  0  0  0  0  0  0  0
    1.5600   -0.1610    0.5739 C   0  0  0  0  0  0  0  0  0  0  0  0
    1.8305   -1.2748   -0.2346 C   0  0  0  0  0  0  0  0  0  0  0  0
    3.1213   -1.6585   -0.5351 C   0  0  0  0  0  0  0  0  0  0  0  0
    4.1986   -0.9582   -0.0496 C   0  0  0  0  0  0  0  0  0  0  0  0
    3.9496    0.1360    0.7449 C   0  0  0  0  0  0  0  0  0  0  0  0
    2.6457    0.5034    1.0345 C   0  0  0  0  0  0  0  0  0  0  0  0
    5.5694   -1.3546   -0.3609 C   0  0  0  0  0  0  0  0  0  0  0  0
    6.6047   -1.1297    0.5431 C   0  0  0  0  0  0  0  0  0  0  0  0
    7.8965   -1.5047    0.2463 C   0  0  0  0  0  0  0  0  0  0  0  0
    8.2238   -2.1132   -0.9449 C   0  0  0  0  0  0  0  0  0  0  0  0
    7.1959   -2.3374   -1.8447 C   0  0  0  0  0  0  0  0  0  0  0  0
    5.8962   -1.9633   -1.5529 C   0  0  0  0  0  0  0  0  0  0  0  0
   -2.7022   -0.5100   -0.0173 C   0  0  0  0  0  0  0  0  0  0  0  0
   -2.0113   -1.4811   -0.3293 O   0  0  0  0  0  0  0  0  0  0  0  0
   -4.0591   -0.6674    0.1423 O   0  0  0  0  0  0  0  0  0  0  0  0
   -4.7592   -1.8592   -0.0190 C   0  0  0  0  0  0  0  0  0  0  0  0
   -4.6359   -2.4465   -1.4072 C   0  0  0  0  0  0  0  0  0  0  0  0
   -4.3640   -2.8456    1.0284 C   0  0  0  0  0  0  0  0  0  0  0  0
   -6.2434   -1.5390    0.1730 C   0  0  0  0  0  0  0  0  0  0  0  0
    0.3729    2.7747    1.4631 H   0  0  0  0  0  0  0  0  0  0  0  0
    1.4848    3.2091    0.0457 H   0  0  0  0  0  0  0  0  0  0  0  0
   -0.0253    4.0554    0.2939 H   0  0  0  0  0  0  0  0  0  0  0  0
   -1.4998    2.0880   -2.1291 H   0  0  0  0  0  0  0  0  0  0  0  0
   -0.2170    3.2768   -2.2179 H   0  0  0  0  0  0  0  0  0  0  0  0
   -1.3084    4.9072   -1.0191 H   0  0  0  0  0  0  0  0  0  0  0  0
   -2.6077    4.0897   -1.8752 H   0  0  0  0  0  0  0  0  0  0  0  0
   -3.2099    4.6149    0.2638 H   0  0  0  0  0  0  0  0  0  0  0  0
   -1.7323    1.3223    2.2978 H   0  0  0  0  0  0  0  0  0  0  0  0
   -3.3940    0.9311    1.8482 H   0  0  0  0  0  0  0  0  0  0  0  0
   -2.6394    1.4585   -0.5910 H   0  0  0  0  0  0  0  0  0  0  0  0
   -0.5280    0.2311   -1.0586 H   0  0  0  0  0  0  0  0  0  0  0  0
   -0.3302   -0.7850    1.1627 H   0  0  0  0  0  0  0  0  0  0  0  0
    0.1619    0.7194    1.9091 H   0  0  0  0  0  0  0  0  0  0  0  0
    1.0392   -1.8659   -0.6464 H   0  0  0  0  0  0  0  0  0  0  0  0
    3.3140   -2.5301   -1.1674 H   0  0  0  0  0  0  0  0  0  0  0  0
    4.7869    0.6908    1.1301 H   0  0  0  0  0  0  0  0  0  0  0  0
    2.5487    1.3561    1.6798 H   0  0  0  0  0  0  0  0  0  0  0  0
    6.3454   -0.6551    1.4708 H   0  0  0  0  0  0  0  0  0  0  0  0
    8.6836   -1.3233    0.9567 H   0  0  0  0  0  0  0  0  0  0  0  0
    9.2488   -2.4049   -1.1679 H   0  0  0  0  0  0  0  0  0  0  0  0
    7.4666   -2.8147   -2.7731 H   0  0  0  0  0  0  0  0  0  0  0  0
    5.1016   -2.1418   -2.2600 H   0  0  0  0  0  0  0  0  0  0  0  0
   -5.4960   -3.1585   -1.5180 H   0  0  0  0  0  0  0  0  0  0  0  0
   -4.8056   -1.6509   -2.1543 H   0  0  0  0  0  0  0  0  0  0  0  0
   -3.7252   -3.0275   -1.5597 H   0  0  0  0  0  0  0  0  0  0  0  0
   -5.0758   -2.7950    1.8715 H   0  0  0  0  0  0  0  0  0  0  0  0
   -4.3859   -3.8855    0.6426 H   0  0  0  0  0  0  0  0  0  0  0  0
   -3.3639   -2.5666    1.4202 H   0  0  0  0  0  0  0  0  0  0  0  0
   -6.7980   -1.5595   -0.7777 H   0  0  0  0  0  0  0  0  0  0  0  0
   -6.7293   -2.3012    0.8397 H   0  0  0  0  0  0  0  0  0  0  0  0
   -6.3732   -0.5628    0.6616 H   0  0  0  0  0  0  0  0  0  0  0  0
  1  2  1  0
  2  3  1  0
  3  4  1  0
  4  5  1  0
  5  6  1  0
  6  7  2  0
  6  8  1  0
  8  9  1  0
  9 10  1  0
 10 11  1  0
 11 12  1  0
 12 13  2  0
 13 14  1  0
 14 15  2  0
 15 16  1  0
 16 17  2  0
 15 18  1  0
 18 19  2  0
 19 20  1  0
 20 21  2  0
 21 22  1  0
 22 23  2  0
  9 24  1  0
 24 25  2  0
 24 26  1  0
 26 27  1  0
 27 28  1  0
 27 29  1  0
 27 30  1  0
 10  2  1  0
 17 12  1  0
 23 18  1  0
  1 31  1  0
  1 32  1  0
  1 33  1  0
  3 34  1  0
  3 35  1  0
  4 36  1  0
  4 37  1  0
  5 38  1  0
  8 39  1  0
  8 40  1  0
  9 41  1  6
 10 42  1  6
 11 43  1  0
 11 44  1  0
 13 45  1  0
 14 46  1  0
 16 47  1  0
 17 48  1  0
 19 49  1  0
 20 50  1  0
 21 51  1  0
 22 52  1  0
 23 53  1  0
 28 54  1  0
 28 55  1  0
 28 56  1  0
 29 57  1  0
 29 58  1  0
 29 59  1  0
 30 60  1  0
 30 61  1  0
 30 62  1  0
M  END
$$$$
[H]C([H])([H])C([H])([H])C1([H])C(=O)N(C([H])([H])C([H])([H])C([H])([H])C(C([H])([H])[H])(C([H])([H])[H])C([H])([H])[H])C([H])([H])C([H])([H])C1([H])[H]
     RDKit          3D

 43 43  0  0  0  0  0  0  0  0999 V2000
    4.9498    0.3266    1.1737 C   0  0  0  0  0  0  0  0  0  0  0  0
    3.4788    0.5969    0.9203 C   0  0  0  0  0  0  0  0  0  0  0  0
    3.2012    0.7827   -0.5601 C   0  0  0  0  0  0  0  0  0  0  0  0
    3.5787   -0.4350   -1.3376 C   0  0  0  0  0  0  0  0  0  0  0  0
    2.6992   -1.6185   -1.1389 C   0  0  0  0  0  0  0  0  0  0  0  0
    1.3093   -1.3539   -0.6875 C   0  0  0  0  0  0  0  0  0  0  0  0
    0.8803   -0.0122   -0.6870 N   0  0  0  0  0  0  0  0  0  0  0  0
   -0.5689    0.2894   -0.6492 C   0  0  0  0  0  0  0  0  0  0  0  0
   -1.0579    0.4000    0.7357 C   0  0  0  0  0  0  0  0  0  0  0  0
   -2.4877    0.7622    0.8596 C   0  0  0  0  0  0  0  0  0  0  0  0
   -3.5130   -0.1366    0.2937 C   0  0  0  0  0  0  0  0  0  0  0  0
   -4.8829    0.5110    0.6538 C   0  0  0  0  0  0  0  0  0  0  0  0
   -3.4896   -1.4613    0.9979 C   0  0  0  0  0  0  0  0  0  0  0  0
   -3.5611   -0.2759   -1.1952 C   0  0  0  0  0  0  0  0  0  0  0  0
    1.7678    1.0728   -0.7176 C   0  0  0  0  0  0  0  0  0  0  0  0
    1.3896    2.2557   -0.8711 O   0  0  0  0  0  0  0  0  0  0  0  0
    5.6096    0.9238    0.5394 H   0  0  0  0  0  0  0  0  0  0  0  0
    5.1036   -0.7751    1.0419 H   0  0  0  0  0  0  0  0  0  0  0  0
    5.1645    0.6260    2.2402 H   0  0  0  0  0  0  0  0  0  0  0  0
    3.1542    1.5475    1.4116 H   0  0  0  0  0  0  0  0  0  0  0  0
    2.8885   -0.2701    1.2494 H   0  0  0  0  0  0  0  0  0  0  0  0
    3.8481    1.6168   -0.9098 H   0  0  0  0  0  0  0  0  0  0  0  0
    3.6676   -0.1339   -2.4036 H   0  0  0  0  0  0  0  0  0  0  0  0
    4.6362   -0.6928   -1.0280 H   0  0  0  0  0  0  0  0  0  0  0  0
    2.6612   -2.1679   -2.1118 H   0  0  0  0  0  0  0  0  0  0  0  0
    3.1819   -2.3224   -0.4270 H   0  0  0  0  0  0  0  0  0  0  0  0
    0.5699   -1.9485   -1.3060 H   0  0  0  0  0  0  0  0  0  0  0  0
    1.1461   -1.7626    0.3558 H   0  0  0  0  0  0  0  0  0  0  0  0
   -0.7787    1.2293   -1.1874 H   0  0  0  0  0  0  0  0  0  0  0  0
   -0.9938   -0.5486   -1.2337 H   0  0  0  0  0  0  0  0  0  0  0  0
   -0.4550    1.2482    1.2142 H   0  0  0  0  0  0  0  0  0  0  0  0
   -0.8029   -0.4999    1.3680 H   0  0  0  0  0  0  0  0  0  0  0  0
   -2.6922    1.7892    0.3940 H   0  0  0  0  0  0  0  0  0  0  0  0
   -2.7805    0.9594    1.9361 H   0  0  0  0  0  0  0  0  0  0  0  0
   -5.0788    1.3408   -0.0472 H   0  0  0  0  0  0  0  0  0  0  0  0
   -4.8508    0.8552    1.6993 H   0  0  0  0  0  0  0  0  0  0  0  0
   -5.6083   -0.3208    0.5685 H   0  0  0  0  0  0  0  0  0  0  0  0
   -3.7250   -2.2944    0.3136 H   0  0  0  0  0  0  0  0  0  0  0  0
   -2.4956   -1.6676    1.4619 H   0  0  0  0  0  0  0  0  0  0  0  0
   -4.2365   -1.5012    1.8330 H   0  0  0  0  0  0  0  0  0  0  0  0
   -3.1584   -1.2531   -1.5701 H   0  0  0  0  0  0  0  0  0  0  0  0
   -4.6515   -0.2156   -1.5232 H   0  0  0  0  0  0  0  0  0  0  0  0
   -3.0171    0.5619   -1.6693 H   0  0  0  0  0  0  0  0  0  0  0  0
  1  2  1  0
  2  3  1  0
  3  4  1  0
  4  5  1  0
  5  6  1  0
  6  7  1  0
  7  8  1  0
  8  9  1  0
  9 10  1  0
 10 11  1  0
 11 12  1  0
 11 13  1  0
 11 14  1  0
  7 15  1  0
 15 16  2  0
 15  3  1  0
  1 17  1  0
  1 18  1  0
  1 19  1  0
  2 20  1  0
  2 21  1  0
  3 22  1  0
  4 23  1  0
  4 24  1  0
  5 25  1  0
  5 26  1  0
  6 27  1  0
  6 28  1  0
  8 29  1  0
  8 30  1  0
  9 31  1  0
  9 32  1  0
 10 33  1  0
 10 34  1  0
 12 35  1  0
 12 36  1  0
 12 37  1  0
 13 38  1  0
 13 39  1  0
 13 40  1  0
 14 41  1  0
 14 42  1  0
 14 43  1  0
M  END
$$$$
[H]N([H])C([H])([H])C(=O)N1C(=O)[C@](C([H])([H])[H])(C([H])([H])S(=O)(=O)N2C([H])([H])C([H])([H])C([H])([H])C2([H])[H])C([H])([H])C([H])([H])C1([H])[H]
     RDKit          3D

 44 45  0  0  0  0  0  0  0  0999 V2000
    0.0399   -0.5145   -2.6609 C   0  0  0  0  0  0  0  0  0  0  0  0
    0.5364   -0.5528   -1.2105 C   0  0  1  0  0  0  0  0  0  0  0  0
   -0.6114   -0.5727   -0.2708 C   0  0  0  0  0  0  0  0  0  0  0  0
   -1.7154    0.7740   -0.3324 S   0  0  0  0  0  0  0  0  0  0  0  0
   -2.4291    0.8342   -1.6535 O   0  0  0  0  0  0  0  0  0  0  0  0
   -1.1262    2.0950   -0.0572 O   0  0  0  0  0  0  0  0  0  0  0  0
   -2.9524    0.4816    0.8674 N   0  0  0  0  0  0  0  0  0  0  0  0
   -3.6787   -0.7378    0.5576 C   0  0  0  0  0  0  0  0  0  0  0  0
   -4.7932   -0.6677    1.6076 C   0  0  0  0  0  0  0  0  0  0  0  0
   -5.1343    0.8098    1.5569 C   0  0  0  0  0  0  0  0  0  0  0  0
   -3.9715    1.4814    0.8425 C   0  0  0  0  0  0  0  0  0  0  0  0
    1.2205   -1.9252   -1.0805 C   0  0  0  0  0  0  0  0  0  0  0  0
    2.6789   -1.8756   -1.3999 C   0  0  0  0  0  0  0  0  0  0  0  0
    3.3766   -1.1511   -0.2383 C   0  0  0  0  0  0  0  0  0  0  0  0
    2.7697    0.1754   -0.2353 N   0  0  0  0  0  0  0  0  0  0  0  0
    1.5692    0.4535   -0.9479 C   0  0  0  0  0  0  0  0  0  0  0  0
    1.3897    1.6237   -1.3725 O   0  0  0  0  0  0  0  0  0  0  0  0
    3.4030    1.2151    0.5035 C   0  0  0  0  0  0  0  0  0  0  0  0
    2.9155    2.3854    0.5377 O   0  0  0  0  0  0  0  0  0  0  0  0
    4.6567    0.9895    1.2674 C   0  0  0  0  0  0  0  0  0  0  0  0
    5.0821    2.2041    1.9215 N   0  0  0  0  0  0  0  0  0  0  0  0
   -0.1255    0.5607   -2.8972 H   0  0  0  0  0  0  0  0  0  0  0  0
   -0.9036   -1.0626   -2.7207 H   0  0  0  0  0  0  0  0  0  0  0  0
    0.8562   -0.9526   -3.2786 H   0  0  0  0  0  0  0  0  0  0  0  0
   -0.2210   -0.7586    0.7515 H   0  0  0  0  0  0  0  0  0  0  0  0
   -1.2078   -1.5014   -0.5133 H   0  0  0  0  0  0  0  0  0  0  0  0
   -3.0853   -1.6418    0.6763 H   0  0  0  0  0  0  0  0  0  0  0  0
   -4.1754   -0.6858   -0.4323 H   0  0  0  0  0  0  0  0  0  0  0  0
   -4.3153   -0.9003    2.5683 H   0  0  0  0  0  0  0  0  0  0  0  0
   -5.6392   -1.3088    1.3516 H   0  0  0  0  0  0  0  0  0  0  0  0
   -5.1985    1.2465    2.5707 H   0  0  0  0  0  0  0  0  0  0  0  0
   -6.0681    0.9364    0.9787 H   0  0  0  0  0  0  0  0  0  0  0  0
   -3.6193    2.3859    1.4043 H   0  0  0  0  0  0  0  0  0  0  0  0
   -4.2806    1.7465   -0.1808 H   0  0  0  0  0  0  0  0  0  0  0  0
    1.1219   -2.2341   -0.0190 H   0  0  0  0  0  0  0  0  0  0  0  0
    0.6675   -2.6850   -1.6746 H   0  0  0  0  0  0  0  0  0  0  0  0
    2.8212   -1.2196   -2.2877 H   0  0  0  0  0  0  0  0  0  0  0  0
    3.0454   -2.8915   -1.5362 H   0  0  0  0  0  0  0  0  0  0  0  0
    3.2093   -1.6801    0.7154 H   0  0  0  0  0  0  0  0  0  0  0  0
    4.4446   -1.0813   -0.5174 H   0  0  0  0  0  0  0  0  0  0  0  0
    5.4647    0.7333    0.5273 H   0  0  0  0  0  0  0  0  0  0  0  0
    4.5404    0.1877    2.0244 H   0  0  0  0  0  0  0  0  0  0  0  0
    4.7330    2.2534    2.9017 H   0  0  0  0  0  0  0  0  0  0  0  0
    4.7094    3.0278    1.3852 H   0  0  0  0  0  0  0  0  0  0  0  0
  2  1  1  6
  2  3  1  0
  3  4  1  0
  4  5  2  0
  4  6  2  0
  4  7  1  0
  7  8  1  0
  8  9  1  0
  9 10  1  0
 10 11  1  0
  2 12  1  0
 12 13  1  0
 13 14  1  0
 14 15  1  0
 15 16  1  0
 16 17  2  0
 15 18  1  0
 18 19  2  0
 18 20  1  0
 20 21  1  0
 16  2  1  0
 11  7  1  0
  1 22  1  0
  1 23  1  0
  1 24  1  0
  3 25  1  0
  3 26  1  0
  8 27  1  0
  8 28  1  0
  9 29  1  0
  9 30  1  0
 10 31  1  0
 10 32  1  0
 11 33  1  0
 11 34  1  0
 12 35  1  0
 12 36  1  0
 13 37  1  0
 13 38  1  0
 14 39  1  0
 14 40  1  0
 20 41  1  0
 20 42  1  0
 21 43  1  0
 21 44  1  0
M  END
$$$$
[H]c1nc(N([H])c2c([H])c([H])c([H])c(-n3nc([H])c([H])c3[H])c2[H])sc1-c1nn(C([H])([H])[H])c(=O)c([H])c1[H]
     RDKit          3D

 39 42  0  0  0  0  0  0  0  0999 V2000
    7.0130    2.4010    0.7691 C   0  0  0  0  0  0  0  0  0  0  0  0
    6.3424    1.1473    0.4758 N   0  0  0  0  0  0  0  0  0  0  0  0
    5.0407    1.0209    0.4239 N   0  0  0  0  0  0  0  0  0  0  0  0
    4.4077   -0.1288    0.1547 C   0  0  0  0  0  0  0  0  0  0  0  0
    5.1155   -1.2731   -0.0891 C   0  0  0  0  0  0  0  0  0  0  0  0
    6.5093   -1.1686   -0.0404 C   0  0  0  0  0  0  0  0  0  0  0  0
    7.0911    0.0487    0.2431 C   0  0  0  0  0  0  0  0  0  0  0  0
    8.3408    0.1224    0.2823 O   0  0  0  0  0  0  0  0  0  0  0  0
    2.9307   -0.1873    0.1148 C   0  0  0  0  0  0  0  0  0  0  0  0
    2.1390   -1.2723   -0.1428 C   0  0  0  0  0  0  0  0  0  0  0  0
    0.8583   -1.0956   -0.1264 N   0  0  0  0  0  0  0  0  0  0  0  0
    0.3301    0.0752    0.1265 C   0  0  0  0  0  0  0  0  0  0  0  0
   -1.0148    0.5423    0.2067 N   0  0  0  0  0  0  0  0  0  0  0  0
   -2.1530   -0.2596    0.0227 C   0  0  0  0  0  0  0  0  0  0  0  0
   -2.1906   -1.6274   -0.0578 C   0  0  0  0  0  0  0  0  0  0  0  0
   -3.3581   -2.3598   -0.2563 C   0  0  0  0  0  0  0  0  0  0  0  0
   -4.5403   -1.6617   -0.3774 C   0  0  0  0  0  0  0  0  0  0  0  0
   -4.5758   -0.2912   -0.3062 C   0  0  0  0  0  0  0  0  0  0  0  0
   -3.4003    0.3745   -0.1105 C   0  0  0  0  0  0  0  0  0  0  0  0
   -5.8067    0.3829   -0.4349 N   0  0  0  0  0  0  0  0  0  0  0  0
   -6.8972    0.1759    0.3288 C   0  0  0  0  0  0  0  0  0  0  0  0
   -7.9137    1.0099   -0.0800 C   0  0  0  0  0  0  0  0  0  0  0  0
   -7.3909    1.7364   -1.1307 C   0  0  0  0  0  0  0  0  0  0  0  0
   -6.1178    1.3369   -1.3225 N   0  0  0  0  0  0  0  0  0  0  0  0
    1.7693    1.0325    0.3672 S   0  0  0  0  0  0  0  0  0  0  0  0
    8.0356    2.2220    1.1241 H   0  0  0  0  0  0  0  0  0  0  0  0
    6.3916    2.9122    1.5379 H   0  0  0  0  0  0  0  0  0  0  0  0
    7.0039    3.0325   -0.1429 H   0  0  0  0  0  0  0  0  0  0  0  0
    4.6621   -2.2237   -0.3104 H   0  0  0  0  0  0  0  0  0  0  0  0
    7.1276   -2.0139   -0.2187 H   0  0  0  0  0  0  0  0  0  0  0  0
    2.6005   -2.2594   -0.3557 H   0  0  0  0  0  0  0  0  0  0  0  0
   -1.1561    1.5873    0.4286 H   0  0  0  0  0  0  0  0  0  0  0  0
   -1.2738   -2.1863    0.0445 H   0  0  0  0  0  0  0  0  0  0  0  0
   -3.2905   -3.4406   -0.3071 H   0  0  0  0  0  0  0  0  0  0  0  0
   -5.4461   -2.2544   -0.5328 H   0  0  0  0  0  0  0  0  0  0  0  0
   -3.4057    1.4580   -0.0518 H   0  0  0  0  0  0  0  0  0  0  0  0
   -6.9944   -0.5263    1.1430 H   0  0  0  0  0  0  0  0  0  0  0  0
   -8.9165    1.1155    0.2993 H   0  0  0  0  0  0  0  0  0  0  0  0
   -7.8670    2.4954   -1.7241 H   0  0  0  0  0  0  0  0  0  0  0  0
  1  2  1  0
  2  3  1  0
  3  4  2  0
  4  5  1  0
  5  6  2  0
  6  7  1  0
  7  8  2  0
  4  9  1  0
  9 10  2  0
 10 11  1  0
 11 12  2  0
 12 13  1  0
 13 14  1  0
 14 15  2  0
 15 16  1  0
 16 17  2  0
 17 18  1  0
 18 19  2  0
 18 20  1  0
 20 21  1  0
 21 22  2  0
 22 23  1  0
 23 24  2  0
 12 25  1  0
  7  2  1  0
 25  9  1  0
 19 14  1  0
 24 20  1  0
  1 26  1  0
  1 27  1  0
  1 28  1  0
  5 29  1  0
  6 30  1  0
 10 31  1  0
 13 32  1  0
 15 33  1  0
 16 34  1  0
 17 35  1  0
 19 36  1  0
 21 37  1  0
 22 38  1  0
 23 39  1  0
M  END
$$$$
[H]c1nc2c([H])c([H])c([H])c([H])n2c1C#Cc1c([H])c(C(=O)N([H])c2c([H])c([H])c(C([H])([H])N3C([H])([H])C([H])([H])N(C([H])([H])C([H])([H])[H])C([H])([H])C3([H])[H])c(C(F)(F)F)c2[H])c([H])c([H])c1C([H])([H])[H]
     RDKit          3D

 70 74  0  0  0  0  0  0  0  0999 V2000
    9.7234    1.5147   -1.8372 C   0  0  0  0  0  0  0  0  0  0  0  0
    9.2822    2.1093   -0.5175 C   0  0  0  0  0  0  0  0  0  0  0  0
    8.1587    1.4138    0.0479 N   0  0  0  0  0  0  0  0  0  0  0  0
    8.4355    0.0953    0.4834 C   0  0  0  0  0  0  0  0  0  0  0  0
    7.5556   -0.9767   -0.0392 C   0  0  0  0  0  0  0  0  0  0  0  0
    6.1648   -0.4910    0.1498 N   0  0  0  0  0  0  0  0  0  0  0  0
    5.2421   -1.5770   -0.1589 C   0  0  0  0  0  0  0  0  0  0  0  0
    3.8573   -1.2267    0.1910 C   0  0  0  0  0  0  0  0  0  0  0  0
    3.5543   -0.0323    0.8050 C   0  0  0  0  0  0  0  0  0  0  0  0
    2.2588    0.2728    1.1521 C   0  0  0  0  0  0  0  0  0  0  0  0
    1.2066   -0.6292    0.8893 C   0  0  0  0  0  0  0  0  0  0  0  0
   -0.0987   -0.2522    1.3005 N   0  0  0  0  0  0  0  0  0  0  0  0
   -1.3125   -0.7850    0.8939 C   0  0  0  0  0  0  0  0  0  0  0  0
   -1.3927   -1.7101    0.0598 O   0  0  0  0  0  0  0  0  0  0  0  0
   -2.5888   -0.2635    1.4469 C   0  0  0  0  0  0  0  0  0  0  0  0
   -2.6412    0.4574    2.6173 C   0  0  0  0  0  0  0  0  0  0  0  0
   -3.8309    0.9517    3.1275 C   0  0  0  0  0  0  0  0  0  0  0  0
   -4.9839    0.6969    2.4176 C   0  0  0  0  0  0  0  0  0  0  0  0
   -6.3078    1.1918    2.8933 C   0  0  0  0  0  0  0  0  0  0  0  0
   -4.9718   -0.0271    1.2325 C   0  0  0  0  0  0  0  0  0  0  0  0
   -3.7676   -0.5032    0.7556 C   0  0  0  0  0  0  0  0  0  0  0  0
   -6.2004   -0.2650    0.5267 C   0  0  0  0  0  0  0  0  0  0  0  0
   -7.2318   -0.4423   -0.0708 C   0  0  0  0  0  0  0  0  0  0  0  0
   -8.4539   -0.6275   -0.7892 C   0  0  0  0  0  0  0  0  0  0  0  0
   -8.7570   -1.7140   -1.5749 C   0  0  0  0  0  0  0  0  0  0  0  0
  -10.0006   -1.5471   -2.1005 N   0  0  0  0  0  0  0  0  0  0  0  0
  -10.4688   -0.3677   -1.6474 C   0  0  0  0  0  0  0  0  0  0  0  0
  -11.6731    0.2231   -1.9067 C   0  0  0  0  0  0  0  0  0  0  0  0
  -11.9836    1.4458   -1.3500 C   0  0  0  0  0  0  0  0  0  0  0  0
  -11.0055    2.0024   -0.5352 C   0  0  0  0  0  0  0  0  0  0  0  0
   -9.8107    1.3791   -0.2993 C   0  0  0  0  0  0  0  0  0  0  0  0
   -9.5316    0.1869   -0.8543 N   0  0  0  0  0  0  0  0  0  0  0  0
    1.4853   -1.8117    0.2860 C   0  0  0  0  0  0  0  0  0  0  0  0
    2.8114   -2.1029   -0.0601 C   0  0  0  0  0  0  0  0  0  0  0  0
    3.1221   -3.3977   -0.7152 C   0  0  0  0  0  0  0  0  0  0  0  0
    1.9134   -4.1026   -0.8521 F   0  0  0  0  0  0  0  0  0  0  0  0
    3.9003   -4.2272    0.0897 F   0  0  0  0  0  0  0  0  0  0  0  0
    3.6055   -3.2766   -1.9926 F   0  0  0  0  0  0  0  0  0  0  0  0
    6.0882    0.5235   -0.9368 C   0  0  0  0  0  0  0  0  0  0  0  0
    6.9064    1.6849   -0.5215 C   0  0  0  0  0  0  0  0  0  0  0  0
    8.8606    1.1757   -2.4318 H   0  0  0  0  0  0  0  0  0  0  0  0
   10.3287    0.5999   -1.5826 H   0  0  0  0  0  0  0  0  0  0  0  0
   10.3336    2.2336   -2.4209 H   0  0  0  0  0  0  0  0  0  0  0  0
    8.9652    3.1720   -0.6832 H   0  0  0  0  0  0  0  0  0  0  0  0
   10.1469    2.1524    0.1759 H   0  0  0  0  0  0  0  0  0  0  0  0
    9.4977   -0.1499    0.2202 H   0  0  0  0  0  0  0  0  0  0  0  0
    8.3977    0.0375    1.6115 H   0  0  0  0  0  0  0  0  0  0  0  0
    7.7076   -1.0956   -1.1248 H   0  0  0  0  0  0  0  0  0  0  0  0
    7.7225   -1.9118    0.5265 H   0  0  0  0  0  0  0  0  0  0  0  0
    5.3051   -1.6828   -1.2833 H   0  0  0  0  0  0  0  0  0  0  0  0
    5.6290   -2.4938    0.2929 H   0  0  0  0  0  0  0  0  0  0  0  0
    4.3577    0.6848    1.0356 H   0  0  0  0  0  0  0  0  0  0  0  0
    2.0139    1.2180    1.6369 H   0  0  0  0  0  0  0  0  0  0  0  0
   -0.1628    0.5467    2.0196 H   0  0  0  0  0  0  0  0  0  0  0  0
   -1.7627    0.6693    3.1970 H   0  0  0  0  0  0  0  0  0  0  0  0
   -3.8887    1.5151    4.0382 H   0  0  0  0  0  0  0  0  0  0  0  0
   -6.2244    2.0450    3.5854 H   0  0  0  0  0  0  0  0  0  0  0  0
   -6.9938    1.3605    2.0467 H   0  0  0  0  0  0  0  0  0  0  0  0
   -6.7524    0.3328    3.4687 H   0  0  0  0  0  0  0  0  0  0  0  0
   -3.7021   -1.0751   -0.1654 H   0  0  0  0  0  0  0  0  0  0  0  0
   -8.1700   -2.5959   -1.7940 H   0  0  0  0  0  0  0  0  0  0  0  0
  -12.4379   -0.2227   -2.5508 H   0  0  0  0  0  0  0  0  0  0  0  0
  -12.9195    1.9547   -1.5243 H   0  0  0  0  0  0  0  0  0  0  0  0
  -11.2127    2.9642   -0.0787 H   0  0  0  0  0  0  0  0  0  0  0  0
   -9.0409    1.8296    0.3506 H   0  0  0  0  0  0  0  0  0  0  0  0
    0.7317   -2.5697    0.0578 H   0  0  0  0  0  0  0  0  0  0  0  0
    5.0743    0.7909   -1.1990 H   0  0  0  0  0  0  0  0  0  0  0  0
    6.5810    0.0530   -1.8359 H   0  0  0  0  0  0  0  0  0  0  0  0
    6.2835    2.3471    0.1456 H   0  0  0  0  0  0  0  0  0  0  0  0
    7.0721    2.3213   -1.4414 H   0  0  0  0  0  0  0  0  0  0  0  0
  1  2  1  0
  2  3  1  0
  3  4  1  0
  4  5  1  0
  5  6  1  0
  6  7  1  0
  7  8  1  0
  8  9  2  0
  9 10  1  0
 10 11  2  0
 11 12  1  0
 12 13  1  0
 13 14  2  0
 13 15  1  0
 15 16  2  0
 16 17  1  0
 17 18  2  0
 18 19  1  0
 18 20  1  0
 20 21  2  0
 20 22  1  0
 22 23  3  0
 23 24  1  0
 24 25  2  0
 25 26  1  0
 26 27  2  0
 27 28  1  0
 28 29  2  0
 29 30  1  0
 30 31  2  0
 31 32  1  0
 11 33  1  0
 33 34  2  0
 34 35  1  0
 35 36  1  0
 35 37  1  0
 35 38  1  0
  6 39  1  0
 39 40  1  0
 40  3  1  0
 34  8  1  0
 21 15  1  0
 32 24  1  0
 32 27  1  0
  1 41  1  0
  1 42  1  0
  1 43  1  0
  2 44  1  0
  2 45  1  0
  4 46  1  0
  4 47  1  0
  5 48  1  0
  5 49  1  0
  7 50  1  0
  7 51  1  0
  9 52  1  0
 10 53  1  0
 12 54  1  0
 16 55  1  0
 17 56  1  0
 19 57  1  0
 19 58  1  0
 19 59  1  0
 21 60  1  0
 25 61  1  0
 28 62  1  0
 29 63  1  0
 30 64  1  0
 31 65  1  0
 33 66  1  0
 39 67  1  0
 39 68  1  0
 40 69  1  0
 40 70  1  0
M  END
$$$$
[H]c1nc2c3c(=O)c4c([H])c(F)c([H])c([H])c4c(=O)n([H])c3n(-c3c([H])c([H])c([H])c([H])c3F)c2c([H])c1[H]
     RDKit          3D

 39 43  0  0  0  0  0  0  0  0999 V2000
   -6.6490    0.0220    0.7845 F   0  0  0  0  0  0  0  0  0  0  0  0
   -5.4115   -0.3734    0.4128 C   0  0  0  0  0  0  0  0  0  0  0  0
   -5.2046   -1.6483   -0.0813 C   0  0  0  0  0  0  0  0  0  0  0  0
   -3.9470   -2.0715   -0.4667 C   0  0  0  0  0  0  0  0  0  0  0  0
   -2.8944   -1.1890   -0.3474 C   0  0  0  0  0  0  0  0  0  0  0  0
   -3.1141    0.0881    0.1498 C   0  0  0  0  0  0  0  0  0  0  0  0
   -4.3577    0.5271    0.5383 C   0  0  0  0  0  0  0  0  0  0  0  0
   -2.1923    1.0921    0.3369 C   0  0  0  0  0  0  0  0  0  0  0  0
   -2.5974    2.2473    0.6015 O   0  0  0  0  0  0  0  0  0  0  0  0
   -0.8309    0.9895    0.2688 C   0  0  0  0  0  0  0  0  0  0  0  0
   -0.0455   -0.0881   -0.1112 C   0  0  0  0  0  0  0  0  0  0  0  0
   -0.4159   -1.3138   -0.5119 N   0  0  0  0  0  0  0  0  0  0  0  0
   -1.6831   -1.7187   -0.7622 C   0  0  0  0  0  0  0  0  0  0  0  0
   -1.7832   -2.7322   -1.4822 O   0  0  0  0  0  0  0  0  0  0  0  0
    1.2607    0.2501   -0.0305 N   0  0  0  0  0  0  0  0  0  0  0  0
    1.2995    1.5239    0.3946 C   0  0  0  0  0  0  0  0  0  0  0  0
    2.3547    2.3722    0.6521 C   0  0  0  0  0  0  0  0  0  0  0  0
    2.0886    3.6536    1.0873 C   0  0  0  0  0  0  0  0  0  0  0  0
    0.8016    4.1222    1.2760 C   0  0  0  0  0  0  0  0  0  0  0  0
   -0.2233    3.2601    1.0131 N   0  0  0  0  0  0  0  0  0  0  0  0
    0.0244    2.0109    0.5891 C   0  0  0  0  0  0  0  0  0  0  0  0
    2.3961   -0.5633   -0.3307 C   0  0  0  0  0  0  0  0  0  0  0  0
    3.0866   -0.4582   -1.5228 C   0  0  0  0  0  0  0  0  0  0  0  0
    4.1848   -1.2350   -1.8300 C   0  0  0  0  0  0  0  0  0  0  0  0
    4.6001   -2.1629   -0.8790 C   0  0  0  0  0  0  0  0  0  0  0  0
    3.9431   -2.3043    0.3247 C   0  0  0  0  0  0  0  0  0  0  0  0
    2.8584   -1.5095    0.5819 C   0  0  0  0  0  0  0  0  0  0  0  0
    2.2176   -1.6569    1.7721 F   0  0  0  0  0  0  0  0  0  0  0  0
   -6.0288   -2.3470   -0.1774 H   0  0  0  0  0  0  0  0  0  0  0  0
   -3.7367   -3.0483   -0.8548 H   0  0  0  0  0  0  0  0  0  0  0  0
   -4.4739    1.5167    0.9135 H   0  0  0  0  0  0  0  0  0  0  0  0
    0.3491   -1.9940   -0.6344 H   0  0  0  0  0  0  0  0  0  0  0  0
    3.3595    1.9880    0.4986 H   0  0  0  0  0  0  0  0  0  0  0  0
    2.9578    4.2810    1.2755 H   0  0  0  0  0  0  0  0  0  0  0  0
    0.6266    5.1337    1.6187 H   0  0  0  0  0  0  0  0  0  0  0  0
    2.7568    0.2684   -2.2609 H   0  0  0  0  0  0  0  0  0  0  0  0
    4.7104   -1.1313   -2.7775 H   0  0  0  0  0  0  0  0  0  0  0  0
    5.4555   -2.7797   -1.0987 H   0  0  0  0  0  0  0  0  0  0  0  0
    4.2576   -3.0219    1.0700 H   0  0  0  0  0  0  0  0  0  0  0  0
  1  2  1  0
  2  3  2  0
  3  4  1  0
  4  5  2  0
  5  6  1  0
  6  7  2  0
  6  8  1  0
  8  9  2  0
  8 10  1  0
 10 11  2  0
 11 12  1  0
 12 13  1  0
 13 14  2  0
 11 15  1  0
 15 16  1  0
 16 17  2  0
 17 18  1  0
 18 19  2  0
 19 20  1  0
 20 21  2  0
 15 22  1  0
 22 23  2  0
 23 24  1  0
 24 25  2  0
 25 26  1  0
 26 27  2  0
 27 28  1  0
  7  2  1  0
 21 10  1  0
 27 22  1  0
 13  5  1  0
 21 16  1  0
  3 29  1  0
  4 30  1  0
  7 31  1  0
 12 32  1  0
 17 33  1  0
 18 34  1  0
 19 35  1  0
 23 36  1  0
 24 37  1  0
 25 38  1  0
 26 39  1  0
M  END
$$$$
[H]c1nc(N([H])c2c([H])c([H])c3c(c([H])nn3C([H])([H])c3c([H])c([H])c([H])c(Cl)c3[H])c2[H])c2c([H])c(F)c([H])c([H])c2n1
     RDKit          3D

 44 48  0  0  0  0  0  0  0  0999 V2000
    6.1408    3.8123    1.3985 F   0  0  0  0  0  0  0  0  0  0  0  0
    5.9500    2.4724    1.2999 C   0  0  0  0  0  0  0  0  0  0  0  0
    6.9879    1.6270    1.6136 C   0  0  0  0  0  0  0  0  0  0  0  0
    6.7731    0.2655    1.5067 C   0  0  0  0  0  0  0  0  0  0  0  0
    5.5618   -0.2505    1.0996 C   0  0  0  0  0  0  0  0  0  0  0  0
    5.3631   -1.5737    1.0001 N   0  0  0  0  0  0  0  0  0  0  0  0
    4.1990   -2.1229    0.6085 C   0  0  0  0  0  0  0  0  0  0  0  0
    3.2112   -1.2762    0.3109 N   0  0  0  0  0  0  0  0  0  0  0  0
    3.2867    0.0504    0.3705 C   0  0  0  0  0  0  0  0  0  0  0  0
    2.2180    0.8784    0.0141 N   0  0  0  0  0  0  0  0  0  0  0  0
    0.9158    0.4987   -0.3894 C   0  0  0  0  0  0  0  0  0  0  0  0
    0.3693   -0.6799    0.0111 C   0  0  0  0  0  0  0  0  0  0  0  0
   -0.8985   -1.0661   -0.4131 C   0  0  0  0  0  0  0  0  0  0  0  0
   -1.6058   -0.2358   -1.2516 C   0  0  0  0  0  0  0  0  0  0  0  0
   -2.8230   -0.3195   -1.8260 N   0  0  0  0  0  0  0  0  0  0  0  0
   -3.7537   -1.4254   -1.6605 C   0  0  0  0  0  0  0  0  0  0  0  0
   -4.6267   -1.1182   -0.5074 C   0  0  0  0  0  0  0  0  0  0  0  0
   -5.7568   -0.3628   -0.7180 C   0  0  0  0  0  0  0  0  0  0  0  0
   -6.6330   -0.0260    0.2787 C   0  0  0  0  0  0  0  0  0  0  0  0
   -6.3742   -0.4634    1.5591 C   0  0  0  0  0  0  0  0  0  0  0  0
   -5.2444   -1.2209    1.7799 C   0  0  0  0  0  0  0  0  0  0  0  0
   -4.9085   -1.7795    3.3991 Cl  0  0  0  0  0  0  0  0  0  0  0  0
   -4.3587   -1.5594    0.7627 C   0  0  0  0  0  0  0  0  0  0  0  0
   -3.0255    0.7475   -2.5445 N   0  0  0  0  0  0  0  0  0  0  0  0
   -1.9715    1.5678   -2.4780 C   0  0  0  0  0  0  0  0  0  0  0  0
   -1.0365    0.9527   -1.6452 C   0  0  0  0  0  0  0  0  0  0  0  0
    0.2147    1.3693   -1.2474 C   0  0  0  0  0  0  0  0  0  0  0  0
    4.4886    0.5871    0.7742 C   0  0  0  0  0  0  0  0  0  0  0  0
    4.7292    1.9334    0.8891 C   0  0  0  0  0  0  0  0  0  0  0  0
    7.9507    1.9898    1.9358 H   0  0  0  0  0  0  0  0  0  0  0  0
    7.5754   -0.4458    1.7476 H   0  0  0  0  0  0  0  0  0  0  0  0
    4.0676   -3.2133    0.5370 H   0  0  0  0  0  0  0  0  0  0  0  0
    2.3498    1.9461    0.0356 H   0  0  0  0  0  0  0  0  0  0  0  0
    0.8414   -1.3781    0.6783 H   0  0  0  0  0  0  0  0  0  0  0  0
   -1.3423   -1.9895   -0.1083 H   0  0  0  0  0  0  0  0  0  0  0  0
   -3.1946   -2.3686   -1.5119 H   0  0  0  0  0  0  0  0  0  0  0  0
   -4.4029   -1.4965   -2.5622 H   0  0  0  0  0  0  0  0  0  0  0  0
   -5.9903   -0.0026   -1.7127 H   0  0  0  0  0  0  0  0  0  0  0  0
   -7.5185    0.5699    0.0949 H   0  0  0  0  0  0  0  0  0  0  0  0
   -7.0587   -0.2075    2.3716 H   0  0  0  0  0  0  0  0  0  0  0  0
   -3.4749   -2.1645    0.9767 H   0  0  0  0  0  0  0  0  0  0  0  0
   -1.8050    2.5148   -2.9386 H   0  0  0  0  0  0  0  0  0  0  0  0
    0.6552    2.3055   -1.5614 H   0  0  0  0  0  0  0  0  0  0  0  0
    3.9550    2.6578    0.6593 H   0  0  0  0  0  0  0  0  0  0  0  0
  1  2  1  0
  2  3  2  0
  3  4  1  0
  4  5  2  0
  5  6  1  0
  6  7  2  0
  7  8  1  0
  8  9  2  0
  9 10  1  0
 10 11  1  0
 11 12  2  0
 12 13  1  0
 13 14  2  0
 14 15  1  0
 15 16  1  0
 16 17  1  0
 17 18  2  0
 18 19  1  0
 19 20  2  0
 20 21  1  0
 21 22  1  0
 21 23  2  0
 15 24  1  0
 24 25  2  0
 25 26  1  0
 26 27  2  0
  9 28  1  0
 28 29  2  0
 29  2  1  0
 28  5  1  0
 27 11  1  0
 26 14  1  0
 23 17  1  0
  3 30  1  0
  4 31  1  0
  7 32  1  0
 10 33  1  0
 12 34  1  0
 13 35  1  0
 16 36  1  0
 16 37  1  0
 18 38  1  0
 19 39  1  0
 20 40  1  0
 23 41  1  0
 25 42  1  0
 27 43  1  0
 29 44  1  0
M  END
$$$$
[H]O[C@]1([H])C([H])([H])C([H])([H])C([H])([H])C([H])([H])C([H])([H])[C@@]1([H])N([H])C(=O)c1c(-c2c([H])c([H])c(-c3c([H])c([H])c(S(=O)(=O)O[H])c([H])c3[H])c([H])c2[H])sc2c([H])c([H])c([H])c([H])c12
     RDKit          3D

 63 67  0  0  0  0  0  0  0  0999 V2000
    7.0503    5.4701    0.4948 O   0  0  0  0  0  0  0  0  0  0  0  0
    7.6057    4.0248   -0.1705 S   0  0  0  0  0  0  0  0  0  0  0  0
    8.6995    3.4422    0.6793 O   0  0  0  0  0  0  0  0  0  0  0  0
    8.1159    4.2888   -1.5556 O   0  0  0  0  0  0  0  0  0  0  0  0
    6.3020    2.8827   -0.2244 C   0  0  0  0  0  0  0  0  0  0  0  0
    6.0763    2.0423    0.8223 C   0  0  0  0  0  0  0  0  0  0  0  0
    5.0400    1.1359    0.7736 C   0  0  0  0  0  0  0  0  0  0  0  0
    4.1996    1.0466   -0.3277 C   0  0  0  0  0  0  0  0  0  0  0  0
    4.4486    1.9057   -1.3702 C   0  0  0  0  0  0  0  0  0  0  0  0
    5.4887    2.8192   -1.3276 C   0  0  0  0  0  0  0  0  0  0  0  0
    3.1259    0.0618   -0.3118 C   0  0  0  0  0  0  0  0  0  0  0  0
    3.2929   -1.1330    0.3566 C   0  0  0  0  0  0  0  0  0  0  0  0
    2.2973   -2.0742    0.3876 C   0  0  0  0  0  0  0  0  0  0  0  0
    1.0722   -1.8616   -0.2567 C   0  0  0  0  0  0  0  0  0  0  0  0
    0.9095   -0.6871   -0.9152 C   0  0  0  0  0  0  0  0  0  0  0  0
    1.9261    0.2767   -0.9471 C   0  0  0  0  0  0  0  0  0  0  0  0
    0.0830   -2.9599   -0.2679 C   0  0  0  0  0  0  0  0  0  0  0  0
    0.5024   -4.6374   -0.0562 S   0  0  0  0  0  0  0  0  0  0  0  0
   -1.0516   -5.3050   -0.1853 C   0  0  0  0  0  0  0  0  0  0  0  0
   -1.5552   -6.6243   -0.1281 C   0  0  0  0  0  0  0  0  0  0  0  0
   -2.8899   -6.8695   -0.2729 C   0  0  0  0  0  0  0  0  0  0  0  0
   -3.7075   -5.7938   -0.4734 C   0  0  0  0  0  0  0  0  0  0  0  0
   -3.2289   -4.5231   -0.5291 C   0  0  0  0  0  0  0  0  0  0  0  0
   -1.8557   -4.2216   -0.3846 C   0  0  0  0  0  0  0  0  0  0  0  0
   -1.2559   -2.9952   -0.4235 C   0  0  0  0  0  0  0  0  0  0  0  0
   -2.0999   -1.7487   -0.4588 C   0  0  0  0  0  0  0  0  0  0  0  0
   -2.9792   -1.6309   -1.3625 O   0  0  0  0  0  0  0  0  0  0  0  0
   -1.9901   -0.7037    0.4551 N   0  0  0  0  0  0  0  0  0  0  0  0
   -2.8000    0.4939    0.4416 C   0  0  2  0  0  0  0  0  0  0  0  0
   -2.0480    1.7606    0.2315 C   0  0  0  0  0  0  0  0  0  0  0  0
   -2.9378    2.7843   -0.3936 C   0  0  0  0  0  0  0  0  0  0  0  0
   -4.3798    2.6977   -0.0174 C   0  0  0  0  0  0  0  0  0  0  0  0
   -4.6170    2.8352    1.4615 C   0  0  0  0  0  0  0  0  0  0  0  0
   -3.8376    1.8659    2.2857 C   0  0  0  0  0  0  0  0  0  0  0  0
   -3.6806    0.5149    1.6640 C   0  0  1  0  0  0  0  0  0  0  0  0
   -4.9350   -0.0315    1.4482 O   0  0  0  0  0  0  0  0  0  0  0  0
    7.7206    6.2008    0.3343 H   0  0  0  0  0  0  0  0  0  0  0  0
    6.7065    2.0864    1.6863 H   0  0  0  0  0  0  0  0  0  0  0  0
    4.8818    0.4760    1.6253 H   0  0  0  0  0  0  0  0  0  0  0  0
    3.8325    1.8810   -2.2444 H   0  0  0  0  0  0  0  0  0  0  0  0
    5.6913    3.5059   -2.1559 H   0  0  0  0  0  0  0  0  0  0  0  0
    4.2548   -1.3018    0.8626 H   0  0  0  0  0  0  0  0  0  0  0  0
    2.4055   -3.0165    0.9039 H   0  0  0  0  0  0  0  0  0  0  0  0
    0.0138   -0.4494   -1.4800 H   0  0  0  0  0  0  0  0  0  0  0  0
    1.8001    1.2135   -1.4690 H   0  0  0  0  0  0  0  0  0  0  0  0
   -0.8138   -7.3876    0.0345 H   0  0  0  0  0  0  0  0  0  0  0  0
   -3.2723   -7.8587   -0.2306 H   0  0  0  0  0  0  0  0  0  0  0  0
   -4.7906   -5.9806   -0.5921 H   0  0  0  0  0  0  0  0  0  0  0  0
   -3.9665   -3.7496   -0.6920 H   0  0  0  0  0  0  0  0  0  0  0  0
   -1.2919   -0.7638    1.2250 H   0  0  0  0  0  0  0  0  0  0  0  0
   -3.4977    0.3704   -0.4394 H   0  0  0  0  0  0  0  0  0  0  0  0
   -1.5292    2.1290    1.1411 H   0  0  0  0  0  0  0  0  0  0  0  0
   -1.2210    1.5709   -0.4986 H   0  0  0  0  0  0  0  0  0  0  0  0
   -2.8726    2.7166   -1.4957 H   0  0  0  0  0  0  0  0  0  0  0  0
   -2.5822    3.8057   -0.1119 H   0  0  0  0  0  0  0  0  0  0  0  0
   -4.8756    3.5982   -0.4888 H   0  0  0  0  0  0  0  0  0  0  0  0
   -4.9174    1.8315   -0.4380 H   0  0  0  0  0  0  0  0  0  0  0  0
   -5.7246    2.7251    1.6209 H   0  0  0  0  0  0  0  0  0  0  0  0
   -4.3497    3.8655    1.7557 H   0  0  0  0  0  0  0  0  0  0  0  0
   -4.4402    1.6971    3.2284 H   0  0  0  0  0  0  0  0  0  0  0  0
   -2.8799    2.2974    2.6571 H   0  0  0  0  0  0  0  0  0  0  0  0
   -3.1852   -0.1353    2.4358 H   0  0  0  0  0  0  0  0  0  0  0  0
   -5.4830    0.1239    2.2393 H   0  0  0  0  0  0  0  0  0  0  0  0
  1  2  1  0
  2  3  2  0
  2  4  2  0
  2  5  1  0
  5  6  2  0
  6  7  1  0
  7  8  2  0
  8  9  1  0
  9 10  2  0
  8 11  1  0
 11 12  2  0
 12 13  1  0
 13 14  2  0
 14 15  1  0
 15 16  2  0
 14 17  1  0
 17 18  1  0
 18 19  1  0
 19 20  2  0
 20 21  1  0
 21 22  2  0
 22 23  1  0
 23 24  2  0
 24 25  1  0
 25 26  1  0
 26 27  2  0
 26 28  1  0
 28 29  1  0
 29 30  1  0
 30 31  1  0
 31 32  1  0
 32 33  1  0
 33 34  1  0
 34 35  1  0
 35 36  1  0
 10  5  1  0
 16 11  1  0
 25 17  2  0
 35 29  1  0
 24 19  1  0
  1 37  1  0
  6 38  1  0
  7 39  1  0
  9 40  1  0
 10 41  1  0
 12 42  1  0
 13 43  1  0
 15 44  1  0
 16 45  1  0
 20 46  1  0
 21 47  1  0
 22 48  1  0
 23 49  1  0
 28 50  1  0
 29 51  1  6
 30 52  1  0
 30 53  1  0
 31 54  1  0
 31 55  1  0
 32 56  1  0
 32 57  1  0
 33 58  1  0
 33 59  1  0
 34 60  1  0
 34 61  1  0
 35 62  1  1
 36 63  1  0
M  END
$$$$
[H]Oc1c([H])c([H])c2c(c1[H])C(=O)N(C1([H])Sc3c([H])c(Cl)c(O[H])c([H])c3C(C([H])([H])[H])(C([H])([H])[H])OC1([H])[H])C2=S
     RDKit          3D

 43 46  0  0  0  0  0  0  0  0999 V2000
   -2.4364    1.3312   -1.8607 C   0  0  0  0  0  0  0  0  0  0  0  0
   -2.4651    1.4138   -0.3775 C   0  0  0  0  0  0  0  0  0  0  0  0
   -3.4683    2.4872    0.0371 C   0  0  0  0  0  0  0  0  0  0  0  0
   -1.2583    1.7205    0.2105 O   0  0  0  0  0  0  0  0  0  0  0  0
   -0.1412    1.3618   -0.4974 C   0  0  0  0  0  0  0  0  0  0  0  0
    0.3072   -0.0588   -0.2572 C   0  0  0  0  0  0  0  0  0  0  0  0
   -0.4854   -0.7801    1.2350 S   0  0  0  0  0  0  0  0  0  0  0  0
   -2.2356   -0.8187    0.8902 C   0  0  0  0  0  0  0  0  0  0  0  0
   -2.8289   -1.9542    1.3864 C   0  0  0  0  0  0  0  0  0  0  0  0
   -4.2016   -2.1698    1.2171 C   0  0  0  0  0  0  0  0  0  0  0  0
   -5.0024   -3.5876    1.8243 Cl  0  0  0  0  0  0  0  0  0  0  0  0
   -4.9295   -1.1933    0.5313 C   0  0  0  0  0  0  0  0  0  0  0  0
   -6.2957   -1.4040    0.3607 O   0  0  0  0  0  0  0  0  0  0  0  0
   -4.3297   -0.0571    0.0360 C   0  0  0  0  0  0  0  0  0  0  0  0
   -2.9764    0.1271    0.2184 C   0  0  0  0  0  0  0  0  0  0  0  0
    1.7318   -0.1941   -0.1903 N   0  0  0  0  0  0  0  0  0  0  0  0
    2.5046   -0.9849   -1.0827 C   0  0  0  0  0  0  0  0  0  0  0  0
    1.9605   -1.8872   -2.3432 S   0  0  0  0  0  0  0  0  0  0  0  0
    3.9062   -0.8875   -0.7182 C   0  0  0  0  0  0  0  0  0  0  0  0
    5.0368   -1.4550   -1.2607 C   0  0  0  0  0  0  0  0  0  0  0  0
    6.2534   -1.1773   -0.6944 C   0  0  0  0  0  0  0  0  0  0  0  0
    6.3263   -0.3425    0.3988 C   0  0  0  0  0  0  0  0  0  0  0  0
    7.5722   -0.0892    0.9386 O   0  0  0  0  0  0  0  0  0  0  0  0
    5.2015    0.2268    0.9446 C   0  0  0  0  0  0  0  0  0  0  0  0
    3.9522   -0.0460    0.3790 C   0  0  0  0  0  0  0  0  0  0  0  0
    2.6229    0.4179    0.7535 C   0  0  0  0  0  0  0  0  0  0  0  0
    2.3171    1.1894    1.7004 O   0  0  0  0  0  0  0  0  0  0  0  0
   -1.9079    0.4299   -2.2345 H   0  0  0  0  0  0  0  0  0  0  0  0
   -2.0329    2.2777   -2.2591 H   0  0  0  0  0  0  0  0  0  0  0  0
   -3.5006    1.2310   -2.2081 H   0  0  0  0  0  0  0  0  0  0  0  0
   -3.8675    2.2569    1.0604 H   0  0  0  0  0  0  0  0  0  0  0  0
   -2.9680    3.4791    0.1238 H   0  0  0  0  0  0  0  0  0  0  0  0
   -4.2927    2.5912   -0.6765 H   0  0  0  0  0  0  0  0  0  0  0  0
   -0.2494    1.5316   -1.6098 H   0  0  0  0  0  0  0  0  0  0  0  0
    0.6705    2.0947   -0.2085 H   0  0  0  0  0  0  0  0  0  0  0  0
   -0.0954   -0.6569   -1.1000 H   0  0  0  0  0  0  0  0  0  0  0  0
   -2.2620   -2.7204    1.9237 H   0  0  0  0  0  0  0  0  0  0  0  0
   -6.7536   -2.2121    0.7065 H   0  0  0  0  0  0  0  0  0  0  0  0
   -4.9209    0.6568   -0.4777 H   0  0  0  0  0  0  0  0  0  0  0  0
    4.9992   -2.1063   -2.1103 H   0  0  0  0  0  0  0  0  0  0  0  0
    7.1787   -1.6147   -1.1034 H   0  0  0  0  0  0  0  0  0  0  0  0
    8.1466    0.6893    0.6236 H   0  0  0  0  0  0  0  0  0  0  0  0
    5.2180    0.8838    1.7980 H   0  0  0  0  0  0  0  0  0  0  0  0
  1  2  1  0
  2  3  1  0
  2  4  1  0
  4  5  1  0
  5  6  1  0
  6  7  1  0
  7  8  1  0
  8  9  2  0
  9 10  1  0
 10 11  1  0
 10 12  2  0
 12 13  1  0
 12 14  1  0
 14 15  2  0
  6 16  1  0
 16 17  1  0
 17 18  2  0
 17 19  1  0
 19 20  2  0
 20 21  1  0
 21 22  2  0
 22 23  1  0
 22 24  1  0
 24 25  2  0
 25 26  1  0
 26 27  2  0
 15  2  1  0
 26 16  1  0
 15  8  1  0
 25 19  1  0
  1 28  1  0
  1 29  1  0
  1 30  1  0
  3 31  1  0
  3 32  1  0
  3 33  1  0
  5 34  1  0
  5 35  1  0
  6 36  1  0
  9 37  1  0
 13 38  1  0
 14 39  1  0
 20 40  1  0
 21 41  1  0
 23 42  1  0
 24 43  1  0
M  END
$$$$
[H]Oc1nc(O[C@@]2([H])O[C@]([H])(C([H])([H])O[H])[C@]([H])(O[H])[C@]([H])(O[H])[C@]2([H])O[H])c(C([H])([H])O[H])c([H])c1O[H]
     RDKit          3D

 39 40  0  0  0  0  0  0  0  0999 V2000
   -2.3563    2.6898   -2.2433 O   0  0  0  0  0  0  0  0  0  0  0  0
   -3.2039    1.9716   -1.4206 C   0  0  0  0  0  0  0  0  0  0  0  0
   -2.4165    0.7469   -0.9309 C   0  0  1  0  0  0  0  0  0  0  0  0
   -1.3334    1.2083   -0.2582 O   0  0  0  0  0  0  0  0  0  0  0  0
   -0.6221    0.3071    0.4744 C   0  0  2  0  0  0  0  0  0  0  0  0
    0.3752   -0.3433   -0.2938 O   0  0  0  0  0  0  0  0  0  0  0  0
    1.7304   -0.2030   -0.0237 C   0  0  0  0  0  0  0  0  0  0  0  0
    2.1024    0.5806    1.0065 N   0  0  0  0  0  0  0  0  0  0  0  0
    3.3963    0.7616    1.3248 C   0  0  0  0  0  0  0  0  0  0  0  0
    3.7326    1.5823    2.4003 O   0  0  0  0  0  0  0  0  0  0  0  0
    4.3406    0.1149    0.5578 C   0  0  0  0  0  0  0  0  0  0  0  0
    5.6815    0.2856    0.8660 O   0  0  0  0  0  0  0  0  0  0  0  0
    4.0069   -0.7018   -0.5125 C   0  0  0  0  0  0  0  0  0  0  0  0
    2.6454   -0.8541   -0.7984 C   0  0  0  0  0  0  0  0  0  0  0  0
    2.1582   -1.6919   -1.9058 C   0  0  0  0  0  0  0  0  0  0  0  0
    3.2290   -2.2761   -2.5843 O   0  0  0  0  0  0  0  0  0  0  0  0
   -1.4280   -0.7182    1.2032 C   0  0  1  0  0  0  0  0  0  0  0  0
   -1.8121   -0.2576    2.4658 O   0  0  0  0  0  0  0  0  0  0  0  0
   -2.6175   -1.2211    0.4728 C   0  0  1  0  0  0  0  0  0  0  0  0
   -3.4457   -1.8979    1.3833 O   0  0  0  0  0  0  0  0  0  0  0  0
   -3.3877   -0.0438   -0.0706 C   0  0  1  0  0  0  0  0  0  0  0  0
   -3.7571    0.7638    0.9931 O   0  0  0  0  0  0  0  0  0  0  0  0
   -2.4510    3.6807   -2.1170 H   0  0  0  0  0  0  0  0  0  0  0  0
   -3.3827    2.5955   -0.4964 H   0  0  0  0  0  0  0  0  0  0  0  0
   -4.1452    1.6779   -1.9102 H   0  0  0  0  0  0  0  0  0  0  0  0
   -2.1824    0.1719   -1.8634 H   0  0  0  0  0  0  0  0  0  0  0  0
   -0.0822    0.8983    1.2689 H   0  0  0  0  0  0  0  0  0  0  0  0
    4.2212    2.4603    2.2629 H   0  0  0  0  0  0  0  0  0  0  0  0
    5.9802    0.8649    1.6291 H   0  0  0  0  0  0  0  0  0  0  0  0
    4.7215   -1.2097   -1.1166 H   0  0  0  0  0  0  0  0  0  0  0  0
    1.4158   -2.4530   -1.5797 H   0  0  0  0  0  0  0  0  0  0  0  0
    1.6210   -1.0589   -2.6646 H   0  0  0  0  0  0  0  0  0  0  0  0
    3.2137   -3.2657   -2.4104 H   0  0  0  0  0  0  0  0  0  0  0  0
   -0.7462   -1.5999    1.3827 H   0  0  0  0  0  0  0  0  0  0  0  0
   -1.3198    0.5857    2.6528 H   0  0  0  0  0  0  0  0  0  0  0  0
   -2.3412   -1.9422   -0.3153 H   0  0  0  0  0  0  0  0  0  0  0  0
   -2.9756   -2.1244    2.2195 H   0  0  0  0  0  0  0  0  0  0  0  0
   -4.2186   -0.3867   -0.6858 H   0  0  0  0  0  0  0  0  0  0  0  0
   -4.3473    0.3016    1.6378 H   0  0  0  0  0  0  0  0  0  0  0  0
  1  2  1  0
  2  3  1  0
  3  4  1  0
  4  5  1  0
  5  6  1  0
  6  7  1  0
  7  8  2  0
  8  9  1  0
  9 10  1  0
  9 11  2  0
 11 12  1  0
 11 13  1  0
 13 14  2  0
 14 15  1  0
 15 16  1  0
  5 17  1  0
 17 18  1  0
 17 19  1  0
 19 20  1  0
 19 21  1  0
 21 22  1  0
 21  3  1  0
 14  7  1  0
  1 23  1  0
  2 24  1  0
  2 25  1  0
  3 26  1  6
  5 27  1  1
 10 28  1  0
 12 29  1  0
 13 30  1  0
 15 31  1  0
 15 32  1  0
 16 33  1  0
 17 34  1  1
 18 35  1  0
 19 36  1  6
 20 37  1  0
 21 38  1  6
 22 39  1  0
M  END
$$$$
[H]c1c([H])c(Br)c(Cl)c(N([H])C(=O)N([H])c2c([H])c([H])c(OC(C([H])([H])[H])(C([H])([H])[H])C([H])([H])[H])c(C([H])([H])[H])c2Cl)c1[H]
     RDKit          3D

 44 45  0  0  0  0  0  0  0  0999 V2000
   -1.9997    2.4401    0.7344 C   0  0  0  0  0  0  0  0  0  0  0  0
   -1.5656    1.0121    0.5565 C   0  0  0  0  0  0  0  0  0  0  0  0
   -0.2838    0.7188    0.1738 C   0  0  0  0  0  0  0  0  0  0  0  0
    0.8063    2.0207   -0.1381 Cl  0  0  0  0  0  0  0  0  0  0  0  0
    0.1854   -0.6049    0.0005 C   0  0  0  0  0  0  0  0  0  0  0  0
    1.4770   -0.8452   -0.2576 N   0  0  0  0  0  0  0  0  0  0  0  0
    2.7905   -1.0948   -0.5226 C   0  0  0  0  0  0  0  0  0  0  0  0
    3.2485   -2.1628   -1.0828 O   0  0  0  0  0  0  0  0  0  0  0  0
    3.8511   -0.1746   -0.1958 N   0  0  0  0  0  0  0  0  0  0  0  0
    5.2185   -0.2883   -0.4112 C   0  0  0  0  0  0  0  0  0  0  0  0
    5.8828   -1.2685   -1.1115 C   0  0  0  0  0  0  0  0  0  0  0  0
    7.2640   -1.3065   -1.2974 C   0  0  0  0  0  0  0  0  0  0  0  0
    8.0167   -0.2965   -0.7439 C   0  0  0  0  0  0  0  0  0  0  0  0
    7.4208    0.6988   -0.0421 C   0  0  0  0  0  0  0  0  0  0  0  0
    8.4828    2.0921    0.7303 Br  0  0  0  0  0  0  0  0  0  0  0  0
    6.0669    0.7130    0.1251 C   0  0  0  0  0  0  0  0  0  0  0  0
    5.3262    2.0223    1.0424 Cl  0  0  0  0  0  0  0  0  0  0  0  0
   -0.7729   -1.5899    0.2518 C   0  0  0  0  0  0  0  0  0  0  0  0
   -2.0658   -1.3139    0.6372 C   0  0  0  0  0  0  0  0  0  0  0  0
   -2.4463   -0.0013    0.7850 C   0  0  0  0  0  0  0  0  0  0  0  0
   -3.7327    0.2072    1.1632 O   0  0  0  0  0  0  0  0  0  0  0  0
   -4.8790    0.3134    0.3928 C   0  0  0  0  0  0  0  0  0  0  0  0
   -6.0252    0.5392    1.3872 C   0  0  0  0  0  0  0  0  0  0  0  0
   -4.8889    1.3455   -0.6834 C   0  0  0  0  0  0  0  0  0  0  0  0
   -5.2186   -1.0343   -0.2714 C   0  0  0  0  0  0  0  0  0  0  0  0
   -1.0938    2.9521    1.1682 H   0  0  0  0  0  0  0  0  0  0  0  0
   -2.2107    2.8381   -0.2827 H   0  0  0  0  0  0  0  0  0  0  0  0
   -2.8791    2.5526    1.3655 H   0  0  0  0  0  0  0  0  0  0  0  0
    1.1526   -1.9061   -1.0502 H   0  0  0  0  0  0  0  0  0  0  0  0
    3.5099    0.6900    0.2779 H   0  0  0  0  0  0  0  0  0  0  0  0
    5.3561   -2.0806   -1.5720 H   0  0  0  0  0  0  0  0  0  0  0  0
    7.7660   -2.0755   -1.8494 H   0  0  0  0  0  0  0  0  0  0  0  0
    9.0817   -0.2813   -0.8583 H   0  0  0  0  0  0  0  0  0  0  0  0
   -0.4848   -2.6425    0.1525 H   0  0  0  0  0  0  0  0  0  0  0  0
   -2.7384   -2.1329    0.8083 H   0  0  0  0  0  0  0  0  0  0  0  0
   -6.9591    0.7363    0.8279 H   0  0  0  0  0  0  0  0  0  0  0  0
   -5.7541    1.4373    1.9703 H   0  0  0  0  0  0  0  0  0  0  0  0
   -6.1414   -0.3176    2.0608 H   0  0  0  0  0  0  0  0  0  0  0  0
   -5.8170    1.1965   -1.2910 H   0  0  0  0  0  0  0  0  0  0  0  0
   -4.9703    2.3844   -0.2921 H   0  0  0  0  0  0  0  0  0  0  0  0
   -4.0510    1.2089   -1.3658 H   0  0  0  0  0  0  0  0  0  0  0  0
   -6.0704   -0.8675   -0.9217 H   0  0  0  0  0  0  0  0  0  0  0  0
   -4.3686   -1.4211   -0.8815 H   0  0  0  0  0  0  0  0  0  0  0  0
   -5.4865   -1.7759    0.5109 H   0  0  0  0  0  0  0  0  0  0  0  0
  1  2  1  0
  2  3  2  0
  3  4  1  0
  3  5  1  0
  5  6  1  0
  6  7  1  0
  7  8  2  0
  7  9  1  0
  9 10  1  0
 10 11  2  0
 11 12  1  0
 12 13  2  0
 13 14  1  0
 14 15  1  0
 14 16  2  0
 16 17  1  0
  5 18  2  0
 18 19  1  0
 19 20  2  0
 20 21  1  0
 21 22  1  0
 22 23  1  0
 22 24  1  0
 22 25  1  0
 20  2  1  0
 16 10  1  0
  1 26  1  0
  1 27  1  0
  1 28  1  0
  6 29  1  0
  9 30  1  0
 11 31  1  0
 12 32  1  0
 13 33  1  0
 18 34  1  0
 19 35  1  0
 23 36  1  0
 23 37  1  0
 23 38  1  0
 24 39  1  0
 24 40  1  0
 24 41  1  0
 25 42  1  0
 25 43  1  0
 25 44  1  0
M  END
$$$$
[H]c1c([H])c([H])c(S(=O)(=O)N2c3c([H])c([H])c(N([H])C(=O)C4([H])N(C(=O)c5c([H])c([H])c(N6C([H])([H])C([H])([H])C([H])([H])C6([H])[H])c([H])c5[H])C([H])([H])C([H])([H])C4([H])[H])c([H])c3C([H])([H])C2([H])[H])c(F)c1[H]
     RDKit          3D

 71 76  0  0  0  0  0  0  0  0999 V2000
    0.0457   -0.9337    0.2119 O   0  0  0  0  0  0  0  0  0  0  0  0
    0.2641   -1.9672   -0.4573 C   0  0  0  0  0  0  0  0  0  0  0  0
    1.4655   -2.2222   -1.1077 N   0  0  0  0  0  0  0  0  0  0  0  0
    2.6435   -1.4160   -1.1669 C   0  0  0  0  0  0  0  0  0  0  0  0
    2.7415   -0.1440   -0.6750 C   0  0  0  0  0  0  0  0  0  0  0  0
    3.9126    0.5964   -0.7512 C   0  0  0  0  0  0  0  0  0  0  0  0
    5.0490    0.0677   -1.3385 C   0  0  0  0  0  0  0  0  0  0  0  0
    6.3527    0.5945   -1.5549 N   0  0  0  0  0  0  0  0  0  0  0  0
    6.9971   -0.2568   -2.5175 C   0  0  0  0  0  0  0  0  0  0  0  0
    6.2869   -1.5586   -2.4078 C   0  0  0  0  0  0  0  0  0  0  0  0
    4.9485   -1.2038   -1.8299 C   0  0  0  0  0  0  0  0  0  0  0  0
    3.7920   -1.9529   -1.7619 C   0  0  0  0  0  0  0  0  0  0  0  0
    7.0210    1.9806   -0.7999 S   0  0  0  0  0  0  0  0  0  0  0  0
    8.3493    2.3463   -1.3323 O   0  0  0  0  0  0  0  0  0  0  0  0
    6.1129    3.1868   -1.0231 O   0  0  0  0  0  0  0  0  0  0  0  0
    7.1453    1.8236    0.9396 C   0  0  0  0  0  0  0  0  0  0  0  0
    6.7700    0.7035    1.6128 C   0  0  0  0  0  0  0  0  0  0  0  0
    6.9161    0.6681    2.9890 C   0  0  0  0  0  0  0  0  0  0  0  0
    7.4332    1.7552    3.6464 C   0  0  0  0  0  0  0  0  0  0  0  0
    7.8195    2.8981    2.9901 C   0  0  0  0  0  0  0  0  0  0  0  0
    7.6618    2.9059    1.6111 C   0  0  0  0  0  0  0  0  0  0  0  0
    8.0485    4.0496    0.9800 F   0  0  0  0  0  0  0  0  0  0  0  0
   -0.8426   -2.9867   -0.5601 C   0  0  0  0  0  0  0  0  0  0  0  0
   -0.5691   -4.0136    0.5111 C   0  0  0  0  0  0  0  0  0  0  0  0
   -1.9104   -4.4825    0.9235 C   0  0  0  0  0  0  0  0  0  0  0  0
   -2.7492   -3.2310    0.7824 C   0  0  0  0  0  0  0  0  0  0  0  0
   -2.1364   -2.4106   -0.2141 N   0  0  0  0  0  0  0  0  0  0  0  0
   -2.6447   -1.2558   -0.8347 C   0  0  0  0  0  0  0  0  0  0  0  0
   -1.8770   -0.7664   -1.7682 O   0  0  0  0  0  0  0  0  0  0  0  0
   -3.8578   -0.5333   -0.6095 C   0  0  0  0  0  0  0  0  0  0  0  0
   -4.0963    0.6006   -1.4069 C   0  0  0  0  0  0  0  0  0  0  0  0
   -5.2229    1.3801   -1.2881 C   0  0  0  0  0  0  0  0  0  0  0  0
   -6.1916    1.0790   -0.3616 C   0  0  0  0  0  0  0  0  0  0  0  0
   -5.9730   -0.0235    0.4242 C   0  0  0  0  0  0  0  0  0  0  0  0
   -4.8364   -0.8224    0.3143 C   0  0  0  0  0  0  0  0  0  0  0  0
   -7.3735    1.8827   -0.2213 N   0  0  0  0  0  0  0  0  0  0  0  0
   -7.6280    3.1958   -0.7392 C   0  0  0  0  0  0  0  0  0  0  0  0
   -8.5793    3.8174    0.2854 C   0  0  0  0  0  0  0  0  0  0  0  0
   -9.3137    2.6773    0.9119 C   0  0  0  0  0  0  0  0  0  0  0  0
   -8.5486    1.4485    0.4868 C   0  0  0  0  0  0  0  0  0  0  0  0
    1.5142   -3.1572   -1.6451 H   0  0  0  0  0  0  0  0  0  0  0  0
    1.8665    0.3096   -0.2136 H   0  0  0  0  0  0  0  0  0  0  0  0
    3.9757    1.6050   -0.3551 H   0  0  0  0  0  0  0  0  0  0  0  0
    6.9007    0.2379   -3.5252 H   0  0  0  0  0  0  0  0  0  0  0  0
    8.0993   -0.3560   -2.2793 H   0  0  0  0  0  0  0  0  0  0  0  0
    6.8261   -2.1931   -1.6836 H   0  0  0  0  0  0  0  0  0  0  0  0
    6.1653   -2.0610   -3.3928 H   0  0  0  0  0  0  0  0  0  0  0  0
    3.7568   -2.9597   -2.1639 H   0  0  0  0  0  0  0  0  0  0  0  0
    6.3646   -0.1500    1.0794 H   0  0  0  0  0  0  0  0  0  0  0  0
    6.6130   -0.2273    3.5268 H   0  0  0  0  0  0  0  0  0  0  0  0
    7.5554    1.7520    4.7258 H   0  0  0  0  0  0  0  0  0  0  0  0
    8.2345    3.7713    3.5103 H   0  0  0  0  0  0  0  0  0  0  0  0
   -0.9318   -3.4202   -1.5596 H   0  0  0  0  0  0  0  0  0  0  0  0
    0.0976   -4.8088    0.1202 H   0  0  0  0  0  0  0  0  0  0  0  0
   -0.0663   -3.4676    1.3674 H   0  0  0  0  0  0  0  0  0  0  0  0
   -1.8617   -4.7723    1.9988 H   0  0  0  0  0  0  0  0  0  0  0  0
   -2.2608   -5.2858    0.2814 H   0  0  0  0  0  0  0  0  0  0  0  0
   -2.8543   -2.7778    1.7739 H   0  0  0  0  0  0  0  0  0  0  0  0
   -3.7483   -3.6249    0.4047 H   0  0  0  0  0  0  0  0  0  0  0  0
   -3.3804    0.9159   -2.1737 H   0  0  0  0  0  0  0  0  0  0  0  0
   -5.3800    2.2535   -1.9209 H   0  0  0  0  0  0  0  0  0  0  0  0
   -6.7112   -0.3039    1.1736 H   0  0  0  0  0  0  0  0  0  0  0  0
   -4.7558   -1.6538    0.9779 H   0  0  0  0  0  0  0  0  0  0  0  0
   -8.1793    3.1075   -1.6880 H   0  0  0  0  0  0  0  0  0  0  0  0
   -6.7071    3.8246   -0.8169 H   0  0  0  0  0  0  0  0  0  0  0  0
   -8.0174    4.4399    1.0291 H   0  0  0  0  0  0  0  0  0  0  0  0
   -9.3108    4.4982   -0.1950 H   0  0  0  0  0  0  0  0  0  0  0  0
  -10.3523    2.6034    0.4836 H   0  0  0  0  0  0  0  0  0  0  0  0
   -9.3286    2.7889    2.0233 H   0  0  0  0  0  0  0  0  0  0  0  0
   -9.1990    0.7890   -0.1536 H   0  0  0  0  0  0  0  0  0  0  0  0
   -8.3510    0.8463    1.3923 H   0  0  0  0  0  0  0  0  0  0  0  0
  1  2  2  0
  2  3  1  0
  3  4  1  0
  4  5  2  0
  5  6  1  0
  6  7  2  0
  7  8  1  0
  8  9  1  0
  9 10  1  0
 10 11  1  0
 11 12  2  0
  8 13  1  0
 13 14  2  0
 13 15  2  0
 13 16  1  0
 16 17  2  0
 17 18  1  0
 18 19  2  0
 19 20  1  0
 20 21  2  0
 21 22  1  0
  2 23  1  0
 23 24  1  0
 24 25  1  0
 25 26  1  0
 26 27  1  0
 27 28  1  0
 28 29  2  0
 28 30  1  0
 30 31  2  0
 31 32  1  0
 32 33  2  0
 33 34  1  0
 34 35  2  0
 33 36  1  0
 36 37  1  0
 37 38  1  0
 38 39  1  0
 39 40  1  0
 12  4  1  0
 21 16  1  0
 27 23  1  0
 35 30  1  0
 40 36  1  0
 11  7  1  0
  3 41  1  0
  5 42  1  0
  6 43  1  0
  9 44  1  0
  9 45  1  0
 10 46  1  0
 10 47  1  0
 12 48  1  0
 17 49  1  0
 18 50  1  0
 19 51  1  0
 20 52  1  0
 23 53  1  0
 24 54  1  0
 24 55  1  0
 25 56  1  0
 25 57  1  0
 26 58  1  0
 26 59  1  0
 31 60  1  0
 32 61  1  0
 34 62  1  0
 35 63  1  0
 37 64  1  0
 37 65  1  0
 38 66  1  0
 38 67  1  0
 39 68  1  0
 39 69  1  0
 40 70  1  0
 40 71  1  0
M  END
$$$$
[H]c1c([H])c(Cl)c([H])c(C([H])([H])N([H])C([H])([H])C([H])([H])N([H])C(=O)[C@@]([H])(N([H])[H])C([H])([H])C([H])([H])N=C(N([H])[H])N([H])[H])c1[H]
     RDKit          3D

 45 45  0  0  0  0  0  0  0  0999 V2000
   -1.0481    0.5284    1.6459 N   0  0  0  0  0  0  0  0  0  0  0  0
   -1.9957    0.0806    0.6040 C   0  0  1  0  0  0  0  0  0  0  0  0
   -3.2065    0.9764    0.6470 C   0  0  0  0  0  0  0  0  0  0  0  0
   -4.2473    0.6214   -0.3591 C   0  0  0  0  0  0  0  0  0  0  0  0
   -4.7346   -0.7249   -0.2188 N   0  0  0  0  0  0  0  0  0  0  0  0
   -5.8316   -1.0494    0.3766 C   0  0  0  0  0  0  0  0  0  0  0  0
   -6.1574   -2.4269    0.4212 N   0  0  0  0  0  0  0  0  0  0  0  0
   -6.6900   -0.0569    0.9711 N   0  0  0  0  0  0  0  0  0  0  0  0
   -1.3398    0.1556   -0.7235 C   0  0  0  0  0  0  0  0  0  0  0  0
   -1.8743   -0.3366   -1.7433 O   0  0  0  0  0  0  0  0  0  0  0  0
   -0.0645    0.8009   -0.8692 N   0  0  0  0  0  0  0  0  0  0  0  0
    0.5373    0.8535   -2.1671 C   0  0  0  0  0  0  0  0  0  0  0  0
    1.8889    1.4958   -2.2107 C   0  0  0  0  0  0  0  0  0  0  0  0
    2.8840    0.8058   -1.5361 N   0  0  0  0  0  0  0  0  0  0  0  0
    2.9350    0.6298   -0.1543 C   0  0  0  0  0  0  0  0  0  0  0  0
    4.2492   -0.0762    0.1506 C   0  0  0  0  0  0  0  0  0  0  0  0
    4.2351   -1.4429    0.0767 C   0  0  0  0  0  0  0  0  0  0  0  0
    5.3692   -2.1765    0.3330 C   0  0  0  0  0  0  0  0  0  0  0  0
    6.5073   -1.4875    0.6635 C   0  0  0  0  0  0  0  0  0  0  0  0
    6.5352   -0.1122    0.7415 C   0  0  0  0  0  0  0  0  0  0  0  0
    8.0115    0.7107    1.1664 Cl  0  0  0  0  0  0  0  0  0  0  0  0
    5.3782    0.6271    0.4795 C   0  0  0  0  0  0  0  0  0  0  0  0
   -0.1493    0.0122    1.5432 H   0  0  0  0  0  0  0  0  0  0  0  0
   -1.4362    0.2924    2.5814 H   0  0  0  0  0  0  0  0  0  0  0  0
   -2.2775   -0.9550    0.8825 H   0  0  0  0  0  0  0  0  0  0  0  0
   -3.6455    0.9403    1.6877 H   0  0  0  0  0  0  0  0  0  0  0  0
   -2.8221    2.0132    0.5013 H   0  0  0  0  0  0  0  0  0  0  0  0
   -3.8820    0.8470   -1.3698 H   0  0  0  0  0  0  0  0  0  0  0  0
   -5.1760    1.2662   -0.2243 H   0  0  0  0  0  0  0  0  0  0  0  0
   -6.8196   -2.8619   -0.2485 H   0  0  0  0  0  0  0  0  0  0  0  0
   -5.7149   -3.0157    1.1517 H   0  0  0  0  0  0  0  0  0  0  0  0
   -7.0465    0.7450    0.4009 H   0  0  0  0  0  0  0  0  0  0  0  0
   -6.9787   -0.1085    1.9782 H   0  0  0  0  0  0  0  0  0  0  0  0
    0.3464    1.2267   -0.0228 H   0  0  0  0  0  0  0  0  0  0  0  0
    0.5763   -0.1937   -2.5990 H   0  0  0  0  0  0  0  0  0  0  0  0
   -0.1258    1.4009   -2.8979 H   0  0  0  0  0  0  0  0  0  0  0  0
    2.2131    1.6558   -3.2789 H   0  0  0  0  0  0  0  0  0  0  0  0
    1.8173    2.5366   -1.7728 H   0  0  0  0  0  0  0  0  0  0  0  0
    3.2217   -0.0439   -2.0388 H   0  0  0  0  0  0  0  0  0  0  0  0
    2.1268   -0.0761    0.2406 H   0  0  0  0  0  0  0  0  0  0  0  0
    2.9080    1.5062    0.4884 H   0  0  0  0  0  0  0  0  0  0  0  0
    3.3417   -2.0039   -0.1839 H   0  0  0  0  0  0  0  0  0  0  0  0
    5.3813   -3.2634    0.2801 H   0  0  0  0  0  0  0  0  0  0  0  0
    7.4312   -2.0275    0.8755 H   0  0  0  0  0  0  0  0  0  0  0  0
    5.3692    1.7110    0.5328 H   0  0  0  0  0  0  0  0  0  0  0  0
  1  2  1  0
  2  3  1  0
  3  4  1  0
  4  5  1  0
  5  6  2  3
  6  7  1  0
  6  8  1  0
  2  9  1  0
  9 10  2  0
  9 11  1  0
 11 12  1  0
 12 13  1  0
 13 14  1  0
 14 15  1  0
 15 16  1  0
 16 17  2  0
 17 18  1  0
 18 19  2  0
 19 20  1  0
 20 21  1  0
 20 22  2  0
 22 16  1  0
  1 23  1  0
  1 24  1  0
  2 25  1  1
  3 26  1  0
  3 27  1  0
  4 28  1  0
  4 29  1  0
  7 30  1  0
  7 31  1  0
  8 32  1  0
  8 33  1  0
 11 34  1  0
 12 35  1  0
 12 36  1  0
 13 37  1  0
 13 38  1  0
 14 39  1  0
 15 40  1  0
 15 41  1  0
 17 42  1  0
 18 43  1  0
 19 44  1  0
 22 45  1  0
M  END
$$$$
[H]c1c([H])c(F)c([H])c(C(=O)OC2([H])C([H])([H])C3([H])N(C([H])([H])[H])C([H])(C([H])([H])C3([H])[H])C2([H])[H])c1[H]
     RDKit          3D

 37 39  0  0  0  0  0  0  0  0999 V2000
   -4.2450   -1.2438   -0.0207 C   0  0  0  0  0  0  0  0  0  0  0  0
   -2.9188   -0.7055    0.0211 N   0  0  0  0  0  0  0  0  0  0  0  0
   -2.6828    0.3656   -0.9013 C   0  0  0  0  0  0  0  0  0  0  0  0
   -3.2969    1.5947   -0.2304 C   0  0  0  0  0  0  0  0  0  0  0  0
   -2.9400    1.3404    1.2197 C   0  0  0  0  0  0  0  0  0  0  0  0
   -2.5556   -0.1285    1.2872 C   0  0  0  0  0  0  0  0  0  0  0  0
   -1.0390   -0.1678    1.3971 C   0  0  0  0  0  0  0  0  0  0  0  0
   -0.4500   -0.2851    0.0098 C   0  0  0  0  0  0  0  0  0  0  0  0
   -1.1833    0.6203   -0.9470 C   0  0  0  0  0  0  0  0  0  0  0  0
    0.8987    0.0667    0.0209 O   0  0  0  0  0  0  0  0  0  0  0  0
    1.8507   -0.8491   -0.3569 C   0  0  0  0  0  0  0  0  0  0  0  0
    1.4827   -1.9934   -0.7074 O   0  0  0  0  0  0  0  0  0  0  0  0
    3.2914   -0.5258   -0.3625 C   0  0  0  0  0  0  0  0  0  0  0  0
    3.7233    0.7130    0.0142 C   0  0  0  0  0  0  0  0  0  0  0  0
    5.0774    1.0133    0.0078 C   0  0  0  0  0  0  0  0  0  0  0  0
    6.0216    0.0831   -0.3742 C   0  0  0  0  0  0  0  0  0  0  0  0
    5.5673   -1.1620   -0.7512 C   0  0  0  0  0  0  0  0  0  0  0  0
    6.4788   -2.0908   -1.1301 F   0  0  0  0  0  0  0  0  0  0  0  0
    4.2155   -1.4714   -0.7480 C   0  0  0  0  0  0  0  0  0  0  0  0
   -4.9242   -0.8265    0.7589 H   0  0  0  0  0  0  0  0  0  0  0  0
   -4.7035   -1.1745   -1.0403 H   0  0  0  0  0  0  0  0  0  0  0  0
   -4.1742   -2.3403    0.1964 H   0  0  0  0  0  0  0  0  0  0  0  0
   -3.1102    0.1993   -1.9025 H   0  0  0  0  0  0  0  0  0  0  0  0
   -4.3726    1.6746   -0.4050 H   0  0  0  0  0  0  0  0  0  0  0  0
   -2.7262    2.4683   -0.6405 H   0  0  0  0  0  0  0  0  0  0  0  0
   -2.1022    2.0058    1.5246 H   0  0  0  0  0  0  0  0  0  0  0  0
   -3.7769    1.5678    1.9114 H   0  0  0  0  0  0  0  0  0  0  0  0
   -3.0206   -0.6562    2.1248 H   0  0  0  0  0  0  0  0  0  0  0  0
   -0.6919   -0.9759    2.0564 H   0  0  0  0  0  0  0  0  0  0  0  0
   -0.6539    0.7860    1.8259 H   0  0  0  0  0  0  0  0  0  0  0  0
   -0.6357   -1.3321   -0.3226 H   0  0  0  0  0  0  0  0  0  0  0  0
   -0.9345    1.6723   -0.7560 H   0  0  0  0  0  0  0  0  0  0  0  0
   -0.8552    0.4022   -1.9891 H   0  0  0  0  0  0  0  0  0  0  0  0
    2.9983    1.4712    0.3220 H   0  0  0  0  0  0  0  0  0  0  0  0
    5.4447    1.9973    0.3051 H   0  0  0  0  0  0  0  0  0  0  0  0
    7.0867    0.3467   -0.3701 H   0  0  0  0  0  0  0  0  0  0  0  0
    3.8564   -2.4599   -1.0474 H   0  0  0  0  0  0  0  0  0  0  0  0
  1  2  1  0
  2  3  1  0
  3  4  1  0
  4  5  1  0
  5  6  1  0
  6  7  1  0
  7  8  1  0
  8  9  1  0
  8 10  1  0
 10 11  1  0
 11 12  2  0
 11 13  1  0
 13 14  2  0
 14 15  1  0
 15 16  2  0
 16 17  1  0
 17 18  1  0
 17 19  2  0
  6  2  1  0
 19 13  1  0
  9  3  1  0
  1 20  1  0
  1 21  1  0
  1 22  1  0
  3 23  1  0
  4 24  1  0
  4 25  1  0
  5 26  1  0
  5 27  1  0
  6 28  1  0
  7 29  1  0
  7 30  1  0
  8 31  1  0
  9 32  1  0
  9 33  1  0
 14 34  1  0
 15 35  1  0
 16 36  1  0
 19 37  1  0
M  END
$$$$
[H]c1nc([H])c(Cl)c(N([H])C(=O)OC([H])([H])c2c([H])c([H])c([H])c(C(=O)N(c3nc([H])c(Br)c([H])n3)C([H])([H])[H])c2[H])c1Cl
     RDKit          3D

 44 46  0  0  0  0  0  0  0  0999 V2000
    3.9669   -1.3537   -2.3480 C   0  0  0  0  0  0  0  0  0  0  0  0
    3.7197   -0.9079   -1.0108 N   0  0  0  0  0  0  0  0  0  0  0  0
    2.5590   -1.0016   -0.2780 C   0  0  0  0  0  0  0  0  0  0  0  0
    2.6641   -0.7937    1.0263 O   0  0  0  0  0  0  0  0  0  0  0  0
    1.2214   -1.3009   -0.7486 C   0  0  0  0  0  0  0  0  0  0  0  0
    0.8875   -1.3392   -2.0703 C   0  0  0  0  0  0  0  0  0  0  0  0
   -0.4222   -1.6720   -2.4517 C   0  0  0  0  0  0  0  0  0  0  0  0
   -1.3573   -1.9550   -1.4707 C   0  0  0  0  0  0  0  0  0  0  0  0
   -1.0375   -1.9186   -0.1392 C   0  0  0  0  0  0  0  0  0  0  0  0
   -2.0712   -2.2171    0.8932 C   0  0  0  0  0  0  0  0  0  0  0  0
   -3.1028   -1.3071    0.9678 O   0  0  0  0  0  0  0  0  0  0  0  0
   -2.9326    0.0905    1.2601 C   0  0  0  0  0  0  0  0  0  0  0  0
   -1.7005    0.3435    1.4426 O   0  0  0  0  0  0  0  0  0  0  0  0
   -3.9591    0.9117    1.3077 N   0  0  0  0  0  0  0  0  0  0  0  0
   -4.9835    1.8642    1.3790 C   0  0  0  0  0  0  0  0  0  0  0  0
   -5.0145    3.1355    1.8274 C   0  0  0  0  0  0  0  0  0  0  0  0
   -3.5752    3.8730    2.5069 Cl  0  0  0  0  0  0  0  0  0  0  0  0
   -6.1649    3.9317    1.7957 C   0  0  0  0  0  0  0  0  0  0  0  0
   -7.2907    3.4381    1.3064 N   0  0  0  0  0  0  0  0  0  0  0  0
   -7.3443    2.1887    0.8423 C   0  0  0  0  0  0  0  0  0  0  0  0
   -6.2274    1.3942    0.8657 C   0  0  0  0  0  0  0  0  0  0  0  0
   -6.3607   -0.2170    0.2373 Cl  0  0  0  0  0  0  0  0  0  0  0  0
    0.2406   -1.5954    0.2181 C   0  0  0  0  0  0  0  0  0  0  0  0
    4.8961   -0.3421   -0.3645 C   0  0  0  0  0  0  0  0  0  0  0  0
    5.3431    0.8587   -0.8405 N   0  0  0  0  0  0  0  0  0  0  0  0
    6.4495    1.4139   -0.2813 C   0  0  0  0  0  0  0  0  0  0  0  0
    7.1134    0.8040    0.7332 C   0  0  0  0  0  0  0  0  0  0  0  0
    8.6925    1.5538    1.5458 Br  0  0  0  0  0  0  0  0  0  0  0  0
    6.6406   -0.4032    1.1923 C   0  0  0  0  0  0  0  0  0  0  0  0
    5.5330   -0.9295    0.6111 N   0  0  0  0  0  0  0  0  0  0  0  0
    5.0839   -1.5935   -2.4786 H   0  0  0  0  0  0  0  0  0  0  0  0
    3.7500   -0.5899   -3.1151 H   0  0  0  0  0  0  0  0  0  0  0  0
    3.4515   -2.2997   -2.6065 H   0  0  0  0  0  0  0  0  0  0  0  0
    1.5379   -1.1007   -2.8893 H   0  0  0  0  0  0  0  0  0  0  0  0
   -0.6735   -1.7005   -3.4925 H   0  0  0  0  0  0  0  0  0  0  0  0
   -2.3866   -2.2168   -1.7692 H   0  0  0  0  0  0  0  0  0  0  0  0
   -2.5304   -3.1990    0.5710 H   0  0  0  0  0  0  0  0  0  0  0  0
   -1.5365   -2.4316    1.8486 H   0  0  0  0  0  0  0  0  0  0  0  0
   -3.0536    1.9529    1.4037 H   0  0  0  0  0  0  0  0  0  0  0  0
   -6.1182    4.9292    2.1650 H   0  0  0  0  0  0  0  0  0  0  0  0
   -8.3039    1.8348    0.4472 H   0  0  0  0  0  0  0  0  0  0  0  0
    0.4702   -1.5776    1.2869 H   0  0  0  0  0  0  0  0  0  0  0  0
    6.8127    2.3789   -0.6696 H   0  0  0  0  0  0  0  0  0  0  0  0
    7.1136   -0.9341    1.9801 H   0  0  0  0  0  0  0  0  0  0  0  0
  1  2  1  0
  2  3  1  0
  3  4  2  0
  3  5  1  0
  5  6  2  0
  6  7  1  0
  7  8  2  0
  8  9  1  0
  9 10  1  0
 10 11  1  0
 11 12  1  0
 12 13  2  0
 12 14  1  0
 14 15  1  0
 15 16  2  0
 16 17  1  0
 16 18  1  0
 18 19  2  0
 19 20  1  0
 20 21  2  0
 21 22  1  0
  9 23  2  0
  2 24  1  0
 24 25  2  0
 25 26  1  0
 26 27  2  0
 27 28  1  0
 27 29  1  0
 29 30  2  0
 23  5  1  0
 30 24  1  0
 21 15  1  0
  1 31  1  0
  1 32  1  0
  1 33  1  0
  6 34  1  0
  7 35  1  0
  8 36  1  0
 10 37  1  0
 10 38  1  0
 14 39  1  0
 18 40  1  0
 20 41  1  0
 23 42  1  0
 26 43  1  0
 29 44  1  0
M  END
$$$$
[H]OC(=O)[C@@]([H])(N([H])C(=O)c1sc(N([H])C(=O)c2c([H])c([H])c(Cl)c([H])c2Cl)nc1C([H])([H])[H])C([H])([H])O[H]
     RDKit          3D

 39 40  0  0  0  0  0  0  0  0999 V2000
   -1.6123   -1.0837   -2.7541 C   0  0  0  0  0  0  0  0  0  0  0  0
   -0.3368   -0.9184   -1.9318 C   0  0  0  0  0  0  0  0  0  0  0  0
    0.7992   -1.3569   -2.3941 N   0  0  0  0  0  0  0  0  0  0  0  0
    1.9067   -1.2187   -1.6911 C   0  0  0  0  0  0  0  0  0  0  0  0
    3.2398   -1.6380   -2.0362 N   0  0  0  0  0  0  0  0  0  0  0  0
    4.3545   -1.4564   -1.2479 C   0  0  0  0  0  0  0  0  0  0  0  0
    5.4675   -1.8728   -1.6622 O   0  0  0  0  0  0  0  0  0  0  0  0
    4.3177   -0.8082    0.0410 C   0  0  0  0  0  0  0  0  0  0  0  0
    4.1176   -1.5411    1.2118 C   0  0  0  0  0  0  0  0  0  0  0  0
    4.0954   -0.9588    2.4619 C   0  0  0  0  0  0  0  0  0  0  0  0
    4.2759    0.4030    2.5874 C   0  0  0  0  0  0  0  0  0  0  0  0
    4.2482    1.1526    4.1887 Cl  0  0  0  0  0  0  0  0  0  0  0  0
    4.4758    1.1586    1.4539 C   0  0  0  0  0  0  0  0  0  0  0  0
    4.4949    0.5612    0.2153 C   0  0  0  0  0  0  0  0  0  0  0  0
    4.7485    1.5319   -1.2057 Cl  0  0  0  0  0  0  0  0  0  0  0  0
    1.3459   -0.4301   -0.2963 S   0  0  0  0  0  0  0  0  0  0  0  0
   -0.3449   -0.3165   -0.7074 C   0  0  0  0  0  0  0  0  0  0  0  0
   -1.3924    0.2812    0.1133 C   0  0  0  0  0  0  0  0  0  0  0  0
   -1.0076    0.7667    1.2488 O   0  0  0  0  0  0  0  0  0  0  0  0
   -2.7424    0.4014   -0.1539 N   0  0  0  0  0  0  0  0  0  0  0  0
   -3.6934    1.0312    0.7686 C   0  0  1  0  0  0  0  0  0  0  0  0
   -4.2656    2.2523    0.0452 C   0  0  0  0  0  0  0  0  0  0  0  0
   -5.1831    2.8949    0.8821 O   0  0  0  0  0  0  0  0  0  0  0  0
   -4.8105    0.1140    1.0483 C   0  0  0  0  0  0  0  0  0  0  0  0
   -5.8248    0.4984    1.8928 O   0  0  0  0  0  0  0  0  0  0  0  0
   -4.8359   -1.0116    0.5186 O   0  0  0  0  0  0  0  0  0  0  0  0
   -1.9386   -0.0820   -3.0203 H   0  0  0  0  0  0  0  0  0  0  0  0
   -2.3260   -1.7483   -2.2725 H   0  0  0  0  0  0  0  0  0  0  0  0
   -1.3750   -1.5846   -3.7392 H   0  0  0  0  0  0  0  0  0  0  0  0
    3.3170   -2.1140   -2.9648 H   0  0  0  0  0  0  0  0  0  0  0  0
    3.9761   -2.6214    1.0896 H   0  0  0  0  0  0  0  0  0  0  0  0
    3.9384   -1.5536    3.3484 H   0  0  0  0  0  0  0  0  0  0  0  0
    4.6172    2.2366    1.5700 H   0  0  0  0  0  0  0  0  0  0  0  0
   -3.1804    0.0547   -1.0263 H   0  0  0  0  0  0  0  0  0  0  0  0
   -3.1561    1.3693    1.6616 H   0  0  0  0  0  0  0  0  0  0  0  0
   -4.7394    1.9331   -0.9103 H   0  0  0  0  0  0  0  0  0  0  0  0
   -3.4126    2.8956   -0.2159 H   0  0  0  0  0  0  0  0  0  0  0  0
   -4.8988    2.8030    1.8324 H   0  0  0  0  0  0  0  0  0  0  0  0
   -6.6598   -0.0500    2.0500 H   0  0  0  0  0  0  0  0  0  0  0  0
  1  2  1  0
  2  3  1  0
  3  4  2  0
  4  5  1  0
  5  6  1  0
  6  7  2  0
  6  8  1  0
  8  9  2  0
  9 10  1  0
 10 11  2  0
 11 12  1  0
 11 13  1  0
 13 14  2  0
 14 15  1  0
  4 16  1  0
 16 17  1  0
 17 18  1  0
 18 19  2  0
 18 20  1  0
 20 21  1  0
 21 22  1  0
 22 23  1  0
 21 24  1  0
 24 25  1  0
 24 26  2  0
 17  2  2  0
 14  8  1  0
  1 27  1  0
  1 28  1  0
  1 29  1  0
  5 30  1  0
  9 31  1  0
 10 32  1  0
 13 33  1  0
 20 34  1  0
 21 35  1  1
 22 36  1  0
 22 37  1  0
 23 38  1  0
 25 39  1  0
M  END
$$$$
[H]OC([H])([H])[C@@]([H])(C(=O)N([H])[C@]([H])(C([H])=S)C([H])([H])C([H])([H])C([H])([H])N=C(N([H])[H])N([H])[H])N([H])C(=O)[C@@]1([H])N(C(=O)[C@@]([H])(N([H])C(=O)[C@@]([H])(N([H])C(=O)[C@@]([H])(N([H])C(=O)C([H])([H])N([H])C(=O)C([H])([H])[H])C([H])([H])O[H])C([H])(C([H])([H])[H])C([H])([H])[H])C([H])([H])C([H])([H])C([H])([H])C([H])([H])N([H])[H])C([H])([H])C([H])([H])C1([H])[H]
     RDKit          3D

110110  0  0  0  0  0  0  0  0999 V2000
  -14.1675   -0.5830   -0.0271 C   0  0  0  0  0  0  0  0  0  0  0  0
  -13.1716   -1.6098    0.3437 C   0  0  0  0  0  0  0  0  0  0  0  0
  -13.4180   -2.8387    0.3841 O   0  0  0  0  0  0  0  0  0  0  0  0
  -11.8270   -1.1974    0.6916 N   0  0  0  0  0  0  0  0  0  0  0  0
  -10.8401   -2.1477    1.0601 C   0  0  0  0  0  0  0  0  0  0  0  0
   -9.4840   -1.6559    1.3636 C   0  0  0  0  0  0  0  0  0  0  0  0
   -8.6641   -2.5961    1.7487 O   0  0  0  0  0  0  0  0  0  0  0  0
   -9.0564   -0.3651    1.2790 N   0  0  0  0  0  0  0  0  0  0  0  0
   -7.8924    0.3870    1.5118 C   0  0  1  0  0  0  0  0  0  0  0  0
   -7.0301   -0.1674    2.6316 C   0  0  0  0  0  0  0  0  0  0  0  0
   -6.4893   -1.3916    2.4321 O   0  0  0  0  0  0  0  0  0  0  0  0
   -7.0671    0.5891    0.2848 C   0  0  0  0  0  0  0  0  0  0  0  0
   -7.3309    0.1247   -0.8407 O   0  0  0  0  0  0  0  0  0  0  0  0
   -5.8955    1.3613    0.4070 N   0  0  0  0  0  0  0  0  0  0  0  0
   -4.9664    1.6259   -0.7158 C   0  0  1  0  0  0  0  0  0  0  0  0
   -4.8934    3.0690   -0.9378 C   0  0  0  0  0  0  0  0  0  0  0  0
   -4.0299    3.5727   -2.0409 C   0  0  0  0  0  0  0  0  0  0  0  0
   -4.6463    3.9123    0.3117 C   0  0  0  0  0  0  0  0  0  0  0  0
   -3.7943    0.7924   -0.5904 C   0  0  0  0  0  0  0  0  0  0  0  0
   -3.9568   -0.1946    0.2707 O   0  0  0  0  0  0  0  0  0  0  0  0
   -2.5322    0.8381   -1.2155 N   0  0  0  0  0  0  0  0  0  0  0  0
   -1.5273   -0.1613   -0.9537 C   0  0  1  0  0  0  0  0  0  0  0  0
   -1.2222   -0.9956   -2.1529 C   0  0  0  0  0  0  0  0  0  0  0  0
   -0.7598   -0.3816   -3.3927 C   0  0  0  0  0  0  0  0  0  0  0  0
    0.4907    0.4132   -3.4020 C   0  0  0  0  0  0  0  0  0  0  0  0
    0.6793    0.8720   -4.8679 C   0  0  0  0  0  0  0  0  0  0  0  0
    0.7923   -0.2667   -5.7469 N   0  0  0  0  0  0  0  0  0  0  0  0
   -0.3908    0.2644   -0.1419 C   0  0  0  0  0  0  0  0  0  0  0  0
   -0.0084    1.4439   -0.1227 O   0  0  0  0  0  0  0  0  0  0  0  0
    0.3751   -0.6481    0.7020 N   0  0  0  0  0  0  0  0  0  0  0  0
   -0.0758   -2.0065    0.8853 C   0  0  0  0  0  0  0  0  0  0  0  0
    0.5696   -2.4242    2.2402 C   0  0  0  0  0  0  0  0  0  0  0  0
    1.8845   -1.7073    2.1583 C   0  0  0  0  0  0  0  0  0  0  0  0
    1.5801   -0.4534    1.4018 C   0  0  1  0  0  0  0  0  0  0  0  0
    2.7690   -0.1041    0.5142 C   0  0  0  0  0  0  0  0  0  0  0  0
    2.5912    0.4086   -0.5851 O   0  0  0  0  0  0  0  0  0  0  0  0
    3.9906   -0.4256    1.0714 N   0  0  0  0  0  0  0  0  0  0  0  0
    5.1970   -0.7414    1.6180 C   0  0  1  0  0  0  0  0  0  0  0  0
    5.7972   -1.9314    0.8668 C   0  0  0  0  0  0  0  0  0  0  0  0
    6.0162   -1.6230   -0.4583 O   0  0  0  0  0  0  0  0  0  0  0  0
    6.1958    0.3686    1.7694 C   0  0  0  0  0  0  0  0  0  0  0  0
    5.7745    1.5293    2.0910 O   0  0  0  0  0  0  0  0  0  0  0  0
    7.5794    0.1765    1.5734 N   0  0  0  0  0  0  0  0  0  0  0  0
    8.5070    1.2643    1.7476 C   0  0  1  0  0  0  0  0  0  0  0  0
    9.6320    1.0168    2.6568 C   0  0  0  0  0  0  0  0  0  0  0  0
   10.5838   -0.0808    2.4400 C   0  0  0  0  0  0  0  0  0  0  0  0
   11.3857   -0.1775    1.2170 C   0  0  0  0  0  0  0  0  0  0  0  0
   10.7199   -0.3766   -0.0228 N   0  0  0  0  0  0  0  0  0  0  0  0
   11.3406   -0.4432   -1.1583 C   0  0  0  0  0  0  0  0  0  0  0  0
   10.6122   -0.6403   -2.3550 N   0  0  0  0  0  0  0  0  0  0  0  0
   12.7407   -0.3155   -1.1943 N   0  0  0  0  0  0  0  0  0  0  0  0
    8.7622    1.9419    0.4696 C   0  0  0  0  0  0  0  0  0  0  0  0
    9.4282    3.2099    0.3510 S   0  0  0  0  0  0  0  0  0  0  0  0
  -14.8991   -0.4330    0.8185 H   0  0  0  0  0  0  0  0  0  0  0  0
  -14.6892   -0.8372   -0.9512 H   0  0  0  0  0  0  0  0  0  0  0  0
  -13.6462    0.3946   -0.1823 H   0  0  0  0  0  0  0  0  0  0  0  0
  -11.6716   -0.1889    0.6512 H   0  0  0  0  0  0  0  0  0  0  0  0
  -10.8144   -2.9722    0.3004 H   0  0  0  0  0  0  0  0  0  0  0  0
  -11.2091   -2.6139    2.0345 H   0  0  0  0  0  0  0  0  0  0  0  0
   -9.8738    0.3090    0.9147 H   0  0  0  0  0  0  0  0  0  0  0  0
   -8.2101    1.4050    1.9255 H   0  0  0  0  0  0  0  0  0  0  0  0
   -6.2184    0.5980    2.8281 H   0  0  0  0  0  0  0  0  0  0  0  0
   -7.6262   -0.1288    3.5984 H   0  0  0  0  0  0  0  0  0  0  0  0
   -6.3252   -1.8260    3.3105 H   0  0  0  0  0  0  0  0  0  0  0  0
   -5.6411    1.7825    1.3078 H   0  0  0  0  0  0  0  0  0  0  0  0
   -5.5547    1.1860   -1.6001 H   0  0  0  0  0  0  0  0  0  0  0  0
   -5.9579    3.3761   -1.2427 H   0  0  0  0  0  0  0  0  0  0  0  0
   -3.0200    3.9389   -1.7207 H   0  0  0  0  0  0  0  0  0  0  0  0
   -4.5037    4.4915   -2.5285 H   0  0  0  0  0  0  0  0  0  0  0  0
   -3.9509    2.8603   -2.9174 H   0  0  0  0  0  0  0  0  0  0  0  0
   -3.7014    3.6050    0.8048 H   0  0  0  0  0  0  0  0  0  0  0  0
   -4.4912    4.9856    0.0292 H   0  0  0  0  0  0  0  0  0  0  0  0
   -5.5035    3.8141    0.9787 H   0  0  0  0  0  0  0  0  0  0  0  0
   -2.3128    1.6052   -1.8590 H   0  0  0  0  0  0  0  0  0  0  0  0
   -2.1024   -0.9055   -0.2668 H   0  0  0  0  0  0  0  0  0  0  0  0
   -0.4512   -1.7567   -1.8394 H   0  0  0  0  0  0  0  0  0  0  0  0
   -2.1210   -1.6323   -2.4217 H   0  0  0  0  0  0  0  0  0  0  0  0
   -0.5451   -1.2563   -4.1016 H   0  0  0  0  0  0  0  0  0  0  0  0
   -1.5805    0.1444   -3.9753 H   0  0  0  0  0  0  0  0  0  0  0  0
    0.4775    1.3597   -2.8470 H   0  0  0  0  0  0  0  0  0  0  0  0
    1.3513   -0.2203   -3.1806 H   0  0  0  0  0  0  0  0  0  0  0  0
    1.6078    1.4568   -4.9355 H   0  0  0  0  0  0  0  0  0  0  0  0
   -0.2195    1.4532   -5.1885 H   0  0  0  0  0  0  0  0  0  0  0  0
    1.7722   -0.5113   -5.9888 H   0  0  0  0  0  0  0  0  0  0  0  0
    0.3113   -0.0537   -6.6461 H   0  0  0  0  0  0  0  0  0  0  0  0
   -1.1744   -1.9989    1.0900 H   0  0  0  0  0  0  0  0  0  0  0  0
    0.1676   -2.7278    0.1236 H   0  0  0  0  0  0  0  0  0  0  0  0
    0.6261   -3.5089    2.3349 H   0  0  0  0  0  0  0  0  0  0  0  0
   -0.0135   -1.9485    3.0499 H   0  0  0  0  0  0  0  0  0  0  0  0
    2.3279   -1.5092    3.1608 H   0  0  0  0  0  0  0  0  0  0  0  0
    2.5624   -2.3198    1.5192 H   0  0  0  0  0  0  0  0  0  0  0  0
    1.4395    0.4188    2.1021 H   0  0  0  0  0  0  0  0  0  0  0  0
    4.6632    0.0370   -0.0414 H   0  0  0  0  0  0  0  0  0  0  0  0
    5.1002   -1.1134    2.7064 H   0  0  0  0  0  0  0  0  0  0  0  0
    4.9920   -2.7338    0.8598 H   0  0  0  0  0  0  0  0  0  0  0  0
    6.6711   -2.2703    1.4234 H   0  0  0  0  0  0  0  0  0  0  0  0
    6.7071   -2.1197   -0.9159 H   0  0  0  0  0  0  0  0  0  0  0  0
    7.9225   -0.7643    1.2919 H   0  0  0  0  0  0  0  0  0  0  0  0
    7.8786    2.0957    2.3235 H   0  0  0  0  0  0  0  0  0  0  0  0
   10.1917    2.0043    2.7626 H   0  0  0  0  0  0  0  0  0  0  0  0
    9.2447    0.8661    3.7324 H   0  0  0  0  0  0  0  0  0  0  0  0
   11.3307   -0.1342    3.3080 H   0  0  0  0  0  0  0  0  0  0  0  0
   10.0790   -1.1096    2.5625 H   0  0  0  0  0  0  0  0  0  0  0  0
   12.0972   -1.0599    1.3375 H   0  0  0  0  0  0  0  0  0  0  0  0
   12.0562    0.7281    1.1208 H   0  0  0  0  0  0  0  0  0  0  0  0
    9.5612   -0.6630   -2.3970 H   0  0  0  0  0  0  0  0  0  0  0  0
   11.1055   -0.7702   -3.2534 H   0  0  0  0  0  0  0  0  0  0  0  0
   13.1966    0.5225   -0.8130 H   0  0  0  0  0  0  0  0  0  0  0  0
   13.3135   -1.0713   -1.6097 H   0  0  0  0  0  0  0  0  0  0  0  0
    8.4159    1.4657   -0.4594 H   0  0  0  0  0  0  0  0  0  0  0  0
  1  2  1  0
  2  3  2  0
  2  4  1  0
  4  5  1  0
  5  6  1  0
  6  7  2  0
  6  8  1  0
  8  9  1  0
  9 10  1  0
 10 11  1  0
  9 12  1  0
 12 13  2  0
 12 14  1  0
 14 15  1  0
 15 16  1  0
 16 17  1  0
 16 18  1  0
 15 19  1  0
 19 20  2  0
 19 21  1  0
 21 22  1  0
 22 23  1  0
 23 24  1  0
 24 25  1  0
 25 26  1  0
 26 27  1  0
 22 28  1  0
 28 29  2  0
 28 30  1  0
 30 31  1  0
 31 32  1  0
 32 33  1  0
 33 34  1  0
 34 35  1  0
 35 36  2  0
 35 37  1  0
 37 38  1  0
 38 39  1  0
 39 40  1  0
 38 41  1  0
 41 42  2  0
 41 43  1  0
 43 44  1  0
 44 45  1  0
 45 46  1  0
 46 47  1  0
 47 48  1  0
 48 49  2  3
 49 50  1  0
 49 51  1  0
 44 52  1  0
 52 53  2  0
 34 30  1  0
  1 54  1  0
  1 55  1  0
  1 56  1  0
  4 57  1  0
  5 58  1  0
  5 59  1  0
  8 60  1  0
  9 61  1  1
 10 62  1  0
 10 63  1  0
 11 64  1  0
 14 65  1  0
 15 66  1  6
 16 67  1  0
 17 68  1  0
 17 69  1  0
 17 70  1  0
 18 71  1  0
 18 72  1  0
 18 73  1  0
 21 74  1  0
 22 75  1  1
 23 76  1  0
 23 77  1  0
 24 78  1  0
 24 79  1  0
 25 80  1  0
 25 81  1  0
 26 82  1  0
 26 83  1  0
 27 84  1  0
 27 85  1  0
 31 86  1  0
 31 87  1  0
 32 88  1  0
 32 89  1  0
 33 90  1  0
 33 91  1  0
 34 92  1  1
 37 93  1  0
 38 94  1  1
 39 95  1  0
 39 96  1  0
 40 97  1  0
 43 98  1  0
 44 99  1  1
 45100  1  0
 45101  1  0
 46102  1  0
 46103  1  0
 47104  1  0
 47105  1  0
 50106  1  0
 50107  1  0
 51108  1  0
 51109  1  0
 52110  1  0
M  END
$$$$
[H]c1c([H])c([H])c(N([H])C(=O)O[C@]2([H])C([H])([H])N3C([H])([H])C([H])([H])C2([H])C3([H])[H])c(SC([H])([H])[H])c1[H]
     RDKit          3D

 37 39  0  0  0  0  0  0  0  0999 V2000
    3.1418    2.8844   -2.3254 C   0  0  0  0  0  0  0  0  0  0  0  0
    3.3873    1.1007   -2.4741 S   0  0  0  0  0  0  0  0  0  0  0  0
    3.7941    0.3425   -0.9248 C   0  0  0  0  0  0  0  0  0  0  0  0
    5.1106    0.2319   -0.5530 C   0  0  0  0  0  0  0  0  0  0  0  0
    5.4710   -0.3437    0.6293 C   0  0  0  0  0  0  0  0  0  0  0  0
    4.4912   -0.8155    1.4503 C   0  0  0  0  0  0  0  0  0  0  0  0
    3.1486   -0.6972    1.0601 C   0  0  0  0  0  0  0  0  0  0  0  0
    2.7710   -0.1248   -0.1178 C   0  0  0  0  0  0  0  0  0  0  0  0
    1.4422   -0.0060   -0.5073 N   0  0  0  0  0  0  0  0  0  0  0  0
    0.2637   -0.4072    0.1508 C   0  0  0  0  0  0  0  0  0  0  0  0
    0.2599   -0.9660    1.2573 O   0  0  0  0  0  0  0  0  0  0  0  0
   -1.0029   -0.1991   -0.4084 O   0  0  0  0  0  0  0  0  0  0  0  0
   -2.1720   -0.5917    0.2337 C   0  0  2  0  0  0  0  0  0  0  0  0
   -2.9543   -1.6411   -0.5359 C   0  0  0  0  0  0  0  0  0  0  0  0
   -4.3439   -1.2323   -0.2742 N   0  0  0  0  0  0  0  0  0  0  0  0
   -4.5893   -1.1990    1.1612 C   0  0  0  0  0  0  0  0  0  0  0  0
   -3.9969    0.1089    1.6672 C   0  0  0  0  0  0  0  0  0  0  0  0
   -3.1529    0.5014    0.4589 C   0  0  0  0  0  0  0  0  0  0  0  0
   -4.1966    0.1957   -0.6281 C   0  0  0  0  0  0  0  0  0  0  0  0
    4.0572    3.4436   -2.6004 H   0  0  0  0  0  0  0  0  0  0  0  0
    2.8674    3.1494   -1.2801 H   0  0  0  0  0  0  0  0  0  0  0  0
    2.3078    3.1570   -3.0013 H   0  0  0  0  0  0  0  0  0  0  0  0
    5.9271    0.6026   -1.1925 H   0  0  0  0  0  0  0  0  0  0  0  0
    6.5085   -0.4329    0.9263 H   0  0  0  0  0  0  0  0  0  0  0  0
    4.7262   -1.2816    2.4008 H   0  0  0  0  0  0  0  0  0  0  0  0
    2.4474   -1.0898    1.7565 H   0  0  0  0  0  0  0  0  0  0  0  0
    1.3047    0.4761   -1.4782 H   0  0  0  0  0  0  0  0  0  0  0  0
   -1.9260   -1.0771    1.2240 H   0  0  0  0  0  0  0  0  0  0  0  0
   -2.7499   -2.6581   -0.2018 H   0  0  0  0  0  0  0  0  0  0  0  0
   -2.8314   -1.5069   -1.6421 H   0  0  0  0  0  0  0  0  0  0  0  0
   -5.6656   -1.2530    1.3620 H   0  0  0  0  0  0  0  0  0  0  0  0
   -4.0377   -2.0219    1.6702 H   0  0  0  0  0  0  0  0  0  0  0  0
   -4.7525    0.8871    1.8088 H   0  0  0  0  0  0  0  0  0  0  0  0
   -3.3561   -0.0535    2.5604 H   0  0  0  0  0  0  0  0  0  0  0  0
   -2.8017    1.5063    0.4575 H   0  0  0  0  0  0  0  0  0  0  0  0
   -3.7709    0.2669   -1.6279 H   0  0  0  0  0  0  0  0  0  0  0  0
   -5.1271    0.7440   -0.4619 H   0  0  0  0  0  0  0  0  0  0  0  0
  1  2  1  0
  2  3  1  0
  3  4  2  0
  4  5  1  0
  5  6  2  0
  6  7  1  0
  7  8  2  0
  8  9  1  0
  9 10  1  0
 10 11  2  0
 10 12  1  0
 12 13  1  0
 13 14  1  0
 14 15  1  0
 15 16  1  0
 16 17  1  0
 17 18  1  0
 18 19  1  0
  8  3  1  0
 18 13  1  0
 19 15  1  0
  1 20  1  0
  1 21  1  0
  1 22  1  0
  4 23  1  0
  5 24  1  0
  6 25  1  0
  7 26  1  0
  9 27  1  0
 13 28  1  1
 14 29  1  0
 14 30  1  0
 16 31  1  0
 16 32  1  0
 17 33  1  0
 17 34  1  0
 18 35  1  0
 19 36  1  0
 19 37  1  0
M  END
$$$$
[H]O[C@@]1(C([H])([H])[H])C([H])([H])C([H])([H])[C@@]2([H])[C@@]3([H])C(=C4C(=C([H])C(=O)C([H])([H])C4([H])[H])C([H])([H])C3([H])[H])[C@@]12[H]
     RDKit          3D

 38 41  0  0  0  0  0  0  0  0999 V2000
    2.9817    1.6509    0.8613 C   0  0  0  0  0  0  0  0  0  0  0  0
    2.0654    0.4386    0.8656 C   0  0  2  0  0  0  0  0  0  0  0  0
    1.2420    0.5770    1.9705 O   0  0  0  0  0  0  0  0  0  0  0  0
    2.9615   -0.7746    1.0928 C   0  0  0  0  0  0  0  0  0  0  0  0
    2.5740   -1.8076    0.0873 C   0  0  0  0  0  0  0  0  0  0  0  0
    1.5454   -1.2045   -0.8417 C   0  0  1  0  0  0  0  0  0  0  0  0
    0.1296   -1.4524   -0.3853 C   0  0  2  0  0  0  0  0  0  0  0  0
   -0.8189   -2.0994   -1.3154 C   0  0  0  0  0  0  0  0  0  0  0  0
   -2.2609   -1.7476   -1.0148 C   0  0  0  0  0  0  0  0  0  0  0  0
   -2.4306   -0.3783   -0.5210 C   0  0  0  0  0  0  0  0  0  0  0  0
   -3.6259    0.0471   -0.0910 C   0  0  0  0  0  0  0  0  0  0  0  0
   -3.7254    1.4142    0.3834 C   0  0  0  0  0  0  0  0  0  0  0  0
   -4.8669    1.8683    0.6563 O   0  0  0  0  0  0  0  0  0  0  0  0
   -2.5280    2.2216    0.5328 C   0  0  0  0  0  0  0  0  0  0  0  0
   -1.4759    1.9918   -0.5675 C   0  0  0  0  0  0  0  0  0  0  0  0
   -1.2781    0.4954   -0.5191 C   0  0  0  0  0  0  0  0  0  0  0  0
   -0.0594    0.0159   -0.4567 C   0  0  0  0  0  0  0  0  0  0  0  0
    1.4015    0.2684   -0.4222 C   0  0  1  0  0  0  0  0  0  0  0  0
    3.8633    1.3662    0.2395 H   0  0  0  0  0  0  0  0  0  0  0  0
    3.3485    1.9189    1.8553 H   0  0  0  0  0  0  0  0  0  0  0  0
    2.4552    2.5012    0.3523 H   0  0  0  0  0  0  0  0  0  0  0  0
    0.9320    1.5086    2.1046 H   0  0  0  0  0  0  0  0  0  0  0  0
    2.9102   -1.1270    2.1472 H   0  0  0  0  0  0  0  0  0  0  0  0
    4.0366   -0.5260    0.9184 H   0  0  0  0  0  0  0  0  0  0  0  0
    2.1110   -2.6597    0.6528 H   0  0  0  0  0  0  0  0  0  0  0  0
    3.4314   -2.2304   -0.4806 H   0  0  0  0  0  0  0  0  0  0  0  0
    1.7214   -1.3526   -1.9098 H   0  0  0  0  0  0  0  0  0  0  0  0
    0.1116   -1.8899    0.6277 H   0  0  0  0  0  0  0  0  0  0  0  0
   -0.5722   -1.8437   -2.3625 H   0  0  0  0  0  0  0  0  0  0  0  0
   -0.7541   -3.2187   -1.2167 H   0  0  0  0  0  0  0  0  0  0  0  0
   -2.7967   -1.9050   -2.0006 H   0  0  0  0  0  0  0  0  0  0  0  0
   -2.7186   -2.5126   -0.3515 H   0  0  0  0  0  0  0  0  0  0  0  0
   -4.5071   -0.5735   -0.0816 H   0  0  0  0  0  0  0  0  0  0  0  0
   -2.7058    3.3113    0.6059 H   0  0  0  0  0  0  0  0  0  0  0  0
   -2.0289    1.9346    1.4988 H   0  0  0  0  0  0  0  0  0  0  0  0
   -0.5901    2.5401   -0.1943 H   0  0  0  0  0  0  0  0  0  0  0  0
   -1.9048    2.3394   -1.5002 H   0  0  0  0  0  0  0  0  0  0  0  0
    1.8262    0.8940   -1.2197 H   0  0  0  0  0  0  0  0  0  0  0  0
  1  2  1  0
  2  3  1  1
  2  4  1  0
  4  5  1  0
  5  6  1  0
  6  7  1  0
  7  8  1  0
  8  9  1  0
  9 10  1  0
 10 11  2  0
 11 12  1  0
 12 13  2  0
 12 14  1  0
 14 15  1  0
 15 16  1  0
 16 17  2  0
 17 18  1  0
 18  2  1  0
 18  6  1  0
 17  7  1  0
 16 10  1  0
  1 19  1  0
  1 20  1  0
  1 21  1  0
  3 22  1  0
  4 23  1  0
  4 24  1  0
  5 25  1  0
  5 26  1  0
  6 27  1  6
  7 28  1  1
  8 29  1  0
  8 30  1  0
  9 31  1  0
  9 32  1  0
 11 33  1  0
 14 34  1  0
 14 35  1  0
 15 36  1  0
 15 37  1  0
 18 38  1  6
M  END
$$$$
[H]c1nn(C2([H])C([H])([H])C([H])([H])C([H])([H])C([H])([H])C2([H])[H])c([H])c1-c1nn([H])c2c([H])c(OC([H])([H])C([H])([H])C([H])([H])N(C([H])([H])[H])C([H])([H])c3c([H])c([H])c([H])c([H])c3[H])c([H])c([H])c12
     RDKit          3D

 66 70  0  0  0  0  0  0  0  0999 V2000
    5.8527    0.1708   -1.6229 C   0  0  0  0  0  0  0  0  0  0  0  0
    5.3393    0.5543   -0.3733 N   0  0  0  0  0  0  0  0  0  0  0  0
    4.0462    1.0929   -0.2872 C   0  0  0  0  0  0  0  0  0  0  0  0
    3.0300   -0.0114   -0.6217 C   0  0  0  0  0  0  0  0  0  0  0  0
    3.1441   -1.1536    0.3298 C   0  0  0  0  0  0  0  0  0  0  0  0
    2.2537   -2.1666    0.0869 O   0  0  0  0  0  0  0  0  0  0  0  0
    0.9051   -2.2459    0.1091 C   0  0  0  0  0  0  0  0  0  0  0  0
    0.0605   -1.2101    0.4410 C   0  0  0  0  0  0  0  0  0  0  0  0
   -1.3276   -1.4120    0.4251 C   0  0  0  0  0  0  0  0  0  0  0  0
   -1.8904   -2.6153    0.0888 C   0  0  0  0  0  0  0  0  0  0  0  0
   -3.1727   -3.0999   -0.0129 C   0  0  0  0  0  0  0  0  0  0  0  0
   -3.0674   -4.3979   -0.3981 N   0  0  0  0  0  0  0  0  0  0  0  0
   -1.7894   -4.7116   -0.5309 N   0  0  0  0  0  0  0  0  0  0  0  0
   -1.0291   -3.6431   -0.2407 C   0  0  0  0  0  0  0  0  0  0  0  0
    0.3239   -3.4644   -0.2309 C   0  0  0  0  0  0  0  0  0  0  0  0
   -4.3704   -2.3252    0.2552 C   0  0  0  0  0  0  0  0  0  0  0  0
   -5.4355   -2.8187    1.0122 C   0  0  0  0  0  0  0  0  0  0  0  0
   -6.3533   -1.8672    1.0617 N   0  0  0  0  0  0  0  0  0  0  0  0
   -5.9618   -0.7842    0.3887 N   0  0  0  0  0  0  0  0  0  0  0  0
   -4.7431   -1.0673   -0.1063 C   0  0  0  0  0  0  0  0  0  0  0  0
   -6.7622    0.4122    0.2711 C   0  0  0  0  0  0  0  0  0  0  0  0
   -5.9573    1.6733    0.2417 C   0  0  0  0  0  0  0  0  0  0  0  0
   -6.8457    2.8337   -0.0649 C   0  0  0  0  0  0  0  0  0  0  0  0
   -8.3146    2.5318    0.0777 C   0  0  0  0  0  0  0  0  0  0  0  0
   -8.7598    1.3689   -0.7578 C   0  0  0  0  0  0  0  0  0  0  0  0
   -7.6456    0.3717   -0.9739 C   0  0  0  0  0  0  0  0  0  0  0  0
    6.1367    0.4501    0.7786 C   0  0  0  0  0  0  0  0  0  0  0  0
    7.3862    1.2234    0.7807 C   0  0  0  0  0  0  0  0  0  0  0  0
    8.5460    0.6106    0.3621 C   0  0  0  0  0  0  0  0  0  0  0  0
    9.7653    1.2618    0.3316 C   0  0  0  0  0  0  0  0  0  0  0  0
    9.8086    2.5689    0.7365 C   0  0  0  0  0  0  0  0  0  0  0  0
    8.6312    3.1864    1.1599 C   0  0  0  0  0  0  0  0  0  0  0  0
    7.4223    2.5177    1.1829 C   0  0  0  0  0  0  0  0  0  0  0  0
    5.3433    0.8043   -2.4108 H   0  0  0  0  0  0  0  0  0  0  0  0
    6.9407    0.1970   -1.7304 H   0  0  0  0  0  0  0  0  0  0  0  0
    5.4812   -0.8700   -1.8619 H   0  0  0  0  0  0  0  0  0  0  0  0
    3.8301    1.4247    0.7282 H   0  0  0  0  0  0  0  0  0  0  0  0
    3.8474    1.8824   -1.0561 H   0  0  0  0  0  0  0  0  0  0  0  0
    2.0460    0.3819   -0.8097 H   0  0  0  0  0  0  0  0  0  0  0  0
    3.3959   -0.4032   -1.6280 H   0  0  0  0  0  0  0  0  0  0  0  0
    2.9325   -0.7524    1.3607 H   0  0  0  0  0  0  0  0  0  0  0  0
    4.2016   -1.5351    0.3846 H   0  0  0  0  0  0  0  0  0  0  0  0
    0.4685   -0.2561    0.7247 H   0  0  0  0  0  0  0  0  0  0  0  0
   -1.9726   -0.5990    0.6845 H   0  0  0  0  0  0  0  0  0  0  0  0
   -1.3978   -5.6352   -0.8149 H   0  0  0  0  0  0  0  0  0  0  0  0
    0.9625   -4.2922   -0.4947 H   0  0  0  0  0  0  0  0  0  0  0  0
   -5.4771   -3.8005    1.4635 H   0  0  0  0  0  0  0  0  0  0  0  0
   -4.1414   -0.3950   -0.7062 H   0  0  0  0  0  0  0  0  0  0  0  0
   -7.4577    0.4801    1.1341 H   0  0  0  0  0  0  0  0  0  0  0  0
   -5.1294    1.6377   -0.4974 H   0  0  0  0  0  0  0  0  0  0  0  0
   -5.5169    1.7958    1.2727 H   0  0  0  0  0  0  0  0  0  0  0  0
   -6.6164    3.6846    0.6130 H   0  0  0  0  0  0  0  0  0  0  0  0
   -6.6935    3.2027   -1.1163 H   0  0  0  0  0  0  0  0  0  0  0  0
   -8.8569    3.4362   -0.3178 H   0  0  0  0  0  0  0  0  0  0  0  0
   -8.6371    2.4402    1.1342 H   0  0  0  0  0  0  0  0  0  0  0  0
   -9.6055    0.8606   -0.2325 H   0  0  0  0  0  0  0  0  0  0  0  0
   -9.1192    1.6909   -1.7595 H   0  0  0  0  0  0  0  0  0  0  0  0
   -7.0096    0.6027   -1.8356 H   0  0  0  0  0  0  0  0  0  0  0  0
   -8.1230   -0.6360   -1.0486 H   0  0  0  0  0  0  0  0  0  0  0  0
    6.3537   -0.6500    0.9414 H   0  0  0  0  0  0  0  0  0  0  0  0
    5.4858    0.7040    1.6632 H   0  0  0  0  0  0  0  0  0  0  0  0
    8.5676   -0.4287    0.0295 H   0  0  0  0  0  0  0  0  0  0  0  0
   10.6844    0.7789    0.0010 H   0  0  0  0  0  0  0  0  0  0  0  0
   10.7386    3.1308    0.7336 H   0  0  0  0  0  0  0  0  0  0  0  0
    8.7080    4.2127    1.4695 H   0  0  0  0  0  0  0  0  0  0  0  0
    6.5404    3.0713    1.5290 H   0  0  0  0  0  0  0  0  0  0  0  0
  1  2  1  0
  2  3  1  0
  3  4  1  0
  4  5  1  0
  5  6  1  0
  6  7  1  0
  7  8  2  0
  8  9  1  0
  9 10  2  0
 10 11  1  0
 11 12  2  0
 12 13  1  0
 13 14  1  0
 14 15  2  0
 11 16  1  0
 16 17  1  0
 17 18  2  0
 18 19  1  0
 19 20  1  0
 19 21  1  0
 21 22  1  0
 22 23  1  0
 23 24  1  0
 24 25  1  0
 25 26  1  0
  2 27  1  0
 27 28  1  0
 28 29  2  0
 29 30  1  0
 30 31  2  0
 31 32  1  0
 32 33  2  0
 15  7  1  0
 20 16  2  0
 26 21  1  0
 33 28  1  0
 14 10  1  0
  1 34  1  0
  1 35  1  0
  1 36  1  0
  3 37  1  0
  3 38  1  0
  4 39  1  0
  4 40  1  0
  5 41  1  0
  5 42  1  0
  8 43  1  0
  9 44  1  0
 13 45  1  0
 15 46  1  0
 17 47  1  0
 20 48  1  0
 21 49  1  0
 22 50  1  0
 22 51  1  0
 23 52  1  0
 23 53  1  0
 24 54  1  0
 24 55  1  0
 25 56  1  0
 25 57  1  0
 26 58  1  0
 26 59  1  0
 27 60  1  0
 27 61  1  0
 29 62  1  0
 30 63  1  0
 31 64  1  0
 32 65  1  0
 33 66  1  0
M  END
$$$$
[H]OC([H])([H])c1c([H])c([H])c(C([H])([H])[H])c(N([H])C(=O)N([H])c2c([H])c([H])c(N3C([H])([H])C([H])([H])C([H])(N4C([H])([H])C([H])([H])C([H])([H])C([H])([H])C4([H])[H])C([H])([H])C3([H])[H])c([H])c2[H])c1Cl
     RDKit          3D

 65 68  0  0  0  0  0  0  0  0999 V2000
    7.5779   -2.9600   -0.0644 C   0  0  0  0  0  0  0  0  0  0  0  0
    7.6761   -1.4582   -0.1181 C   0  0  0  0  0  0  0  0  0  0  0  0
    8.7623   -0.9052   -0.8058 C   0  0  0  0  0  0  0  0  0  0  0  0
    8.8911    0.4679   -0.8472 C   0  0  0  0  0  0  0  0  0  0  0  0
    7.9886    1.3240   -0.2349 C   0  0  0  0  0  0  0  0  0  0  0  0
    8.1350    2.8083   -0.2863 C   0  0  0  0  0  0  0  0  0  0  0  0
    9.2559    3.1910   -0.9947 O   0  0  0  0  0  0  0  0  0  0  0  0
    6.9486    0.7253    0.4214 C   0  0  0  0  0  0  0  0  0  0  0  0
    5.7655    1.7765    1.2094 Cl  0  0  0  0  0  0  0  0  0  0  0  0
    6.7779   -0.6584    0.4889 C   0  0  0  0  0  0  0  0  0  0  0  0
    5.6355   -1.1015    1.1606 N   0  0  0  0  0  0  0  0  0  0  0  0
    4.3517   -0.8626    0.5233 C   0  0  0  0  0  0  0  0  0  0  0  0
    4.2864   -0.3003   -0.5995 O   0  0  0  0  0  0  0  0  0  0  0  0
    3.1569   -1.2346    1.1413 N   0  0  0  0  0  0  0  0  0  0  0  0
    1.8828   -0.9933    0.5867 C   0  0  0  0  0  0  0  0  0  0  0  0
    1.0476   -0.1784    1.3666 C   0  0  0  0  0  0  0  0  0  0  0  0
   -0.2374    0.0848    0.9877 C   0  0  0  0  0  0  0  0  0  0  0  0
   -0.7791   -0.4451   -0.1866 C   0  0  0  0  0  0  0  0  0  0  0  0
    0.0388   -1.2389   -0.9457 C   0  0  0  0  0  0  0  0  0  0  0  0
    1.3676   -1.5106   -0.5618 C   0  0  0  0  0  0  0  0  0  0  0  0
   -2.1478   -0.1764   -0.4307 N   0  0  0  0  0  0  0  0  0  0  0  0
   -3.0667   -1.1175    0.2112 C   0  0  0  0  0  0  0  0  0  0  0  0
   -4.3007   -0.4422    0.7062 C   0  0  0  0  0  0  0  0  0  0  0  0
   -4.8460    0.3733   -0.4782 C   0  0  0  0  0  0  0  0  0  0  0  0
   -3.9048    1.5115   -0.6940 C   0  0  0  0  0  0  0  0  0  0  0  0
   -2.5794    0.9204   -1.2198 C   0  0  0  0  0  0  0  0  0  0  0  0
   -6.2041    0.6856   -0.2675 N   0  0  0  0  0  0  0  0  0  0  0  0
   -7.1072    0.5861   -1.3407 C   0  0  0  0  0  0  0  0  0  0  0  0
   -8.4505    0.0975   -0.8595 C   0  0  0  0  0  0  0  0  0  0  0  0
   -8.4183   -0.3933    0.5619 C   0  0  0  0  0  0  0  0  0  0  0  0
   -7.8253    0.6444    1.4950 C   0  0  0  0  0  0  0  0  0  0  0  0
   -6.5941    1.3120    0.9264 C   0  0  0  0  0  0  0  0  0  0  0  0
    6.6858   -3.2499   -0.6449 H   0  0  0  0  0  0  0  0  0  0  0  0
    7.4126   -3.2482    1.0016 H   0  0  0  0  0  0  0  0  0  0  0  0
    8.5010   -3.4107   -0.4578 H   0  0  0  0  0  0  0  0  0  0  0  0
    9.4677   -1.5932   -1.2781 H   0  0  0  0  0  0  0  0  0  0  0  0
    9.7259    0.8986   -1.3837 H   0  0  0  0  0  0  0  0  0  0  0  0
    7.2225    3.2765   -0.7421 H   0  0  0  0  0  0  0  0  0  0  0  0
    8.2038    3.2344    0.7575 H   0  0  0  0  0  0  0  0  0  0  0  0
    9.1078    3.0979   -1.9788 H   0  0  0  0  0  0  0  0  0  0  0  0
    5.6563   -1.5716    2.0602 H   0  0  0  0  0  0  0  0  0  0  0  0
    3.1814   -1.7357    2.0894 H   0  0  0  0  0  0  0  0  0  0  0  0
    1.4544    0.2586    2.2888 H   0  0  0  0  0  0  0  0  0  0  0  0
   -0.8440    0.7249    1.6013 H   0  0  0  0  0  0  0  0  0  0  0  0
   -0.3543   -1.6601   -1.8567 H   0  0  0  0  0  0  0  0  0  0  0  0
    1.9901   -2.1609   -1.1978 H   0  0  0  0  0  0  0  0  0  0  0  0
   -3.3053   -1.9666   -0.4443 H   0  0  0  0  0  0  0  0  0  0  0  0
   -2.5325   -1.5022    1.1209 H   0  0  0  0  0  0  0  0  0  0  0  0
   -3.9898    0.2449    1.5263 H   0  0  0  0  0  0  0  0  0  0  0  0
   -5.0619   -1.1417    1.0267 H   0  0  0  0  0  0  0  0  0  0  0  0
   -4.7818   -0.2991   -1.3699 H   0  0  0  0  0  0  0  0  0  0  0  0
   -4.2600    2.2381   -1.4585 H   0  0  0  0  0  0  0  0  0  0  0  0
   -3.6730    1.9559    0.2858 H   0  0  0  0  0  0  0  0  0  0  0  0
   -2.8203    0.5775   -2.2465 H   0  0  0  0  0  0  0  0  0  0  0  0
   -1.8241    1.7304   -1.3190 H   0  0  0  0  0  0  0  0  0  0  0  0
   -7.2866    1.5778   -1.8636 H   0  0  0  0  0  0  0  0  0  0  0  0
   -6.6759   -0.0794   -2.1227 H   0  0  0  0  0  0  0  0  0  0  0  0
   -8.7551   -0.7756   -1.4915 H   0  0  0  0  0  0  0  0  0  0  0  0
   -9.2529    0.8491   -1.0120 H   0  0  0  0  0  0  0  0  0  0  0  0
   -7.9253   -1.3671    0.6317 H   0  0  0  0  0  0  0  0  0  0  0  0
   -9.4744   -0.5492    0.8757 H   0  0  0  0  0  0  0  0  0  0  0  0
   -7.5864    0.0894    2.4409 H   0  0  0  0  0  0  0  0  0  0  0  0
   -8.6380    1.3654    1.7332 H   0  0  0  0  0  0  0  0  0  0  0  0
   -5.7508    1.2744    1.6572 H   0  0  0  0  0  0  0  0  0  0  0  0
   -6.9014    2.3854    0.7540 H   0  0  0  0  0  0  0  0  0  0  0  0
  1  2  1  0
  2  3  2  0
  3  4  1  0
  4  5  2  0
  5  6  1  0
  6  7  1  0
  5  8  1  0
  8  9  1  0
  8 10  2  0
 10 11  1  0
 11 12  1  0
 12 13  2  0
 12 14  1  0
 14 15  1  0
 15 16  2  0
 16 17  1  0
 17 18  2  0
 18 19  1  0
 19 20  2  0
 18 21  1  0
 21 22  1  0
 22 23  1  0
 23 24  1  0
 24 25  1  0
 25 26  1  0
 24 27  1  0
 27 28  1  0
 28 29  1  0
 29 30  1  0
 30 31  1  0
 31 32  1  0
 10  2  1  0
 20 15  1  0
 26 21  1  0
 32 27  1  0
  1 33  1  0
  1 34  1  0
  1 35  1  0
  3 36  1  0
  4 37  1  0
  6 38  1  0
  6 39  1  0
  7 40  1  0
 11 41  1  0
 14 42  1  0
 16 43  1  0
 17 44  1  0
 19 45  1  0
 20 46  1  0
 22 47  1  0
 22 48  1  0
 23 49  1  0
 23 50  1  0
 24 51  1  0
 25 52  1  0
 25 53  1  0
 26 54  1  0
 26 55  1  0
 28 56  1  0
 28 57  1  0
 29 58  1  0
 29 59  1  0
 30 60  1  0
 30 61  1  0
 31 62  1  0
 31 63  1  0
 32 64  1  0
 32 65  1  0
M  END
$$$$
