[H]OC(=O)C1([H])C([H])([H])N(C([H])([H])c2nc([H])c([H])c([H])c2C([H])([H])[H])C([H])([H])C([H])([H])C12C(=O)N(c1c([H])c([H])c(-c3c([H])c([H])c([H])c([H])c3[H])c([H])c1[H])C(=O)N2c1nc([H])nc(OC([H])([H])[H])c1[H]
     RDKit          3D

 73 78  0  0  0  0  0  0  0  0999 V2000
    0.3504    8.0987    0.1954 C   0  0  0  0  0  0  0  0  0  0  0  0
    0.4788    6.7117    0.3357 O   0  0  0  0  0  0  0  0  0  0  0  0
   -0.0909    5.7880   -0.5447 C   0  0  0  0  0  0  0  0  0  0  0  0
    0.0969    4.4454   -0.3194 C   0  0  0  0  0  0  0  0  0  0  0  0
   -0.4322    3.4614   -1.1458 C   0  0  0  0  0  0  0  0  0  0  0  0
   -1.1510    3.8650   -2.1973 N   0  0  0  0  0  0  0  0  0  0  0  0
   -1.3497    5.1797   -2.4392 C   0  0  0  0  0  0  0  0  0  0  0  0
   -0.8223    6.1399   -1.6169 N   0  0  0  0  0  0  0  0  0  0  0  0
   -0.1311    2.0931   -0.8350 N   0  0  0  0  0  0  0  0  0  0  0  0
    1.2236    1.5735   -1.0584 C   0  0  0  0  0  0  0  0  0  0  0  0
    2.0572    2.0647   -1.8737 O   0  0  0  0  0  0  0  0  0  0  0  0
    1.3908    0.4602   -0.2086 N   0  0  0  0  0  0  0  0  0  0  0  0
    0.2062    0.2763    0.5099 C   0  0  0  0  0  0  0  0  0  0  0  0
    0.0252   -0.3397    1.6016 O   0  0  0  0  0  0  0  0  0  0  0  0
   -0.8673    0.9945   -0.3147 C   0  0  0  0  0  0  0  0  0  0  0  0
   -1.1752    0.0867   -1.4888 C   0  0  0  0  0  0  0  0  0  0  0  0
   -2.1899   -0.9744   -1.2112 C   0  0  0  0  0  0  0  0  0  0  0  0
   -2.4215   -1.1288    0.1625 N   0  0  0  0  0  0  0  0  0  0  0  0
   -3.1185   -2.2868    0.5414 C   0  0  0  0  0  0  0  0  0  0  0  0
   -4.5273   -2.4110    0.1183 C   0  0  0  0  0  0  0  0  0  0  0  0
   -5.1138   -1.4259   -0.5562 N   0  0  0  0  0  0  0  0  0  0  0  0
   -6.3984   -1.5107   -0.9262 C   0  0  0  0  0  0  0  0  0  0  0  0
   -7.1617   -2.6039   -0.6300 C   0  0  0  0  0  0  0  0  0  0  0  0
   -6.5585   -3.6422    0.0773 C   0  0  0  0  0  0  0  0  0  0  0  0
   -5.2395   -3.5506    0.4538 C   0  0  0  0  0  0  0  0  0  0  0  0
   -4.5861   -4.6678    1.2148 C   0  0  0  0  0  0  0  0  0  0  0  0
   -2.7306    0.0037    0.9469 C   0  0  0  0  0  0  0  0  0  0  0  0
   -2.0260    1.2886    0.5618 C   0  0  0  0  0  0  0  0  0  0  0  0
   -3.0162    2.1653   -0.0211 C   0  0  0  0  0  0  0  0  0  0  0  0
   -3.7171    1.8059   -1.1522 O   0  0  0  0  0  0  0  0  0  0  0  0
   -3.2886    3.3071    0.4843 O   0  0  0  0  0  0  0  0  0  0  0  0
    2.5839   -0.3265   -0.0651 C   0  0  0  0  0  0  0  0  0  0  0  0
    2.8572   -1.4321   -0.8062 C   0  0  0  0  0  0  0  0  0  0  0  0
    4.0527   -2.0964   -0.6115 C   0  0  0  0  0  0  0  0  0  0  0  0
    4.9800   -1.6685    0.3169 C   0  0  0  0  0  0  0  0  0  0  0  0
    4.6724   -0.5462    1.0523 C   0  0  0  0  0  0  0  0  0  0  0  0
    3.4973    0.1153    0.8678 C   0  0  0  0  0  0  0  0  0  0  0  0
    6.2475   -2.3488    0.5259 C   0  0  0  0  0  0  0  0  0  0  0  0
    6.8385   -2.3379    1.7925 C   0  0  0  0  0  0  0  0  0  0  0  0
    8.0435   -2.9644    2.0425 C   0  0  0  0  0  0  0  0  0  0  0  0
    8.6508   -3.6080    0.9910 C   0  0  0  0  0  0  0  0  0  0  0  0
    8.0738   -3.6243   -0.2648 C   0  0  0  0  0  0  0  0  0  0  0  0
    6.8746   -3.0015   -0.5158 C   0  0  0  0  0  0  0  0  0  0  0  0
    0.2898    8.2984   -0.8991 H   0  0  0  0  0  0  0  0  0  0  0  0
    1.2350    8.6164    0.6413 H   0  0  0  0  0  0  0  0  0  0  0  0
   -0.5576    8.4654    0.6786 H   0  0  0  0  0  0  0  0  0  0  0  0
    0.6956    4.1629    0.5621 H   0  0  0  0  0  0  0  0  0  0  0  0
   -1.9243    5.5359   -3.2751 H   0  0  0  0  0  0  0  0  0  0  0  0
   -0.1906   -0.3428   -1.8034 H   0  0  0  0  0  0  0  0  0  0  0  0
   -1.4796    0.7206   -2.3729 H   0  0  0  0  0  0  0  0  0  0  0  0
   -1.7225   -1.9621   -1.5636 H   0  0  0  0  0  0  0  0  0  0  0  0
   -3.0805   -0.8803   -1.8458 H   0  0  0  0  0  0  0  0  0  0  0  0
   -2.5362   -3.1791    0.1375 H   0  0  0  0  0  0  0  0  0  0  0  0
   -3.0663   -2.4461    1.6685 H   0  0  0  0  0  0  0  0  0  0  0  0
   -6.8100   -0.6786   -1.4695 H   0  0  0  0  0  0  0  0  0  0  0  0
   -8.1831   -2.6291   -0.9443 H   0  0  0  0  0  0  0  0  0  0  0  0
   -7.1288   -4.5062    0.3209 H   0  0  0  0  0  0  0  0  0  0  0  0
   -4.5829   -4.4889    2.3018 H   0  0  0  0  0  0  0  0  0  0  0  0
   -5.2144   -5.5789    1.0506 H   0  0  0  0  0  0  0  0  0  0  0  0
   -3.5457   -4.8353    0.8829 H   0  0  0  0  0  0  0  0  0  0  0  0
   -2.4203   -0.2249    2.0067 H   0  0  0  0  0  0  0  0  0  0  0  0
   -3.8427    0.1853    1.0483 H   0  0  0  0  0  0  0  0  0  0  0  0
   -1.6098    1.7941    1.4748 H   0  0  0  0  0  0  0  0  0  0  0  0
   -3.8291    2.4318   -1.9171 H   0  0  0  0  0  0  0  0  0  0  0  0
    2.1280   -1.7757   -1.5439 H   0  0  0  0  0  0  0  0  0  0  0  0
    4.2448   -2.9807   -1.2242 H   0  0  0  0  0  0  0  0  0  0  0  0
    5.3481   -0.1434    1.8066 H   0  0  0  0  0  0  0  0  0  0  0  0
    3.2685    1.0106    1.4678 H   0  0  0  0  0  0  0  0  0  0  0  0
    6.3593   -1.8355    2.6036 H   0  0  0  0  0  0  0  0  0  0  0  0
    8.4888   -2.9422    3.0405 H   0  0  0  0  0  0  0  0  0  0  0  0
    9.5961   -4.0934    1.2052 H   0  0  0  0  0  0  0  0  0  0  0  0
    8.5902   -4.1392   -1.0486 H   0  0  0  0  0  0  0  0  0  0  0  0
    6.3926   -2.9869   -1.4628 H   0  0  0  0  0  0  0  0  0  0  0  0
  1  2  1  0
  2  3  1  0
  3  4  2  0
  4  5  1  0
  5  6  2  0
  6  7  1  0
  7  8  2  0
  5  9  1  0
  9 10  1  0
 10 11  2  0
 10 12  1  0
 12 13  1  0
 13 14  2  0
 13 15  1  0
 15 16  1  0
 16 17  1  0
 17 18  1  0
 18 19  1  0
 19 20  1  0
 20 21  2  0
 21 22  1  0
 22 23  2  0
 23 24  1  0
 24 25  2  0
 25 26  1  0
 18 27  1  0
 27 28  1  0
 28 29  1  0
 29 30  1  0
 29 31  2  0
 12 32  1  0
 32 33  2  0
 33 34  1  0
 34 35  2  0
 35 36  1  0
 36 37  2  0
 35 38  1  0
 38 39  2  0
 39 40  1  0
 40 41  2  0
 41 42  1  0
 42 43  2  0
  8  3  1  0
 15  9  1  0
 28 15  1  0
 37 32  1  0
 43 38  1  0
 25 20  1  0
  1 44  1  0
  1 45  1  0
  1 46  1  0
  4 47  1  0
  7 48  1  0
 16 49  1  0
 16 50  1  0
 17 51  1  0
 17 52  1  0
 19 53  1  0
 19 54  1  0
 22 55  1  0
 23 56  1  0
 24 57  1  0
 26 58  1  0
 26 59  1  0
 26 60  1  0
 27 61  1  0
 27 62  1  0
 28 63  1  0
 30 64  1  0
 33 65  1  0
 34 66  1  0
 36 67  1  0
 37 68  1  0
 39 69  1  0
 40 70  1  0
 41 71  1  0
 42 72  1  0
 43 73  1  0
M  END
$$$$
[H]c1nc(C([H])([H])N2C([H])([H])C([H])([H])C3(C(=O)N(c4c([H])c([H])c(-n5nc([H])c([H])c5[H])c([H])c4[H])C(=O)N3c3nc([H])n([H])c(=O)c3[H])C([H])([H])C2([H])[H])c(C([H])([H])[H])c([H])c1[H]
     RDKit          3D

 64 69  0  0  0  0  0  0  0  0999 V2000
   -5.7923    1.3125    1.8064 C   0  0  0  0  0  0  0  0  0  0  0  0
   -5.3757    1.8527    0.4603 C   0  0  0  0  0  0  0  0  0  0  0  0
   -5.8843    3.0530    0.0138 C   0  0  0  0  0  0  0  0  0  0  0  0
   -5.5313    3.5820   -1.2074 C   0  0  0  0  0  0  0  0  0  0  0  0
   -4.6483    2.8581   -1.9617 C   0  0  0  0  0  0  0  0  0  0  0  0
   -4.1559    1.6909   -1.5234 N   0  0  0  0  0  0  0  0  0  0  0  0
   -4.4893    1.1620   -0.3368 C   0  0  0  0  0  0  0  0  0  0  0  0
   -3.9619   -0.1159    0.1659 C   0  0  0  0  0  0  0  0  0  0  0  0
   -3.0434   -0.7949   -0.6992 N   0  0  0  0  0  0  0  0  0  0  0  0
   -1.8622   -0.0778   -1.0311 C   0  0  0  0  0  0  0  0  0  0  0  0
   -0.7077   -1.0391   -1.2270 C   0  0  0  0  0  0  0  0  0  0  0  0
   -0.2816   -1.5402    0.1395 C   0  0  0  0  0  0  0  0  0  0  0  0
   -1.5170   -1.8638    0.8923 C   0  0  0  0  0  0  0  0  0  0  0  0
   -2.7107   -2.0623   -0.0486 C   0  0  0  0  0  0  0  0  0  0  0  0
    0.7239   -2.5674    0.0877 N   0  0  0  0  0  0  0  0  0  0  0  0
    1.9885   -1.8823   -0.1396 C   0  0  0  0  0  0  0  0  0  0  0  0
    3.0357   -2.3980   -0.6178 O   0  0  0  0  0  0  0  0  0  0  0  0
    1.8415   -0.5246    0.2710 N   0  0  0  0  0  0  0  0  0  0  0  0
    0.5055   -0.3989    0.7394 C   0  0  0  0  0  0  0  0  0  0  0  0
    0.0841    0.4833    1.4938 O   0  0  0  0  0  0  0  0  0  0  0  0
    2.8518    0.4901    0.2083 C   0  0  0  0  0  0  0  0  0  0  0  0
    2.9546    1.3852    1.2439 C   0  0  0  0  0  0  0  0  0  0  0  0
    3.9184    2.3731    1.2019 C   0  0  0  0  0  0  0  0  0  0  0  0
    4.7860    2.4695    0.1203 C   0  0  0  0  0  0  0  0  0  0  0  0
    4.6875    1.5647   -0.9332 C   0  0  0  0  0  0  0  0  0  0  0  0
    3.7243    0.6000   -0.8618 C   0  0  0  0  0  0  0  0  0  0  0  0
    5.7840    3.4804    0.0526 N   0  0  0  0  0  0  0  0  0  0  0  0
    5.6164    4.7430    0.4729 C   0  0  0  0  0  0  0  0  0  0  0  0
    6.8008    5.4117    0.2411 C   0  0  0  0  0  0  0  0  0  0  0  0
    7.6547    4.5135   -0.3205 C   0  0  0  0  0  0  0  0  0  0  0  0
    7.0068    3.3373   -0.4248 N   0  0  0  0  0  0  0  0  0  0  0  0
    0.6944   -3.9687    0.2053 C   0  0  0  0  0  0  0  0  0  0  0  0
    1.0372   -4.8375   -0.8231 C   0  0  0  0  0  0  0  0  0  0  0  0
    0.9942   -6.2040   -0.6453 C   0  0  0  0  0  0  0  0  0  0  0  0
    1.3066   -6.9656   -1.5791 O   0  0  0  0  0  0  0  0  0  0  0  0
    0.6177   -6.7164    0.5312 N   0  0  0  0  0  0  0  0  0  0  0  0
    0.2844   -5.8736    1.5295 C   0  0  0  0  0  0  0  0  0  0  0  0
    0.3254   -4.5319    1.3596 N   0  0  0  0  0  0  0  0  0  0  0  0
   -6.2211    2.1463    2.3719 H   0  0  0  0  0  0  0  0  0  0  0  0
   -4.9531    0.8912    2.3580 H   0  0  0  0  0  0  0  0  0  0  0  0
   -6.6313    0.5799    1.6445 H   0  0  0  0  0  0  0  0  0  0  0  0
   -6.5923    3.5815    0.6765 H   0  0  0  0  0  0  0  0  0  0  0  0
   -5.9704    4.5331   -1.4950 H   0  0  0  0  0  0  0  0  0  0  0  0
   -4.3709    3.2799   -2.9261 H   0  0  0  0  0  0  0  0  0  0  0  0
   -4.8625   -0.7809    0.3187 H   0  0  0  0  0  0  0  0  0  0  0  0
   -3.5175    0.0236    1.1646 H   0  0  0  0  0  0  0  0  0  0  0  0
   -1.6750    0.6617   -0.2238 H   0  0  0  0  0  0  0  0  0  0  0  0
   -1.9091    0.5069   -1.9741 H   0  0  0  0  0  0  0  0  0  0  0  0
   -1.0053   -1.8485   -1.8863 H   0  0  0  0  0  0  0  0  0  0  0  0
    0.1399   -0.4297   -1.6308 H   0  0  0  0  0  0  0  0  0  0  0  0
   -1.7632   -0.9619    1.5292 H   0  0  0  0  0  0  0  0  0  0  0  0
   -1.4576   -2.7306    1.5442 H   0  0  0  0  0  0  0  0  0  0  0  0
   -3.5454   -2.4020    0.6030 H   0  0  0  0  0  0  0  0  0  0  0  0
   -2.4187   -2.8102   -0.8060 H   0  0  0  0  0  0  0  0  0  0  0  0
    2.3164    1.3590    2.0986 H   0  0  0  0  0  0  0  0  0  0  0  0
    4.0161    3.0855    2.0052 H   0  0  0  0  0  0  0  0  0  0  0  0
    5.3467    1.6022   -1.8028 H   0  0  0  0  0  0  0  0  0  0  0  0
    3.6070   -0.1254   -1.6562 H   0  0  0  0  0  0  0  0  0  0  0  0
    4.7000    5.1498    0.9171 H   0  0  0  0  0  0  0  0  0  0  0  0
    6.9403    6.4549    0.4880 H   0  0  0  0  0  0  0  0  0  0  0  0
    8.6681    4.6927   -0.6321 H   0  0  0  0  0  0  0  0  0  0  0  0
    1.3385   -4.3821   -1.7571 H   0  0  0  0  0  0  0  0  0  0  0  0
    0.5742   -7.7537    0.7007 H   0  0  0  0  0  0  0  0  0  0  0  0
   -0.0168   -6.3235    2.4664 H   0  0  0  0  0  0  0  0  0  0  0  0
  1  2  1  0
  2  3  2  0
  3  4  1  0
  4  5  2  0
  5  6  1  0
  6  7  2  0
  7  8  1  0
  8  9  1  0
  9 10  1  0
 10 11  1  0
 11 12  1  0
 12 13  1  0
 13 14  1  0
 12 15  1  0
 15 16  1  0
 16 17  2  0
 16 18  1  0
 18 19  1  0
 19 20  2  0
 18 21  1  0
 21 22  2  0
 22 23  1  0
 23 24  2  0
 24 25  1  0
 25 26  2  0
 24 27  1  0
 27 28  1  0
 28 29  2  0
 29 30  1  0
 30 31  2  0
 15 32  1  0
 32 33  2  0
 33 34  1  0
 34 35  2  0
 34 36  1  0
 36 37  1  0
 37 38  2  0
  7  2  1  0
 14  9  1  0
 26 21  1  0
 31 27  1  0
 38 32  1  0
 19 12  1  0
  1 39  1  0
  1 40  1  0
  1 41  1  0
  3 42  1  0
  4 43  1  0
  5 44  1  0
  8 45  1  0
  8 46  1  0
 10 47  1  0
 10 48  1  0
 11 49  1  0
 11 50  1  0
 13 51  1  0
 13 52  1  0
 14 53  1  0
 14 54  1  0
 22 55  1  0
 23 56  1  0
 25 57  1  0
 26 58  1  0
 28 59  1  0
 29 60  1  0
 30 61  1  0
 33 62  1  0
 36 63  1  0
 37 64  1  0
M  END
$$$$
[H]c1nc(C([H])([H])N2C([H])([H])C([H])([H])C3(C(=O)N(c4c([H])c([H])c(-c5c([H])c([H])c([H])c([H])c5[H])c([H])c4[H])C(=O)N3c3nn([H])c(=O)c([H])c3[H])C([H])([H])C2([H])[H])c(C([H])([H])[H])c([H])c1[H]
     RDKit          3D

 67 72  0  0  0  0  0  0  0  0999 V2000
   -6.7947   -2.4637    0.8125 C   0  0  0  0  0  0  0  0  0  0  0  0
   -6.8153   -1.1337    0.1633 C   0  0  0  0  0  0  0  0  0  0  0  0
   -7.9661   -0.6587   -0.4025 C   0  0  0  0  0  0  0  0  0  0  0  0
   -7.9649    0.5789   -1.0005 C   0  0  0  0  0  0  0  0  0  0  0  0
   -6.7988    1.3001   -1.0088 C   0  0  0  0  0  0  0  0  0  0  0  0
   -5.7035    0.7910   -0.4427 N   0  0  0  0  0  0  0  0  0  0  0  0
   -5.6147   -0.3918    0.1552 C   0  0  0  0  0  0  0  0  0  0  0  0
   -4.4158   -0.9364    0.8028 C   0  0  0  0  0  0  0  0  0  0  0  0
   -3.2550   -0.0926    0.6940 N   0  0  0  0  0  0  0  0  0  0  0  0
   -2.1789   -0.5628    1.5141 C   0  0  0  0  0  0  0  0  0  0  0  0
   -0.8484   -0.7461    0.9333 C   0  0  0  0  0  0  0  0  0  0  0  0
   -0.4827    0.2268   -0.1441 C   0  0  0  0  0  0  0  0  0  0  0  0
   -1.5917    0.3006   -1.1359 C   0  0  0  0  0  0  0  0  0  0  0  0
   -2.9644    0.3794   -0.5935 C   0  0  0  0  0  0  0  0  0  0  0  0
   -0.0198    1.5066    0.3448 N   0  0  0  0  0  0  0  0  0  0  0  0
    1.4060    1.3534    0.5279 C   0  0  0  0  0  0  0  0  0  0  0  0
    2.1286    2.1158    1.2448 O   0  0  0  0  0  0  0  0  0  0  0  0
    1.8882    0.2344   -0.2028 N   0  0  0  0  0  0  0  0  0  0  0  0
    0.7382   -0.3044   -0.8424 C   0  0  0  0  0  0  0  0  0  0  0  0
    0.8007   -1.0915   -1.8276 O   0  0  0  0  0  0  0  0  0  0  0  0
    3.2327   -0.2232   -0.2617 C   0  0  0  0  0  0  0  0  0  0  0  0
    4.0252    0.0018   -1.3653 C   0  0  0  0  0  0  0  0  0  0  0  0
    5.3297   -0.4343   -1.4426 C   0  0  0  0  0  0  0  0  0  0  0  0
    5.9082   -1.1266   -0.4012 C   0  0  0  0  0  0  0  0  0  0  0  0
    5.1290   -1.3618    0.7144 C   0  0  0  0  0  0  0  0  0  0  0  0
    3.8104   -0.9157    0.7817 C   0  0  0  0  0  0  0  0  0  0  0  0
    7.2787   -1.6042   -0.4406 C   0  0  0  0  0  0  0  0  0  0  0  0
    7.5969   -2.7616    0.2388 C   0  0  0  0  0  0  0  0  0  0  0  0
    8.8798   -3.2715    0.2435 C   0  0  0  0  0  0  0  0  0  0  0  0
    9.8805   -2.6233   -0.4408 C   0  0  0  0  0  0  0  0  0  0  0  0
    9.5797   -1.4523   -1.1335 C   0  0  0  0  0  0  0  0  0  0  0  0
    8.2751   -0.9585   -1.1222 C   0  0  0  0  0  0  0  0  0  0  0  0
   -0.7666    2.6749    0.6008 C   0  0  0  0  0  0  0  0  0  0  0  0
   -1.0306    3.5998   -0.3761 C   0  0  0  0  0  0  0  0  0  0  0  0
   -1.7728    4.7405   -0.0749 C   0  0  0  0  0  0  0  0  0  0  0  0
   -2.2224    4.9024    1.2131 C   0  0  0  0  0  0  0  0  0  0  0  0
   -2.9083    5.9326    1.5428 O   0  0  0  0  0  0  0  0  0  0  0  0
   -1.9416    3.9731    2.1391 N   0  0  0  0  0  0  0  0  0  0  0  0
   -1.2459    2.9205    1.8213 N   0  0  0  0  0  0  0  0  0  0  0  0
   -6.8572   -2.2925    1.9043 H   0  0  0  0  0  0  0  0  0  0  0  0
   -5.9363   -3.0846    0.5392 H   0  0  0  0  0  0  0  0  0  0  0  0
   -7.7292   -3.0192    0.5294 H   0  0  0  0  0  0  0  0  0  0  0  0
   -8.8848   -1.2436   -0.3883 H   0  0  0  0  0  0  0  0  0  0  0  0
   -8.8912    0.9625   -1.4562 H   0  0  0  0  0  0  0  0  0  0  0  0
   -6.7834    2.2830   -1.4793 H   0  0  0  0  0  0  0  0  0  0  0  0
   -4.6510   -0.9922    1.9073 H   0  0  0  0  0  0  0  0  0  0  0  0
   -4.2229   -1.9763    0.4687 H   0  0  0  0  0  0  0  0  0  0  0  0
   -2.5056   -1.5637    1.9369 H   0  0  0  0  0  0  0  0  0  0  0  0
   -2.1934    0.0927    2.4368 H   0  0  0  0  0  0  0  0  0  0  0  0
   -0.6776   -1.7899    0.5933 H   0  0  0  0  0  0  0  0  0  0  0  0
   -0.0869   -0.5995    1.7575 H   0  0  0  0  0  0  0  0  0  0  0  0
   -1.3946    1.2242   -1.7556 H   0  0  0  0  0  0  0  0  0  0  0  0
   -1.4717   -0.5240   -1.9071 H   0  0  0  0  0  0  0  0  0  0  0  0
   -3.3014    1.4468   -0.6802 H   0  0  0  0  0  0  0  0  0  0  0  0
   -3.6119   -0.2143   -1.3172 H   0  0  0  0  0  0  0  0  0  0  0  0
    3.5729    0.5521   -2.2015 H   0  0  0  0  0  0  0  0  0  0  0  0
    5.9020   -0.2222   -2.3467 H   0  0  0  0  0  0  0  0  0  0  0  0
    5.5736   -1.9097    1.5504 H   0  0  0  0  0  0  0  0  0  0  0  0
    3.2567   -1.1345    1.6853 H   0  0  0  0  0  0  0  0  0  0  0  0
    6.8377   -3.3083    0.7948 H   0  0  0  0  0  0  0  0  0  0  0  0
    9.1152   -4.1733    0.7759 H   0  0  0  0  0  0  0  0  0  0  0  0
   10.8778   -3.0268   -0.4329 H   0  0  0  0  0  0  0  0  0  0  0  0
   10.3630   -0.9450   -1.6691 H   0  0  0  0  0  0  0  0  0  0  0  0
    8.0992   -0.0470   -1.6751 H   0  0  0  0  0  0  0  0  0  0  0  0
   -0.6840    3.4889   -1.3950 H   0  0  0  0  0  0  0  0  0  0  0  0
   -2.0124    5.4991   -0.7982 H   0  0  0  0  0  0  0  0  0  0  0  0
   -2.2877    4.0995    3.1253 H   0  0  0  0  0  0  0  0  0  0  0  0
  1  2  1  0
  2  3  2  0
  3  4  1  0
  4  5  2  0
  5  6  1  0
  6  7  2  0
  7  8  1  0
  8  9  1  0
  9 10  1  0
 10 11  1  0
 11 12  1  0
 12 13  1  0
 13 14  1  0
 12 15  1  0
 15 16  1  0
 16 17  2  0
 16 18  1  0
 18 19  1  0
 19 20  2  0
 18 21  1  0
 21 22  2  0
 22 23  1  0
 23 24  2  0
 24 25  1  0
 25 26  2  0
 24 27  1  0
 27 28  2  0
 28 29  1  0
 29 30  2  0
 30 31  1  0
 31 32  2  0
 15 33  1  0
 33 34  1  0
 34 35  2  0
 35 36  1  0
 36 37  2  0
 36 38  1  0
 38 39  1  0
  7  2  1  0
 14  9  1  0
 26 21  1  0
 32 27  1  0
 39 33  2  0
 19 12  1  0
  1 40  1  0
  1 41  1  0
  1 42  1  0
  3 43  1  0
  4 44  1  0
  5 45  1  0
  8 46  1  0
  8 47  1  0
 10 48  1  0
 10 49  1  0
 11 50  1  0
 11 51  1  0
 13 52  1  0
 13 53  1  0
 14 54  1  0
 14 55  1  0
 22 56  1  0
 23 57  1  0
 25 58  1  0
 26 59  1  0
 28 60  1  0
 29 61  1  0
 30 62  1  0
 31 63  1  0
 32 64  1  0
 34 65  1  0
 35 66  1  0
 38 67  1  0
M  END
$$$$
[H]OC(=O)c1c([H])c([H])c(-c2c([H])c([H])c(N3C(=O)N(c4nc([H])nc(OC([H])([H])[H])c4[H])C4(C3=O)C([H])([H])C([H])([H])N(C([H])([H])c3nc([H])c([H])c([H])c3C([H])([H])[H])C([H])([H])C4([H])[H])c([H])c2[H])c(C([H])([H])[H])c1[H]
     RDKit          3D

 76 81  0  0  0  0  0  0  0  0999 V2000
   -1.2760   -7.4313    1.6338 C   0  0  0  0  0  0  0  0  0  0  0  0
   -1.1813   -6.0279    1.6416 O   0  0  0  0  0  0  0  0  0  0  0  0
   -1.2286   -5.2837    0.4752 C   0  0  0  0  0  0  0  0  0  0  0  0
   -1.1211   -3.9300    0.5691 C   0  0  0  0  0  0  0  0  0  0  0  0
   -1.1572   -3.2053   -0.5835 C   0  0  0  0  0  0  0  0  0  0  0  0
   -1.3113   -3.8511   -1.7275 N   0  0  0  0  0  0  0  0  0  0  0  0
   -1.4281   -5.1902   -1.8273 C   0  0  0  0  0  0  0  0  0  0  0  0
   -1.3781   -5.9215   -0.7088 N   0  0  0  0  0  0  0  0  0  0  0  0
   -0.9114   -1.8107   -0.5553 N   0  0  0  0  0  0  0  0  0  0  0  0
    0.3274   -1.2319   -1.0518 C   0  0  0  0  0  0  0  0  0  0  0  0
    1.0626   -1.6834   -1.9538 O   0  0  0  0  0  0  0  0  0  0  0  0
    0.4987   -0.0254   -0.2708 N   0  0  0  0  0  0  0  0  0  0  0  0
   -0.5700    0.1188    0.6206 C   0  0  0  0  0  0  0  0  0  0  0  0
   -0.5779    0.7585    1.6865 O   0  0  0  0  0  0  0  0  0  0  0  0
   -1.6673   -0.6989   -0.0519 C   0  0  0  0  0  0  0  0  0  0  0  0
   -2.2627    0.0771   -1.1652 C   0  0  0  0  0  0  0  0  0  0  0  0
   -3.7872    0.2510   -1.0827 C   0  0  0  0  0  0  0  0  0  0  0  0
   -4.2764    0.3111    0.1628 N   0  0  0  0  0  0  0  0  0  0  0  0
   -5.5688    0.6397    0.5334 C   0  0  0  0  0  0  0  0  0  0  0  0
   -5.9281    1.9512   -0.0307 C   0  0  0  0  0  0  0  0  0  0  0  0
   -6.0359    2.1913   -1.3473 N   0  0  0  0  0  0  0  0  0  0  0  0
   -6.5181    3.3746   -1.7937 C   0  0  0  0  0  0  0  0  0  0  0  0
   -6.8962    4.3716   -0.9162 C   0  0  0  0  0  0  0  0  0  0  0  0
   -6.7809    4.1483    0.4341 C   0  0  0  0  0  0  0  0  0  0  0  0
   -6.3046    2.9430    0.8444 C   0  0  0  0  0  0  0  0  0  0  0  0
   -6.1087    2.7117    2.3170 C   0  0  0  0  0  0  0  0  0  0  0  0
   -3.4273    0.1368    1.3305 C   0  0  0  0  0  0  0  0  0  0  0  0
   -2.5988   -1.1164    1.0414 C   0  0  0  0  0  0  0  0  0  0  0  0
    1.7138    0.7253   -0.3357 C   0  0  0  0  0  0  0  0  0  0  0  0
    2.3272    1.1822   -1.4597 C   0  0  0  0  0  0  0  0  0  0  0  0
    3.6439    1.6366   -1.4702 C   0  0  0  0  0  0  0  0  0  0  0  0
    4.3712    1.6269   -0.3013 C   0  0  0  0  0  0  0  0  0  0  0  0
    3.7196    1.1548    0.8578 C   0  0  0  0  0  0  0  0  0  0  0  0
    2.4322    0.7121    0.8657 C   0  0  0  0  0  0  0  0  0  0  0  0
    5.8146    1.8353   -0.2476 C   0  0  0  0  0  0  0  0  0  0  0  0
    6.4818    2.9160   -0.6677 C   0  0  0  0  0  0  0  0  0  0  0  0
    7.8772    2.9470   -0.5386 C   0  0  0  0  0  0  0  0  0  0  0  0
    8.5643    1.9192    0.0083 C   0  0  0  0  0  0  0  0  0  0  0  0
    7.8484    0.8001    0.4407 C   0  0  0  0  0  0  0  0  0  0  0  0
    6.5254    0.7364    0.3205 C   0  0  0  0  0  0  0  0  0  0  0  0
    5.7887   -0.5582    0.5986 C   0  0  0  0  0  0  0  0  0  0  0  0
   10.0050    1.8070    0.0128 C   0  0  0  0  0  0  0  0  0  0  0  0
   10.7012    2.4903   -0.9653 O   0  0  0  0  0  0  0  0  0  0  0  0
   10.5791    1.1040    0.8527 O   0  0  0  0  0  0  0  0  0  0  0  0
   -0.2632   -7.9307    1.6080 H   0  0  0  0  0  0  0  0  0  0  0  0
   -1.8205   -7.7257    2.5471 H   0  0  0  0  0  0  0  0  0  0  0  0
   -1.8432   -7.8059    0.7562 H   0  0  0  0  0  0  0  0  0  0  0  0
   -1.0289   -3.4866    1.5600 H   0  0  0  0  0  0  0  0  0  0  0  0
   -1.5439   -5.6323   -2.8210 H   0  0  0  0  0  0  0  0  0  0  0  0
   -1.7399    1.0228   -1.3482 H   0  0  0  0  0  0  0  0  0  0  0  0
   -2.1134   -0.5128   -2.1275 H   0  0  0  0  0  0  0  0  0  0  0  0
   -4.2646   -0.5478   -1.7153 H   0  0  0  0  0  0  0  0  0  0  0  0
   -3.9504    1.1694   -1.6961 H   0  0  0  0  0  0  0  0  0  0  0  0
   -6.2723   -0.0869   -0.0989 H   0  0  0  0  0  0  0  0  0  0  0  0
   -5.9123    0.4051    1.5189 H   0  0  0  0  0  0  0  0  0  0  0  0
   -6.6445    3.5580   -2.8607 H   0  0  0  0  0  0  0  0  0  0  0  0
   -7.2580    5.3217   -1.2252 H   0  0  0  0  0  0  0  0  0  0  0  0
   -7.0427    4.9347    1.1568 H   0  0  0  0  0  0  0  0  0  0  0  0
   -6.7891    3.3937    2.8486 H   0  0  0  0  0  0  0  0  0  0  0  0
   -6.3509    1.7111    2.6620 H   0  0  0  0  0  0  0  0  0  0  0  0
   -5.0658    3.0129    2.5869 H   0  0  0  0  0  0  0  0  0  0  0  0
   -2.8810    1.0254    1.5291 H   0  0  0  0  0  0  0  0  0  0  0  0
   -4.0531   -0.0955    2.2083 H   0  0  0  0  0  0  0  0  0  0  0  0
   -3.3260   -1.8704    0.6853 H   0  0  0  0  0  0  0  0  0  0  0  0
   -2.0785   -1.4000    1.9318 H   0  0  0  0  0  0  0  0  0  0  0  0
    1.7405    1.2192   -2.3887 H   0  0  0  0  0  0  0  0  0  0  0  0
    4.1301    2.0018   -2.3523 H   0  0  0  0  0  0  0  0  0  0  0  0
    4.3230    1.1890    1.7645 H   0  0  0  0  0  0  0  0  0  0  0  0
    1.9445    0.3505    1.7476 H   0  0  0  0  0  0  0  0  0  0  0  0
    5.9811    3.7609   -1.1123 H   0  0  0  0  0  0  0  0  0  0  0  0
    8.3942    3.8397   -0.8964 H   0  0  0  0  0  0  0  0  0  0  0  0
    8.3878   -0.0468    0.8874 H   0  0  0  0  0  0  0  0  0  0  0  0
    4.9776   -0.6582   -0.1623 H   0  0  0  0  0  0  0  0  0  0  0  0
    6.5200   -1.3500    0.2512 H   0  0  0  0  0  0  0  0  0  0  0  0
    5.5375   -0.7350    1.6155 H   0  0  0  0  0  0  0  0  0  0  0  0
   10.3258    2.3568   -1.9555 H   0  0  0  0  0  0  0  0  0  0  0  0
  1  2  1  0
  2  3  1  0
  3  4  2  0
  4  5  1  0
  5  6  2  0
  6  7  1  0
  7  8  2  0
  5  9  1  0
  9 10  1  0
 10 11  2  0
 10 12  1  0
 12 13  1  0
 13 14  2  0
 13 15  1  0
 15 16  1  0
 16 17  1  0
 17 18  1  0
 18 19  1  0
 19 20  1  0
 20 21  2  0
 21 22  1  0
 22 23  2  0
 23 24  1  0
 24 25  2  0
 25 26  1  0
 18 27  1  0
 27 28  1  0
 12 29  1  0
 29 30  2  0
 30 31  1  0
 31 32  2  0
 32 33  1  0
 33 34  2  0
 32 35  1  0
 35 36  2  0
 36 37  1  0
 37 38  2  0
 38 39  1  0
 39 40  2  0
 40 41  1  0
 38 42  1  0
 42 43  1  0
 42 44  2  0
  8  3  1  0
 15  9  1  0
 28 15  1  0
 34 29  1  0
 40 35  1  0
 25 20  1  0
  1 45  1  0
  1 46  1  0
  1 47  1  0
  4 48  1  0
  7 49  1  0
 16 50  1  0
 16 51  1  0
 17 52  1  0
 17 53  1  0
 19 54  1  0
 19 55  1  0
 22 56  1  0
 23 57  1  0
 24 58  1  0
 26 59  1  0
 26 60  1  0
 26 61  1  0
 27 62  1  0
 27 63  1  0
 28 64  1  0
 28 65  1  0
 30 66  1  0
 31 67  1  0
 33 68  1  0
 34 69  1  0
 36 70  1  0
 37 71  1  0
 39 72  1  0
 41 73  1  0
 41 74  1  0
 41 75  1  0
 43 76  1  0
M  END
$$$$
[H]OC(=O)c1c([H])c([H])c(-c2c([H])c([H])c(N3C(=O)N(c4nc([H])c([H])c([H])n4)C4(C3=O)C([H])([H])C([H])([H])N(C([H])([H])c3nc([H])c([H])c([H])c3C([H])([H])[H])C([H])([H])C4([H])[H])c([H])c2[H])c([H])c1[H]
     RDKit          3D

 69 74  0  0  0  0  0  0  0  0999 V2000
   -6.4131   -3.2752    1.6731 C   0  0  0  0  0  0  0  0  0  0  0  0
   -6.8619   -2.0564    0.9740 C   0  0  0  0  0  0  0  0  0  0  0  0
   -8.1861   -1.6897    0.8443 C   0  0  0  0  0  0  0  0  0  0  0  0
   -8.5543   -0.5516    0.1867 C   0  0  0  0  0  0  0  0  0  0  0  0
   -7.5844    0.2617   -0.3661 C   0  0  0  0  0  0  0  0  0  0  0  0
   -6.2930   -0.1068   -0.2331 N   0  0  0  0  0  0  0  0  0  0  0  0
   -5.9032   -1.2087    0.4009 C   0  0  0  0  0  0  0  0  0  0  0  0
   -4.4457   -1.5692    0.5125 C   0  0  0  0  0  0  0  0  0  0  0  0
   -3.6382   -0.6155   -0.1130 N   0  0  0  0  0  0  0  0  0  0  0  0
   -3.6073    0.7139    0.3174 C   0  0  0  0  0  0  0  0  0  0  0  0
   -2.2274    1.0667    0.8109 C   0  0  0  0  0  0  0  0  0  0  0  0
   -1.1846    0.8012   -0.2031 C   0  0  0  0  0  0  0  0  0  0  0  0
   -1.4598   -0.2382   -1.2239 C   0  0  0  0  0  0  0  0  0  0  0  0
   -2.7216   -1.0112   -1.1074 C   0  0  0  0  0  0  0  0  0  0  0  0
   -0.7104    2.0433   -0.7897 N   0  0  0  0  0  0  0  0  0  0  0  0
    0.7237    1.8762   -0.9336 C   0  0  0  0  0  0  0  0  0  0  0  0
    1.4676    2.5635   -1.7065 O   0  0  0  0  0  0  0  0  0  0  0  0
    1.1951    0.8357   -0.0910 N   0  0  0  0  0  0  0  0  0  0  0  0
    0.0428    0.3584    0.5763 C   0  0  0  0  0  0  0  0  0  0  0  0
    0.0211   -0.3161    1.6333 O   0  0  0  0  0  0  0  0  0  0  0  0
    2.5467    0.3939    0.0297 C   0  0  0  0  0  0  0  0  0  0  0  0
    2.8597   -0.9136   -0.2681 C   0  0  0  0  0  0  0  0  0  0  0  0
    4.1789   -1.3660   -0.1638 C   0  0  0  0  0  0  0  0  0  0  0  0
    5.1707   -0.5085    0.2363 C   0  0  0  0  0  0  0  0  0  0  0  0
    4.8762    0.8014    0.5383 C   0  0  0  0  0  0  0  0  0  0  0  0
    3.5719    1.2248    0.4287 C   0  0  0  0  0  0  0  0  0  0  0  0
    6.5561   -0.9694    0.3469 C   0  0  0  0  0  0  0  0  0  0  0  0
    6.8584   -2.2573    0.6996 C   0  0  0  0  0  0  0  0  0  0  0  0
    8.1630   -2.7070    0.8035 C   0  0  0  0  0  0  0  0  0  0  0  0
    9.1632   -1.8002    0.5364 C   0  0  0  0  0  0  0  0  0  0  0  0
    8.8784   -0.5034    0.1812 C   0  0  0  0  0  0  0  0  0  0  0  0
    7.5736   -0.0770    0.0834 C   0  0  0  0  0  0  0  0  0  0  0  0
   10.5820   -2.1775    0.6203 C   0  0  0  0  0  0  0  0  0  0  0  0
   10.8835   -3.4960    0.9787 O   0  0  0  0  0  0  0  0  0  0  0  0
   11.5034   -1.3806    0.3884 O   0  0  0  0  0  0  0  0  0  0  0  0
   -1.3783    3.2173   -1.1927 C   0  0  0  0  0  0  0  0  0  0  0  0
   -1.6599    3.3778   -2.5118 N   0  0  0  0  0  0  0  0  0  0  0  0
   -2.2721    4.4672   -2.9768 C   0  0  0  0  0  0  0  0  0  0  0  0
   -2.6445    5.4797   -2.1173 C   0  0  0  0  0  0  0  0  0  0  0  0
   -2.3615    5.3181   -0.7827 C   0  0  0  0  0  0  0  0  0  0  0  0
   -1.7372    4.1918   -0.3628 N   0  0  0  0  0  0  0  0  0  0  0  0
   -5.5927   -3.0344    2.4091 H   0  0  0  0  0  0  0  0  0  0  0  0
   -7.2453   -3.6630    2.3286 H   0  0  0  0  0  0  0  0  0  0  0  0
   -6.0196   -4.0398    0.9820 H   0  0  0  0  0  0  0  0  0  0  0  0
   -8.9357   -2.3504    1.2893 H   0  0  0  0  0  0  0  0  0  0  0  0
   -9.5886   -0.2771    0.0933 H   0  0  0  0  0  0  0  0  0  0  0  0
   -7.8367    1.1728   -0.8958 H   0  0  0  0  0  0  0  0  0  0  0  0
   -4.3411   -2.5814    0.0274 H   0  0  0  0  0  0  0  0  0  0  0  0
   -4.2838   -1.6760    1.6231 H   0  0  0  0  0  0  0  0  0  0  0  0
   -4.3725    0.9052    1.1081 H   0  0  0  0  0  0  0  0  0  0  0  0
   -3.8550    1.3975   -0.5193 H   0  0  0  0  0  0  0  0  0  0  0  0
   -2.2565    2.1459    1.0662 H   0  0  0  0  0  0  0  0  0  0  0  0
   -1.9936    0.5526    1.7758 H   0  0  0  0  0  0  0  0  0  0  0  0
   -1.4551    0.2639   -2.2347 H   0  0  0  0  0  0  0  0  0  0  0  0
   -0.5720   -0.9299   -1.2798 H   0  0  0  0  0  0  0  0  0  0  0  0
   -2.4428   -2.0886   -0.8825 H   0  0  0  0  0  0  0  0  0  0  0  0
   -3.2411   -1.1188   -2.1124 H   0  0  0  0  0  0  0  0  0  0  0  0
    2.0759   -1.5855   -0.5804 H   0  0  0  0  0  0  0  0  0  0  0  0
    4.3543   -2.4077   -0.4125 H   0  0  0  0  0  0  0  0  0  0  0  0
    5.6800    1.4850    0.8598 H   0  0  0  0  0  0  0  0  0  0  0  0
    3.3698    2.2486    0.6695 H   0  0  0  0  0  0  0  0  0  0  0  0
    6.0734   -2.9883    0.9150 H   0  0  0  0  0  0  0  0  0  0  0  0
    8.4349   -3.7120    1.0780 H   0  0  0  0  0  0  0  0  0  0  0  0
    9.6684    0.2257   -0.0361 H   0  0  0  0  0  0  0  0  0  0  0  0
    7.3405    0.9652   -0.2019 H   0  0  0  0  0  0  0  0  0  0  0  0
   10.3664   -4.2010    0.4381 H   0  0  0  0  0  0  0  0  0  0  0  0
   -2.5101    4.6174   -4.0372 H   0  0  0  0  0  0  0  0  0  0  0  0
   -3.1487    6.3782   -2.4954 H   0  0  0  0  0  0  0  0  0  0  0  0
   -2.6442    6.0983   -0.1018 H   0  0  0  0  0  0  0  0  0  0  0  0
  1  2  1  0
  2  3  2  0
  3  4  1  0
  4  5  2  0
  5  6  1  0
  6  7  2  0
  7  8  1  0
  8  9  1  0
  9 10  1  0
 10 11  1  0
 11 12  1  0
 12 13  1  0
 13 14  1  0
 12 15  1  0
 15 16  1  0
 16 17  2  0
 16 18  1  0
 18 19  1  0
 19 20  2  0
 18 21  1  0
 21 22  2  0
 22 23  1  0
 23 24  2  0
 24 25  1  0
 25 26  2  0
 24 27  1  0
 27 28  2  0
 28 29  1  0
 29 30  2  0
 30 31  1  0
 31 32  2  0
 30 33  1  0
 33 34  1  0
 33 35  2  0
 15 36  1  0
 36 37  2  0
 37 38  1  0
 38 39  2  0
 39 40  1  0
 40 41  2  0
  7  2  1  0
 14  9  1  0
 26 21  1  0
 32 27  1  0
 41 36  1  0
 19 12  1  0
  1 42  1  0
  1 43  1  0
  1 44  1  0
  3 45  1  0
  4 46  1  0
  5 47  1  0
  8 48  1  0
  8 49  1  0
 10 50  1  0
 10 51  1  0
 11 52  1  0
 11 53  1  0
 13 54  1  0
 13 55  1  0
 14 56  1  0
 14 57  1  0
 22 58  1  0
 23 59  1  0
 25 60  1  0
 26 61  1  0
 28 62  1  0
 29 63  1  0
 31 64  1  0
 32 65  1  0
 34 66  1  0
 38 67  1  0
 39 68  1  0
 40 69  1  0
M  END
$$$$
[H]c1nc2c([H])c(N([H])C(=O)OC3([H])C([H])([H])OC([H])([H])C3([H])[H])c([H])c(-c3c([H])c([H])c(C#N)c(F)c3[H])n2n1
     RDKit          3D

 41 44  0  0  0  0  0  0  0  0999 V2000
   -6.0291   -2.0102    2.1064 F   0  0  0  0  0  0  0  0  0  0  0  0
   -5.4939   -1.3974    1.0276 C   0  0  0  0  0  0  0  0  0  0  0  0
   -4.2623   -0.7811    1.1465 C   0  0  0  0  0  0  0  0  0  0  0  0
   -3.6804   -0.1443    0.0700 C   0  0  0  0  0  0  0  0  0  0  0  0
   -4.3832   -0.1529   -1.1226 C   0  0  0  0  0  0  0  0  0  0  0  0
   -5.6148   -0.7684   -1.2439 C   0  0  0  0  0  0  0  0  0  0  0  0
   -6.1875   -1.4016   -0.1633 C   0  0  0  0  0  0  0  0  0  0  0  0
   -7.4611   -2.0573   -0.2260 C   0  0  0  0  0  0  0  0  0  0  0  0
   -8.4924   -2.5884   -0.2565 N   0  0  0  0  0  0  0  0  0  0  0  0
   -2.3741    0.5153    0.1765 C   0  0  0  0  0  0  0  0  0  0  0  0
   -1.1994   -0.1510   -0.0741 C   0  0  0  0  0  0  0  0  0  0  0  0
    0.0602    0.4777    0.0266 C   0  0  0  0  0  0  0  0  0  0  0  0
    1.2150   -0.2733   -0.2451 N   0  0  0  0  0  0  0  0  0  0  0  0
    2.5343    0.1599   -0.2163 C   0  0  0  0  0  0  0  0  0  0  0  0
    2.8803    1.3246    0.0670 O   0  0  0  0  0  0  0  0  0  0  0  0
    3.5887   -0.7169   -0.5143 O   0  0  0  0  0  0  0  0  0  0  0  0
    4.9118   -0.2466   -0.4760 C   0  0  0  0  0  0  0  0  0  0  0  0
    5.7922   -1.1003    0.4372 C   0  0  0  0  0  0  0  0  0  0  0  0
    7.0542   -1.2383   -0.3827 C   0  0  0  0  0  0  0  0  0  0  0  0
    6.9522   -0.3376   -1.4263 O   0  0  0  0  0  0  0  0  0  0  0  0
    5.6118   -0.4716   -1.8157 C   0  0  0  0  0  0  0  0  0  0  0  0
    0.0093    1.7912    0.3907 C   0  0  0  0  0  0  0  0  0  0  0  0
   -1.1834    2.4809    0.6488 C   0  0  0  0  0  0  0  0  0  0  0  0
   -1.4843    3.7387    1.0119 N   0  0  0  0  0  0  0  0  0  0  0  0
   -2.8086    3.8692    1.1238 C   0  0  0  0  0  0  0  0  0  0  0  0
   -3.3155    2.6447    0.8161 N   0  0  0  0  0  0  0  0  0  0  0  0
   -2.3248    1.8181    0.5319 N   0  0  0  0  0  0  0  0  0  0  0  0
   -3.7339   -0.7882    2.0872 H   0  0  0  0  0  0  0  0  0  0  0  0
   -3.9203    0.3524   -1.9746 H   0  0  0  0  0  0  0  0  0  0  0  0
   -6.1615   -0.7731   -2.1778 H   0  0  0  0  0  0  0  0  0  0  0  0
   -1.2221   -1.1923   -0.3591 H   0  0  0  0  0  0  0  0  0  0  0  0
    1.0890   -1.3130   -0.5099 H   0  0  0  0  0  0  0  0  0  0  0  0
    4.9796    0.8282   -0.1984 H   0  0  0  0  0  0  0  0  0  0  0  0
    5.9672   -0.5079    1.3630 H   0  0  0  0  0  0  0  0  0  0  0  0
    5.3054   -2.0655    0.6280 H   0  0  0  0  0  0  0  0  0  0  0  0
    7.1952   -2.2746   -0.7536 H   0  0  0  0  0  0  0  0  0  0  0  0
    7.9343   -1.0124    0.2487 H   0  0  0  0  0  0  0  0  0  0  0  0
    5.4738   -1.5347   -2.0996 H   0  0  0  0  0  0  0  0  0  0  0  0
    5.3037    0.2454   -2.5728 H   0  0  0  0  0  0  0  0  0  0  0  0
    0.9061    2.3537    0.4946 H   0  0  0  0  0  0  0  0  0  0  0  0
   -3.4317    4.6992    1.3877 H   0  0  0  0  0  0  0  0  0  0  0  0
  1  2  1  0
  2  3  2  0
  3  4  1  0
  4  5  2  0
  5  6  1  0
  6  7  2  0
  7  8  1  0
  8  9  3  0
  4 10  1  0
 10 11  2  0
 11 12  1  0
 12 13  1  0
 13 14  1  0
 14 15  2  0
 14 16  1  0
 16 17  1  0
 17 18  1  0
 18 19  1  0
 19 20  1  0
 20 21  1  0
 12 22  2  0
 22 23  1  0
 23 24  2  0
 24 25  1  0
 25 26  2  0
 26 27  1  0
  7  2  1  0
 27 10  1  0
 21 17  1  0
 27 23  1  0
  3 28  1  0
  5 29  1  0
  6 30  1  0
 11 31  1  0
 13 32  1  0
 17 33  1  0
 18 34  1  0
 18 35  1  0
 19 36  1  0
 19 37  1  0
 21 38  1  0
 21 39  1  0
 22 40  1  0
 25 41  1  0
M  END
$$$$
[H]c1nc2c([H])c(N([H])[H])c([H])c(-c3c([H])c([H])c(C#N)c([H])c3F)n2n1
     RDKit          3D

 27 29  0  0  0  0  0  0  0  0999 V2000
    3.6155   -1.9655    0.8564 N   0  0  0  0  0  0  0  0  0  0  0  0
    2.7551   -0.9544    0.2989 C   0  0  0  0  0  0  0  0  0  0  0  0
    1.3929   -0.9921    0.4918 C   0  0  0  0  0  0  0  0  0  0  0  0
    0.5309   -0.0314   -0.0324 C   0  0  0  0  0  0  0  0  0  0  0  0
   -0.8957   -0.1020    0.1900 C   0  0  0  0  0  0  0  0  0  0  0  0
   -1.6730   -0.7863   -0.7012 C   0  0  0  0  0  0  0  0  0  0  0  0
   -3.0498   -0.8750   -0.5189 C   0  0  0  0  0  0  0  0  0  0  0  0
   -3.6654   -0.2744    0.5662 C   0  0  0  0  0  0  0  0  0  0  0  0
   -2.8537    0.4095    1.4485 C   0  0  0  0  0  0  0  0  0  0  0  0
   -1.4745    0.5015    1.2709 C   0  0  0  0  0  0  0  0  0  0  0  0
   -0.7542    1.2003    2.1979 F   0  0  0  0  0  0  0  0  0  0  0  0
   -5.0992   -0.3598    0.7668 C   0  0  0  0  0  0  0  0  0  0  0  0
   -6.2420   -0.4288    0.9444 N   0  0  0  0  0  0  0  0  0  0  0  0
    1.0700    0.9837   -0.7653 N   0  0  0  0  0  0  0  0  0  0  0  0
    0.5067    2.0158   -1.3732 N   0  0  0  0  0  0  0  0  0  0  0  0
    1.4566    2.7687   -1.9847 C   0  0  0  0  0  0  0  0  0  0  0  0
    2.6226    2.1406   -1.7163 N   0  0  0  0  0  0  0  0  0  0  0  0
    2.3968    1.0451   -0.9693 C   0  0  0  0  0  0  0  0  0  0  0  0
    3.2648    0.0876   -0.4480 C   0  0  0  0  0  0  0  0  0  0  0  0
    3.1914   -2.9029    0.9938 H   0  0  0  0  0  0  0  0  0  0  0  0
    4.5812   -1.7144    1.0842 H   0  0  0  0  0  0  0  0  0  0  0  0
    0.9272   -1.7787    1.0656 H   0  0  0  0  0  0  0  0  0  0  0  0
   -1.2300   -1.2698   -1.5623 H   0  0  0  0  0  0  0  0  0  0  0  0
   -3.6708   -1.4199   -1.2278 H   0  0  0  0  0  0  0  0  0  0  0  0
   -3.3112    0.8835    2.2982 H   0  0  0  0  0  0  0  0  0  0  0  0
    1.2900    3.6750   -2.5590 H   0  0  0  0  0  0  0  0  0  0  0  0
    4.3178    0.1442   -0.6151 H   0  0  0  0  0  0  0  0  0  0  0  0
  1  2  1  0
  2  3  1  0
  3  4  2  0
  4  5  1  0
  5  6  2  0
  6  7  1  0
  7  8  2  0
  8  9  1  0
  9 10  2  0
 10 11  1  0
  8 12  1  0
 12 13  3  0
  4 14  1  0
 14 15  1  0
 15 16  2  0
 16 17  1  0
 17 18  2  0
 18 19  1  0
 19  2  2  0
 10  5  1  0
 18 14  1  0
  1 20  1  0
  1 21  1  0
  3 22  1  0
  6 23  1  0
  7 24  1  0
  9 25  1  0
 16 26  1  0
 19 27  1  0
M  END
$$$$
[H]OC(=O)c1c([H])c([H])c(-c2c([H])c([H])c(N3C(=O)N(c4nc([H])c([H])c([H])n4)C4(C3=O)C([H])([H])C([H])([H])N(C([H])([H])c3nc([H])c([H])c([H])c3C([H])([H])[H])C([H])([H])C4([H])[H])c([H])c2[H])c(C([H])([H])[H])c1[H]
     RDKit          3D

 72 77  0  0  0  0  0  0  0  0999 V2000
   -8.1068    0.8595    1.0032 C   0  0  0  0  0  0  0  0  0  0  0  0
   -7.0947    1.7588    0.4024 C   0  0  0  0  0  0  0  0  0  0  0  0
   -7.4829    3.0431    0.0733 C   0  0  0  0  0  0  0  0  0  0  0  0
   -6.5481    3.8848   -0.4852 C   0  0  0  0  0  0  0  0  0  0  0  0
   -5.2724    3.4021   -0.6873 C   0  0  0  0  0  0  0  0  0  0  0  0
   -4.9258    2.1335   -0.3516 N   0  0  0  0  0  0  0  0  0  0  0  0
   -5.8174    1.2971    0.1927 C   0  0  0  0  0  0  0  0  0  0  0  0
   -5.4466   -0.0618    0.5508 C   0  0  0  0  0  0  0  0  0  0  0  0
   -4.1064   -0.4529    0.3006 N   0  0  0  0  0  0  0  0  0  0  0  0
   -3.0822    0.2829    0.9656 C   0  0  0  0  0  0  0  0  0  0  0  0
   -1.9099   -0.6784    1.1531 C   0  0  0  0  0  0  0  0  0  0  0  0
   -1.4526   -1.2481   -0.1650 C   0  0  0  0  0  0  0  0  0  0  0  0
   -2.5483   -1.5450   -1.1308 C   0  0  0  0  0  0  0  0  0  0  0  0
   -3.7367   -0.6471   -1.0632 C   0  0  0  0  0  0  0  0  0  0  0  0
   -0.8025   -2.5185    0.1429 N   0  0  0  0  0  0  0  0  0  0  0  0
    0.5831   -2.2663    0.3340 C   0  0  0  0  0  0  0  0  0  0  0  0
    1.3537   -3.0716    0.9061 O   0  0  0  0  0  0  0  0  0  0  0  0
    0.8717   -0.9896   -0.2291 N   0  0  0  0  0  0  0  0  0  0  0  0
   -0.3416   -0.4723   -0.7599 C   0  0  0  0  0  0  0  0  0  0  0  0
   -0.5096    0.4645   -1.5819 O   0  0  0  0  0  0  0  0  0  0  0  0
    2.1357   -0.3534   -0.2548 C   0  0  0  0  0  0  0  0  0  0  0  0
    2.5292    0.4236   -1.3134 C   0  0  0  0  0  0  0  0  0  0  0  0
    3.7754    1.0079   -1.2625 C   0  0  0  0  0  0  0  0  0  0  0  0
    4.6488    0.8548   -0.2065 C   0  0  0  0  0  0  0  0  0  0  0  0
    4.2518    0.0756    0.8537 C   0  0  0  0  0  0  0  0  0  0  0  0
    3.0048   -0.5082    0.8011 C   0  0  0  0  0  0  0  0  0  0  0  0
    5.9328    1.5211   -0.2386 C   0  0  0  0  0  0  0  0  0  0  0  0
    6.0229    2.8883   -0.5256 C   0  0  0  0  0  0  0  0  0  0  0  0
    7.2226    3.5592   -0.5549 C   0  0  0  0  0  0  0  0  0  0  0  0
    8.3696    2.8410   -0.2889 C   0  0  0  0  0  0  0  0  0  0  0  0
    8.2838    1.4801   -0.0031 C   0  0  0  0  0  0  0  0  0  0  0  0
    7.0724    0.8048    0.0258 C   0  0  0  0  0  0  0  0  0  0  0  0
    7.0799   -0.6691    0.3323 C   0  0  0  0  0  0  0  0  0  0  0  0
    9.6430    3.5327   -0.3154 C   0  0  0  0  0  0  0  0  0  0  0  0
    9.7030    4.8742   -0.5996 O   0  0  0  0  0  0  0  0  0  0  0  0
   10.6859    2.8909   -0.0758 O   0  0  0  0  0  0  0  0  0  0  0  0
   -1.4699   -3.7859    0.2311 C   0  0  0  0  0  0  0  0  0  0  0  0
   -2.4597   -3.9613    1.1390 N   0  0  0  0  0  0  0  0  0  0  0  0
   -3.1287   -5.1160    1.2796 C   0  0  0  0  0  0  0  0  0  0  0  0
   -2.7800   -6.1599    0.4549 C   0  0  0  0  0  0  0  0  0  0  0  0
   -1.7806   -6.0172   -0.4776 C   0  0  0  0  0  0  0  0  0  0  0  0
   -1.1558   -4.8261   -0.5575 N   0  0  0  0  0  0  0  0  0  0  0  0
   -9.0042    1.3940    1.3488 H   0  0  0  0  0  0  0  0  0  0  0  0
   -8.4146    0.0368    0.3402 H   0  0  0  0  0  0  0  0  0  0  0  0
   -7.6390    0.4234    1.9270 H   0  0  0  0  0  0  0  0  0  0  0  0
   -8.5029    3.3604    0.2588 H   0  0  0  0  0  0  0  0  0  0  0  0
   -6.7991    4.9083   -0.7642 H   0  0  0  0  0  0  0  0  0  0  0  0
   -4.4958    4.0148   -1.1214 H   0  0  0  0  0  0  0  0  0  0  0  0
   -5.6474   -0.2672    1.6426 H   0  0  0  0  0  0  0  0  0  0  0  0
   -6.1046   -0.7868    0.0048 H   0  0  0  0  0  0  0  0  0  0  0  0
   -3.3493    0.6573    1.9641 H   0  0  0  0  0  0  0  0  0  0  0  0
   -2.6582    1.0981    0.3096 H   0  0  0  0  0  0  0  0  0  0  0  0
   -2.2723   -1.4716    1.8396 H   0  0  0  0  0  0  0  0  0  0  0  0
   -1.0712   -0.1806    1.6535 H   0  0  0  0  0  0  0  0  0  0  0  0
   -2.1126   -1.4382   -2.1674 H   0  0  0  0  0  0  0  0  0  0  0  0
   -2.8506   -2.6322   -1.0814 H   0  0  0  0  0  0  0  0  0  0  0  0
   -4.5843   -1.1751   -1.5698 H   0  0  0  0  0  0  0  0  0  0  0  0
   -3.5227    0.2870   -1.6118 H   0  0  0  0  0  0  0  0  0  0  0  0
    1.8738    0.5837   -2.1880 H   0  0  0  0  0  0  0  0  0  0  0  0
    4.0335    1.6162   -2.1368 H   0  0  0  0  0  0  0  0  0  0  0  0
    4.9048   -0.0791    1.7299 H   0  0  0  0  0  0  0  0  0  0  0  0
    2.7466   -1.1183    1.6768 H   0  0  0  0  0  0  0  0  0  0  0  0
    5.1281    3.4394   -0.7313 H   0  0  0  0  0  0  0  0  0  0  0  0
    7.2665    4.6203   -0.7802 H   0  0  0  0  0  0  0  0  0  0  0  0
    9.2093    0.9369    0.2036 H   0  0  0  0  0  0  0  0  0  0  0  0
    7.1367   -0.8654    1.4226 H   0  0  0  0  0  0  0  0  0  0  0  0
    8.0608   -1.0837   -0.0567 H   0  0  0  0  0  0  0  0  0  0  0  0
    6.3156   -1.2275   -0.2096 H   0  0  0  0  0  0  0  0  0  0  0  0
    9.8655    5.6039    0.0787 H   0  0  0  0  0  0  0  0  0  0  0  0
   -3.9269   -5.2198    2.0283 H   0  0  0  0  0  0  0  0  0  0  0  0
   -3.2940   -7.1222    0.5287 H   0  0  0  0  0  0  0  0  0  0  0  0
   -1.5026   -6.8447   -1.1335 H   0  0  0  0  0  0  0  0  0  0  0  0
  1  2  1  0
  2  3  2  0
  3  4  1  0
  4  5  2  0
  5  6  1  0
  6  7  2  0
  7  8  1  0
  8  9  1  0
  9 10  1  0
 10 11  1  0
 11 12  1  0
 12 13  1  0
 13 14  1  0
 12 15  1  0
 15 16  1  0
 16 17  2  0
 16 18  1  0
 18 19  1  0
 19 20  2  0
 18 21  1  0
 21 22  2  0
 22 23  1  0
 23 24  2  0
 24 25  1  0
 25 26  2  0
 24 27  1  0
 27 28  2  0
 28 29  1  0
 29 30  2  0
 30 31  1  0
 31 32  2  0
 32 33  1  0
 30 34  1  0
 34 35  1  0
 34 36  2  0
 15 37  1  0
 37 38  2  0
 38 39  1  0
 39 40  2  0
 40 41  1  0
 41 42  2  0
  7  2  1  0
 14  9  1  0
 26 21  1  0
 32 27  1  0
 42 37  1  0
 19 12  1  0
  1 43  1  0
  1 44  1  0
  1 45  1  0
  3 46  1  0
  4 47  1  0
  5 48  1  0
  8 49  1  0
  8 50  1  0
 10 51  1  0
 10 52  1  0
 11 53  1  0
 11 54  1  0
 13 55  1  0
 13 56  1  0
 14 57  1  0
 14 58  1  0
 22 59  1  0
 23 60  1  0
 25 61  1  0
 26 62  1  0
 28 63  1  0
 29 64  1  0
 31 65  1  0
 33 66  1  0
 33 67  1  0
 33 68  1  0
 35 69  1  0
 39 70  1  0
 40 71  1  0
 41 72  1  0
M  END
$$$$
[H]c1nc2nc(N([H])C([H])([H])C3([H])C([H])([H])C3([H])[H])c([H])c(-c3c([H])c([H])c(C#N)c([H])c3[H])n2n1
     RDKit          3D

 36 39  0  0  0  0  0  0  0  0999 V2000
    6.8848    3.4639   -0.8072 N   0  0  0  0  0  0  0  0  0  0  0  0
    5.9473    2.8028   -0.6465 C   0  0  0  0  0  0  0  0  0  0  0  0
    4.7698    1.9880   -0.4640 C   0  0  0  0  0  0  0  0  0  0  0  0
    4.8788    0.8546    0.2995 C   0  0  0  0  0  0  0  0  0  0  0  0
    3.7704    0.0192    0.5157 C   0  0  0  0  0  0  0  0  0  0  0  0
    2.5448    0.3042   -0.0262 C   0  0  0  0  0  0  0  0  0  0  0  0
    2.4908    1.4701   -0.7948 C   0  0  0  0  0  0  0  0  0  0  0  0
    3.5643    2.2970   -1.0152 C   0  0  0  0  0  0  0  0  0  0  0  0
    1.3476   -0.5153    0.1187 C   0  0  0  0  0  0  0  0  0  0  0  0
    0.1023    0.0401   -0.0967 C   0  0  0  0  0  0  0  0  0  0  0  0
   -1.0922   -0.6668   -0.0078 C   0  0  0  0  0  0  0  0  0  0  0  0
   -2.3458   -0.0174   -0.2465 N   0  0  0  0  0  0  0  0  0  0  0  0
   -3.5751   -0.7522   -0.1533 C   0  0  0  0  0  0  0  0  0  0  0  0
   -4.7199    0.1897   -0.4545 C   0  0  0  0  0  0  0  0  0  0  0  0
   -4.8020    1.3632    0.5004 C   0  0  0  0  0  0  0  0  0  0  0  0
   -5.8883    0.2728    0.4417 C   0  0  0  0  0  0  0  0  0  0  0  0
   -1.0124   -1.9651    0.3072 N   0  0  0  0  0  0  0  0  0  0  0  0
    0.1904   -2.5272    0.5213 C   0  0  0  0  0  0  0  0  0  0  0  0
    0.5379   -3.8022    0.8424 N   0  0  0  0  0  0  0  0  0  0  0  0
    1.8693   -3.9026    0.9508 C   0  0  0  0  0  0  0  0  0  0  0  0
    2.3269   -2.6708    0.6915 N   0  0  0  0  0  0  0  0  0  0  0  0
    1.3509   -1.8284    0.4320 N   0  0  0  0  0  0  0  0  0  0  0  0
    5.8317    0.5700    0.7611 H   0  0  0  0  0  0  0  0  0  0  0  0
    3.9087   -0.8494    1.1303 H   0  0  0  0  0  0  0  0  0  0  0  0
    1.5635    1.7605   -1.2628 H   0  0  0  0  0  0  0  0  0  0  0  0
    3.5027    3.1990   -1.6152 H   0  0  0  0  0  0  0  0  0  0  0  0
   -0.0265    1.1059   -0.3502 H   0  0  0  0  0  0  0  0  0  0  0  0
   -2.3604    0.9846   -0.4864 H   0  0  0  0  0  0  0  0  0  0  0  0
   -3.5232   -1.5577   -0.9321 H   0  0  0  0  0  0  0  0  0  0  0  0
   -3.6925   -1.1971    0.8571 H   0  0  0  0  0  0  0  0  0  0  0  0
   -4.7725    0.4920   -1.5196 H   0  0  0  0  0  0  0  0  0  0  0  0
   -4.1638    1.3900    1.3893 H   0  0  0  0  0  0  0  0  0  0  0  0
   -5.1205    2.3565    0.0978 H   0  0  0  0  0  0  0  0  0  0  0  0
   -5.9120   -0.4419    1.2771 H   0  0  0  0  0  0  0  0  0  0  0  0
   -6.8497    0.5428   -0.0480 H   0  0  0  0  0  0  0  0  0  0  0  0
    2.4739   -4.7726    1.1932 H   0  0  0  0  0  0  0  0  0  0  0  0
  1  2  3  0
  2  3  1  0
  3  4  2  0
  4  5  1  0
  5  6  2  0
  6  7  1  0
  7  8  2  0
  6  9  1  0
  9 10  2  0
 10 11  1  0
 11 12  1  0
 12 13  1  0
 13 14  1  0
 14 15  1  0
 15 16  1  0
 11 17  2  0
 17 18  1  0
 18 19  2  0
 19 20  1  0
 20 21  2  0
 21 22  1  0
  8  3  1  0
 22  9  1  0
 16 14  1  0
 22 18  1  0
  4 23  1  0
  5 24  1  0
  7 25  1  0
  8 26  1  0
 10 27  1  0
 12 28  1  0
 13 29  1  0
 13 30  1  0
 14 31  1  0
 15 32  1  0
 15 33  1  0
 16 34  1  0
 16 35  1  0
 20 36  1  0
M  END
$$$$
[H]c1nc2c([H])c(N([H])C(=O)C([H])([H])N3C([H])([H])C([H])([H])C3([H])[H])c([H])c(-c3c([H])c([H])c(C#N)c([H])c3[H])n2n1
     RDKit          3D

 41 44  0  0  0  0  0  0  0  0999 V2000
    3.0178   -1.1846   -0.4636 O   0  0  0  0  0  0  0  0  0  0  0  0
    2.6289   -0.0103   -0.3412 C   0  0  0  0  0  0  0  0  0  0  0  0
    3.6692    1.0404   -0.3244 C   0  0  0  0  0  0  0  0  0  0  0  0
    4.9985    0.5186   -0.4573 N   0  0  0  0  0  0  0  0  0  0  0  0
    5.5160   -0.2562    0.6280 C   0  0  0  0  0  0  0  0  0  0  0  0
    6.6267    0.7665    0.8249 C   0  0  0  0  0  0  0  0  0  0  0  0
    6.0722    1.4429   -0.4105 C   0  0  0  0  0  0  0  0  0  0  0  0
    1.2815    0.3463   -0.2220 N   0  0  0  0  0  0  0  0  0  0  0  0
    0.1433   -0.4736   -0.2125 C   0  0  0  0  0  0  0  0  0  0  0  0
   -1.1165    0.1342   -0.1731 C   0  0  0  0  0  0  0  0  0  0  0  0
   -2.2730   -0.6113   -0.1580 C   0  0  0  0  0  0  0  0  0  0  0  0
   -3.5443    0.1152   -0.1442 C   0  0  0  0  0  0  0  0  0  0  0  0
   -4.6449   -0.4137    0.4738 C   0  0  0  0  0  0  0  0  0  0  0  0
   -5.8628    0.2817    0.4630 C   0  0  0  0  0  0  0  0  0  0  0  0
   -5.9639    1.5128   -0.1737 C   0  0  0  0  0  0  0  0  0  0  0  0
   -4.8599    2.0498   -0.7966 C   0  0  0  0  0  0  0  0  0  0  0  0
   -3.6736    1.3479   -0.7731 C   0  0  0  0  0  0  0  0  0  0  0  0
   -7.2409    2.1857   -0.1546 C   0  0  0  0  0  0  0  0  0  0  0  0
   -8.2553    2.7427   -0.1386 N   0  0  0  0  0  0  0  0  0  0  0  0
   -2.2320   -1.9617   -0.1810 N   0  0  0  0  0  0  0  0  0  0  0  0
   -3.1604   -2.9232   -0.1822 N   0  0  0  0  0  0  0  0  0  0  0  0
   -2.5860   -4.1200   -0.2191 C   0  0  0  0  0  0  0  0  0  0  0  0
   -1.2626   -3.9047   -0.2419 N   0  0  0  0  0  0  0  0  0  0  0  0
   -1.0547   -2.5627   -0.2182 C   0  0  0  0  0  0  0  0  0  0  0  0
    0.1456   -1.8442   -0.2346 C   0  0  0  0  0  0  0  0  0  0  0  0
    3.4838    1.7329   -1.1718 H   0  0  0  0  0  0  0  0  0  0  0  0
    3.6013    1.6618    0.6041 H   0  0  0  0  0  0  0  0  0  0  0  0
    5.9924   -1.1950    0.2260 H   0  0  0  0  0  0  0  0  0  0  0  0
    4.8642   -0.4064    1.5002 H   0  0  0  0  0  0  0  0  0  0  0  0
    6.5295    1.3794    1.7452 H   0  0  0  0  0  0  0  0  0  0  0  0
    7.6542    0.3919    0.7352 H   0  0  0  0  0  0  0  0  0  0  0  0
    5.8708    2.4953   -0.2206 H   0  0  0  0  0  0  0  0  0  0  0  0
    6.8179    1.3467   -1.2428 H   0  0  0  0  0  0  0  0  0  0  0  0
    1.1129    1.4044   -0.1220 H   0  0  0  0  0  0  0  0  0  0  0  0
   -1.1930    1.2239   -0.1496 H   0  0  0  0  0  0  0  0  0  0  0  0
   -4.6655   -1.3389    0.9944 H   0  0  0  0  0  0  0  0  0  0  0  0
   -6.7249   -0.1381    0.9496 H   0  0  0  0  0  0  0  0  0  0  0  0
   -4.9411    3.0032   -1.2890 H   0  0  0  0  0  0  0  0  0  0  0  0
   -2.7866    1.7355   -1.2543 H   0  0  0  0  0  0  0  0  0  0  0  0
   -3.0436   -5.1077   -0.2302 H   0  0  0  0  0  0  0  0  0  0  0  0
    1.0587   -2.4075   -0.2622 H   0  0  0  0  0  0  0  0  0  0  0  0
  1  2  2  0
  2  3  1  0
  3  4  1  0
  4  5  1  0
  5  6  1  0
  6  7  1  0
  2  8  1  0
  8  9  1  0
  9 10  1  0
 10 11  2  0
 11 12  1  0
 12 13  2  0
 13 14  1  0
 14 15  2  0
 15 16  1  0
 16 17  2  0
 15 18  1  0
 18 19  3  0
 11 20  1  0
 20 21  1  0
 21 22  2  0
 22 23  1  0
 23 24  2  0
 24 25  1  0
  7  4  1  0
 25  9  2  0
 17 12  1  0
 24 20  1  0
  3 26  1  0
  3 27  1  0
  5 28  1  0
  5 29  1  0
  6 30  1  0
  6 31  1  0
  7 32  1  0
  7 33  1  0
  8 34  1  0
 10 35  1  0
 13 36  1  0
 14 37  1  0
 16 38  1  0
 17 39  1  0
 22 40  1  0
 25 41  1  0
M  END
$$$$
[H]OC(=O)c1c([H])c([H])c(-c2nc([H])c(N3C(=O)N(c4nc([H])nc(OC([H])([H])[H])c4[H])C4(C3=O)C([H])([H])C([H])([H])N(C([H])([H])c3nc([H])c([H])c([H])c3C([H])([H])[H])C([H])([H])C4([H])[H])c([H])c2[H])c(C([H])([H])[H])c1[H]
     RDKit          3D

 75 80  0  0  0  0  0  0  0  0999 V2000
   -2.1009   -8.3780   -0.0443 C   0  0  0  0  0  0  0  0  0  0  0  0
   -1.6606   -7.0645    0.1444 O   0  0  0  0  0  0  0  0  0  0  0  0
   -1.8432   -6.0317   -0.7621 C   0  0  0  0  0  0  0  0  0  0  0  0
   -1.3429   -4.7979   -0.4116 C   0  0  0  0  0  0  0  0  0  0  0  0
   -1.4751   -3.7022   -1.2510 C   0  0  0  0  0  0  0  0  0  0  0  0
   -2.1149   -3.9174   -2.4146 N   0  0  0  0  0  0  0  0  0  0  0  0
   -2.6133   -5.1130   -2.7810 C   0  0  0  0  0  0  0  0  0  0  0  0
   -2.4606   -6.1591   -1.9272 N   0  0  0  0  0  0  0  0  0  0  0  0
   -0.9666   -2.4150   -0.9119 N   0  0  0  0  0  0  0  0  0  0  0  0
    0.3983   -1.9827   -1.0088 C   0  0  0  0  0  0  0  0  0  0  0  0
    1.2517   -2.5339   -1.7849 O   0  0  0  0  0  0  0  0  0  0  0  0
    0.5858   -0.8877   -0.1200 N   0  0  0  0  0  0  0  0  0  0  0  0
   -0.6742   -0.6631    0.5126 C   0  0  0  0  0  0  0  0  0  0  0  0
   -0.8230   -0.0741    1.6158 O   0  0  0  0  0  0  0  0  0  0  0  0
   -1.6711   -1.2590   -0.4011 C   0  0  0  0  0  0  0  0  0  0  0  0
   -2.9135   -1.6950    0.3111 C   0  0  0  0  0  0  0  0  0  0  0  0
   -4.1606   -1.1582   -0.3282 C   0  0  0  0  0  0  0  0  0  0  0  0
   -4.1063    0.2619   -0.5914 N   0  0  0  0  0  0  0  0  0  0  0  0
   -4.7189    1.0319    0.4235 C   0  0  0  0  0  0  0  0  0  0  0  0
   -4.7896    2.4868    0.2165 C   0  0  0  0  0  0  0  0  0  0  0  0
   -4.3436    3.1601   -0.8526 N   0  0  0  0  0  0  0  0  0  0  0  0
   -4.4209    4.4790   -1.0361 C   0  0  0  0  0  0  0  0  0  0  0  0
   -4.9962    5.2678   -0.0825 C   0  0  0  0  0  0  0  0  0  0  0  0
   -5.4858    4.6570    1.0587 C   0  0  0  0  0  0  0  0  0  0  0  0
   -5.3828    3.2964    1.2009 C   0  0  0  0  0  0  0  0  0  0  0  0
   -5.9061    2.6566    2.4157 C   0  0  0  0  0  0  0  0  0  0  0  0
   -2.9565    0.7534   -1.2275 C   0  0  0  0  0  0  0  0  0  0  0  0
   -1.9456   -0.2968   -1.5131 C   0  0  0  0  0  0  0  0  0  0  0  0
    1.8195   -0.1970    0.0546 C   0  0  0  0  0  0  0  0  0  0  0  0
    1.9373    1.1396    0.1874 C   0  0  0  0  0  0  0  0  0  0  0  0
    3.2107    1.7065    0.3502 C   0  0  0  0  0  0  0  0  0  0  0  0
    4.3367    0.9533    0.3804 C   0  0  0  0  0  0  0  0  0  0  0  0
    4.1633   -0.4031    0.2403 N   0  0  0  0  0  0  0  0  0  0  0  0
    2.9804   -0.9460    0.0871 C   0  0  0  0  0  0  0  0  0  0  0  0
    5.6980    1.4375    0.4733 C   0  0  0  0  0  0  0  0  0  0  0  0
    6.6840    0.6421   -0.1557 C   0  0  0  0  0  0  0  0  0  0  0  0
    8.0165    0.9338   -0.1262 C   0  0  0  0  0  0  0  0  0  0  0  0
    8.3980    2.0578    0.5525 C   0  0  0  0  0  0  0  0  0  0  0  0
    7.4855    2.8462    1.1700 C   0  0  0  0  0  0  0  0  0  0  0  0
    6.1102    2.5299    1.1307 C   0  0  0  0  0  0  0  0  0  0  0  0
    5.1947    3.4146    1.8913 C   0  0  0  0  0  0  0  0  0  0  0  0
    9.8109    2.4198    0.6176 C   0  0  0  0  0  0  0  0  0  0  0  0
   10.1831    3.5731    1.3160 O   0  0  0  0  0  0  0  0  0  0  0  0
   10.6411    1.6856    0.0459 O   0  0  0  0  0  0  0  0  0  0  0  0
   -2.1209   -8.6767   -1.1169 H   0  0  0  0  0  0  0  0  0  0  0  0
   -1.4244   -9.0499    0.5439 H   0  0  0  0  0  0  0  0  0  0  0  0
   -3.1100   -8.5006    0.4006 H   0  0  0  0  0  0  0  0  0  0  0  0
   -0.8308   -4.6413    0.5280 H   0  0  0  0  0  0  0  0  0  0  0  0
   -3.1313   -5.2624   -3.7368 H   0  0  0  0  0  0  0  0  0  0  0  0
   -2.9712   -2.7949    0.3360 H   0  0  0  0  0  0  0  0  0  0  0  0
   -2.8644   -1.3379    1.3526 H   0  0  0  0  0  0  0  0  0  0  0  0
   -4.3674   -1.6494   -1.3009 H   0  0  0  0  0  0  0  0  0  0  0  0
   -5.0523   -1.3323    0.3058 H   0  0  0  0  0  0  0  0  0  0  0  0
   -4.2551    0.8403    1.4301 H   0  0  0  0  0  0  0  0  0  0  0  0
   -5.7794    0.6583    0.5430 H   0  0  0  0  0  0  0  0  0  0  0  0
   -4.0285    4.9583   -1.9471 H   0  0  0  0  0  0  0  0  0  0  0  0
   -5.0802    6.3359   -0.1886 H   0  0  0  0  0  0  0  0  0  0  0  0
   -5.9470    5.2789    1.8249 H   0  0  0  0  0  0  0  0  0  0  0  0
   -6.7318    3.2769    2.8750 H   0  0  0  0  0  0  0  0  0  0  0  0
   -6.3668    1.6807    2.2036 H   0  0  0  0  0  0  0  0  0  0  0  0
   -5.1304    2.5119    3.1908 H   0  0  0  0  0  0  0  0  0  0  0  0
   -3.1895    1.3356   -2.1497 H   0  0  0  0  0  0  0  0  0  0  0  0
   -2.4549    1.4818   -0.5256 H   0  0  0  0  0  0  0  0  0  0  0  0
   -2.2925   -0.8687   -2.4158 H   0  0  0  0  0  0  0  0  0  0  0  0
   -1.0054    0.2084   -1.8287 H   0  0  0  0  0  0  0  0  0  0  0  0
    1.0471    1.7583    0.1669 H   0  0  0  0  0  0  0  0  0  0  0  0
    3.2183    2.7885    0.4106 H   0  0  0  0  0  0  0  0  0  0  0  0
    2.9034   -2.0421   -0.0200 H   0  0  0  0  0  0  0  0  0  0  0  0
    6.3552   -0.2411   -0.6865 H   0  0  0  0  0  0  0  0  0  0  0  0
    8.7800    0.3403   -0.5985 H   0  0  0  0  0  0  0  0  0  0  0  0
    7.7848    3.7442    1.7129 H   0  0  0  0  0  0  0  0  0  0  0  0
    4.3704    2.8842    2.3917 H   0  0  0  0  0  0  0  0  0  0  0  0
    5.8252    3.9212    2.7006 H   0  0  0  0  0  0  0  0  0  0  0  0
    4.8139    4.1964    1.2167 H   0  0  0  0  0  0  0  0  0  0  0  0
   10.0033    4.4818    0.8700 H   0  0  0  0  0  0  0  0  0  0  0  0
  1  2  1  0
  2  3  1  0
  3  4  2  0
  4  5  1  0
  5  6  2  0
  6  7  1  0
  7  8  2  0
  5  9  1  0
  9 10  1  0
 10 11  2  0
 10 12  1  0
 12 13  1  0
 13 14  2  0
 13 15  1  0
 15 16  1  0
 16 17  1  0
 17 18  1  0
 18 19  1  0
 19 20  1  0
 20 21  2  0
 21 22  1  0
 22 23  2  0
 23 24  1  0
 24 25  2  0
 25 26  1  0
 18 27  1  0
 27 28  1  0
 12 29  1  0
 29 30  2  0
 30 31  1  0
 31 32  2  0
 32 33  1  0
 33 34  2  0
 32 35  1  0
 35 36  2  0
 36 37  1  0
 37 38  2  0
 38 39  1  0
 39 40  2  0
 40 41  1  0
 38 42  1  0
 42 43  1  0
 42 44  2  0
  8  3  1  0
 15  9  1  0
 28 15  1  0
 34 29  1  0
 40 35  1  0
 25 20  1  0
  1 45  1  0
  1 46  1  0
  1 47  1  0
  4 48  1  0
  7 49  1  0
 16 50  1  0
 16 51  1  0
 17 52  1  0
 17 53  1  0
 19 54  1  0
 19 55  1  0
 22 56  1  0
 23 57  1  0
 24 58  1  0
 26 59  1  0
 26 60  1  0
 26 61  1  0
 27 62  1  0
 27 63  1  0
 28 64  1  0
 28 65  1  0
 30 66  1  0
 31 67  1  0
 34 68  1  0
 36 69  1  0
 37 70  1  0
 39 71  1  0
 41 72  1  0
 41 73  1  0
 41 74  1  0
 43 75  1  0
M  END
$$$$
[H]c1nc2c([H])c(N([H])[H])c([H])c(-c3c([H])nc(C#N)c([H])c3C([H])([H])[H])n2n1
     RDKit          3D

 29 31  0  0  0  0  0  0  0  0999 V2000
    1.2056   -1.8375    0.5042 C   0  0  0  0  0  0  0  0  0  0  0  0
    1.7517   -0.5536    0.0024 C   0  0  0  0  0  0  0  0  0  0  0  0
    3.1069   -0.3605   -0.1620 C   0  0  0  0  0  0  0  0  0  0  0  0
    3.5741    0.8523   -0.6327 C   0  0  0  0  0  0  0  0  0  0  0  0
    2.7296    1.8539   -0.9354 N   0  0  0  0  0  0  0  0  0  0  0  0
    1.4023    1.7028   -0.7881 C   0  0  0  0  0  0  0  0  0  0  0  0
    0.9003    0.4842   -0.3129 C   0  0  0  0  0  0  0  0  0  0  0  0
   -0.5319    0.2705   -0.1357 C   0  0  0  0  0  0  0  0  0  0  0  0
   -1.3214   -0.2318   -1.1443 C   0  0  0  0  0  0  0  0  0  0  0  0
   -2.6782   -0.4495   -1.0201 C   0  0  0  0  0  0  0  0  0  0  0  0
   -3.4581   -0.9741   -2.0981 N   0  0  0  0  0  0  0  0  0  0  0  0
   -3.2265   -0.1294    0.2039 C   0  0  0  0  0  0  0  0  0  0  0  0
   -2.4109    0.3742    1.2014 C   0  0  0  0  0  0  0  0  0  0  0  0
   -2.6961    0.7636    2.4793 N   0  0  0  0  0  0  0  0  0  0  0  0
   -1.5711    1.1883    3.0788 C   0  0  0  0  0  0  0  0  0  0  0  0
   -0.5759    1.0713    2.1921 N   0  0  0  0  0  0  0  0  0  0  0  0
   -1.0975    0.5760    1.0558 N   0  0  0  0  0  0  0  0  0  0  0  0
    5.0119    1.0090   -0.7897 C   0  0  0  0  0  0  0  0  0  0  0  0
    6.1567    1.1194   -0.9239 N   0  0  0  0  0  0  0  0  0  0  0  0
    1.8245   -2.6684    0.0675 H   0  0  0  0  0  0  0  0  0  0  0  0
    1.3163   -1.9412    1.6015 H   0  0  0  0  0  0  0  0  0  0  0  0
    0.1736   -2.0307    0.1588 H   0  0  0  0  0  0  0  0  0  0  0  0
    3.8207   -1.1579    0.0761 H   0  0  0  0  0  0  0  0  0  0  0  0
    0.6985    2.4941   -1.0247 H   0  0  0  0  0  0  0  0  0  0  0  0
   -0.8745   -0.4802   -2.1058 H   0  0  0  0  0  0  0  0  0  0  0  0
   -3.6557   -0.2780   -2.8759 H   0  0  0  0  0  0  0  0  0  0  0  0
   -3.8091   -1.9494   -2.1333 H   0  0  0  0  0  0  0  0  0  0  0  0
   -4.2855   -0.2782    0.3613 H   0  0  0  0  0  0  0  0  0  0  0  0
   -1.4802    1.5606    4.0997 H   0  0  0  0  0  0  0  0  0  0  0  0
  1  2  1  0
  2  3  2  0
  3  4  1  0
  4  5  2  0
  5  6  1  0
  6  7  2  0
  7  8  1  0
  8  9  2  0
  9 10  1  0
 10 11  1  0
 10 12  2  0
 12 13  1  0
 13 14  2  0
 14 15  1  0
 15 16  2  0
 16 17  1  0
  4 18  1  0
 18 19  3  0
  7  2  1  0
 17  8  1  0
 17 13  1  0
  1 20  1  0
  1 21  1  0
  1 22  1  0
  3 23  1  0
  6 24  1  0
  9 25  1  0
 11 26  1  0
 11 27  1  0
 12 28  1  0
 15 29  1  0
M  END
$$$$
[H]c1nc2c([H])c([H])c([H])c(-c3c([H])c([H])c(C#N)c([H])c3[H])n2n1
     RDKit          3D

 25 27  0  0  0  0  0  0  0  0999 V2000
    6.0454    0.3926   -0.1254 N   0  0  0  0  0  0  0  0  0  0  0  0
    4.9036    0.2552   -0.1118 C   0  0  0  0  0  0  0  0  0  0  0  0
    3.4686    0.0970   -0.0764 C   0  0  0  0  0  0  0  0  0  0  0  0
    2.7295   -0.1497   -1.2149 C   0  0  0  0  0  0  0  0  0  0  0  0
    1.3628   -0.3012   -1.1859 C   0  0  0  0  0  0  0  0  0  0  0  0
    0.6674   -0.2110   -0.0000 C   0  0  0  0  0  0  0  0  0  0  0  0
    1.3879    0.0355    1.1517 C   0  0  0  0  0  0  0  0  0  0  0  0
    2.7567    0.1842    1.1022 C   0  0  0  0  0  0  0  0  0  0  0  0
   -0.7811   -0.3676    0.0577 C   0  0  0  0  0  0  0  0  0  0  0  0
   -1.2789   -1.6322    0.2537 C   0  0  0  0  0  0  0  0  0  0  0  0
   -2.6531   -1.8586    0.3197 C   0  0  0  0  0  0  0  0  0  0  0  0
   -3.5110   -0.8053    0.1871 C   0  0  0  0  0  0  0  0  0  0  0  0
   -2.9818    0.4595   -0.0097 C   0  0  0  0  0  0  0  0  0  0  0  0
   -3.6050    1.6178   -0.1632 N   0  0  0  0  0  0  0  0  0  0  0  0
   -2.6599    2.5631   -0.3235 C   0  0  0  0  0  0  0  0  0  0  0  0
   -1.4637    1.9295   -0.2601 N   0  0  0  0  0  0  0  0  0  0  0  0
   -1.6369    0.6495   -0.0697 N   0  0  0  0  0  0  0  0  0  0  0  0
    3.3056   -0.2166   -2.1421 H   0  0  0  0  0  0  0  0  0  0  0  0
    0.8138   -0.4943   -2.1010 H   0  0  0  0  0  0  0  0  0  0  0  0
    0.8895    0.1169    2.1192 H   0  0  0  0  0  0  0  0  0  0  0  0
    3.3500    0.3797    1.9984 H   0  0  0  0  0  0  0  0  0  0  0  0
   -0.6477   -2.4833    0.3623 H   0  0  0  0  0  0  0  0  0  0  0  0
   -3.0607   -2.8479    0.4735 H   0  0  0  0  0  0  0  0  0  0  0  0
   -4.5715   -0.9510    0.2339 H   0  0  0  0  0  0  0  0  0  0  0  0
   -2.8292    3.6382   -0.4759 H   0  0  0  0  0  0  0  0  0  0  0  0
  1  2  3  0
  2  3  1  0
  3  4  2  0
  4  5  1  0
  5  6  2  0
  6  7  1  0
  7  8  2  0
  6  9  1  0
  9 10  2  0
 10 11  1  0
 11 12  2  0
 12 13  1  0
 13 14  2  0
 14 15  1  0
 15 16  2  0
 16 17  1  0
  8  3  1  0
 17  9  1  0
 17 13  1  0
  4 18  1  0
  5 19  1  0
  7 20  1  0
  8 21  1  0
 10 22  1  0
 11 23  1  0
 12 24  1  0
 15 25  1  0
M  END
$$$$
[H]c1nc2c([H])c([H])c([H])c(-c3c([H])c([H])c(C#N)c([H])c3Br)n2n1
     RDKit          3D

 25 27  0  0  0  0  0  0  0  0999 V2000
    0.5244   -0.2882    2.6930 Br  0  0  0  0  0  0  0  0  0  0  0  0
    1.4236   -0.3489    1.0040 C   0  0  0  0  0  0  0  0  0  0  0  0
    2.7186   -0.8139    0.8929 C   0  0  0  0  0  0  0  0  0  0  0  0
    3.3666   -0.8577   -0.3244 C   0  0  0  0  0  0  0  0  0  0  0  0
    2.6584   -0.4149   -1.4230 C   0  0  0  0  0  0  0  0  0  0  0  0
    1.3637    0.0499   -1.3113 C   0  0  0  0  0  0  0  0  0  0  0  0
    0.7158    0.0937   -0.0943 C   0  0  0  0  0  0  0  0  0  0  0  0
   -0.6634    0.5852    0.0468 C   0  0  0  0  0  0  0  0  0  0  0  0
   -0.9302    1.9171    0.2933 C   0  0  0  0  0  0  0  0  0  0  0  0
   -2.2197    2.3853    0.4268 C   0  0  0  0  0  0  0  0  0  0  0  0
   -3.2564    1.5016    0.3108 C   0  0  0  0  0  0  0  0  0  0  0  0
   -2.9558    0.1914    0.0668 C   0  0  0  0  0  0  0  0  0  0  0  0
   -3.7760   -0.8615   -0.0878 N   0  0  0  0  0  0  0  0  0  0  0  0
   -3.0337   -1.9519   -0.3101 C   0  0  0  0  0  0  0  0  0  0  0  0
   -1.7426   -1.5870   -0.2959 N   0  0  0  0  0  0  0  0  0  0  0  0
   -1.7036   -0.2779   -0.0654 N   0  0  0  0  0  0  0  0  0  0  0  0
    4.7231   -1.3438   -0.4463 C   0  0  0  0  0  0  0  0  0  0  0  0
    5.8076   -1.7398   -0.5286 N   0  0  0  0  0  0  0  0  0  0  0  0
    3.2624   -1.1579    1.7608 H   0  0  0  0  0  0  0  0  0  0  0  0
    3.1758   -0.4514   -2.3854 H   0  0  0  0  0  0  0  0  0  0  0  0
    0.8122    0.3959   -2.1739 H   0  0  0  0  0  0  0  0  0  0  0  0
   -0.0988    2.6034    0.3824 H   0  0  0  0  0  0  0  0  0  0  0  0
   -2.4488    3.4325    0.6214 H   0  0  0  0  0  0  0  0  0  0  0  0
   -4.2793    1.8747    0.4169 H   0  0  0  0  0  0  0  0  0  0  0  0
   -3.4439   -2.9360   -0.4684 H   0  0  0  0  0  0  0  0  0  0  0  0
  1  2  1  0
  2  3  2  0
  3  4  1  0
  4  5  2  0
  5  6  1  0
  6  7  2  0
  7  8  1  0
  8  9  2  0
  9 10  1  0
 10 11  2  0
 11 12  1  0
 12 13  2  0
 13 14  1  0
 14 15  2  0
 15 16  1  0
  4 17  1  0
 17 18  3  0
  7  2  1  0
 16  8  1  0
 16 12  1  0
  3 19  1  0
  5 20  1  0
  6 21  1  0
  9 22  1  0
 10 23  1  0
 11 24  1  0
 14 25  1  0
M  END
$$$$
[H]c1nc(C([H])([H])N2C([H])([H])C([H])([H])C3(C(=O)N(c4c([H])c([H])c(-c5c([H])nc(=O)n([H])c5[H])c([H])c4[H])C(=O)N3c3nc([H])n([H])c(=O)c3[H])C([H])([H])C2([H])[H])c(C([H])([H])[H])c([H])c1[H]
     RDKit          3D

 66 71  0  0  0  0  0  0  0  0999 V2000
   -6.8553    1.4598    0.1941 C   0  0  0  0  0  0  0  0  0  0  0  0
   -5.8466    2.2600   -0.5326 C   0  0  0  0  0  0  0  0  0  0  0  0
   -6.2595    3.3465   -1.2405 C   0  0  0  0  0  0  0  0  0  0  0  0
   -5.3360    4.1034   -1.9270 C   0  0  0  0  0  0  0  0  0  0  0  0
   -3.9929    3.7170   -1.8659 C   0  0  0  0  0  0  0  0  0  0  0  0
   -3.6243    2.6402   -1.1562 N   0  0  0  0  0  0  0  0  0  0  0  0
   -4.4942    1.8769   -0.4738 C   0  0  0  0  0  0  0  0  0  0  0  0
   -4.1773    0.7257    0.3363 C   0  0  0  0  0  0  0  0  0  0  0  0
   -2.7702    0.3073    0.3675 N   0  0  0  0  0  0  0  0  0  0  0  0
   -2.6717   -0.7046    1.4128 C   0  0  0  0  0  0  0  0  0  0  0  0
   -1.7402   -1.8185    1.1600 C   0  0  0  0  0  0  0  0  0  0  0  0
   -0.6285   -1.4984    0.2359 C   0  0  0  0  0  0  0  0  0  0  0  0
   -1.2191   -0.9952   -1.0618 C   0  0  0  0  0  0  0  0  0  0  0  0
   -2.5132   -0.2806   -0.9334 C   0  0  0  0  0  0  0  0  0  0  0  0
    0.2386   -2.6451   -0.0181 N   0  0  0  0  0  0  0  0  0  0  0  0
    1.5744   -2.1415   -0.1694 C   0  0  0  0  0  0  0  0  0  0  0  0
    2.5791   -2.7427   -0.6225 O   0  0  0  0  0  0  0  0  0  0  0  0
    1.6278   -0.7874    0.2861 N   0  0  0  0  0  0  0  0  0  0  0  0
    0.3129   -0.4770    0.7174 C   0  0  0  0  0  0  0  0  0  0  0  0
    0.0454    0.5364    1.4072 O   0  0  0  0  0  0  0  0  0  0  0  0
    2.8006    0.0533    0.2715 C   0  0  0  0  0  0  0  0  0  0  0  0
    3.4739    0.2843    1.4416 C   0  0  0  0  0  0  0  0  0  0  0  0
    4.6140    1.0741    1.4337 C   0  0  0  0  0  0  0  0  0  0  0  0
    5.1068    1.6474    0.2770 C   0  0  0  0  0  0  0  0  0  0  0  0
    4.4210    1.4091   -0.8921 C   0  0  0  0  0  0  0  0  0  0  0  0
    3.2808    0.6198   -0.8890 C   0  0  0  0  0  0  0  0  0  0  0  0
    6.3202    2.4634    0.2515 C   0  0  0  0  0  0  0  0  0  0  0  0
    7.1407    2.5095   -0.8565 C   0  0  0  0  0  0  0  0  0  0  0  0
    8.2407    3.2778   -0.7804 N   0  0  0  0  0  0  0  0  0  0  0  0
    8.5514    3.9831    0.3201 C   0  0  0  0  0  0  0  0  0  0  0  0
    9.5928    4.6951    0.3604 O   0  0  0  0  0  0  0  0  0  0  0  0
    7.7708    3.9505    1.4002 N   0  0  0  0  0  0  0  0  0  0  0  0
    6.6603    3.1942    1.3659 C   0  0  0  0  0  0  0  0  0  0  0  0
   -0.0516   -4.0280   -0.1455 C   0  0  0  0  0  0  0  0  0  0  0  0
   -0.5382   -4.8019    0.8661 C   0  0  0  0  0  0  0  0  0  0  0  0
   -0.7737   -6.1560    0.6132 C   0  0  0  0  0  0  0  0  0  0  0  0
   -1.2219   -6.8667    1.5466 O   0  0  0  0  0  0  0  0  0  0  0  0
   -0.5421   -6.7246   -0.5797 N   0  0  0  0  0  0  0  0  0  0  0  0
   -0.0594   -5.9324   -1.5647 C   0  0  0  0  0  0  0  0  0  0  0  0
    0.1708   -4.6474   -1.3456 N   0  0  0  0  0  0  0  0  0  0  0  0
   -7.5414    0.9357   -0.5152 H   0  0  0  0  0  0  0  0  0  0  0  0
   -6.4168    0.7622    0.9255 H   0  0  0  0  0  0  0  0  0  0  0  0
   -7.5122    2.2195    0.7124 H   0  0  0  0  0  0  0  0  0  0  0  0
   -7.2892    3.6713   -1.3070 H   0  0  0  0  0  0  0  0  0  0  0  0
   -5.6406    4.9692   -2.4959 H   0  0  0  0  0  0  0  0  0  0  0  0
   -3.2702    4.3108   -2.4045 H   0  0  0  0  0  0  0  0  0  0  0  0
   -4.4698    0.9181    1.4150 H   0  0  0  0  0  0  0  0  0  0  0  0
   -4.8243   -0.1568    0.0497 H   0  0  0  0  0  0  0  0  0  0  0  0
   -3.7001   -1.1573    1.5550 H   0  0  0  0  0  0  0  0  0  0  0  0
   -2.5062   -0.2027    2.4165 H   0  0  0  0  0  0  0  0  0  0  0  0
   -1.3806   -2.2065    2.1529 H   0  0  0  0  0  0  0  0  0  0  0  0
   -2.3123   -2.6705    0.7001 H   0  0  0  0  0  0  0  0  0  0  0  0
   -1.3977   -1.9241   -1.6803 H   0  0  0  0  0  0  0  0  0  0  0  0
   -0.4373   -0.4371   -1.6421 H   0  0  0  0  0  0  0  0  0  0  0  0
   -2.5145    0.5281   -1.6835 H   0  0  0  0  0  0  0  0  0  0  0  0
   -3.3889   -0.9179   -1.1640 H   0  0  0  0  0  0  0  0  0  0  0  0
    3.1513   -0.1289    2.3982 H   0  0  0  0  0  0  0  0  0  0  0  0
    5.1670    1.2771    2.3476 H   0  0  0  0  0  0  0  0  0  0  0  0
    4.7661    1.8371   -1.8357 H   0  0  0  0  0  0  0  0  0  0  0  0
    2.7570    0.4459   -1.8419 H   0  0  0  0  0  0  0  0  0  0  0  0
    6.8552    1.9310   -1.7129 H   0  0  0  0  0  0  0  0  0  0  0  0
    7.9923    4.4868    2.2607 H   0  0  0  0  0  0  0  0  0  0  0  0
    6.0390    3.1723    2.2347 H   0  0  0  0  0  0  0  0  0  0  0  0
   -0.7418   -4.4178    1.8535 H   0  0  0  0  0  0  0  0  0  0  0  0
   -0.7180   -7.7433   -0.7734 H   0  0  0  0  0  0  0  0  0  0  0  0
    0.1268   -6.3889   -2.5240 H   0  0  0  0  0  0  0  0  0  0  0  0
  1  2  1  0
  2  3  2  0
  3  4  1  0
  4  5  2  0
  5  6  1  0
  6  7  2  0
  7  8  1  0
  8  9  1  0
  9 10  1  0
 10 11  1  0
 11 12  1  0
 12 13  1  0
 13 14  1  0
 12 15  1  0
 15 16  1  0
 16 17  2  0
 16 18  1  0
 18 19  1  0
 19 20  2  0
 18 21  1  0
 21 22  2  0
 22 23  1  0
 23 24  2  0
 24 25  1  0
 25 26  2  0
 24 27  1  0
 27 28  1  0
 28 29  2  0
 29 30  1  0
 30 31  2  0
 30 32  1  0
 32 33  1  0
 15 34  1  0
 34 35  2  0
 35 36  1  0
 36 37  2  0
 36 38  1  0
 38 39  1  0
 39 40  2  0
  7  2  1  0
 14  9  1  0
 26 21  1  0
 33 27  2  0
 40 34  1  0
 19 12  1  0
  1 41  1  0
  1 42  1  0
  1 43  1  0
  3 44  1  0
  4 45  1  0
  5 46  1  0
  8 47  1  0
  8 48  1  0
 10 49  1  0
 10 50  1  0
 11 51  1  0
 11 52  1  0
 13 53  1  0
 13 54  1  0
 14 55  1  0
 14 56  1  0
 22 57  1  0
 23 58  1  0
 25 59  1  0
 26 60  1  0
 28 61  1  0
 32 62  1  0
 33 63  1  0
 35 64  1  0
 38 65  1  0
 39 66  1  0
M  END
$$$$
[H]c1nc(OC([H])([H])[H])c([H])c(N2C(=O)N(c3c([H])c([H])c(-c4c([H])c([H])c(C(=O)N([H])[H])c([H])c4[H])c([H])c3[H])C(=O)C23C([H])([H])C([H])([H])N(C([H])([H])c2nc([H])c([H])c([H])c2C([H])([H])[H])C([H])([H])C3([H])[H])n1
     RDKit          3D

 74 79  0  0  0  0  0  0  0  0999 V2000
   -2.3641    7.5743   -0.8928 C   0  0  0  0  0  0  0  0  0  0  0  0
   -1.7377    6.3371   -1.1316 O   0  0  0  0  0  0  0  0  0  0  0  0
   -1.8460    5.3338   -0.1661 C   0  0  0  0  0  0  0  0  0  0  0  0
   -1.2294    4.1201   -0.4005 C   0  0  0  0  0  0  0  0  0  0  0  0
   -1.3260    3.1175    0.5440 C   0  0  0  0  0  0  0  0  0  0  0  0
   -2.0203    3.3667    1.6571 N   0  0  0  0  0  0  0  0  0  0  0  0
   -2.6161    4.5498    1.8754 C   0  0  0  0  0  0  0  0  0  0  0  0
   -2.5356    5.5434    0.9685 N   0  0  0  0  0  0  0  0  0  0  0  0
   -0.6600    1.8918    0.2566 N   0  0  0  0  0  0  0  0  0  0  0  0
    0.7711    1.7637    0.0918 C   0  0  0  0  0  0  0  0  0  0  0  0
    1.5317    2.7374   -0.1442 O   0  0  0  0  0  0  0  0  0  0  0  0
    1.0641    0.3795    0.2515 N   0  0  0  0  0  0  0  0  0  0  0  0
   -0.1466   -0.3172    0.5040 C   0  0  0  0  0  0  0  0  0  0  0  0
   -0.1773   -1.4700    0.9902 O   0  0  0  0  0  0  0  0  0  0  0  0
   -1.2559    0.5926    0.0800 C   0  0  0  0  0  0  0  0  0  0  0  0
   -1.5407    0.3187   -1.3902 C   0  0  0  0  0  0  0  0  0  0  0  0
   -3.0338    0.4148   -1.5868 C   0  0  0  0  0  0  0  0  0  0  0  0
   -3.6706   -0.7594   -1.0142 N   0  0  0  0  0  0  0  0  0  0  0  0
   -5.1090   -0.6057   -0.9560 C   0  0  0  0  0  0  0  0  0  0  0  0
   -5.7100   -1.8506   -0.4905 C   0  0  0  0  0  0  0  0  0  0  0  0
   -5.0116   -2.9616   -0.2014 N   0  0  0  0  0  0  0  0  0  0  0  0
   -5.5793   -4.1061    0.2110 C   0  0  0  0  0  0  0  0  0  0  0  0
   -6.9440   -4.1610    0.3500 C   0  0  0  0  0  0  0  0  0  0  0  0
   -7.6969   -3.0455    0.0641 C   0  0  0  0  0  0  0  0  0  0  0  0
   -7.0871   -1.8939   -0.3543 C   0  0  0  0  0  0  0  0  0  0  0  0
   -7.8776   -0.7099   -0.6577 C   0  0  0  0  0  0  0  0  0  0  0  0
   -3.1957   -0.8778    0.3711 C   0  0  0  0  0  0  0  0  0  0  0  0
   -2.5041    0.3695    0.8570 C   0  0  0  0  0  0  0  0  0  0  0  0
    2.3820   -0.1480    0.1656 C   0  0  0  0  0  0  0  0  0  0  0  0
    3.1665    0.1434   -0.9311 C   0  0  0  0  0  0  0  0  0  0  0  0
    4.4459   -0.3277   -1.0548 C   0  0  0  0  0  0  0  0  0  0  0  0
    4.9992   -1.1209   -0.0699 C   0  0  0  0  0  0  0  0  0  0  0  0
    4.1970   -1.4117    1.0384 C   0  0  0  0  0  0  0  0  0  0  0  0
    2.9087   -0.9332    1.1548 C   0  0  0  0  0  0  0  0  0  0  0  0
    6.3693   -1.6357   -0.1575 C   0  0  0  0  0  0  0  0  0  0  0  0
    6.8806   -1.9123   -1.4245 C   0  0  0  0  0  0  0  0  0  0  0  0
    8.1676   -2.3967   -1.5563 C   0  0  0  0  0  0  0  0  0  0  0  0
    8.9406   -2.6045   -0.4452 C   0  0  0  0  0  0  0  0  0  0  0  0
    8.4096   -2.3212    0.8156 C   0  0  0  0  0  0  0  0  0  0  0  0
    7.1367   -1.8415    0.9604 C   0  0  0  0  0  0  0  0  0  0  0  0
   10.3034   -3.1114   -0.5433 C   0  0  0  0  0  0  0  0  0  0  0  0
   11.0519   -3.3870    0.6220 N   0  0  0  0  0  0  0  0  0  0  0  0
   10.8225   -3.3069   -1.6715 O   0  0  0  0  0  0  0  0  0  0  0  0
   -2.3877    7.8223    0.2039 H   0  0  0  0  0  0  0  0  0  0  0  0
   -1.7727    8.3745   -1.3915 H   0  0  0  0  0  0  0  0  0  0  0  0
   -3.4090    7.5249   -1.2625 H   0  0  0  0  0  0  0  0  0  0  0  0
   -0.6664    3.9510   -1.3291 H   0  0  0  0  0  0  0  0  0  0  0  0
   -3.1779    4.7414    2.7819 H   0  0  0  0  0  0  0  0  0  0  0  0
   -1.1777   -0.6901   -1.6377 H   0  0  0  0  0  0  0  0  0  0  0  0
   -1.0234    1.0355   -2.0532 H   0  0  0  0  0  0  0  0  0  0  0  0
   -3.2265    0.4854   -2.6740 H   0  0  0  0  0  0  0  0  0  0  0  0
   -3.3960    1.3530   -1.1433 H   0  0  0  0  0  0  0  0  0  0  0  0
   -5.4424   -0.4070   -1.9996 H   0  0  0  0  0  0  0  0  0  0  0  0
   -5.3029    0.2628   -0.2932 H   0  0  0  0  0  0  0  0  0  0  0  0
   -5.0292   -5.0073    0.4472 H   0  0  0  0  0  0  0  0  0  0  0  0
   -7.4377   -5.0580    0.6769 H   0  0  0  0  0  0  0  0  0  0  0  0
   -8.7866   -3.1012    0.1790 H   0  0  0  0  0  0  0  0  0  0  0  0
   -8.1967   -0.2455    0.3104 H   0  0  0  0  0  0  0  0  0  0  0  0
   -7.3888    0.0129   -1.3296 H   0  0  0  0  0  0  0  0  0  0  0  0
   -8.8239   -1.0294   -1.1647 H   0  0  0  0  0  0  0  0  0  0  0  0
   -2.5640   -1.7548    0.5161 H   0  0  0  0  0  0  0  0  0  0  0  0
   -4.0789   -0.9964    1.0731 H   0  0  0  0  0  0  0  0  0  0  0  0
   -2.2069    0.1667    1.9112 H   0  0  0  0  0  0  0  0  0  0  0  0
   -3.1831    1.2313    0.8642 H   0  0  0  0  0  0  0  0  0  0  0  0
    2.8068    0.7615   -1.7539 H   0  0  0  0  0  0  0  0  0  0  0  0
    5.0703   -0.1087   -1.9058 H   0  0  0  0  0  0  0  0  0  0  0  0
    4.6069   -2.0280    1.8182 H   0  0  0  0  0  0  0  0  0  0  0  0
    2.3543   -1.2012    2.0384 H   0  0  0  0  0  0  0  0  0  0  0  0
    6.2358   -1.7339   -2.2947 H   0  0  0  0  0  0  0  0  0  0  0  0
    8.5381   -2.6026   -2.5544 H   0  0  0  0  0  0  0  0  0  0  0  0
    9.0238   -2.4862    1.7014 H   0  0  0  0  0  0  0  0  0  0  0  0
    6.7324   -1.6241    1.9249 H   0  0  0  0  0  0  0  0  0  0  0  0
   11.4791   -2.5967    1.1833 H   0  0  0  0  0  0  0  0  0  0  0  0
   11.1579   -4.3886    0.8917 H   0  0  0  0  0  0  0  0  0  0  0  0
  1  2  1  0
  2  3  1  0
  3  4  2  0
  4  5  1  0
  5  6  2  0
  6  7  1  0
  7  8  2  0
  5  9  1  0
  9 10  1  0
 10 11  2  0
 10 12  1  0
 12 13  1  0
 13 14  2  0
 13 15  1  0
 15 16  1  0
 16 17  1  0
 17 18  1  0
 18 19  1  0
 19 20  1  0
 20 21  2  0
 21 22  1  0
 22 23  2  0
 23 24  1  0
 24 25  2  0
 25 26  1  0
 18 27  1  0
 27 28  1  0
 12 29  1  0
 29 30  2  0
 30 31  1  0
 31 32  2  0
 32 33  1  0
 33 34  2  0
 32 35  1  0
 35 36  2  0
 36 37  1  0
 37 38  2  0
 38 39  1  0
 39 40  2  0
 38 41  1  0
 41 42  1  0
 41 43  2  0
  8  3  1  0
 15  9  1  0
 28 15  1  0
 34 29  1  0
 40 35  1  0
 25 20  1  0
  1 44  1  0
  1 45  1  0
  1 46  1  0
  4 47  1  0
  7 48  1  0
 16 49  1  0
 16 50  1  0
 17 51  1  0
 17 52  1  0
 19 53  1  0
 19 54  1  0
 22 55  1  0
 23 56  1  0
 24 57  1  0
 26 58  1  0
 26 59  1  0
 26 60  1  0
 27 61  1  0
 27 62  1  0
 28 63  1  0
 28 64  1  0
 30 65  1  0
 31 66  1  0
 33 67  1  0
 34 68  1  0
 36 69  1  0
 37 70  1  0
 39 71  1  0
 40 72  1  0
 42 73  1  0
 42 74  1  0
M  END
$$$$
[H]c1nc(OC([H])([H])[H])c([H])c(N2C(=O)N(c3c([H])c([H])c(-c4c([H])c([H])c(C#N)c([H])c4[H])c([H])c3[H])C(=O)C23C([H])([H])C([H])([H])N(C([H])([H])c2nc([H])c([H])c([H])c2C([H])([H])[H])C([H])([H])C3([H])[H])n1
     RDKit          3D

 71 76  0  0  0  0  0  0  0  0999 V2000
    0.3788    8.1057   -0.2075 C   0  0  0  0  0  0  0  0  0  0  0  0
   -0.2047    6.8145   -0.2966 O   0  0  0  0  0  0  0  0  0  0  0  0
    0.5595    5.7290    0.0999 C   0  0  0  0  0  0  0  0  0  0  0  0
    0.0331    4.4377    0.0307 C   0  0  0  0  0  0  0  0  0  0  0  0
    0.7621    3.3142    0.4134 C   0  0  0  0  0  0  0  0  0  0  0  0
    2.0039    3.6227    0.8462 N   0  0  0  0  0  0  0  0  0  0  0  0
    2.5450    4.8190    0.9309 C   0  0  0  0  0  0  0  0  0  0  0  0
    1.8159    5.8826    0.5544 N   0  0  0  0  0  0  0  0  0  0  0  0
    0.2668    1.9988    0.3632 N   0  0  0  0  0  0  0  0  0  0  0  0
   -1.0271    1.6481   -0.2031 C   0  0  0  0  0  0  0  0  0  0  0  0
   -1.6198    2.2837   -1.1123 O   0  0  0  0  0  0  0  0  0  0  0  0
   -1.4824    0.4624    0.4597 N   0  0  0  0  0  0  0  0  0  0  0  0
   -0.4763    0.1220    1.3895 C   0  0  0  0  0  0  0  0  0  0  0  0
   -0.5656   -0.5297    2.4739 O   0  0  0  0  0  0  0  0  0  0  0  0
    0.8089    0.7272    0.8065 C   0  0  0  0  0  0  0  0  0  0  0  0
    1.1138   -0.1655   -0.3679 C   0  0  0  0  0  0  0  0  0  0  0  0
    2.5643   -0.1979   -0.7684 C   0  0  0  0  0  0  0  0  0  0  0  0
    3.4669    0.0128    0.2788 N   0  0  0  0  0  0  0  0  0  0  0  0
    4.8390   -0.2126    0.0788 C   0  0  0  0  0  0  0  0  0  0  0  0
    5.1828   -1.6205   -0.1067 C   0  0  0  0  0  0  0  0  0  0  0  0
    4.2820   -2.5869   -0.0252 N   0  0  0  0  0  0  0  0  0  0  0  0
    4.6518   -3.8770   -0.1766 C   0  0  0  0  0  0  0  0  0  0  0  0
    5.9534   -4.2406   -0.4175 C   0  0  0  0  0  0  0  0  0  0  0  0
    6.9361   -3.2568   -0.5117 C   0  0  0  0  0  0  0  0  0  0  0  0
    6.4944   -1.9585   -0.3479 C   0  0  0  0  0  0  0  0  0  0  0  0
    7.4873   -0.8390   -0.4299 C   0  0  0  0  0  0  0  0  0  0  0  0
    2.9841   -0.1708    1.5935 C   0  0  0  0  0  0  0  0  0  0  0  0
    1.7828    0.7257    1.8958 C   0  0  0  0  0  0  0  0  0  0  0  0
   -2.7001   -0.2484    0.2710 C   0  0  0  0  0  0  0  0  0  0  0  0
   -3.7765    0.3305   -0.3395 C   0  0  0  0  0  0  0  0  0  0  0  0
   -4.9444   -0.4172   -0.4638 C   0  0  0  0  0  0  0  0  0  0  0  0
   -5.0334   -1.7007    0.0069 C   0  0  0  0  0  0  0  0  0  0  0  0
   -3.9478   -2.2686    0.6146 C   0  0  0  0  0  0  0  0  0  0  0  0
   -2.7983   -1.5508    0.7439 C   0  0  0  0  0  0  0  0  0  0  0  0
   -6.2712   -2.4324   -0.1199 C   0  0  0  0  0  0  0  0  0  0  0  0
   -6.6747   -3.3848    0.8121 C   0  0  0  0  0  0  0  0  0  0  0  0
   -7.8882   -4.0450    0.6415 C   0  0  0  0  0  0  0  0  0  0  0  0
   -8.6839   -3.7724   -0.4229 C   0  0  0  0  0  0  0  0  0  0  0  0
   -8.3133   -2.8494   -1.3461 C   0  0  0  0  0  0  0  0  0  0  0  0
   -7.0942   -2.1815   -1.1810 C   0  0  0  0  0  0  0  0  0  0  0  0
   -9.9416   -4.4469   -0.5902 C   0  0  0  0  0  0  0  0  0  0  0  0
  -10.9773   -4.9772   -0.7252 N   0  0  0  0  0  0  0  0  0  0  0  0
   -0.0811    8.6939    0.6298 H   0  0  0  0  0  0  0  0  0  0  0  0
    1.4487    8.0339   -0.0015 H   0  0  0  0  0  0  0  0  0  0  0  0
    0.1851    8.6868   -1.1339 H   0  0  0  0  0  0  0  0  0  0  0  0
   -0.9640    4.3464   -0.3257 H   0  0  0  0  0  0  0  0  0  0  0  0
    3.5645    4.9948    1.3003 H   0  0  0  0  0  0  0  0  0  0  0  0
    0.7352   -1.1989   -0.2657 H   0  0  0  0  0  0  0  0  0  0  0  0
    0.5677    0.2667   -1.2420 H   0  0  0  0  0  0  0  0  0  0  0  0
    2.7263   -1.1723   -1.2652 H   0  0  0  0  0  0  0  0  0  0  0  0
    2.7615    0.5521   -1.5896 H   0  0  0  0  0  0  0  0  0  0  0  0
    5.1775    0.4219   -0.7910 H   0  0  0  0  0  0  0  0  0  0  0  0
    5.4376    0.1158    0.9979 H   0  0  0  0  0  0  0  0  0  0  0  0
    3.8799   -4.6673   -0.0998 H   0  0  0  0  0  0  0  0  0  0  0  0
    6.2259   -5.2821   -0.5352 H   0  0  0  0  0  0  0  0  0  0  0  0
    7.9540   -3.5044   -0.6978 H   0  0  0  0  0  0  0  0  0  0  0  0
    7.1763   -0.0703   -1.1770 H   0  0  0  0  0  0  0  0  0  0  0  0
    8.4273   -1.2692   -0.8205 H   0  0  0  0  0  0  0  0  0  0  0  0
    7.7231   -0.4115    0.5654 H   0  0  0  0  0  0  0  0  0  0  0  0
    2.7402   -1.2339    1.7545 H   0  0  0  0  0  0  0  0  0  0  0  0
    3.7673    0.0996    2.3245 H   0  0  0  0  0  0  0  0  0  0  0  0
    2.1960    1.6636    2.2582 H   0  0  0  0  0  0  0  0  0  0  0  0
    1.3475    0.2442    2.8374 H   0  0  0  0  0  0  0  0  0  0  0  0
   -3.7521    1.3579   -0.7293 H   0  0  0  0  0  0  0  0  0  0  0  0
   -5.7861    0.0669   -0.9567 H   0  0  0  0  0  0  0  0  0  0  0  0
   -3.9744   -3.2876    1.0049 H   0  0  0  0  0  0  0  0  0  0  0  0
   -1.9514   -2.0589    1.2360 H   0  0  0  0  0  0  0  0  0  0  0  0
   -6.0700   -3.6135    1.6541 H   0  0  0  0  0  0  0  0  0  0  0  0
   -8.2121   -4.7894    1.3668 H   0  0  0  0  0  0  0  0  0  0  0  0
   -8.9523   -2.6448   -2.1886 H   0  0  0  0  0  0  0  0  0  0  0  0
   -6.7901   -1.4456   -1.9155 H   0  0  0  0  0  0  0  0  0  0  0  0
  1  2  1  0
  2  3  1  0
  3  4  2  0
  4  5  1  0
  5  6  2  0
  6  7  1  0
  7  8  2  0
  5  9  1  0
  9 10  1  0
 10 11  2  0
 10 12  1  0
 12 13  1  0
 13 14  2  0
 13 15  1  0
 15 16  1  0
 16 17  1  0
 17 18  1  0
 18 19  1  0
 19 20  1  0
 20 21  2  0
 21 22  1  0
 22 23  2  0
 23 24  1  0
 24 25  2  0
 25 26  1  0
 18 27  1  0
 27 28  1  0
 12 29  1  0
 29 30  2  0
 30 31  1  0
 31 32  2  0
 32 33  1  0
 33 34  2  0
 32 35  1  0
 35 36  2  0
 36 37  1  0
 37 38  2  0
 38 39  1  0
 39 40  2  0
 38 41  1  0
 41 42  3  0
  8  3  1  0
 15  9  1  0
 28 15  1  0
 34 29  1  0
 40 35  1  0
 25 20  1  0
  1 43  1  0
  1 44  1  0
  1 45  1  0
  4 46  1  0
  7 47  1  0
 16 48  1  0
 16 49  1  0
 17 50  1  0
 17 51  1  0
 19 52  1  0
 19 53  1  0
 22 54  1  0
 23 55  1  0
 24 56  1  0
 26 57  1  0
 26 58  1  0
 26 59  1  0
 27 60  1  0
 27 61  1  0
 28 62  1  0
 28 63  1  0
 30 64  1  0
 31 65  1  0
 33 66  1  0
 34 67  1  0
 36 68  1  0
 37 69  1  0
 39 70  1  0
 40 71  1  0
M  END
$$$$
[H]OC(=O)c1c([H])c([H])c(-c2nc([H])c(N3C(=O)N(c4nc([H])nc([H])c4[H])C4(C3=O)C([H])([H])C([H])([H])N(C([H])([H])c3nc([H])c([H])c([H])c3C([H])([H])[H])C([H])([H])C4([H])[H])c([H])c2[H])c(C([H])([H])[H])c1[H]
     RDKit          3D

 71 76  0  0  0  0  0  0  0  0999 V2000
   -7.2176   -2.3248    0.9296 C   0  0  0  0  0  0  0  0  0  0  0  0
   -7.4022   -1.0024    0.2390 C   0  0  0  0  0  0  0  0  0  0  0  0
   -8.5889   -0.6959   -0.3511 C   0  0  0  0  0  0  0  0  0  0  0  0
   -8.6728    0.4801   -1.1309 C   0  0  0  0  0  0  0  0  0  0  0  0
   -7.5572    1.2996   -1.2776 C   0  0  0  0  0  0  0  0  0  0  0  0
   -6.4109    0.9287   -0.6572 N   0  0  0  0  0  0  0  0  0  0  0  0
   -6.3215   -0.1929    0.0867 C   0  0  0  0  0  0  0  0  0  0  0  0
   -5.1435   -0.4703    0.9466 C   0  0  0  0  0  0  0  0  0  0  0  0
   -4.0281   -0.7856    0.1625 N   0  0  0  0  0  0  0  0  0  0  0  0
   -3.7376   -0.1595   -1.0161 C   0  0  0  0  0  0  0  0  0  0  0  0
   -2.2707   -0.0580   -1.3617 C   0  0  0  0  0  0  0  0  0  0  0  0
   -1.4125    0.1786   -0.2049 C   0  0  0  0  0  0  0  0  0  0  0  0
   -1.9767   -0.1915    1.1584 C   0  0  0  0  0  0  0  0  0  0  0  0
   -2.9437   -1.3475    0.9263 C   0  0  0  0  0  0  0  0  0  0  0  0
   -0.8394    1.4834   -0.0796 N   0  0  0  0  0  0  0  0  0  0  0  0
    0.5495    1.3906    0.0998 C   0  0  0  0  0  0  0  0  0  0  0  0
    1.4348    2.2730    0.3780 O   0  0  0  0  0  0  0  0  0  0  0  0
    0.9449   -0.0056   -0.0794 N   0  0  0  0  0  0  0  0  0  0  0  0
   -0.2168   -0.7208   -0.3549 C   0  0  0  0  0  0  0  0  0  0  0  0
   -0.3103   -1.9392   -0.6885 O   0  0  0  0  0  0  0  0  0  0  0  0
    2.2838   -0.4535    0.0767 C   0  0  0  0  0  0  0  0  0  0  0  0
    2.8830   -0.1670    1.2825 C   0  0  0  0  0  0  0  0  0  0  0  0
    4.2218   -0.4345    1.4313 C   0  0  0  0  0  0  0  0  0  0  0  0
    4.9258   -0.9615    0.4148 C   0  0  0  0  0  0  0  0  0  0  0  0
    4.2840   -1.2431   -0.7792 N   0  0  0  0  0  0  0  0  0  0  0  0
    2.9894   -0.9945   -0.9527 C   0  0  0  0  0  0  0  0  0  0  0  0
    6.3956   -1.1179    0.4096 C   0  0  0  0  0  0  0  0  0  0  0  0
    7.0573   -1.7510    1.3823 C   0  0  0  0  0  0  0  0  0  0  0  0
    8.4467   -1.8960    1.2898 C   0  0  0  0  0  0  0  0  0  0  0  0
    9.0710   -1.3717    0.1850 C   0  0  0  0  0  0  0  0  0  0  0  0
    8.3853   -0.7057   -0.8082 C   0  0  0  0  0  0  0  0  0  0  0  0
    7.0656   -0.5815   -0.6998 C   0  0  0  0  0  0  0  0  0  0  0  0
    6.3089    0.1444   -1.7266 C   0  0  0  0  0  0  0  0  0  0  0  0
   10.4575   -1.7130   -0.1070 C   0  0  0  0  0  0  0  0  0  0  0  0
   10.8934   -2.9513    0.5602 O   0  0  0  0  0  0  0  0  0  0  0  0
   11.2154   -1.1306   -0.7966 O   0  0  0  0  0  0  0  0  0  0  0  0
   -1.4536    2.7919   -0.0875 C   0  0  0  0  0  0  0  0  0  0  0  0
   -0.9765    3.7960    0.7263 C   0  0  0  0  0  0  0  0  0  0  0  0
   -1.5581    5.0411    0.7659 C   0  0  0  0  0  0  0  0  0  0  0  0
   -2.6103    5.2953    0.0010 N   0  0  0  0  0  0  0  0  0  0  0  0
   -3.0846    4.3052   -0.8203 C   0  0  0  0  0  0  0  0  0  0  0  0
   -2.5300    3.1015   -0.8567 N   0  0  0  0  0  0  0  0  0  0  0  0
   -7.6144   -3.0915    0.2499 H   0  0  0  0  0  0  0  0  0  0  0  0
   -7.6651   -2.2741    1.8984 H   0  0  0  0  0  0  0  0  0  0  0  0
   -6.1165   -2.5171    1.0550 H   0  0  0  0  0  0  0  0  0  0  0  0
   -9.4627   -1.3386   -0.2497 H   0  0  0  0  0  0  0  0  0  0  0  0
   -9.5782    0.7644   -1.6036 H   0  0  0  0  0  0  0  0  0  0  0  0
   -7.5611    2.2262   -1.8516 H   0  0  0  0  0  0  0  0  0  0  0  0
   -4.8888    0.6390    1.3434 H   0  0  0  0  0  0  0  0  0  0  0  0
   -5.2951   -0.9955    1.8731 H   0  0  0  0  0  0  0  0  0  0  0  0
   -4.2062    0.8092   -1.1541 H   0  0  0  0  0  0  0  0  0  0  0  0
   -4.2263   -0.7882   -1.8454 H   0  0  0  0  0  0  0  0  0  0  0  0
   -2.1720    0.7715   -2.0712 H   0  0  0  0  0  0  0  0  0  0  0  0
   -1.9986   -0.9644   -1.9403 H   0  0  0  0  0  0  0  0  0  0  0  0
   -1.1624   -0.5518    1.8179 H   0  0  0  0  0  0  0  0  0  0  0  0
   -2.4548    0.6772    1.6870 H   0  0  0  0  0  0  0  0  0  0  0  0
   -3.3763   -1.7507    1.8630 H   0  0  0  0  0  0  0  0  0  0  0  0
   -2.4471   -2.0920    0.3077 H   0  0  0  0  0  0  0  0  0  0  0  0
    2.2992    0.2812    2.1162 H   0  0  0  0  0  0  0  0  0  0  0  0
    4.6916   -0.1835    2.3965 H   0  0  0  0  0  0  0  0  0  0  0  0
    2.4916   -1.2122   -1.9045 H   0  0  0  0  0  0  0  0  0  0  0  0
    6.5816   -2.1750    2.2795 H   0  0  0  0  0  0  0  0  0  0  0  0
    9.0158   -2.4022    2.0893 H   0  0  0  0  0  0  0  0  0  0  0  0
    8.9225   -0.3195   -1.6415 H   0  0  0  0  0  0  0  0  0  0  0  0
    6.9978    0.8820   -2.2340 H   0  0  0  0  0  0  0  0  0  0  0  0
    5.8714   -0.4793   -2.5232 H   0  0  0  0  0  0  0  0  0  0  0  0
    5.5243    0.7908   -1.2652 H   0  0  0  0  0  0  0  0  0  0  0  0
   10.4664   -3.8070    0.1484 H   0  0  0  0  0  0  0  0  0  0  0  0
   -0.1298    3.5834    1.3565 H   0  0  0  0  0  0  0  0  0  0  0  0
   -1.1119    5.7818    1.4401 H   0  0  0  0  0  0  0  0  0  0  0  0
   -3.9452    4.5933   -1.3873 H   0  0  0  0  0  0  0  0  0  0  0  0
  1  2  1  0
  2  3  2  0
  3  4  1  0
  4  5  2  0
  5  6  1  0
  6  7  2  0
  7  8  1  0
  8  9  1  0
  9 10  1  0
 10 11  1  0
 11 12  1  0
 12 13  1  0
 13 14  1  0
 12 15  1  0
 15 16  1  0
 16 17  2  0
 16 18  1  0
 18 19  1  0
 19 20  2  0
 18 21  1  0
 21 22  2  0
 22 23  1  0
 23 24  2  0
 24 25  1  0
 25 26  2  0
 24 27  1  0
 27 28  2  0
 28 29  1  0
 29 30  2  0
 30 31  1  0
 31 32  2  0
 32 33  1  0
 30 34  1  0
 34 35  1  0
 34 36  2  0
 15 37  1  0
 37 38  2  0
 38 39  1  0
 39 40  2  0
 40 41  1  0
 41 42  2  0
  7  2  1  0
 14  9  1  0
 26 21  1  0
 32 27  1  0
 42 37  1  0
 19 12  1  0
  1 43  1  0
  1 44  1  0
  1 45  1  0
  3 46  1  0
  4 47  1  0
  5 48  1  0
  8 49  1  0
  8 50  1  0
 10 51  1  0
 10 52  1  0
 11 53  1  0
 11 54  1  0
 13 55  1  0
 13 56  1  0
 14 57  1  0
 14 58  1  0
 22 59  1  0
 23 60  1  0
 26 61  1  0
 28 62  1  0
 29 63  1  0
 31 64  1  0
 33 65  1  0
 33 66  1  0
 33 67  1  0
 35 68  1  0
 38 69  1  0
 39 70  1  0
 41 71  1  0
M  END
$$$$
[H]c1nc2c([H])c(C([H])([H])[H])c([H])c(-c3c([H])c([H])c(C#N)c([H])c3[H])n2n1
     RDKit          3D

 28 30  0  0  0  0  0  0  0  0999 V2000
   -3.6811   -1.1843    1.0837 C   0  0  0  0  0  0  0  0  0  0  0  0
   -2.6640   -0.3627    0.3787 C   0  0  0  0  0  0  0  0  0  0  0  0
   -1.2899   -0.5726    0.5438 C   0  0  0  0  0  0  0  0  0  0  0  0
   -0.3361    0.1831   -0.1049 C   0  0  0  0  0  0  0  0  0  0  0  0
    1.0607   -0.1243    0.1040 C   0  0  0  0  0  0  0  0  0  0  0  0
    1.4202   -1.4378    0.4484 C   0  0  0  0  0  0  0  0  0  0  0  0
    2.7302   -1.7676    0.6808 C   0  0  0  0  0  0  0  0  0  0  0  0
    3.7234   -0.8178    0.5814 C   0  0  0  0  0  0  0  0  0  0  0  0
    3.3589    0.4600    0.2446 C   0  0  0  0  0  0  0  0  0  0  0  0
    2.0344    0.8367    0.0002 C   0  0  0  0  0  0  0  0  0  0  0  0
    5.0979   -1.1826    0.8291 C   0  0  0  0  0  0  0  0  0  0  0  0
    6.1873   -1.4608    1.0080 N   0  0  0  0  0  0  0  0  0  0  0  0
   -0.7560    1.1565   -0.9257 N   0  0  0  0  0  0  0  0  0  0  0  0
   -0.1595    2.0540   -1.7030 N   0  0  0  0  0  0  0  0  0  0  0  0
   -1.0498    2.8186   -2.3489 C   0  0  0  0  0  0  0  0  0  0  0  0
   -2.2588    2.3925   -1.9694 N   0  0  0  0  0  0  0  0  0  0  0  0
   -2.0736    1.3749   -1.0985 C   0  0  0  0  0  0  0  0  0  0  0  0
   -3.0591    0.6427   -0.4691 C   0  0  0  0  0  0  0  0  0  0  0  0
   -4.5775   -1.3140    0.4566 H   0  0  0  0  0  0  0  0  0  0  0  0
   -3.2312   -2.1853    1.2692 H   0  0  0  0  0  0  0  0  0  0  0  0
   -3.9155   -0.7235    2.0679 H   0  0  0  0  0  0  0  0  0  0  0  0
   -1.0691   -1.3780    1.2300 H   0  0  0  0  0  0  0  0  0  0  0  0
    0.6133   -2.1829    0.5180 H   0  0  0  0  0  0  0  0  0  0  0  0
    2.9652   -2.7938    0.9446 H   0  0  0  0  0  0  0  0  0  0  0  0
    4.1238    1.2118    0.1633 H   0  0  0  0  0  0  0  0  0  0  0  0
    1.8131    1.8781   -0.2520 H   0  0  0  0  0  0  0  0  0  0  0  0
   -0.8817    3.6244   -3.0424 H   0  0  0  0  0  0  0  0  0  0  0  0
   -4.1258    0.8545   -0.6384 H   0  0  0  0  0  0  0  0  0  0  0  0
  1  2  1  0
  2  3  1  0
  3  4  2  0
  4  5  1  0
  5  6  2  0
  6  7  1  0
  7  8  2  0
  8  9  1  0
  9 10  2  0
  8 11  1  0
 11 12  3  0
  4 13  1  0
 13 14  1  0
 14 15  2  0
 15 16  1  0
 16 17  2  0
 17 18  1  0
 18  2  2  0
 10  5  1  0
 17 13  1  0
  1 19  1  0
  1 20  1  0
  1 21  1  0
  3 22  1  0
  6 23  1  0
  7 24  1  0
  9 25  1  0
 10 26  1  0
 15 27  1  0
 18 28  1  0
M  END
$$$$
[H]c1nc2c([H])c(N([H])C(=O)C3(C#N)C([H])([H])C3([H])[H])c([H])c(-c3c([H])c([H])c(C#N)c(F)c3[H])n2n1
     RDKit          3D

 37 40  0  0  0  0  0  0  0  0999 V2000
   -4.4182   -2.4655    1.7137 F   0  0  0  0  0  0  0  0  0  0  0  0
   -3.9768   -1.6970    0.7036 C   0  0  0  0  0  0  0  0  0  0  0  0
   -2.8901   -0.8522    0.9027 C   0  0  0  0  0  0  0  0  0  0  0  0
   -2.4021   -0.0454   -0.1039 C   0  0  0  0  0  0  0  0  0  0  0  0
   -2.9901   -0.0615   -1.3425 C   0  0  0  0  0  0  0  0  0  0  0  0
   -4.0729   -0.8896   -1.5762 C   0  0  0  0  0  0  0  0  0  0  0  0
   -4.5410   -1.6833   -0.5597 C   0  0  0  0  0  0  0  0  0  0  0  0
   -5.6693   -2.5392   -0.8207 C   0  0  0  0  0  0  0  0  0  0  0  0
   -6.5723   -3.2176   -1.0474 N   0  0  0  0  0  0  0  0  0  0  0  0
   -1.2556    0.8157    0.1835 C   0  0  0  0  0  0  0  0  0  0  0  0
    0.0255    0.3109   -0.0352 C   0  0  0  0  0  0  0  0  0  0  0  0
    1.0861    1.1290    0.2392 C   0  0  0  0  0  0  0  0  0  0  0  0
    2.4143    0.7279    0.0781 N   0  0  0  0  0  0  0  0  0  0  0  0
    2.8629   -0.5835   -0.0889 C   0  0  0  0  0  0  0  0  0  0  0  0
    2.1476   -1.6110   -0.1158 O   0  0  0  0  0  0  0  0  0  0  0  0
    4.3462   -0.8485   -0.2583 C   0  0  0  0  0  0  0  0  0  0  0  0
    4.8153   -2.0733    0.4189 C   0  0  0  0  0  0  0  0  0  0  0  0
    4.7532   -2.0262   -1.0903 C   0  0  0  0  0  0  0  0  0  0  0  0
    5.2340    0.3185   -0.2435 C   0  0  0  0  0  0  0  0  0  0  0  0
    5.9458    1.2522   -0.2498 N   0  0  0  0  0  0  0  0  0  0  0  0
    0.8493    2.4185    0.7195 C   0  0  0  0  0  0  0  0  0  0  0  0
   -0.4110    2.8577    0.9133 C   0  0  0  0  0  0  0  0  0  0  0  0
   -0.9247    4.0338    1.3592 N   0  0  0  0  0  0  0  0  0  0  0  0
   -2.2612    3.9331    1.3564 C   0  0  0  0  0  0  0  0  0  0  0  0
   -2.5725    2.6946    0.9088 N   0  0  0  0  0  0  0  0  0  0  0  0
   -1.4451    2.0448    0.6407 N   0  0  0  0  0  0  0  0  0  0  0  0
   -2.4076   -0.8195    1.8693 H   0  0  0  0  0  0  0  0  0  0  0  0
   -2.5800    0.5862   -2.1107 H   0  0  0  0  0  0  0  0  0  0  0  0
   -4.5518   -0.9262   -2.5247 H   0  0  0  0  0  0  0  0  0  0  0  0
    0.1091   -0.6819   -0.4147 H   0  0  0  0  0  0  0  0  0  0  0  0
    3.1501    1.4924    0.0796 H   0  0  0  0  0  0  0  0  0  0  0  0
    5.7977   -2.0202    0.9098 H   0  0  0  0  0  0  0  0  0  0  0  0
    4.1018   -2.7663    0.8911 H   0  0  0  0  0  0  0  0  0  0  0  0
    5.7349   -1.9965   -1.5765 H   0  0  0  0  0  0  0  0  0  0  0  0
    3.9024   -2.5432   -1.5811 H   0  0  0  0  0  0  0  0  0  0  0  0
    1.6710    3.0863    0.9443 H   0  0  0  0  0  0  0  0  0  0  0  0
   -3.0048    4.6458    1.6377 H   0  0  0  0  0  0  0  0  0  0  0  0
  1  2  1  0
  2  3  2  0
  3  4  1  0
  4  5  2  0
  5  6  1  0
  6  7  2  0
  7  8  1  0
  8  9  3  0
  4 10  1  0
 10 11  2  0
 11 12  1  0
 12 13  1  0
 13 14  1  0
 14 15  2  0
 14 16  1  0
 16 17  1  0
 17 18  1  0
 16 19  1  0
 19 20  3  0
 12 21  2  0
 21 22  1  0
 22 23  2  0
 23 24  1  0
 24 25  2  0
 25 26  1  0
  7  2  1  0
 26 10  1  0
 18 16  1  0
 26 22  1  0
  3 27  1  0
  5 28  1  0
  6 29  1  0
 11 30  1  0
 13 31  1  0
 17 32  1  0
 17 33  1  0
 18 34  1  0
 18 35  1  0
 21 36  1  0
 24 37  1  0
M  END
$$$$
[H]OC(=O)c1sc([H])c(-c2c([H])c([H])c(N3C(=O)N(c4nc([H])nc(OC([H])([H])[H])c4[H])C4(C3=O)C([H])([H])C([H])([H])N(C([H])([H])c3nc([H])c([H])c([H])c3C([H])([H])[H])C([H])([H])C4([H])[H])c([H])c2[H])c1[H]
     RDKit          3D

 70 75  0  0  0  0  0  0  0  0999 V2000
    2.8598    6.9864   -1.5136 C   0  0  0  0  0  0  0  0  0  0  0  0
    2.1740    5.7480   -1.5775 O   0  0  0  0  0  0  0  0  0  0  0  0
    1.8073    5.0712   -0.4225 C   0  0  0  0  0  0  0  0  0  0  0  0
    1.1363    3.8608   -0.5367 C   0  0  0  0  0  0  0  0  0  0  0  0
    0.7416    3.1356    0.5670 C   0  0  0  0  0  0  0  0  0  0  0  0
    1.0334    3.6497    1.7675 N   0  0  0  0  0  0  0  0  0  0  0  0
    1.6892    4.8323    1.9089 C   0  0  0  0  0  0  0  0  0  0  0  0
    2.0597    5.5130    0.8147 N   0  0  0  0  0  0  0  0  0  0  0  0
    0.0450    1.8978    0.5066 N   0  0  0  0  0  0  0  0  0  0  0  0
   -1.3607    1.7895    0.1615 C   0  0  0  0  0  0  0  0  0  0  0  0
   -2.0623    2.8012   -0.1732 O   0  0  0  0  0  0  0  0  0  0  0  0
   -1.7991    0.4532    0.2519 N   0  0  0  0  0  0  0  0  0  0  0  0
   -0.6627   -0.3030    0.6595 C   0  0  0  0  0  0  0  0  0  0  0  0
   -0.6973   -1.5171    0.9024 O   0  0  0  0  0  0  0  0  0  0  0  0
    0.5226    0.5748    0.7413 C   0  0  0  0  0  0  0  0  0  0  0  0
    1.1590    0.3602    2.0956 C   0  0  0  0  0  0  0  0  0  0  0  0
    2.1223   -0.8114    2.0461 C   0  0  0  0  0  0  0  0  0  0  0  0
    3.3389   -0.4956    1.2912 N   0  0  0  0  0  0  0  0  0  0  0  0
    3.8344   -1.6915    0.6518 C   0  0  0  0  0  0  0  0  0  0  0  0
    5.1706   -1.5591    0.0327 C   0  0  0  0  0  0  0  0  0  0  0  0
    5.9096   -0.4478    0.1017 N   0  0  0  0  0  0  0  0  0  0  0  0
    7.1374   -0.3758   -0.4439 C   0  0  0  0  0  0  0  0  0  0  0  0
    7.7027   -1.4456   -1.1056 C   0  0  0  0  0  0  0  0  0  0  0  0
    6.9609   -2.5987   -1.1897 C   0  0  0  0  0  0  0  0  0  0  0  0
    5.7126   -2.6553   -0.6287 C   0  0  0  0  0  0  0  0  0  0  0  0
    4.9307   -3.9252   -0.7467 C   0  0  0  0  0  0  0  0  0  0  0  0
    2.9399    0.4920    0.2985 C   0  0  0  0  0  0  0  0  0  0  0  0
    1.5726    0.1981   -0.2825 C   0  0  0  0  0  0  0  0  0  0  0  0
   -3.1241   -0.0336   -0.0016 C   0  0  0  0  0  0  0  0  0  0  0  0
   -3.3191   -1.3253   -0.4507 C   0  0  0  0  0  0  0  0  0  0  0  0
   -4.5961   -1.8110   -0.6782 C   0  0  0  0  0  0  0  0  0  0  0  0
   -5.7109   -1.0218   -0.4646 C   0  0  0  0  0  0  0  0  0  0  0  0
   -5.5383    0.2661   -0.0207 C   0  0  0  0  0  0  0  0  0  0  0  0
   -4.2542    0.7285    0.1999 C   0  0  0  0  0  0  0  0  0  0  0  0
   -7.0708   -1.6041   -0.6779 C   0  0  0  0  0  0  0  0  0  0  0  0
   -8.0954   -0.8121   -1.1151 C   0  0  0  0  0  0  0  0  0  0  0  0
   -9.4184   -1.8868   -1.1698 S   0  0  0  0  0  0  0  0  0  0  0  0
   -8.6447   -3.3069   -0.6399 C   0  0  0  0  0  0  0  0  0  0  0  0
   -7.3553   -2.8972   -0.4320 C   0  0  0  0  0  0  0  0  0  0  0  0
   -9.2007   -4.6577   -0.4378 C   0  0  0  0  0  0  0  0  0  0  0  0
  -10.5321   -4.8738   -0.6985 O   0  0  0  0  0  0  0  0  0  0  0  0
   -8.4497   -5.5477   -0.0404 O   0  0  0  0  0  0  0  0  0  0  0  0
    2.8460    7.4397   -2.5262 H   0  0  0  0  0  0  0  0  0  0  0  0
    3.8967    6.7686   -1.2039 H   0  0  0  0  0  0  0  0  0  0  0  0
    2.3737    7.6853   -0.7739 H   0  0  0  0  0  0  0  0  0  0  0  0
    0.9100    3.4641   -1.5042 H   0  0  0  0  0  0  0  0  0  0  0  0
    1.9062    5.2130    2.9200 H   0  0  0  0  0  0  0  0  0  0  0  0
    0.3585    0.0981    2.8150 H   0  0  0  0  0  0  0  0  0  0  0  0
    1.6466    1.2754    2.4433 H   0  0  0  0  0  0  0  0  0  0  0  0
    1.6027   -1.6740    1.6378 H   0  0  0  0  0  0  0  0  0  0  0  0
    2.4476   -1.0199    3.0738 H   0  0  0  0  0  0  0  0  0  0  0  0
    3.8613   -2.5193    1.3991 H   0  0  0  0  0  0  0  0  0  0  0  0
    3.1283   -2.0162   -0.1409 H   0  0  0  0  0  0  0  0  0  0  0  0
    7.7331    0.5356   -0.3816 H   0  0  0  0  0  0  0  0  0  0  0  0
    8.6873   -1.4077   -1.5507 H   0  0  0  0  0  0  0  0  0  0  0  0
    7.3970   -3.4637   -1.7161 H   0  0  0  0  0  0  0  0  0  0  0  0
    5.6296   -4.7656   -0.8524 H   0  0  0  0  0  0  0  0  0  0  0  0
    4.2724   -3.9190   -1.6526 H   0  0  0  0  0  0  0  0  0  0  0  0
    4.3737   -4.0778    0.1949 H   0  0  0  0  0  0  0  0  0  0  0  0
    2.9261    1.4637    0.8554 H   0  0  0  0  0  0  0  0  0  0  0  0
    3.7108    0.5284   -0.4850 H   0  0  0  0  0  0  0  0  0  0  0  0
    1.5307   -0.8456   -0.6040 H   0  0  0  0  0  0  0  0  0  0  0  0
    1.4628    0.8438   -1.1892 H   0  0  0  0  0  0  0  0  0  0  0  0
   -2.5075   -1.9843   -0.6409 H   0  0  0  0  0  0  0  0  0  0  0  0
   -4.7715   -2.8219   -1.0301 H   0  0  0  0  0  0  0  0  0  0  0  0
   -6.3777    0.9128    0.1548 H   0  0  0  0  0  0  0  0  0  0  0  0
   -4.1449    1.7573    0.5546 H   0  0  0  0  0  0  0  0  0  0  0  0
   -8.0346    0.2650   -1.3661 H   0  0  0  0  0  0  0  0  0  0  0  0
   -6.5810   -3.6172   -0.0702 H   0  0  0  0  0  0  0  0  0  0  0  0
  -10.9527   -4.8731   -1.6205 H   0  0  0  0  0  0  0  0  0  0  0  0
  1  2  1  0
  2  3  1  0
  3  4  2  0
  4  5  1  0
  5  6  2  0
  6  7  1  0
  7  8  2  0
  5  9  1  0
  9 10  1  0
 10 11  2  0
 10 12  1  0
 12 13  1  0
 13 14  2  0
 13 15  1  0
 15 16  1  0
 16 17  1  0
 17 18  1  0
 18 19  1  0
 19 20  1  0
 20 21  2  0
 21 22  1  0
 22 23  2  0
 23 24  1  0
 24 25  2  0
 25 26  1  0
 18 27  1  0
 27 28  1  0
 12 29  1  0
 29 30  2  0
 30 31  1  0
 31 32  2  0
 32 33  1  0
 33 34  2  0
 32 35  1  0
 35 36  2  0
 36 37  1  0
 37 38  1  0
 38 39  2  0
 38 40  1  0
 40 41  1  0
 40 42  2  0
  8  3  1  0
 15  9  1  0
 28 15  1  0
 34 29  1  0
 39 35  1  0
 25 20  1  0
  1 43  1  0
  1 44  1  0
  1 45  1  0
  4 46  1  0
  7 47  1  0
 16 48  1  0
 16 49  1  0
 17 50  1  0
 17 51  1  0
 19 52  1  0
 19 53  1  0
 22 54  1  0
 23 55  1  0
 24 56  1  0
 26 57  1  0
 26 58  1  0
 26 59  1  0
 27 60  1  0
 27 61  1  0
 28 62  1  0
 28 63  1  0
 30 64  1  0
 31 65  1  0
 33 66  1  0
 34 67  1  0
 36 68  1  0
 39 69  1  0
 41 70  1  0
M  END
$$$$
[H]OC(=O)C([H])([H])N([H])C(=O)c1c(O[H])c2c([H])c(C([H])([H])N([H])C(=O)[C@]([H])(N([H])C(=O)[C@@]([H])(N([H])C(=O)C([H])([H])[H])C([H])([H])c3c([H])c([H])c([H])c([H])c3[H])C([H])([H])c3c([H])c([H])c([H])c([H])c3[H])c([H])c([H])c2n(C([H])([H])[H])c1=O
     RDKit          3D

 82 85  0  0  0  0  0  0  0  0999 V2000
   -8.2005    0.8174   -0.7835 C   0  0  0  0  0  0  0  0  0  0  0  0
   -6.9103    0.7786   -0.0602 C   0  0  0  0  0  0  0  0  0  0  0  0
   -6.7973    1.5326    0.9532 O   0  0  0  0  0  0  0  0  0  0  0  0
   -5.8015   -0.0355   -0.4183 N   0  0  0  0  0  0  0  0  0  0  0  0
   -4.5623   -0.0370    0.3196 C   0  0  1  0  0  0  0  0  0  0  0  0
   -4.1113   -1.3969    0.7199 C   0  0  0  0  0  0  0  0  0  0  0  0
   -5.0521   -2.1295    1.5846 C   0  0  0  0  0  0  0  0  0  0  0  0
   -6.0129   -2.9178    0.9530 C   0  0  0  0  0  0  0  0  0  0  0  0
   -6.9114   -3.6216    1.7377 C   0  0  0  0  0  0  0  0  0  0  0  0
   -6.8355   -3.5279    3.1104 C   0  0  0  0  0  0  0  0  0  0  0  0
   -5.8578   -2.7268    3.7086 C   0  0  0  0  0  0  0  0  0  0  0  0
   -4.9579   -2.0212    2.9419 C   0  0  0  0  0  0  0  0  0  0  0  0
   -3.4523    0.5859   -0.4792 C   0  0  0  0  0  0  0  0  0  0  0  0
   -3.7545    0.9321   -1.6605 O   0  0  0  0  0  0  0  0  0  0  0  0
   -2.1521    0.8014   -0.0090 N   0  0  0  0  0  0  0  0  0  0  0  0
   -1.1373    1.4136   -0.8252 C   0  0  2  0  0  0  0  0  0  0  0  0
   -1.4203    2.8054   -1.2838 C   0  0  0  0  0  0  0  0  0  0  0  0
   -1.5358    3.6661   -0.0703 C   0  0  0  0  0  0  0  0  0  0  0  0
   -0.3354    4.2304    0.3968 C   0  0  0  0  0  0  0  0  0  0  0  0
   -0.3067    5.0359    1.5013 C   0  0  0  0  0  0  0  0  0  0  0  0
   -1.4833    5.2976    2.1683 C   0  0  0  0  0  0  0  0  0  0  0  0
   -2.6826    4.7642    1.7434 C   0  0  0  0  0  0  0  0  0  0  0  0
   -2.6613    3.9512    0.6148 C   0  0  0  0  0  0  0  0  0  0  0  0
   -0.5790    0.5405   -1.8751 C   0  0  0  0  0  0  0  0  0  0  0  0
   -0.9840   -0.6762   -1.9028 O   0  0  0  0  0  0  0  0  0  0  0  0
    0.3641    0.9762   -2.8310 N   0  0  0  0  0  0  0  0  0  0  0  0
    0.9344    0.1240   -3.8555 C   0  0  0  0  0  0  0  0  0  0  0  0
    2.0105   -0.6865   -3.2415 C   0  0  0  0  0  0  0  0  0  0  0  0
    2.2627   -1.9883   -3.5626 C   0  0  0  0  0  0  0  0  0  0  0  0
    3.2994   -2.6922   -2.9619 C   0  0  0  0  0  0  0  0  0  0  0  0
    4.0974   -2.0574   -2.0140 C   0  0  0  0  0  0  0  0  0  0  0  0
    5.1049   -2.7402   -1.4439 N   0  0  0  0  0  0  0  0  0  0  0  0
    5.3498   -4.1116   -1.8050 C   0  0  0  0  0  0  0  0  0  0  0  0
    5.8663   -2.0843   -0.5319 C   0  0  0  0  0  0  0  0  0  0  0  0
    6.7844   -2.7913   -0.0467 O   0  0  0  0  0  0  0  0  0  0  0  0
    5.7002   -0.7935   -0.1420 C   0  0  0  0  0  0  0  0  0  0  0  0
    6.5207   -0.0901    0.8234 C   0  0  0  0  0  0  0  0  0  0  0  0
    6.2499    1.1474    1.0953 O   0  0  0  0  0  0  0  0  0  0  0  0
    7.6014   -0.6453    1.4959 N   0  0  0  0  0  0  0  0  0  0  0  0
    8.3466    0.1991    2.4503 C   0  0  0  0  0  0  0  0  0  0  0  0
    9.4639   -0.5661    3.0414 C   0  0  0  0  0  0  0  0  0  0  0  0
   10.2865    0.0583    3.9631 O   0  0  0  0  0  0  0  0  0  0  0  0
    9.6784   -1.7536    2.7279 O   0  0  0  0  0  0  0  0  0  0  0  0
    4.6482   -0.0812   -0.7368 C   0  0  0  0  0  0  0  0  0  0  0  0
    4.3176    1.1962   -0.4896 O   0  0  0  0  0  0  0  0  0  0  0  0
    3.8557   -0.7521   -1.6820 C   0  0  0  0  0  0  0  0  0  0  0  0
    2.8225   -0.0691   -2.2879 C   0  0  0  0  0  0  0  0  0  0  0  0
   -8.3964    1.8593   -1.1739 H   0  0  0  0  0  0  0  0  0  0  0  0
   -8.1678    0.1826   -1.7136 H   0  0  0  0  0  0  0  0  0  0  0  0
   -9.0722    0.5674   -0.1442 H   0  0  0  0  0  0  0  0  0  0  0  0
   -5.9246   -0.6446   -1.2540 H   0  0  0  0  0  0  0  0  0  0  0  0
   -4.6589    0.6122    1.2107 H   0  0  0  0  0  0  0  0  0  0  0  0
   -3.8637   -2.0205   -0.1703 H   0  0  0  0  0  0  0  0  0  0  0  0
   -3.1522   -1.2984    1.2712 H   0  0  0  0  0  0  0  0  0  0  0  0
   -6.0869   -3.0037   -0.1216 H   0  0  0  0  0  0  0  0  0  0  0  0
   -7.6758   -4.2478    1.2629 H   0  0  0  0  0  0  0  0  0  0  0  0
   -7.5518   -4.0910    3.6809 H   0  0  0  0  0  0  0  0  0  0  0  0
   -5.8171   -2.6691    4.7743 H   0  0  0  0  0  0  0  0  0  0  0  0
   -4.1829   -1.3887    3.3494 H   0  0  0  0  0  0  0  0  0  0  0  0
   -1.9317    0.5020    0.9639 H   0  0  0  0  0  0  0  0  0  0  0  0
   -0.1963    1.5766   -0.1355 H   0  0  0  0  0  0  0  0  0  0  0  0
   -0.6496    3.2008   -1.9766 H   0  0  0  0  0  0  0  0  0  0  0  0
   -2.3818    2.9150   -1.8185 H   0  0  0  0  0  0  0  0  0  0  0  0
    0.5909    4.0308   -0.1227 H   0  0  0  0  0  0  0  0  0  0  0  0
    0.6060    5.4909    1.8912 H   0  0  0  0  0  0  0  0  0  0  0  0
   -1.4991    5.9398    3.0575 H   0  0  0  0  0  0  0  0  0  0  0  0
   -3.5775    4.9891    2.2900 H   0  0  0  0  0  0  0  0  0  0  0  0
   -3.6046    3.5544    0.2960 H   0  0  0  0  0  0  0  0  0  0  0  0
    0.6965    1.9646   -2.8290 H   0  0  0  0  0  0  0  0  0  0  0  0
    1.3066    0.6799   -4.7267 H   0  0  0  0  0  0  0  0  0  0  0  0
    0.1015   -0.5247   -4.2128 H   0  0  0  0  0  0  0  0  0  0  0  0
    1.6280   -2.4750   -4.3093 H   0  0  0  0  0  0  0  0  0  0  0  0
    3.5082   -3.7109   -3.2044 H   0  0  0  0  0  0  0  0  0  0  0  0
    6.3513   -4.4201   -1.3913 H   0  0  0  0  0  0  0  0  0  0  0  0
    5.4764   -4.1266   -2.9203 H   0  0  0  0  0  0  0  0  0  0  0  0
    4.5482   -4.8119   -1.5627 H   0  0  0  0  0  0  0  0  0  0  0  0
    7.9259   -1.6016    1.3834 H   0  0  0  0  0  0  0  0  0  0  0  0
    7.6153    0.4968    3.2311 H   0  0  0  0  0  0  0  0  0  0  0  0
    8.7485    1.0917    1.8870 H   0  0  0  0  0  0  0  0  0  0  0  0
   11.1060    0.5792    3.6611 H   0  0  0  0  0  0  0  0  0  0  0  0
    4.4837    1.9834   -0.0253 H   0  0  0  0  0  0  0  0  0  0  0  0
    2.6278    0.9571   -2.0302 H   0  0  0  0  0  0  0  0  0  0  0  0
  1  2  1  0
  2  3  2  0
  2  4  1  0
  4  5  1  0
  5  6  1  0
  6  7  1  0
  7  8  2  0
  8  9  1  0
  9 10  2  0
 10 11  1  0
 11 12  2  0
  5 13  1  0
 13 14  2  0
 13 15  1  0
 15 16  1  0
 16 17  1  0
 17 18  1  0
 18 19  2  0
 19 20  1  0
 20 21  2  0
 21 22  1  0
 22 23  2  0
 16 24  1  0
 24 25  2  0
 24 26  1  0
 26 27  1  0
 27 28  1  0
 28 29  2  0
 29 30  1  0
 30 31  2  0
 31 32  1  0
 32 33  1  0
 32 34  1  0
 34 35  2  0
 34 36  1  0
 36 37  1  0
 37 38  2  0
 37 39  1  0
 39 40  1  0
 40 41  1  0
 41 42  1  0
 41 43  2  0
 36 44  2  0
 44 45  1  0
 44 46  1  0
 46 47  2  0
 12  7  1  0
 23 18  1  0
 47 28  1  0
 46 31  1  0
  1 48  1  0
  1 49  1  0
  1 50  1  0
  4 51  1  0
  5 52  1  1
  6 53  1  0
  6 54  1  0
  8 55  1  0
  9 56  1  0
 10 57  1  0
 11 58  1  0
 12 59  1  0
 15 60  1  0
 16 61  1  1
 17 62  1  0
 17 63  1  0
 19 64  1  0
 20 65  1  0
 21 66  1  0
 22 67  1  0
 23 68  1  0
 26 69  1  0
 27 70  1  0
 27 71  1  0
 29 72  1  0
 30 73  1  0
 33 74  1  0
 33 75  1  0
 33 76  1  0
 39 77  1  0
 40 78  1  0
 40 79  1  0
 42 80  1  0
 45 81  1  0
 47 82  1  0
M  END
$$$$
[H]c1nc2c([H])c(N([H])[H])c([H])c(-c3c([H])c([H])c(C#N)c(F)c3F)n2n1
     RDKit          3D

 27 29  0  0  0  0  0  0  0  0999 V2000
   -3.4833   -2.0327   -1.1322 N   0  0  0  0  0  0  0  0  0  0  0  0
   -2.6969   -0.9353   -0.6879 C   0  0  0  0  0  0  0  0  0  0  0  0
   -1.3333   -1.0712   -0.5072 C   0  0  0  0  0  0  0  0  0  0  0  0
   -0.5521   -0.0137   -0.0753 C   0  0  0  0  0  0  0  0  0  0  0  0
    0.8939   -0.1817    0.1094 C   0  0  0  0  0  0  0  0  0  0  0  0
    1.7258    0.0748   -0.9547 C   0  0  0  0  0  0  0  0  0  0  0  0
    3.0911   -0.0718   -0.8206 C   0  0  0  0  0  0  0  0  0  0  0  0
    3.6690   -0.4745    0.3648 C   0  0  0  0  0  0  0  0  0  0  0  0
    5.0893   -0.6246    0.4966 C   0  0  0  0  0  0  0  0  0  0  0  0
    6.2468   -0.7538    0.5994 N   0  0  0  0  0  0  0  0  0  0  0  0
    2.7934   -0.7233    1.4146 C   0  0  0  0  0  0  0  0  0  0  0  0
    3.3175   -1.1219    2.6003 F   0  0  0  0  0  0  0  0  0  0  0  0
    1.4297   -0.5826    1.2995 C   0  0  0  0  0  0  0  0  0  0  0  0
    0.6308   -0.8394    2.3562 F   0  0  0  0  0  0  0  0  0  0  0  0
   -1.0853    1.1933    0.1879 N   0  0  0  0  0  0  0  0  0  0  0  0
   -0.5562    2.3523    0.6085 N   0  0  0  0  0  0  0  0  0  0  0  0
   -1.5639    3.2389    0.7025 C   0  0  0  0  0  0  0  0  0  0  0  0
   -2.7038    2.6220    0.3401 N   0  0  0  0  0  0  0  0  0  0  0  0
   -2.4104    1.3476    0.0187 C   0  0  0  0  0  0  0  0  0  0  0  0
   -3.2280    0.3098   -0.4134 C   0  0  0  0  0  0  0  0  0  0  0  0
   -4.3744   -2.3176   -0.6730 H   0  0  0  0  0  0  0  0  0  0  0  0
   -3.1838   -2.6004   -1.9528 H   0  0  0  0  0  0  0  0  0  0  0  0
   -0.8995   -2.0477   -0.7198 H   0  0  0  0  0  0  0  0  0  0  0  0
    1.3023    0.3992   -1.9205 H   0  0  0  0  0  0  0  0  0  0  0  0
    3.6956    0.1469   -1.7005 H   0  0  0  0  0  0  0  0  0  0  0  0
   -1.5153    4.2753    1.0101 H   0  0  0  0  0  0  0  0  0  0  0  0
   -4.2991    0.4323   -0.5507 H   0  0  0  0  0  0  0  0  0  0  0  0
  1  2  1  0
  2  3  1  0
  3  4  2  0
  4  5  1  0
  5  6  2  0
  6  7  1  0
  7  8  2  0
  8  9  1  0
  9 10  3  0
  8 11  1  0
 11 12  1  0
 11 13  2  0
 13 14  1  0
  4 15  1  0
 15 16  1  0
 16 17  2  0
 17 18  1  0
 18 19  2  0
 19 20  1  0
 20  2  2  0
 13  5  1  0
 19 15  1  0
  1 21  1  0
  1 22  1  0
  3 23  1  0
  6 24  1  0
  7 25  1  0
 17 26  1  0
 20 27  1  0
M  END
$$$$
[H]c1nc2nc(N([H])C3([H])C([H])([H])C3([H])[H])c([H])c(-c3c([H])c([H])c(C#N)c([H])c3[H])n2n1
     RDKit          3D

 33 36  0  0  0  0  0  0  0  0999 V2000
    7.1342    1.4611   -1.1817 N   0  0  0  0  0  0  0  0  0  0  0  0
    6.0457    1.1263   -0.9573 C   0  0  0  0  0  0  0  0  0  0  0  0
    4.7010    0.7024   -0.6722 C   0  0  0  0  0  0  0  0  0  0  0  0
    4.4175   -0.5334   -0.1327 C   0  0  0  0  0  0  0  0  0  0  0  0
    3.0859   -0.9030    0.1285 C   0  0  0  0  0  0  0  0  0  0  0  0
    2.0357   -0.0666   -0.1364 C   0  0  0  0  0  0  0  0  0  0  0  0
    2.3569    1.1698   -0.6794 C   0  0  0  0  0  0  0  0  0  0  0  0
    3.6405    1.5440   -0.9391 C   0  0  0  0  0  0  0  0  0  0  0  0
    0.6638   -0.4121    0.1460 C   0  0  0  0  0  0  0  0  0  0  0  0
   -0.3425    0.2133   -0.6025 C   0  0  0  0  0  0  0  0  0  0  0  0
   -1.6661   -0.0498   -0.3654 C   0  0  0  0  0  0  0  0  0  0  0  0
   -2.6966    0.5886   -1.1296 N   0  0  0  0  0  0  0  0  0  0  0  0
   -4.0798    0.2849   -0.8495 C   0  0  0  0  0  0  0  0  0  0  0  0
   -4.6600    0.5512    0.5018 C   0  0  0  0  0  0  0  0  0  0  0  0
   -5.0555    1.3949   -0.6613 C   0  0  0  0  0  0  0  0  0  0  0  0
   -1.9410   -0.9269    0.6092 N   0  0  0  0  0  0  0  0  0  0  0  0
   -0.9902   -1.5432    1.3454 C   0  0  0  0  0  0  0  0  0  0  0  0
   -1.0570   -2.4386    2.3620 N   0  0  0  0  0  0  0  0  0  0  0  0
    0.1856   -2.7364    2.7606 C   0  0  0  0  0  0  0  0  0  0  0  0
    1.0028   -2.0199    1.9834 N   0  0  0  0  0  0  0  0  0  0  0  0
    0.3273   -1.2867    1.1154 N   0  0  0  0  0  0  0  0  0  0  0  0
    5.2162   -1.2259    0.0929 H   0  0  0  0  0  0  0  0  0  0  0  0
    2.9574   -1.8915    0.5355 H   0  0  0  0  0  0  0  0  0  0  0  0
    1.5714    1.8459   -0.8944 H   0  0  0  0  0  0  0  0  0  0  0  0
    3.8651    2.5133   -1.3627 H   0  0  0  0  0  0  0  0  0  0  0  0
   -0.1217    0.9149   -1.3888 H   0  0  0  0  0  0  0  0  0  0  0  0
   -2.4300    1.2515   -1.8636 H   0  0  0  0  0  0  0  0  0  0  0  0
   -4.4696   -0.5822   -1.4144 H   0  0  0  0  0  0  0  0  0  0  0  0
   -3.9934    0.9961    1.2746 H   0  0  0  0  0  0  0  0  0  0  0  0
   -5.3695   -0.2100    0.9026 H   0  0  0  0  0  0  0  0  0  0  0  0
   -6.1189    1.2741   -1.0123 H   0  0  0  0  0  0  0  0  0  0  0  0
   -4.6935    2.4263   -0.7555 H   0  0  0  0  0  0  0  0  0  0  0  0
    0.4783   -3.4327    3.5679 H   0  0  0  0  0  0  0  0  0  0  0  0
  1  2  3  0
  2  3  1  0
  3  4  2  0
  4  5  1  0
  5  6  2  0
  6  7  1  0
  7  8  2  0
  6  9  1  0
  9 10  2  0
 10 11  1  0
 11 12  1  0
 12 13  1  0
 13 14  1  0
 14 15  1  0
 11 16  2  0
 16 17  1  0
 17 18  2  0
 18 19  1  0
 19 20  2  0
 20 21  1  0
  8  3  1  0
 21  9  1  0
 15 13  1  0
 21 17  1  0
  4 22  1  0
  5 23  1  0
  7 24  1  0
  8 25  1  0
 10 26  1  0
 12 27  1  0
 13 28  1  0
 14 29  1  0
 14 30  1  0
 15 31  1  0
 15 32  1  0
 19 33  1  0
M  END
$$$$
[H]c1nc2c([H])c([H])c([H])c(-c3c(C([H])([H])[H])nc(C#N)c([H])c3[H])n2n1
     RDKit          3D

 27 29  0  0  0  0  0  0  0  0999 V2000
    0.9822    2.0555    0.1123 C   0  0  0  0  0  0  0  0  0  0  0  0
    1.5793    0.6868   -0.0099 C   0  0  0  0  0  0  0  0  0  0  0  0
    2.8942    0.5117   -0.2392 N   0  0  0  0  0  0  0  0  0  0  0  0
    3.4294   -0.7179   -0.3487 C   0  0  0  0  0  0  0  0  0  0  0  0
    2.5679   -1.7883   -0.2152 C   0  0  0  0  0  0  0  0  0  0  0  0
    1.2138   -1.6444    0.0204 C   0  0  0  0  0  0  0  0  0  0  0  0
    0.7031   -0.3718    0.1263 C   0  0  0  0  0  0  0  0  0  0  0  0
   -0.7175   -0.1485    0.3745 C   0  0  0  0  0  0  0  0  0  0  0  0
   -1.1215   -0.0692    1.6914 C   0  0  0  0  0  0  0  0  0  0  0  0
   -2.4310    0.1378    2.0148 C   0  0  0  0  0  0  0  0  0  0  0  0
   -3.3497    0.2673    1.0047 C   0  0  0  0  0  0  0  0  0  0  0  0
   -2.9001    0.1812   -0.2997 C   0  0  0  0  0  0  0  0  0  0  0  0
   -3.5766    0.2715   -1.4442 N   0  0  0  0  0  0  0  0  0  0  0  0
   -2.7165    0.1255   -2.4518 C   0  0  0  0  0  0  0  0  0  0  0  0
   -1.5039   -0.0556   -1.9137 N   0  0  0  0  0  0  0  0  0  0  0  0
   -1.6154   -0.0219   -0.6165 N   0  0  0  0  0  0  0  0  0  0  0  0
    4.8469   -0.9089   -0.5959 C   0  0  0  0  0  0  0  0  0  0  0  0
    5.9766   -1.0808   -0.7924 N   0  0  0  0  0  0  0  0  0  0  0  0
    0.2978    2.1266    0.9855 H   0  0  0  0  0  0  0  0  0  0  0  0
    1.8330    2.7579    0.2663 H   0  0  0  0  0  0  0  0  0  0  0  0
    0.4739    2.3627   -0.8235 H   0  0  0  0  0  0  0  0  0  0  0  0
    3.0264   -2.7771   -0.3081 H   0  0  0  0  0  0  0  0  0  0  0  0
    0.5659   -2.5053    0.1200 H   0  0  0  0  0  0  0  0  0  0  0  0
   -0.3908   -0.1721    2.5044 H   0  0  0  0  0  0  0  0  0  0  0  0
   -2.6989    0.1927    3.0740 H   0  0  0  0  0  0  0  0  0  0  0  0
   -4.3761    0.4298    1.2744 H   0  0  0  0  0  0  0  0  0  0  0  0
   -2.9924    0.1548   -3.5102 H   0  0  0  0  0  0  0  0  0  0  0  0
  1  2  1  0
  2  3  2  0
  3  4  1  0
  4  5  2  0
  5  6  1  0
  6  7  2  0
  7  8  1  0
  8  9  2  0
  9 10  1  0
 10 11  2  0
 11 12  1  0
 12 13  2  0
 13 14  1  0
 14 15  2  0
 15 16  1  0
  4 17  1  0
 17 18  3  0
  7  2  1  0
 16  8  1  0
 16 12  1  0
  1 19  1  0
  1 20  1  0
  1 21  1  0
  5 22  1  0
  6 23  1  0
  9 24  1  0
 10 25  1  0
 11 26  1  0
 14 27  1  0
M  END
$$$$
[H]c1nc(C([H])([H])N2C([H])([H])C([H])([H])C3(C(=O)N(c4c([H])c([H])c(-c5c([H])c([H])c(-c6nn([H])c([H])c6[H])c([H])c5[H])c([H])c4[H])C(=O)N3c3nc([H])n([H])c(=O)c3[H])C([H])([H])C2([H])[H])c(C([H])([H])[H])c([H])c1[H]
     RDKit          3D

 74 80  0  0  0  0  0  0  0  0999 V2000
   -8.2365   -1.8018   -1.9107 C   0  0  0  0  0  0  0  0  0  0  0  0
   -8.1526   -0.8873   -0.7615 C   0  0  0  0  0  0  0  0  0  0  0  0
   -9.2742   -0.3808   -0.1329 C   0  0  0  0  0  0  0  0  0  0  0  0
   -9.0993    0.4817    0.9444 C   0  0  0  0  0  0  0  0  0  0  0  0
   -7.8338    0.8250    1.3768 C   0  0  0  0  0  0  0  0  0  0  0  0
   -6.7734    0.3082    0.7357 N   0  0  0  0  0  0  0  0  0  0  0  0
   -6.8827   -0.5288   -0.3091 C   0  0  0  0  0  0  0  0  0  0  0  0
   -5.7032   -1.1050   -0.9949 C   0  0  0  0  0  0  0  0  0  0  0  0
   -4.5115   -0.6323   -0.4291 N   0  0  0  0  0  0  0  0  0  0  0  0
   -4.1782    0.7257   -0.4890 C   0  0  0  0  0  0  0  0  0  0  0  0
   -2.7127    0.9815   -0.8017 C   0  0  0  0  0  0  0  0  0  0  0  0
   -1.8017    0.1243    0.0351 C   0  0  0  0  0  0  0  0  0  0  0  0
   -2.1983   -1.3017    0.1524 C   0  0  0  0  0  0  0  0  0  0  0  0
   -3.6647   -1.5134    0.2629 C   0  0  0  0  0  0  0  0  0  0  0  0
   -1.4592    0.7648    1.2924 N   0  0  0  0  0  0  0  0  0  0  0  0
   -0.0228    0.7369    1.4429 C   0  0  0  0  0  0  0  0  0  0  0  0
    0.6478    1.0067    2.4796 O   0  0  0  0  0  0  0  0  0  0  0  0
    0.5853    0.3471    0.2156 N   0  0  0  0  0  0  0  0  0  0  0  0
   -0.4788    0.1336   -0.6924 C   0  0  0  0  0  0  0  0  0  0  0  0
   -0.3961   -0.0289   -1.9183 O   0  0  0  0  0  0  0  0  0  0  0  0
    2.0003    0.2078   -0.0355 C   0  0  0  0  0  0  0  0  0  0  0  0
    2.7869    1.3137   -0.2806 C   0  0  0  0  0  0  0  0  0  0  0  0
    4.1421    1.2220   -0.5193 C   0  0  0  0  0  0  0  0  0  0  0  0
    4.7628   -0.0156   -0.5189 C   0  0  0  0  0  0  0  0  0  0  0  0
    3.9636   -1.1306   -0.2714 C   0  0  0  0  0  0  0  0  0  0  0  0
    2.6031   -1.0264   -0.0329 C   0  0  0  0  0  0  0  0  0  0  0  0
    6.1900   -0.1229   -0.7630 C   0  0  0  0  0  0  0  0  0  0  0  0
    6.7976    0.7842   -1.5998 C   0  0  0  0  0  0  0  0  0  0  0  0
    8.1542    0.7413   -1.8646 C   0  0  0  0  0  0  0  0  0  0  0  0
    8.9283   -0.2261   -1.2846 C   0  0  0  0  0  0  0  0  0  0  0  0
    8.3557   -1.1393   -0.4510 C   0  0  0  0  0  0  0  0  0  0  0  0
    7.0032   -1.0807   -0.1994 C   0  0  0  0  0  0  0  0  0  0  0  0
   10.3691   -0.2610   -1.5627 C   0  0  0  0  0  0  0  0  0  0  0  0
   11.2768   -1.1631   -1.0676 C   0  0  0  0  0  0  0  0  0  0  0  0
   12.5258   -0.8389   -1.5759 C   0  0  0  0  0  0  0  0  0  0  0  0
   12.3145    0.2476   -2.3577 N   0  0  0  0  0  0  0  0  0  0  0  0
   11.0460    0.5903   -2.3521 N   0  0  0  0  0  0  0  0  0  0  0  0
   -2.2728    1.3533    2.2830 C   0  0  0  0  0  0  0  0  0  0  0  0
   -2.4556    2.7143    2.3640 C   0  0  0  0  0  0  0  0  0  0  0  0
   -3.2619    3.2749    3.3543 C   0  0  0  0  0  0  0  0  0  0  0  0
   -3.4337    4.5094    3.4355 O   0  0  0  0  0  0  0  0  0  0  0  0
   -3.8639    2.4741    4.2359 N   0  0  0  0  0  0  0  0  0  0  0  0
   -3.6769    1.1351    4.1463 C   0  0  0  0  0  0  0  0  0  0  0  0
   -2.8891    0.5772    3.1795 N   0  0  0  0  0  0  0  0  0  0  0  0
   -7.7447   -2.7657   -1.7693 H   0  0  0  0  0  0  0  0  0  0  0  0
   -9.3303   -2.0399   -2.0679 H   0  0  0  0  0  0  0  0  0  0  0  0
   -7.8883   -1.3163   -2.8420 H   0  0  0  0  0  0  0  0  0  0  0  0
  -10.2693   -0.6495   -0.4702 H   0  0  0  0  0  0  0  0  0  0  0  0
   -9.9756    0.8695    1.4282 H   0  0  0  0  0  0  0  0  0  0  0  0
   -7.7334    1.5020    2.2238 H   0  0  0  0  0  0  0  0  0  0  0  0
   -5.8101   -2.2144   -0.9988 H   0  0  0  0  0  0  0  0  0  0  0  0
   -5.7167   -0.8140   -2.0882 H   0  0  0  0  0  0  0  0  0  0  0  0
   -4.4615    1.2623    0.4412 H   0  0  0  0  0  0  0  0  0  0  0  0
   -4.7533    1.2228   -1.3089 H   0  0  0  0  0  0  0  0  0  0  0  0
   -2.4808    0.8670   -1.8812 H   0  0  0  0  0  0  0  0  0  0  0  0
   -2.5175    2.0403   -0.5415 H   0  0  0  0  0  0  0  0  0  0  0  0
   -1.7106   -1.7360    1.0515 H   0  0  0  0  0  0  0  0  0  0  0  0
   -1.8273   -1.8484   -0.7623 H   0  0  0  0  0  0  0  0  0  0  0  0
   -3.9294   -1.6238    1.3565 H   0  0  0  0  0  0  0  0  0  0  0  0
   -3.8690   -2.5560   -0.1324 H   0  0  0  0  0  0  0  0  0  0  0  0
    2.3119    2.2983   -0.2827 H   0  0  0  0  0  0  0  0  0  0  0  0
    4.7639    2.0849   -0.7118 H   0  0  0  0  0  0  0  0  0  0  0  0
    4.4790   -2.0775   -0.2785 H   0  0  0  0  0  0  0  0  0  0  0  0
    2.0117   -1.9021    0.1544 H   0  0  0  0  0  0  0  0  0  0  0  0
    6.1791    1.5613   -2.0675 H   0  0  0  0  0  0  0  0  0  0  0  0
    8.6114    1.4556   -2.5186 H   0  0  0  0  0  0  0  0  0  0  0  0
    8.9335   -1.9182    0.0255 H   0  0  0  0  0  0  0  0  0  0  0  0
    6.5255   -1.7987    0.4644 H   0  0  0  0  0  0  0  0  0  0  0  0
   11.0721   -1.9768   -0.4065 H   0  0  0  0  0  0  0  0  0  0  0  0
   13.4501   -1.3469   -1.3843 H   0  0  0  0  0  0  0  0  0  0  0  0
   13.0683    0.7326   -2.8848 H   0  0  0  0  0  0  0  0  0  0  0  0
   -1.9844    3.3968    1.6672 H   0  0  0  0  0  0  0  0  0  0  0  0
   -4.4677    2.9014    4.9781 H   0  0  0  0  0  0  0  0  0  0  0  0
   -4.1560    0.4946    4.8471 H   0  0  0  0  0  0  0  0  0  0  0  0
  1  2  1  0
  2  3  2  0
  3  4  1  0
  4  5  2  0
  5  6  1  0
  6  7  2  0
  7  8  1  0
  8  9  1  0
  9 10  1  0
 10 11  1  0
 11 12  1  0
 12 13  1  0
 13 14  1  0
 12 15  1  0
 15 16  1  0
 16 17  2  0
 16 18  1  0
 18 19  1  0
 19 20  2  0
 18 21  1  0
 21 22  2  0
 22 23  1  0
 23 24  2  0
 24 25  1  0
 25 26  2  0
 24 27  1  0
 27 28  2  0
 28 29  1  0
 29 30  2  0
 30 31  1  0
 31 32  2  0
 30 33  1  0
 33 34  1  0
 34 35  2  0
 35 36  1  0
 36 37  1  0
 15 38  1  0
 38 39  2  0
 39 40  1  0
 40 41  2  0
 40 42  1  0
 42 43  1  0
 43 44  2  0
  7  2  1  0
 14  9  1  0
 26 21  1  0
 32 27  1  0
 37 33  2  0
 44 38  1  0
 19 12  1  0
  1 45  1  0
  1 46  1  0
  1 47  1  0
  3 48  1  0
  4 49  1  0
  5 50  1  0
  8 51  1  0
  8 52  1  0
 10 53  1  0
 10 54  1  0
 11 55  1  0
 11 56  1  0
 13 57  1  0
 13 58  1  0
 14 59  1  0
 14 60  1  0
 22 61  1  0
 23 62  1  0
 25 63  1  0
 26 64  1  0
 28 65  1  0
 29 66  1  0
 31 67  1  0
 32 68  1  0
 34 69  1  0
 35 70  1  0
 36 71  1  0
 39 72  1  0
 42 73  1  0
 43 74  1  0
M  END
$$$$
[H]c1nc2c([H])c(N([H])C(=O)C3([H])C([H])([H])C3([H])C([H])([H])[H])c([H])c(-c3c([H])c([H])c(C#N)c(F)c3[H])n2n1
     RDKit          3D

 39 42  0  0  0  0  0  0  0  0999 V2000
    5.7536    1.3881    0.9168 C   0  0  0  0  0  0  0  0  0  0  0  0
    4.3506    1.2474    0.3443 C   0  0  0  0  0  0  0  0  0  0  0  0
    4.0259    1.9387   -0.9279 C   0  0  0  0  0  0  0  0  0  0  0  0
    4.3051    0.4715   -0.9641 C   0  0  0  0  0  0  0  0  0  0  0  0
    3.1349   -0.4755   -1.0266 C   0  0  0  0  0  0  0  0  0  0  0  0
    3.3802   -1.5598   -1.5800 O   0  0  0  0  0  0  0  0  0  0  0  0
    1.9312   -0.0519   -0.4740 N   0  0  0  0  0  0  0  0  0  0  0  0
    0.7331   -0.8106   -0.4380 C   0  0  0  0  0  0  0  0  0  0  0  0
   -0.4604   -0.1547   -0.1363 C   0  0  0  0  0  0  0  0  0  0  0  0
   -1.6715   -0.7966   -0.0583 C   0  0  0  0  0  0  0  0  0  0  0  0
   -2.8623   -0.0412    0.2300 C   0  0  0  0  0  0  0  0  0  0  0  0
   -2.8665    1.3310   -0.0423 C   0  0  0  0  0  0  0  0  0  0  0  0
   -3.9747    2.0980    0.2423 C   0  0  0  0  0  0  0  0  0  0  0  0
   -5.1203    1.5701    0.8000 C   0  0  0  0  0  0  0  0  0  0  0  0
   -6.2727    2.3957    1.0901 C   0  0  0  0  0  0  0  0  0  0  0  0
   -7.1848    3.0543    1.3319 N   0  0  0  0  0  0  0  0  0  0  0  0
   -5.1046    0.2253    1.0624 C   0  0  0  0  0  0  0  0  0  0  0  0
   -6.2076   -0.3190    1.6065 F   0  0  0  0  0  0  0  0  0  0  0  0
   -3.9917   -0.5824    0.7845 C   0  0  0  0  0  0  0  0  0  0  0  0
   -1.6820   -2.1423   -0.2916 N   0  0  0  0  0  0  0  0  0  0  0  0
   -2.6521   -3.0321   -0.3034 N   0  0  0  0  0  0  0  0  0  0  0  0
   -2.1633   -4.2296   -0.5938 C   0  0  0  0  0  0  0  0  0  0  0  0
   -0.8429   -4.0922   -0.7712 N   0  0  0  0  0  0  0  0  0  0  0  0
   -0.5483   -2.7913   -0.5824 C   0  0  0  0  0  0  0  0  0  0  0  0
    0.7030   -2.1613   -0.6684 C   0  0  0  0  0  0  0  0  0  0  0  0
    5.7567    2.0108    1.8285 H   0  0  0  0  0  0  0  0  0  0  0  0
    6.0836    0.3594    1.2441 H   0  0  0  0  0  0  0  0  0  0  0  0
    6.4804    1.7258    0.1503 H   0  0  0  0  0  0  0  0  0  0  0  0
    3.5750    1.1126    1.1006 H   0  0  0  0  0  0  0  0  0  0  0  0
    2.9923    2.2340   -1.1594 H   0  0  0  0  0  0  0  0  0  0  0  0
    4.7839    2.6370   -1.3681 H   0  0  0  0  0  0  0  0  0  0  0  0
    5.2474    0.1568   -1.4031 H   0  0  0  0  0  0  0  0  0  0  0  0
    1.9140    0.9155   -0.0436 H   0  0  0  0  0  0  0  0  0  0  0  0
   -0.3678    0.9172    0.0407 H   0  0  0  0  0  0  0  0  0  0  0  0
   -2.0306    1.8526   -0.4828 H   0  0  0  0  0  0  0  0  0  0  0  0
   -3.9573    3.1668    0.0223 H   0  0  0  0  0  0  0  0  0  0  0  0
   -4.1066   -1.6228    1.0516 H   0  0  0  0  0  0  0  0  0  0  0  0
   -2.6562   -5.1908   -0.6913 H   0  0  0  0  0  0  0  0  0  0  0  0
    1.5734   -2.7546   -0.8978 H   0  0  0  0  0  0  0  0  0  0  0  0
  1  2  1  0
  2  3  1  0
  3  4  1  0
  4  5  1  0
  5  6  2  0
  5  7  1  0
  7  8  1  0
  8  9  1  0
  9 10  2  0
 10 11  1  0
 11 12  2  0
 12 13  1  0
 13 14  2  0
 14 15  1  0
 15 16  3  0
 14 17  1  0
 17 18  1  0
 17 19  2  0
 10 20  1  0
 20 21  1  0
 21 22  2  0
 22 23  1  0
 23 24  2  0
 24 25  1  0
  4  2  1  0
 25  8  2  0
 19 11  1  0
 24 20  1  0
  1 26  1  0
  1 27  1  0
  1 28  1  0
  2 29  1  0
  3 30  1  0
  3 31  1  0
  4 32  1  0
  7 33  1  0
  9 34  1  0
 12 35  1  0
 13 36  1  0
 19 37  1  0
 22 38  1  0
 25 39  1  0
M  END
$$$$
[H]OC(=O)C([H])([H])N([H])C(=O)c1c(O[H])n(C2([H])C([H])([H])C([H])([H])C([H])([H])C([H])([H])C2([H])[H])c(=O)n(C2([H])C([H])([H])C([H])([H])C([H])([H])C([H])([H])C2([H])[H])c1=O
     RDKit          3D

 55 57  0  0  0  0  0  0  0  0999 V2000
    0.0457    7.6460   -0.3082 O   0  0  0  0  0  0  0  0  0  0  0  0
   -0.1341    6.2743   -0.5293 C   0  0  0  0  0  0  0  0  0  0  0  0
    0.4938    5.7629   -1.4699 O   0  0  0  0  0  0  0  0  0  0  0  0
   -1.0579    5.5796    0.3870 C   0  0  0  0  0  0  0  0  0  0  0  0
   -1.1617    4.1436    0.1092 N   0  0  0  0  0  0  0  0  0  0  0  0
   -0.0633    3.2897    0.1970 C   0  0  0  0  0  0  0  0  0  0  0  0
    1.0620    3.8670    0.5588 O   0  0  0  0  0  0  0  0  0  0  0  0
    0.0638    1.8679   -0.0381 C   0  0  0  0  0  0  0  0  0  0  0  0
   -0.9890    1.0550   -0.4486 C   0  0  0  0  0  0  0  0  0  0  0  0
   -2.2299    1.6811   -0.6969 O   0  0  0  0  0  0  0  0  0  0  0  0
   -0.8145   -0.2534   -0.6026 N   0  0  0  0  0  0  0  0  0  0  0  0
   -1.8554   -1.1540   -0.9920 C   0  0  0  0  0  0  0  0  0  0  0  0
   -1.7701   -2.4823   -0.2665 C   0  0  0  0  0  0  0  0  0  0  0  0
   -3.1419   -3.0651   -0.0496 C   0  0  0  0  0  0  0  0  0  0  0  0
   -3.9373   -2.2126    0.8644 C   0  0  0  0  0  0  0  0  0  0  0  0
   -3.8281   -0.7670    0.4916 C   0  0  0  0  0  0  0  0  0  0  0  0
   -3.2684   -0.7356   -0.9344 C   0  0  0  0  0  0  0  0  0  0  0  0
    0.4341   -0.7551   -0.3468 C   0  0  0  0  0  0  0  0  0  0  0  0
    0.6346   -1.9780   -0.4870 O   0  0  0  0  0  0  0  0  0  0  0  0
    1.4807   -0.0331    0.0459 N   0  0  0  0  0  0  0  0  0  0  0  0
    2.7902   -0.6786    0.2972 C   0  0  0  0  0  0  0  0  0  0  0  0
    3.2940   -1.2040   -0.9756 C   0  0  0  0  0  0  0  0  0  0  0  0
    3.8142   -2.6030   -0.9740 C   0  0  0  0  0  0  0  0  0  0  0  0
    4.4281   -2.9045    0.3758 C   0  0  0  0  0  0  0  0  0  0  0  0
    3.2433   -2.9359    1.3291 C   0  0  0  0  0  0  0  0  0  0  0  0
    2.6466   -1.5710    1.4511 C   0  0  0  0  0  0  0  0  0  0  0  0
    1.3117    1.2710    0.2038 C   0  0  0  0  0  0  0  0  0  0  0  0
    2.3193    1.9519    0.5803 O   0  0  0  0  0  0  0  0  0  0  0  0
   -0.2317    8.1132    0.5349 H   0  0  0  0  0  0  0  0  0  0  0  0
   -2.0505    6.0259    0.2553 H   0  0  0  0  0  0  0  0  0  0  0  0
   -0.6658    5.7397    1.4166 H   0  0  0  0  0  0  0  0  0  0  0  0
   -2.1010    3.8284   -0.1390 H   0  0  0  0  0  0  0  0  0  0  0  0
   -2.3895    2.1031   -1.6216 H   0  0  0  0  0  0  0  0  0  0  0  0
   -1.6130   -1.4246   -2.0769 H   0  0  0  0  0  0  0  0  0  0  0  0
   -1.2581   -3.2777   -0.8868 H   0  0  0  0  0  0  0  0  0  0  0  0
   -1.3420   -2.3957    0.7592 H   0  0  0  0  0  0  0  0  0  0  0  0
   -3.6461   -3.4167   -0.9691 H   0  0  0  0  0  0  0  0  0  0  0  0
   -2.9824   -4.0476    0.5214 H   0  0  0  0  0  0  0  0  0  0  0  0
   -5.0035   -2.5509    0.8850 H   0  0  0  0  0  0  0  0  0  0  0  0
   -3.5446   -2.3332    1.9055 H   0  0  0  0  0  0  0  0  0  0  0  0
   -4.8606   -0.3210    0.4071 H   0  0  0  0  0  0  0  0  0  0  0  0
   -3.2060   -0.1913    1.1874 H   0  0  0  0  0  0  0  0  0  0  0  0
   -3.6053    0.1747   -1.3970 H   0  0  0  0  0  0  0  0  0  0  0  0
   -3.8734   -1.5753   -1.4433 H   0  0  0  0  0  0  0  0  0  0  0  0
    3.4740    0.1669    0.6075 H   0  0  0  0  0  0  0  0  0  0  0  0
    4.1314   -0.5687   -1.4023 H   0  0  0  0  0  0  0  0  0  0  0  0
    2.5277   -1.1517   -1.8070 H   0  0  0  0  0  0  0  0  0  0  0  0
    4.6097   -2.7381   -1.7620 H   0  0  0  0  0  0  0  0  0  0  0  0
    3.0656   -3.3844   -1.1878 H   0  0  0  0  0  0  0  0  0  0  0  0
    4.8824   -3.8982    0.3474 H   0  0  0  0  0  0  0  0  0  0  0  0
    5.1169   -2.0910    0.6746 H   0  0  0  0  0  0  0  0  0  0  0  0
    3.5827   -3.3299    2.3191 H   0  0  0  0  0  0  0  0  0  0  0  0
    2.5055   -3.6637    0.9436 H   0  0  0  0  0  0  0  0  0  0  0  0
    3.0977   -1.1295    2.3933 H   0  0  0  0  0  0  0  0  0  0  0  0
    1.5697   -1.7195    1.7631 H   0  0  0  0  0  0  0  0  0  0  0  0
  1  2  1  0
  2  3  2  0
  2  4  1  0
  4  5  1  0
  5  6  1  0
  6  7  2  0
  6  8  1  0
  8  9  2  0
  9 10  1  0
  9 11  1  0
 11 12  1  0
 12 13  1  0
 13 14  1  0
 14 15  1  0
 15 16  1  0
 16 17  1  0
 11 18  1  0
 18 19  2  0
 18 20  1  0
 20 21  1  0
 21 22  1  0
 22 23  1  0
 23 24  1  0
 24 25  1  0
 25 26  1  0
 20 27  1  0
 27 28  2  0
 27  8  1  0
 17 12  1  0
 26 21  1  0
  1 29  1  0
  4 30  1  0
  4 31  1  0
  5 32  1  0
 10 33  1  0
 12 34  1  0
 13 35  1  0
 13 36  1  0
 14 37  1  0
 14 38  1  0
 15 39  1  0
 15 40  1  0
 16 41  1  0
 16 42  1  0
 17 43  1  0
 17 44  1  0
 21 45  1  0
 22 46  1  0
 22 47  1  0
 23 48  1  0
 23 49  1  0
 24 50  1  0
 24 51  1  0
 25 52  1  0
 25 53  1  0
 26 54  1  0
 26 55  1  0
M  END
$$$$
[H]c1nc2c([H])c(N([H])C(=O)C([H])([H])[H])c([H])c(-c3c([H])nc(C#N)c([H])c3C([H])([H])[H])n2n1
     RDKit          3D

 34 36  0  0  0  0  0  0  0  0999 V2000
    4.4104   -1.2882    1.6982 C   0  0  0  0  0  0  0  0  0  0  0  0
    4.4207   -0.7402    0.2574 C   0  0  0  0  0  0  0  0  0  0  0  0
    5.5795   -0.8786   -0.2644 O   0  0  0  0  0  0  0  0  0  0  0  0
    3.2839   -0.2394   -0.1864 N   0  0  0  0  0  0  0  0  0  0  0  0
    2.0916    0.2858   -0.6519 C   0  0  0  0  0  0  0  0  0  0  0  0
    0.8746   -0.3117   -0.2415 C   0  0  0  0  0  0  0  0  0  0  0  0
   -0.3531    0.1481   -0.5945 C   0  0  0  0  0  0  0  0  0  0  0  0
   -1.6071   -0.4672   -0.1805 C   0  0  0  0  0  0  0  0  0  0  0  0
   -2.1660   -1.4391   -0.9828 C   0  0  0  0  0  0  0  0  0  0  0  0
   -3.3303   -2.0253   -0.6224 N   0  0  0  0  0  0  0  0  0  0  0  0
   -3.9907   -1.7093    0.4969 C   0  0  0  0  0  0  0  0  0  0  0  0
   -3.4271   -0.7272    1.3093 C   0  0  0  0  0  0  0  0  0  0  0  0
   -2.2465   -0.1091    0.9778 C   0  0  0  0  0  0  0  0  0  0  0  0
   -1.6265    0.9324    1.8215 C   0  0  0  0  0  0  0  0  0  0  0  0
   -5.2236   -2.3424    0.8610 C   0  0  0  0  0  0  0  0  0  0  0  0
   -6.2236   -2.8629    1.1385 N   0  0  0  0  0  0  0  0  0  0  0  0
   -0.3988    1.2374   -1.3813 N   0  0  0  0  0  0  0  0  0  0  0  0
   -1.4168    1.9325   -1.9037 N   0  0  0  0  0  0  0  0  0  0  0  0
   -0.9765    2.9529   -2.6356 C   0  0  0  0  0  0  0  0  0  0  0  0
    0.3764    2.9016   -2.5724 N   0  0  0  0  0  0  0  0  0  0  0  0
    0.7141    1.8525   -1.8060 C   0  0  0  0  0  0  0  0  0  0  0  0
    1.9743    1.3921   -1.4523 C   0  0  0  0  0  0  0  0  0  0  0  0
    5.3488   -1.7875    1.8993 H   0  0  0  0  0  0  0  0  0  0  0  0
    3.5148   -1.9461    1.7056 H   0  0  0  0  0  0  0  0  0  0  0  0
    4.2975   -0.3765    2.3063 H   0  0  0  0  0  0  0  0  0  0  0  0
    3.8256   -0.1400   -1.4449 H   0  0  0  0  0  0  0  0  0  0  0  0
    0.9497   -1.1721    0.3775 H   0  0  0  0  0  0  0  0  0  0  0  0
   -1.7208   -1.7740   -1.9107 H   0  0  0  0  0  0  0  0  0  0  0  0
   -3.9548   -0.4747    2.2054 H   0  0  0  0  0  0  0  0  0  0  0  0
   -0.5298    0.8151    1.9075 H   0  0  0  0  0  0  0  0  0  0  0  0
   -1.8239    1.9311    1.4333 H   0  0  0  0  0  0  0  0  0  0  0  0
   -2.0309    0.7919    2.8489 H   0  0  0  0  0  0  0  0  0  0  0  0
   -1.4907    3.7175   -3.2004 H   0  0  0  0  0  0  0  0  0  0  0  0
    2.8757    1.9205   -1.8119 H   0  0  0  0  0  0  0  0  0  0  0  0
  1  2  1  0
  2  3  2  0
  2  4  1  0
  4  5  1  0
  5  6  1  0
  6  7  2  0
  7  8  1  0
  8  9  2  0
  9 10  1  0
 10 11  2  0
 11 12  1  0
 12 13  2  0
 13 14  1  0
 11 15  1  0
 15 16  3  0
  7 17  1  0
 17 18  1  0
 18 19  2  0
 19 20  1  0
 20 21  2  0
 21 22  1  0
 22  5  2  0
 13  8  1  0
 21 17  1  0
  1 23  1  0
  1 24  1  0
  1 25  1  0
  4 26  1  0
  6 27  1  0
  9 28  1  0
 12 29  1  0
 14 30  1  0
 14 31  1  0
 14 32  1  0
 19 33  1  0
 22 34  1  0
M  END
$$$$
[H]c1nc2c([H])c(N([H])C([H])([H])c3c([H])c([H])c([H])c([H])c3F)c([H])c(-c3c([H])c([H])c(C#N)c([H])c3[H])n2n1
     RDKit          3D

 40 43  0  0  0  0  0  0  0  0999 V2000
   -3.9714   -1.7513    1.5217 F   0  0  0  0  0  0  0  0  0  0  0  0
   -4.7298   -0.8374    0.8512 C   0  0  0  0  0  0  0  0  0  0  0  0
   -6.0364   -1.0226    0.6681 C   0  0  0  0  0  0  0  0  0  0  0  0
   -6.7774   -0.1099   -0.0331 C   0  0  0  0  0  0  0  0  0  0  0  0
   -6.1576    0.9820   -0.5329 C   0  0  0  0  0  0  0  0  0  0  0  0
   -4.7800    1.1813   -0.3447 C   0  0  0  0  0  0  0  0  0  0  0  0
   -4.0497    0.2881    0.3423 C   0  0  0  0  0  0  0  0  0  0  0  0
   -2.6198    0.4064    0.7066 C   0  0  0  0  0  0  0  0  0  0  0  0
   -1.7947    0.1486   -0.4426 N   0  0  0  0  0  0  0  0  0  0  0  0
   -0.4756   -0.2952   -0.4587 C   0  0  0  0  0  0  0  0  0  0  0  0
    0.6008    0.2771    0.1693 C   0  0  0  0  0  0  0  0  0  0  0  0
    1.8578   -0.2297    0.0500 C   0  0  0  0  0  0  0  0  0  0  0  0
    3.0743    0.4064    0.4989 C   0  0  0  0  0  0  0  0  0  0  0  0
    4.0892   -0.3276    1.0385 C   0  0  0  0  0  0  0  0  0  0  0  0
    5.3172    0.2616    1.2365 C   0  0  0  0  0  0  0  0  0  0  0  0
    5.5589    1.5713    0.9019 C   0  0  0  0  0  0  0  0  0  0  0  0
    4.5388    2.3215    0.3581 C   0  0  0  0  0  0  0  0  0  0  0  0
    3.2989    1.7231    0.1610 C   0  0  0  0  0  0  0  0  0  0  0  0
    6.8699    2.1823    1.0474 C   0  0  0  0  0  0  0  0  0  0  0  0
    7.9372    2.6814    1.1333 N   0  0  0  0  0  0  0  0  0  0  0  0
    2.0153   -1.3620   -0.7261 N   0  0  0  0  0  0  0  0  0  0  0  0
    3.1591   -1.9647   -0.9878 N   0  0  0  0  0  0  0  0  0  0  0  0
    2.8832   -3.0045   -1.8248 C   0  0  0  0  0  0  0  0  0  0  0  0
    1.5561   -2.9999   -2.0526 N   0  0  0  0  0  0  0  0  0  0  0  0
    1.0211   -1.9626   -1.3602 C   0  0  0  0  0  0  0  0  0  0  0  0
   -0.2491   -1.4422   -1.2379 C   0  0  0  0  0  0  0  0  0  0  0  0
   -6.5748   -1.9343    1.0364 H   0  0  0  0  0  0  0  0  0  0  0  0
   -7.8508   -0.2811   -0.1716 H   0  0  0  0  0  0  0  0  0  0  0  0
   -6.7280    1.7249   -1.0697 H   0  0  0  0  0  0  0  0  0  0  0  0
   -4.3712    2.0882   -0.7511 H   0  0  0  0  0  0  0  0  0  0  0  0
   -2.3991   -0.1247    1.6359 H   0  0  0  0  0  0  0  0  0  0  0  0
   -2.4420    1.5159    0.9836 H   0  0  0  0  0  0  0  0  0  0  0  0
   -2.2229    0.3274   -1.4314 H   0  0  0  0  0  0  0  0  0  0  0  0
    0.4637    1.1632    0.8047 H   0  0  0  0  0  0  0  0  0  0  0  0
    3.9733   -1.3572    1.3363 H   0  0  0  0  0  0  0  0  0  0  0  0
    6.1496   -0.3160    1.6691 H   0  0  0  0  0  0  0  0  0  0  0  0
    4.7714    3.3421    0.1210 H   0  0  0  0  0  0  0  0  0  0  0  0
    2.4955    2.3013   -0.2712 H   0  0  0  0  0  0  0  0  0  0  0  0
    3.6572   -3.6306   -2.1972 H   0  0  0  0  0  0  0  0  0  0  0  0
   -1.0585   -1.9405   -1.7411 H   0  0  0  0  0  0  0  0  0  0  0  0
  1  2  1  0
  2  3  2  0
  3  4  1  0
  4  5  2  0
  5  6  1  0
  6  7  2  0
  7  8  1  0
  8  9  1  0
  9 10  1  0
 10 11  1  0
 11 12  2  0
 12 13  1  0
 13 14  2  0
 14 15  1  0
 15 16  2  0
 16 17  1  0
 17 18  2  0
 16 19  1  0
 19 20  3  0
 12 21  1  0
 21 22  1  0
 22 23  2  0
 23 24  1  0
 24 25  2  0
 25 26  1  0
  7  2  1  0
 26 10  2  0
 18 13  1  0
 25 21  1  0
  3 27  1  0
  4 28  1  0
  5 29  1  0
  6 30  1  0
  8 31  1  0
  8 32  1  0
  9 33  1  0
 11 34  1  0
 14 35  1  0
 15 36  1  0
 17 37  1  0
 18 38  1  0
 23 39  1  0
 26 40  1  0
M  END
$$$$
[H]Oc1c([H])c(-c2c([H])c([H])c(C#N)c(F)c2[H])n2nc([H])nc2c1[H]
     RDKit          3D

 26 28  0  0  0  0  0  0  0  0999 V2000
   -3.2952    1.3691   -2.4637 O   0  0  0  0  0  0  0  0  0  0  0  0
   -2.6611    0.7813   -1.3607 C   0  0  0  0  0  0  0  0  0  0  0  0
   -1.2837    0.7013   -1.2880 C   0  0  0  0  0  0  0  0  0  0  0  0
   -0.6397    0.1278   -0.2134 C   0  0  0  0  0  0  0  0  0  0  0  0
    0.8244    0.0438   -0.1381 C   0  0  0  0  0  0  0  0  0  0  0  0
    1.5908    1.0340    0.4315 C   0  0  0  0  0  0  0  0  0  0  0  0
    2.9679    0.9425    0.4960 C   0  0  0  0  0  0  0  0  0  0  0  0
    3.5642   -0.1907   -0.0368 C   0  0  0  0  0  0  0  0  0  0  0  0
    5.0048   -0.2680    0.0400 C   0  0  0  0  0  0  0  0  0  0  0  0
    6.1594   -0.3364    0.0825 N   0  0  0  0  0  0  0  0  0  0  0  0
    2.8075   -1.1860   -0.6083 C   0  0  0  0  0  0  0  0  0  0  0  0
    3.3969   -2.2868   -1.1251 F   0  0  0  0  0  0  0  0  0  0  0  0
    1.4328   -1.0797   -0.6650 C   0  0  0  0  0  0  0  0  0  0  0  0
   -1.4239   -0.3557    0.7721 N   0  0  0  0  0  0  0  0  0  0  0  0
   -1.1431   -0.9545    1.9176 N   0  0  0  0  0  0  0  0  0  0  0  0
   -2.2389   -1.2691    2.5940 C   0  0  0  0  0  0  0  0  0  0  0  0
   -3.2810   -0.8544    1.8515 N   0  0  0  0  0  0  0  0  0  0  0  0
   -2.7701   -0.2960    0.7370 C   0  0  0  0  0  0  0  0  0  0  0  0
   -3.4485    0.2816   -0.3436 C   0  0  0  0  0  0  0  0  0  0  0  0
   -3.4868    2.3655   -2.4295 H   0  0  0  0  0  0  0  0  0  0  0  0
   -0.7127    1.1109   -2.1174 H   0  0  0  0  0  0  0  0  0  0  0  0
    1.0975    1.9205    0.8462 H   0  0  0  0  0  0  0  0  0  0  0  0
    3.5567    1.7298    0.9472 H   0  0  0  0  0  0  0  0  0  0  0  0
    0.8575   -1.8901   -1.1270 H   0  0  0  0  0  0  0  0  0  0  0  0
   -2.3414   -1.7673    3.5672 H   0  0  0  0  0  0  0  0  0  0  0  0
   -4.5343    0.3268   -0.3663 H   0  0  0  0  0  0  0  0  0  0  0  0
  1  2  1  0
  2  3  1  0
  3  4  2  0
  4  5  1  0
  5  6  2  0
  6  7  1  0
  7  8  2  0
  8  9  1  0
  9 10  3  0
  8 11  1  0
 11 12  1  0
 11 13  2  0
  4 14  1  0
 14 15  1  0
 15 16  2  0
 16 17  1  0
 17 18  2  0
 18 19  1  0
 19  2  2  0
 13  5  1  0
 18 14  1  0
  1 20  1  0
  3 21  1  0
  6 22  1  0
  7 23  1  0
 13 24  1  0
 16 25  1  0
 19 26  1  0
M  END
$$$$
[H]c1nc(OC([H])([H])[H])c([H])c(N2C(=O)N(c3c([H])c([H])c(-c4c([H])c([H])c5c(c([H])nn5[H])c4[H])c([H])c3[H])C(=O)C23C([H])([H])C([H])([H])N(C([H])([H])c2nc([H])c([H])c([H])c2C([H])([H])[H])C([H])([H])C3([H])[H])n1
     RDKit          3D

 73 79  0  0  0  0  0  0  0  0999 V2000
   -2.2328    7.9765   -0.2741 C   0  0  0  0  0  0  0  0  0  0  0  0
   -1.7315    6.7074    0.0237 O   0  0  0  0  0  0  0  0  0  0  0  0
   -1.7062    5.6513   -0.8721 C   0  0  0  0  0  0  0  0  0  0  0  0
   -1.1750    4.4350   -0.4419 C   0  0  0  0  0  0  0  0  0  0  0  0
   -1.1391    3.3744   -1.3138 C   0  0  0  0  0  0  0  0  0  0  0  0
   -1.6143    3.5384   -2.5478 N   0  0  0  0  0  0  0  0  0  0  0  0
   -2.1327    4.6987   -2.9910 C   0  0  0  0  0  0  0  0  0  0  0  0
   -2.1660    5.7330   -2.1371 N   0  0  0  0  0  0  0  0  0  0  0  0
   -0.6030    2.1236   -0.9208 N   0  0  0  0  0  0  0  0  0  0  0  0
    0.7828    1.9257   -0.5327 C   0  0  0  0  0  0  0  0  0  0  0  0
    1.5164    2.8951   -0.1595 O   0  0  0  0  0  0  0  0  0  0  0  0
    1.1216    0.5532   -0.6444 N   0  0  0  0  0  0  0  0  0  0  0  0
   -0.0817   -0.0923   -1.1087 C   0  0  0  0  0  0  0  0  0  0  0  0
   -0.1192   -1.2253   -1.6726 O   0  0  0  0  0  0  0  0  0  0  0  0
   -1.1980    0.8230   -0.7917 C   0  0  0  0  0  0  0  0  0  0  0  0
   -2.4308    0.6055   -1.6333 C   0  0  0  0  0  0  0  0  0  0  0  0
   -3.6772    0.9365   -0.8135 C   0  0  0  0  0  0  0  0  0  0  0  0
   -3.9029   -0.0966    0.2245 N   0  0  0  0  0  0  0  0  0  0  0  0
   -4.7405   -1.1305   -0.3423 C   0  0  0  0  0  0  0  0  0  0  0  0
   -5.1552   -2.1066    0.6472 C   0  0  0  0  0  0  0  0  0  0  0  0
   -4.8639   -2.0880    1.9451 N   0  0  0  0  0  0  0  0  0  0  0  0
   -5.2690   -2.9875    2.8563 C   0  0  0  0  0  0  0  0  0  0  0  0
   -6.0642   -4.0500    2.4595 C   0  0  0  0  0  0  0  0  0  0  0  0
   -6.4017   -4.1251    1.1216 C   0  0  0  0  0  0  0  0  0  0  0  0
   -5.9612   -3.1814    0.2381 C   0  0  0  0  0  0  0  0  0  0  0  0
   -6.3298   -3.2698   -1.1839 C   0  0  0  0  0  0  0  0  0  0  0  0
   -2.6029   -0.6364    0.6085 C   0  0  0  0  0  0  0  0  0  0  0  0
   -1.6226    0.5444    0.6485 C   0  0  0  0  0  0  0  0  0  0  0  0
    2.3817   -0.0480   -0.3545 C   0  0  0  0  0  0  0  0  0  0  0  0
    3.5520    0.6787   -0.4513 C   0  0  0  0  0  0  0  0  0  0  0  0
    4.8014    0.1251   -0.1689 C   0  0  0  0  0  0  0  0  0  0  0  0
    4.8454   -1.1875    0.2163 C   0  0  0  0  0  0  0  0  0  0  0  0
    3.6789   -1.9400    0.3204 C   0  0  0  0  0  0  0  0  0  0  0  0
    2.4761   -1.3621    0.0354 C   0  0  0  0  0  0  0  0  0  0  0  0
    6.1384   -1.8076    0.5288 C   0  0  0  0  0  0  0  0  0  0  0  0
    6.3361   -3.1365    0.2940 C   0  0  0  0  0  0  0  0  0  0  0  0
    7.5513   -3.7008    0.5995 C   0  0  0  0  0  0  0  0  0  0  0  0
    8.5737   -2.9320    1.1422 C   0  0  0  0  0  0  0  0  0  0  0  0
    9.8342   -3.2148    1.5294 N   0  0  0  0  0  0  0  0  0  0  0  0
   10.4176   -2.1217    1.9903 N   0  0  0  0  0  0  0  0  0  0  0  0
    9.5665   -1.0797    1.9248 C   0  0  0  0  0  0  0  0  0  0  0  0
    8.3975   -1.5882    1.3882 C   0  0  0  0  0  0  0  0  0  0  0  0
    7.1668   -1.0654    1.0677 C   0  0  0  0  0  0  0  0  0  0  0  0
   -1.4433    8.6684   -0.6624 H   0  0  0  0  0  0  0  0  0  0  0  0
   -3.0734    7.9730   -0.9800 H   0  0  0  0  0  0  0  0  0  0  0  0
   -2.5907    8.4230    0.6723 H   0  0  0  0  0  0  0  0  0  0  0  0
   -0.8105    4.3825    0.5734 H   0  0  0  0  0  0  0  0  0  0  0  0
   -2.4896    4.7297   -4.0010 H   0  0  0  0  0  0  0  0  0  0  0  0
   -2.4731    1.1322   -2.5726 H   0  0  0  0  0  0  0  0  0  0  0  0
   -2.5044   -0.4850   -1.8631 H   0  0  0  0  0  0  0  0  0  0  0  0
   -3.6521    1.9212   -0.3579 H   0  0  0  0  0  0  0  0  0  0  0  0
   -4.5450    0.8737   -1.4938 H   0  0  0  0  0  0  0  0  0  0  0  0
   -5.6509   -0.6396   -0.7480 H   0  0  0  0  0  0  0  0  0  0  0  0
   -4.2373   -1.6423   -1.2009 H   0  0  0  0  0  0  0  0  0  0  0  0
   -5.0030   -2.9263    3.9062 H   0  0  0  0  0  0  0  0  0  0  0  0
   -6.4096   -4.7943    3.1701 H   0  0  0  0  0  0  0  0  0  0  0  0
   -7.0283   -4.9649    0.8171 H   0  0  0  0  0  0  0  0  0  0  0  0
   -7.0436   -2.4288   -1.3769 H   0  0  0  0  0  0  0  0  0  0  0  0
   -5.4398   -3.2226   -1.8197 H   0  0  0  0  0  0  0  0  0  0  0  0
   -6.8709   -4.2002   -1.4174 H   0  0  0  0  0  0  0  0  0  0  0  0
   -2.6837   -1.0062    1.6479 H   0  0  0  0  0  0  0  0  0  0  0  0
   -2.2733   -1.4307   -0.0643 H   0  0  0  0  0  0  0  0  0  0  0  0
   -0.7678    0.1962    1.2675 H   0  0  0  0  0  0  0  0  0  0  0  0
   -2.1510    1.3990    1.0769 H   0  0  0  0  0  0  0  0  0  0  0  0
    3.5743    1.7203   -0.7537 H   0  0  0  0  0  0  0  0  0  0  0  0
    5.7019    0.7395   -0.2593 H   0  0  0  0  0  0  0  0  0  0  0  0
    3.8000   -2.9723    0.6320 H   0  0  0  0  0  0  0  0  0  0  0  0
    1.5771   -1.9301    0.1121 H   0  0  0  0  0  0  0  0  0  0  0  0
    5.5265   -3.7396   -0.1344 H   0  0  0  0  0  0  0  0  0  0  0  0
    7.7120   -4.7367    0.4182 H   0  0  0  0  0  0  0  0  0  0  0  0
   10.2578   -4.1572    1.4647 H   0  0  0  0  0  0  0  0  0  0  0  0
    9.7175   -0.0408    2.2182 H   0  0  0  0  0  0  0  0  0  0  0  0
    7.0574    0.0070    1.2746 H   0  0  0  0  0  0  0  0  0  0  0  0
  1  2  1  0
  2  3  1  0
  3  4  2  0
  4  5  1  0
  5  6  2  0
  6  7  1  0
  7  8  2  0
  5  9  1  0
  9 10  1  0
 10 11  2  0
 10 12  1  0
 12 13  1  0
 13 14  2  0
 13 15  1  0
 15 16  1  0
 16 17  1  0
 17 18  1  0
 18 19  1  0
 19 20  1  0
 20 21  2  0
 21 22  1  0
 22 23  2  0
 23 24  1  0
 24 25  2  0
 25 26  1  0
 18 27  1  0
 27 28  1  0
 12 29  1  0
 29 30  2  0
 30 31  1  0
 31 32  2  0
 32 33  1  0
 33 34  2  0
 32 35  1  0
 35 36  2  0
 36 37  1  0
 37 38  2  0
 38 39  1  0
 39 40  1  0
 40 41  2  0
 41 42  1  0
 42 43  2  0
  8  3  1  0
 15  9  1  0
 28 15  1  0
 34 29  1  0
 43 35  1  0
 25 20  1  0
 42 38  1  0
  1 44  1  0
  1 45  1  0
  1 46  1  0
  4 47  1  0
  7 48  1  0
 16 49  1  0
 16 50  1  0
 17 51  1  0
 17 52  1  0
 19 53  1  0
 19 54  1  0
 22 55  1  0
 23 56  1  0
 24 57  1  0
 26 58  1  0
 26 59  1  0
 26 60  1  0
 27 61  1  0
 27 62  1  0
 28 63  1  0
 28 64  1  0
 30 65  1  0
 31 66  1  0
 33 67  1  0
 34 68  1  0
 36 69  1  0
 37 70  1  0
 39 71  1  0
 41 72  1  0
 43 73  1  0
M  END
$$$$
[H]c1nc2c([H])c(N([H])C(=O)OC(C([H])([H])[H])(C([H])([H])[H])C([H])([H])[H])c([H])c(-c3c([H])c([H])c(C#N)c(F)c3[H])n2n1
     RDKit          3D

 42 44  0  0  0  0  0  0  0  0999 V2000
    4.2378    1.5324    0.7838 C   0  0  0  0  0  0  0  0  0  0  0  0
    4.3370    0.6915   -0.4719 C   0  0  0  0  0  0  0  0  0  0  0  0
    5.7854    0.2728   -0.6343 C   0  0  0  0  0  0  0  0  0  0  0  0
    4.0079    1.5856   -1.6409 C   0  0  0  0  0  0  0  0  0  0  0  0
    3.5708   -0.4608   -0.4008 O   0  0  0  0  0  0  0  0  0  0  0  0
    2.1629   -0.4578   -0.2178 C   0  0  0  0  0  0  0  0  0  0  0  0
    1.7079    0.6976   -0.1303 O   0  0  0  0  0  0  0  0  0  0  0  0
    1.4591   -1.6778   -0.1564 N   0  0  0  0  0  0  0  0  0  0  0  0
    0.0818   -1.8767    0.0176 C   0  0  0  0  0  0  0  0  0  0  0  0
   -0.7975   -0.8596    0.1569 C   0  0  0  0  0  0  0  0  0  0  0  0
   -2.1792   -1.0172    0.3325 C   0  0  0  0  0  0  0  0  0  0  0  0
   -2.9983    0.1698    0.4681 C   0  0  0  0  0  0  0  0  0  0  0  0
   -3.5244    0.7355   -0.6730 C   0  0  0  0  0  0  0  0  0  0  0  0
   -4.3153    1.8743   -0.5867 C   0  0  0  0  0  0  0  0  0  0  0  0
   -4.5648    2.4299    0.6675 C   0  0  0  0  0  0  0  0  0  0  0  0
   -5.3806    3.6077    0.7764 C   0  0  0  0  0  0  0  0  0  0  0  0
   -6.0403    4.5492    0.8788 N   0  0  0  0  0  0  0  0  0  0  0  0
   -4.0482    1.8795    1.8202 C   0  0  0  0  0  0  0  0  0  0  0  0
   -4.2944    2.4237    3.0322 F   0  0  0  0  0  0  0  0  0  0  0  0
   -3.2648    0.7441    1.6891 C   0  0  0  0  0  0  0  0  0  0  0  0
   -2.6412   -2.2741    0.3615 N   0  0  0  0  0  0  0  0  0  0  0  0
   -3.8682   -2.7325    0.5095 N   0  0  0  0  0  0  0  0  0  0  0  0
   -3.8324   -4.0804    0.4716 C   0  0  0  0  0  0  0  0  0  0  0  0
   -2.5491   -4.4445    0.2959 N   0  0  0  0  0  0  0  0  0  0  0  0
   -1.7964   -3.3107    0.2262 C   0  0  0  0  0  0  0  0  0  0  0  0
   -0.4521   -3.1757    0.0549 C   0  0  0  0  0  0  0  0  0  0  0  0
    3.9824    0.8909    1.6726 H   0  0  0  0  0  0  0  0  0  0  0  0
    5.2256    1.9653    1.0022 H   0  0  0  0  0  0  0  0  0  0  0  0
    3.4875    2.3332    0.7093 H   0  0  0  0  0  0  0  0  0  0  0  0
    5.9523    0.1482   -1.7343 H   0  0  0  0  0  0  0  0  0  0  0  0
    6.4223    1.1225   -0.3214 H   0  0  0  0  0  0  0  0  0  0  0  0
    6.0054   -0.6617   -0.0792 H   0  0  0  0  0  0  0  0  0  0  0  0
    3.8072    1.0355   -2.5726 H   0  0  0  0  0  0  0  0  0  0  0  0
    4.9352    2.1926   -1.8375 H   0  0  0  0  0  0  0  0  0  0  0  0
    3.2256    2.3413   -1.3953 H   0  0  0  0  0  0  0  0  0  0  0  0
    2.0497   -2.5834   -0.2553 H   0  0  0  0  0  0  0  0  0  0  0  0
   -0.4904    0.1813    0.1427 H   0  0  0  0  0  0  0  0  0  0  0  0
   -3.3358    0.3110   -1.6492 H   0  0  0  0  0  0  0  0  0  0  0  0
   -4.7286    2.3190   -1.4814 H   0  0  0  0  0  0  0  0  0  0  0  0
   -2.8562    0.3071    2.5907 H   0  0  0  0  0  0  0  0  0  0  0  0
   -4.7068   -4.7370    0.5689 H   0  0  0  0  0  0  0  0  0  0  0  0
    0.2211   -3.9917   -0.0527 H   0  0  0  0  0  0  0  0  0  0  0  0
  1  2  1  0
  2  3  1  0
  2  4  1  0
  2  5  1  0
  5  6  1  0
  6  7  2  0
  6  8  1  0
  8  9  1  0
  9 10  1  0
 10 11  2  0
 11 12  1  0
 12 13  2  0
 13 14  1  0
 14 15  2  0
 15 16  1  0
 16 17  3  0
 15 18  1  0
 18 19  1  0
 18 20  2  0
 11 21  1  0
 21 22  1  0
 22 23  2  0
 23 24  1  0
 24 25  2  0
 25 26  1  0
 26  9  2  0
 20 12  1  0
 25 21  1  0
  1 27  1  0
  1 28  1  0
  1 29  1  0
  3 30  1  0
  3 31  1  0
  3 32  1  0
  4 33  1  0
  4 34  1  0
  4 35  1  0
  8 36  1  0
 10 37  1  0
 13 38  1  0
 14 39  1  0
 20 40  1  0
 23 41  1  0
 26 42  1  0
M  END
$$$$
[H]c1nc2c([H])c(N([H])C([H])([H])C3([H])C([H])([H])OC([H])([H])C3([H])[H])c([H])c(-c3c([H])c([H])c(C#N)c([H])c3[H])n2n1
     RDKit          3D

 41 44  0  0  0  0  0  0  0  0999 V2000
    6.9170    3.5021    0.3504 N   0  0  0  0  0  0  0  0  0  0  0  0
    6.0465    2.7656    0.2990 C   0  0  0  0  0  0  0  0  0  0  0  0
    4.9572    1.8387    0.2111 C   0  0  0  0  0  0  0  0  0  0  0  0
    5.2132    0.5564   -0.2469 C   0  0  0  0  0  0  0  0  0  0  0  0
    4.1655   -0.3506   -0.3364 C   0  0  0  0  0  0  0  0  0  0  0  0
    2.8759   -0.0493    0.0063 C   0  0  0  0  0  0  0  0  0  0  0  0
    2.6387    1.2463    0.4648 C   0  0  0  0  0  0  0  0  0  0  0  0
    3.6648    2.1641    0.5615 C   0  0  0  0  0  0  0  0  0  0  0  0
    1.7570   -0.9929   -0.0536 C   0  0  0  0  0  0  0  0  0  0  0  0
    0.4627   -0.5150   -0.2506 C   0  0  0  0  0  0  0  0  0  0  0  0
   -0.6215   -1.3514   -0.2889 C   0  0  0  0  0  0  0  0  0  0  0  0
   -1.9550   -0.8506   -0.4927 N   0  0  0  0  0  0  0  0  0  0  0  0
   -2.2228    0.5463   -0.6670 C   0  0  0  0  0  0  0  0  0  0  0  0
   -3.6891    0.7757   -0.8578 C   0  0  0  0  0  0  0  0  0  0  0  0
   -4.4775    0.2905    0.3380 C   0  0  0  0  0  0  0  0  0  0  0  0
   -5.3935    1.4792    0.6328 C   0  0  0  0  0  0  0  0  0  0  0  0
   -4.6414    2.5768    0.2391 O   0  0  0  0  0  0  0  0  0  0  0  0
   -4.0682    2.2143   -0.9613 C   0  0  0  0  0  0  0  0  0  0  0  0
   -0.3896   -2.6934   -0.1247 C   0  0  0  0  0  0  0  0  0  0  0  0
    0.8871   -3.2035    0.0739 C   0  0  0  0  0  0  0  0  0  0  0  0
    1.3292   -4.4526    0.2607 N   0  0  0  0  0  0  0  0  0  0  0  0
    2.6571   -4.3249    0.4053 C   0  0  0  0  0  0  0  0  0  0  0  0
    3.0183   -3.0476    0.3110 N   0  0  0  0  0  0  0  0  0  0  0  0
    1.9125   -2.3172    0.1003 N   0  0  0  0  0  0  0  0  0  0  0  0
    6.2076    0.2478   -0.5349 H   0  0  0  0  0  0  0  0  0  0  0  0
    4.4274   -1.3240   -0.7132 H   0  0  0  0  0  0  0  0  0  0  0  0
    1.6529    1.5245    0.7458 H   0  0  0  0  0  0  0  0  0  0  0  0
    3.4783    3.1610    0.9149 H   0  0  0  0  0  0  0  0  0  0  0  0
    0.3167    0.5514   -0.3811 H   0  0  0  0  0  0  0  0  0  0  0  0
   -2.7390   -1.5392   -0.5114 H   0  0  0  0  0  0  0  0  0  0  0  0
   -1.8859    1.1033    0.2543 H   0  0  0  0  0  0  0  0  0  0  0  0
   -1.6590    1.0001   -1.5002 H   0  0  0  0  0  0  0  0  0  0  0  0
   -4.0055    0.2655   -1.7895 H   0  0  0  0  0  0  0  0  0  0  0  0
   -5.0316   -0.6048    0.0481 H   0  0  0  0  0  0  0  0  0  0  0  0
   -3.8449    0.1699    1.2360 H   0  0  0  0  0  0  0  0  0  0  0  0
   -5.6278    1.5548    1.7148 H   0  0  0  0  0  0  0  0  0  0  0  0
   -6.3508    1.3920    0.0896 H   0  0  0  0  0  0  0  0  0  0  0  0
   -3.2236    2.8725   -1.2424 H   0  0  0  0  0  0  0  0  0  0  0  0
   -4.8601    2.3516   -1.7475 H   0  0  0  0  0  0  0  0  0  0  0  0
   -1.2345   -3.3635   -0.1529 H   0  0  0  0  0  0  0  0  0  0  0  0
    3.3358   -5.1700    0.5772 H   0  0  0  0  0  0  0  0  0  0  0  0
  1  2  3  0
  2  3  1  0
  3  4  2  0
  4  5  1  0
  5  6  2  0
  6  7  1  0
  7  8  2  0
  6  9  1  0
  9 10  2  0
 10 11  1  0
 11 12  1  0
 12 13  1  0
 13 14  1  0
 14 15  1  0
 15 16  1  0
 16 17  1  0
 17 18  1  0
 11 19  2  0
 19 20  1  0
 20 21  2  0
 21 22  1  0
 22 23  2  0
 23 24  1  0
  8  3  1  0
 24  9  1  0
 18 14  1  0
 24 20  1  0
  4 25  1  0
  5 26  1  0
  7 27  1  0
  8 28  1  0
 10 29  1  0
 12 30  1  0
 13 31  1  0
 13 32  1  0
 14 33  1  0
 15 34  1  0
 15 35  1  0
 16 36  1  0
 16 37  1  0
 18 38  1  0
 18 39  1  0
 19 40  1  0
 22 41  1  0
M  END
$$$$
[H]Oc1c([H])c(-c2c(C([H])([H])[H])nc(C#N)c([H])c2[H])n2nc([H])nc2c1[H]
     RDKit          3D

 28 30  0  0  0  0  0  0  0  0999 V2000
    1.0946    1.9257    0.9238 C   0  0  0  0  0  0  0  0  0  0  0  0
    1.6679    0.6441    0.3859 C   0  0  0  0  0  0  0  0  0  0  0  0
    2.9761    0.3719    0.4690 N   0  0  0  0  0  0  0  0  0  0  0  0
    3.5039   -0.7700   -0.0074 C   0  0  0  0  0  0  0  0  0  0  0  0
    2.6466   -1.6749   -0.5970 C   0  0  0  0  0  0  0  0  0  0  0  0
    1.2950   -1.4422   -0.7068 C   0  0  0  0  0  0  0  0  0  0  0  0
    0.8150   -0.2521   -0.1987 C   0  0  0  0  0  0  0  0  0  0  0  0
   -0.6124    0.0194   -0.3019 C   0  0  0  0  0  0  0  0  0  0  0  0
   -1.0829    0.6619   -1.4006 C   0  0  0  0  0  0  0  0  0  0  0  0
   -2.4380    0.9234   -1.5056 C   0  0  0  0  0  0  0  0  0  0  0  0
   -2.9254    1.5808   -2.6280 O   0  0  0  0  0  0  0  0  0  0  0  0
   -3.2436    0.5110   -0.4747 C   0  0  0  0  0  0  0  0  0  0  0  0
   -2.7120   -0.1486    0.6389 C   0  0  0  0  0  0  0  0  0  0  0  0
   -3.2697   -0.6447    1.7580 N   0  0  0  0  0  0  0  0  0  0  0  0
   -2.3258   -1.1879    2.5264 C   0  0  0  0  0  0  0  0  0  0  0  0
   -1.1731   -1.0181    1.8605 N   0  0  0  0  0  0  0  0  0  0  0  0
   -1.4011   -0.3906    0.7195 N   0  0  0  0  0  0  0  0  0  0  0  0
    4.9271   -1.0429    0.0944 C   0  0  0  0  0  0  0  0  0  0  0  0
    6.0647   -1.2490    0.1675 N   0  0  0  0  0  0  0  0  0  0  0  0
    1.9309    2.6702    0.8529 H   0  0  0  0  0  0  0  0  0  0  0  0
    0.7024    1.8111    1.9392 H   0  0  0  0  0  0  0  0  0  0  0  0
    0.3084    2.3282    0.2275 H   0  0  0  0  0  0  0  0  0  0  0  0
    3.0396   -2.6057   -0.9916 H   0  0  0  0  0  0  0  0  0  0  0  0
    0.6168   -2.1643   -1.1763 H   0  0  0  0  0  0  0  0  0  0  0  0
   -0.4557    0.9967   -2.2295 H   0  0  0  0  0  0  0  0  0  0  0  0
   -3.2355    1.1353   -3.4622 H   0  0  0  0  0  0  0  0  0  0  0  0
   -4.2966    0.6909   -0.5116 H   0  0  0  0  0  0  0  0  0  0  0  0
   -2.4172   -1.6794    3.4994 H   0  0  0  0  0  0  0  0  0  0  0  0
  1  2  1  0
  2  3  2  0
  3  4  1  0
  4  5  2  0
  5  6  1  0
  6  7  2  0
  7  8  1  0
  8  9  2  0
  9 10  1  0
 10 11  1  0
 10 12  2  0
 12 13  1  0
 13 14  2  0
 14 15  1  0
 15 16  2  0
 16 17  1  0
  4 18  1  0
 18 19  3  0
  7  2  1  0
 17  8  1  0
 17 13  1  0
  1 20  1  0
  1 21  1  0
  1 22  1  0
  5 23  1  0
  6 24  1  0
  9 25  1  0
 11 26  1  0
 12 27  1  0
 15 28  1  0
M  END
$$$$
[H]c1nc2c([H])c(N([H])C(=O)C([H])([H])N3C([H])([H])C([H])([H])C([H])([H])C([H])([H])C3([H])[H])c([H])c(-c3c([H])c([H])c(C#N)c(F)c3[H])n2n1
     RDKit          3D

 47 50  0  0  0  0  0  0  0  0999 V2000
    3.3394    4.1719    0.0678 F   0  0  0  0  0  0  0  0  0  0  0  0
    3.8265    2.9050   -0.1221 C   0  0  0  0  0  0  0  0  0  0  0  0
    3.0508    1.8155    0.1535 C   0  0  0  0  0  0  0  0  0  0  0  0
    3.5554    0.5266   -0.0426 C   0  0  0  0  0  0  0  0  0  0  0  0
    4.8171    0.4124   -0.5072 C   0  0  0  0  0  0  0  0  0  0  0  0
    5.6196    1.5307   -0.7922 C   0  0  0  0  0  0  0  0  0  0  0  0
    5.1252    2.8007   -0.5998 C   0  0  0  0  0  0  0  0  0  0  0  0
    5.9013    3.9767   -0.8742 C   0  0  0  0  0  0  0  0  0  0  0  0
    6.5341    4.9206   -1.1078 N   0  0  0  0  0  0  0  0  0  0  0  0
    2.6958   -0.6348    0.2345 C   0  0  0  0  0  0  0  0  0  0  0  0
    1.3298   -0.4911    0.1683 C   0  0  0  0  0  0  0  0  0  0  0  0
    0.4231   -1.5320    0.4438 C   0  0  0  0  0  0  0  0  0  0  0  0
   -0.9674   -1.2740    0.3748 N   0  0  0  0  0  0  0  0  0  0  0  0
   -1.9850   -2.2212    0.2033 C   0  0  0  0  0  0  0  0  0  0  0  0
   -1.7207   -3.4697    0.0906 O   0  0  0  0  0  0  0  0  0  0  0  0
   -3.4018   -1.8087    0.1511 C   0  0  0  0  0  0  0  0  0  0  0  0
   -3.5357   -0.3849    0.2107 N   0  0  0  0  0  0  0  0  0  0  0  0
   -4.9970   -0.1686    0.4258 C   0  0  0  0  0  0  0  0  0  0  0  0
   -5.3646    1.1914   -0.0605 C   0  0  0  0  0  0  0  0  0  0  0  0
   -4.1726    2.1395    0.0077 C   0  0  0  0  0  0  0  0  0  0  0  0
   -3.1462    1.6585   -1.0208 C   0  0  0  0  0  0  0  0  0  0  0  0
   -3.2761    0.1669   -1.1491 C   0  0  0  0  0  0  0  0  0  0  0  0
    0.9118   -2.7472    0.7953 C   0  0  0  0  0  0  0  0  0  0  0  0
    2.3110   -2.8668    0.8553 C   0  0  0  0  0  0  0  0  0  0  0  0
    3.0213   -3.9594    1.1852 N   0  0  0  0  0  0  0  0  0  0  0  0
    4.3088   -3.6094    1.1173 C   0  0  0  0  0  0  0  0  0  0  0  0
    4.3581   -2.3343    0.7539 N   0  0  0  0  0  0  0  0  0  0  0  0
    3.1466   -1.8505    0.5851 N   0  0  0  0  0  0  0  0  0  0  0  0
    2.0534    1.9474    0.5260 H   0  0  0  0  0  0  0  0  0  0  0  0
    5.2486   -0.5743   -0.6891 H   0  0  0  0  0  0  0  0  0  0  0  0
    6.6185    1.3813   -1.1601 H   0  0  0  0  0  0  0  0  0  0  0  0
    0.8835    0.4674   -0.1155 H   0  0  0  0  0  0  0  0  0  0  0  0
   -1.2526   -0.2379    0.4913 H   0  0  0  0  0  0  0  0  0  0  0  0
   -3.9444   -2.3368    0.9612 H   0  0  0  0  0  0  0  0  0  0  0  0
   -3.8667   -2.1388   -0.8196 H   0  0  0  0  0  0  0  0  0  0  0  0
   -5.5453   -0.9527   -0.1555 H   0  0  0  0  0  0  0  0  0  0  0  0
   -5.1838   -0.2647    1.5150 H   0  0  0  0  0  0  0  0  0  0  0  0
   -5.7061    1.2055   -1.1172 H   0  0  0  0  0  0  0  0  0  0  0  0
   -6.2019    1.6103    0.5488 H   0  0  0  0  0  0  0  0  0  0  0  0
   -3.7489    2.1844    1.0258 H   0  0  0  0  0  0  0  0  0  0  0  0
   -4.5026    3.1591   -0.2975 H   0  0  0  0  0  0  0  0  0  0  0  0
   -3.2788    2.1682   -1.9956 H   0  0  0  0  0  0  0  0  0  0  0  0
   -2.1451    1.8755   -0.5732 H   0  0  0  0  0  0  0  0  0  0  0  0
   -2.4202   -0.3633   -1.5431 H   0  0  0  0  0  0  0  0  0  0  0  0
   -4.1583   -0.0992   -1.7970 H   0  0  0  0  0  0  0  0  0  0  0  0
    0.3205   -3.6146    1.0433 H   0  0  0  0  0  0  0  0  0  0  0  0
    5.1214   -4.2804    1.3300 H   0  0  0  0  0  0  0  0  0  0  0  0
  1  2  1  0
  2  3  2  0
  3  4  1  0
  4  5  2  0
  5  6  1  0
  6  7  2  0
  7  8  1  0
  8  9  3  0
  4 10  1  0
 10 11  2  0
 11 12  1  0
 12 13  1  0
 13 14  1  0
 14 15  2  0
 14 16  1  0
 16 17  1  0
 17 18  1  0
 18 19  1  0
 19 20  1  0
 20 21  1  0
 21 22  1  0
 12 23  2  0
 23 24  1  0
 24 25  2  0
 25 26  1  0
 26 27  2  0
 27 28  1  0
  7  2  1  0
 28 10  1  0
 22 17  1  0
 28 24  1  0
  3 29  1  0
  5 30  1  0
  6 31  1  0
 11 32  1  0
 13 33  1  0
 16 34  1  0
 16 35  1  0
 18 36  1  0
 18 37  1  0
 19 38  1  0
 19 39  1  0
 20 40  1  0
 20 41  1  0
 21 42  1  0
 21 43  1  0
 22 44  1  0
 22 45  1  0
 23 46  1  0
 26 47  1  0
M  END
$$$$
[H]c1nc2c([H])c(N([H])C(=O)C([H])([H])[H])c([H])c(-c3c([H])c([H])c(C#N)c([H])c3C([H])([H])[H])n2n1
     RDKit          3D

 35 37  0  0  0  0  0  0  0  0999 V2000
    5.4008   -1.6130   -0.9229 C   0  0  0  0  0  0  0  0  0  0  0  0
    4.4661   -0.4885   -0.4959 C   0  0  0  0  0  0  0  0  0  0  0  0
    5.0338    0.6136   -0.3273 O   0  0  0  0  0  0  0  0  0  0  0  0
    3.1239   -0.8017   -0.3448 N   0  0  0  0  0  0  0  0  0  0  0  0
    2.0864    0.0505    0.0369 C   0  0  0  0  0  0  0  0  0  0  0  0
    0.7551   -0.4194    0.0062 C   0  0  0  0  0  0  0  0  0  0  0  0
   -0.3240    0.3392    0.3687 C   0  0  0  0  0  0  0  0  0  0  0  0
   -1.6744   -0.2100    0.3128 C   0  0  0  0  0  0  0  0  0  0  0  0
   -2.1261   -0.8427    1.4722 C   0  0  0  0  0  0  0  0  0  0  0  0
   -3.3715   -1.3934    1.5364 C   0  0  0  0  0  0  0  0  0  0  0  0
   -4.1896   -1.3188    0.4336 C   0  0  0  0  0  0  0  0  0  0  0  0
   -3.7354   -0.6858   -0.7241 C   0  0  0  0  0  0  0  0  0  0  0  0
   -2.4758   -0.1282   -0.7907 C   0  0  0  0  0  0  0  0  0  0  0  0
   -1.9850    0.5443   -2.0112 C   0  0  0  0  0  0  0  0  0  0  0  0
   -5.5059   -1.9006    0.5008 C   0  0  0  0  0  0  0  0  0  0  0  0
   -6.5582   -2.3767    0.5613 N   0  0  0  0  0  0  0  0  0  0  0  0
   -0.0625    1.5960    0.7707 N   0  0  0  0  0  0  0  0  0  0  0  0
   -0.9354    2.5175    1.1686 N   0  0  0  0  0  0  0  0  0  0  0  0
   -0.2126    3.6014    1.4671 C   0  0  0  0  0  0  0  0  0  0  0  0
    1.1055    3.3531    1.2550 N   0  0  0  0  0  0  0  0  0  0  0  0
    1.1840    2.0860    0.8166 C   0  0  0  0  0  0  0  0  0  0  0  0
    2.2961    1.3395    0.4551 C   0  0  0  0  0  0  0  0  0  0  0  0
    6.2564   -1.2153   -1.4690 H   0  0  0  0  0  0  0  0  0  0  0  0
    4.8146   -2.3524   -1.4971 H   0  0  0  0  0  0  0  0  0  0  0  0
    5.7063   -2.1376    0.0287 H   0  0  0  0  0  0  0  0  0  0  0  0
    2.8534   -1.8207   -0.5433 H   0  0  0  0  0  0  0  0  0  0  0  0
    0.5874   -1.4487   -0.3281 H   0  0  0  0  0  0  0  0  0  0  0  0
   -1.4868   -0.9062    2.3478 H   0  0  0  0  0  0  0  0  0  0  0  0
   -3.6985   -1.8804    2.4519 H   0  0  0  0  0  0  0  0  0  0  0  0
   -4.3962   -0.6422   -1.5713 H   0  0  0  0  0  0  0  0  0  0  0  0
   -2.4052    1.5823   -2.0586 H   0  0  0  0  0  0  0  0  0  0  0  0
   -0.8918    0.6316   -2.0050 H   0  0  0  0  0  0  0  0  0  0  0  0
   -2.2751    0.0062   -2.9450 H   0  0  0  0  0  0  0  0  0  0  0  0
   -0.6519    4.5241    1.8233 H   0  0  0  0  0  0  0  0  0  0  0  0
    3.2921    1.7970    0.5193 H   0  0  0  0  0  0  0  0  0  0  0  0
  1  2  1  0
  2  3  2  0
  2  4  1  0
  4  5  1  0
  5  6  1  0
  6  7  2  0
  7  8  1  0
  8  9  2  0
  9 10  1  0
 10 11  2  0
 11 12  1  0
 12 13  2  0
 13 14  1  0
 11 15  1  0
 15 16  3  0
  7 17  1  0
 17 18  1  0
 18 19  2  0
 19 20  1  0
 20 21  2  0
 21 22  1  0
 22  5  2  0
 13  8  1  0
 21 17  1  0
  1 23  1  0
  1 24  1  0
  1 25  1  0
  4 26  1  0
  6 27  1  0
  9 28  1  0
 10 29  1  0
 12 30  1  0
 14 31  1  0
 14 32  1  0
 14 33  1  0
 19 34  1  0
 22 35  1  0
M  END
$$$$
[H]c1nc2c([H])c(N([H])C([H])([H])C([H])([H])C(F)(F)F)c([H])c(-c3c([H])c([H])c(C#N)c(F)c3[H])n2n1
     RDKit          3D

 36 38  0  0  0  0  0  0  0  0999 V2000
    5.2027   -2.2142    1.0196 F   0  0  0  0  0  0  0  0  0  0  0  0
    4.4811   -1.4214    0.1922 C   0  0  0  0  0  0  0  0  0  0  0  0
    3.2354   -0.9806    0.5917 C   0  0  0  0  0  0  0  0  0  0  0  0
    2.4403   -0.1655   -0.2048 C   0  0  0  0  0  0  0  0  0  0  0  0
    2.9443    0.1978   -1.4334 C   0  0  0  0  0  0  0  0  0  0  0  0
    4.1834   -0.2190   -1.8734 C   0  0  0  0  0  0  0  0  0  0  0  0
    4.9416   -1.0275   -1.0524 C   0  0  0  0  0  0  0  0  0  0  0  0
    6.2376   -1.4974   -1.4458 C   0  0  0  0  0  0  0  0  0  0  0  0
    7.2829   -1.8936   -1.7584 N   0  0  0  0  0  0  0  0  0  0  0  0
    1.1246    0.3006    0.2160 C   0  0  0  0  0  0  0  0  0  0  0  0
   -0.0227   -0.3965   -0.0447 C   0  0  0  0  0  0  0  0  0  0  0  0
   -1.2438    0.0672    0.3634 C   0  0  0  0  0  0  0  0  0  0  0  0
   -2.4623   -0.6265    0.1131 N   0  0  0  0  0  0  0  0  0  0  0  0
   -3.7091   -0.0776    0.5723 C   0  0  0  0  0  0  0  0  0  0  0  0
   -4.9323   -0.8278    0.2125 C   0  0  0  0  0  0  0  0  0  0  0  0
   -5.2333   -0.9838   -1.2376 C   0  0  0  0  0  0  0  0  0  0  0  0
   -4.2971   -1.6345   -1.9836 F   0  0  0  0  0  0  0  0  0  0  0  0
   -6.3928   -1.7750   -1.3069 F   0  0  0  0  0  0  0  0  0  0  0  0
   -5.6011    0.2176   -1.8213 F   0  0  0  0  0  0  0  0  0  0  0  0
   -1.2987    1.2567    1.0462 C   0  0  0  0  0  0  0  0  0  0  0  0
   -0.1329    1.9708    1.3144 C   0  0  0  0  0  0  0  0  0  0  0  0
    0.0948    3.1271    1.9450 N   0  0  0  0  0  0  0  0  0  0  0  0
    1.4170    3.3400    1.9096 C   0  0  0  0  0  0  0  0  0  0  0  0
    1.9706    2.3104    1.2587 N   0  0  0  0  0  0  0  0  0  0  0  0
    1.0204    1.4784    0.8980 N   0  0  0  0  0  0  0  0  0  0  0  0
    2.8062   -1.2528    1.5648 H   0  0  0  0  0  0  0  0  0  0  0  0
    2.3716    0.8314   -2.0987 H   0  0  0  0  0  0  0  0  0  0  0  0
    4.5869    0.0609   -2.8355 H   0  0  0  0  0  0  0  0  0  0  0  0
    0.0149   -1.3289   -0.5793 H   0  0  0  0  0  0  0  0  0  0  0  0
   -2.4814   -1.5430   -0.3953 H   0  0  0  0  0  0  0  0  0  0  0  0
   -3.8199    0.9770    0.2100 H   0  0  0  0  0  0  0  0  0  0  0  0
   -3.6454   -0.0654    1.7004 H   0  0  0  0  0  0  0  0  0  0  0  0
   -5.8077   -0.2620    0.6541 H   0  0  0  0  0  0  0  0  0  0  0  0
   -5.0003   -1.8320    0.6888 H   0  0  0  0  0  0  0  0  0  0  0  0
   -2.2321    1.6876    1.4017 H   0  0  0  0  0  0  0  0  0  0  0  0
    1.9566    4.2016    2.3356 H   0  0  0  0  0  0  0  0  0  0  0  0
  1  2  1  0
  2  3  2  0
  3  4  1  0
  4  5  2  0
  5  6  1  0
  6  7  2  0
  7  8  1  0
  8  9  3  0
  4 10  1  0
 10 11  2  0
 11 12  1  0
 12 13  1  0
 13 14  1  0
 14 15  1  0
 15 16  1  0
 16 17  1  0
 16 18  1  0
 16 19  1  0
 12 20  2  0
 20 21  1  0
 21 22  2  0
 22 23  1  0
 23 24  2  0
 24 25  1  0
  7  2  1  0
 25 10  1  0
 25 21  1  0
  3 26  1  0
  5 27  1  0
  6 28  1  0
 11 29  1  0
 13 30  1  0
 14 31  1  0
 14 32  1  0
 15 33  1  0
 15 34  1  0
 20 35  1  0
 23 36  1  0
M  END
$$$$
[H]c1nc2c([H])c([H])c([H])c(-c3c([H])c([H])c(C#N)c(F)c3F)n2n1
     RDKit          3D

 25 27  0  0  0  0  0  0  0  0999 V2000
    3.4256   -0.6469    2.1992 F   0  0  0  0  0  0  0  0  0  0  0  0
    2.7408   -0.2935    1.0736 C   0  0  0  0  0  0  0  0  0  0  0  0
    1.3655   -0.1076    1.1418 C   0  0  0  0  0  0  0  0  0  0  0  0
    0.7081   -0.2754    2.3160 F   0  0  0  0  0  0  0  0  0  0  0  0
    0.6623    0.2502    0.0085 C   0  0  0  0  0  0  0  0  0  0  0  0
    1.3678    0.4152   -1.1845 C   0  0  0  0  0  0  0  0  0  0  0  0
    2.7323    0.2252   -1.2278 C   0  0  0  0  0  0  0  0  0  0  0  0
    3.4417   -0.1311   -0.1050 C   0  0  0  0  0  0  0  0  0  0  0  0
    4.8811   -0.3296   -0.1592 C   0  0  0  0  0  0  0  0  0  0  0  0
    6.0248   -0.5056   -0.2087 N   0  0  0  0  0  0  0  0  0  0  0  0
   -0.7841    0.4523    0.0515 C   0  0  0  0  0  0  0  0  0  0  0  0
   -1.3681    1.6699    0.3240 C   0  0  0  0  0  0  0  0  0  0  0  0
   -2.7296    1.8510    0.3624 C   0  0  0  0  0  0  0  0  0  0  0  0
   -3.5514    0.7701    0.1183 C   0  0  0  0  0  0  0  0  0  0  0  0
   -2.9479   -0.4370   -0.1519 C   0  0  0  0  0  0  0  0  0  0  0  0
   -3.4934   -1.6289   -0.4205 N   0  0  0  0  0  0  0  0  0  0  0  0
   -2.5256   -2.5399   -0.6235 C   0  0  0  0  0  0  0  0  0  0  0  0
   -1.3708   -1.8660   -0.4702 N   0  0  0  0  0  0  0  0  0  0  0  0
   -1.6147   -0.5961   -0.1854 N   0  0  0  0  0  0  0  0  0  0  0  0
    0.8617    0.6948   -2.0985 H   0  0  0  0  0  0  0  0  0  0  0  0
    3.3120    0.3473   -2.1477 H   0  0  0  0  0  0  0  0  0  0  0  0
   -0.7322    2.5237    0.5168 H   0  0  0  0  0  0  0  0  0  0  0  0
   -3.1190    2.8340    0.5826 H   0  0  0  0  0  0  0  0  0  0  0  0
   -4.6213    0.9192    0.1500 H   0  0  0  0  0  0  0  0  0  0  0  0
   -2.6658   -3.5955   -0.8609 H   0  0  0  0  0  0  0  0  0  0  0  0
  1  2  1  0
  2  3  2  0
  3  4  1  0
  3  5  1  0
  5  6  2  0
  6  7  1  0
  7  8  2  0
  8  9  1  0
  9 10  3  0
  5 11  1  0
 11 12  2  0
 12 13  1  0
 13 14  2  0
 14 15  1  0
 15 16  2  0
 16 17  1  0
 17 18  2  0
 18 19  1  0
  8  2  1  0
 19 11  1  0
 19 15  1  0
  6 20  1  0
  7 21  1  0
 12 22  1  0
 13 23  1  0
 14 24  1  0
 17 25  1  0
M  END
$$$$
[H]c1nc2c([H])c(N([H])C([H])([H])c3c([H])c([H])c([H])c(F)c3[H])c([H])c(-c3c([H])c([H])c(C#N)c([H])c3[H])n2n1
     RDKit          3D

 40 43  0  0  0  0  0  0  0  0999 V2000
    6.3245   -0.2273    3.0438 F   0  0  0  0  0  0  0  0  0  0  0  0
    5.8125    0.2268    1.8670 C   0  0  0  0  0  0  0  0  0  0  0  0
    6.3781    1.2824    1.1858 C   0  0  0  0  0  0  0  0  0  0  0  0
    5.8476    1.7297   -0.0041 C   0  0  0  0  0  0  0  0  0  0  0  0
    4.7225    1.0682   -0.4788 C   0  0  0  0  0  0  0  0  0  0  0  0
    4.1349    0.0098    0.1803 C   0  0  0  0  0  0  0  0  0  0  0  0
    2.9158   -0.6663   -0.3858 C   0  0  0  0  0  0  0  0  0  0  0  0
    1.7181   -0.0103    0.1188 N   0  0  0  0  0  0  0  0  0  0  0  0
    0.4532   -0.5013   -0.2995 C   0  0  0  0  0  0  0  0  0  0  0  0
   -0.7326    0.0673    0.1350 C   0  0  0  0  0  0  0  0  0  0  0  0
   -1.9627   -0.4151   -0.2757 C   0  0  0  0  0  0  0  0  0  0  0  0
   -3.1742    0.2248    0.2156 C   0  0  0  0  0  0  0  0  0  0  0  0
   -3.8104   -0.1785    1.3757 C   0  0  0  0  0  0  0  0  0  0  0  0
   -4.9517    0.4141    1.8510 C   0  0  0  0  0  0  0  0  0  0  0  0
   -5.5090    1.4701    1.1476 C   0  0  0  0  0  0  0  0  0  0  0  0
   -4.8807    1.8802   -0.0125 C   0  0  0  0  0  0  0  0  0  0  0  0
   -3.7415    1.2774   -0.4730 C   0  0  0  0  0  0  0  0  0  0  0  0
   -6.7059    2.0915    1.6461 C   0  0  0  0  0  0  0  0  0  0  0  0
   -7.6652    2.6035    2.0551 N   0  0  0  0  0  0  0  0  0  0  0  0
   -2.0070   -1.4590   -1.1152 N   0  0  0  0  0  0  0  0  0  0  0  0
   -3.0603   -2.0873   -1.6398 N   0  0  0  0  0  0  0  0  0  0  0  0
   -2.6138   -3.0861   -2.4338 C   0  0  0  0  0  0  0  0  0  0  0  0
   -1.2625   -3.0533   -2.3820 N   0  0  0  0  0  0  0  0  0  0  0  0
   -0.8771   -2.0586   -1.5756 C   0  0  0  0  0  0  0  0  0  0  0  0
    0.3502   -1.5714   -1.1611 C   0  0  0  0  0  0  0  0  0  0  0  0
    4.6825   -0.4206    1.3686 C   0  0  0  0  0  0  0  0  0  0  0  0
    7.2506    1.7790    1.5748 H   0  0  0  0  0  0  0  0  0  0  0  0
    6.2915    2.5686   -0.5520 H   0  0  0  0  0  0  0  0  0  0  0  0
    4.3103    1.4322   -1.4242 H   0  0  0  0  0  0  0  0  0  0  0  0
    2.9487   -0.7462   -1.4690 H   0  0  0  0  0  0  0  0  0  0  0  0
    2.9170   -1.7008    0.0374 H   0  0  0  0  0  0  0  0  0  0  0  0
    1.8046    0.8013    0.7725 H   0  0  0  0  0  0  0  0  0  0  0  0
   -0.7255    0.9099    0.8120 H   0  0  0  0  0  0  0  0  0  0  0  0
   -3.3985   -1.0013    1.9472 H   0  0  0  0  0  0  0  0  0  0  0  0
   -5.4519    0.0929    2.7681 H   0  0  0  0  0  0  0  0  0  0  0  0
   -5.3121    2.7022   -0.5626 H   0  0  0  0  0  0  0  0  0  0  0  0
   -3.3010    1.6466   -1.3862 H   0  0  0  0  0  0  0  0  0  0  0  0
   -3.2124   -3.7952   -3.0147 H   0  0  0  0  0  0  0  0  0  0  0  0
    1.2667   -2.0491   -1.5276 H   0  0  0  0  0  0  0  0  0  0  0  0
    4.2266   -1.2505    1.8911 H   0  0  0  0  0  0  0  0  0  0  0  0
  1  2  1  0
  2  3  2  0
  3  4  1  0
  4  5  2  0
  5  6  1  0
  6  7  1  0
  7  8  1  0
  8  9  1  0
  9 10  1  0
 10 11  2  0
 11 12  1  0
 12 13  2  0
 13 14  1  0
 14 15  2  0
 15 16  1  0
 16 17  2  0
 15 18  1  0
 18 19  3  0
 11 20  1  0
 20 21  1  0
 21 22  2  0
 22 23  1  0
 23 24  2  0
 24 25  1  0
  6 26  2  0
 26  2  1  0
 25  9  2  0
 17 12  1  0
 24 20  1  0
  3 27  1  0
  4 28  1  0
  5 29  1  0
  7 30  1  0
  7 31  1  0
  8 32  1  0
 10 33  1  0
 13 34  1  0
 14 35  1  0
 16 36  1  0
 17 37  1  0
 22 38  1  0
 25 39  1  0
 26 40  1  0
M  END
$$$$
[H]c1nc(C([H])([H])N2C([H])([H])C([H])([H])C3(C(=O)N(c4c([H])c([H])c(-c5noc(C([H])([H])OC([H])([H])[H])n5)c([H])c4[H])C(=O)N3c3nc([H])n([H])c(=O)c3[H])C([H])([H])C2([H])[H])c(C([H])([H])[H])c([H])c1[H]
     RDKit          3D

 69 74  0  0  0  0  0  0  0  0999 V2000
    9.7339    1.2030    2.7748 C   0  0  0  0  0  0  0  0  0  0  0  0
   10.2770    1.3549    1.5325 O   0  0  0  0  0  0  0  0  0  0  0  0
   10.4063    0.2323    0.7690 C   0  0  0  0  0  0  0  0  0  0  0  0
    9.0400   -0.3417    0.4971 C   0  0  0  0  0  0  0  0  0  0  0  0
    7.8681    0.3146    0.4328 N   0  0  0  0  0  0  0  0  0  0  0  0
    6.8861   -0.5458    0.1670 C   0  0  0  0  0  0  0  0  0  0  0  0
    7.5060   -1.7510    0.0726 N   0  0  0  0  0  0  0  0  0  0  0  0
    8.7731   -1.6030    0.2712 O   0  0  0  0  0  0  0  0  0  0  0  0
    5.4587   -0.3704   -0.0125 C   0  0  0  0  0  0  0  0  0  0  0  0
    4.6679   -1.4589   -0.3345 C   0  0  0  0  0  0  0  0  0  0  0  0
    3.3171   -1.3173   -0.5366 C   0  0  0  0  0  0  0  0  0  0  0  0
    2.6883   -0.0875   -0.4274 C   0  0  0  0  0  0  0  0  0  0  0  0
    3.4633    0.9985   -0.1051 C   0  0  0  0  0  0  0  0  0  0  0  0
    4.8472    0.8607    0.1028 C   0  0  0  0  0  0  0  0  0  0  0  0
    1.2744    0.0030   -0.6971 N   0  0  0  0  0  0  0  0  0  0  0  0
    0.6880   -0.1885   -1.9848 C   0  0  0  0  0  0  0  0  0  0  0  0
    1.3595   -0.4315   -3.0159 O   0  0  0  0  0  0  0  0  0  0  0  0
   -0.7590   -0.0629   -1.9148 N   0  0  0  0  0  0  0  0  0  0  0  0
   -1.5195   -0.3010   -3.0960 C   0  0  0  0  0  0  0  0  0  0  0  0
   -2.1654    0.6662   -3.7695 C   0  0  0  0  0  0  0  0  0  0  0  0
   -2.8577    0.3348   -4.9535 C   0  0  0  0  0  0  0  0  0  0  0  0
   -3.4543    1.2506   -5.5657 O   0  0  0  0  0  0  0  0  0  0  0  0
   -2.8512   -0.9316   -5.3721 N   0  0  0  0  0  0  0  0  0  0  0  0
   -2.2060   -1.9052   -4.6995 C   0  0  0  0  0  0  0  0  0  0  0  0
   -1.5599   -1.5753   -3.5857 N   0  0  0  0  0  0  0  0  0  0  0  0
   -1.1012    0.2459   -0.5623 C   0  0  0  0  0  0  0  0  0  0  0  0
   -1.9430   -0.9130   -0.0316 C   0  0  0  0  0  0  0  0  0  0  0  0
   -2.6823   -0.5318    1.2344 C   0  0  0  0  0  0  0  0  0  0  0  0
   -3.4752    0.6249    1.0575 N   0  0  0  0  0  0  0  0  0  0  0  0
   -4.6205    0.7818    1.8414 C   0  0  0  0  0  0  0  0  0  0  0  0
   -5.7079   -0.2241    1.6795 C   0  0  0  0  0  0  0  0  0  0  0  0
   -5.6365   -1.2177    0.7902 N   0  0  0  0  0  0  0  0  0  0  0  0
   -6.6694   -2.0739    0.6759 C   0  0  0  0  0  0  0  0  0  0  0  0
   -7.8165   -1.9919    1.4284 C   0  0  0  0  0  0  0  0  0  0  0  0
   -7.8830   -0.9538    2.3531 C   0  0  0  0  0  0  0  0  0  0  0  0
   -6.8243   -0.0890    2.4606 C   0  0  0  0  0  0  0  0  0  0  0  0
   -6.9330    0.9986    3.4767 C   0  0  0  0  0  0  0  0  0  0  0  0
   -3.3165    1.3599   -0.1399 C   0  0  0  0  0  0  0  0  0  0  0  0
   -1.8289    1.5276   -0.4413 C   0  0  0  0  0  0  0  0  0  0  0  0
    0.1999    0.2515    0.1746 C   0  0  0  0  0  0  0  0  0  0  0  0
    0.3151    0.4533    1.4270 O   0  0  0  0  0  0  0  0  0  0  0  0
    8.7085    0.7988    2.7838 H   0  0  0  0  0  0  0  0  0  0  0  0
    9.6636    2.2236    3.2574 H   0  0  0  0  0  0  0  0  0  0  0  0
   10.4232    0.5841    3.4059 H   0  0  0  0  0  0  0  0  0  0  0  0
   10.9464    0.4026   -0.1866 H   0  0  0  0  0  0  0  0  0  0  0  0
   10.9420   -0.5869    1.3372 H   0  0  0  0  0  0  0  0  0  0  0  0
    5.0778   -2.4668   -0.4380 H   0  0  0  0  0  0  0  0  0  0  0  0
    2.7267   -2.1762   -0.7806 H   0  0  0  0  0  0  0  0  0  0  0  0
    3.0041    1.9521   -0.0161 H   0  0  0  0  0  0  0  0  0  0  0  0
    5.4088    1.7579    0.3519 H   0  0  0  0  0  0  0  0  0  0  0  0
   -2.1906    1.7101   -3.4720 H   0  0  0  0  0  0  0  0  0  0  0  0
   -3.3647   -1.1880   -6.2566 H   0  0  0  0  0  0  0  0  0  0  0  0
   -2.2411   -2.9138   -5.1040 H   0  0  0  0  0  0  0  0  0  0  0  0
   -1.2543   -1.7584    0.1351 H   0  0  0  0  0  0  0  0  0  0  0  0
   -2.6649   -1.1683   -0.8170 H   0  0  0  0  0  0  0  0  0  0  0  0
   -1.9409   -0.3170    2.0677 H   0  0  0  0  0  0  0  0  0  0  0  0
   -3.2584   -1.3908    1.5687 H   0  0  0  0  0  0  0  0  0  0  0  0
   -5.0165    1.8203    1.7726 H   0  0  0  0  0  0  0  0  0  0  0  0
   -4.3071    0.6829    2.9231 H   0  0  0  0  0  0  0  0  0  0  0  0
   -6.5822   -2.8815   -0.0577 H   0  0  0  0  0  0  0  0  0  0  0  0
   -8.6476   -2.6810    1.3289 H   0  0  0  0  0  0  0  0  0  0  0  0
   -8.7873   -0.8867    2.9421 H   0  0  0  0  0  0  0  0  0  0  0  0
   -6.3261    0.7648    4.3758 H   0  0  0  0  0  0  0  0  0  0  0  0
   -7.9872    1.0728    3.7861 H   0  0  0  0  0  0  0  0  0  0  0  0
   -6.6572    1.9534    2.9874 H   0  0  0  0  0  0  0  0  0  0  0  0
   -3.7984    0.8178   -0.9814 H   0  0  0  0  0  0  0  0  0  0  0  0
   -3.7214    2.3817   -0.0028 H   0  0  0  0  0  0  0  0  0  0  0  0
   -1.7358    2.1983   -1.3008 H   0  0  0  0  0  0  0  0  0  0  0  0
   -1.3784    2.1227    0.4167 H   0  0  0  0  0  0  0  0  0  0  0  0
  1  2  1  0
  2  3  1  0
  3  4  1  0
  4  5  2  0
  5  6  1  0
  6  7  2  0
  7  8  1  0
  6  9  1  0
  9 10  2  0
 10 11  1  0
 11 12  2  0
 12 13  1  0
 13 14  2  0
 12 15  1  0
 15 16  1  0
 16 17  2  0
 16 18  1  0
 18 19  1  0
 19 20  2  0
 20 21  1  0
 21 22  2  0
 21 23  1  0
 23 24  1  0
 24 25  2  0
 18 26  1  0
 26 27  1  0
 27 28  1  0
 28 29  1  0
 29 30  1  0
 30 31  1  0
 31 32  2  0
 32 33  1  0
 33 34  2  0
 34 35  1  0
 35 36  2  0
 36 37  1  0
 29 38  1  0
 38 39  1  0
 26 40  1  0
 40 41  2  0
  8  4  1  0
 14  9  1  0
 40 15  1  0
 25 19  1  0
 39 26  1  0
 36 31  1  0
  1 42  1  0
  1 43  1  0
  1 44  1  0
  3 45  1  0
  3 46  1  0
 10 47  1  0
 11 48  1  0
 13 49  1  0
 14 50  1  0
 20 51  1  0
 23 52  1  0
 24 53  1  0
 27 54  1  0
 27 55  1  0
 28 56  1  0
 28 57  1  0
 30 58  1  0
 30 59  1  0
 33 60  1  0
 34 61  1  0
 35 62  1  0
 37 63  1  0
 37 64  1  0
 37 65  1  0
 38 66  1  0
 38 67  1  0
 39 68  1  0
 39 69  1  0
M  END
$$$$
[H]c1nc(OC([H])([H])[H])c([H])c(N2C(=O)N(c3c([H])c([H])c(-c4c([H])c([H])c(-c5c([H])c(=O)n([H])n5[H])c([H])c4[H])c([H])c3[H])C(=O)C23C([H])([H])C([H])([H])N(C([H])([H])c2nc([H])c([H])c([H])c2C([H])([H])[H])C([H])([H])C3([H])[H])n1
     RDKit          3D

 78 84  0  0  0  0  0  0  0  0999 V2000
   -2.9243    8.0400    0.3982 C   0  0  0  0  0  0  0  0  0  0  0  0
   -2.4395    6.7334    0.6709 O   0  0  0  0  0  0  0  0  0  0  0  0
   -2.4643    5.7627   -0.3166 C   0  0  0  0  0  0  0  0  0  0  0  0
   -2.0012    4.4890   -0.0821 C   0  0  0  0  0  0  0  0  0  0  0  0
   -2.0108    3.5022   -1.0414 C   0  0  0  0  0  0  0  0  0  0  0  0
   -2.5026    3.8408   -2.2422 N   0  0  0  0  0  0  0  0  0  0  0  0
   -2.9632    5.1086   -2.4733 C   0  0  0  0  0  0  0  0  0  0  0  0
   -2.9460    6.0553   -1.5297 N   0  0  0  0  0  0  0  0  0  0  0  0
   -1.4999    2.2246   -0.7253 N   0  0  0  0  0  0  0  0  0  0  0  0
   -0.1011    2.0620   -0.3918 C   0  0  0  0  0  0  0  0  0  0  0  0
    0.7035    2.9625   -0.0396 O   0  0  0  0  0  0  0  0  0  0  0  0
    0.2669    0.6811   -0.5206 N   0  0  0  0  0  0  0  0  0  0  0  0
   -0.9136    0.0258   -0.9286 C   0  0  0  0  0  0  0  0  0  0  0  0
   -0.9766   -1.1392   -1.4543 O   0  0  0  0  0  0  0  0  0  0  0  0
   -2.0899    0.9197   -0.6457 C   0  0  0  0  0  0  0  0  0  0  0  0
   -3.0665    0.6299   -1.7637 C   0  0  0  0  0  0  0  0  0  0  0  0
   -4.4706    0.9035   -1.3762 C   0  0  0  0  0  0  0  0  0  0  0  0
   -4.9193    0.1937   -0.2256 N   0  0  0  0  0  0  0  0  0  0  0  0
   -5.4317   -1.1248   -0.5542 C   0  0  0  0  0  0  0  0  0  0  0  0
   -6.1495   -1.7752    0.5520 C   0  0  0  0  0  0  0  0  0  0  0  0
   -6.3730   -1.1487    1.7138 N   0  0  0  0  0  0  0  0  0  0  0  0
   -7.0716   -1.7193    2.7306 C   0  0  0  0  0  0  0  0  0  0  0  0
   -7.5995   -2.9851    2.6381 C   0  0  0  0  0  0  0  0  0  0  0  0
   -7.3883   -3.6714    1.4442 C   0  0  0  0  0  0  0  0  0  0  0  0
   -6.6762   -3.0524    0.4453 C   0  0  0  0  0  0  0  0  0  0  0  0
   -6.4486   -3.8001   -0.8197 C   0  0  0  0  0  0  0  0  0  0  0  0
   -4.0113    0.1695    0.8683 C   0  0  0  0  0  0  0  0  0  0  0  0
   -2.6138    0.5891    0.6952 C   0  0  0  0  0  0  0  0  0  0  0  0
    1.5536    0.1210   -0.2971 C   0  0  0  0  0  0  0  0  0  0  0  0
    2.0081   -0.2567    0.9409 C   0  0  0  0  0  0  0  0  0  0  0  0
    3.2780   -0.7637    1.0709 C   0  0  0  0  0  0  0  0  0  0  0  0
    4.0908   -0.8915   -0.0371 C   0  0  0  0  0  0  0  0  0  0  0  0
    3.6613   -0.5225   -1.2896 C   0  0  0  0  0  0  0  0  0  0  0  0
    2.3886   -0.0162   -1.4128 C   0  0  0  0  0  0  0  0  0  0  0  0
    5.4540   -1.3937    0.0701 C   0  0  0  0  0  0  0  0  0  0  0  0
    6.1251   -1.0978    1.2613 C   0  0  0  0  0  0  0  0  0  0  0  0
    7.4274   -1.5293    1.3933 C   0  0  0  0  0  0  0  0  0  0  0  0
    8.0401   -2.2304    0.3759 C   0  0  0  0  0  0  0  0  0  0  0  0
    7.3407   -2.4991   -0.7775 C   0  0  0  0  0  0  0  0  0  0  0  0
    6.0232   -2.0871   -0.9624 C   0  0  0  0  0  0  0  0  0  0  0  0
    9.4274   -2.6692    0.5181 C   0  0  0  0  0  0  0  0  0  0  0  0
   10.2399   -2.4711    1.6108 C   0  0  0  0  0  0  0  0  0  0  0  0
   11.4598   -3.0374    1.3186 C   0  0  0  0  0  0  0  0  0  0  0  0
   12.4367   -3.0370    2.1018 O   0  0  0  0  0  0  0  0  0  0  0  0
   11.4016   -3.5582    0.1064 N   0  0  0  0  0  0  0  0  0  0  0  0
   10.1703   -3.3348   -0.3775 N   0  0  0  0  0  0  0  0  0  0  0  0
   -4.0262    8.0613    0.2477 H   0  0  0  0  0  0  0  0  0  0  0  0
   -2.4158    8.3817   -0.5460 H   0  0  0  0  0  0  0  0  0  0  0  0
   -2.5932    8.7516    1.1754 H   0  0  0  0  0  0  0  0  0  0  0  0
   -1.6001    4.2213    0.9083 H   0  0  0  0  0  0  0  0  0  0  0  0
   -3.3593    5.3875   -3.4428 H   0  0  0  0  0  0  0  0  0  0  0  0
   -2.7747    1.2677   -2.6182 H   0  0  0  0  0  0  0  0  0  0  0  0
   -2.9511   -0.4101   -2.1045 H   0  0  0  0  0  0  0  0  0  0  0  0
   -5.1204    0.5496   -2.2333 H   0  0  0  0  0  0  0  0  0  0  0  0
   -4.7140    1.9830   -1.2846 H   0  0  0  0  0  0  0  0  0  0  0  0
   -4.5611   -1.7203   -0.9082 H   0  0  0  0  0  0  0  0  0  0  0  0
   -6.1422   -1.0237   -1.4094 H   0  0  0  0  0  0  0  0  0  0  0  0
   -7.2518   -1.2048    3.6708 H   0  0  0  0  0  0  0  0  0  0  0  0
   -8.1546   -3.4465    3.4357 H   0  0  0  0  0  0  0  0  0  0  0  0
   -7.7918   -4.6699    1.3428 H   0  0  0  0  0  0  0  0  0  0  0  0
   -7.1637   -4.6382   -0.9355 H   0  0  0  0  0  0  0  0  0  0  0  0
   -6.5640   -3.1549   -1.6908 H   0  0  0  0  0  0  0  0  0  0  0  0
   -5.4443   -4.2794   -0.7364 H   0  0  0  0  0  0  0  0  0  0  0  0
   -3.9622   -0.9258    1.2120 H   0  0  0  0  0  0  0  0  0  0  0  0
   -4.4966    0.6527    1.7795 H   0  0  0  0  0  0  0  0  0  0  0  0
   -1.9012   -0.1371    1.2232 H   0  0  0  0  0  0  0  0  0  0  0  0
   -2.4695    1.5247    1.3306 H   0  0  0  0  0  0  0  0  0  0  0  0
    1.3188   -0.1304    1.7672 H   0  0  0  0  0  0  0  0  0  0  0  0
    3.6362   -1.0555    2.0200 H   0  0  0  0  0  0  0  0  0  0  0  0
    4.3106   -0.6321   -2.1265 H   0  0  0  0  0  0  0  0  0  0  0  0
    2.0177    0.2846   -2.3817 H   0  0  0  0  0  0  0  0  0  0  0  0
    5.6205   -0.5498    2.0394 H   0  0  0  0  0  0  0  0  0  0  0  0
    7.9537   -1.3060    2.3104 H   0  0  0  0  0  0  0  0  0  0  0  0
    7.8099   -3.0542   -1.5936 H   0  0  0  0  0  0  0  0  0  0  0  0
    5.4578   -2.2813   -1.8405 H   0  0  0  0  0  0  0  0  0  0  0  0
    9.9307   -1.9518    2.5234 H   0  0  0  0  0  0  0  0  0  0  0  0
   12.1253   -4.0657   -0.4578 H   0  0  0  0  0  0  0  0  0  0  0  0
    9.8326   -3.6307   -1.3166 H   0  0  0  0  0  0  0  0  0  0  0  0
  1  2  1  0
  2  3  1  0
  3  4  2  0
  4  5  1  0
  5  6  2  0
  6  7  1  0
  7  8  2  0
  5  9  1  0
  9 10  1  0
 10 11  2  0
 10 12  1  0
 12 13  1  0
 13 14  2  0
 13 15  1  0
 15 16  1  0
 16 17  1  0
 17 18  1  0
 18 19  1  0
 19 20  1  0
 20 21  2  0
 21 22  1  0
 22 23  2  0
 23 24  1  0
 24 25  2  0
 25 26  1  0
 18 27  1  0
 27 28  1  0
 12 29  1  0
 29 30  2  0
 30 31  1  0
 31 32  2  0
 32 33  1  0
 33 34  2  0
 32 35  1  0
 35 36  2  0
 36 37  1  0
 37 38  2  0
 38 39  1  0
 39 40  2  0
 38 41  1  0
 41 42  2  0
 42 43  1  0
 43 44  2  0
 43 45  1  0
 45 46  1  0
  8  3  1  0
 15  9  1  0
 28 15  1  0
 34 29  1  0
 40 35  1  0
 46 41  1  0
 25 20  1  0
  1 47  1  0
  1 48  1  0
  1 49  1  0
  4 50  1  0
  7 51  1  0
 16 52  1  0
 16 53  1  0
 17 54  1  0
 17 55  1  0
 19 56  1  0
 19 57  1  0
 22 58  1  0
 23 59  1  0
 24 60  1  0
 26 61  1  0
 26 62  1  0
 26 63  1  0
 27 64  1  0
 27 65  1  0
 28 66  1  0
 28 67  1  0
 30 68  1  0
 31 69  1  0
 33 70  1  0
 34 71  1  0
 36 72  1  0
 37 73  1  0
 39 74  1  0
 40 75  1  0
 42 76  1  0
 45 77  1  0
 46 78  1  0
M  END
$$$$
[H]Oc1c([H])c([H])nc(N2C(=O)N(c3c([H])c([H])c(-c4c([H])c([H])c([H])c([H])c4[H])c([H])c3[H])C(=O)C23C([H])([H])C([H])([H])N(C([H])([H])c2nc([H])c([H])c([H])c2C([H])([H])[H])C([H])([H])C3([H])[H])c1[H]
     RDKit          3D

 68 73  0  0  0  0  0  0  0  0999 V2000
   -5.7354    3.6580   -0.1422 C   0  0  0  0  0  0  0  0  0  0  0  0
   -6.0784    2.3672   -0.8432 C   0  0  0  0  0  0  0  0  0  0  0  0
   -7.2374    2.3218   -1.5417 C   0  0  0  0  0  0  0  0  0  0  0  0
   -7.5719    1.1396   -2.1929 C   0  0  0  0  0  0  0  0  0  0  0  0
   -6.7089    0.0677   -2.0976 C   0  0  0  0  0  0  0  0  0  0  0  0
   -5.5832    0.1612   -1.3997 N   0  0  0  0  0  0  0  0  0  0  0  0
   -5.2129    1.2676   -0.7584 C   0  0  0  0  0  0  0  0  0  0  0  0
   -4.0038    1.4825    0.0293 C   0  0  0  0  0  0  0  0  0  0  0  0
   -3.0875    0.3995    0.1369 N   0  0  0  0  0  0  0  0  0  0  0  0
   -1.9832    0.9072    0.9716 C   0  0  0  0  0  0  0  0  0  0  0  0
   -0.9414   -0.1032    1.2902 C   0  0  0  0  0  0  0  0  0  0  0  0
   -0.5727   -1.0165    0.1821 C   0  0  0  0  0  0  0  0  0  0  0  0
   -1.7301   -1.3355   -0.7411 C   0  0  0  0  0  0  0  0  0  0  0  0
   -2.4949   -0.0657   -1.0698 C   0  0  0  0  0  0  0  0  0  0  0  0
    0.0035   -2.2231    0.6932 N   0  0  0  0  0  0  0  0  0  0  0  0
    1.3718   -1.8693    1.0425 C   0  0  0  0  0  0  0  0  0  0  0  0
    2.0490   -2.4680    1.9240 O   0  0  0  0  0  0  0  0  0  0  0  0
    1.7394   -0.7720    0.2208 N   0  0  0  0  0  0  0  0  0  0  0  0
    0.5914   -0.4738   -0.6050 C   0  0  0  0  0  0  0  0  0  0  0  0
    0.6096    0.0998   -1.7037 O   0  0  0  0  0  0  0  0  0  0  0  0
    2.9933   -0.0935    0.1581 C   0  0  0  0  0  0  0  0  0  0  0  0
    3.0993    1.2034   -0.3523 C   0  0  0  0  0  0  0  0  0  0  0  0
    4.2937    1.8747   -0.4582 C   0  0  0  0  0  0  0  0  0  0  0  0
    5.4367    1.1971   -0.0238 C   0  0  0  0  0  0  0  0  0  0  0  0
    5.3776   -0.0758    0.4842 C   0  0  0  0  0  0  0  0  0  0  0  0
    4.1422   -0.7085    0.5681 C   0  0  0  0  0  0  0  0  0  0  0  0
    6.7220    1.8633   -0.1347 C   0  0  0  0  0  0  0  0  0  0  0  0
    6.9227    2.7428   -1.1711 C   0  0  0  0  0  0  0  0  0  0  0  0
    8.1668    3.3685   -1.2790 C   0  0  0  0  0  0  0  0  0  0  0  0
    9.1462    3.0801   -0.3430 C   0  0  0  0  0  0  0  0  0  0  0  0
    8.9455    2.1961    0.6990 C   0  0  0  0  0  0  0  0  0  0  0  0
    7.6947    1.5765    0.7963 C   0  0  0  0  0  0  0  0  0  0  0  0
   -0.5189   -3.5358    0.8449 C   0  0  0  0  0  0  0  0  0  0  0  0
   -1.5537   -3.8084    1.7011 C   0  0  0  0  0  0  0  0  0  0  0  0
   -2.0624   -5.1046    1.8415 C   0  0  0  0  0  0  0  0  0  0  0  0
   -3.1257   -5.3640    2.7265 O   0  0  0  0  0  0  0  0  0  0  0  0
   -1.5107   -6.1181    1.1058 C   0  0  0  0  0  0  0  0  0  0  0  0
   -0.4711   -5.8191    0.2510 C   0  0  0  0  0  0  0  0  0  0  0  0
   -0.0091   -4.5833    0.1371 N   0  0  0  0  0  0  0  0  0  0  0  0
   -6.6468    4.2683   -0.0143 H   0  0  0  0  0  0  0  0  0  0  0  0
   -5.3301    3.4799    0.8632 H   0  0  0  0  0  0  0  0  0  0  0  0
   -4.9657    4.1319   -0.7543 H   0  0  0  0  0  0  0  0  0  0  0  0
   -7.8889    3.2084   -1.5850 H   0  0  0  0  0  0  0  0  0  0  0  0
   -8.4863    1.0812   -2.7539 H   0  0  0  0  0  0  0  0  0  0  0  0
   -7.0169   -0.8395   -2.6277 H   0  0  0  0  0  0  0  0  0  0  0  0
   -4.3553    1.7063    1.0825 H   0  0  0  0  0  0  0  0  0  0  0  0
   -3.5032    2.3968   -0.3630 H   0  0  0  0  0  0  0  0  0  0  0  0
   -2.3742    1.3461    1.9147 H   0  0  0  0  0  0  0  0  0  0  0  0
   -1.5128    1.7333    0.4004 H   0  0  0  0  0  0  0  0  0  0  0  0
   -1.1627   -0.6120    2.2538 H   0  0  0  0  0  0  0  0  0  0  0  0
   -0.0011    0.4893    1.5271 H   0  0  0  0  0  0  0  0  0  0  0  0
   -1.3156   -1.7212   -1.6894 H   0  0  0  0  0  0  0  0  0  0  0  0
   -2.3468   -2.0876   -0.2526 H   0  0  0  0  0  0  0  0  0  0  0  0
   -1.7653    0.6902   -1.4143 H   0  0  0  0  0  0  0  0  0  0  0  0
   -3.1412   -0.2979   -1.9040 H   0  0  0  0  0  0  0  0  0  0  0  0
    2.1847    1.6867   -0.6739 H   0  0  0  0  0  0  0  0  0  0  0  0
    4.3012    2.8614   -0.8563 H   0  0  0  0  0  0  0  0  0  0  0  0
    6.2832   -0.5557    0.8063 H   0  0  0  0  0  0  0  0  0  0  0  0
    4.1354   -1.7180    0.9743 H   0  0  0  0  0  0  0  0  0  0  0  0
    6.1914    2.9969   -1.9212 H   0  0  0  0  0  0  0  0  0  0  0  0
    8.3733    4.0557   -2.0622 H   0  0  0  0  0  0  0  0  0  0  0  0
   10.1097    3.5689   -0.4319 H   0  0  0  0  0  0  0  0  0  0  0  0
    9.6744    1.9423    1.4441 H   0  0  0  0  0  0  0  0  0  0  0  0
    7.4953    0.8840    1.5872 H   0  0  0  0  0  0  0  0  0  0  0  0
   -2.0304   -3.0530    2.3127 H   0  0  0  0  0  0  0  0  0  0  0  0
   -4.0614   -5.2803    2.3047 H   0  0  0  0  0  0  0  0  0  0  0  0
   -1.8875   -7.1405    1.1952 H   0  0  0  0  0  0  0  0  0  0  0  0
   -0.0687   -6.6580   -0.3088 H   0  0  0  0  0  0  0  0  0  0  0  0
  1  2  1  0
  2  3  2  0
  3  4  1  0
  4  5  2  0
  5  6  1  0
  6  7  2  0
  7  8  1  0
  8  9  1  0
  9 10  1  0
 10 11  1  0
 11 12  1  0
 12 13  1  0
 13 14  1  0
 12 15  1  0
 15 16  1  0
 16 17  2  0
 16 18  1  0
 18 19  1  0
 19 20  2  0
 18 21  1  0
 21 22  2  0
 22 23  1  0
 23 24  2  0
 24 25  1  0
 25 26  2  0
 24 27  1  0
 27 28  2  0
 28 29  1  0
 29 30  2  0
 30 31  1  0
 31 32  2  0
 15 33  1  0
 33 34  2  0
 34 35  1  0
 35 36  1  0
 35 37  2  0
 37 38  1  0
 38 39  2  0
  7  2  1  0
 14  9  1  0
 26 21  1  0
 32 27  1  0
 39 33  1  0
 19 12  1  0
  1 40  1  0
  1 41  1  0
  1 42  1  0
  3 43  1  0
  4 44  1  0
  5 45  1  0
  8 46  1  0
  8 47  1  0
 10 48  1  0
 10 49  1  0
 11 50  1  0
 11 51  1  0
 13 52  1  0
 13 53  1  0
 14 54  1  0
 14 55  1  0
 22 56  1  0
 23 57  1  0
 25 58  1  0
 26 59  1  0
 28 60  1  0
 29 61  1  0
 30 62  1  0
 31 63  1  0
 32 64  1  0
 34 65  1  0
 36 66  1  0
 37 67  1  0
 38 68  1  0
M  END
$$$$
[H]c1nc2c([H])c(N([H])C(=O)C([H])([H])[H])c([H])c(-c3c([H])c([H])c(C#N)c([H])c3[H])n2n1
     RDKit          3D

 32 34  0  0  0  0  0  0  0  0999 V2000
   -5.0949    2.2445   -0.6130 C   0  0  0  0  0  0  0  0  0  0  0  0
   -4.2123    1.0712   -0.1858 C   0  0  0  0  0  0  0  0  0  0  0  0
   -4.8053    0.1356    0.4063 O   0  0  0  0  0  0  0  0  0  0  0  0
   -2.8487    1.0907   -0.4600 N   0  0  0  0  0  0  0  0  0  0  0  0
   -1.9332    0.0962   -0.1386 C   0  0  0  0  0  0  0  0  0  0  0  0
   -0.5556    0.4151   -0.1587 C   0  0  0  0  0  0  0  0  0  0  0  0
    0.4497   -0.4771    0.1179 C   0  0  0  0  0  0  0  0  0  0  0  0
    1.8534   -0.0980    0.0528 C   0  0  0  0  0  0  0  0  0  0  0  0
    2.8677   -0.7523    0.6878 C   0  0  0  0  0  0  0  0  0  0  0  0
    4.2002   -0.3415    0.5545 C   0  0  0  0  0  0  0  0  0  0  0  0
    4.5306    0.7418   -0.2252 C   0  0  0  0  0  0  0  0  0  0  0  0
    3.5347    1.4084   -0.8666 C   0  0  0  0  0  0  0  0  0  0  0  0
    2.2285    0.9893   -0.7240 C   0  0  0  0  0  0  0  0  0  0  0  0
    5.8976    1.1528   -0.3538 C   0  0  0  0  0  0  0  0  0  0  0  0
    7.0064    1.4863   -0.4744 N   0  0  0  0  0  0  0  0  0  0  0  0
    0.0422   -1.7334    0.4246 N   0  0  0  0  0  0  0  0  0  0  0  0
    0.6964   -2.8280    0.7301 N   0  0  0  0  0  0  0  0  0  0  0  0
   -0.1184   -3.8649    0.9569 C   0  0  0  0  0  0  0  0  0  0  0  0
   -1.3595   -3.3855    0.7813 N   0  0  0  0  0  0  0  0  0  0  0  0
   -1.2433   -2.0732    0.4541 C   0  0  0  0  0  0  0  0  0  0  0  0
   -2.2755   -1.1710    0.1734 C   0  0  0  0  0  0  0  0  0  0  0  0
   -5.4163    2.0447   -1.6448 H   0  0  0  0  0  0  0  0  0  0  0  0
   -4.5169    3.1851   -0.5129 H   0  0  0  0  0  0  0  0  0  0  0  0
   -5.9671    2.3130    0.0695 H   0  0  0  0  0  0  0  0  0  0  0  0
   -2.4921    1.9651   -0.9708 H   0  0  0  0  0  0  0  0  0  0  0  0
   -0.2914    1.4443   -0.4048 H   0  0  0  0  0  0  0  0  0  0  0  0
    2.7110   -1.5862    1.3169 H   0  0  0  0  0  0  0  0  0  0  0  0
    4.9877   -0.8639    1.0580 H   0  0  0  0  0  0  0  0  0  0  0  0
    3.7887    2.2580   -1.4785 H   0  0  0  0  0  0  0  0  0  0  0  0
    1.4705    1.5528   -1.2636 H   0  0  0  0  0  0  0  0  0  0  0  0
    0.1690   -4.8892    1.2287 H   0  0  0  0  0  0  0  0  0  0  0  0
   -3.3036   -1.5305    0.2064 H   0  0  0  0  0  0  0  0  0  0  0  0
  1  2  1  0
  2  3  2  0
  2  4  1  0
  4  5  1  0
  5  6  1  0
  6  7  2  0
  7  8  1  0
  8  9  2  0
  9 10  1  0
 10 11  2  0
 11 12  1  0
 12 13  2  0
 11 14  1  0
 14 15  3  0
  7 16  1  0
 16 17  1  0
 17 18  2  0
 18 19  1  0
 19 20  2  0
 20 21  1  0
 21  5  2  0
 13  8  1  0
 20 16  1  0
  1 22  1  0
  1 23  1  0
  1 24  1  0
  4 25  1  0
  6 26  1  0
  9 27  1  0
 10 28  1  0
 12 29  1  0
 13 30  1  0
 18 31  1  0
 21 32  1  0
M  END
$$$$
[H]c1nc2c([H])c(N([H])C(=O)C([H])([H])[H])c([H])c(-c3c([H])c([H])c(C#N)c(F)c3C([H])([H])[H])n2n1
     RDKit          3D

 35 37  0  0  0  0  0  0  0  0999 V2000
    5.5891    1.3732    0.3000 C   0  0  0  0  0  0  0  0  0  0  0  0
    4.5300    0.3952   -0.1710 C   0  0  0  0  0  0  0  0  0  0  0  0
    4.9074   -0.5251   -0.9229 O   0  0  0  0  0  0  0  0  0  0  0  0
    3.2087    0.5495    0.2377 N   0  0  0  0  0  0  0  0  0  0  0  0
    2.0754   -0.2265   -0.0672 C   0  0  0  0  0  0  0  0  0  0  0  0
    0.8071    0.2050    0.3591 C   0  0  0  0  0  0  0  0  0  0  0  0
   -0.3455   -0.4940    0.1112 C   0  0  0  0  0  0  0  0  0  0  0  0
   -1.6458   -0.0188    0.5672 C   0  0  0  0  0  0  0  0  0  0  0  0
   -2.1546   -0.3678    1.8005 C   0  0  0  0  0  0  0  0  0  0  0  0
   -3.4072    0.1049    2.2104 C   0  0  0  0  0  0  0  0  0  0  0  0
   -4.1312    0.9199    1.3789 C   0  0  0  0  0  0  0  0  0  0  0  0
   -5.4248    1.4365    1.7462 C   0  0  0  0  0  0  0  0  0  0  0  0
   -6.4487    1.8641    2.0381 N   0  0  0  0  0  0  0  0  0  0  0  0
   -3.6415    1.2822    0.1399 C   0  0  0  0  0  0  0  0  0  0  0  0
   -4.3348    2.0871   -0.7047 F   0  0  0  0  0  0  0  0  0  0  0  0
   -2.3880    0.8011   -0.2544 C   0  0  0  0  0  0  0  0  0  0  0  0
   -1.8222    1.1610   -1.5703 C   0  0  0  0  0  0  0  0  0  0  0  0
   -0.2226   -1.6439   -0.5754 N   0  0  0  0  0  0  0  0  0  0  0  0
   -1.1489   -2.5044   -0.9487 N   0  0  0  0  0  0  0  0  0  0  0  0
   -0.5921   -3.5218   -1.6180 C   0  0  0  0  0  0  0  0  0  0  0  0
    0.7164   -3.2808   -1.6581 N   0  0  0  0  0  0  0  0  0  0  0  0
    0.9425   -2.1175   -1.0119 C   0  0  0  0  0  0  0  0  0  0  0  0
    2.1321   -1.4041   -0.7605 C   0  0  0  0  0  0  0  0  0  0  0  0
    6.5724    0.8801    0.2772 H   0  0  0  0  0  0  0  0  0  0  0  0
    5.3126    1.7608    1.3004 H   0  0  0  0  0  0  0  0  0  0  0  0
    5.6181    2.2222   -0.4142 H   0  0  0  0  0  0  0  0  0  0  0  0
    3.0491    1.4013    0.8916 H   0  0  0  0  0  0  0  0  0  0  0  0
    0.7646    1.1340    0.9053 H   0  0  0  0  0  0  0  0  0  0  0  0
   -1.5597   -1.0157    2.4408 H   0  0  0  0  0  0  0  0  0  0  0  0
   -3.7944   -0.1667    3.1608 H   0  0  0  0  0  0  0  0  0  0  0  0
   -1.1857    2.0860   -1.4714 H   0  0  0  0  0  0  0  0  0  0  0  0
   -2.6484    1.4380   -2.2615 H   0  0  0  0  0  0  0  0  0  0  0  0
   -1.2063    0.3572   -2.0112 H   0  0  0  0  0  0  0  0  0  0  0  0
   -1.1742   -4.3460   -2.0176 H   0  0  0  0  0  0  0  0  0  0  0  0
    3.0512   -1.8262   -1.1278 H   0  0  0  0  0  0  0  0  0  0  0  0
  1  2  1  0
  2  3  2  0
  2  4  1  0
  4  5  1  0
  5  6  1  0
  6  7  2  0
  7  8  1  0
  8  9  2  0
  9 10  1  0
 10 11  2  0
 11 12  1  0
 12 13  3  0
 11 14  1  0
 14 15  1  0
 14 16  2  0
 16 17  1  0
  7 18  1  0
 18 19  1  0
 19 20  2  0
 20 21  1  0
 21 22  2  0
 22 23  1  0
 23  5  2  0
 16  8  1  0
 22 18  1  0
  1 24  1  0
  1 25  1  0
  1 26  1  0
  4 27  1  0
  6 28  1  0
  9 29  1  0
 10 30  1  0
 17 31  1  0
 17 32  1  0
 17 33  1  0
 20 34  1  0
 23 35  1  0
M  END
$$$$
[H]OC(=O)c1c([H])c([H])c(-c2c([H])c([H])c(N3C(=O)N(c4nc([H])nc(OC([H])([H])[H])c4[H])C4(C3=O)C([H])([H])C([H])([H])N(C([H])([H])c3nc([H])c([H])c([H])c3C([H])([H])[H])C([H])([H])C4([H])[H])c([H])c2[H])c(F)c1[H]
     RDKit          3D

 73 78  0  0  0  0  0  0  0  0999 V2000
   -2.8670    8.0984    2.0308 C   0  0  0  0  0  0  0  0  0  0  0  0
   -2.7997    6.7278    1.6123 O   0  0  0  0  0  0  0  0  0  0  0  0
   -1.6091    6.0244    1.7203 C   0  0  0  0  0  0  0  0  0  0  0  0
   -1.5328    4.6846    1.3134 C   0  0  0  0  0  0  0  0  0  0  0  0
   -0.3842    3.9428    1.3986 C   0  0  0  0  0  0  0  0  0  0  0  0
    0.6875    4.6167    1.9139 N   0  0  0  0  0  0  0  0  0  0  0  0
    0.6259    5.9017    2.3065 C   0  0  0  0  0  0  0  0  0  0  0  0
   -0.5030    6.6216    2.2200 N   0  0  0  0  0  0  0  0  0  0  0  0
   -0.2135    2.5988    1.0217 N   0  0  0  0  0  0  0  0  0  0  0  0
    1.1242    2.0092    0.9675 C   0  0  0  0  0  0  0  0  0  0  0  0
    2.0983    2.3980    1.6571 O   0  0  0  0  0  0  0  0  0  0  0  0
    1.1073    0.9412    0.0113 N   0  0  0  0  0  0  0  0  0  0  0  0
   -0.2361    0.9215   -0.4792 C   0  0  0  0  0  0  0  0  0  0  0  0
   -0.5796    0.4964   -1.6030 O   0  0  0  0  0  0  0  0  0  0  0  0
   -1.0440    1.5055    0.6418 C   0  0  0  0  0  0  0  0  0  0  0  0
   -0.9794    0.4956    1.7800 C   0  0  0  0  0  0  0  0  0  0  0  0
   -2.2481   -0.2771    1.8976 C   0  0  0  0  0  0  0  0  0  0  0  0
   -2.7739   -0.6822    0.5922 N   0  0  0  0  0  0  0  0  0  0  0  0
   -3.9534   -1.4676    0.9020 C   0  0  0  0  0  0  0  0  0  0  0  0
   -4.6344   -2.0639   -0.2402 C   0  0  0  0  0  0  0  0  0  0  0  0
   -4.1830   -1.9044   -1.4829 N   0  0  0  0  0  0  0  0  0  0  0  0
   -4.8053   -2.4655   -2.5595 C   0  0  0  0  0  0  0  0  0  0  0  0
   -5.9367   -3.2264   -2.3902 C   0  0  0  0  0  0  0  0  0  0  0  0
   -6.4162   -3.4009   -1.1101 C   0  0  0  0  0  0  0  0  0  0  0  0
   -5.7656   -2.8199   -0.0363 C   0  0  0  0  0  0  0  0  0  0  0  0
   -6.2929   -3.0145    1.3558 C   0  0  0  0  0  0  0  0  0  0  0  0
   -3.1290    0.4769   -0.1916 C   0  0  0  0  0  0  0  0  0  0  0  0
   -2.4458    1.7535    0.2667 C   0  0  0  0  0  0  0  0  0  0  0  0
    2.1932    0.1123   -0.3455 C   0  0  0  0  0  0  0  0  0  0  0  0
    2.7747   -0.7009    0.5916 C   0  0  0  0  0  0  0  0  0  0  0  0
    3.8497   -1.5348    0.2671 C   0  0  0  0  0  0  0  0  0  0  0  0
    4.2808   -1.4859   -1.0398 C   0  0  0  0  0  0  0  0  0  0  0  0
    3.7032   -0.6717   -1.9903 C   0  0  0  0  0  0  0  0  0  0  0  0
    2.6548    0.1276   -1.6308 C   0  0  0  0  0  0  0  0  0  0  0  0
    5.4018   -2.3420   -1.4299 C   0  0  0  0  0  0  0  0  0  0  0  0
    5.3056   -3.0859   -2.6064 C   0  0  0  0  0  0  0  0  0  0  0  0
    6.3422   -3.9045   -2.9944 C   0  0  0  0  0  0  0  0  0  0  0  0
    7.4931   -3.9931   -2.2113 C   0  0  0  0  0  0  0  0  0  0  0  0
    7.6012   -3.2630   -1.0463 C   0  0  0  0  0  0  0  0  0  0  0  0
    6.5489   -2.4518   -0.6824 C   0  0  0  0  0  0  0  0  0  0  0  0
    6.6360   -1.7132    0.4701 F   0  0  0  0  0  0  0  0  0  0  0  0
    8.5827   -4.8694   -2.6371 C   0  0  0  0  0  0  0  0  0  0  0  0
    9.7232   -4.9843   -1.8917 O   0  0  0  0  0  0  0  0  0  0  0  0
    8.4607   -5.5166   -3.6967 O   0  0  0  0  0  0  0  0  0  0  0  0
   -3.0171    8.0865    3.1271 H   0  0  0  0  0  0  0  0  0  0  0  0
   -1.9322    8.6280    1.7439 H   0  0  0  0  0  0  0  0  0  0  0  0
   -3.7725    8.5267    1.5557 H   0  0  0  0  0  0  0  0  0  0  0  0
   -2.4452    4.2882    0.9256 H   0  0  0  0  0  0  0  0  0  0  0  0
    1.4981    6.4112    2.7122 H   0  0  0  0  0  0  0  0  0  0  0  0
   -0.8269    1.0417    2.7418 H   0  0  0  0  0  0  0  0  0  0  0  0
   -0.1065   -0.1673    1.6455 H   0  0  0  0  0  0  0  0  0  0  0  0
   -2.0098   -1.2310    2.4321 H   0  0  0  0  0  0  0  0  0  0  0  0
   -3.0387    0.2194    2.4737 H   0  0  0  0  0  0  0  0  0  0  0  0
   -3.7126   -2.2356    1.6979 H   0  0  0  0  0  0  0  0  0  0  0  0
   -4.6573   -0.7716    1.4357 H   0  0  0  0  0  0  0  0  0  0  0  0
   -4.4273   -2.3269   -3.5638 H   0  0  0  0  0  0  0  0  0  0  0  0
   -6.4388   -3.6774   -3.2346 H   0  0  0  0  0  0  0  0  0  0  0  0
   -7.2950   -3.9884   -0.9412 H   0  0  0  0  0  0  0  0  0  0  0  0
   -7.3455   -3.3044    1.2881 H   0  0  0  0  0  0  0  0  0  0  0  0
   -5.7084   -3.7900    1.8627 H   0  0  0  0  0  0  0  0  0  0  0  0
   -6.2356   -2.0484    1.9162 H   0  0  0  0  0  0  0  0  0  0  0  0
   -4.2240    0.6439   -0.0798 H   0  0  0  0  0  0  0  0  0  0  0  0
   -2.9473    0.2757   -1.2550 H   0  0  0  0  0  0  0  0  0  0  0  0
   -2.5706    2.4991   -0.5189 H   0  0  0  0  0  0  0  0  0  0  0  0
   -3.0069    2.0756    1.1667 H   0  0  0  0  0  0  0  0  0  0  0  0
    2.3877   -0.6934    1.6064 H   0  0  0  0  0  0  0  0  0  0  0  0
    4.2755   -2.1610    1.0368 H   0  0  0  0  0  0  0  0  0  0  0  0
    4.1045   -0.6959   -2.9913 H   0  0  0  0  0  0  0  0  0  0  0  0
    2.2062    0.7630   -2.3737 H   0  0  0  0  0  0  0  0  0  0  0  0
    4.4229   -3.0312   -3.2265 H   0  0  0  0  0  0  0  0  0  0  0  0
    6.2924   -4.4874   -3.8982 H   0  0  0  0  0  0  0  0  0  0  0  0
    8.4783   -3.3091   -0.4183 H   0  0  0  0  0  0  0  0  0  0  0  0
   10.1904   -4.1553   -1.5096 H   0  0  0  0  0  0  0  0  0  0  0  0
  1  2  1  0
  2  3  1  0
  3  4  2  0
  4  5  1  0
  5  6  2  0
  6  7  1  0
  7  8  2  0
  5  9  1  0
  9 10  1  0
 10 11  2  0
 10 12  1  0
 12 13  1  0
 13 14  2  0
 13 15  1  0
 15 16  1  0
 16 17  1  0
 17 18  1  0
 18 19  1  0
 19 20  1  0
 20 21  2  0
 21 22  1  0
 22 23  2  0
 23 24  1  0
 24 25  2  0
 25 26  1  0
 18 27  1  0
 27 28  1  0
 12 29  1  0
 29 30  2  0
 30 31  1  0
 31 32  2  0
 32 33  1  0
 33 34  2  0
 32 35  1  0
 35 36  2  0
 36 37  1  0
 37 38  2  0
 38 39  1  0
 39 40  2  0
 40 41  1  0
 38 42  1  0
 42 43  1  0
 42 44  2  0
  8  3  1  0
 15  9  1  0
 28 15  1  0
 34 29  1  0
 40 35  1  0
 25 20  1  0
  1 45  1  0
  1 46  1  0
  1 47  1  0
  4 48  1  0
  7 49  1  0
 16 50  1  0
 16 51  1  0
 17 52  1  0
 17 53  1  0
 19 54  1  0
 19 55  1  0
 22 56  1  0
 23 57  1  0
 24 58  1  0
 26 59  1  0
 26 60  1  0
 26 61  1  0
 27 62  1  0
 27 63  1  0
 28 64  1  0
 28 65  1  0
 30 66  1  0
 31 67  1  0
 33 68  1  0
 34 69  1  0
 36 70  1  0
 37 71  1  0
 39 72  1  0
 43 73  1  0
M  END
$$$$
[H]OC(=O)C([H])([H])N([H])C(=O)c1c(O[H])c2c([H])c(C([H])([H])N([H])C(=O)[C@@]([H])(N([H])C(=O)[C@@]([H])(N([H])C(=O)C([H])([H])C([H])([H])N3C([H])([H])C([H])([H])OC([H])([H])C3([H])[H])C([H])([H])c3c([H])c([H])c([H])c([H])c3[H])C([H])([H])c3c([H])c([H])c([H])c([H])c3[H])c([H])c([H])c2n(C([H])([H])[H])c1=O
     RDKit          3D

 98102  0  0  0  0  0  0  0  0999 V2000
    5.6366    0.4206    2.8640 C   0  0  0  0  0  0  0  0  0  0  0  0
    5.3960    0.9087    1.5039 N   0  0  0  0  0  0  0  0  0  0  0  0
    4.7127    0.1476    0.6393 C   0  0  0  0  0  0  0  0  0  0  0  0
    4.2338   -1.1071    1.0169 C   0  0  0  0  0  0  0  0  0  0  0  0
    3.5447   -1.8725    0.1014 C   0  0  0  0  0  0  0  0  0  0  0  0
    3.3117   -1.4349   -1.1844 C   0  0  0  0  0  0  0  0  0  0  0  0
    2.6028   -2.2784   -2.1586 C   0  0  0  0  0  0  0  0  0  0  0  0
    1.6718   -3.1411   -1.3908 N   0  0  0  0  0  0  0  0  0  0  0  0
    0.4267   -2.6663   -0.9985 C   0  0  0  0  0  0  0  0  0  0  0  0
    0.1313   -1.4333   -1.3570 O   0  0  0  0  0  0  0  0  0  0  0  0
   -0.6105   -3.3283   -0.2452 C   0  0  2  0  0  0  0  0  0  0  0  0
   -0.8259   -4.7489   -0.1924 C   0  0  0  0  0  0  0  0  0  0  0  0
    0.0696   -5.7461    0.2828 C   0  0  0  0  0  0  0  0  0  0  0  0
    0.8133   -6.5634   -0.5191 C   0  0  0  0  0  0  0  0  0  0  0  0
    1.6809   -7.5219   -0.0171 C   0  0  0  0  0  0  0  0  0  0  0  0
    1.8291   -7.6898    1.3452 C   0  0  0  0  0  0  0  0  0  0  0  0
    1.0826   -6.8689    2.1813 C   0  0  0  0  0  0  0  0  0  0  0  0
    0.2323   -5.9297    1.6565 C   0  0  0  0  0  0  0  0  0  0  0  0
   -1.9071   -2.7687   -0.7993 N   0  0  0  0  0  0  0  0  0  0  0  0
   -2.5685   -1.6984   -0.2024 C   0  0  0  0  0  0  0  0  0  0  0  0
   -1.9473   -1.2175    0.8474 O   0  0  0  0  0  0  0  0  0  0  0  0
   -3.7981   -1.0089   -0.5126 C   0  0  2  0  0  0  0  0  0  0  0  0
   -4.7300   -1.3859   -1.5615 C   0  0  0  0  0  0  0  0  0  0  0  0
   -5.3800   -2.7002   -1.4104 C   0  0  0  0  0  0  0  0  0  0  0  0
   -5.0659   -3.8677   -2.0113 C   0  0  0  0  0  0  0  0  0  0  0  0
   -5.6951   -5.0833   -1.8343 C   0  0  0  0  0  0  0  0  0  0  0  0
   -6.7674   -5.0964   -0.9378 C   0  0  0  0  0  0  0  0  0  0  0  0
   -7.1257   -3.9306   -0.3006 C   0  0  0  0  0  0  0  0  0  0  0  0
   -6.4690   -2.7465   -0.5099 C   0  0  0  0  0  0  0  0  0  0  0  0
   -3.6048    0.4495   -0.4956 N   0  0  0  0  0  0  0  0  0  0  0  0
   -4.0373    1.2394    0.5887 C   0  0  0  0  0  0  0  0  0  0  0  0
   -4.6019    0.6755    1.5542 O   0  0  0  0  0  0  0  0  0  0  0  0
   -3.8434    2.7023    0.6151 C   0  0  0  0  0  0  0  0  0  0  0  0
   -4.3919    3.2621    1.8795 C   0  0  0  0  0  0  0  0  0  0  0  0
   -4.2518    4.6792    2.0151 N   0  0  0  0  0  0  0  0  0  0  0  0
   -5.0114    5.4737    1.1155 C   0  0  0  0  0  0  0  0  0  0  0  0
   -5.0989    6.8861    1.6652 C   0  0  0  0  0  0  0  0  0  0  0  0
   -3.9216    7.3437    2.2103 O   0  0  0  0  0  0  0  0  0  0  0  0
   -2.8188    6.5815    1.8832 C   0  0  0  0  0  0  0  0  0  0  0  0
   -2.9420    5.1371    2.3252 C   0  0  0  0  0  0  0  0  0  0  0  0
    3.7899   -0.1878   -1.5485 C   0  0  0  0  0  0  0  0  0  0  0  0
    4.4791    0.5871   -0.6452 C   0  0  0  0  0  0  0  0  0  0  0  0
    4.9751    1.8475   -1.0155 C   0  0  0  0  0  0  0  0  0  0  0  0
    4.7566    2.3100   -2.2851 O   0  0  0  0  0  0  0  0  0  0  0  0
    5.6762    2.6408   -0.1472 C   0  0  0  0  0  0  0  0  0  0  0  0
    6.2242    3.9505   -0.4242 C   0  0  0  0  0  0  0  0  0  0  0  0
    6.8670    4.5448    0.5276 O   0  0  0  0  0  0  0  0  0  0  0  0
    6.1183    4.6395   -1.6479 N   0  0  0  0  0  0  0  0  0  0  0  0
    6.7426    5.9638   -1.7974 C   0  0  0  0  0  0  0  0  0  0  0  0
    8.1983    5.7996   -1.6757 C   0  0  0  0  0  0  0  0  0  0  0  0
    9.0301    6.9003   -1.6950 O   0  0  0  0  0  0  0  0  0  0  0  0
    8.7038    4.6648   -1.5528 O   0  0  0  0  0  0  0  0  0  0  0  0
    5.8600    2.0999    1.1382 C   0  0  0  0  0  0  0  0  0  0  0  0
    6.4957    2.7913    1.9651 O   0  0  0  0  0  0  0  0  0  0  0  0
    6.3173    1.1344    3.3912 H   0  0  0  0  0  0  0  0  0  0  0  0
    6.2090   -0.5471    2.8439 H   0  0  0  0  0  0  0  0  0  0  0  0
    4.7045    0.3440    3.4479 H   0  0  0  0  0  0  0  0  0  0  0  0
    4.4316   -1.4205    2.0295 H   0  0  0  0  0  0  0  0  0  0  0  0
    3.1677   -2.8488    0.3739 H   0  0  0  0  0  0  0  0  0  0  0  0
    2.0207   -1.6174   -2.8509 H   0  0  0  0  0  0  0  0  0  0  0  0
    3.2580   -2.9285   -2.7597 H   0  0  0  0  0  0  0  0  0  0  0  0
    2.0322   -4.0651   -1.1812 H   0  0  0  0  0  0  0  0  0  0  0  0
   -0.6139   -2.8182    0.7796 H   0  0  0  0  0  0  0  0  0  0  0  0
   -1.1095   -5.0734   -1.2733 H   0  0  0  0  0  0  0  0  0  0  0  0
   -1.8570   -4.9549    0.3058 H   0  0  0  0  0  0  0  0  0  0  0  0
    0.7571   -6.4974   -1.6172 H   0  0  0  0  0  0  0  0  0  0  0  0
    2.2779   -8.1785   -0.6473 H   0  0  0  0  0  0  0  0  0  0  0  0
    2.4883   -8.4149    1.7736 H   0  0  0  0  0  0  0  0  0  0  0  0
    1.1884   -6.9898    3.2598 H   0  0  0  0  0  0  0  0  0  0  0  0
   -0.3377   -5.3043    2.2965 H   0  0  0  0  0  0  0  0  0  0  0  0
   -2.2559   -3.2057   -1.6591 H   0  0  0  0  0  0  0  0  0  0  0  0
   -4.4233   -1.1915    0.5139 H   0  0  0  0  0  0  0  0  0  0  0  0
   -4.2213   -1.3164   -2.5774 H   0  0  0  0  0  0  0  0  0  0  0  0
   -5.5859   -0.6480   -1.6844 H   0  0  0  0  0  0  0  0  0  0  0  0
   -4.2419   -3.8652   -2.7194 H   0  0  0  0  0  0  0  0  0  0  0  0
   -5.3659   -5.9574   -2.3614 H   0  0  0  0  0  0  0  0  0  0  0  0
   -7.2769   -6.0411   -0.7827 H   0  0  0  0  0  0  0  0  0  0  0  0
   -7.9707   -3.9611    0.4008 H   0  0  0  0  0  0  0  0  0  0  0  0
   -6.7553   -1.8279   -0.0051 H   0  0  0  0  0  0  0  0  0  0  0  0
   -3.1275    0.8634   -1.3441 H   0  0  0  0  0  0  0  0  0  0  0  0
   -4.3080    3.1421   -0.2985 H   0  0  0  0  0  0  0  0  0  0  0  0
   -2.7558    2.8832    0.4879 H   0  0  0  0  0  0  0  0  0  0  0  0
   -3.7976    2.8009    2.7176 H   0  0  0  0  0  0  0  0  0  0  0  0
   -5.4305    2.9701    2.0786 H   0  0  0  0  0  0  0  0  0  0  0  0
   -6.0542    5.0813    1.0468 H   0  0  0  0  0  0  0  0  0  0  0  0
   -4.5514    5.5758    0.1086 H   0  0  0  0  0  0  0  0  0  0  0  0
   -5.8782    6.9635    2.4612 H   0  0  0  0  0  0  0  0  0  0  0  0
   -5.3606    7.6089    0.8341 H   0  0  0  0  0  0  0  0  0  0  0  0
   -2.5129    6.6839    0.8279 H   0  0  0  0  0  0  0  0  0  0  0  0
   -1.9613    6.9970    2.4881 H   0  0  0  0  0  0  0  0  0  0  0  0
   -2.1454    4.5845    1.7431 H   0  0  0  0  0  0  0  0  0  0  0  0
   -2.7634    5.0264    3.4144 H   0  0  0  0  0  0  0  0  0  0  0  0
    3.5954    0.1382   -2.5587 H   0  0  0  0  0  0  0  0  0  0  0  0
    4.2847    1.8958   -3.0343 H   0  0  0  0  0  0  0  0  0  0  0  0
    5.6330    4.3181   -2.4994 H   0  0  0  0  0  0  0  0  0  0  0  0
    6.3327    6.5555   -0.9246 H   0  0  0  0  0  0  0  0  0  0  0  0
    6.4286    6.4572   -2.7331 H   0  0  0  0  0  0  0  0  0  0  0  0
    9.6567    7.0249   -0.8984 H   0  0  0  0  0  0  0  0  0  0  0  0
  1  2  1  0
  2  3  1  0
  3  4  2  0
  4  5  1  0
  5  6  2  0
  6  7  1  0
  7  8  1  0
  8  9  1  0
  9 10  2  0
  9 11  1  0
 11 12  1  0
 12 13  1  0
 13 14  2  0
 14 15  1  0
 15 16  2  0
 16 17  1  0
 17 18  2  0
 11 19  1  0
 19 20  1  0
 20 21  2  0
 20 22  1  0
 22 23  1  0
 23 24  1  0
 24 25  2  0
 25 26  1  0
 26 27  2  0
 27 28  1  0
 28 29  2  0
 22 30  1  0
 30 31  1  0
 31 32  2  0
 31 33  1  0
 33 34  1  0
 34 35  1  0
 35 36  1  0
 36 37  1  0
 37 38  1  0
 38 39  1  0
 39 40  1  0
  6 41  1  0
 41 42  2  0
 42 43  1  0
 43 44  1  0
 43 45  2  0
 45 46  1  0
 46 47  2  0
 46 48  1  0
 48 49  1  0
 49 50  1  0
 50 51  1  0
 50 52  2  0
 45 53  1  0
 53 54  2  0
 53  2  1  0
 42  3  1  0
 18 13  1  0
 29 24  1  0
 40 35  1  0
  1 55  1  0
  1 56  1  0
  1 57  1  0
  4 58  1  0
  5 59  1  0
  7 60  1  0
  7 61  1  0
  8 62  1  0
 11 63  1  1
 12 64  1  0
 12 65  1  0
 14 66  1  0
 15 67  1  0
 16 68  1  0
 17 69  1  0
 18 70  1  0
 19 71  1  0
 22 72  1  1
 23 73  1  0
 23 74  1  0
 25 75  1  0
 26 76  1  0
 27 77  1  0
 28 78  1  0
 29 79  1  0
 30 80  1  0
 33 81  1  0
 33 82  1  0
 34 83  1  0
 34 84  1  0
 36 85  1  0
 36 86  1  0
 37 87  1  0
 37 88  1  0
 39 89  1  0
 39 90  1  0
 40 91  1  0
 40 92  1  0
 41 93  1  0
 44 94  1  0
 48 95  1  0
 49 96  1  0
 49 97  1  0
 51 98  1  0
M  END
$$$$
[H]c1nc2c([H])c(N([H])C(=O)C([H])([H])[H])c([H])c(-c3c([H])c([H])c(C#N)c([H])c3Cl)n2n1
     RDKit          3D

 32 34  0  0  0  0  0  0  0  0999 V2000
   -5.2371    1.7331   -0.8463 C   0  0  0  0  0  0  0  0  0  0  0  0
   -4.2835    0.6945   -0.2783 C   0  0  0  0  0  0  0  0  0  0  0  0
   -4.7209   -0.1964    0.4663 O   0  0  0  0  0  0  0  0  0  0  0  0
   -2.9468    0.8225   -0.6465 N   0  0  0  0  0  0  0  0  0  0  0  0
   -1.9234   -0.0456   -0.2288 C   0  0  0  0  0  0  0  0  0  0  0  0
   -0.5807    0.3945   -0.2824 C   0  0  0  0  0  0  0  0  0  0  0  0
    0.4670   -0.3999    0.0836 C   0  0  0  0  0  0  0  0  0  0  0  0
    1.8247    0.1046    0.0080 C   0  0  0  0  0  0  0  0  0  0  0  0
    2.5607   -0.0567   -1.1510 C   0  0  0  0  0  0  0  0  0  0  0  0
    3.8558    0.4071   -1.2676 C   0  0  0  0  0  0  0  0  0  0  0  0
    4.4465    1.0573   -0.1932 C   0  0  0  0  0  0  0  0  0  0  0  0
    3.7162    1.2216    0.9676 C   0  0  0  0  0  0  0  0  0  0  0  0
    2.4184    0.7476    1.0609 C   0  0  0  0  0  0  0  0  0  0  0  0
    1.5407    0.9871    2.5641 Cl  0  0  0  0  0  0  0  0  0  0  0  0
    5.8051    1.5406   -0.3242 C   0  0  0  0  0  0  0  0  0  0  0  0
    6.9025    1.9114   -0.4265 N   0  0  0  0  0  0  0  0  0  0  0  0
    0.2248   -1.6486    0.5125 N   0  0  0  0  0  0  0  0  0  0  0  0
    1.0047   -2.6508    0.9326 N   0  0  0  0  0  0  0  0  0  0  0  0
    0.2700   -3.7269    1.2613 C   0  0  0  0  0  0  0  0  0  0  0  0
   -1.0082   -3.3793    1.0371 N   0  0  0  0  0  0  0  0  0  0  0  0
   -1.0346   -2.1061    0.5785 C   0  0  0  0  0  0  0  0  0  0  0  0
   -2.1273   -1.3185    0.2111 C   0  0  0  0  0  0  0  0  0  0  0  0
   -5.1659    2.6191   -0.1731 H   0  0  0  0  0  0  0  0  0  0  0  0
   -6.2765    1.3281   -0.8351 H   0  0  0  0  0  0  0  0  0  0  0  0
   -4.9013    1.9646   -1.8718 H   0  0  0  0  0  0  0  0  0  0  0  0
   -2.6237    1.6206   -1.2975 H   0  0  0  0  0  0  0  0  0  0  0  0
   -0.4185    1.4179   -0.6354 H   0  0  0  0  0  0  0  0  0  0  0  0
    2.0637   -0.5735   -1.9771 H   0  0  0  0  0  0  0  0  0  0  0  0
    4.3998    0.2577   -2.2018 H   0  0  0  0  0  0  0  0  0  0  0  0
    4.2088    1.7313    1.7799 H   0  0  0  0  0  0  0  0  0  0  0  0
    0.6418   -4.6869    1.6344 H   0  0  0  0  0  0  0  0  0  0  0  0
   -3.1027   -1.7723    0.2822 H   0  0  0  0  0  0  0  0  0  0  0  0
  1  2  1  0
  2  3  2  0
  2  4  1  0
  4  5  1  0
  5  6  1  0
  6  7  2  0
  7  8  1  0
  8  9  2  0
  9 10  1  0
 10 11  2  0
 11 12  1  0
 12 13  2  0
 13 14  1  0
 11 15  1  0
 15 16  3  0
  7 17  1  0
 17 18  1  0
 18 19  2  0
 19 20  1  0
 20 21  2  0
 21 22  1  0
 22  5  2  0
 13  8  1  0
 21 17  1  0
  1 23  1  0
  1 24  1  0
  1 25  1  0
  4 26  1  0
  6 27  1  0
  9 28  1  0
 10 29  1  0
 12 30  1  0
 19 31  1  0
 22 32  1  0
M  END
$$$$
[H]c1nc2c([H])c(N([H])[H])c([H])c(-c3c([H])c([H])c(C#N)c([H])c3C([H])([H])[H])n2n1
     RDKit          3D

 30 32  0  0  0  0  0  0  0  0999 V2000
    1.0551   -1.7360   -1.2396 C   0  0  0  0  0  0  0  0  0  0  0  0
    1.6145   -0.6407   -0.4170 C   0  0  0  0  0  0  0  0  0  0  0  0
    2.9879   -0.5925   -0.2509 C   0  0  0  0  0  0  0  0  0  0  0  0
    3.5719    0.4190    0.5152 C   0  0  0  0  0  0  0  0  0  0  0  0
    2.7952    1.3767    1.1125 C   0  0  0  0  0  0  0  0  0  0  0  0
    1.4398    1.3080    0.9337 C   0  0  0  0  0  0  0  0  0  0  0  0
    0.8292    0.3199    0.1814 C   0  0  0  0  0  0  0  0  0  0  0  0
   -0.6162    0.2824    0.0159 C   0  0  0  0  0  0  0  0  0  0  0  0
   -1.2817    0.9213   -1.0089 C   0  0  0  0  0  0  0  0  0  0  0  0
   -2.6496    0.8811   -1.1588 C   0  0  0  0  0  0  0  0  0  0  0  0
   -3.3188    1.5459   -2.2217 N   0  0  0  0  0  0  0  0  0  0  0  0
   -3.3631    0.1580   -0.2218 C   0  0  0  0  0  0  0  0  0  0  0  0
   -2.6903   -0.4837    0.8083 C   0  0  0  0  0  0  0  0  0  0  0  0
   -3.1473   -1.2392    1.8309 N   0  0  0  0  0  0  0  0  0  0  0  0
   -2.0798   -1.6384    2.5704 C   0  0  0  0  0  0  0  0  0  0  0  0
   -1.0041   -1.1217    1.9869 N   0  0  0  0  0  0  0  0  0  0  0  0
   -1.3412   -0.4140    0.9125 N   0  0  0  0  0  0  0  0  0  0  0  0
    4.9972    0.4615    0.6823 C   0  0  0  0  0  0  0  0  0  0  0  0
    6.1511    0.4797    0.8055 N   0  0  0  0  0  0  0  0  0  0  0  0
    1.7011   -1.8833   -2.1069 H   0  0  0  0  0  0  0  0  0  0  0  0
    0.0378   -1.5112   -1.6109 H   0  0  0  0  0  0  0  0  0  0  0  0
    1.0637   -2.6788   -0.6544 H   0  0  0  0  0  0  0  0  0  0  0  0
    3.6033   -1.3463   -0.7206 H   0  0  0  0  0  0  0  0  0  0  0  0
    3.2778    2.1436    1.6971 H   0  0  0  0  0  0  0  0  0  0  0  0
    0.8298    2.0534    1.3979 H   0  0  0  0  0  0  0  0  0  0  0  0
   -0.6886    1.4749   -1.7191 H   0  0  0  0  0  0  0  0  0  0  0  0
   -4.0904    1.0919   -2.7427 H   0  0  0  0  0  0  0  0  0  0  0  0
   -3.0454    2.5105   -2.5010 H   0  0  0  0  0  0  0  0  0  0  0  0
   -4.4385    0.1109   -0.3172 H   0  0  0  0  0  0  0  0  0  0  0  0
   -2.2002   -2.2532    3.4410 H   0  0  0  0  0  0  0  0  0  0  0  0
  1  2  1  0
  2  3  2  0
  3  4  1  0
  4  5  2  0
  5  6  1  0
  6  7  2  0
  7  8  1  0
  8  9  2  0
  9 10  1  0
 10 11  1  0
 10 12  2  0
 12 13  1  0
 13 14  2  0
 14 15  1  0
 15 16  2  0
 16 17  1  0
  4 18  1  0
 18 19  3  0
  7  2  1  0
 17  8  1  0
 17 13  1  0
  1 20  1  0
  1 21  1  0
  1 22  1  0
  3 23  1  0
  5 24  1  0
  6 25  1  0
  9 26  1  0
 11 27  1  0
 11 28  1  0
 12 29  1  0
 15 30  1  0
M  END
$$$$
[H]c1nc2c([H])c(N([H])C([H])([H])C([H])([H])C(F)(F)F)c([H])c(-c3c([H])c([H])c(C#N)c([H])c3[H])n2n1
     RDKit          3D

 36 38  0  0  0  0  0  0  0  0999 V2000
   -6.2619    1.3268    2.1154 F   0  0  0  0  0  0  0  0  0  0  0  0
   -5.1145    1.2553    1.3084 C   0  0  0  0  0  0  0  0  0  0  0  0
   -4.0764    1.5989    2.1288 F   0  0  0  0  0  0  0  0  0  0  0  0
   -5.2797    2.1541    0.2708 F   0  0  0  0  0  0  0  0  0  0  0  0
   -4.9294   -0.1045    0.7460 C   0  0  0  0  0  0  0  0  0  0  0  0
   -3.7590   -0.3215   -0.1348 C   0  0  0  0  0  0  0  0  0  0  0  0
   -2.4634   -0.1300    0.4444 N   0  0  0  0  0  0  0  0  0  0  0  0
   -1.2603   -0.2358   -0.3382 C   0  0  0  0  0  0  0  0  0  0  0  0
   -0.0456   -0.0454    0.2528 C   0  0  0  0  0  0  0  0  0  0  0  0
    1.1398   -0.1449   -0.4960 C   0  0  0  0  0  0  0  0  0  0  0  0
    2.4265    0.0339    0.1551 C   0  0  0  0  0  0  0  0  0  0  0  0
    3.5741    0.4883   -0.4331 C   0  0  0  0  0  0  0  0  0  0  0  0
    4.7810    0.6083    0.2621 C   0  0  0  0  0  0  0  0  0  0  0  0
    4.8576    0.2657    1.5939 C   0  0  0  0  0  0  0  0  0  0  0  0
    3.7201   -0.1934    2.2113 C   0  0  0  0  0  0  0  0  0  0  0  0
    2.5371   -0.3061    1.5103 C   0  0  0  0  0  0  0  0  0  0  0  0
    6.1134    0.3938    2.3057 C   0  0  0  0  0  0  0  0  0  0  0  0
    7.1050    0.4836    2.8785 N   0  0  0  0  0  0  0  0  0  0  0  0
    1.0753   -0.4343   -1.8240 N   0  0  0  0  0  0  0  0  0  0  0  0
    2.0149   -0.5840   -2.7086 N   0  0  0  0  0  0  0  0  0  0  0  0
    1.4553   -0.8709   -3.8842 C   0  0  0  0  0  0  0  0  0  0  0  0
    0.1269   -0.8995   -3.7205 N   0  0  0  0  0  0  0  0  0  0  0  0
   -0.1143   -0.6258   -2.4264 C   0  0  0  0  0  0  0  0  0  0  0  0
   -1.2796   -0.5243   -1.6742 C   0  0  0  0  0  0  0  0  0  0  0  0
   -4.9710   -0.8872    1.5474 H   0  0  0  0  0  0  0  0  0  0  0  0
   -5.8462   -0.3237    0.1159 H   0  0  0  0  0  0  0  0  0  0  0  0
   -3.7673   -1.3971   -0.4964 H   0  0  0  0  0  0  0  0  0  0  0  0
   -3.8902    0.2535   -1.0839 H   0  0  0  0  0  0  0  0  0  0  0  0
   -2.3664    0.0795    1.4520 H   0  0  0  0  0  0  0  0  0  0  0  0
    0.0053    0.1871    1.3029 H   0  0  0  0  0  0  0  0  0  0  0  0
    3.6171    0.7945   -1.4611 H   0  0  0  0  0  0  0  0  0  0  0  0
    5.6754    0.9694   -0.2239 H   0  0  0  0  0  0  0  0  0  0  0  0
    3.7900   -0.4606    3.2607 H   0  0  0  0  0  0  0  0  0  0  0  0
    1.6658   -0.6731    2.0242 H   0  0  0  0  0  0  0  0  0  0  0  0
    1.9701   -1.0522   -4.8194 H   0  0  0  0  0  0  0  0  0  0  0  0
   -2.2253   -0.6783   -2.1619 H   0  0  0  0  0  0  0  0  0  0  0  0
  1  2  1  0
  2  3  1  0
  2  4  1  0
  2  5  1  0
  5  6  1  0
  6  7  1  0
  7  8  1  0
  8  9  1  0
  9 10  2  0
 10 11  1  0
 11 12  2  0
 12 13  1  0
 13 14  2  0
 14 15  1  0
 15 16  2  0
 14 17  1  0
 17 18  3  0
 10 19  1  0
 19 20  1  0
 20 21  2  0
 21 22  1  0
 22 23  2  0
 23 24  1  0
 24  8  2  0
 16 11  1  0
 23 19  1  0
  5 25  1  0
  5 26  1  0
  6 27  1  0
  6 28  1  0
  7 29  1  0
  9 30  1  0
 12 31  1  0
 13 32  1  0
 15 33  1  0
 16 34  1  0
 21 35  1  0
 24 36  1  0
M  END
$$$$
[H]OC(=O)c1c([H])c([H])c(-c2c([H])c([H])c(N3C(=O)N(c4nc([H])nc(C(F)(F)F)c4[H])C4(C3=O)C([H])([H])C([H])([H])N(C([H])([H])c3nc([H])c([H])c([H])c3C([H])([H])[H])C([H])([H])C4([H])[H])c([H])c2[H])c(C([H])([H])[H])c1[H]
     RDKit          3D

 75 80  0  0  0  0  0  0  0  0999 V2000
   -8.0613   -1.1806    0.6463 C   0  0  0  0  0  0  0  0  0  0  0  0
   -7.1188   -2.3040    0.5342 C   0  0  0  0  0  0  0  0  0  0  0  0
   -7.5937   -3.5931    0.4282 C   0  0  0  0  0  0  0  0  0  0  0  0
   -6.7041   -4.6342    0.3219 C   0  0  0  0  0  0  0  0  0  0  0  0
   -5.3440   -4.3450    0.3273 C   0  0  0  0  0  0  0  0  0  0  0  0
   -4.9034   -3.0699    0.4323 N   0  0  0  0  0  0  0  0  0  0  0  0
   -5.7408   -2.0364    0.5358 C   0  0  0  0  0  0  0  0  0  0  0  0
   -5.3422   -0.6272    0.6588 C   0  0  0  0  0  0  0  0  0  0  0  0
   -3.9335   -0.3608    0.6427 N   0  0  0  0  0  0  0  0  0  0  0  0
   -3.3378   -0.6094   -0.6118 C   0  0  0  0  0  0  0  0  0  0  0  0
   -1.8589   -0.2981   -0.6417 C   0  0  0  0  0  0  0  0  0  0  0  0
   -1.4298    0.9116    0.0869 C   0  0  0  0  0  0  0  0  0  0  0  0
   -2.3874    1.4988    1.0794 C   0  0  0  0  0  0  0  0  0  0  0  0
   -3.7750    1.0268    1.0386 C   0  0  0  0  0  0  0  0  0  0  0  0
   -0.9469    1.9536   -0.8425 N   0  0  0  0  0  0  0  0  0  0  0  0
    0.4000    1.6037   -1.1365 C   0  0  0  0  0  0  0  0  0  0  0  0
    1.0292    2.0120   -2.1569 O   0  0  0  0  0  0  0  0  0  0  0  0
    0.8983    0.7445   -0.1291 N   0  0  0  0  0  0  0  0  0  0  0  0
   -0.1560    0.5649    0.7913 C   0  0  0  0  0  0  0  0  0  0  0  0
   -0.0238    0.1791    1.9879 O   0  0  0  0  0  0  0  0  0  0  0  0
    2.2194    0.1694   -0.0375 C   0  0  0  0  0  0  0  0  0  0  0  0
    2.4130   -1.1154    0.4016 C   0  0  0  0  0  0  0  0  0  0  0  0
    3.6741   -1.6357    0.5127 C   0  0  0  0  0  0  0  0  0  0  0  0
    4.7815   -0.8830    0.1849 C   0  0  0  0  0  0  0  0  0  0  0  0
    4.6192    0.4236   -0.2665 C   0  0  0  0  0  0  0  0  0  0  0  0
    3.3308    0.9169   -0.3647 C   0  0  0  0  0  0  0  0  0  0  0  0
    6.1243   -1.4332    0.2936 C   0  0  0  0  0  0  0  0  0  0  0  0
    6.4019   -2.6365   -0.3144 C   0  0  0  0  0  0  0  0  0  0  0  0
    7.6568   -3.2119   -0.2708 C   0  0  0  0  0  0  0  0  0  0  0  0
    8.6888   -2.5836    0.3958 C   0  0  0  0  0  0  0  0  0  0  0  0
    8.3994   -1.3872    0.9972 C   0  0  0  0  0  0  0  0  0  0  0  0
    7.1422   -0.7961    0.9640 C   0  0  0  0  0  0  0  0  0  0  0  0
    6.9409    0.5006    1.6721 C   0  0  0  0  0  0  0  0  0  0  0  0
   10.0204   -3.1796    0.4580 C   0  0  0  0  0  0  0  0  0  0  0  0
   10.2126   -4.4005   -0.1820 O   0  0  0  0  0  0  0  0  0  0  0  0
   10.9599   -2.5961    1.0773 O   0  0  0  0  0  0  0  0  0  0  0  0
   -1.6496    3.0744   -1.3491 C   0  0  0  0  0  0  0  0  0  0  0  0
   -1.2772    4.3801   -1.0753 C   0  0  0  0  0  0  0  0  0  0  0  0
   -1.9768    5.4594   -1.5789 C   0  0  0  0  0  0  0  0  0  0  0  0
   -3.0418    5.1632   -2.3516 N   0  0  0  0  0  0  0  0  0  0  0  0
   -3.4088    3.9153   -2.6238 C   0  0  0  0  0  0  0  0  0  0  0  0
   -2.7218    2.8697   -2.1283 N   0  0  0  0  0  0  0  0  0  0  0  0
   -1.5935    6.8655   -1.3021 C   0  0  0  0  0  0  0  0  0  0  0  0
   -0.2238    6.9741   -1.0473 F   0  0  0  0  0  0  0  0  0  0  0  0
   -2.3085    7.3660   -0.2443 F   0  0  0  0  0  0  0  0  0  0  0  0
   -1.8540    7.6089   -2.4181 F   0  0  0  0  0  0  0  0  0  0  0  0
   -7.9809   -0.4338   -0.1377 H   0  0  0  0  0  0  0  0  0  0  0  0
   -7.8754   -0.6394    1.6260 H   0  0  0  0  0  0  0  0  0  0  0  0
   -9.1114   -1.5518    0.7203 H   0  0  0  0  0  0  0  0  0  0  0  0
   -8.6512   -3.8202    0.4297 H   0  0  0  0  0  0  0  0  0  0  0  0
   -7.0005   -5.6820    0.2418 H   0  0  0  0  0  0  0  0  0  0  0  0
   -4.6506   -5.1904    0.2505 H   0  0  0  0  0  0  0  0  0  0  0  0
   -5.7990   -0.0232   -0.1840 H   0  0  0  0  0  0  0  0  0  0  0  0
   -5.8140   -0.1366    1.5714 H   0  0  0  0  0  0  0  0  0  0  0  0
   -3.8251   -0.0263   -1.4458 H   0  0  0  0  0  0  0  0  0  0  0  0
   -3.4323   -1.6504   -0.9205 H   0  0  0  0  0  0  0  0  0  0  0  0
   -1.3110   -1.1944   -0.3219 H   0  0  0  0  0  0  0  0  0  0  0  0
   -1.5971   -0.1715   -1.7337 H   0  0  0  0  0  0  0  0  0  0  0  0
   -1.9844    1.2967    2.1073 H   0  0  0  0  0  0  0  0  0  0  0  0
   -2.4017    2.6187    0.9068 H   0  0  0  0  0  0  0  0  0  0  0  0
   -4.2003    1.0665    2.0762 H   0  0  0  0  0  0  0  0  0  0  0  0
   -4.4630    1.6557    0.4225 H   0  0  0  0  0  0  0  0  0  0  0  0
    1.5363   -1.7283    0.6658 H   0  0  0  0  0  0  0  0  0  0  0  0
    3.7894   -2.6556    0.8617 H   0  0  0  0  0  0  0  0  0  0  0  0
    5.4727    1.0364   -0.5346 H   0  0  0  0  0  0  0  0  0  0  0  0
    3.2380    1.9446   -0.7167 H   0  0  0  0  0  0  0  0  0  0  0  0
    5.6279   -3.1765   -0.8632 H   0  0  0  0  0  0  0  0  0  0  0  0
    7.8742   -4.1661   -0.7460 H   0  0  0  0  0  0  0  0  0  0  0  0
    9.2322   -0.8934    1.5226 H   0  0  0  0  0  0  0  0  0  0  0  0
    7.1691    1.3839    1.0634 H   0  0  0  0  0  0  0  0  0  0  0  0
    5.9051    0.5666    2.0461 H   0  0  0  0  0  0  0  0  0  0  0  0
    7.5779    0.5210    2.5834 H   0  0  0  0  0  0  0  0  0  0  0  0
   10.1357   -4.5194   -1.1864 H   0  0  0  0  0  0  0  0  0  0  0  0
   -0.4082    4.5679   -0.4483 H   0  0  0  0  0  0  0  0  0  0  0  0
   -4.2518    3.7370   -3.2526 H   0  0  0  0  0  0  0  0  0  0  0  0
  1  2  1  0
  2  3  2  0
  3  4  1  0
  4  5  2  0
  5  6  1  0
  6  7  2  0
  7  8  1  0
  8  9  1  0
  9 10  1  0
 10 11  1  0
 11 12  1  0
 12 13  1  0
 13 14  1  0
 12 15  1  0
 15 16  1  0
 16 17  2  0
 16 18  1  0
 18 19  1  0
 19 20  2  0
 18 21  1  0
 21 22  2  0
 22 23  1  0
 23 24  2  0
 24 25  1  0
 25 26  2  0
 24 27  1  0
 27 28  2  0
 28 29  1  0
 29 30  2  0
 30 31  1  0
 31 32  2  0
 32 33  1  0
 30 34  1  0
 34 35  1  0
 34 36  2  0
 15 37  1  0
 37 38  2  0
 38 39  1  0
 39 40  2  0
 40 41  1  0
 41 42  2  0
 39 43  1  0
 43 44  1  0
 43 45  1  0
 43 46  1  0
  7  2  1  0
 14  9  1  0
 26 21  1  0
 32 27  1  0
 42 37  1  0
 19 12  1  0
  1 47  1  0
  1 48  1  0
  1 49  1  0
  3 50  1  0
  4 51  1  0
  5 52  1  0
  8 53  1  0
  8 54  1  0
 10 55  1  0
 10 56  1  0
 11 57  1  0
 11 58  1  0
 13 59  1  0
 13 60  1  0
 14 61  1  0
 14 62  1  0
 22 63  1  0
 23 64  1  0
 25 65  1  0
 26 66  1  0
 28 67  1  0
 29 68  1  0
 31 69  1  0
 33 70  1  0
 33 71  1  0
 33 72  1  0
 35 73  1  0
 38 74  1  0
 41 75  1  0
M  END
$$$$
[H]c1nc2c([H])c([H])c([H])c(-c3c([H])c([H])c(C#N)c(F)c3[H])n2n1
     RDKit          3D

 25 27  0  0  0  0  0  0  0  0999 V2000
    3.2802   -2.1168    1.0274 F   0  0  0  0  0  0  0  0  0  0  0  0
    2.7124   -1.0455    0.4194 C   0  0  0  0  0  0  0  0  0  0  0  0
    1.3270   -0.9136    0.5668 C   0  0  0  0  0  0  0  0  0  0  0  0
    0.6580    0.1362   -0.0106 C   0  0  0  0  0  0  0  0  0  0  0  0
    1.4633    1.0310   -0.7347 C   0  0  0  0  0  0  0  0  0  0  0  0
    2.8218    0.8914   -0.8719 C   0  0  0  0  0  0  0  0  0  0  0  0
    3.4681   -0.1604   -0.2898 C   0  0  0  0  0  0  0  0  0  0  0  0
    4.8801   -0.3717   -0.3892 C   0  0  0  0  0  0  0  0  0  0  0  0
    6.0195   -0.5372   -0.4744 N   0  0  0  0  0  0  0  0  0  0  0  0
   -0.7534    0.3554    0.0487 C   0  0  0  0  0  0  0  0  0  0  0  0
   -1.2444    1.6499   -0.1553 C   0  0  0  0  0  0  0  0  0  0  0  0
   -2.6088    1.9404   -0.1389 C   0  0  0  0  0  0  0  0  0  0  0  0
   -3.4772    0.9254    0.0835 C   0  0  0  0  0  0  0  0  0  0  0  0
   -3.0218   -0.3364    0.2837 C   0  0  0  0  0  0  0  0  0  0  0  0
   -3.6806   -1.4999    0.5156 N   0  0  0  0  0  0  0  0  0  0  0  0
   -2.7612   -2.4733    0.6374 C   0  0  0  0  0  0  0  0  0  0  0  0
   -1.5880   -1.8547    0.4738 N   0  0  0  0  0  0  0  0  0  0  0  0
   -1.6944   -0.5752    0.2598 N   0  0  0  0  0  0  0  0  0  0  0  0
    0.7680   -1.6192    1.1381 H   0  0  0  0  0  0  0  0  0  0  0  0
    1.0436    1.8926   -1.2407 H   0  0  0  0  0  0  0  0  0  0  0  0
    3.4149    1.6092   -1.4435 H   0  0  0  0  0  0  0  0  0  0  0  0
   -0.5732    2.4757   -0.3253 H   0  0  0  0  0  0  0  0  0  0  0  0
   -2.9272    2.9805   -0.3069 H   0  0  0  0  0  0  0  0  0  0  0  0
   -4.5452    1.1340    0.0999 H   0  0  0  0  0  0  0  0  0  0  0  0
   -2.9813   -3.5179    0.8272 H   0  0  0  0  0  0  0  0  0  0  0  0
  1  2  1  0
  2  3  2  0
  3  4  1  0
  4  5  2  0
  5  6  1  0
  6  7  2  0
  7  8  1  0
  8  9  3  0
  4 10  1  0
 10 11  2  0
 11 12  1  0
 12 13  2  0
 13 14  1  0
 14 15  2  0
 15 16  1  0
 16 17  2  0
 17 18  1  0
  7  2  1  0
 18 10  1  0
 18 14  1  0
  3 19  1  0
  5 20  1  0
  6 21  1  0
 11 22  1  0
 12 23  1  0
 13 24  1  0
 16 25  1  0
M  END
$$$$
[H]c1nc(C([H])([H])N2C([H])([H])C([H])([H])C3(C(=O)N(c4c([H])c([H])c(-c5c([H])c([H])c(N6C([H])([H])C([H])([H])OC([H])([H])C6([H])[H])c([H])c5[H])c([H])c4[H])C(=O)N3c3nc([H])n([H])c(=O)c3[H])C([H])([H])C2([H])[H])c(C([H])([H])[H])c([H])c1[H]
     RDKit          3D

 80 86  0  0  0  0  0  0  0  0999 V2000
   -5.0321    4.0259    1.9104 C   0  0  0  0  0  0  0  0  0  0  0  0
   -5.8229    3.7159    0.6899 C   0  0  0  0  0  0  0  0  0  0  0  0
   -6.4356    4.7119   -0.0349 C   0  0  0  0  0  0  0  0  0  0  0  0
   -7.1688    4.4119   -1.1563 C   0  0  0  0  0  0  0  0  0  0  0  0
   -7.2575    3.0912   -1.5116 C   0  0  0  0  0  0  0  0  0  0  0  0
   -6.6412    2.1257   -0.7773 N   0  0  0  0  0  0  0  0  0  0  0  0
   -5.9197    2.3681    0.3189 C   0  0  0  0  0  0  0  0  0  0  0  0
   -5.2521    1.3241    1.1164 C   0  0  0  0  0  0  0  0  0  0  0  0
   -5.4383   -0.0193    0.6447 N   0  0  0  0  0  0  0  0  0  0  0  0
   -4.7962   -0.9391    1.5486 C   0  0  0  0  0  0  0  0  0  0  0  0
   -3.3732   -1.1407    1.1640 C   0  0  0  0  0  0  0  0  0  0  0  0
   -3.2569   -1.6968   -0.2089 C   0  0  0  0  0  0  0  0  0  0  0  0
   -4.5245   -1.5701   -1.0173 C   0  0  0  0  0  0  0  0  0  0  0  0
   -5.1645   -0.2217   -0.7286 C   0  0  0  0  0  0  0  0  0  0  0  0
   -2.7645   -3.0515   -0.1793 N   0  0  0  0  0  0  0  0  0  0  0  0
   -1.3539   -2.9052    0.0690 C   0  0  0  0  0  0  0  0  0  0  0  0
   -0.6286   -3.7922    0.6069 O   0  0  0  0  0  0  0  0  0  0  0  0
   -0.9362   -1.6035   -0.3924 N   0  0  0  0  0  0  0  0  0  0  0  0
   -2.1150   -0.9988   -0.9037 C   0  0  0  0  0  0  0  0  0  0  0  0
   -2.1732   -0.0833   -1.7499 O   0  0  0  0  0  0  0  0  0  0  0  0
    0.3817   -1.0932   -0.3446 C   0  0  0  0  0  0  0  0  0  0  0  0
    0.9878   -0.8403    0.8519 C   0  0  0  0  0  0  0  0  0  0  0  0
    2.3045   -0.3521    0.9048 C   0  0  0  0  0  0  0  0  0  0  0  0
    2.9921   -0.1264   -0.2722 C   0  0  0  0  0  0  0  0  0  0  0  0
    2.3666   -0.3859   -1.4745 C   0  0  0  0  0  0  0  0  0  0  0  0
    1.0599   -0.8693   -1.5153 C   0  0  0  0  0  0  0  0  0  0  0  0
    4.3583    0.3641   -0.1970 C   0  0  0  0  0  0  0  0  0  0  0  0
    4.8352    1.1906    0.7940 C   0  0  0  0  0  0  0  0  0  0  0  0
    6.1543    1.6358    0.8459 C   0  0  0  0  0  0  0  0  0  0  0  0
    7.0419    1.2436   -0.1295 C   0  0  0  0  0  0  0  0  0  0  0  0
    6.5723    0.4109   -1.1342 C   0  0  0  0  0  0  0  0  0  0  0  0
    5.2722   -0.0197   -1.1733 C   0  0  0  0  0  0  0  0  0  0  0  0
    8.3852    1.6811   -0.0908 N   0  0  0  0  0  0  0  0  0  0  0  0
    9.4204    1.1212   -0.9433 C   0  0  0  0  0  0  0  0  0  0  0  0
   10.6874    0.9384   -0.1230 C   0  0  0  0  0  0  0  0  0  0  0  0
   11.0660    2.0727    0.5506 O   0  0  0  0  0  0  0  0  0  0  0  0
   10.2020    3.1460    0.3482 C   0  0  0  0  0  0  0  0  0  0  0  0
    8.8010    2.7299    0.8156 C   0  0  0  0  0  0  0  0  0  0  0  0
   -3.3800   -4.3092   -0.3550 C   0  0  0  0  0  0  0  0  0  0  0  0
   -4.3771   -4.7456    0.4810 C   0  0  0  0  0  0  0  0  0  0  0  0
   -4.9685   -5.9751    0.2957 C   0  0  0  0  0  0  0  0  0  0  0  0
   -5.8752   -6.3725    1.0549 O   0  0  0  0  0  0  0  0  0  0  0  0
   -4.5668   -6.7516   -0.7108 N   0  0  0  0  0  0  0  0  0  0  0  0
   -3.5948   -6.3575   -1.5489 C   0  0  0  0  0  0  0  0  0  0  0  0
   -3.0201   -5.1565   -1.3633 N   0  0  0  0  0  0  0  0  0  0  0  0
   -5.4969    3.4473    2.7563 H   0  0  0  0  0  0  0  0  0  0  0  0
   -3.9510    3.7458    1.8054 H   0  0  0  0  0  0  0  0  0  0  0  0
   -5.0426    5.1133    2.1057 H   0  0  0  0  0  0  0  0  0  0  0  0
   -6.3185    5.7299    0.3135 H   0  0  0  0  0  0  0  0  0  0  0  0
   -7.6611    5.1689   -1.7473 H   0  0  0  0  0  0  0  0  0  0  0  0
   -7.8397    2.8524   -2.4010 H   0  0  0  0  0  0  0  0  0  0  0  0
   -4.1387    1.5221    1.1111 H   0  0  0  0  0  0  0  0  0  0  0  0
   -5.5245    1.4269    2.2033 H   0  0  0  0  0  0  0  0  0  0  0  0
   -5.3606   -1.8745    1.5327 H   0  0  0  0  0  0  0  0  0  0  0  0
   -4.8568   -0.4415    2.5663 H   0  0  0  0  0  0  0  0  0  0  0  0
   -2.8457   -1.8018    1.8922 H   0  0  0  0  0  0  0  0  0  0  0  0
   -2.8435   -0.1635    1.2256 H   0  0  0  0  0  0  0  0  0  0  0  0
   -4.3368   -1.6029   -2.0934 H   0  0  0  0  0  0  0  0  0  0  0  0
   -5.2308   -2.3570   -0.6908 H   0  0  0  0  0  0  0  0  0  0  0  0
   -4.5616    0.5717   -1.1789 H   0  0  0  0  0  0  0  0  0  0  0  0
   -6.1507   -0.2682   -1.2848 H   0  0  0  0  0  0  0  0  0  0  0  0
    0.4685   -1.0076    1.7713 H   0  0  0  0  0  0  0  0  0  0  0  0
    2.7650   -0.1586    1.8523 H   0  0  0  0  0  0  0  0  0  0  0  0
    2.8859   -0.2191   -2.3927 H   0  0  0  0  0  0  0  0  0  0  0  0
    0.5952   -1.0648   -2.4730 H   0  0  0  0  0  0  0  0  0  0  0  0
    4.1442    1.4912    1.5496 H   0  0  0  0  0  0  0  0  0  0  0  0
    6.5043    2.2856    1.6388 H   0  0  0  0  0  0  0  0  0  0  0  0
    7.2568    0.1067   -1.9041 H   0  0  0  0  0  0  0  0  0  0  0  0
    4.9525   -0.6682   -1.9759 H   0  0  0  0  0  0  0  0  0  0  0  0
    9.1592    0.1008   -1.3011 H   0  0  0  0  0  0  0  0  0  0  0  0
    9.5755    1.8109   -1.7844 H   0  0  0  0  0  0  0  0  0  0  0  0
   11.4827    0.6765   -0.8511 H   0  0  0  0  0  0  0  0  0  0  0  0
   10.5295    0.0780    0.5618 H   0  0  0  0  0  0  0  0  0  0  0  0
   10.1845    3.4447   -0.7278 H   0  0  0  0  0  0  0  0  0  0  0  0
   10.5312    3.9731    0.9713 H   0  0  0  0  0  0  0  0  0  0  0  0
    8.1250    3.6074    0.8116 H   0  0  0  0  0  0  0  0  0  0  0  0
    8.9385    2.3649    1.8538 H   0  0  0  0  0  0  0  0  0  0  0  0
   -4.6903   -4.0979    1.3051 H   0  0  0  0  0  0  0  0  0  0  0  0
   -5.0022   -7.7004   -0.8734 H   0  0  0  0  0  0  0  0  0  0  0  0
   -3.2979   -7.0240   -2.3554 H   0  0  0  0  0  0  0  0  0  0  0  0
  1  2  1  0
  2  3  2  0
  3  4  1  0
  4  5  2  0
  5  6  1  0
  6  7  2  0
  7  8  1  0
  8  9  1  0
  9 10  1  0
 10 11  1  0
 11 12  1  0
 12 13  1  0
 13 14  1  0
 12 15  1  0
 15 16  1  0
 16 17  2  0
 16 18  1  0
 18 19  1  0
 19 20  2  0
 18 21  1  0
 21 22  2  0
 22 23  1  0
 23 24  2  0
 24 25  1  0
 25 26  2  0
 24 27  1  0
 27 28  2  0
 28 29  1  0
 29 30  2  0
 30 31  1  0
 31 32  2  0
 30 33  1  0
 33 34  1  0
 34 35  1  0
 35 36  1  0
 36 37  1  0
 37 38  1  0
 15 39  1  0
 39 40  2  0
 40 41  1  0
 41 42  2  0
 41 43  1  0
 43 44  1  0
 44 45  2  0
  7  2  1  0
 14  9  1  0
 26 21  1  0
 32 27  1  0
 38 33  1  0
 45 39  1  0
 19 12  1  0
  1 46  1  0
  1 47  1  0
  1 48  1  0
  3 49  1  0
  4 50  1  0
  5 51  1  0
  8 52  1  0
  8 53  1  0
 10 54  1  0
 10 55  1  0
 11 56  1  0
 11 57  1  0
 13 58  1  0
 13 59  1  0
 14 60  1  0
 14 61  1  0
 22 62  1  0
 23 63  1  0
 25 64  1  0
 26 65  1  0
 28 66  1  0
 29 67  1  0
 31 68  1  0
 32 69  1  0
 34 70  1  0
 34 71  1  0
 35 72  1  0
 35 73  1  0
 37 74  1  0
 37 75  1  0
 38 76  1  0
 38 77  1  0
 40 78  1  0
 43 79  1  0
 44 80  1  0
M  END
$$$$
[H]OC(=O)c1c([H])c([H])c(-c2c([H])c([H])c(N3C(=O)N(c4nc([H])n([H])c(=O)c4[H])C4(C3=O)C([H])([H])C([H])([H])N(C([H])([H])c3nc([H])c([H])c([H])c3C([H])([H])[H])C([H])([H])C4([H])[H])c([H])c2[H])c([H])c1[H]
     RDKit          3D

 70 75  0  0  0  0  0  0  0  0999 V2000
   -7.6690    0.7076    0.5831 C   0  0  0  0  0  0  0  0  0  0  0  0
   -6.8352    1.5886   -0.2611 C   0  0  0  0  0  0  0  0  0  0  0  0
   -7.4212    2.5440   -1.0465 C   0  0  0  0  0  0  0  0  0  0  0  0
   -6.6742    3.3680   -1.8382 C   0  0  0  0  0  0  0  0  0  0  0  0
   -5.3128    3.2178   -1.8312 C   0  0  0  0  0  0  0  0  0  0  0  0
   -4.7746    2.2820   -1.0590 N   0  0  0  0  0  0  0  0  0  0  0  0
   -5.4503    1.4529   -0.2690 C   0  0  0  0  0  0  0  0  0  0  0  0
   -4.8814    0.4388    0.6188 C   0  0  0  0  0  0  0  0  0  0  0  0
   -3.4395    0.3158    0.5350 N   0  0  0  0  0  0  0  0  0  0  0  0
   -2.9899   -0.5224    1.6432 C   0  0  0  0  0  0  0  0  0  0  0  0
   -2.1872   -1.6987    1.2402 C   0  0  0  0  0  0  0  0  0  0  0  0
   -1.1310   -1.4198    0.2354 C   0  0  0  0  0  0  0  0  0  0  0  0
   -1.6886   -0.6015   -0.9093 C   0  0  0  0  0  0  0  0  0  0  0  0
   -3.1715   -0.3844   -0.7223 C   0  0  0  0  0  0  0  0  0  0  0  0
   -0.4562   -2.5993   -0.2368 N   0  0  0  0  0  0  0  0  0  0  0  0
    0.9157   -2.2385   -0.4831 C   0  0  0  0  0  0  0  0  0  0  0  0
    1.7529   -2.9092   -1.1640 O   0  0  0  0  0  0  0  0  0  0  0  0
    1.2055   -1.0026    0.1554 N   0  0  0  0  0  0  0  0  0  0  0  0
   -0.0026   -0.6124    0.7967 C   0  0  0  0  0  0  0  0  0  0  0  0
   -0.0410    0.2776    1.6861 O   0  0  0  0  0  0  0  0  0  0  0  0
    2.4558   -0.2888    0.1496 C   0  0  0  0  0  0  0  0  0  0  0  0
    3.1119    0.0791    1.3030 C   0  0  0  0  0  0  0  0  0  0  0  0
    4.3061    0.7685    1.2524 C   0  0  0  0  0  0  0  0  0  0  0  0
    4.9029    1.1238    0.0611 C   0  0  0  0  0  0  0  0  0  0  0  0
    4.2592    0.7625   -1.1012 C   0  0  0  0  0  0  0  0  0  0  0  0
    3.0529    0.0659   -1.0421 C   0  0  0  0  0  0  0  0  0  0  0  0
    6.1702    1.8635    0.0843 C   0  0  0  0  0  0  0  0  0  0  0  0
    7.1002    1.6880    1.0855 C   0  0  0  0  0  0  0  0  0  0  0  0
    8.2831    2.3732    1.1257 C   0  0  0  0  0  0  0  0  0  0  0  0
    8.5561    3.2778    0.1211 C   0  0  0  0  0  0  0  0  0  0  0  0
    7.6307    3.4710   -0.9011 C   0  0  0  0  0  0  0  0  0  0  0  0
    6.4471    2.7593   -0.9055 C   0  0  0  0  0  0  0  0  0  0  0  0
    9.7960    4.0442    0.1021 C   0  0  0  0  0  0  0  0  0  0  0  0
   10.0793    4.9514   -0.8908 O   0  0  0  0  0  0  0  0  0  0  0  0
   10.6182    3.8567    1.0296 O   0  0  0  0  0  0  0  0  0  0  0  0
   -0.9340   -3.9194   -0.4751 C   0  0  0  0  0  0  0  0  0  0  0  0
   -1.4003   -4.7429    0.5064 C   0  0  0  0  0  0  0  0  0  0  0  0
   -1.8364   -6.0049    0.1590 C   0  0  0  0  0  0  0  0  0  0  0  0
   -2.2645   -6.7430    1.1011 O   0  0  0  0  0  0  0  0  0  0  0  0
   -1.8185   -6.4525   -1.1119 N   0  0  0  0  0  0  0  0  0  0  0  0
   -1.3555   -5.6327   -2.0793 C   0  0  0  0  0  0  0  0  0  0  0  0
   -0.9380   -4.4254   -1.7489 N   0  0  0  0  0  0  0  0  0  0  0  0
   -8.6846    1.1762    0.7215 H   0  0  0  0  0  0  0  0  0  0  0  0
   -7.8925   -0.2702    0.0770 H   0  0  0  0  0  0  0  0  0  0  0  0
   -7.1908    0.5697    1.5703 H   0  0  0  0  0  0  0  0  0  0  0  0
   -8.4966    2.6660   -1.0562 H   0  0  0  0  0  0  0  0  0  0  0  0
   -7.1541    4.1001   -2.4369 H   0  0  0  0  0  0  0  0  0  0  0  0
   -4.7350    3.8852   -2.4693 H   0  0  0  0  0  0  0  0  0  0  0  0
   -5.3559   -0.5586    0.3703 H   0  0  0  0  0  0  0  0  0  0  0  0
   -5.1561    0.5992    1.6881 H   0  0  0  0  0  0  0  0  0  0  0  0
   -3.8891   -0.8994    2.1872 H   0  0  0  0  0  0  0  0  0  0  0  0
   -2.4697    0.1243    2.4125 H   0  0  0  0  0  0  0  0  0  0  0  0
   -1.7589   -2.1580    2.1717 H   0  0  0  0  0  0  0  0  0  0  0  0
   -2.8813   -2.4689    0.8036 H   0  0  0  0  0  0  0  0  0  0  0  0
   -1.5251   -1.1608   -1.8371 H   0  0  0  0  0  0  0  0  0  0  0  0
   -1.2114    0.3915   -1.0129 H   0  0  0  0  0  0  0  0  0  0  0  0
   -3.7047   -1.3507   -0.6714 H   0  0  0  0  0  0  0  0  0  0  0  0
   -3.5213    0.2405   -1.5460 H   0  0  0  0  0  0  0  0  0  0  0  0
    2.6661   -0.1884    2.2527 H   0  0  0  0  0  0  0  0  0  0  0  0
    4.8252    1.0599    2.1743 H   0  0  0  0  0  0  0  0  0  0  0  0
    4.7083    1.0307   -2.0429 H   0  0  0  0  0  0  0  0  0  0  0  0
    2.5305   -0.2283   -1.9450 H   0  0  0  0  0  0  0  0  0  0  0  0
    6.8761    0.9674    1.8795 H   0  0  0  0  0  0  0  0  0  0  0  0
    8.9946    2.2000    1.9462 H   0  0  0  0  0  0  0  0  0  0  0  0
    7.8607    4.1848   -1.6821 H   0  0  0  0  0  0  0  0  0  0  0  0
    5.7599    2.9461   -1.7230 H   0  0  0  0  0  0  0  0  0  0  0  0
   10.3658    5.9028   -0.6136 H   0  0  0  0  0  0  0  0  0  0  0  0
   -1.4215   -4.4022    1.5422 H   0  0  0  0  0  0  0  0  0  0  0  0
   -2.1556   -7.4124   -1.3430 H   0  0  0  0  0  0  0  0  0  0  0  0
   -1.3536   -6.0262   -3.0963 H   0  0  0  0  0  0  0  0  0  0  0  0
  1  2  1  0
  2  3  2  0
  3  4  1  0
  4  5  2  0
  5  6  1  0
  6  7  2  0
  7  8  1  0
  8  9  1  0
  9 10  1  0
 10 11  1  0
 11 12  1  0
 12 13  1  0
 13 14  1  0
 12 15  1  0
 15 16  1  0
 16 17  2  0
 16 18  1  0
 18 19  1  0
 19 20  2  0
 18 21  1  0
 21 22  2  0
 22 23  1  0
 23 24  2  0
 24 25  1  0
 25 26  2  0
 24 27  1  0
 27 28  2  0
 28 29  1  0
 29 30  2  0
 30 31  1  0
 31 32  2  0
 30 33  1  0
 33 34  1  0
 33 35  2  0
 15 36  1  0
 36 37  2  0
 37 38  1  0
 38 39  2  0
 38 40  1  0
 40 41  1  0
 41 42  2  0
  7  2  1  0
 14  9  1  0
 26 21  1  0
 32 27  1  0
 42 36  1  0
 19 12  1  0
  1 43  1  0
  1 44  1  0
  1 45  1  0
  3 46  1  0
  4 47  1  0
  5 48  1  0
  8 49  1  0
  8 50  1  0
 10 51  1  0
 10 52  1  0
 11 53  1  0
 11 54  1  0
 13 55  1  0
 13 56  1  0
 14 57  1  0
 14 58  1  0
 22 59  1  0
 23 60  1  0
 25 61  1  0
 26 62  1  0
 28 63  1  0
 29 64  1  0
 31 65  1  0
 32 66  1  0
 34 67  1  0
 37 68  1  0
 40 69  1  0
 41 70  1  0
M  END
$$$$
[H]c1nc2c([H])c(SC([H])([H])c3c([H])c([H])c([H])c([H])c3[H])c([H])c(-c3c([H])c([H])c(C#N)c([H])c3[H])n2n1
     RDKit          3D

 39 42  0  0  0  0  0  0  0  0999 V2000
    7.4804    0.5381    3.1821 N   0  0  0  0  0  0  0  0  0  0  0  0
    6.5277    0.4735    2.5073 C   0  0  0  0  0  0  0  0  0  0  0  0
    5.3698    0.4024    1.6593 C   0  0  0  0  0  0  0  0  0  0  0  0
    4.9469    1.4885    0.9391 C   0  0  0  0  0  0  0  0  0  0  0  0
    3.8447    1.4689    0.1142 C   0  0  0  0  0  0  0  0  0  0  0  0
    3.1017    0.3166   -0.0213 C   0  0  0  0  0  0  0  0  0  0  0  0
    3.5134   -0.7937    0.6994 C   0  0  0  0  0  0  0  0  0  0  0  0
    4.6232   -0.7636    1.5261 C   0  0  0  0  0  0  0  0  0  0  0  0
    1.9260    0.2426   -0.8816 C   0  0  0  0  0  0  0  0  0  0  0  0
    0.6838    0.5480   -0.3617 C   0  0  0  0  0  0  0  0  0  0  0  0
   -0.4170    0.4737   -1.1862 C   0  0  0  0  0  0  0  0  0  0  0  0
   -2.0145    0.8709   -0.5005 S   0  0  0  0  0  0  0  0  0  0  0  0
   -2.7416   -0.6548    0.1603 C   0  0  0  0  0  0  0  0  0  0  0  0
   -4.0820   -0.4026    0.7523 C   0  0  0  0  0  0  0  0  0  0  0  0
   -4.2691   -0.0655    2.0768 C   0  0  0  0  0  0  0  0  0  0  0  0
   -5.5271    0.1647    2.6058 C   0  0  0  0  0  0  0  0  0  0  0  0
   -6.6528    0.0638    1.8163 C   0  0  0  0  0  0  0  0  0  0  0  0
   -6.4740   -0.2729    0.4908 C   0  0  0  0  0  0  0  0  0  0  0  0
   -5.2189   -0.5019   -0.0343 C   0  0  0  0  0  0  0  0  0  0  0  0
   -0.3059    0.1039   -2.5089 C   0  0  0  0  0  0  0  0  0  0  0  0
    0.9532   -0.1925   -2.9871 C   0  0  0  0  0  0  0  0  0  0  0  0
    1.3612   -0.5763   -4.2142 N   0  0  0  0  0  0  0  0  0  0  0  0
    2.6871   -0.7457   -4.1858 C   0  0  0  0  0  0  0  0  0  0  0  0
    3.0704   -0.4598   -2.9299 N   0  0  0  0  0  0  0  0  0  0  0  0
    2.0435   -0.1213   -2.1792 N   0  0  0  0  0  0  0  0  0  0  0  0
    5.4995    2.4124    1.0153 H   0  0  0  0  0  0  0  0  0  0  0  0
    3.5759    2.3642   -0.4193 H   0  0  0  0  0  0  0  0  0  0  0  0
    2.9110   -1.6988    0.5788 H   0  0  0  0  0  0  0  0  0  0  0  0
    4.9197   -1.6470    2.0762 H   0  0  0  0  0  0  0  0  0  0  0  0
    0.5705    0.8464    0.6940 H   0  0  0  0  0  0  0  0  0  0  0  0
   -2.0508   -1.0279    0.9623 H   0  0  0  0  0  0  0  0  0  0  0  0
   -2.7919   -1.4385   -0.5992 H   0  0  0  0  0  0  0  0  0  0  0  0
   -3.3834    0.0163    2.7078 H   0  0  0  0  0  0  0  0  0  0  0  0
   -5.6504    0.4279    3.6475 H   0  0  0  0  0  0  0  0  0  0  0  0
   -7.6550    0.2399    2.2077 H   0  0  0  0  0  0  0  0  0  0  0  0
   -7.3817   -0.3482   -0.1206 H   0  0  0  0  0  0  0  0  0  0  0  0
   -5.1026   -0.7691   -1.0948 H   0  0  0  0  0  0  0  0  0  0  0  0
   -1.1870    0.0453   -3.1653 H   0  0  0  0  0  0  0  0  0  0  0  0
    3.2960   -1.0534   -5.0294 H   0  0  0  0  0  0  0  0  0  0  0  0
  1  2  3  0
  2  3  1  0
  3  4  2  0
  4  5  1  0
  5  6  2  0
  6  7  1  0
  7  8  2  0
  6  9  1  0
  9 10  2  0
 10 11  1  0
 11 12  1  0
 12 13  1  0
 13 14  1  0
 14 15  2  0
 15 16  1  0
 16 17  2  0
 17 18  1  0
 18 19  2  0
 11 20  2  0
 20 21  1  0
 21 22  2  0
 22 23  1  0
 23 24  2  0
 24 25  1  0
  8  3  1  0
 25  9  1  0
 19 14  1  0
 25 21  1  0
  4 26  1  0
  5 27  1  0
  7 28  1  0
  8 29  1  0
 10 30  1  0
 13 31  1  0
 13 32  1  0
 15 33  1  0
 16 34  1  0
 17 35  1  0
 18 36  1  0
 19 37  1  0
 20 38  1  0
 23 39  1  0
M  END
$$$$
[H]OC([H])([H])C(=O)N([H])c1c([H])c(-c2c([H])c([H])c(C#N)c([H])c2C([H])([H])[H])n2nc([H])nc2c1[H]
     RDKit          3D

 36 38  0  0  0  0  0  0  0  0999 V2000
   -2.1498   -0.0829    1.8801 C   0  0  0  0  0  0  0  0  0  0  0  0
   -2.6147    0.3651    0.5623 C   0  0  0  0  0  0  0  0  0  0  0  0
   -3.8876    0.9395    0.4650 C   0  0  0  0  0  0  0  0  0  0  0  0
   -4.3598    1.3728   -0.7568 C   0  0  0  0  0  0  0  0  0  0  0  0
   -3.5697    1.2318   -1.8563 C   0  0  0  0  0  0  0  0  0  0  0  0
   -2.2964    0.6571   -1.7584 C   0  0  0  0  0  0  0  0  0  0  0  0
   -1.8250    0.2252   -0.5424 C   0  0  0  0  0  0  0  0  0  0  0  0
   -0.5059   -0.3746   -0.4169 C   0  0  0  0  0  0  0  0  0  0  0  0
    0.6171    0.3735   -0.1586 C   0  0  0  0  0  0  0  0  0  0  0  0
    1.8990   -0.1879   -0.0341 C   0  0  0  0  0  0  0  0  0  0  0  0
    3.0049    0.6546    0.2227 N   0  0  0  0  0  0  0  0  0  0  0  0
    4.2954    0.2665    0.5271 C   0  0  0  0  0  0  0  0  0  0  0  0
    4.6882   -0.9047    0.6263 O   0  0  0  0  0  0  0  0  0  0  0  0
    5.3046    1.3881    0.7564 C   0  0  0  0  0  0  0  0  0  0  0  0
    6.5476    0.8806    1.0505 O   0  0  0  0  0  0  0  0  0  0  0  0
    1.9430   -1.5488   -0.1915 C   0  0  0  0  0  0  0  0  0  0  0  0
    0.7845   -2.2907   -0.4541 C   0  0  0  0  0  0  0  0  0  0  0  0
    0.6592   -3.6372   -0.6348 N   0  0  0  0  0  0  0  0  0  0  0  0
   -0.6497   -3.8368   -0.8548 C   0  0  0  0  0  0  0  0  0  0  0  0
   -1.3060   -2.6655   -0.8122 N   0  0  0  0  0  0  0  0  0  0  0  0
   -0.4137   -1.7252   -0.5655 N   0  0  0  0  0  0  0  0  0  0  0  0
   -5.6783    1.9661   -0.8488 C   0  0  0  0  0  0  0  0  0  0  0  0
   -6.7287    2.4566   -0.9279 N   0  0  0  0  0  0  0  0  0  0  0  0
   -2.4755   -1.0917    2.1629 H   0  0  0  0  0  0  0  0  0  0  0  0
   -1.0353    0.0475    1.9377 H   0  0  0  0  0  0  0  0  0  0  0  0
   -2.5524    0.6069    2.6707 H   0  0  0  0  0  0  0  0  0  0  0  0
   -4.5083    1.0476    1.3429 H   0  0  0  0  0  0  0  0  0  0  0  0
   -3.9445    1.5724   -2.8081 H   0  0  0  0  0  0  0  0  0  0  0  0
   -1.6742    0.5451   -2.6192 H   0  0  0  0  0  0  0  0  0  0  0  0
    0.5284    1.4517   -0.0413 H   0  0  0  0  0  0  0  0  0  0  0  0
    2.7892    1.7038    0.1647 H   0  0  0  0  0  0  0  0  0  0  0  0
    4.9246    1.9630    1.6120 H   0  0  0  0  0  0  0  0  0  0  0  0
    5.3334    2.0276   -0.1474 H   0  0  0  0  0  0  0  0  0  0  0  0
    7.0707    1.4913    1.6070 H   0  0  0  0  0  0  0  0  0  0  0  0
    2.8811   -2.0636   -0.1190 H   0  0  0  0  0  0  0  0  0  0  0  0
   -1.0956   -4.8246   -1.0403 H   0  0  0  0  0  0  0  0  0  0  0  0
  1  2  1  0
  2  3  2  0
  3  4  1  0
  4  5  2  0
  5  6  1  0
  6  7  2  0
  7  8  1  0
  8  9  2  0
  9 10  1  0
 10 11  1  0
 11 12  1  0
 12 13  2  0
 12 14  1  0
 14 15  1  0
 10 16  2  0
 16 17  1  0
 17 18  2  0
 18 19  1  0
 19 20  2  0
 20 21  1  0
  4 22  1  0
 22 23  3  0
  7  2  1  0
 21  8  1  0
 21 17  1  0
  1 24  1  0
  1 25  1  0
  1 26  1  0
  3 27  1  0
  5 28  1  0
  6 29  1  0
  9 30  1  0
 11 31  1  0
 14 32  1  0
 14 33  1  0
 15 34  1  0
 16 35  1  0
 19 36  1  0
M  END
$$$$
[H]c1nc2c([H])c([H])c([H])c(-c3c(C([H])([H])[H])nc(C#N)nc3C([H])([H])[H])n2n1
     RDKit          3D

 29 31  0  0  0  0  0  0  0  0999 V2000
    0.6949    1.9562   -1.4929 C   0  0  0  0  0  0  0  0  0  0  0  0
    1.4666    0.9498   -0.7166 C   0  0  0  0  0  0  0  0  0  0  0  0
    2.8028    1.0826   -0.5819 N   0  0  0  0  0  0  0  0  0  0  0  0
    3.5483    0.2015    0.1093 C   0  0  0  0  0  0  0  0  0  0  0  0
    2.9099   -0.8384    0.6747 N   0  0  0  0  0  0  0  0  0  0  0  0
    1.5722   -1.0201    0.5712 C   0  0  0  0  0  0  0  0  0  0  0  0
    0.8997   -2.1778    1.2069 C   0  0  0  0  0  0  0  0  0  0  0  0
    0.8142   -0.1143   -0.1380 C   0  0  0  0  0  0  0  0  0  0  0  0
   -0.6301   -0.2305   -0.3013 C   0  0  0  0  0  0  0  0  0  0  0  0
   -1.1921   -0.9179   -1.3588 C   0  0  0  0  0  0  0  0  0  0  0  0
   -2.5573   -1.0341   -1.5231 C   0  0  0  0  0  0  0  0  0  0  0  0
   -3.3873   -0.4426   -0.5982 C   0  0  0  0  0  0  0  0  0  0  0  0
   -2.7988    0.2379    0.4482 C   0  0  0  0  0  0  0  0  0  0  0  0
   -3.3763    0.8935    1.4694 N   0  0  0  0  0  0  0  0  0  0  0  0
   -2.4212    1.4106    2.2589 C   0  0  0  0  0  0  0  0  0  0  0  0
   -1.2591    1.0556    1.6963 N   0  0  0  0  0  0  0  0  0  0  0  0
   -1.4703    0.3497    0.6062 N   0  0  0  0  0  0  0  0  0  0  0  0
    4.9808    0.3690    0.2376 C   0  0  0  0  0  0  0  0  0  0  0  0
    6.1286    0.4964    0.3275 N   0  0  0  0  0  0  0  0  0  0  0  0
    0.6510    2.8749   -0.8811 H   0  0  0  0  0  0  0  0  0  0  0  0
   -0.2924    1.5795   -1.7573 H   0  0  0  0  0  0  0  0  0  0  0  0
    1.2363    2.1507   -2.4639 H   0  0  0  0  0  0  0  0  0  0  0  0
    1.5749   -2.6598    1.9630 H   0  0  0  0  0  0  0  0  0  0  0  0
    0.6416   -2.8982    0.4112 H   0  0  0  0  0  0  0  0  0  0  0  0
    0.0191   -1.8157    1.7768 H   0  0  0  0  0  0  0  0  0  0  0  0
   -0.5549   -1.3842   -2.0876 H   0  0  0  0  0  0  0  0  0  0  0  0
   -2.9740   -1.5801   -2.3632 H   0  0  0  0  0  0  0  0  0  0  0  0
   -4.4619   -0.4986   -0.6726 H   0  0  0  0  0  0  0  0  0  0  0  0
   -2.5650    2.0044    3.1795 H   0  0  0  0  0  0  0  0  0  0  0  0
  1  2  1  0
  2  3  2  0
  3  4  1  0
  4  5  2  0
  5  6  1  0
  6  7  1  0
  6  8  2  0
  8  9  1  0
  9 10  2  0
 10 11  1  0
 11 12  2  0
 12 13  1  0
 13 14  2  0
 14 15  1  0
 15 16  2  0
 16 17  1  0
  4 18  1  0
 18 19  3  0
  8  2  1  0
 17  9  1  0
 17 13  1  0
  1 20  1  0
  1 21  1  0
  1 22  1  0
  7 23  1  0
  7 24  1  0
  7 25  1  0
 10 26  1  0
 11 27  1  0
 12 28  1  0
 15 29  1  0
M  END
$$$$
[H]c1nc2c([H])c(N([H])C(=O)C3([H])C([H])([H])C3([H])[H])c([H])c(-c3c([H])c([H])c(C#N)c([H])c3C([H])([H])[H])n2n1
     RDKit          3D

 39 42  0  0  0  0  0  0  0  0999 V2000
    2.7437    0.3085   -1.7268 C   0  0  0  0  0  0  0  0  0  0  0  0
    3.2201    0.1963   -0.3338 C   0  0  0  0  0  0  0  0  0  0  0  0
    4.5154    0.5972    0.0231 C   0  0  0  0  0  0  0  0  0  0  0  0
    4.9505    0.4875    1.3303 C   0  0  0  0  0  0  0  0  0  0  0  0
    4.0920   -0.0201    2.2691 C   0  0  0  0  0  0  0  0  0  0  0  0
    2.8276   -0.4075    1.9013 C   0  0  0  0  0  0  0  0  0  0  0  0
    2.3589   -0.3135    0.6109 C   0  0  0  0  0  0  0  0  0  0  0  0
    1.0175   -0.7294    0.2446 C   0  0  0  0  0  0  0  0  0  0  0  0
   -0.0141    0.1674    0.2973 C   0  0  0  0  0  0  0  0  0  0  0  0
   -1.3442   -0.1505   -0.0400 C   0  0  0  0  0  0  0  0  0  0  0  0
   -2.3395    0.8418    0.0466 N   0  0  0  0  0  0  0  0  0  0  0  0
   -3.6878    0.7357   -0.2501 C   0  0  0  0  0  0  0  0  0  0  0  0
   -4.2213   -0.3112   -0.6546 O   0  0  0  0  0  0  0  0  0  0  0  0
   -4.6337    1.9108   -0.1011 C   0  0  0  0  0  0  0  0  0  0  0  0
   -5.6280    2.0549   -1.2231 C   0  0  0  0  0  0  0  0  0  0  0  0
   -6.0545    1.6480    0.1391 C   0  0  0  0  0  0  0  0  0  0  0  0
   -1.5251   -1.4535   -0.4320 C   0  0  0  0  0  0  0  0  0  0  0  0
   -0.4457   -2.3453   -0.4742 C   0  0  0  0  0  0  0  0  0  0  0  0
   -0.3937   -3.6425   -0.8209 N   0  0  0  0  0  0  0  0  0  0  0  0
    0.8744   -4.0912   -0.7060 C   0  0  0  0  0  0  0  0  0  0  0  0
    1.6099   -3.0530   -0.2826 N   0  0  0  0  0  0  0  0  0  0  0  0
    0.7970   -1.9937   -0.1442 N   0  0  0  0  0  0  0  0  0  0  0  0
    6.2885    0.9121    1.6478 C   0  0  0  0  0  0  0  0  0  0  0  0
    7.3579    1.2663    1.9171 N   0  0  0  0  0  0  0  0  0  0  0  0
    3.3525    1.0810   -2.2471 H   0  0  0  0  0  0  0  0  0  0  0  0
    1.6840    0.6154   -1.8044 H   0  0  0  0  0  0  0  0  0  0  0  0
    2.9534   -0.6561   -2.2383 H   0  0  0  0  0  0  0  0  0  0  0  0
    5.1503    0.9923   -0.7666 H   0  0  0  0  0  0  0  0  0  0  0  0
    4.3975   -0.1170    3.2835 H   0  0  0  0  0  0  0  0  0  0  0  0
    2.1109   -0.8200    2.6306 H   0  0  0  0  0  0  0  0  0  0  0  0
    0.1898    1.1932    0.6174 H   0  0  0  0  0  0  0  0  0  0  0  0
   -2.0199    1.8098    0.3865 H   0  0  0  0  0  0  0  0  0  0  0  0
   -4.2040    2.8604    0.2552 H   0  0  0  0  0  0  0  0  0  0  0  0
   -5.9609    3.0847   -1.5276 H   0  0  0  0  0  0  0  0  0  0  0  0
   -5.6436    1.3449   -2.0596 H   0  0  0  0  0  0  0  0  0  0  0  0
   -6.6753    2.3224    0.7641 H   0  0  0  0  0  0  0  0  0  0  0  0
   -6.4197    0.5825    0.2157 H   0  0  0  0  0  0  0  0  0  0  0  0
   -2.5085   -1.7969   -0.7104 H   0  0  0  0  0  0  0  0  0  0  0  0
    1.2277   -5.1118   -0.9201 H   0  0  0  0  0  0  0  0  0  0  0  0
  1  2  1  0
  2  3  2  0
  3  4  1  0
  4  5  2  0
  5  6  1  0
  6  7  2  0
  7  8  1  0
  8  9  2  0
  9 10  1  0
 10 11  1  0
 11 12  1  0
 12 13  2  0
 12 14  1  0
 14 15  1  0
 15 16  1  0
 10 17  2  0
 17 18  1  0
 18 19  2  0
 19 20  1  0
 20 21  2  0
 21 22  1  0
  4 23  1  0
 23 24  3  0
  7  2  1  0
 22  8  1  0
 16 14  1  0
 22 18  1  0
  1 25  1  0
  1 26  1  0
  1 27  1  0
  3 28  1  0
  5 29  1  0
  6 30  1  0
  9 31  1  0
 11 32  1  0
 14 33  1  0
 15 34  1  0
 15 35  1  0
 16 36  1  0
 16 37  1  0
 17 38  1  0
 20 39  1  0
M  END
$$$$
[H]c1nc(C([H])([H])N2C([H])([H])C([H])([H])C3(C(=O)N(c4c([H])c([H])c(-c5c([H])c([H])c([H])c([H])c5[H])c([H])c4[H])C(=O)N3c3c([H])c([H])c([H])c(=O)n3[H])C([H])([H])C2([H])[H])c(C([H])([H])[H])c([H])c1[H]
     RDKit          3D

 68 73  0  0  0  0  0  0  0  0999 V2000
   -5.5771    3.5557   -1.3710 C   0  0  0  0  0  0  0  0  0  0  0  0
   -6.0312    2.1531   -1.3160 C   0  0  0  0  0  0  0  0  0  0  0  0
   -7.2876    1.7914   -1.7544 C   0  0  0  0  0  0  0  0  0  0  0  0
   -7.6892    0.4891   -1.6941 C   0  0  0  0  0  0  0  0  0  0  0  0
   -6.8417   -0.4792   -1.1938 C   0  0  0  0  0  0  0  0  0  0  0  0
   -5.6295   -0.0818   -0.7793 N   0  0  0  0  0  0  0  0  0  0  0  0
   -5.1831    1.1822   -0.8150 C   0  0  0  0  0  0  0  0  0  0  0  0
   -3.8648    1.6032   -0.3510 C   0  0  0  0  0  0  0  0  0  0  0  0
   -3.0322    0.5348    0.1497 N   0  0  0  0  0  0  0  0  0  0  0  0
   -1.8009    1.1979    0.6393 C   0  0  0  0  0  0  0  0  0  0  0  0
   -0.9741    0.1352    1.2827 C   0  0  0  0  0  0  0  0  0  0  0  0
   -0.6671   -1.0000    0.3720 C   0  0  0  0  0  0  0  0  0  0  0  0
   -1.7711   -1.4502   -0.5188 C   0  0  0  0  0  0  0  0  0  0  0  0
   -2.5452   -0.2371   -1.0061 C   0  0  0  0  0  0  0  0  0  0  0  0
   -0.0982   -2.0635    1.1693 N   0  0  0  0  0  0  0  0  0  0  0  0
    1.2579   -1.6948    1.3893 C   0  0  0  0  0  0  0  0  0  0  0  0
    2.0137   -2.0931    2.3394 O   0  0  0  0  0  0  0  0  0  0  0  0
    1.6382   -0.7946    0.3580 N   0  0  0  0  0  0  0  0  0  0  0  0
    0.5103   -0.6178   -0.4867 C   0  0  0  0  0  0  0  0  0  0  0  0
    0.5019   -0.2280   -1.6897 O   0  0  0  0  0  0  0  0  0  0  0  0
    2.8948   -0.1535    0.1379 C   0  0  0  0  0  0  0  0  0  0  0  0
    2.9636    1.0662   -0.5295 C   0  0  0  0  0  0  0  0  0  0  0  0
    4.1788    1.6833   -0.7427 C   0  0  0  0  0  0  0  0  0  0  0  0
    5.3653    1.1215   -0.3062 C   0  0  0  0  0  0  0  0  0  0  0  0
    5.3117   -0.0795    0.3528 C   0  0  0  0  0  0  0  0  0  0  0  0
    4.0867   -0.7037    0.5686 C   0  0  0  0  0  0  0  0  0  0  0  0
    6.6527    1.7583   -0.5250 C   0  0  0  0  0  0  0  0  0  0  0  0
    6.8681    2.5250   -1.6525 C   0  0  0  0  0  0  0  0  0  0  0  0
    8.0926    3.1198   -1.8417 C   0  0  0  0  0  0  0  0  0  0  0  0
    9.0715    2.9427   -0.9154 C   0  0  0  0  0  0  0  0  0  0  0  0
    8.8495    2.1754    0.2083 C   0  0  0  0  0  0  0  0  0  0  0  0
    7.6409    1.5706    0.4248 C   0  0  0  0  0  0  0  0  0  0  0  0
   -0.7251   -3.2545    1.6547 C   0  0  0  0  0  0  0  0  0  0  0  0
   -1.9608   -3.2579    2.2769 C   0  0  0  0  0  0  0  0  0  0  0  0
   -2.5654   -4.4106    2.7465 C   0  0  0  0  0  0  0  0  0  0  0  0
   -1.9071   -5.6189    2.5880 C   0  0  0  0  0  0  0  0  0  0  0  0
   -0.6770   -5.5966    1.9658 C   0  0  0  0  0  0  0  0  0  0  0  0
   -0.0916   -6.7040    1.8297 O   0  0  0  0  0  0  0  0  0  0  0  0
   -0.1347   -4.4615    1.5309 N   0  0  0  0  0  0  0  0  0  0  0  0
   -6.4278    4.2115   -1.7165 H   0  0  0  0  0  0  0  0  0  0  0  0
   -5.3670    3.9087   -0.3288 H   0  0  0  0  0  0  0  0  0  0  0  0
   -4.7462    3.7395   -2.0661 H   0  0  0  0  0  0  0  0  0  0  0  0
   -7.9697    2.5285   -2.1513 H   0  0  0  0  0  0  0  0  0  0  0  0
   -8.6702    0.1685   -2.0292 H   0  0  0  0  0  0  0  0  0  0  0  0
   -7.1469   -1.5215   -1.1399 H   0  0  0  0  0  0  0  0  0  0  0  0
   -4.0296    2.3494    0.4823 H   0  0  0  0  0  0  0  0  0  0  0  0
   -3.2848    2.1618   -1.1292 H   0  0  0  0  0  0  0  0  0  0  0  0
   -1.2861    1.5724   -0.2579 H   0  0  0  0  0  0  0  0  0  0  0  0
   -2.0545    1.9927    1.3639 H   0  0  0  0  0  0  0  0  0  0  0  0
   -1.4919   -0.1646    2.2338 H   0  0  0  0  0  0  0  0  0  0  0  0
    0.0220    0.5464    1.6190 H   0  0  0  0  0  0  0  0  0  0  0  0
   -1.3317   -1.9238   -1.4308 H   0  0  0  0  0  0  0  0  0  0  0  0
   -2.4767   -2.1644   -0.1076 H   0  0  0  0  0  0  0  0  0  0  0  0
   -1.8629    0.4738   -1.5533 H   0  0  0  0  0  0  0  0  0  0  0  0
   -3.3204   -0.4984   -1.7235 H   0  0  0  0  0  0  0  0  0  0  0  0
    2.0471    1.5459   -0.8907 H   0  0  0  0  0  0  0  0  0  0  0  0
    4.2578    2.6359   -1.2608 H   0  0  0  0  0  0  0  0  0  0  0  0
    6.2014   -0.5866    0.7253 H   0  0  0  0  0  0  0  0  0  0  0  0
    4.0874   -1.6575    1.0956 H   0  0  0  0  0  0  0  0  0  0  0  0
    6.1025    2.6670   -2.3848 H   0  0  0  0  0  0  0  0  0  0  0  0
    8.3020    3.7296   -2.7135 H   0  0  0  0  0  0  0  0  0  0  0  0
   10.0645    3.3984   -1.0280 H   0  0  0  0  0  0  0  0  0  0  0  0
    9.6445    2.0505    0.9326 H   0  0  0  0  0  0  0  0  0  0  0  0
    7.4851    0.9742    1.3070 H   0  0  0  0  0  0  0  0  0  0  0  0
   -2.4966   -2.3219    2.4089 H   0  0  0  0  0  0  0  0  0  0  0  0
   -3.5363   -4.3972    3.2329 H   0  0  0  0  0  0  0  0  0  0  0  0
   -2.3571   -6.5559    2.9476 H   0  0  0  0  0  0  0  0  0  0  0  0
    0.7984   -4.4879    1.0673 H   0  0  0  0  0  0  0  0  0  0  0  0
  1  2  1  0
  2  3  2  0
  3  4  1  0
  4  5  2  0
  5  6  1  0
  6  7  2  0
  7  8  1  0
  8  9  1  0
  9 10  1  0
 10 11  1  0
 11 12  1  0
 12 13  1  0
 13 14  1  0
 12 15  1  0
 15 16  1  0
 16 17  2  0
 16 18  1  0
 18 19  1  0
 19 20  2  0
 18 21  1  0
 21 22  2  0
 22 23  1  0
 23 24  2  0
 24 25  1  0
 25 26  2  0
 24 27  1  0
 27 28  2  0
 28 29  1  0
 29 30  2  0
 30 31  1  0
 31 32  2  0
 15 33  1  0
 33 34  2  0
 34 35  1  0
 35 36  2  0
 36 37  1  0
 37 38  2  0
 37 39  1  0
  7  2  1  0
 14  9  1  0
 26 21  1  0
 32 27  1  0
 39 33  1  0
 19 12  1  0
  1 40  1  0
  1 41  1  0
  1 42  1  0
  3 43  1  0
  4 44  1  0
  5 45  1  0
  8 46  1  0
  8 47  1  0
 10 48  1  0
 10 49  1  0
 11 50  1  0
 11 51  1  0
 13 52  1  0
 13 53  1  0
 14 54  1  0
 14 55  1  0
 22 56  1  0
 23 57  1  0
 25 58  1  0
 26 59  1  0
 28 60  1  0
 29 61  1  0
 30 62  1  0
 31 63  1  0
 32 64  1  0
 34 65  1  0
 35 66  1  0
 36 67  1  0
 39 68  1  0
M  END
$$$$
[H]OC([H])([H])C([H])(O[H])C([H])([H])N([H])c1c([H])c(-c2c([H])c([H])c(C#N)c([H])c2C([H])([H])[H])n2nc([H])nc2c1[H]
     RDKit          3D

 41 43  0  0  0  0  0  0  0  0999 V2000
    2.2728    1.1358   -1.9048 C   0  0  0  0  0  0  0  0  0  0  0  0
    3.0077    0.8968   -0.6438 C   0  0  0  0  0  0  0  0  0  0  0  0
    4.2324    1.5427   -0.4297 C   0  0  0  0  0  0  0  0  0  0  0  0
    4.9107    1.3146    0.7479 C   0  0  0  0  0  0  0  0  0  0  0  0
    4.3871    0.4656    1.6917 C   0  0  0  0  0  0  0  0  0  0  0  0
    3.1622   -0.1678    1.4547 C   0  0  0  0  0  0  0  0  0  0  0  0
    2.4736    0.0497    0.2848 C   0  0  0  0  0  0  0  0  0  0  0  0
    1.1824   -0.5907   -0.0145 C   0  0  0  0  0  0  0  0  0  0  0  0
   -0.0041   -0.0044    0.3365 C   0  0  0  0  0  0  0  0  0  0  0  0
   -1.1882   -0.6294    0.0419 C   0  0  0  0  0  0  0  0  0  0  0  0
   -2.4404   -0.0329    0.4004 N   0  0  0  0  0  0  0  0  0  0  0  0
   -3.6715   -0.7087    0.0803 C   0  0  0  0  0  0  0  0  0  0  0  0
   -4.8352    0.1271    0.5636 C   0  0  0  0  0  0  0  0  0  0  0  0
   -4.7638    0.3122    1.9213 O   0  0  0  0  0  0  0  0  0  0  0  0
   -4.9122    1.4206   -0.2040 C   0  0  0  0  0  0  0  0  0  0  0  0
   -6.0623    2.0852    0.2231 O   0  0  0  0  0  0  0  0  0  0  0  0
   -1.1732   -1.8426   -0.6052 C   0  0  0  0  0  0  0  0  0  0  0  0
    0.0271   -2.4219   -0.9530 C   0  0  0  0  0  0  0  0  0  0  0  0
    0.3824   -3.5576   -1.5698 N   0  0  0  0  0  0  0  0  0  0  0  0
    1.7071   -3.6107   -1.6411 C   0  0  0  0  0  0  0  0  0  0  0  0
    2.1917   -2.5103   -1.0704 N   0  0  0  0  0  0  0  0  0  0  0  0
    1.1498   -1.7763   -0.6454 N   0  0  0  0  0  0  0  0  0  0  0  0
    6.1805    1.9661    1.0028 C   0  0  0  0  0  0  0  0  0  0  0  0
    7.2003    2.4740    1.2163 N   0  0  0  0  0  0  0  0  0  0  0  0
    1.3689    1.7674   -1.7526 H   0  0  0  0  0  0  0  0  0  0  0  0
    2.0421    0.2029   -2.4559 H   0  0  0  0  0  0  0  0  0  0  0  0
    2.9214    1.7341   -2.6093 H   0  0  0  0  0  0  0  0  0  0  0  0
    4.6610    2.2146   -1.1605 H   0  0  0  0  0  0  0  0  0  0  0  0
    4.9447    0.3111    2.5999 H   0  0  0  0  0  0  0  0  0  0  0  0
    2.7521   -0.8315    2.1917 H   0  0  0  0  0  0  0  0  0  0  0  0
    0.0133    0.9520    0.8456 H   0  0  0  0  0  0  0  0  0  0  0  0
   -2.4725    0.8883    0.8924 H   0  0  0  0  0  0  0  0  0  0  0  0
   -3.7229   -0.8088   -1.0413 H   0  0  0  0  0  0  0  0  0  0  0  0
   -3.6886   -1.7080    0.5477 H   0  0  0  0  0  0  0  0  0  0  0  0
   -5.7682   -0.4516    0.3188 H   0  0  0  0  0  0  0  0  0  0  0  0
   -3.8599    0.3275    2.2824 H   0  0  0  0  0  0  0  0  0  0  0  0
   -4.0210    2.0334    0.0085 H   0  0  0  0  0  0  0  0  0  0  0  0
   -4.9876    1.1468   -1.2877 H   0  0  0  0  0  0  0  0  0  0  0  0
   -5.8684    3.0469    0.2540 H   0  0  0  0  0  0  0  0  0  0  0  0
   -2.0838   -2.3863   -0.8654 H   0  0  0  0  0  0  0  0  0  0  0  0
    2.3528   -4.3759   -2.0700 H   0  0  0  0  0  0  0  0  0  0  0  0
  1  2  1  0
  2  3  2  0
  3  4  1  0
  4  5  2  0
  5  6  1  0
  6  7  2  0
  7  8  1  0
  8  9  2  0
  9 10  1  0
 10 11  1  0
 11 12  1  0
 12 13  1  0
 13 14  1  0
 13 15  1  0
 15 16  1  0
 10 17  2  0
 17 18  1  0
 18 19  2  0
 19 20  1  0
 20 21  2  0
 21 22  1  0
  4 23  1  0
 23 24  3  0
  7  2  1  0
 22  8  1  0
 22 18  1  0
  1 25  1  0
  1 26  1  0
  1 27  1  0
  3 28  1  0
  5 29  1  0
  6 30  1  0
  9 31  1  0
 11 32  1  0
 12 33  1  0
 12 34  1  0
 13 35  1  0
 14 36  1  0
 15 37  1  0
 15 38  1  0
 16 39  1  0
 17 40  1  0
 20 41  1  0
M  END
$$$$
[H]c1nc2c([H])c(N([H])C([H])([H])c3c([H])c([H])c(F)c([H])c3[H])c([H])c(-c3c([H])c([H])c(C#N)c([H])c3[H])n2n1
     RDKit          3D

 40 43  0  0  0  0  0  0  0  0999 V2000
   -7.7867    2.0483    0.0547 F   0  0  0  0  0  0  0  0  0  0  0  0
   -6.5785    1.4243    0.0907 C   0  0  0  0  0  0  0  0  0  0  0  0
   -5.4320    2.1075    0.4125 C   0  0  0  0  0  0  0  0  0  0  0  0
   -4.1937    1.4536    0.4462 C   0  0  0  0  0  0  0  0  0  0  0  0
   -4.1351    0.1193    0.1538 C   0  0  0  0  0  0  0  0  0  0  0  0
   -2.8717   -0.6022    0.1712 C   0  0  0  0  0  0  0  0  0  0  0  0
   -1.6788    0.1837    0.1323 N   0  0  0  0  0  0  0  0  0  0  0  0
   -0.4330   -0.5013    0.1695 C   0  0  0  0  0  0  0  0  0  0  0  0
    0.7803    0.1902    0.1358 C   0  0  0  0  0  0  0  0  0  0  0  0
    1.9952   -0.4641    0.1713 C   0  0  0  0  0  0  0  0  0  0  0  0
    3.2390    0.2820    0.1349 C   0  0  0  0  0  0  0  0  0  0  0  0
    3.8387    0.7031    1.2882 C   0  0  0  0  0  0  0  0  0  0  0  0
    5.0149    1.4054    1.1907 C   0  0  0  0  0  0  0  0  0  0  0  0
    5.5875    1.6855   -0.0359 C   0  0  0  0  0  0  0  0  0  0  0  0
    4.9906    1.2645   -1.2180 C   0  0  0  0  0  0  0  0  0  0  0  0
    3.8093    0.5597   -1.1104 C   0  0  0  0  0  0  0  0  0  0  0  0
    6.8129    2.4203   -0.0765 C   0  0  0  0  0  0  0  0  0  0  0  0
    7.8107    3.0145   -0.0989 N   0  0  0  0  0  0  0  0  0  0  0  0
    2.0003   -1.8007    0.2401 N   0  0  0  0  0  0  0  0  0  0  0  0
    3.0389   -2.6237    0.2841 N   0  0  0  0  0  0  0  0  0  0  0  0
    2.6124   -3.9001    0.3490 C   0  0  0  0  0  0  0  0  0  0  0  0
    1.2693   -3.8243    0.3430 N   0  0  0  0  0  0  0  0  0  0  0  0
    0.8702   -2.5407    0.2764 C   0  0  0  0  0  0  0  0  0  0  0  0
   -0.3391   -1.8758    0.2403 C   0  0  0  0  0  0  0  0  0  0  0  0
   -5.2995   -0.5387   -0.1647 C   0  0  0  0  0  0  0  0  0  0  0  0
   -6.5108    0.0854   -0.2011 C   0  0  0  0  0  0  0  0  0  0  0  0
   -5.4916    3.1679    0.6427 H   0  0  0  0  0  0  0  0  0  0  0  0
   -3.3524    2.0723    0.7121 H   0  0  0  0  0  0  0  0  0  0  0  0
   -2.8304   -1.2565    1.0850 H   0  0  0  0  0  0  0  0  0  0  0  0
   -2.7858   -1.3285   -0.6948 H   0  0  0  0  0  0  0  0  0  0  0  0
   -1.6719    1.2171    0.0760 H   0  0  0  0  0  0  0  0  0  0  0  0
    0.7245    1.2737    0.0800 H   0  0  0  0  0  0  0  0  0  0  0  0
    3.3639    0.4670    2.2326 H   0  0  0  0  0  0  0  0  0  0  0  0
    5.4825    1.7351    2.1153 H   0  0  0  0  0  0  0  0  0  0  0  0
    5.4389    1.4838   -2.1777 H   0  0  0  0  0  0  0  0  0  0  0  0
    3.3461    0.2326   -2.0364 H   0  0  0  0  0  0  0  0  0  0  0  0
    3.2470   -4.7912    0.3959 H   0  0  0  0  0  0  0  0  0  0  0  0
   -1.2249   -2.4668    0.2693 H   0  0  0  0  0  0  0  0  0  0  0  0
   -5.2619   -1.5953   -0.3974 H   0  0  0  0  0  0  0  0  0  0  0  0
   -7.3954   -0.4870   -0.4595 H   0  0  0  0  0  0  0  0  0  0  0  0
  1  2  1  0
  2  3  2  0
  3  4  1  0
  4  5  2  0
  5  6  1  0
  6  7  1  0
  7  8  1  0
  8  9  1  0
  9 10  2  0
 10 11  1  0
 11 12  2  0
 12 13  1  0
 13 14  2  0
 14 15  1  0
 15 16  2  0
 14 17  1  0
 17 18  3  0
 10 19  1  0
 19 20  1  0
 20 21  2  0
 21 22  1  0
 22 23  2  0
 23 24  1  0
  5 25  1  0
 25 26  2  0
 26  2  1  0
 24  8  2  0
 16 11  1  0
 23 19  1  0
  3 27  1  0
  4 28  1  0
  6 29  1  0
  6 30  1  0
  7 31  1  0
  9 32  1  0
 12 33  1  0
 13 34  1  0
 15 35  1  0
 16 36  1  0
 21 37  1  0
 24 38  1  0
 25 39  1  0
 26 40  1  0
M  END
$$$$
[H]c1nc(OC([H])([H])[H])c([H])c(N2C(=O)N(c3c([H])c([H])c(-c4c([H])c([H])c(-c5nn([H])c([H])c5[H])c([H])c4[H])c([H])c3[H])C(=O)C23C([H])([H])C([H])([H])N(C([H])([H])c2nc([H])c([H])c([H])c2C([H])([H])[H])C([H])([H])C3([H])[H])n1
     RDKit          3D

 77 83  0  0  0  0  0  0  0  0999 V2000
   -3.9997    7.4115   -0.0240 C   0  0  0  0  0  0  0  0  0  0  0  0
   -3.4263    6.1508   -0.0416 O   0  0  0  0  0  0  0  0  0  0  0  0
   -3.2277    5.1592   -0.8480 C   0  0  0  0  0  0  0  0  0  0  0  0
   -2.5359    4.0428   -0.3901 C   0  0  0  0  0  0  0  0  0  0  0  0
   -2.2603    2.9090   -1.1362 C   0  0  0  0  0  0  0  0  0  0  0  0
   -2.7099    2.9120   -2.4174 N   0  0  0  0  0  0  0  0  0  0  0  0
   -3.3944    3.9723   -2.9266 C   0  0  0  0  0  0  0  0  0  0  0  0
   -3.6538    5.1082   -2.1353 N   0  0  0  0  0  0  0  0  0  0  0  0
   -1.4184    1.9148   -0.6177 N   0  0  0  0  0  0  0  0  0  0  0  0
    0.0098    2.3134   -0.5372 C   0  0  0  0  0  0  0  0  0  0  0  0
    0.5233    3.2165   -1.1634 O   0  0  0  0  0  0  0  0  0  0  0  0
    0.5910    1.4138    0.3796 N   0  0  0  0  0  0  0  0  0  0  0  0
   -0.3809    0.5545    0.8406 C   0  0  0  0  0  0  0  0  0  0  0  0
   -0.2595   -0.1760    1.8815 O   0  0  0  0  0  0  0  0  0  0  0  0
   -1.5800    0.6557   -0.1068 C   0  0  0  0  0  0  0  0  0  0  0  0
   -2.7692    0.5727    0.8726 C   0  0  0  0  0  0  0  0  0  0  0  0
   -3.9559    0.3616    0.0391 C   0  0  0  0  0  0  0  0  0  0  0  0
   -3.8842   -1.0425   -0.5163 N   0  0  0  0  0  0  0  0  0  0  0  0
   -5.0702   -1.5794   -0.3853 C   0  0  0  0  0  0  0  0  0  0  0  0
   -5.7789   -2.8205   -0.5854 C   0  0  0  0  0  0  0  0  0  0  0  0
   -6.1866   -3.4783   -1.6207 N   0  0  0  0  0  0  0  0  0  0  0  0
   -7.1524   -4.4485   -1.5957 C   0  0  0  0  0  0  0  0  0  0  0  0
   -7.7902   -4.8292   -0.4390 C   0  0  0  0  0  0  0  0  0  0  0  0
   -7.3786   -4.1382    0.7329 C   0  0  0  0  0  0  0  0  0  0  0  0
   -6.4277   -3.1820    0.6906 C   0  0  0  0  0  0  0  0  0  0  0  0
   -5.7618   -2.5517    1.8353 C   0  0  0  0  0  0  0  0  0  0  0  0
   -2.9316   -0.9755   -1.5202 C   0  0  0  0  0  0  0  0  0  0  0  0
   -1.5729   -0.5038   -1.0092 C   0  0  0  0  0  0  0  0  0  0  0  0
    1.9994    1.3319    0.6282 C   0  0  0  0  0  0  0  0  0  0  0  0
    2.5681    1.0644    1.8025 C   0  0  0  0  0  0  0  0  0  0  0  0
    3.9389    0.8357    1.8575 C   0  0  0  0  0  0  0  0  0  0  0  0
    4.6891    0.8817    0.7658 C   0  0  0  0  0  0  0  0  0  0  0  0
    4.0816    1.2009   -0.5077 C   0  0  0  0  0  0  0  0  0  0  0  0
    2.7732    1.4098   -0.5200 C   0  0  0  0  0  0  0  0  0  0  0  0
    5.9086    0.1107    0.6024 C   0  0  0  0  0  0  0  0  0  0  0  0
    5.8878   -1.2170    1.0584 C   0  0  0  0  0  0  0  0  0  0  0  0
    6.9358   -2.0777    0.9310 C   0  0  0  0  0  0  0  0  0  0  0  0
    8.1079   -1.6331    0.3233 C   0  0  0  0  0  0  0  0  0  0  0  0
    8.1601   -0.3288   -0.1268 C   0  0  0  0  0  0  0  0  0  0  0  0
    7.0803    0.5700   -0.0111 C   0  0  0  0  0  0  0  0  0  0  0  0
    9.1385   -2.6333    0.0767 C   0  0  0  0  0  0  0  0  0  0  0  0
   10.4796   -2.5213    0.3070 C   0  0  0  0  0  0  0  0  0  0  0  0
   10.9993   -3.7598   -0.0025 C   0  0  0  0  0  0  0  0  0  0  0  0
   10.0127   -4.5309   -0.3958 N   0  0  0  0  0  0  0  0  0  0  0  0
    8.8339   -3.8829   -0.3575 N   0  0  0  0  0  0  0  0  0  0  0  0
   -4.4635    7.6149    0.8688 H   0  0  0  0  0  0  0  0  0  0  0  0
   -2.9892    8.0961   -0.0994 H   0  0  0  0  0  0  0  0  0  0  0  0
   -4.6051    7.7812   -0.8565 H   0  0  0  0  0  0  0  0  0  0  0  0
   -2.1343    4.0427    0.6648 H   0  0  0  0  0  0  0  0  0  0  0  0
   -3.6557    3.9520   -3.9327 H   0  0  0  0  0  0  0  0  0  0  0  0
   -2.5659   -0.2852    1.5239 H   0  0  0  0  0  0  0  0  0  0  0  0
   -2.7912    1.5311    1.4255 H   0  0  0  0  0  0  0  0  0  0  0  0
   -4.9032    0.3887    0.6527 H   0  0  0  0  0  0  0  0  0  0  0  0
   -4.1161    0.9181   -0.8693 H   0  0  0  0  0  0  0  0  0  0  0  0
   -5.8527   -0.8077    0.1171 H   0  0  0  0  0  0  0  0  0  0  0  0
   -5.5404   -1.0508   -1.5422 H   0  0  0  0  0  0  0  0  0  0  0  0
   -7.4485   -4.9648   -2.5610 H   0  0  0  0  0  0  0  0  0  0  0  0
   -8.5439   -5.6059   -0.3833 H   0  0  0  0  0  0  0  0  0  0  0  0
   -7.7877   -4.4694    1.6292 H   0  0  0  0  0  0  0  0  0  0  0  0
   -5.8366   -3.1712    2.7309 H   0  0  0  0  0  0  0  0  0  0  0  0
   -4.5982   -2.5498    1.6637 H   0  0  0  0  0  0  0  0  0  0  0  0
   -6.0422   -1.5231    2.0648 H   0  0  0  0  0  0  0  0  0  0  0  0
   -2.7297   -1.9299   -2.0973 H   0  0  0  0  0  0  0  0  0  0  0  0
   -3.2596   -0.2387   -2.3140 H   0  0  0  0  0  0  0  0  0  0  0  0
   -0.9015   -0.3769   -1.8610 H   0  0  0  0  0  0  0  0  0  0  0  0
   -1.1840   -1.4309   -0.4408 H   0  0  0  0  0  0  0  0  0  0  0  0
    2.0104    1.0610    2.7702 H   0  0  0  0  0  0  0  0  0  0  0  0
    4.3693    0.5898    2.8455 H   0  0  0  0  0  0  0  0  0  0  0  0
    4.7078    1.2283   -1.3709 H   0  0  0  0  0  0  0  0  0  0  0  0
    2.2711    1.6490   -1.4844 H   0  0  0  0  0  0  0  0  0  0  0  0
    5.0285   -1.5788    1.5301 H   0  0  0  0  0  0  0  0  0  0  0  0
    6.8560   -3.1073    1.2759 H   0  0  0  0  0  0  0  0  0  0  0  0
    9.0608    0.0627   -0.5925 H   0  0  0  0  0  0  0  0  0  0  0  0
    7.2035    1.5625   -0.3846 H   0  0  0  0  0  0  0  0  0  0  0  0
   11.0114   -1.6881    0.6870 H   0  0  0  0  0  0  0  0  0  0  0  0
   12.0882   -3.9213    0.1163 H   0  0  0  0  0  0  0  0  0  0  0  0
   10.1304   -5.5419   -0.7842 H   0  0  0  0  0  0  0  0  0  0  0  0
  1  2  1  0
  2  3  1  0
  3  4  2  0
  4  5  1  0
  5  6  2  0
  6  7  1  0
  7  8  2  0
  5  9  1  0
  9 10  1  0
 10 11  2  0
 10 12  1  0
 12 13  1  0
 13 14  2  0
 13 15  1  0
 15 16  1  0
 16 17  1  0
 17 18  1  0
 18 19  1  0
 19 20  1  0
 20 21  2  0
 21 22  1  0
 22 23  2  0
 23 24  1  0
 24 25  2  0
 25 26  1  0
 18 27  1  0
 27 28  1  0
 12 29  1  0
 29 30  2  0
 30 31  1  0
 31 32  2  0
 32 33  1  0
 33 34  2  0
 32 35  1  0
 35 36  2  0
 36 37  1  0
 37 38  2  0
 38 39  1  0
 39 40  2  0
 38 41  1  0
 41 42  1  0
 42 43  2  0
 43 44  1  0
 44 45  1  0
  8  3  1  0
 15  9  1  0
 28 15  1  0
 34 29  1  0
 40 35  1  0
 45 41  2  0
 25 20  1  0
  1 46  1  0
  1 47  1  0
  1 48  1  0
  4 49  1  0
  7 50  1  0
 16 51  1  0
 16 52  1  0
 17 53  1  0
 17 54  1  0
 19 55  1  0
 19 56  1  0
 22 57  1  0
 23 58  1  0
 24 59  1  0
 26 60  1  0
 26 61  1  0
 26 62  1  0
 27 63  1  0
 27 64  1  0
 28 65  1  0
 28 66  1  0
 30 67  1  0
 31 68  1  0
 33 69  1  0
 34 70  1  0
 36 71  1  0
 37 72  1  0
 39 73  1  0
 40 74  1  0
 42 75  1  0
 43 76  1  0
 44 77  1  0
M  END
$$$$
[H]c1nc(OC([H])([H])[H])c([H])c(N2C(=O)N(c3c([H])c([H])c(-c4c([H])c([H])c5nc([H])n([H])c5c4[H])c([H])c3[H])C(=O)C23C([H])([H])C([H])([H])N(C([H])([H])c2nc([H])c([H])c([H])c2C([H])([H])[H])C([H])([H])C3([H])[H])n1
     RDKit          3D

 73 79  0  0  0  0  0  0  0  0999 V2000
   -2.6405    7.8780    0.6470 C   0  0  0  0  0  0  0  0  0  0  0  0
   -2.6353    6.5738    0.0695 O   0  0  0  0  0  0  0  0  0  0  0  0
   -1.9997    5.5291    0.6989 C   0  0  0  0  0  0  0  0  0  0  0  0
   -1.9371    4.2634    0.1268 C   0  0  0  0  0  0  0  0  0  0  0  0
   -1.3031    3.2429    0.7220 C   0  0  0  0  0  0  0  0  0  0  0  0
   -0.7192    3.5068    1.9323 N   0  0  0  0  0  0  0  0  0  0  0  0
   -0.7563    4.7116    2.5059 C   0  0  0  0  0  0  0  0  0  0  0  0
   -1.3919    5.7368    1.9084 N   0  0  0  0  0  0  0  0  0  0  0  0
   -0.9737    2.0275    0.1334 N   0  0  0  0  0  0  0  0  0  0  0  0
    0.4896    1.9442   -0.1571 C   0  0  0  0  0  0  0  0  0  0  0  0
    1.3494    2.7073    0.3153 O   0  0  0  0  0  0  0  0  0  0  0  0
    0.7257    0.8758   -1.0607 N   0  0  0  0  0  0  0  0  0  0  0  0
   -0.5307    0.3235   -1.3652 C   0  0  0  0  0  0  0  0  0  0  0  0
   -0.8408   -0.3895   -2.3511 O   0  0  0  0  0  0  0  0  0  0  0  0
   -1.4755    0.7652   -0.2409 C   0  0  0  0  0  0  0  0  0  0  0  0
   -2.8556    0.6403   -0.7036 C   0  0  0  0  0  0  0  0  0  0  0  0
   -3.8527    0.0373    0.2973 C   0  0  0  0  0  0  0  0  0  0  0  0
   -3.2727   -1.0711    0.8660 N   0  0  0  0  0  0  0  0  0  0  0  0
   -3.8111   -2.3089    1.1251 C   0  0  0  0  0  0  0  0  0  0  0  0
   -5.0964   -2.6624    0.5940 C   0  0  0  0  0  0  0  0  0  0  0  0
   -6.2626   -2.1400    1.0635 N   0  0  0  0  0  0  0  0  0  0  0  0
   -7.4366   -2.6927    0.7026 C   0  0  0  0  0  0  0  0  0  0  0  0
   -7.5788   -3.7804   -0.1238 C   0  0  0  0  0  0  0  0  0  0  0  0
   -6.3984   -4.3147   -0.6026 C   0  0  0  0  0  0  0  0  0  0  0  0
   -5.2033   -3.7500   -0.2438 C   0  0  0  0  0  0  0  0  0  0  0  0
   -4.0004   -4.2990   -0.9398 C   0  0  0  0  0  0  0  0  0  0  0  0
   -2.1811   -0.6691    1.7385 C   0  0  0  0  0  0  0  0  0  0  0  0
   -1.0961   -0.1932    0.8822 C   0  0  0  0  0  0  0  0  0  0  0  0
    2.0895    0.4745   -1.3137 C   0  0  0  0  0  0  0  0  0  0  0  0
    2.5310   -0.6434   -0.6072 C   0  0  0  0  0  0  0  0  0  0  0  0
    3.8082   -0.9992   -0.5357 C   0  0  0  0  0  0  0  0  0  0  0  0
    4.8054   -0.2377   -1.1935 C   0  0  0  0  0  0  0  0  0  0  0  0
    4.3858    0.8569   -1.8924 C   0  0  0  0  0  0  0  0  0  0  0  0
    3.0155    1.2126   -1.9565 C   0  0  0  0  0  0  0  0  0  0  0  0
    6.1671   -0.7061   -0.9923 C   0  0  0  0  0  0  0  0  0  0  0  0
    7.1255   -0.5324   -1.9840 C   0  0  0  0  0  0  0  0  0  0  0  0
    8.3531   -1.1766   -1.8321 C   0  0  0  0  0  0  0  0  0  0  0  0
    8.6816   -1.9722   -0.7569 C   0  0  0  0  0  0  0  0  0  0  0  0
    9.7750   -2.7716   -0.4551 N   0  0  0  0  0  0  0  0  0  0  0  0
    9.3906   -3.3929    0.7404 C   0  0  0  0  0  0  0  0  0  0  0  0
    8.2891   -3.0048    1.0808 N   0  0  0  0  0  0  0  0  0  0  0  0
    7.6770   -2.1030    0.2244 C   0  0  0  0  0  0  0  0  0  0  0  0
    6.5233   -1.4908    0.0719 C   0  0  0  0  0  0  0  0  0  0  0  0
   -1.6222    8.0854    1.0826 H   0  0  0  0  0  0  0  0  0  0  0  0
   -3.3800    7.9321    1.4645 H   0  0  0  0  0  0  0  0  0  0  0  0
   -2.7626    8.6054   -0.1570 H   0  0  0  0  0  0  0  0  0  0  0  0
   -2.4326    4.0628   -0.8416 H   0  0  0  0  0  0  0  0  0  0  0  0
   -0.2812    4.9081    3.4703 H   0  0  0  0  0  0  0  0  0  0  0  0
   -2.9306    0.0025   -1.6214 H   0  0  0  0  0  0  0  0  0  0  0  0
   -3.2842    1.6175   -0.9870 H   0  0  0  0  0  0  0  0  0  0  0  0
   -4.7747   -0.1201   -0.3106 H   0  0  0  0  0  0  0  0  0  0  0  0
   -4.0629    0.8027    1.0724 H   0  0  0  0  0  0  0  0  0  0  0  0
   -3.9253   -2.2465    2.3504 H   0  0  0  0  0  0  0  0  0  0  0  0
   -3.0566   -3.1408    1.1404 H   0  0  0  0  0  0  0  0  0  0  0  0
   -8.3584   -2.2774    1.1357 H   0  0  0  0  0  0  0  0  0  0  0  0
   -8.5702   -4.1841   -0.3585 H   0  0  0  0  0  0  0  0  0  0  0  0
   -6.4686   -5.1577   -1.2983 H   0  0  0  0  0  0  0  0  0  0  0  0
   -3.9294   -5.3972   -0.8673 H   0  0  0  0  0  0  0  0  0  0  0  0
   -3.0913   -3.7841   -0.6287 H   0  0  0  0  0  0  0  0  0  0  0  0
   -4.1459   -4.0482   -2.0513 H   0  0  0  0  0  0  0  0  0  0  0  0
   -1.8262   -1.5333    2.3397 H   0  0  0  0  0  0  0  0  0  0  0  0
   -2.5599    0.1620    2.3881 H   0  0  0  0  0  0  0  0  0  0  0  0
   -0.3137    0.2618    1.5475 H   0  0  0  0  0  0  0  0  0  0  0  0
   -0.5723   -1.1090    0.4614 H   0  0  0  0  0  0  0  0  0  0  0  0
    1.7691   -1.2166   -0.1356 H   0  0  0  0  0  0  0  0  0  0  0  0
    4.1278   -1.8719    0.0025 H   0  0  0  0  0  0  0  0  0  0  0  0
    5.1198    1.4840   -2.3772 H   0  0  0  0  0  0  0  0  0  0  0  0
    2.7630    2.0879   -2.5394 H   0  0  0  0  0  0  0  0  0  0  0  0
    6.9084    0.0811   -2.8403 H   0  0  0  0  0  0  0  0  0  0  0  0
    9.1308   -1.0572   -2.6077 H   0  0  0  0  0  0  0  0  0  0  0  0
   10.1332   -4.1133    1.1756 H   0  0  0  0  0  0  0  0  0  0  0  0
    7.7103   -3.2757    1.9671 H   0  0  0  0  0  0  0  0  0  0  0  0
    5.7540   -1.5659    0.8853 H   0  0  0  0  0  0  0  0  0  0  0  0
  1  2  1  0
  2  3  1  0
  3  4  2  0
  4  5  1  0
  5  6  2  0
  6  7  1  0
  7  8  2  0
  5  9  1  0
  9 10  1  0
 10 11  2  0
 10 12  1  0
 12 13  1  0
 13 14  2  0
 13 15  1  0
 15 16  1  0
 16 17  1  0
 17 18  1  0
 18 19  1  0
 19 20  1  0
 20 21  2  0
 21 22  1  0
 22 23  2  0
 23 24  1  0
 24 25  2  0
 25 26  1  0
 18 27  1  0
 27 28  1  0
 12 29  1  0
 29 30  2  0
 30 31  1  0
 31 32  2  0
 32 33  1  0
 33 34  2  0
 32 35  1  0
 35 36  2  0
 36 37  1  0
 37 38  2  0
 38 39  1  0
 39 40  2  0
 40 41  1  0
 41 42  1  0
 42 43  2  0
  8  3  1  0
 15  9  1  0
 28 15  1  0
 34 29  1  0
 43 35  1  0
 25 20  1  0
 42 38  1  0
  1 44  1  0
  1 45  1  0
  1 46  1  0
  4 47  1  0
  7 48  1  0
 16 49  1  0
 16 50  1  0
 17 51  1  0
 17 52  1  0
 19 53  1  0
 19 54  1  0
 22 55  1  0
 23 56  1  0
 24 57  1  0
 26 58  1  0
 26 59  1  0
 26 60  1  0
 27 61  1  0
 27 62  1  0
 28 63  1  0
 28 64  1  0
 30 65  1  0
 31 66  1  0
 33 67  1  0
 34 68  1  0
 36 69  1  0
 37 70  1  0
 40 71  1  0
 41 72  1  0
 43 73  1  0
M  END
$$$$
[H]c1nc2c([H])c(N([H])C(=O)C([H])([H])C3([H])C([H])([H])C3([H])[H])c([H])c(-c3c([H])c([H])c(C#N)c(F)c3[H])n2n1
     RDKit          3D

 39 42  0  0  0  0  0  0  0  0999 V2000
    5.3372    2.8506   -1.4302 F   0  0  0  0  0  0  0  0  0  0  0  0
    4.8440    1.9467   -0.5661 C   0  0  0  0  0  0  0  0  0  0  0  0
    3.6583    1.2725   -0.8049 C   0  0  0  0  0  0  0  0  0  0  0  0
    3.1489    0.3442    0.0791 C   0  0  0  0  0  0  0  0  0  0  0  0
    3.8201    0.0561    1.2491 C   0  0  0  0  0  0  0  0  0  0  0  0
    5.0025    0.7279    1.4881 C   0  0  0  0  0  0  0  0  0  0  0  0
    5.5088    1.6475    0.6140 C   0  0  0  0  0  0  0  0  0  0  0  0
    6.7507    2.3462    0.8757 C   0  0  0  0  0  0  0  0  0  0  0  0
    7.7420    2.9134    1.0688 N   0  0  0  0  0  0  0  0  0  0  0  0
    1.8949   -0.3757   -0.1629 C   0  0  0  0  0  0  0  0  0  0  0  0
    0.6941    0.1149    0.2640 C   0  0  0  0  0  0  0  0  0  0  0  0
   -0.5313   -0.5253    0.0629 C   0  0  0  0  0  0  0  0  0  0  0  0
   -1.6864    0.0951    0.5701 N   0  0  0  0  0  0  0  0  0  0  0  0
   -3.0213   -0.2630    0.2979 C   0  0  0  0  0  0  0  0  0  0  0  0
   -3.3173   -1.1944   -0.4474 O   0  0  0  0  0  0  0  0  0  0  0  0
   -4.1234    0.5075    0.9300 C   0  0  0  0  0  0  0  0  0  0  0  0
   -5.4769    0.0030    0.5400 C   0  0  0  0  0  0  0  0  0  0  0  0
   -5.9454   -0.0305   -0.8477 C   0  0  0  0  0  0  0  0  0  0  0  0
   -6.4094    1.1268    0.0126 C   0  0  0  0  0  0  0  0  0  0  0  0
   -0.4529   -1.7163   -0.6115 C   0  0  0  0  0  0  0  0  0  0  0  0
    0.7657   -2.2251   -1.0510 C   0  0  0  0  0  0  0  0  0  0  0  0
    1.0798   -3.3505   -1.7192 N   0  0  0  0  0  0  0  0  0  0  0  0
    2.4045   -3.3808   -1.9052 C   0  0  0  0  0  0  0  0  0  0  0  0
    2.8904   -2.2589   -1.3410 N   0  0  0  0  0  0  0  0  0  0  0  0
    1.8970   -1.5548   -0.8213 N   0  0  0  0  0  0  0  0  0  0  0  0
    3.0846    1.4553   -1.7068 H   0  0  0  0  0  0  0  0  0  0  0  0
    3.4372   -0.6619    1.9449 H   0  0  0  0  0  0  0  0  0  0  0  0
    5.5504    0.5101    2.4162 H   0  0  0  0  0  0  0  0  0  0  0  0
    0.7515    1.0784    0.7934 H   0  0  0  0  0  0  0  0  0  0  0  0
   -1.5004    0.9230    1.2370 H   0  0  0  0  0  0  0  0  0  0  0  0
   -3.9615    1.5855    0.6377 H   0  0  0  0  0  0  0  0  0  0  0  0
   -4.0420    0.5055    2.0460 H   0  0  0  0  0  0  0  0  0  0  0  0
   -5.9761   -0.7012    1.2690 H   0  0  0  0  0  0  0  0  0  0  0  0
   -6.7714   -0.7483   -1.0866 H   0  0  0  0  0  0  0  0  0  0  0  0
   -5.3046    0.1707   -1.7155 H   0  0  0  0  0  0  0  0  0  0  0  0
   -7.4365    1.1503    0.3995 H   0  0  0  0  0  0  0  0  0  0  0  0
   -5.9555    2.0819   -0.2510 H   0  0  0  0  0  0  0  0  0  0  0  0
   -1.3373   -2.2771   -0.8029 H   0  0  0  0  0  0  0  0  0  0  0  0
    2.9868   -4.1494   -2.4086 H   0  0  0  0  0  0  0  0  0  0  0  0
  1  2  1  0
  2  3  2  0
  3  4  1  0
  4  5  2  0
  5  6  1  0
  6  7  2  0
  7  8  1  0
  8  9  3  0
  4 10  1  0
 10 11  2  0
 11 12  1  0
 12 13  1  0
 13 14  1  0
 14 15  2  0
 14 16  1  0
 16 17  1  0
 17 18  1  0
 18 19  1  0
 12 20  2  0
 20 21  1  0
 21 22  2  0
 22 23  1  0
 23 24  2  0
 24 25  1  0
  7  2  1  0
 25 10  1  0
 19 17  1  0
 25 21  1  0
  3 26  1  0
  5 27  1  0
  6 28  1  0
 11 29  1  0
 13 30  1  0
 16 31  1  0
 16 32  1  0
 17 33  1  0
 18 34  1  0
 18 35  1  0
 19 36  1  0
 19 37  1  0
 20 38  1  0
 23 39  1  0
M  END
$$$$
[H]c1nc2c([H])c([H])c([H])c(-c3c([H])nc(C#N)c([H])c3C([H])([H])[H])n2n1
     RDKit          3D

 27 29  0  0  0  0  0  0  0  0999 V2000
    1.0045   -1.8610    0.2334 C   0  0  0  0  0  0  0  0  0  0  0  0
    1.5357   -0.4882    0.0273 C   0  0  0  0  0  0  0  0  0  0  0  0
    2.8744   -0.2876   -0.2531 C   0  0  0  0  0  0  0  0  0  0  0  0
    3.3525    0.9839   -0.4413 C   0  0  0  0  0  0  0  0  0  0  0  0
    2.5080    2.0141   -0.3493 N   0  0  0  0  0  0  0  0  0  0  0  0
    1.2055    1.8290   -0.0772 C   0  0  0  0  0  0  0  0  0  0  0  0
    0.6643    0.5758    0.1221 C   0  0  0  0  0  0  0  0  0  0  0  0
   -0.7241    0.3217    0.4163 C   0  0  0  0  0  0  0  0  0  0  0  0
   -1.1500    0.2870    1.7223 C   0  0  0  0  0  0  0  0  0  0  0  0
   -2.4914    0.0428    2.0422 C   0  0  0  0  0  0  0  0  0  0  0  0
   -3.3818   -0.1636    1.0071 C   0  0  0  0  0  0  0  0  0  0  0  0
   -2.9112   -0.1201   -0.2905 C   0  0  0  0  0  0  0  0  0  0  0  0
   -3.5692   -0.2867   -1.4484 N   0  0  0  0  0  0  0  0  0  0  0  0
   -2.6887   -0.1548   -2.4564 C   0  0  0  0  0  0  0  0  0  0  0  0
   -1.4948    0.0930   -1.8873 N   0  0  0  0  0  0  0  0  0  0  0  0
   -1.5981    0.1200   -0.5732 N   0  0  0  0  0  0  0  0  0  0  0  0
    4.7523    1.1474   -0.7310 C   0  0  0  0  0  0  0  0  0  0  0  0
    5.8826    1.2894   -0.9591 N   0  0  0  0  0  0  0  0  0  0  0  0
    0.4108   -1.9504    1.1617 H   0  0  0  0  0  0  0  0  0  0  0  0
    1.8589   -2.5749    0.3427 H   0  0  0  0  0  0  0  0  0  0  0  0
    0.4505   -2.2041   -0.6671 H   0  0  0  0  0  0  0  0  0  0  0  0
    3.5318   -1.1717   -0.3187 H   0  0  0  0  0  0  0  0  0  0  0  0
    0.5036    2.6648    0.0007 H   0  0  0  0  0  0  0  0  0  0  0  0
   -0.4893    0.4428    2.5639 H   0  0  0  0  0  0  0  0  0  0  0  0
   -2.7962    0.0217    3.0804 H   0  0  0  0  0  0  0  0  0  0  0  0
   -4.4204   -0.3527    1.2541 H   0  0  0  0  0  0  0  0  0  0  0  0
   -2.8201   -0.2177   -3.5215 H   0  0  0  0  0  0  0  0  0  0  0  0
  1  2  1  0
  2  3  2  0
  3  4  1  0
  4  5  2  0
  5  6  1  0
  6  7  2  0
  7  8  1  0
  8  9  2  0
  9 10  1  0
 10 11  2  0
 11 12  1  0
 12 13  2  0
 13 14  1  0
 14 15  2  0
 15 16  1  0
  4 17  1  0
 17 18  3  0
  7  2  1  0
 16  8  1  0
 16 12  1  0
  1 19  1  0
  1 20  1  0
  1 21  1  0
  3 22  1  0
  6 23  1  0
  9 24  1  0
 10 25  1  0
 11 26  1  0
 14 27  1  0
M  END
$$$$
[H]c1nc2c([H])c(N([H])C(=O)C3(C([H])([H])[H])C([H])([H])C3([H])[H])c([H])c(-c3c([H])c([H])c(C#N)c(F)c3[H])n2n1
     RDKit          3D

 39 42  0  0  0  0  0  0  0  0999 V2000
    3.9803   -0.2779    1.9995 C   0  0  0  0  0  0  0  0  0  0  0  0
    4.3594    0.0290    0.5864 C   0  0  0  0  0  0  0  0  0  0  0  0
    5.5684    0.7899    0.2316 C   0  0  0  0  0  0  0  0  0  0  0  0
    5.6153   -0.7097    0.1053 C   0  0  0  0  0  0  0  0  0  0  0  0
    3.2233    0.0887   -0.4095 C   0  0  0  0  0  0  0  0  0  0  0  0
    3.4688    0.3388   -1.6020 O   0  0  0  0  0  0  0  0  0  0  0  0
    1.9211   -0.1420    0.0508 N   0  0  0  0  0  0  0  0  0  0  0  0
    0.7126   -0.1469   -0.6775 C   0  0  0  0  0  0  0  0  0  0  0  0
   -0.5046   -0.0363   -0.0150 C   0  0  0  0  0  0  0  0  0  0  0  0
   -1.7338   -0.0492   -0.6287 C   0  0  0  0  0  0  0  0  0  0  0  0
   -2.9421    0.1047    0.1696 C   0  0  0  0  0  0  0  0  0  0  0  0
   -2.8788    0.7917    1.3967 C   0  0  0  0  0  0  0  0  0  0  0  0
   -3.9793    0.9481    2.2060 C   0  0  0  0  0  0  0  0  0  0  0  0
   -5.1987    0.4285    1.8340 C   0  0  0  0  0  0  0  0  0  0  0  0
   -6.3326    0.6009    2.6878 C   0  0  0  0  0  0  0  0  0  0  0  0
   -7.2548    0.7243    3.3690 N   0  0  0  0  0  0  0  0  0  0  0  0
   -5.2509   -0.2385    0.6383 C   0  0  0  0  0  0  0  0  0  0  0  0
   -6.4398   -0.7720    0.2263 F   0  0  0  0  0  0  0  0  0  0  0  0
   -4.1594   -0.4075   -0.1887 C   0  0  0  0  0  0  0  0  0  0  0  0
   -1.7306   -0.1802   -1.9785 N   0  0  0  0  0  0  0  0  0  0  0  0
   -2.6978   -0.2217   -2.8743 N   0  0  0  0  0  0  0  0  0  0  0  0
   -2.1867   -0.3551   -4.0974 C   0  0  0  0  0  0  0  0  0  0  0  0
   -0.8533   -0.3992   -3.9709 N   0  0  0  0  0  0  0  0  0  0  0  0
   -0.5772   -0.2899   -2.6539 C   0  0  0  0  0  0  0  0  0  0  0  0
    0.6839   -0.2777   -2.0307 C   0  0  0  0  0  0  0  0  0  0  0  0
    4.8717   -0.4497    2.6248 H   0  0  0  0  0  0  0  0  0  0  0  0
    3.3685    0.5156    2.4795 H   0  0  0  0  0  0  0  0  0  0  0  0
    3.3732   -1.2195    2.0410 H   0  0  0  0  0  0  0  0  0  0  0  0
    6.2388    1.2281    0.9920 H   0  0  0  0  0  0  0  0  0  0  0  0
    5.5525    1.3705   -0.7302 H   0  0  0  0  0  0  0  0  0  0  0  0
    5.5286   -1.2015   -0.8665 H   0  0  0  0  0  0  0  0  0  0  0  0
    6.2134   -1.2574    0.8669 H   0  0  0  0  0  0  0  0  0  0  0  0
    1.7789   -0.3570    1.1076 H   0  0  0  0  0  0  0  0  0  0  0  0
   -0.4631    0.0627    1.0571 H   0  0  0  0  0  0  0  0  0  0  0  0
   -1.9464    1.2141    1.7158 H   0  0  0  0  0  0  0  0  0  0  0  0
   -3.9114    1.4881    3.1623 H   0  0  0  0  0  0  0  0  0  0  0  0
   -4.2511   -0.9584   -1.1253 H   0  0  0  0  0  0  0  0  0  0  0  0
   -2.7355   -0.4200   -5.0556 H   0  0  0  0  0  0  0  0  0  0  0  0
    1.5694   -0.3819   -2.6434 H   0  0  0  0  0  0  0  0  0  0  0  0
  1  2  1  0
  2  3  1  0
  3  4  1  0
  2  5  1  0
  5  6  2  0
  5  7  1  0
  7  8  1  0
  8  9  1  0
  9 10  2  0
 10 11  1  0
 11 12  2  0
 12 13  1  0
 13 14  2  0
 14 15  1  0
 15 16  3  0
 14 17  1  0
 17 18  1  0
 17 19  2  0
 10 20  1  0
 20 21  1  0
 21 22  2  0
 22 23  1  0
 23 24  2  0
 24 25  1  0
  4  2  1  0
 25  8  2  0
 19 11  1  0
 24 20  1  0
  1 26  1  0
  1 27  1  0
  1 28  1  0
  3 29  1  0
  3 30  1  0
  4 31  1  0
  4 32  1  0
  7 33  1  0
  9 34  1  0
 12 35  1  0
 13 36  1  0
 19 37  1  0
 22 38  1  0
 25 39  1  0
M  END
$$$$
[H]OC(=O)c1c([H])c([H])c(-c2c([H])c([H])c(N3C(=O)N(c4nc([H])nc([H])c4[H])C4(C3=O)C([H])([H])C([H])([H])N(C([H])([H])c3nc([H])c([H])c([H])c3C([H])([H])[H])C([H])([H])C4([H])[H])c([H])c2[H])c(C([H])([H])[H])c1[H]
     RDKit          3D

 72 77  0  0  0  0  0  0  0  0999 V2000
   -8.0785    0.3756    1.5524 C   0  0  0  0  0  0  0  0  0  0  0  0
   -7.3010    1.2459    0.6268 C   0  0  0  0  0  0  0  0  0  0  0  0
   -7.9352    2.4028    0.1504 C   0  0  0  0  0  0  0  0  0  0  0  0
   -7.2533    3.2382   -0.7047 C   0  0  0  0  0  0  0  0  0  0  0  0
   -5.9687    2.8992   -1.0579 C   0  0  0  0  0  0  0  0  0  0  0  0
   -5.3976    1.7846   -0.5807 N   0  0  0  0  0  0  0  0  0  0  0  0
   -6.0169    0.9421    0.2507 C   0  0  0  0  0  0  0  0  0  0  0  0
   -5.3417   -0.2619    0.7301 C   0  0  0  0  0  0  0  0  0  0  0  0
   -4.0169   -0.4641    0.2842 N   0  0  0  0  0  0  0  0  0  0  0  0
   -3.0546    0.5291    0.6422 C   0  0  0  0  0  0  0  0  0  0  0  0
   -1.7323   -0.1899    0.7814 C   0  0  0  0  0  0  0  0  0  0  0  0
   -1.4032   -1.0757   -0.3594 C   0  0  0  0  0  0  0  0  0  0  0  0
   -2.5126   -1.4901   -1.2522 C   0  0  0  0  0  0  0  0  0  0  0  0
   -3.8192   -0.8011   -1.0813 C   0  0  0  0  0  0  0  0  0  0  0  0
   -0.8181   -2.3032    0.1906 N   0  0  0  0  0  0  0  0  0  0  0  0
    0.5738   -2.0374    0.4570 C   0  0  0  0  0  0  0  0  0  0  0  0
    1.2158   -2.7082    1.2714 O   0  0  0  0  0  0  0  0  0  0  0  0
    0.9366   -0.9335   -0.3756 N   0  0  0  0  0  0  0  0  0  0  0  0
   -0.2096   -0.5504   -1.1234 C   0  0  0  0  0  0  0  0  0  0  0  0
   -0.3065    0.0890   -2.1992 O   0  0  0  0  0  0  0  0  0  0  0  0
    2.2126   -0.3269   -0.4237 C   0  0  0  0  0  0  0  0  0  0  0  0
    2.6839    0.3080   -1.5412 C   0  0  0  0  0  0  0  0  0  0  0  0
    3.9332    0.8846   -1.5148 C   0  0  0  0  0  0  0  0  0  0  0  0
    4.7334    0.8499   -0.4079 C   0  0  0  0  0  0  0  0  0  0  0  0
    4.2749    0.2152    0.7243 C   0  0  0  0  0  0  0  0  0  0  0  0
    3.0242   -0.3603    0.6945 C   0  0  0  0  0  0  0  0  0  0  0  0
    6.0387    1.4888   -0.4015 C   0  0  0  0  0  0  0  0  0  0  0  0
    6.1897    2.8211   -0.7537 C   0  0  0  0  0  0  0  0  0  0  0  0
    7.4108    3.4564   -0.7288 C   0  0  0  0  0  0  0  0  0  0  0  0
    8.5068    2.7224   -0.3370 C   0  0  0  0  0  0  0  0  0  0  0  0
    8.3698    1.3913    0.0170 C   0  0  0  0  0  0  0  0  0  0  0  0
    7.1323    0.7507   -0.0093 C   0  0  0  0  0  0  0  0  0  0  0  0
    7.0498   -0.7021    0.3743 C   0  0  0  0  0  0  0  0  0  0  0  0
    9.7963    3.3775   -0.3045 C   0  0  0  0  0  0  0  0  0  0  0  0
    9.9414    4.7018   -0.6501 O   0  0  0  0  0  0  0  0  0  0  0  0
   10.8010    2.7212    0.0467 O   0  0  0  0  0  0  0  0  0  0  0  0
   -1.4640   -3.5489    0.4353 C   0  0  0  0  0  0  0  0  0  0  0  0
   -2.4005   -3.7058    1.4304 C   0  0  0  0  0  0  0  0  0  0  0  0
   -3.0257   -4.9164    1.6713 C   0  0  0  0  0  0  0  0  0  0  0  0
   -2.7192   -5.9871    0.9163 N   0  0  0  0  0  0  0  0  0  0  0  0
   -1.8068   -5.8154   -0.0454 C   0  0  0  0  0  0  0  0  0  0  0  0
   -1.1825   -4.6485   -0.3022 N   0  0  0  0  0  0  0  0  0  0  0  0
   -8.9468    0.9228    1.9641 H   0  0  0  0  0  0  0  0  0  0  0  0
   -8.3858   -0.5833    1.0543 H   0  0  0  0  0  0  0  0  0  0  0  0
   -7.4214    0.1526    2.4408 H   0  0  0  0  0  0  0  0  0  0  0  0
   -8.9451    2.6704    0.4265 H   0  0  0  0  0  0  0  0  0  0  0  0
   -7.7342    4.1521   -1.0894 H   0  0  0  0  0  0  0  0  0  0  0  0
   -5.4405    3.5590   -1.7288 H   0  0  0  0  0  0  0  0  0  0  0  0
   -5.3094   -0.2983    1.8599 H   0  0  0  0  0  0  0  0  0  0  0  0
   -5.9146   -1.2025    0.4669 H   0  0  0  0  0  0  0  0  0  0  0  0
   -3.2499    1.0430    1.5815 H   0  0  0  0  0  0  0  0  0  0  0  0
   -2.9089    1.2633   -0.1970 H   0  0  0  0  0  0  0  0  0  0  0  0
   -1.7381   -0.7030    1.7614 H   0  0  0  0  0  0  0  0  0  0  0  0
   -0.9150    0.5836    0.8720 H   0  0  0  0  0  0  0  0  0  0  0  0
   -2.1599   -1.3035   -2.3115 H   0  0  0  0  0  0  0  0  0  0  0  0
   -2.6898   -2.6060   -1.2505 H   0  0  0  0  0  0  0  0  0  0  0  0
   -4.6270   -1.4916   -1.4640 H   0  0  0  0  0  0  0  0  0  0  0  0
   -3.8499    0.0791   -1.7644 H   0  0  0  0  0  0  0  0  0  0  0  0
    2.0879    0.3670   -2.4684 H   0  0  0  0  0  0  0  0  0  0  0  0
    4.2449    1.3753   -2.4422 H   0  0  0  0  0  0  0  0  0  0  0  0
    4.8905    0.1704    1.6414 H   0  0  0  0  0  0  0  0  0  0  0  0
    2.7205   -0.8429    1.6232 H   0  0  0  0  0  0  0  0  0  0  0  0
    5.3287    3.3678   -1.0534 H   0  0  0  0  0  0  0  0  0  0  0  0
    7.4480    4.4964   -1.0177 H   0  0  0  0  0  0  0  0  0  0  0  0
    9.2319    0.7956    0.3303 H   0  0  0  0  0  0  0  0  0  0  0  0
    7.0353   -0.8667    1.4498 H   0  0  0  0  0  0  0  0  0  0  0  0
    6.2941   -1.2515   -0.2132 H   0  0  0  0  0  0  0  0  0  0  0  0
    8.0356   -1.1309    0.0172 H   0  0  0  0  0  0  0  0  0  0  0  0
    9.8150    5.4690    0.0042 H   0  0  0  0  0  0  0  0  0  0  0  0
   -2.6713   -2.8699    2.0567 H   0  0  0  0  0  0  0  0  0  0  0  0
   -3.7615   -5.0349    2.4583 H   0  0  0  0  0  0  0  0  0  0  0  0
   -1.5237   -6.6511   -0.6817 H   0  0  0  0  0  0  0  0  0  0  0  0
  1  2  1  0
  2  3  2  0
  3  4  1  0
  4  5  2  0
  5  6  1  0
  6  7  2  0
  7  8  1  0
  8  9  1  0
  9 10  1  0
 10 11  1  0
 11 12  1  0
 12 13  1  0
 13 14  1  0
 12 15  1  0
 15 16  1  0
 16 17  2  0
 16 18  1  0
 18 19  1  0
 19 20  2  0
 18 21  1  0
 21 22  2  0
 22 23  1  0
 23 24  2  0
 24 25  1  0
 25 26  2  0
 24 27  1  0
 27 28  2  0
 28 29  1  0
 29 30  2  0
 30 31  1  0
 31 32  2  0
 32 33  1  0
 30 34  1  0
 34 35  1  0
 34 36  2  0
 15 37  1  0
 37 38  2  0
 38 39  1  0
 39 40  2  0
 40 41  1  0
 41 42  2  0
  7  2  1  0
 14  9  1  0
 26 21  1  0
 32 27  1  0
 42 37  1  0
 19 12  1  0
  1 43  1  0
  1 44  1  0
  1 45  1  0
  3 46  1  0
  4 47  1  0
  5 48  1  0
  8 49  1  0
  8 50  1  0
 10 51  1  0
 10 52  1  0
 11 53  1  0
 11 54  1  0
 13 55  1  0
 13 56  1  0
 14 57  1  0
 14 58  1  0
 22 59  1  0
 23 60  1  0
 25 61  1  0
 26 62  1  0
 28 63  1  0
 29 64  1  0
 31 65  1  0
 33 66  1  0
 33 67  1  0
 33 68  1  0
 35 69  1  0
 38 70  1  0
 39 71  1  0
 41 72  1  0
M  END
$$$$
[H]OC(=O)c1c([H])c([H])c(-c2c([H])c([H])c(N3C(=O)N(c4nc([H])nc(C([H])([H])[H])c4[H])C4(C3=O)C([H])([H])C([H])([H])N(C([H])([H])c3nc([H])c([H])c([H])c3C([H])([H])[H])C([H])([H])C4([H])[H])c([H])c2[H])c(C([H])([H])[H])c1[H]
     RDKit          3D

 75 80  0  0  0  0  0  0  0  0999 V2000
   -0.8670    6.8549   -1.3278 C   0  0  0  0  0  0  0  0  0  0  0  0
   -1.4349    5.7466   -0.5105 C   0  0  0  0  0  0  0  0  0  0  0  0
   -0.8910    4.4820   -0.5741 C   0  0  0  0  0  0  0  0  0  0  0  0
   -1.4601    3.4993    0.2067 C   0  0  0  0  0  0  0  0  0  0  0  0
   -2.4973    3.8107    0.9781 N   0  0  0  0  0  0  0  0  0  0  0  0
   -3.0027    5.0304    1.0231 C   0  0  0  0  0  0  0  0  0  0  0  0
   -2.4888    6.0280    0.2843 N   0  0  0  0  0  0  0  0  0  0  0  0
   -0.9156    2.1787    0.1643 N   0  0  0  0  0  0  0  0  0  0  0  0
    0.4459    1.9240    0.4825 C   0  0  0  0  0  0  0  0  0  0  0  0
    1.2263    2.7323    1.0648 O   0  0  0  0  0  0  0  0  0  0  0  0
    0.7513    0.6123    0.0285 N   0  0  0  0  0  0  0  0  0  0  0  0
   -0.4070    0.0782   -0.5544 C   0  0  0  0  0  0  0  0  0  0  0  0
   -0.4865   -0.9463   -1.2707 O   0  0  0  0  0  0  0  0  0  0  0  0
   -1.5955    0.9273   -0.1959 C   0  0  0  0  0  0  0  0  0  0  0  0
   -2.3608    0.3487    0.9479 C   0  0  0  0  0  0  0  0  0  0  0  0
   -3.8310    0.2894    0.5966 C   0  0  0  0  0  0  0  0  0  0  0  0
   -3.9613   -0.4809   -0.5926 N   0  0  0  0  0  0  0  0  0  0  0  0
   -5.2709   -1.0119   -0.7977 C   0  0  0  0  0  0  0  0  0  0  0  0
   -5.7369   -2.0235    0.1402 C   0  0  0  0  0  0  0  0  0  0  0  0
   -4.9625   -2.4852    1.1327 N   0  0  0  0  0  0  0  0  0  0  0  0
   -5.3928   -3.4374    1.9830 C   0  0  0  0  0  0  0  0  0  0  0  0
   -6.6591   -3.9601    1.8426 C   0  0  0  0  0  0  0  0  0  0  0  0
   -7.4824   -3.5026    0.8265 C   0  0  0  0  0  0  0  0  0  0  0  0
   -7.0102   -2.5295   -0.0236 C   0  0  0  0  0  0  0  0  0  0  0  0
   -7.8444   -2.0104   -1.1131 C   0  0  0  0  0  0  0  0  0  0  0  0
   -3.4949    0.2556   -1.7257 C   0  0  0  0  0  0  0  0  0  0  0  0
   -2.3790    1.1946   -1.4333 C   0  0  0  0  0  0  0  0  0  0  0  0
    2.0269    0.0243    0.1661 C   0  0  0  0  0  0  0  0  0  0  0  0
    2.6749   -0.5377   -0.9400 C   0  0  0  0  0  0  0  0  0  0  0  0
    3.9222   -1.0793   -0.7757 C   0  0  0  0  0  0  0  0  0  0  0  0
    4.5372   -1.0780    0.4432 C   0  0  0  0  0  0  0  0  0  0  0  0
    3.8816   -0.5213    1.5181 C   0  0  0  0  0  0  0  0  0  0  0  0
    2.6485    0.0234    1.3951 C   0  0  0  0  0  0  0  0  0  0  0  0
    5.8949   -1.6250    0.6444 C   0  0  0  0  0  0  0  0  0  0  0  0
    6.1768   -2.5589    1.6190 C   0  0  0  0  0  0  0  0  0  0  0  0
    7.4729   -3.0632    1.7759 C   0  0  0  0  0  0  0  0  0  0  0  0
    8.5012   -2.6430    0.9640 C   0  0  0  0  0  0  0  0  0  0  0  0
    8.2205   -1.7118   -0.0076 C   0  0  0  0  0  0  0  0  0  0  0  0
    6.9179   -1.2052   -0.1644 C   0  0  0  0  0  0  0  0  0  0  0  0
    6.6922   -0.1990   -1.2070 C   0  0  0  0  0  0  0  0  0  0  0  0
    9.8722   -3.1605    1.1218 C   0  0  0  0  0  0  0  0  0  0  0  0
   10.2047   -4.0834    2.0879 O   0  0  0  0  0  0  0  0  0  0  0  0
   10.7929   -2.7606    0.3588 O   0  0  0  0  0  0  0  0  0  0  0  0
   -1.6222    7.6344   -1.5492 H   0  0  0  0  0  0  0  0  0  0  0  0
   -0.0006    7.3288   -0.8145 H   0  0  0  0  0  0  0  0  0  0  0  0
   -0.5654    6.3970   -2.2935 H   0  0  0  0  0  0  0  0  0  0  0  0
   -0.0360    4.2861   -1.2289 H   0  0  0  0  0  0  0  0  0  0  0  0
   -3.8550    5.3098    1.6491 H   0  0  0  0  0  0  0  0  0  0  0  0
   -2.2016    0.8531    1.9175 H   0  0  0  0  0  0  0  0  0  0  0  0
   -2.0428   -0.7217    1.1033 H   0  0  0  0  0  0  0  0  0  0  0  0
   -4.4369   -0.0767    1.4304 H   0  0  0  0  0  0  0  0  0  0  0  0
   -4.1374    1.3435    0.3640 H   0  0  0  0  0  0  0  0  0  0  0  0
   -5.9886   -0.1388   -0.6880 H   0  0  0  0  0  0  0  0  0  0  0  0
   -5.3935   -1.3137   -1.8661 H   0  0  0  0  0  0  0  0  0  0  0  0
   -4.7862   -3.8243    2.7906 H   0  0  0  0  0  0  0  0  0  0  0  0
   -7.0306   -4.7367    2.5238 H   0  0  0  0  0  0  0  0  0  0  0  0
   -8.4777   -3.9263    0.7301 H   0  0  0  0  0  0  0  0  0  0  0  0
   -8.7430   -2.6717   -1.2688 H   0  0  0  0  0  0  0  0  0  0  0  0
   -7.2822   -2.0595   -2.0746 H   0  0  0  0  0  0  0  0  0  0  0  0
   -8.2617   -1.0052   -0.9088 H   0  0  0  0  0  0  0  0  0  0  0  0
   -3.2518   -0.4509   -2.5541 H   0  0  0  0  0  0  0  0  0  0  0  0
   -4.3695    0.8683   -2.0973 H   0  0  0  0  0  0  0  0  0  0  0  0
   -2.7217    2.2609   -1.4674 H   0  0  0  0  0  0  0  0  0  0  0  0
   -1.6652    1.1292   -2.3063 H   0  0  0  0  0  0  0  0  0  0  0  0
    2.1383   -0.5084   -1.8735 H   0  0  0  0  0  0  0  0  0  0  0  0
    4.4086   -1.5174   -1.6389 H   0  0  0  0  0  0  0  0  0  0  0  0
    4.3617   -0.5118    2.5099 H   0  0  0  0  0  0  0  0  0  0  0  0
    2.1657    0.4481    2.2585 H   0  0  0  0  0  0  0  0  0  0  0  0
    5.3669   -2.8874    2.2563 H   0  0  0  0  0  0  0  0  0  0  0  0
    7.6894   -3.7948    2.5421 H   0  0  0  0  0  0  0  0  0  0  0  0
    9.0213   -1.3740   -0.6503 H   0  0  0  0  0  0  0  0  0  0  0  0
    5.9579    0.5862   -0.9641 H   0  0  0  0  0  0  0  0  0  0  0  0
    7.6611    0.3835   -1.3466 H   0  0  0  0  0  0  0  0  0  0  0  0
    6.5521   -0.6874   -2.1893 H   0  0  0  0  0  0  0  0  0  0  0  0
   11.1183   -4.0483    2.5468 H   0  0  0  0  0  0  0  0  0  0  0  0
  1  2  1  0
  2  3  2  0
  3  4  1  0
  4  5  2  0
  5  6  1  0
  6  7  2  0
  4  8  1  0
  8  9  1  0
  9 10  2  0
  9 11  1  0
 11 12  1  0
 12 13  2  0
 12 14  1  0
 14 15  1  0
 15 16  1  0
 16 17  1  0
 17 18  1  0
 18 19  1  0
 19 20  2  0
 20 21  1  0
 21 22  2  0
 22 23  1  0
 23 24  2  0
 24 25  1  0
 17 26  1  0
 26 27  1  0
 11 28  1  0
 28 29  2  0
 29 30  1  0
 30 31  2  0
 31 32  1  0
 32 33  2  0
 31 34  1  0
 34 35  2  0
 35 36  1  0
 36 37  2  0
 37 38  1  0
 38 39  2  0
 39 40  1  0
 37 41  1  0
 41 42  1  0
 41 43  2  0
  7  2  1  0
 14  8  1  0
 27 14  1  0
 33 28  1  0
 39 34  1  0
 24 19  1  0
  1 44  1  0
  1 45  1  0
  1 46  1  0
  3 47  1  0
  6 48  1  0
 15 49  1  0
 15 50  1  0
 16 51  1  0
 16 52  1  0
 18 53  1  0
 18 54  1  0
 21 55  1  0
 22 56  1  0
 23 57  1  0
 25 58  1  0
 25 59  1  0
 25 60  1  0
 26 61  1  0
 26 62  1  0
 27 63  1  0
 27 64  1  0
 29 65  1  0
 30 66  1  0
 32 67  1  0
 33 68  1  0
 35 69  1  0
 36 70  1  0
 38 71  1  0
 40 72  1  0
 40 73  1  0
 40 74  1  0
 42 75  1  0
M  END
$$$$
[H]c1nc(C([H])([H])N2C([H])([H])C([H])([H])C3(C(=O)N(c4c([H])c([H])c(N5C(=O)C([H])([H])C5([H])[H])c([H])c4[H])C(=O)N3c3nc([H])n([H])c(=O)c3[H])C([H])([H])C2([H])[H])c(C([H])([H])[H])c([H])c1[H]
     RDKit          3D

 65 70  0  0  0  0  0  0  0  0999 V2000
   -5.4923    2.1201   -1.9816 C   0  0  0  0  0  0  0  0  0  0  0  0
   -5.2461    2.3878   -0.5779 C   0  0  0  0  0  0  0  0  0  0  0  0
   -5.7293    3.5688   -0.0377 C   0  0  0  0  0  0  0  0  0  0  0  0
   -5.5093    3.8510    1.3056 C   0  0  0  0  0  0  0  0  0  0  0  0
   -4.8109    2.9239    2.0368 C   0  0  0  0  0  0  0  0  0  0  0  0
   -4.3510    1.7748    1.4726 N   0  0  0  0  0  0  0  0  0  0  0  0
   -4.5463    1.4748    0.1844 C   0  0  0  0  0  0  0  0  0  0  0  0
   -4.0725    0.2598   -0.4243 C   0  0  0  0  0  0  0  0  0  0  0  0
   -3.3427   -0.6617    0.4177 N   0  0  0  0  0  0  0  0  0  0  0  0
   -2.9504   -1.8557   -0.2886 C   0  0  0  0  0  0  0  0  0  0  0  0
   -1.6374   -1.6915   -1.0258 C   0  0  0  0  0  0  0  0  0  0  0  0
   -0.4817   -1.4797   -0.0897 C   0  0  0  0  0  0  0  0  0  0  0  0
   -1.0213   -1.0235    1.2145 C   0  0  0  0  0  0  0  0  0  0  0  0
   -2.1786   -0.0819    1.0499 C   0  0  0  0  0  0  0  0  0  0  0  0
    0.4266   -2.5897   -0.0214 N   0  0  0  0  0  0  0  0  0  0  0  0
    1.7520   -2.0180    0.0686 C   0  0  0  0  0  0  0  0  0  0  0  0
    2.8066   -2.6183    0.4367 O   0  0  0  0  0  0  0  0  0  0  0  0
    1.6931   -0.6538   -0.3261 N   0  0  0  0  0  0  0  0  0  0  0  0
    0.3534   -0.3883   -0.6546 C   0  0  0  0  0  0  0  0  0  0  0  0
   -0.0245    0.6301   -1.3252 O   0  0  0  0  0  0  0  0  0  0  0  0
    2.7995    0.2434   -0.3675 C   0  0  0  0  0  0  0  0  0  0  0  0
    3.6863    0.2312    0.7135 C   0  0  0  0  0  0  0  0  0  0  0  0
    4.7810    1.0719    0.7474 C   0  0  0  0  0  0  0  0  0  0  0  0
    5.0000    1.9295   -0.2946 C   0  0  0  0  0  0  0  0  0  0  0  0
    4.1124    1.9267   -1.3548 C   0  0  0  0  0  0  0  0  0  0  0  0
    3.0136    1.1032   -1.4192 C   0  0  0  0  0  0  0  0  0  0  0  0
    6.1269    2.7908   -0.2526 N   0  0  0  0  0  0  0  0  0  0  0  0
    7.0291    3.3220    0.7272 C   0  0  0  0  0  0  0  0  0  0  0  0
    7.2796    4.4615   -0.2507 C   0  0  0  0  0  0  0  0  0  0  0  0
    6.8196    3.4972   -1.2819 C   0  0  0  0  0  0  0  0  0  0  0  0
    6.9721    3.3542   -2.5387 O   0  0  0  0  0  0  0  0  0  0  0  0
    0.2453   -3.9914   -0.0307 C   0  0  0  0  0  0  0  0  0  0  0  0
   -0.4941   -4.6834    0.8907 C   0  0  0  0  0  0  0  0  0  0  0  0
   -0.6380   -6.0513    0.8325 C   0  0  0  0  0  0  0  0  0  0  0  0
   -1.3132   -6.7024    1.6704 O   0  0  0  0  0  0  0  0  0  0  0  0
   -0.0380   -6.7616   -0.1598 N   0  0  0  0  0  0  0  0  0  0  0  0
    0.6784   -6.1026   -1.0553 C   0  0  0  0  0  0  0  0  0  0  0  0
    0.8149   -4.7735   -0.9938 N   0  0  0  0  0  0  0  0  0  0  0  0
   -6.2591    2.8151   -2.3760 H   0  0  0  0  0  0  0  0  0  0  0  0
   -4.6187    2.1757   -2.6455 H   0  0  0  0  0  0  0  0  0  0  0  0
   -5.9221    1.0828   -2.1205 H   0  0  0  0  0  0  0  0  0  0  0  0
   -6.2821    4.2982   -0.6206 H   0  0  0  0  0  0  0  0  0  0  0  0
   -5.8949    4.7760    1.7008 H   0  0  0  0  0  0  0  0  0  0  0  0
   -4.6426    3.1426    3.0827 H   0  0  0  0  0  0  0  0  0  0  0  0
   -3.3370    0.5461   -1.2374 H   0  0  0  0  0  0  0  0  0  0  0  0
   -4.8325   -0.3463   -0.9562 H   0  0  0  0  0  0  0  0  0  0  0  0
   -2.8778   -2.6662    0.4663 H   0  0  0  0  0  0  0  0  0  0  0  0
   -3.6898   -2.1882   -1.0355 H   0  0  0  0  0  0  0  0  0  0  0  0
   -1.7832   -0.8611   -1.7490 H   0  0  0  0  0  0  0  0  0  0  0  0
   -1.4880   -2.6086   -1.6216 H   0  0  0  0  0  0  0  0  0  0  0  0
   -1.3378   -1.8072    1.9152 H   0  0  0  0  0  0  0  0  0  0  0  0
   -0.2308   -0.4410    1.7590 H   0  0  0  0  0  0  0  0  0  0  0  0
   -1.8952    0.9013    0.6213 H   0  0  0  0  0  0  0  0  0  0  0  0
   -2.4968    0.1496    2.1149 H   0  0  0  0  0  0  0  0  0  0  0  0
    3.5551   -0.4307    1.5622 H   0  0  0  0  0  0  0  0  0  0  0  0
    5.4607    1.0436    1.6070 H   0  0  0  0  0  0  0  0  0  0  0  0
    4.3142    2.6136   -2.1541 H   0  0  0  0  0  0  0  0  0  0  0  0
    2.3178    1.0953   -2.2426 H   0  0  0  0  0  0  0  0  0  0  0  0
    6.5610    3.6898    1.6690 H   0  0  0  0  0  0  0  0  0  0  0  0
    7.9444    2.6988    0.9299 H   0  0  0  0  0  0  0  0  0  0  0  0
    6.5390    5.2838   -0.0787 H   0  0  0  0  0  0  0  0  0  0  0  0
    8.3237    4.7883   -0.3351 H   0  0  0  0  0  0  0  0  0  0  0  0
   -0.9758   -4.1533    1.6786 H   0  0  0  0  0  0  0  0  0  0  0  0
   -0.1430   -7.7792   -0.2055 H   0  0  0  0  0  0  0  0  0  0  0  0
    1.1788   -6.6136   -1.8692 H   0  0  0  0  0  0  0  0  0  0  0  0
  1  2  1  0
  2  3  2  0
  3  4  1  0
  4  5  2  0
  5  6  1  0
  6  7  2  0
  7  8  1  0
  8  9  1  0
  9 10  1  0
 10 11  1  0
 11 12  1  0
 12 13  1  0
 13 14  1  0
 12 15  1  0
 15 16  1  0
 16 17  2  0
 16 18  1  0
 18 19  1  0
 19 20  2  0
 18 21  1  0
 21 22  2  0
 22 23  1  0
 23 24  2  0
 24 25  1  0
 25 26  2  0
 24 27  1  0
 27 28  1  0
 28 29  1  0
 29 30  1  0
 30 31  2  0
 15 32  1  0
 32 33  2  0
 33 34  1  0
 34 35  2  0
 34 36  1  0
 36 37  1  0
 37 38  2  0
  7  2  1  0
 14  9  1  0
 26 21  1  0
 30 27  1  0
 38 32  1  0
 19 12  1  0
  1 39  1  0
  1 40  1  0
  1 41  1  0
  3 42  1  0
  4 43  1  0
  5 44  1  0
  8 45  1  0
  8 46  1  0
 10 47  1  0
 10 48  1  0
 11 49  1  0
 11 50  1  0
 13 51  1  0
 13 52  1  0
 14 53  1  0
 14 54  1  0
 22 55  1  0
 23 56  1  0
 25 57  1  0
 26 58  1  0
 28 59  1  0
 28 60  1  0
 29 61  1  0
 29 62  1  0
 33 63  1  0
 36 64  1  0
 37 65  1  0
M  END
$$$$
[H]c1nc2c([H])c(N([H])C(=O)C([H])([H])C(F)(F)F)c([H])c(-c3c([H])c([H])c(C#N)c([H])c3[H])n2n1
     RDKit          3D

 35 37  0  0  0  0  0  0  0  0999 V2000
   -7.1576    1.7756    0.0339 F   0  0  0  0  0  0  0  0  0  0  0  0
   -6.1975    0.7879   -0.0169 C   0  0  0  0  0  0  0  0  0  0  0  0
   -6.3793   -0.0629   -1.0760 F   0  0  0  0  0  0  0  0  0  0  0  0
   -6.3606    0.0319    1.1457 F   0  0  0  0  0  0  0  0  0  0  0  0
   -4.8021    1.3635   -0.0073 C   0  0  0  0  0  0  0  0  0  0  0  0
   -3.7661    0.2540   -0.0639 C   0  0  0  0  0  0  0  0  0  0  0  0
   -4.2027   -0.8915   -0.1070 O   0  0  0  0  0  0  0  0  0  0  0  0
   -2.4186    0.6462   -0.0614 N   0  0  0  0  0  0  0  0  0  0  0  0
   -1.3035   -0.1981   -0.1098 C   0  0  0  0  0  0  0  0  0  0  0  0
   -0.0218    0.3733    0.0133 C   0  0  0  0  0  0  0  0  0  0  0  0
    1.0840   -0.4041   -0.0341 C   0  0  0  0  0  0  0  0  0  0  0  0
    2.4403    0.1943    0.0954 C   0  0  0  0  0  0  0  0  0  0  0  0
    3.1424    0.6234   -1.0097 C   0  0  0  0  0  0  0  0  0  0  0  0
    4.4012    1.1815   -0.9163 C   0  0  0  0  0  0  0  0  0  0  0  0
    5.0055    1.3285    0.3154 C   0  0  0  0  0  0  0  0  0  0  0  0
    4.3020    0.8985    1.4220 C   0  0  0  0  0  0  0  0  0  0  0  0
    3.0444    0.3414    1.3250 C   0  0  0  0  0  0  0  0  0  0  0  0
    6.3222    1.9092    0.4435 C   0  0  0  0  0  0  0  0  0  0  0  0
    7.3769    2.3717    0.5572 N   0  0  0  0  0  0  0  0  0  0  0  0
    0.9524   -1.7322   -0.2002 N   0  0  0  0  0  0  0  0  0  0  0  0
    1.8980   -2.6638   -0.2729 N   0  0  0  0  0  0  0  0  0  0  0  0
    1.3011   -3.8343   -0.4396 C   0  0  0  0  0  0  0  0  0  0  0  0
   -0.0275   -3.6389   -0.4721 N   0  0  0  0  0  0  0  0  0  0  0  0
   -0.2247   -2.3220   -0.3212 C   0  0  0  0  0  0  0  0  0  0  0  0
   -1.3823   -1.5505   -0.2769 C   0  0  0  0  0  0  0  0  0  0  0  0
   -4.6308    1.9338    0.9133 H   0  0  0  0  0  0  0  0  0  0  0  0
   -4.6286    1.9755   -0.9142 H   0  0  0  0  0  0  0  0  0  0  0  0
   -2.2275    1.6980   -0.0193 H   0  0  0  0  0  0  0  0  0  0  0  0
    0.0874    1.4417    0.1471 H   0  0  0  0  0  0  0  0  0  0  0  0
    2.6476    0.4996   -1.9850 H   0  0  0  0  0  0  0  0  0  0  0  0
    4.9388    1.5133   -1.7944 H   0  0  0  0  0  0  0  0  0  0  0  0
    4.8079    1.0286    2.3855 H   0  0  0  0  0  0  0  0  0  0  0  0
    2.5343    0.0198    2.2242 H   0  0  0  0  0  0  0  0  0  0  0  0
    1.7466   -4.8149   -0.5394 H   0  0  0  0  0  0  0  0  0  0  0  0
   -2.3016   -2.0780   -0.3836 H   0  0  0  0  0  0  0  0  0  0  0  0
  1  2  1  0
  2  3  1  0
  2  4  1  0
  2  5  1  0
  5  6  1  0
  6  7  2  0
  6  8  1  0
  8  9  1  0
  9 10  1  0
 10 11  2  0
 11 12  1  0
 12 13  2  0
 13 14  1  0
 14 15  2  0
 15 16  1  0
 16 17  2  0
 15 18  1  0
 18 19  3  0
 11 20  1  0
 20 21  1  0
 21 22  2  0
 22 23  1  0
 23 24  2  0
 24 25  1  0
 25  9  2  0
 17 12  1  0
 24 20  1  0
  5 26  1  0
  5 27  1  0
  8 28  1  0
 10 29  1  0
 13 30  1  0
 14 31  1  0
 16 32  1  0
 17 33  1  0
 22 34  1  0
 25 35  1  0
M  END
$$$$
[H]c1nc2c([H])c(N([H])[H])c([H])c(-c3c([H])c([H])c(C#N)c(F)c3C([H])([H])[H])n2n1
     RDKit          3D

 30 32  0  0  0  0  0  0  0  0999 V2000
    0.8080   -1.9218    1.0016 C   0  0  0  0  0  0  0  0  0  0  0  0
    1.5769   -0.7961    0.4074 C   0  0  0  0  0  0  0  0  0  0  0  0
    2.9344   -0.8005    0.3253 C   0  0  0  0  0  0  0  0  0  0  0  0
    3.5976   -1.8837    0.8101 F   0  0  0  0  0  0  0  0  0  0  0  0
    3.6365    0.2704   -0.2381 C   0  0  0  0  0  0  0  0  0  0  0  0
    2.9609    1.3694   -0.7298 C   0  0  0  0  0  0  0  0  0  0  0  0
    1.5841    1.3745   -0.6469 C   0  0  0  0  0  0  0  0  0  0  0  0
    0.8845    0.3018   -0.0828 C   0  0  0  0  0  0  0  0  0  0  0  0
   -0.5642    0.3175   -0.0005 C   0  0  0  0  0  0  0  0  0  0  0  0
   -1.2648    0.8269    1.0747 C   0  0  0  0  0  0  0  0  0  0  0  0
   -2.6209    0.8418    1.1525 C   0  0  0  0  0  0  0  0  0  0  0  0
   -3.3105    1.3720    2.2702 N   0  0  0  0  0  0  0  0  0  0  0  0
   -3.3632    0.3269    0.1154 C   0  0  0  0  0  0  0  0  0  0  0  0
   -2.6542   -0.1879   -0.9712 C   0  0  0  0  0  0  0  0  0  0  0  0
   -3.1555   -0.7378   -2.0887 N   0  0  0  0  0  0  0  0  0  0  0  0
   -2.1075   -1.0898   -2.8512 C   0  0  0  0  0  0  0  0  0  0  0  0
   -0.9998   -0.7463   -2.1806 N   0  0  0  0  0  0  0  0  0  0  0  0
   -1.3098   -0.1910   -1.0242 N   0  0  0  0  0  0  0  0  0  0  0  0
    5.0812    0.2240   -0.3052 C   0  0  0  0  0  0  0  0  0  0  0  0
    6.2429    0.1791   -0.3477 N   0  0  0  0  0  0  0  0  0  0  0  0
   -0.1848   -1.6119    1.3214 H   0  0  0  0  0  0  0  0  0  0  0  0
    0.7051   -2.7213    0.2320 H   0  0  0  0  0  0  0  0  0  0  0  0
    1.3340   -2.3379    1.8789 H   0  0  0  0  0  0  0  0  0  0  0  0
    3.4889    2.2059   -1.1687 H   0  0  0  0  0  0  0  0  0  0  0  0
    1.0590    2.2382   -1.0337 H   0  0  0  0  0  0  0  0  0  0  0  0
   -0.6699    1.2295    1.8850 H   0  0  0  0  0  0  0  0  0  0  0  0
   -4.1479    0.9336    2.6950 H   0  0  0  0  0  0  0  0  0  0  0  0
   -2.9281    2.2697    2.6774 H   0  0  0  0  0  0  0  0  0  0  0  0
   -4.4501    0.3176    0.1339 H   0  0  0  0  0  0  0  0  0  0  0  0
   -2.1630   -1.5726   -3.8456 H   0  0  0  0  0  0  0  0  0  0  0  0
  1  2  1  0
  2  3  2  0
  3  4  1  0
  3  5  1  0
  5  6  2  0
  6  7  1  0
  7  8  2  0
  8  9  1  0
  9 10  2  0
 10 11  1  0
 11 12  1  0
 11 13  2  0
 13 14  1  0
 14 15  2  0
 15 16  1  0
 16 17  2  0
 17 18  1  0
  5 19  1  0
 19 20  3  0
  8  2  1  0
 18  9  1  0
 18 14  1  0
  1 21  1  0
  1 22  1  0
  1 23  1  0
  6 24  1  0
  7 25  1  0
 10 26  1  0
 12 27  1  0
 12 28  1  0
 13 29  1  0
 16 30  1  0
M  END
$$$$
[H]OC(=O)c1sc(-c2c([H])c([H])c(N3C(=O)N(c4nc([H])nc(OC([H])([H])[H])c4[H])C4(C3=O)C([H])([H])C([H])([H])N(C([H])([H])c3nc([H])c([H])c([H])c3C([H])([H])[H])C([H])([H])C4([H])[H])c([H])c2[H])c([H])c1[H]
     RDKit          3D

 70 75  0  0  0  0  0  0  0  0999 V2000
    2.5113    7.2619   -1.5716 C   0  0  0  0  0  0  0  0  0  0  0  0
    1.8906    5.9986   -1.5494 O   0  0  0  0  0  0  0  0  0  0  0  0
    1.7027    5.2541   -0.4122 C   0  0  0  0  0  0  0  0  0  0  0  0
    1.0720    4.0140   -0.5378 C   0  0  0  0  0  0  0  0  0  0  0  0
    0.8562    3.2234    0.5614 C   0  0  0  0  0  0  0  0  0  0  0  0
    1.2600    3.6631    1.7546 N   0  0  0  0  0  0  0  0  0  0  0  0
    1.8787    4.8757    1.8911 C   0  0  0  0  0  0  0  0  0  0  0  0
    2.0885    5.6460    0.8108 N   0  0  0  0  0  0  0  0  0  0  0  0
    0.2157    1.9671    0.4510 N   0  0  0  0  0  0  0  0  0  0  0  0
   -1.2232    1.8184    0.4398 C   0  0  0  0  0  0  0  0  0  0  0  0
   -2.0407    2.7063    0.7503 O   0  0  0  0  0  0  0  0  0  0  0  0
   -1.5679    0.5080    0.0222 N   0  0  0  0  0  0  0  0  0  0  0  0
   -0.3228   -0.1508   -0.2253 C   0  0  0  0  0  0  0  0  0  0  0  0
   -0.1937   -1.2386   -0.8273 O   0  0  0  0  0  0  0  0  0  0  0  0
    0.7872    0.6590    0.3440 C   0  0  0  0  0  0  0  0  0  0  0  0
    1.0940    0.1583    1.7462 C   0  0  0  0  0  0  0  0  0  0  0  0
    2.0027   -1.0253    1.7244 C   0  0  0  0  0  0  0  0  0  0  0  0
    3.3534   -0.7197    1.2416 N   0  0  0  0  0  0  0  0  0  0  0  0
    3.8831   -1.8493    0.5310 C   0  0  0  0  0  0  0  0  0  0  0  0
    5.2716   -1.7903    0.1037 C   0  0  0  0  0  0  0  0  0  0  0  0
    6.0394   -0.7330    0.3776 N   0  0  0  0  0  0  0  0  0  0  0  0
    7.3332   -0.6815   -0.0088 C   0  0  0  0  0  0  0  0  0  0  0  0
    7.8695   -1.7422   -0.6981 C   0  0  0  0  0  0  0  0  0  0  0  0
    7.0883   -2.8391   -0.9864 C   0  0  0  0  0  0  0  0  0  0  0  0
    5.7834   -2.8789   -0.5914 C   0  0  0  0  0  0  0  0  0  0  0  0
    4.9137   -4.0218   -0.8674 C   0  0  0  0  0  0  0  0  0  0  0  0
    3.2438    0.5002    0.5039 C   0  0  0  0  0  0  0  0  0  0  0  0
    2.0415    0.5460   -0.4454 C   0  0  0  0  0  0  0  0  0  0  0  0
   -2.8807   -0.0655   -0.1223 C   0  0  0  0  0  0  0  0  0  0  0  0
   -3.4120   -0.4188   -1.3516 C   0  0  0  0  0  0  0  0  0  0  0  0
   -4.6875   -0.9822   -1.4607 C   0  0  0  0  0  0  0  0  0  0  0  0
   -5.4283   -1.1901   -0.3304 C   0  0  0  0  0  0  0  0  0  0  0  0
   -4.9128   -0.8431    0.8977 C   0  0  0  0  0  0  0  0  0  0  0  0
   -3.6398   -0.2815    1.0004 C   0  0  0  0  0  0  0  0  0  0  0  0
   -6.7692   -1.7846   -0.3704 C   0  0  0  0  0  0  0  0  0  0  0  0
   -7.4631   -2.2212   -1.4730 C   0  0  0  0  0  0  0  0  0  0  0  0
   -8.6831   -2.7355   -1.2704 C   0  0  0  0  0  0  0  0  0  0  0  0
   -9.1483   -2.7890    0.0167 C   0  0  0  0  0  0  0  0  0  0  0  0
   -7.8529   -2.1114    0.9057 S   0  0  0  0  0  0  0  0  0  0  0  0
  -10.4276   -3.3020    0.4885 C   0  0  0  0  0  0  0  0  0  0  0  0
  -11.3286   -3.8119   -0.4060 O   0  0  0  0  0  0  0  0  0  0  0  0
  -10.6840   -3.2699    1.7015 O   0  0  0  0  0  0  0  0  0  0  0  0
    2.3421    7.6913   -2.5824 H   0  0  0  0  0  0  0  0  0  0  0  0
    3.5720    7.1187   -1.3262 H   0  0  0  0  0  0  0  0  0  0  0  0
    1.9703    7.8998   -0.8323 H   0  0  0  0  0  0  0  0  0  0  0  0
    0.7548    3.6850   -1.5150 H   0  0  0  0  0  0  0  0  0  0  0  0
    2.2065    5.2283    2.8594 H   0  0  0  0  0  0  0  0  0  0  0  0
    0.1107   -0.2122    2.1399 H   0  0  0  0  0  0  0  0  0  0  0  0
    1.4005    0.9623    2.4289 H   0  0  0  0  0  0  0  0  0  0  0  0
    1.5808   -1.7467    0.9802 H   0  0  0  0  0  0  0  0  0  0  0  0
    1.9929   -1.5139    2.7023 H   0  0  0  0  0  0  0  0  0  0  0  0
    3.6478   -2.7430    1.1574 H   0  0  0  0  0  0  0  0  0  0  0  0
    3.2536   -1.9629   -0.4074 H   0  0  0  0  0  0  0  0  0  0  0  0
    7.9561    0.1996    0.2231 H   0  0  0  0  0  0  0  0  0  0  0  0
    8.9041   -1.7665   -1.0404 H   0  0  0  0  0  0  0  0  0  0  0  0
    7.4706   -3.7013   -1.5272 H   0  0  0  0  0  0  0  0  0  0  0  0
    4.2073   -3.8620   -1.6990 H   0  0  0  0  0  0  0  0  0  0  0  0
    5.5540   -4.8837   -1.1441 H   0  0  0  0  0  0  0  0  0  0  0  0
    4.4201   -4.3069    0.0847 H   0  0  0  0  0  0  0  0  0  0  0  0
    3.0398    1.3018    1.2646 H   0  0  0  0  0  0  0  0  0  0  0  0
    4.1564    0.7789   -0.0178 H   0  0  0  0  0  0  0  0  0  0  0  0
    2.1166   -0.3437   -1.0782 H   0  0  0  0  0  0  0  0  0  0  0  0
    2.2391    1.4464   -1.0865 H   0  0  0  0  0  0  0  0  0  0  0  0
   -2.8183   -0.2505   -2.2297 H   0  0  0  0  0  0  0  0  0  0  0  0
   -5.0651   -1.2418   -2.4367 H   0  0  0  0  0  0  0  0  0  0  0  0
   -5.4622   -0.9880    1.8165 H   0  0  0  0  0  0  0  0  0  0  0  0
   -3.2780   -0.0271    1.9701 H   0  0  0  0  0  0  0  0  0  0  0  0
   -7.0109   -2.1435   -2.4948 H   0  0  0  0  0  0  0  0  0  0  0  0
   -9.3331   -3.1185   -2.0932 H   0  0  0  0  0  0  0  0  0  0  0  0
  -11.4424   -4.8226   -0.5834 H   0  0  0  0  0  0  0  0  0  0  0  0
  1  2  1  0
  2  3  1  0
  3  4  2  0
  4  5  1  0
  5  6  2  0
  6  7  1  0
  7  8  2  0
  5  9  1  0
  9 10  1  0
 10 11  2  0
 10 12  1  0
 12 13  1  0
 13 14  2  0
 13 15  1  0
 15 16  1  0
 16 17  1  0
 17 18  1  0
 18 19  1  0
 19 20  1  0
 20 21  2  0
 21 22  1  0
 22 23  2  0
 23 24  1  0
 24 25  2  0
 25 26  1  0
 18 27  1  0
 27 28  1  0
 12 29  1  0
 29 30  2  0
 30 31  1  0
 31 32  2  0
 32 33  1  0
 33 34  2  0
 32 35  1  0
 35 36  2  0
 36 37  1  0
 37 38  2  0
 38 39  1  0
 38 40  1  0
 40 41  1  0
 40 42  2  0
  8  3  1  0
 15  9  1  0
 28 15  1  0
 34 29  1  0
 39 35  1  0
 25 20  1  0
  1 43  1  0
  1 44  1  0
  1 45  1  0
  4 46  1  0
  7 47  1  0
 16 48  1  0
 16 49  1  0
 17 50  1  0
 17 51  1  0
 19 52  1  0
 19 53  1  0
 22 54  1  0
 23 55  1  0
 24 56  1  0
 26 57  1  0
 26 58  1  0
 26 59  1  0
 27 60  1  0
 27 61  1  0
 28 62  1  0
 28 63  1  0
 30 64  1  0
 31 65  1  0
 33 66  1  0
 34 67  1  0
 36 68  1  0
 37 69  1  0
 41 70  1  0
M  END
$$$$
[H]c1nc2c([H])c(N([H])C([H])([H])C([H])([H])OC([H])([H])[H])c([H])c(-c3c([H])c([H])c(C#N)c([H])c3[H])n2n1
     RDKit          3D

 37 39  0  0  0  0  0  0  0  0999 V2000
    5.9844   -0.8829    0.5957 C   0  0  0  0  0  0  0  0  0  0  0  0
    5.5782   -1.6288   -0.4926 O   0  0  0  0  0  0  0  0  0  0  0  0
    4.2662   -1.9826   -0.3953 C   0  0  0  0  0  0  0  0  0  0  0  0
    3.3702   -0.7968   -0.3367 C   0  0  0  0  0  0  0  0  0  0  0  0
    1.9627   -1.1729   -0.2447 N   0  0  0  0  0  0  0  0  0  0  0  0
    1.0113   -0.1275   -0.1825 C   0  0  0  0  0  0  0  0  0  0  0  0
   -0.3241   -0.4628   -0.0951 C   0  0  0  0  0  0  0  0  0  0  0  0
   -1.3039    0.5120   -0.0311 C   0  0  0  0  0  0  0  0  0  0  0  0
   -2.6876    0.1344    0.0595 C   0  0  0  0  0  0  0  0  0  0  0  0
   -3.4535   -0.0533   -1.0957 C   0  0  0  0  0  0  0  0  0  0  0  0
   -4.7697   -0.4116   -1.0555 C   0  0  0  0  0  0  0  0  0  0  0  0
   -5.3679   -0.5958    0.1657 C   0  0  0  0  0  0  0  0  0  0  0  0
   -4.6356   -0.4169    1.3057 C   0  0  0  0  0  0  0  0  0  0  0  0
   -3.2949   -0.0522    1.2836 C   0  0  0  0  0  0  0  0  0  0  0  0
   -6.7586   -0.9758    0.2872 C   0  0  0  0  0  0  0  0  0  0  0  0
   -7.8734   -1.2881    0.3725 N   0  0  0  0  0  0  0  0  0  0  0  0
   -0.9565    1.8246   -0.0538 N   0  0  0  0  0  0  0  0  0  0  0  0
   -1.6783    2.9371   -0.0067 N   0  0  0  0  0  0  0  0  0  0  0  0
   -0.8838    4.0176   -0.0587 C   0  0  0  0  0  0  0  0  0  0  0  0
    0.3801    3.5326   -0.1413 N   0  0  0  0  0  0  0  0  0  0  0  0
    0.3367    2.1893   -0.1384 C   0  0  0  0  0  0  0  0  0  0  0  0
    1.3229    1.2016   -0.2029 C   0  0  0  0  0  0  0  0  0  0  0  0
    7.0946   -0.6454    0.4927 H   0  0  0  0  0  0  0  0  0  0  0  0
    5.7958   -1.4120    1.5354 H   0  0  0  0  0  0  0  0  0  0  0  0
    5.5483    0.1598    0.6107 H   0  0  0  0  0  0  0  0  0  0  0  0
    3.9214   -2.6316   -1.2336 H   0  0  0  0  0  0  0  0  0  0  0  0
    4.1501   -2.6372    0.5222 H   0  0  0  0  0  0  0  0  0  0  0  0
    3.6444   -0.1992    0.5825 H   0  0  0  0  0  0  0  0  0  0  0  0
    3.4684   -0.1121   -1.1913 H   0  0  0  0  0  0  0  0  0  0  0  0
    1.6981   -2.1580   -0.2275 H   0  0  0  0  0  0  0  0  0  0  0  0
   -0.6546   -1.4918   -0.0735 H   0  0  0  0  0  0  0  0  0  0  0  0
   -2.9383    0.1033   -2.0368 H   0  0  0  0  0  0  0  0  0  0  0  0
   -5.3182   -0.5446   -1.9634 H   0  0  0  0  0  0  0  0  0  0  0  0
   -5.1115   -0.5634    2.2752 H   0  0  0  0  0  0  0  0  0  0  0  0
   -2.7531    0.0786    2.2114 H   0  0  0  0  0  0  0  0  0  0  0  0
   -1.1325    5.0641   -0.0424 H   0  0  0  0  0  0  0  0  0  0  0  0
    2.3621    1.4882   -0.2709 H   0  0  0  0  0  0  0  0  0  0  0  0
  1  2  1  0
  2  3  1  0
  3  4  1  0
  4  5  1  0
  5  6  1  0
  6  7  1  0
  7  8  2  0
  8  9  1  0
  9 10  2  0
 10 11  1  0
 11 12  2  0
 12 13  1  0
 13 14  2  0
 12 15  1  0
 15 16  3  0
  8 17  1  0
 17 18  1  0
 18 19  2  0
 19 20  1  0
 20 21  2  0
 21 22  1  0
 22  6  2  0
 14  9  1  0
 21 17  1  0
  1 23  1  0
  1 24  1  0
  1 25  1  0
  3 26  1  0
  3 27  1  0
  4 28  1  0
  4 29  1  0
  5 30  1  0
  7 31  1  0
 10 32  1  0
 11 33  1  0
 13 34  1  0
 14 35  1  0
 19 36  1  0
 22 37  1  0
M  END
$$$$
[H]c1nc2c([H])c(N([H])[H])c([H])c(-c3c([H])c(F)c(C#N)c([H])c3C([H])([H])[H])n2n1
     RDKit          3D

 30 32  0  0  0  0  0  0  0  0999 V2000
    1.2104   -1.9842   -0.3524 C   0  0  0  0  0  0  0  0  0  0  0  0
    1.6755   -0.5962   -0.2234 C   0  0  0  0  0  0  0  0  0  0  0  0
    3.0297   -0.3513   -0.2735 C   0  0  0  0  0  0  0  0  0  0  0  0
    3.5386    0.9452   -0.1573 C   0  0  0  0  0  0  0  0  0  0  0  0
    4.9439    1.2103   -0.2082 C   0  0  0  0  0  0  0  0  0  0  0  0
    6.0741    1.4094   -0.2504 N   0  0  0  0  0  0  0  0  0  0  0  0
    2.6123    1.9512    0.0086 C   0  0  0  0  0  0  0  0  0  0  0  0
    3.0484    3.2447    0.1287 F   0  0  0  0  0  0  0  0  0  0  0  0
    1.2432    1.7046    0.0595 C   0  0  0  0  0  0  0  0  0  0  0  0
    0.7609    0.4177   -0.0572 C   0  0  0  0  0  0  0  0  0  0  0  0
   -0.6682    0.1639   -0.0038 C   0  0  0  0  0  0  0  0  0  0  0  0
   -1.3871    0.1827   -1.1770 C   0  0  0  0  0  0  0  0  0  0  0  0
   -2.7675   -0.0561   -1.1773 C   0  0  0  0  0  0  0  0  0  0  0  0
   -3.5074   -0.0370   -2.3826 N   0  0  0  0  0  0  0  0  0  0  0  0
   -3.3295   -0.3039    0.0564 C   0  0  0  0  0  0  0  0  0  0  0  0
   -2.6063   -0.3233    1.2404 C   0  0  0  0  0  0  0  0  0  0  0  0
   -2.9305   -0.5366    2.5292 N   0  0  0  0  0  0  0  0  0  0  0  0
   -1.8224   -0.4363    3.2779 C   0  0  0  0  0  0  0  0  0  0  0  0
   -0.8237   -0.1589    2.4206 N   0  0  0  0  0  0  0  0  0  0  0  0
   -1.2625   -0.0828    1.1749 N   0  0  0  0  0  0  0  0  0  0  0  0
    0.1224   -2.0616   -0.5526 H   0  0  0  0  0  0  0  0  0  0  0  0
    1.4425   -2.4913    0.6296 H   0  0  0  0  0  0  0  0  0  0  0  0
    1.7877   -2.4880   -1.1571 H   0  0  0  0  0  0  0  0  0  0  0  0
    3.7629   -1.1358   -0.4036 H   0  0  0  0  0  0  0  0  0  0  0  0
    0.5258    2.5098    0.1909 H   0  0  0  0  0  0  0  0  0  0  0  0
   -0.9542    0.3755   -2.1434 H   0  0  0  0  0  0  0  0  0  0  0  0
   -3.4040   -0.7569   -3.1187 H   0  0  0  0  0  0  0  0  0  0  0  0
   -4.1836    0.7322   -2.5361 H   0  0  0  0  0  0  0  0  0  0  0  0
   -4.3992   -0.4930    0.0896 H   0  0  0  0  0  0  0  0  0  0  0  0
   -1.7325   -0.5538    4.3684 H   0  0  0  0  0  0  0  0  0  0  0  0
  1  2  1  0
  2  3  2  0
  3  4  1  0
  4  5  1  0
  5  6  3  0
  4  7  2  0
  7  8  1  0
  7  9  1  0
  9 10  2  0
 10 11  1  0
 11 12  2  0
 12 13  1  0
 13 14  1  0
 13 15  2  0
 15 16  1  0
 16 17  2  0
 17 18  1  0
 18 19  2  0
 19 20  1  0
 10  2  1  0
 20 11  1  0
 20 16  1  0
  1 21  1  0
  1 22  1  0
  1 23  1  0
  3 24  1  0
  9 25  1  0
 12 26  1  0
 14 27  1  0
 14 28  1  0
 15 29  1  0
 18 30  1  0
M  END
$$$$
[H]c1nc2c([H])c([H])c([H])c(-c3c([H])c([H])c(C#N)c([H])c3C([H])([H])[H])n2n1
     RDKit          3D

 28 30  0  0  0  0  0  0  0  0999 V2000
    0.8284   -1.9515    0.9934 C   0  0  0  0  0  0  0  0  0  0  0  0
    1.3816   -0.6813    0.5163 C   0  0  0  0  0  0  0  0  0  0  0  0
    2.6804   -0.3447    0.8242 C   0  0  0  0  0  0  0  0  0  0  0  0
    3.2200    0.8596    0.3775 C   0  0  0  0  0  0  0  0  0  0  0  0
    2.4732    1.7395   -0.3790 C   0  0  0  0  0  0  0  0  0  0  0  0
    1.1748    1.3735   -0.6710 C   0  0  0  0  0  0  0  0  0  0  0  0
    0.6329    0.1674   -0.2242 C   0  0  0  0  0  0  0  0  0  0  0  0
   -0.7507   -0.0897   -0.6070 C   0  0  0  0  0  0  0  0  0  0  0  0
   -1.1052   -0.7433   -1.7690 C   0  0  0  0  0  0  0  0  0  0  0  0
   -2.4262   -0.9725   -2.1051 C   0  0  0  0  0  0  0  0  0  0  0  0
   -3.4230   -0.5411   -1.2645 C   0  0  0  0  0  0  0  0  0  0  0  0
   -3.0716    0.1079   -0.1104 C   0  0  0  0  0  0  0  0  0  0  0  0
   -3.7785    0.6435    0.9013 N   0  0  0  0  0  0  0  0  0  0  0  0
   -2.9294    1.1597    1.7852 C   0  0  0  0  0  0  0  0  0  0  0  0
   -1.6979    0.9520    1.3355 N   0  0  0  0  0  0  0  0  0  0  0  0
   -1.7766    0.3067    0.1721 N   0  0  0  0  0  0  0  0  0  0  0  0
    4.5743    1.2372    0.6843 C   0  0  0  0  0  0  0  0  0  0  0  0
    5.6486    1.5325    0.9397 N   0  0  0  0  0  0  0  0  0  0  0  0
   -0.2712   -1.9175    1.1382 H   0  0  0  0  0  0  0  0  0  0  0  0
    1.1032   -2.7645    0.2635 H   0  0  0  0  0  0  0  0  0  0  0  0
    1.3509   -2.2148    1.9370 H   0  0  0  0  0  0  0  0  0  0  0  0
    3.3304   -0.9792    1.4118 H   0  0  0  0  0  0  0  0  0  0  0  0
    2.8658    2.6857   -0.7418 H   0  0  0  0  0  0  0  0  0  0  0  0
    0.5865    2.0636   -1.2653 H   0  0  0  0  0  0  0  0  0  0  0  0
   -0.2832   -1.0682   -2.4064 H   0  0  0  0  0  0  0  0  0  0  0  0
   -2.6177   -1.4931   -3.0362 H   0  0  0  0  0  0  0  0  0  0  0  0
   -4.4565   -0.7243   -1.5344 H   0  0  0  0  0  0  0  0  0  0  0  0
   -3.2634    1.6569    2.7053 H   0  0  0  0  0  0  0  0  0  0  0  0
  1  2  1  0
  2  3  2  0
  3  4  1  0
  4  5  2  0
  5  6  1  0
  6  7  2  0
  7  8  1  0
  8  9  2  0
  9 10  1  0
 10 11  2  0
 11 12  1  0
 12 13  2  0
 13 14  1  0
 14 15  2  0
 15 16  1  0
  4 17  1  0
 17 18  3  0
  7  2  1  0
 16  8  1  0
 16 12  1  0
  1 19  1  0
  1 20  1  0
  1 21  1  0
  3 22  1  0
  5 23  1  0
  6 24  1  0
  9 25  1  0
 10 26  1  0
 11 27  1  0
 14 28  1  0
M  END
$$$$
[H]c1nc2c([H])c([H])c([H])c(-c3c([H])c([H])c(C#N)c(F)c3C([H])([H])[H])n2n1
     RDKit          3D

 28 30  0  0  0  0  0  0  0  0999 V2000
    0.9597   -1.7125    1.1133 C   0  0  0  0  0  0  0  0  0  0  0  0
    1.4314   -0.5257    0.3609 C   0  0  0  0  0  0  0  0  0  0  0  0
    2.7709   -0.2117    0.4421 C   0  0  0  0  0  0  0  0  0  0  0  0
    3.6190   -0.9779    1.1937 F   0  0  0  0  0  0  0  0  0  0  0  0
    3.2974    0.8743   -0.2244 C   0  0  0  0  0  0  0  0  0  0  0  0
    2.4246    1.6329   -0.9762 C   0  0  0  0  0  0  0  0  0  0  0  0
    1.0750    1.3161   -1.0576 C   0  0  0  0  0  0  0  0  0  0  0  0
    0.5597    0.2286   -0.3874 C   0  0  0  0  0  0  0  0  0  0  0  0
   -0.8496   -0.1081   -0.4682 C   0  0  0  0  0  0  0  0  0  0  0  0
   -1.2812   -0.9572   -1.4613 C   0  0  0  0  0  0  0  0  0  0  0  0
   -2.6267   -1.3101   -1.5795 C   0  0  0  0  0  0  0  0  0  0  0  0
   -3.5232   -0.7915   -0.6798 C   0  0  0  0  0  0  0  0  0  0  0  0
   -3.0734    0.0584    0.3096 C   0  0  0  0  0  0  0  0  0  0  0  0
   -3.6910    0.7140    1.3167 N   0  0  0  0  0  0  0  0  0  0  0  0
   -2.7951    1.4298    2.0194 C   0  0  0  0  0  0  0  0  0  0  0  0
   -1.6073    1.1993    1.4201 N   0  0  0  0  0  0  0  0  0  0  0  0
   -1.7629    0.3759    0.3906 N   0  0  0  0  0  0  0  0  0  0  0  0
    4.6777    1.2443   -0.1745 C   0  0  0  0  0  0  0  0  0  0  0  0
    5.8027    1.5346   -0.1490 N   0  0  0  0  0  0  0  0  0  0  0  0
    1.6506   -1.9209    1.9687 H   0  0  0  0  0  0  0  0  0  0  0  0
   -0.0378   -1.5580    1.5708 H   0  0  0  0  0  0  0  0  0  0  0  0
    0.9997   -2.6198    0.4758 H   0  0  0  0  0  0  0  0  0  0  0  0
    2.7942    2.5038   -1.5228 H   0  0  0  0  0  0  0  0  0  0  0  0
    0.4098    1.9254   -1.6532 H   0  0  0  0  0  0  0  0  0  0  0  0
   -0.6189   -1.3964   -2.1988 H   0  0  0  0  0  0  0  0  0  0  0  0
   -2.9972   -1.9653   -2.3363 H   0  0  0  0  0  0  0  0  0  0  0  0
   -4.5804   -1.0283   -0.7200 H   0  0  0  0  0  0  0  0  0  0  0  0
   -3.0278    2.0463    2.8783 H   0  0  0  0  0  0  0  0  0  0  0  0
  1  2  1  0
  2  3  2  0
  3  4  1  0
  3  5  1  0
  5  6  2  0
  6  7  1  0
  7  8  2  0
  8  9  1  0
  9 10  2  0
 10 11  1  0
 11 12  2  0
 12 13  1  0
 13 14  2  0
 14 15  1  0
 15 16  2  0
 16 17  1  0
  5 18  1  0
 18 19  3  0
  8  2  1  0
 17  9  1  0
 17 13  1  0
  1 20  1  0
  1 21  1  0
  1 22  1  0
  6 23  1  0
  7 24  1  0
 10 25  1  0
 11 26  1  0
 12 27  1  0
 15 28  1  0
M  END
$$$$
[H]c1nc(C([H])([H])N2C([H])([H])C([H])([H])C3(C(=O)N(c4c([H])c([H])c(-c5c([H])c([H])c([H])c([H])c5[H])c([H])c4[H])C(=O)N3c3nc([H])c([H])c(=O)n3[H])C([H])([H])C2([H])[H])c(C([H])([H])[H])c([H])c1[H]
     RDKit          3D

 67 72  0  0  0  0  0  0  0  0999 V2000
   -6.9286   -2.0505    0.5954 C   0  0  0  0  0  0  0  0  0  0  0  0
   -7.0863   -0.5782    0.3568 C   0  0  0  0  0  0  0  0  0  0  0  0
   -8.2732   -0.0161    0.0379 C   0  0  0  0  0  0  0  0  0  0  0  0
   -8.2574    1.3172   -0.3524 C   0  0  0  0  0  0  0  0  0  0  0  0
   -7.0797    1.9960   -0.4157 C   0  0  0  0  0  0  0  0  0  0  0  0
   -5.8876    1.3723   -0.0856 N   0  0  0  0  0  0  0  0  0  0  0  0
   -5.8534    0.1072    0.3067 C   0  0  0  0  0  0  0  0  0  0  0  0
   -4.7338   -0.5457    0.9533 C   0  0  0  0  0  0  0  0  0  0  0  0
   -3.6202   -0.8583    0.2096 N   0  0  0  0  0  0  0  0  0  0  0  0
   -2.6380   -1.6366    0.9437 C   0  0  0  0  0  0  0  0  0  0  0  0
   -1.3916   -0.7753    1.0073 C   0  0  0  0  0  0  0  0  0  0  0  0
   -0.8080   -0.5388   -0.3824 C   0  0  0  0  0  0  0  0  0  0  0  0
   -1.8300   -0.7790   -1.4230 C   0  0  0  0  0  0  0  0  0  0  0  0
   -3.2290   -0.3004   -0.9860 C   0  0  0  0  0  0  0  0  0  0  0  0
   -0.1427    0.6901   -0.3439 N   0  0  0  0  0  0  0  0  0  0  0  0
    1.1400    0.5158   -1.0367 C   0  0  0  0  0  0  0  0  0  0  0  0
    1.8548    1.4105   -1.5030 O   0  0  0  0  0  0  0  0  0  0  0  0
    1.4504   -0.9024   -1.0615 N   0  0  0  0  0  0  0  0  0  0  0  0
    0.3691   -1.5678   -0.5271 C   0  0  0  0  0  0  0  0  0  0  0  0
    0.2026   -2.7129   -0.1881 O   0  0  0  0  0  0  0  0  0  0  0  0
    2.8265   -1.2550   -1.2334 C   0  0  0  0  0  0  0  0  0  0  0  0
    3.5906   -0.7330   -2.2025 C   0  0  0  0  0  0  0  0  0  0  0  0
    4.9980   -0.6389   -1.9999 C   0  0  0  0  0  0  0  0  0  0  0  0
    5.5238   -1.0644   -0.8282 C   0  0  0  0  0  0  0  0  0  0  0  0
    4.7357   -1.6398    0.1680 C   0  0  0  0  0  0  0  0  0  0  0  0
    3.4022   -1.7450   -0.0372 C   0  0  0  0  0  0  0  0  0  0  0  0
    6.8884   -0.8078   -0.4156 C   0  0  0  0  0  0  0  0  0  0  0  0
    7.5948   -1.6760    0.3922 C   0  0  0  0  0  0  0  0  0  0  0  0
    8.8615   -1.4012    0.8443 C   0  0  0  0  0  0  0  0  0  0  0  0
    9.4707   -0.1987    0.4825 C   0  0  0  0  0  0  0  0  0  0  0  0
    8.7896    0.6522   -0.3291 C   0  0  0  0  0  0  0  0  0  0  0  0
    7.5363    0.3621   -0.7631 C   0  0  0  0  0  0  0  0  0  0  0  0
   -0.2223    1.9882    0.2865 C   0  0  0  0  0  0  0  0  0  0  0  0
   -0.4947    3.1081   -0.3232 N   0  0  0  0  0  0  0  0  0  0  0  0
   -0.2006    4.3189    0.3235 C   0  0  0  0  0  0  0  0  0  0  0  0
    0.3623    4.3666    1.5407 C   0  0  0  0  0  0  0  0  0  0  0  0
    0.6375    3.1457    2.2087 C   0  0  0  0  0  0  0  0  0  0  0  0
    1.1481    3.1757    3.3340 O   0  0  0  0  0  0  0  0  0  0  0  0
    0.3171    2.0637    1.5452 N   0  0  0  0  0  0  0  0  0  0  0  0
   -6.3043   -2.3125    1.4463 H   0  0  0  0  0  0  0  0  0  0  0  0
   -6.4300   -2.4457   -0.3670 H   0  0  0  0  0  0  0  0  0  0  0  0
   -7.8827   -2.5653    0.6396 H   0  0  0  0  0  0  0  0  0  0  0  0
   -9.1975   -0.5572    0.0672 H   0  0  0  0  0  0  0  0  0  0  0  0
   -9.1822    1.7943   -0.6125 H   0  0  0  0  0  0  0  0  0  0  0  0
   -7.0288    3.0198   -0.7552 H   0  0  0  0  0  0  0  0  0  0  0  0
   -4.2848    0.3861    1.6585 H   0  0  0  0  0  0  0  0  0  0  0  0
   -4.9152   -1.2198    1.7928 H   0  0  0  0  0  0  0  0  0  0  0  0
   -3.0466   -1.7570    1.9682 H   0  0  0  0  0  0  0  0  0  0  0  0
   -2.4065   -2.6028    0.5388 H   0  0  0  0  0  0  0  0  0  0  0  0
   -0.6133   -1.1712    1.6556 H   0  0  0  0  0  0  0  0  0  0  0  0
   -1.7834    0.2445    1.3149 H   0  0  0  0  0  0  0  0  0  0  0  0
   -1.6572   -0.2777   -2.4011 H   0  0  0  0  0  0  0  0  0  0  0  0
   -1.9481   -1.8713   -1.6308 H   0  0  0  0  0  0  0  0  0  0  0  0
   -3.1814    0.8285   -0.9795 H   0  0  0  0  0  0  0  0  0  0  0  0
   -3.8889   -0.5758   -1.8327 H   0  0  0  0  0  0  0  0  0  0  0  0
    3.2342   -0.3275   -3.1489 H   0  0  0  0  0  0  0  0  0  0  0  0
    5.6196   -0.1833   -2.7523 H   0  0  0  0  0  0  0  0  0  0  0  0
    5.1983   -1.9749    1.1022 H   0  0  0  0  0  0  0  0  0  0  0  0
    2.7257   -2.1694    0.6920 H   0  0  0  0  0  0  0  0  0  0  0  0
    7.1340   -2.6031    0.7262 H   0  0  0  0  0  0  0  0  0  0  0  0
    9.3637   -2.0990    1.4954 H   0  0  0  0  0  0  0  0  0  0  0  0
   10.4405    0.0085    0.8356 H   0  0  0  0  0  0  0  0  0  0  0  0
    9.2631    1.6029   -0.6364 H   0  0  0  0  0  0  0  0  0  0  0  0
    6.9753    1.0655   -1.3794 H   0  0  0  0  0  0  0  0  0  0  0  0
   -0.4037    5.2279   -0.2253 H   0  0  0  0  0  0  0  0  0  0  0  0
    0.6702    5.2624    2.0445 H   0  0  0  0  0  0  0  0  0  0  0  0
    0.5075    1.1045    1.9759 H   0  0  0  0  0  0  0  0  0  0  0  0
  1  2  1  0
  2  3  2  0
  3  4  1  0
  4  5  2  0
  5  6  1  0
  6  7  2  0
  7  8  1  0
  8  9  1  0
  9 10  1  0
 10 11  1  0
 11 12  1  0
 12 13  1  0
 13 14  1  0
 12 15  1  0
 15 16  1  0
 16 17  2  0
 16 18  1  0
 18 19  1  0
 19 20  2  0
 18 21  1  0
 21 22  2  0
 22 23  1  0
 23 24  2  0
 24 25  1  0
 25 26  2  0
 24 27  1  0
 27 28  2  0
 28 29  1  0
 29 30  2  0
 30 31  1  0
 31 32  2  0
 15 33  1  0
 33 34  2  0
 34 35  1  0
 35 36  2  0
 36 37  1  0
 37 38  2  0
 37 39  1  0
  7  2  1  0
 14  9  1  0
 26 21  1  0
 32 27  1  0
 39 33  1  0
 19 12  1  0
  1 40  1  0
  1 41  1  0
  1 42  1  0
  3 43  1  0
  4 44  1  0
  5 45  1  0
  8 46  1  0
  8 47  1  0
 10 48  1  0
 10 49  1  0
 11 50  1  0
 11 51  1  0
 13 52  1  0
 13 53  1  0
 14 54  1  0
 14 55  1  0
 22 56  1  0
 23 57  1  0
 25 58  1  0
 26 59  1  0
 28 60  1  0
 29 61  1  0
 30 62  1  0
 31 63  1  0
 32 64  1  0
 35 65  1  0
 36 66  1  0
 39 67  1  0
M  END
$$$$
[H]c1nc2c([H])c(N([H])C([H])([H])C3([H])C([H])([H])C3([H])[H])c([H])c(-c3c([H])c([H])c(C#N)c([H])c3[H])n2n1
     RDKit          3D

 37 40  0  0  0  0  0  0  0  0999 V2000
    7.5419    2.6282   -0.1386 N   0  0  0  0  0  0  0  0  0  0  0  0
    6.5319    2.0915   -0.1324 C   0  0  0  0  0  0  0  0  0  0  0  0
    5.2449    1.4260   -0.1350 C   0  0  0  0  0  0  0  0  0  0  0  0
    5.1234    0.1733   -0.6488 C   0  0  0  0  0  0  0  0  0  0  0  0
    3.8715   -0.4642   -0.6472 C   0  0  0  0  0  0  0  0  0  0  0  0
    2.7375    0.1200   -0.1437 C   0  0  0  0  0  0  0  0  0  0  0  0
    2.9292    1.4039    0.3680 C   0  0  0  0  0  0  0  0  0  0  0  0
    4.1500    2.0458    0.3747 C   0  0  0  0  0  0  0  0  0  0  0  0
    1.4298   -0.4913   -0.0897 C   0  0  0  0  0  0  0  0  0  0  0  0
    0.2666    0.2712    0.0723 C   0  0  0  0  0  0  0  0  0  0  0  0
   -0.9886   -0.2492    0.1562 C   0  0  0  0  0  0  0  0  0  0  0  0
   -2.1394    0.5640    0.3206 N   0  0  0  0  0  0  0  0  0  0  0  0
   -3.4606    0.0098    0.4084 C   0  0  0  0  0  0  0  0  0  0  0  0
   -4.4841    1.1060    0.5798 C   0  0  0  0  0  0  0  0  0  0  0  0
   -5.9390    0.6664    0.6876 C   0  0  0  0  0  0  0  0  0  0  0  0
   -5.4293    1.3285   -0.5602 C   0  0  0  0  0  0  0  0  0  0  0  0
   -1.1234   -1.6035    0.0770 C   0  0  0  0  0  0  0  0  0  0  0  0
   -0.0029   -2.3747   -0.0815 C   0  0  0  0  0  0  0  0  0  0  0  0
    0.1145   -3.7322   -0.1780 N   0  0  0  0  0  0  0  0  0  0  0  0
    1.4154   -4.0182   -0.3162 C   0  0  0  0  0  0  0  0  0  0  0  0
    2.0417   -2.8373   -0.2996 N   0  0  0  0  0  0  0  0  0  0  0  0
    1.2383   -1.8158   -0.1613 N   0  0  0  0  0  0  0  0  0  0  0  0
    5.9954   -0.3279   -1.0579 H   0  0  0  0  0  0  0  0  0  0  0  0
    3.8603   -1.4305   -1.0759 H   0  0  0  0  0  0  0  0  0  0  0  0
    2.1166    1.9680    0.7980 H   0  0  0  0  0  0  0  0  0  0  0  0
    4.2558    3.0603    0.7889 H   0  0  0  0  0  0  0  0  0  0  0  0
    0.3803    1.3471    0.1276 H   0  0  0  0  0  0  0  0  0  0  0  0
   -2.0110    1.5860    0.3778 H   0  0  0  0  0  0  0  0  0  0  0  0
   -3.5785   -0.6986    1.2536 H   0  0  0  0  0  0  0  0  0  0  0  0
   -3.7205   -0.5614   -0.5040 H   0  0  0  0  0  0  0  0  0  0  0  0
   -4.1910    2.0270    1.1234 H   0  0  0  0  0  0  0  0  0  0  0  0
   -6.1745   -0.4100    0.6046 H   0  0  0  0  0  0  0  0  0  0  0  0
   -6.6175    1.2545    1.3291 H   0  0  0  0  0  0  0  0  0  0  0  0
   -5.7500    2.3683   -0.7835 H   0  0  0  0  0  0  0  0  0  0  0  0
   -5.3474    0.6968   -1.4835 H   0  0  0  0  0  0  0  0  0  0  0  0
   -2.0818   -2.1074    0.1336 H   0  0  0  0  0  0  0  0  0  0  0  0
    1.7944   -5.0204   -0.4143 H   0  0  0  0  0  0  0  0  0  0  0  0
  1  2  3  0
  2  3  1  0
  3  4  2  0
  4  5  1  0
  5  6  2  0
  6  7  1  0
  7  8  2  0
  6  9  1  0
  9 10  2  0
 10 11  1  0
 11 12  1  0
 12 13  1  0
 13 14  1  0
 14 15  1  0
 15 16  1  0
 11 17  2  0
 17 18  1  0
 18 19  2  0
 19 20  1  0
 20 21  2  0
 21 22  1  0
  8  3  1  0
 22  9  1  0
 16 14  1  0
 22 18  1  0
  4 23  1  0
  5 24  1  0
  7 25  1  0
  8 26  1  0
 10 27  1  0
 12 28  1  0
 13 29  1  0
 13 30  1  0
 14 31  1  0
 15 32  1  0
 15 33  1  0
 16 34  1  0
 16 35  1  0
 17 36  1  0
 20 37  1  0
M  END
$$$$
[H]OC(=O)c1c([H])c([H])c(-c2c([H])c([H])c(N3C(=O)N(c4nc([H])nc(OC([H])([H])[H])c4[H])C4(C3=O)C([H])([H])C([H])([H])N(C([H])([H])c3nc([H])c([H])c([H])c3C([H])([H])[H])C([H])([H])C4([H])[H])c([H])c2[H])c([H])c1Cl
     RDKit          3D

 73 78  0  0  0  0  0  0  0  0999 V2000
   -2.3993    7.5071    1.4251 C   0  0  0  0  0  0  0  0  0  0  0  0
   -1.9648    6.1616    1.4604 O   0  0  0  0  0  0  0  0  0  0  0  0
   -1.6490    5.4287    0.3484 C   0  0  0  0  0  0  0  0  0  0  0  0
   -1.2340    4.1169    0.4875 C   0  0  0  0  0  0  0  0  0  0  0  0
   -0.9084    3.3549   -0.6075 C   0  0  0  0  0  0  0  0  0  0  0  0
   -1.0098    3.9326   -1.8273 N   0  0  0  0  0  0  0  0  0  0  0  0
   -1.4133    5.2065   -1.9656 C   0  0  0  0  0  0  0  0  0  0  0  0
   -1.7322    5.9575   -0.9083 N   0  0  0  0  0  0  0  0  0  0  0  0
   -0.4534    2.0317   -0.4243 N   0  0  0  0  0  0  0  0  0  0  0  0
    0.9443    1.7399   -0.1878 C   0  0  0  0  0  0  0  0  0  0  0  0
    1.8163    2.6166    0.1157 O   0  0  0  0  0  0  0  0  0  0  0  0
    1.1387    0.3443   -0.3538 N   0  0  0  0  0  0  0  0  0  0  0  0
   -0.1239   -0.2055   -0.6843 C   0  0  0  0  0  0  0  0  0  0  0  0
   -0.3756   -1.3663   -1.1369 O   0  0  0  0  0  0  0  0  0  0  0  0
   -1.1923    0.7888   -0.4277 C   0  0  0  0  0  0  0  0  0  0  0  0
   -2.1270    0.7809   -1.6006 C   0  0  0  0  0  0  0  0  0  0  0  0
   -3.4624    1.3283   -1.2884 C   0  0  0  0  0  0  0  0  0  0  0  0
   -4.1009    0.5252   -0.2636 N   0  0  0  0  0  0  0  0  0  0  0  0
   -4.5413   -0.7437   -0.7519 C   0  0  0  0  0  0  0  0  0  0  0  0
   -5.5034   -1.3644    0.1845 C   0  0  0  0  0  0  0  0  0  0  0  0
   -5.9960   -0.8076    1.2898 N   0  0  0  0  0  0  0  0  0  0  0  0
   -6.9011   -1.3553    2.1042 C   0  0  0  0  0  0  0  0  0  0  0  0
   -7.4095   -2.6081    1.8298 C   0  0  0  0  0  0  0  0  0  0  0  0
   -6.9195   -3.2168    0.6888 C   0  0  0  0  0  0  0  0  0  0  0  0
   -5.9880   -2.6287   -0.1299 C   0  0  0  0  0  0  0  0  0  0  0  0
   -5.4748   -3.3182   -1.3590 C   0  0  0  0  0  0  0  0  0  0  0  0
   -3.3231    0.4725    0.9291 C   0  0  0  0  0  0  0  0  0  0  0  0
   -1.8567    0.4983    0.8625 C   0  0  0  0  0  0  0  0  0  0  0  0
    2.3829   -0.3284   -0.2157 C   0  0  0  0  0  0  0  0  0  0  0  0
    2.4411   -1.5439    0.4193 C   0  0  0  0  0  0  0  0  0  0  0  0
    3.7107   -2.1322    0.5363 C   0  0  0  0  0  0  0  0  0  0  0  0
    4.8454   -1.5363    0.0457 C   0  0  0  0  0  0  0  0  0  0  0  0
    4.7307   -0.2984   -0.5947 C   0  0  0  0  0  0  0  0  0  0  0  0
    3.5193    0.3037   -0.7280 C   0  0  0  0  0  0  0  0  0  0  0  0
    6.1563   -2.1450    0.1784 C   0  0  0  0  0  0  0  0  0  0  0  0
    6.4698   -2.9336    1.2601 C   0  0  0  0  0  0  0  0  0  0  0  0
    7.7526   -3.4809    1.3661 C   0  0  0  0  0  0  0  0  0  0  0  0
    8.7263   -3.2543    0.4119 C   0  0  0  0  0  0  0  0  0  0  0  0
   10.0377   -3.8457    0.6164 C   0  0  0  0  0  0  0  0  0  0  0  0
   10.4167   -5.1142    0.2406 O   0  0  0  0  0  0  0  0  0  0  0  0
   10.9010   -3.1150    1.1945 O   0  0  0  0  0  0  0  0  0  0  0  0
    8.4098   -2.4641   -0.6721 C   0  0  0  0  0  0  0  0  0  0  0  0
    9.6549   -2.1886   -1.8649 Cl  0  0  0  0  0  0  0  0  0  0  0  0
    7.1369   -1.9152   -0.7872 C   0  0  0  0  0  0  0  0  0  0  0  0
   -2.8393    7.6942    0.4483 H   0  0  0  0  0  0  0  0  0  0  0  0
   -1.5198    8.1457    1.6436 H   0  0  0  0  0  0  0  0  0  0  0  0
   -3.1232    7.6237    2.2720 H   0  0  0  0  0  0  0  0  0  0  0  0
   -1.1566    3.6643    1.4655 H   0  0  0  0  0  0  0  0  0  0  0  0
   -1.4762    5.6240   -2.9478 H   0  0  0  0  0  0  0  0  0  0  0  0
   -1.6990    1.3191   -2.4688 H   0  0  0  0  0  0  0  0  0  0  0  0
   -2.2791   -0.2788   -1.9558 H   0  0  0  0  0  0  0  0  0  0  0  0
   -3.4697    2.3782   -0.9622 H   0  0  0  0  0  0  0  0  0  0  0  0
   -4.1061    1.2582   -2.1924 H   0  0  0  0  0  0  0  0  0  0  0  0
   -5.0205   -0.6478   -1.7712 H   0  0  0  0  0  0  0  0  0  0  0  0
   -3.6474   -1.4214   -0.8419 H   0  0  0  0  0  0  0  0  0  0  0  0
   -7.2683   -0.8504    2.9998 H   0  0  0  0  0  0  0  0  0  0  0  0
   -8.1400   -3.0657    2.4750 H   0  0  0  0  0  0  0  0  0  0  0  0
   -7.3034   -4.2077    0.4417 H   0  0  0  0  0  0  0  0  0  0  0  0
   -6.2148   -4.0969   -1.6783 H   0  0  0  0  0  0  0  0  0  0  0  0
   -4.5043   -3.8144   -1.1201 H   0  0  0  0  0  0  0  0  0  0  0  0
   -5.4027   -2.5969   -2.1846 H   0  0  0  0  0  0  0  0  0  0  0  0
   -3.7095    1.3146    1.5831 H   0  0  0  0  0  0  0  0  0  0  0  0
   -3.6558   -0.4411    1.5104 H   0  0  0  0  0  0  0  0  0  0  0  0
   -1.4738    1.2651    1.6014 H   0  0  0  0  0  0  0  0  0  0  0  0
   -1.4537   -0.4717    1.2912 H   0  0  0  0  0  0  0  0  0  0  0  0
    1.5753   -2.0542    0.8206 H   0  0  0  0  0  0  0  0  0  0  0  0
    3.8190   -3.0808    1.0231 H   0  0  0  0  0  0  0  0  0  0  0  0
    5.6082    0.1957   -0.9931 H   0  0  0  0  0  0  0  0  0  0  0  0
    3.3717    1.2548   -1.2115 H   0  0  0  0  0  0  0  0  0  0  0  0
    5.7290   -3.1225    2.0151 H   0  0  0  0  0  0  0  0  0  0  0  0
    7.9531   -4.0862    2.2178 H   0  0  0  0  0  0  0  0  0  0  0  0
   11.3889   -5.3902    0.1935 H   0  0  0  0  0  0  0  0  0  0  0  0
    6.8862   -1.2966   -1.6351 H   0  0  0  0  0  0  0  0  0  0  0  0
  1  2  1  0
  2  3  1  0
  3  4  2  0
  4  5  1  0
  5  6  2  0
  6  7  1  0
  7  8  2  0
  5  9  1  0
  9 10  1  0
 10 11  2  0
 10 12  1  0
 12 13  1  0
 13 14  2  0
 13 15  1  0
 15 16  1  0
 16 17  1  0
 17 18  1  0
 18 19  1  0
 19 20  1  0
 20 21  2  0
 21 22  1  0
 22 23  2  0
 23 24  1  0
 24 25  2  0
 25 26  1  0
 18 27  1  0
 27 28  1  0
 12 29  1  0
 29 30  2  0
 30 31  1  0
 31 32  2  0
 32 33  1  0
 33 34  2  0
 32 35  1  0
 35 36  2  0
 36 37  1  0
 37 38  2  0
 38 39  1  0
 39 40  1  0
 39 41  2  0
 38 42  1  0
 42 43  1  0
 42 44  2  0
  8  3  1  0
 15  9  1  0
 28 15  1  0
 34 29  1  0
 44 35  1  0
 25 20  1  0
  1 45  1  0
  1 46  1  0
  1 47  1  0
  4 48  1  0
  7 49  1  0
 16 50  1  0
 16 51  1  0
 17 52  1  0
 17 53  1  0
 19 54  1  0
 19 55  1  0
 22 56  1  0
 23 57  1  0
 24 58  1  0
 26 59  1  0
 26 60  1  0
 26 61  1  0
 27 62  1  0
 27 63  1  0
 28 64  1  0
 28 65  1  0
 30 66  1  0
 31 67  1  0
 33 68  1  0
 34 69  1  0
 36 70  1  0
 37 71  1  0
 40 72  1  0
 44 73  1  0
M  END
$$$$
[H]OC(=O)C([H])([H])N([H])C(=O)c1c(O[H])c2c([H])c(C([H])([H])N([H])C(=O)[C@]([H])(N([H])C(=O)[C@]([H])(N([H])C(=O)C(C([H])([H])[H])(C([H])([H])[H])C([H])([H])[H])C([H])([H])C([H])(C([H])([H])[H])C([H])([H])[H])C([H])([H])c3c([H])c([H])c([H])c([H])c3[H])c([H])c([H])c2n(C([H])([H])[H])c1=O
     RDKit          3D

 90 92  0  0  0  0  0  0  0  0999 V2000
   -6.2178    2.7430    2.6206 C   0  0  0  0  0  0  0  0  0  0  0  0
   -5.2048    1.6277    2.4162 C   0  0  0  0  0  0  0  0  0  0  0  0
   -5.3184    0.7104    3.6667 C   0  0  0  0  0  0  0  0  0  0  0  0
   -5.6507    0.8113    1.2527 C   0  0  0  0  0  0  0  0  0  0  0  0
   -4.6323   -0.3322    0.9266 C   0  0  1  0  0  0  0  0  0  0  0  0
   -5.2364   -1.0261   -0.1961 N   0  0  0  0  0  0  0  0  0  0  0  0
   -5.9595   -2.2193   -0.1658 C   0  0  0  0  0  0  0  0  0  0  0  0
   -6.1955   -2.8228    0.8908 O   0  0  0  0  0  0  0  0  0  0  0  0
   -6.4843   -2.8475   -1.4287 C   0  0  0  0  0  0  0  0  0  0  0  0
   -7.6485   -3.7569   -1.1307 C   0  0  0  0  0  0  0  0  0  0  0  0
   -6.8639   -1.8467   -2.4638 C   0  0  0  0  0  0  0  0  0  0  0  0
   -5.3444   -3.7157   -2.0207 C   0  0  0  0  0  0  0  0  0  0  0  0
   -3.4557    0.4744    0.3666 C   0  0  0  0  0  0  0  0  0  0  0  0
   -3.8833    1.1172   -0.6771 O   0  0  0  0  0  0  0  0  0  0  0  0
   -2.2026    0.5254    0.8419 N   0  0  0  0  0  0  0  0  0  0  0  0
   -0.8596    0.7413    1.1551 C   0  0  2  0  0  0  0  0  0  0  0  0
   -0.2702    2.0420    1.4426 C   0  0  0  0  0  0  0  0  0  0  0  0
   -0.2393    3.1117    0.4598 C   0  0  0  0  0  0  0  0  0  0  0  0
    0.9004    3.2904   -0.3209 C   0  0  0  0  0  0  0  0  0  0  0  0
    0.9727    4.2901   -1.2512 C   0  0  0  0  0  0  0  0  0  0  0  0
   -0.0865    5.1740   -1.4550 C   0  0  0  0  0  0  0  0  0  0  0  0
   -1.2094    5.0009   -0.6856 C   0  0  0  0  0  0  0  0  0  0  0  0
   -1.2844    3.9739    0.2667 C   0  0  0  0  0  0  0  0  0  0  0  0
    0.0035   -0.1715    0.2619 C   0  0  0  0  0  0  0  0  0  0  0  0
    0.6396   -1.0742    0.8543 O   0  0  0  0  0  0  0  0  0  0  0  0
    0.0408   -0.0034   -1.1348 N   0  0  0  0  0  0  0  0  0  0  0  0
    0.7946   -0.8373   -2.0590 C   0  0  0  0  0  0  0  0  0  0  0  0
    2.2453   -0.4403   -1.9949 C   0  0  0  0  0  0  0  0  0  0  0  0
    2.7048    0.7613   -2.4323 C   0  0  0  0  0  0  0  0  0  0  0  0
    4.0047    1.2055   -2.2295 C   0  0  0  0  0  0  0  0  0  0  0  0
    4.9182    0.3828   -1.5376 C   0  0  0  0  0  0  0  0  0  0  0  0
    6.1524    0.8224   -1.2641 N   0  0  0  0  0  0  0  0  0  0  0  0
    6.5667    2.1416   -1.7464 C   0  0  0  0  0  0  0  0  0  0  0  0
    7.0517    0.0960   -0.5368 C   0  0  0  0  0  0  0  0  0  0  0  0
    8.1929    0.5835   -0.3203 O   0  0  0  0  0  0  0  0  0  0  0  0
    6.6363   -1.1321   -0.0909 C   0  0  0  0  0  0  0  0  0  0  0  0
    7.4891   -2.0225    0.6075 C   0  0  0  0  0  0  0  0  0  0  0  0
    7.0354   -3.2279    0.8574 O   0  0  0  0  0  0  0  0  0  0  0  0
    8.7916   -1.8380    1.1104 N   0  0  0  0  0  0  0  0  0  0  0  0
    9.4898   -2.9391    1.7580 C   0  0  0  0  0  0  0  0  0  0  0  0
   10.8014   -2.5511    2.2549 C   0  0  0  0  0  0  0  0  0  0  0  0
   11.6227   -3.5014    2.9018 O   0  0  0  0  0  0  0  0  0  0  0  0
   11.3026   -1.4107    2.1639 O   0  0  0  0  0  0  0  0  0  0  0  0
    5.3274   -1.5992   -0.3791 C   0  0  0  0  0  0  0  0  0  0  0  0
    4.9205   -2.8239    0.0681 O   0  0  0  0  0  0  0  0  0  0  0  0
    4.4446   -0.8285   -1.1158 C   0  0  0  0  0  0  0  0  0  0  0  0
    3.1461   -1.2612   -1.3216 C   0  0  0  0  0  0  0  0  0  0  0  0
   -6.5777    3.1545    1.6578 H   0  0  0  0  0  0  0  0  0  0  0  0
   -5.7685    3.5921    3.1925 H   0  0  0  0  0  0  0  0  0  0  0  0
   -7.0959    2.3955    3.1854 H   0  0  0  0  0  0  0  0  0  0  0  0
   -4.1953    2.0288    2.3101 H   0  0  0  0  0  0  0  0  0  0  0  0
   -5.3519    1.3608    4.5474 H   0  0  0  0  0  0  0  0  0  0  0  0
   -6.2895    0.1777    3.5670 H   0  0  0  0  0  0  0  0  0  0  0  0
   -4.4575    0.0445    3.6199 H   0  0  0  0  0  0  0  0  0  0  0  0
   -5.7576    1.4458    0.3451 H   0  0  0  0  0  0  0  0  0  0  0  0
   -6.6497    0.3709    1.4431 H   0  0  0  0  0  0  0  0  0  0  0  0
   -4.4727   -0.9192    1.7627 H   0  0  0  0  0  0  0  0  0  0  0  0
   -5.1064   -0.5614   -1.1455 H   0  0  0  0  0  0  0  0  0  0  0  0
   -7.3705   -4.6832   -0.5797 H   0  0  0  0  0  0  0  0  0  0  0  0
   -8.3796   -3.1885   -0.4954 H   0  0  0  0  0  0  0  0  0  0  0  0
   -8.1541   -4.0429   -2.0516 H   0  0  0  0  0  0  0  0  0  0  0  0
   -5.9302   -1.5595   -3.0065 H   0  0  0  0  0  0  0  0  0  0  0  0
   -7.3875   -0.9730   -2.0834 H   0  0  0  0  0  0  0  0  0  0  0  0
   -7.5210   -2.3880   -3.2065 H   0  0  0  0  0  0  0  0  0  0  0  0
   -4.5391   -3.8192   -1.2448 H   0  0  0  0  0  0  0  0  0  0  0  0
   -4.9205   -3.1738   -2.8776 H   0  0  0  0  0  0  0  0  0  0  0  0
   -5.7726   -4.6868   -2.3196 H   0  0  0  0  0  0  0  0  0  0  0  0
   -1.9105    1.4180   -0.2283 H   0  0  0  0  0  0  0  0  0  0  0  0
   -0.7454    0.1817    2.1881 H   0  0  0  0  0  0  0  0  0  0  0  0
   -0.5892    2.4564    2.4533 H   0  0  0  0  0  0  0  0  0  0  0  0
    0.8448    1.8249    1.6749 H   0  0  0  0  0  0  0  0  0  0  0  0
    1.7630    2.6381   -0.1991 H   0  0  0  0  0  0  0  0  0  0  0  0
    1.8788    4.4041   -1.8475 H   0  0  0  0  0  0  0  0  0  0  0  0
    0.0078    5.9622   -2.2067 H   0  0  0  0  0  0  0  0  0  0  0  0
   -2.0226    5.7023   -0.8576 H   0  0  0  0  0  0  0  0  0  0  0  0
   -2.2041    3.9108    0.8197 H   0  0  0  0  0  0  0  0  0  0  0  0
   -0.5106    0.7836   -1.5475 H   0  0  0  0  0  0  0  0  0  0  0  0
    0.6686   -1.8874   -1.7255 H   0  0  0  0  0  0  0  0  0  0  0  0
    0.3989   -0.7358   -3.0652 H   0  0  0  0  0  0  0  0  0  0  0  0
    2.0284    1.4122   -2.9769 H   0  0  0  0  0  0  0  0  0  0  0  0
    4.3665    2.1600   -2.5759 H   0  0  0  0  0  0  0  0  0  0  0  0
    6.3945    2.2167   -2.8511 H   0  0  0  0  0  0  0  0  0  0  0  0
    5.9819    2.9343   -1.2237 H   0  0  0  0  0  0  0  0  0  0  0  0
    7.6298    2.3346   -1.5674 H   0  0  0  0  0  0  0  0  0  0  0  0
    9.2545   -0.9140    1.0251 H   0  0  0  0  0  0  0  0  0  0  0  0
    9.6455   -3.6884    0.9316 H   0  0  0  0  0  0  0  0  0  0  0  0
    8.8838   -3.3244    2.5737 H   0  0  0  0  0  0  0  0  0  0  0  0
   11.1127   -4.2549    3.3968 H   0  0  0  0  0  0  0  0  0  0  0  0
    4.0829   -3.2999   -0.0289 H   0  0  0  0  0  0  0  0  0  0  0  0
    2.7896   -2.2072   -0.9876 H   0  0  0  0  0  0  0  0  0  0  0  0
  1  2  1  0
  2  3  1  0
  2  4  1  0
  4  5  1  0
  5  6  1  0
  6  7  1  0
  7  8  2  0
  7  9  1  0
  9 10  1  0
  9 11  1  0
  9 12  1  0
  5 13  1  0
 13 14  2  0
 13 15  1  0
 15 16  1  0
 16 17  1  0
 17 18  1  0
 18 19  2  0
 19 20  1  0
 20 21  2  0
 21 22  1  0
 22 23  2  0
 16 24  1  0
 24 25  2  0
 24 26  1  0
 26 27  1  0
 27 28  1  0
 28 29  2  0
 29 30  1  0
 30 31  2  0
 31 32  1  0
 32 33  1  0
 32 34  1  0
 34 35  2  0
 34 36  1  0
 36 37  1  0
 37 38  2  0
 37 39  1  0
 39 40  1  0
 40 41  1  0
 41 42  1  0
 41 43  2  0
 36 44  2  0
 44 45  1  0
 44 46  1  0
 46 47  2  0
 23 18  1  0
 47 28  1  0
 46 31  1  0
  1 48  1  0
  1 49  1  0
  1 50  1  0
  2 51  1  0
  3 52  1  0
  3 53  1  0
  3 54  1  0
  4 55  1  0
  4 56  1  0
  5 57  1  1
  6 58  1  0
 10 59  1  0
 10 60  1  0
 10 61  1  0
 11 62  1  0
 11 63  1  0
 11 64  1  0
 12 65  1  0
 12 66  1  0
 12 67  1  0
 15 68  1  0
 16 69  1  1
 17 70  1  0
 17 71  1  0
 19 72  1  0
 20 73  1  0
 21 74  1  0
 22 75  1  0
 23 76  1  0
 26 77  1  0
 27 78  1  0
 27 79  1  0
 29 80  1  0
 30 81  1  0
 33 82  1  0
 33 83  1  0
 33 84  1  0
 39 85  1  0
 40 86  1  0
 40 87  1  0
 42 88  1  0
 45 89  1  0
 47 90  1  0
M  END
$$$$
[H]c1nc(-n2c(=O)c(-n3nnc([H])c3[H])c([H])n2[H])c([H])c([H])c1C(=O)OC(C([H])([H])[H])(C([H])([H])[H])C([H])([H])[H]
     RDKit          3D

 40 42  0  0  0  0  0  0  0  0999 V2000
   -5.6833   -1.2162   -0.5424 C   0  0  0  0  0  0  0  0  0  0  0  0
   -5.0460   -0.2064    0.4203 C   0  0  0  0  0  0  0  0  0  0  0  0
   -5.3177   -0.6772    1.8331 C   0  0  0  0  0  0  0  0  0  0  0  0
   -5.6646    1.1530    0.2491 C   0  0  0  0  0  0  0  0  0  0  0  0
   -3.6616   -0.2140    0.1248 O   0  0  0  0  0  0  0  0  0  0  0  0
   -2.7284    0.5541    0.7639 C   0  0  0  0  0  0  0  0  0  0  0  0
   -3.0763    1.3221    1.6686 O   0  0  0  0  0  0  0  0  0  0  0  0
   -1.3256    0.4489    0.3588 C   0  0  0  0  0  0  0  0  0  0  0  0
   -0.3818    1.2213    1.0002 C   0  0  0  0  0  0  0  0  0  0  0  0
    0.9185    1.1122    0.6122 C   0  0  0  0  0  0  0  0  0  0  0  0
    1.3264    0.2615   -0.3945 C   0  0  0  0  0  0  0  0  0  0  0  0
    0.3866   -0.4796   -1.0029 N   0  0  0  0  0  0  0  0  0  0  0  0
   -0.9035   -0.3870   -0.6349 C   0  0  0  0  0  0  0  0  0  0  0  0
    2.6911    0.1549   -0.7930 N   0  0  0  0  0  0  0  0  0  0  0  0
    3.2006    0.0480   -2.0012 N   0  0  0  0  0  0  0  0  0  0  0  0
    4.5560   -0.0303   -1.9640 C   0  0  0  0  0  0  0  0  0  0  0  0
    4.9155    0.0322   -0.6389 C   0  0  0  0  0  0  0  0  0  0  0  0
    6.2714   -0.0174   -0.1487 N   0  0  0  0  0  0  0  0  0  0  0  0
    6.9314   -1.1227    0.2205 C   0  0  0  0  0  0  0  0  0  0  0  0
    8.1850   -0.7218    0.6197 C   0  0  0  0  0  0  0  0  0  0  0  0
    8.2265    0.6049    0.4742 N   0  0  0  0  0  0  0  0  0  0  0  0
    7.0766    1.0087    0.0148 N   0  0  0  0  0  0  0  0  0  0  0  0
    3.7365    0.1466    0.0576 C   0  0  0  0  0  0  0  0  0  0  0  0
    3.6778    0.2300    1.3183 O   0  0  0  0  0  0  0  0  0  0  0  0
   -5.0767   -2.1579   -0.3977 H   0  0  0  0  0  0  0  0  0  0  0  0
   -5.4576   -0.8609   -1.5596 H   0  0  0  0  0  0  0  0  0  0  0  0
   -6.7443   -1.3745   -0.3328 H   0  0  0  0  0  0  0  0  0  0  0  0
   -4.3201   -0.6898    2.3620 H   0  0  0  0  0  0  0  0  0  0  0  0
   -5.9471    0.0591    2.3891 H   0  0  0  0  0  0  0  0  0  0  0  0
   -5.7660   -1.6855    1.8299 H   0  0  0  0  0  0  0  0  0  0  0  0
   -6.7296    0.9734   -0.0800 H   0  0  0  0  0  0  0  0  0  0  0  0
   -5.7702    1.7004    1.2208 H   0  0  0  0  0  0  0  0  0  0  0  0
   -5.1490    1.7983   -0.4667 H   0  0  0  0  0  0  0  0  0  0  0  0
   -0.6465    1.9066    1.7980 H   0  0  0  0  0  0  0  0  0  0  0  0
    1.6775    1.7204    1.1141 H   0  0  0  0  0  0  0  0  0  0  0  0
   -1.6671   -0.9958   -1.1363 H   0  0  0  0  0  0  0  0  0  0  0  0
    2.6151    0.0271   -2.8808 H   0  0  0  0  0  0  0  0  0  0  0  0
    5.1671   -0.1220   -2.8364 H   0  0  0  0  0  0  0  0  0  0  0  0
    6.5208   -2.1380    0.1965 H   0  0  0  0  0  0  0  0  0  0  0  0
    8.9823   -1.3868    0.9847 H   0  0  0  0  0  0  0  0  0  0  0  0
  1  2  1  0
  2  3  1  0
  2  4  1  0
  2  5  1  0
  5  6  1  0
  6  7  2  0
  6  8  1  0
  8  9  2  0
  9 10  1  0
 10 11  2  0
 11 12  1  0
 12 13  2  0
 11 14  1  0
 14 15  1  0
 15 16  1  0
 16 17  2  0
 17 18  1  0
 18 19  1  0
 19 20  2  0
 20 21  1  0
 21 22  2  0
 17 23  1  0
 23 24  2  0
 13  8  1  0
 23 14  1  0
 22 18  1  0
  1 25  1  0
  1 26  1  0
  1 27  1  0
  3 28  1  0
  3 29  1  0
  3 30  1  0
  4 31  1  0
  4 32  1  0
  4 33  1  0
  9 34  1  0
 10 35  1  0
 13 36  1  0
 15 37  1  0
 16 38  1  0
 19 39  1  0
 20 40  1  0
M  END
$$$$
[H]c1nc2c([H])c([H])c([H])c(-c3c([H])nc(C#N)c(F)c3[H])n2n1
     RDKit          3D

 24 26  0  0  0  0  0  0  0  0999 V2000
    3.7484    1.0605    1.5231 F   0  0  0  0  0  0  0  0  0  0  0  0
    2.9422    0.4215    0.6316 C   0  0  0  0  0  0  0  0  0  0  0  0
    1.5963    0.3380    0.9035 C   0  0  0  0  0  0  0  0  0  0  0  0
    0.7877   -0.3081   -0.0001 C   0  0  0  0  0  0  0  0  0  0  0  0
    1.3659   -0.8395   -1.1327 C   0  0  0  0  0  0  0  0  0  0  0  0
    2.6606   -0.7526   -1.3825 N   0  0  0  0  0  0  0  0  0  0  0  0
    3.4682   -0.1289   -0.5186 C   0  0  0  0  0  0  0  0  0  0  0  0
    4.8826   -0.0464   -0.8137 C   0  0  0  0  0  0  0  0  0  0  0  0
    6.0205    0.0330   -1.0442 N   0  0  0  0  0  0  0  0  0  0  0  0
   -0.6493   -0.4259    0.2390 C   0  0  0  0  0  0  0  0  0  0  0  0
   -1.2198   -1.4786    0.9168 C   0  0  0  0  0  0  0  0  0  0  0  0
   -2.5952   -1.5368    1.1140 C   0  0  0  0  0  0  0  0  0  0  0  0
   -3.4053   -0.5345    0.6295 C   0  0  0  0  0  0  0  0  0  0  0  0
   -2.7903    0.5160   -0.0522 C   0  0  0  0  0  0  0  0  0  0  0  0
   -3.3072    1.6204   -0.6307 N   0  0  0  0  0  0  0  0  0  0  0  0
   -2.3088    2.3392   -1.1658 C   0  0  0  0  0  0  0  0  0  0  0  0
   -1.1858    1.6517   -0.9010 N   0  0  0  0  0  0  0  0  0  0  0  0
   -1.4544    0.5437   -0.2271 N   0  0  0  0  0  0  0  0  0  0  0  0
    1.1441    0.7587    1.7983 H   0  0  0  0  0  0  0  0  0  0  0  0
    0.7456   -1.3615   -1.8730 H   0  0  0  0  0  0  0  0  0  0  0  0
   -0.5502   -2.2489    1.2835 H   0  0  0  0  0  0  0  0  0  0  0  0
   -3.0339   -2.3838    1.6569 H   0  0  0  0  0  0  0  0  0  0  0  0
   -4.4693   -0.5317    0.7544 H   0  0  0  0  0  0  0  0  0  0  0  0
   -2.3926    3.2942   -1.7092 H   0  0  0  0  0  0  0  0  0  0  0  0
  1  2  1  0
  2  3  2  0
  3  4  1  0
  4  5  2  0
  5  6  1  0
  6  7  2  0
  7  8  1  0
  8  9  3  0
  4 10  1  0
 10 11  2  0
 11 12  1  0
 12 13  2  0
 13 14  1  0
 14 15  2  0
 15 16  1  0
 16 17  2  0
 17 18  1  0
  7  2  1  0
 18 10  1  0
 18 14  1  0
  3 19  1  0
  5 20  1  0
 11 21  1  0
 12 22  1  0
 13 23  1  0
 16 24  1  0
M  END
$$$$
[H]c1nc2c([H])c(N([H])C([H])([H])C([H])([H])C([H])([H])N3C([H])([H])C([H])([H])OC([H])([H])C3([H])[H])c([H])c(-c3c([H])c([H])c(C#N)c([H])c3[H])n2n1
     RDKit          3D

 49 52  0  0  0  0  0  0  0  0999 V2000
   -7.7308    4.1422   -1.7133 N   0  0  0  0  0  0  0  0  0  0  0  0
   -6.9539    3.3501   -1.4055 C   0  0  0  0  0  0  0  0  0  0  0  0
   -5.9685    2.3707   -1.0034 C   0  0  0  0  0  0  0  0  0  0  0  0
   -4.9197    2.0180   -1.8180 C   0  0  0  0  0  0  0  0  0  0  0  0
   -3.9951    1.0805   -1.4094 C   0  0  0  0  0  0  0  0  0  0  0  0
   -4.0565    0.4373   -0.1665 C   0  0  0  0  0  0  0  0  0  0  0  0
   -5.1115    0.7972    0.6439 C   0  0  0  0  0  0  0  0  0  0  0  0
   -6.0293    1.7394    0.2167 C   0  0  0  0  0  0  0  0  0  0  0  0
   -3.0280   -0.5158    0.1884 C   0  0  0  0  0  0  0  0  0  0  0  0
   -1.7816   -0.3750   -0.4514 C   0  0  0  0  0  0  0  0  0  0  0  0
   -0.7260   -1.2211   -0.2282 C   0  0  0  0  0  0  0  0  0  0  0  0
    0.5148   -1.0332   -0.9043 N   0  0  0  0  0  0  0  0  0  0  0  0
    1.6484   -1.8980   -0.6896 C   0  0  0  0  0  0  0  0  0  0  0  0
    2.7909   -1.4407   -1.5298 C   0  0  0  0  0  0  0  0  0  0  0  0
    3.2572   -0.0495   -1.2548 C   0  0  0  0  0  0  0  0  0  0  0  0
    3.7109    0.2255    0.0449 N   0  0  0  0  0  0  0  0  0  0  0  0
    4.9032   -0.3640    0.4948 C   0  0  0  0  0  0  0  0  0  0  0  0
    5.6935    0.5390    1.4528 C   0  0  0  0  0  0  0  0  0  0  0  0
    6.1039    1.7050    0.8178 O   0  0  0  0  0  0  0  0  0  0  0  0
    5.1862    2.0801   -0.1756 C   0  0  0  0  0  0  0  0  0  0  0  0
    3.7759    1.6677    0.2394 C   0  0  0  0  0  0  0  0  0  0  0  0
   -0.9095   -2.2534    0.6684 C   0  0  0  0  0  0  0  0  0  0  0  0
   -2.1342   -2.3805    1.2883 C   0  0  0  0  0  0  0  0  0  0  0  0
   -2.5526   -3.3009    2.1880 N   0  0  0  0  0  0  0  0  0  0  0  0
   -3.8246   -3.0133    2.4937 C   0  0  0  0  0  0  0  0  0  0  0  0
   -4.1584   -1.9296    1.7804 N   0  0  0  0  0  0  0  0  0  0  0  0
   -3.1537   -1.5256    1.0425 N   0  0  0  0  0  0  0  0  0  0  0  0
   -4.8535    2.5059   -2.7860 H   0  0  0  0  0  0  0  0  0  0  0  0
   -3.2047    0.8660   -2.1413 H   0  0  0  0  0  0  0  0  0  0  0  0
   -5.1839    0.3301    1.6062 H   0  0  0  0  0  0  0  0  0  0  0  0
   -6.8264    1.9712    0.9016 H   0  0  0  0  0  0  0  0  0  0  0  0
   -1.5889    0.4246   -1.1531 H   0  0  0  0  0  0  0  0  0  0  0  0
    0.5993   -0.2547   -1.5665 H   0  0  0  0  0  0  0  0  0  0  0  0
    1.3925   -2.9378   -0.9883 H   0  0  0  0  0  0  0  0  0  0  0  0
    1.8610   -1.9212    0.3901 H   0  0  0  0  0  0  0  0  0  0  0  0
    2.4222   -1.4393   -2.6003 H   0  0  0  0  0  0  0  0  0  0  0  0
    3.6345   -2.1835   -1.5535 H   0  0  0  0  0  0  0  0  0  0  0  0
    4.0361    0.1764   -2.0450 H   0  0  0  0  0  0  0  0  0  0  0  0
    2.4219    0.6389   -1.5013 H   0  0  0  0  0  0  0  0  0  0  0  0
    4.6506   -1.2715    1.1171 H   0  0  0  0  0  0  0  0  0  0  0  0
    5.6121   -0.7060   -0.2635 H   0  0  0  0  0  0  0  0  0  0  0  0
    5.1066    0.7410    2.3580 H   0  0  0  0  0  0  0  0  0  0  0  0
    6.5994   -0.0324    1.7390 H   0  0  0  0  0  0  0  0  0  0  0  0
    5.2334    3.1408   -0.4285 H   0  0  0  0  0  0  0  0  0  0  0  0
    5.4609    1.4784   -1.0760 H   0  0  0  0  0  0  0  0  0  0  0  0
    3.5731    1.9326    1.2892 H   0  0  0  0  0  0  0  0  0  0  0  0
    3.0762    2.1419   -0.4777 H   0  0  0  0  0  0  0  0  0  0  0  0
   -0.0827   -2.9308    0.8551 H   0  0  0  0  0  0  0  0  0  0  0  0
   -4.4905   -3.5225    3.1725 H   0  0  0  0  0  0  0  0  0  0  0  0
  1  2  3  0
  2  3  1  0
  3  4  2  0
  4  5  1  0
  5  6  2  0
  6  7  1  0
  7  8  2  0
  6  9  1  0
  9 10  2  0
 10 11  1  0
 11 12  1  0
 12 13  1  0
 13 14  1  0
 14 15  1  0
 15 16  1  0
 16 17  1  0
 17 18  1  0
 18 19  1  0
 19 20  1  0
 20 21  1  0
 11 22  2  0
 22 23  1  0
 23 24  2  0
 24 25  1  0
 25 26  2  0
 26 27  1  0
  8  3  1  0
 27  9  1  0
 21 16  1  0
 27 23  1  0
  4 28  1  0
  5 29  1  0
  7 30  1  0
  8 31  1  0
 10 32  1  0
 12 33  1  0
 13 34  1  0
 13 35  1  0
 14 36  1  0
 14 37  1  0
 15 38  1  0
 15 39  1  0
 17 40  1  0
 17 41  1  0
 18 42  1  0
 18 43  1  0
 20 44  1  0
 20 45  1  0
 21 46  1  0
 21 47  1  0
 22 48  1  0
 25 49  1  0
M  END
$$$$
[H]c1nc2c([H])c(N([H])C([H])([H])C3([H])OC([H])([H])C([H])([H])C3([H])[H])c([H])c(-c3c([H])c([H])c(C#N)c([H])c3[H])n2n1
     RDKit          3D

 41 44  0  0  0  0  0  0  0  0999 V2000
    6.9441    3.5998   -0.1470 N   0  0  0  0  0  0  0  0  0  0  0  0
    6.0412    2.8578   -0.0719 C   0  0  0  0  0  0  0  0  0  0  0  0
    4.9435    1.9384    0.0301 C   0  0  0  0  0  0  0  0  0  0  0  0
    4.6218    1.1715   -1.0702 C   0  0  0  0  0  0  0  0  0  0  0  0
    3.5673    0.2781   -0.9955 C   0  0  0  0  0  0  0  0  0  0  0  0
    2.8149    0.1252    0.1593 C   0  0  0  0  0  0  0  0  0  0  0  0
    3.1351    0.8842    1.2450 C   0  0  0  0  0  0  0  0  0  0  0  0
    4.1934    1.7825    1.1737 C   0  0  0  0  0  0  0  0  0  0  0  0
    1.7116   -0.8435    0.1607 C   0  0  0  0  0  0  0  0  0  0  0  0
    0.4336   -0.4759   -0.2088 C   0  0  0  0  0  0  0  0  0  0  0  0
   -0.5903   -1.3991   -0.2015 C   0  0  0  0  0  0  0  0  0  0  0  0
   -1.9229   -1.0346   -0.5820 N   0  0  0  0  0  0  0  0  0  0  0  0
   -2.2544    0.2990   -0.9861 C   0  0  0  0  0  0  0  0  0  0  0  0
   -3.7267    0.3814   -1.3268 C   0  0  0  0  0  0  0  0  0  0  0  0
   -4.5173    0.0471   -0.1003 C   0  0  0  0  0  0  0  0  0  0  0  0
   -5.2673    1.3166    0.2541 C   0  0  0  0  0  0  0  0  0  0  0  0
   -4.5854    2.3293   -0.6400 C   0  0  0  0  0  0  0  0  0  0  0  0
   -4.0841    1.6471   -1.7196 O   0  0  0  0  0  0  0  0  0  0  0  0
   -0.2658   -2.6779    0.1876 C   0  0  0  0  0  0  0  0  0  0  0  0
    1.0005   -3.0713    0.5609 C   0  0  0  0  0  0  0  0  0  0  0  0
    1.5602   -4.2234    0.9695 N   0  0  0  0  0  0  0  0  0  0  0  0
    2.8618   -3.9788    1.1916 C   0  0  0  0  0  0  0  0  0  0  0  0
    3.0826   -2.6842    0.9172 N   0  0  0  0  0  0  0  0  0  0  0  0
    1.9520   -2.1142    0.5294 N   0  0  0  0  0  0  0  0  0  0  0  0
    5.1764    1.2516   -1.9956 H   0  0  0  0  0  0  0  0  0  0  0  0
    3.3243   -0.3154   -1.8590 H   0  0  0  0  0  0  0  0  0  0  0  0
    2.5805    0.7987    2.1581 H   0  0  0  0  0  0  0  0  0  0  0  0
    4.4614    2.3939    2.0279 H   0  0  0  0  0  0  0  0  0  0  0  0
    0.2297    0.5483   -0.5082 H   0  0  0  0  0  0  0  0  0  0  0  0
   -2.6653   -1.7797   -0.5580 H   0  0  0  0  0  0  0  0  0  0  0  0
   -2.0789    1.0556   -0.1708 H   0  0  0  0  0  0  0  0  0  0  0  0
   -1.6052    0.5986   -1.8445 H   0  0  0  0  0  0  0  0  0  0  0  0
   -3.9186   -0.3533   -2.1548 H   0  0  0  0  0  0  0  0  0  0  0  0
   -5.2324   -0.7571   -0.3475 H   0  0  0  0  0  0  0  0  0  0  0  0
   -3.8752   -0.1962    0.7708 H   0  0  0  0  0  0  0  0  0  0  0  0
   -5.1966    1.5813    1.3149 H   0  0  0  0  0  0  0  0  0  0  0  0
   -6.3479    1.1939    0.0101 H   0  0  0  0  0  0  0  0  0  0  0  0
   -5.3314    3.1030   -0.9009 H   0  0  0  0  0  0  0  0  0  0  0  0
   -3.7609    2.7830   -0.0179 H   0  0  0  0  0  0  0  0  0  0  0  0
   -1.0524   -3.4151    0.2001 H   0  0  0  0  0  0  0  0  0  0  0  0
    3.6430   -4.6459    1.5276 H   0  0  0  0  0  0  0  0  0  0  0  0
  1  2  3  0
  2  3  1  0
  3  4  2  0
  4  5  1  0
  5  6  2  0
  6  7  1  0
  7  8  2  0
  6  9  1  0
  9 10  2  0
 10 11  1  0
 11 12  1  0
 12 13  1  0
 13 14  1  0
 14 15  1  0
 15 16  1  0
 16 17  1  0
 17 18  1  0
 11 19  2  0
 19 20  1  0
 20 21  2  0
 21 22  1  0
 22 23  2  0
 23 24  1  0
  8  3  1  0
 24  9  1  0
 18 14  1  0
 24 20  1  0
  4 25  1  0
  5 26  1  0
  7 27  1  0
  8 28  1  0
 10 29  1  0
 12 30  1  0
 13 31  1  0
 13 32  1  0
 14 33  1  0
 15 34  1  0
 15 35  1  0
 16 36  1  0
 16 37  1  0
 17 38  1  0
 17 39  1  0
 19 40  1  0
 22 41  1  0
M  END
$$$$
[H]c1nc2c([H])c([H])c([H])c(-c3c([H])c(F)c(C#N)c(F)c3[H])n2n1
     RDKit          3D

 25 27  0  0  0  0  0  0  0  0999 V2000
    3.2029   -2.3071    0.9740 F   0  0  0  0  0  0  0  0  0  0  0  0
    2.6753   -1.1355    0.4845 C   0  0  0  0  0  0  0  0  0  0  0  0
    1.2960   -0.9502    0.4740 C   0  0  0  0  0  0  0  0  0  0  0  0
    0.6686    0.1717    0.0109 C   0  0  0  0  0  0  0  0  0  0  0  0
    1.5112    1.1669   -0.4716 C   0  0  0  0  0  0  0  0  0  0  0  0
    2.9022    1.0111   -0.4744 C   0  0  0  0  0  0  0  0  0  0  0  0
    3.7256    1.9794   -0.9438 F   0  0  0  0  0  0  0  0  0  0  0  0
    3.4742   -0.1398    0.0039 C   0  0  0  0  0  0  0  0  0  0  0  0
    4.8851   -0.3069    0.0049 C   0  0  0  0  0  0  0  0  0  0  0  0
    6.0369   -0.4338    0.0231 N   0  0  0  0  0  0  0  0  0  0  0  0
   -0.7669    0.3637   -0.0302 C   0  0  0  0  0  0  0  0  0  0  0  0
   -1.3259    1.6403   -0.1297 C   0  0  0  0  0  0  0  0  0  0  0  0
   -2.6538    1.9069   -0.2005 C   0  0  0  0  0  0  0  0  0  0  0  0
   -3.5377    0.8685   -0.1746 C   0  0  0  0  0  0  0  0  0  0  0  0
   -3.0093   -0.3970   -0.0770 C   0  0  0  0  0  0  0  0  0  0  0  0
   -3.6797   -1.5620   -0.0413 N   0  0  0  0  0  0  0  0  0  0  0  0
   -2.7531   -2.5207    0.0499 C   0  0  0  0  0  0  0  0  0  0  0  0
   -1.5677   -1.9347    0.0676 N   0  0  0  0  0  0  0  0  0  0  0  0
   -1.6754   -0.6437   -0.0073 N   0  0  0  0  0  0  0  0  0  0  0  0
    0.7258   -1.7656    0.8771 H   0  0  0  0  0  0  0  0  0  0  0  0
    1.1300    2.0851   -0.8644 H   0  0  0  0  0  0  0  0  0  0  0  0
   -0.6429    2.4677   -0.1431 H   0  0  0  0  0  0  0  0  0  0  0  0
   -3.0045    2.9243   -0.2761 H   0  0  0  0  0  0  0  0  0  0  0  0
   -4.5912    1.0852   -0.2309 H   0  0  0  0  0  0  0  0  0  0  0  0
   -3.0255   -3.5738    0.0960 H   0  0  0  0  0  0  0  0  0  0  0  0
  1  2  1  0
  2  3  2  0
  3  4  1  0
  4  5  2  0
  5  6  1  0
  6  7  1  0
  6  8  2  0
  8  9  1  0
  9 10  3  0
  4 11  1  0
 11 12  2  0
 12 13  1  0
 13 14  2  0
 14 15  1  0
 15 16  2  0
 16 17  1  0
 17 18  2  0
 18 19  1  0
  8  2  1  0
 19 11  1  0
 19 15  1  0
  3 20  1  0
  5 21  1  0
 12 22  1  0
 13 23  1  0
 14 24  1  0
 17 25  1  0
M  END
$$$$
[H]c1nc(OC([H])([H])[H])c([H])c(N2C(=O)N(c3c([H])c([H])c(-c4c([H])c([H])c(C(=O)N([H])C([H])([H])[H])c([H])c4[H])c([H])c3[H])C(=O)C23C([H])([H])C([H])([H])N(C([H])([H])c2nc([H])c([H])c([H])c2C([H])([H])[H])C([H])([H])C3([H])[H])n1
     RDKit          3D

 77 82  0  0  0  0  0  0  0  0999 V2000
   11.4917   -2.4686   -0.7493 C   0  0  0  0  0  0  0  0  0  0  0  0
   10.7440   -1.3334   -0.1302 N   0  0  0  0  0  0  0  0  0  0  0  0
    9.4590   -1.1877   -0.5552 C   0  0  0  0  0  0  0  0  0  0  0  0
    9.1096   -2.0755   -1.5306 O   0  0  0  0  0  0  0  0  0  0  0  0
    8.3198   -0.3472   -0.2681 C   0  0  0  0  0  0  0  0  0  0  0  0
    7.6958    0.3704   -1.2902 C   0  0  0  0  0  0  0  0  0  0  0  0
    6.4432    0.9216   -1.0864 C   0  0  0  0  0  0  0  0  0  0  0  0
    5.7801    0.7857    0.1088 C   0  0  0  0  0  0  0  0  0  0  0  0
    6.3764    0.0998    1.1350 C   0  0  0  0  0  0  0  0  0  0  0  0
    7.6505   -0.4618    0.9299 C   0  0  0  0  0  0  0  0  0  0  0  0
    4.3268    1.0428    0.1541 C   0  0  0  0  0  0  0  0  0  0  0  0
    3.6783    1.5671    1.2028 C   0  0  0  0  0  0  0  0  0  0  0  0
    2.2697    1.5598    1.1936 C   0  0  0  0  0  0  0  0  0  0  0  0
    1.5964    1.0164    0.0867 C   0  0  0  0  0  0  0  0  0  0  0  0
    2.2468    0.4880   -0.9796 C   0  0  0  0  0  0  0  0  0  0  0  0
    3.6127    0.5021   -0.9402 C   0  0  0  0  0  0  0  0  0  0  0  0
    0.1847    1.0790    0.1839 N   0  0  0  0  0  0  0  0  0  0  0  0
   -0.6076    2.1133   -0.4533 C   0  0  0  0  0  0  0  0  0  0  0  0
   -0.1458    2.9645   -1.2225 O   0  0  0  0  0  0  0  0  0  0  0  0
   -1.9720    1.8989    0.0046 N   0  0  0  0  0  0  0  0  0  0  0  0
   -2.8138    3.0415    0.2068 C   0  0  0  0  0  0  0  0  0  0  0  0
   -2.3974    4.3154   -0.1128 C   0  0  0  0  0  0  0  0  0  0  0  0
   -3.1315    5.4756    0.1779 C   0  0  0  0  0  0  0  0  0  0  0  0
   -2.6251    6.6874   -0.2000 O   0  0  0  0  0  0  0  0  0  0  0  0
   -3.2848    7.8985    0.0984 C   0  0  0  0  0  0  0  0  0  0  0  0
   -4.3130    5.3406    0.8040 N   0  0  0  0  0  0  0  0  0  0  0  0
   -4.7315    4.0878    1.1157 C   0  0  0  0  0  0  0  0  0  0  0  0
   -4.0020    3.0081    0.8229 N   0  0  0  0  0  0  0  0  0  0  0  0
   -2.0611    0.5126    0.2252 C   0  0  0  0  0  0  0  0  0  0  0  0
   -3.1584   -0.0520    1.0319 C   0  0  0  0  0  0  0  0  0  0  0  0
   -3.0887   -1.6162    0.8820 C   0  0  0  0  0  0  0  0  0  0  0  0
   -3.6494   -1.8979   -0.3312 N   0  0  0  0  0  0  0  0  0  0  0  0
   -4.2643   -2.9903   -0.8620 C   0  0  0  0  0  0  0  0  0  0  0  0
   -5.1609   -3.8884   -0.1634 C   0  0  0  0  0  0  0  0  0  0  0  0
   -4.7998   -4.8541    0.6981 N   0  0  0  0  0  0  0  0  0  0  0  0
   -5.6602   -5.8265    1.0956 C   0  0  0  0  0  0  0  0  0  0  0  0
   -6.9642   -5.8895    0.6504 C   0  0  0  0  0  0  0  0  0  0  0  0
   -7.3750   -4.9063   -0.2330 C   0  0  0  0  0  0  0  0  0  0  0  0
   -6.4833   -3.9643   -0.6021 C   0  0  0  0  0  0  0  0  0  0  0  0
   -6.9142   -2.7887   -1.4369 C   0  0  0  0  0  0  0  0  0  0  0  0
   -3.2008   -0.9786   -1.4154 C   0  0  0  0  0  0  0  0  0  0  0  0
   -1.9451   -0.2742   -1.0565 C   0  0  0  0  0  0  0  0  0  0  0  0
   -0.7222    0.3088    0.9434 C   0  0  0  0  0  0  0  0  0  0  0  0
   -0.4956   -0.3795    1.9643 O   0  0  0  0  0  0  0  0  0  0  0  0
   11.2866   -2.4214   -1.8286 H   0  0  0  0  0  0  0  0  0  0  0  0
   10.9384   -3.3982   -0.3919 H   0  0  0  0  0  0  0  0  0  0  0  0
   12.5099   -2.5085   -0.4155 H   0  0  0  0  0  0  0  0  0  0  0  0
   11.2444   -0.7596    0.5358 H   0  0  0  0  0  0  0  0  0  0  0  0
    8.2029    0.4732   -2.2164 H   0  0  0  0  0  0  0  0  0  0  0  0
    5.9161    1.4989   -1.8538 H   0  0  0  0  0  0  0  0  0  0  0  0
    5.8892   -0.0125    2.0906 H   0  0  0  0  0  0  0  0  0  0  0  0
    8.1457   -1.0161    1.7282 H   0  0  0  0  0  0  0  0  0  0  0  0
    4.1374    2.0132    2.0746 H   0  0  0  0  0  0  0  0  0  0  0  0
    1.7543    1.9863    2.0362 H   0  0  0  0  0  0  0  0  0  0  0  0
    1.7263    0.0579   -1.8379 H   0  0  0  0  0  0  0  0  0  0  0  0
    4.1958    0.1132   -1.7522 H   0  0  0  0  0  0  0  0  0  0  0  0
   -1.5024    4.5188   -0.6341 H   0  0  0  0  0  0  0  0  0  0  0  0
   -2.5706    8.5619    0.6804 H   0  0  0  0  0  0  0  0  0  0  0  0
   -3.6120    8.4000   -0.8182 H   0  0  0  0  0  0  0  0  0  0  0  0
   -4.1077    7.6646    0.7952 H   0  0  0  0  0  0  0  0  0  0  0  0
   -5.7126    4.0533    1.6159 H   0  0  0  0  0  0  0  0  0  0  0  0
   -3.1234    0.2574    2.0664 H   0  0  0  0  0  0  0  0  0  0  0  0
   -4.1168    0.2024    0.5088 H   0  0  0  0  0  0  0  0  0  0  0  0
   -3.7401   -2.0124    1.7313 H   0  0  0  0  0  0  0  0  0  0  0  0
   -2.0739   -1.9899    1.0206 H   0  0  0  0  0  0  0  0  0  0  0  0
   -3.3533   -3.7103   -1.1655 H   0  0  0  0  0  0  0  0  0  0  0  0
   -4.6116   -2.7658   -1.9220 H   0  0  0  0  0  0  0  0  0  0  0  0
   -5.3466   -6.6241    1.7714 H   0  0  0  0  0  0  0  0  0  0  0  0
   -7.6493   -6.6771    0.9809 H   0  0  0  0  0  0  0  0  0  0  0  0
   -8.4130   -4.9008   -0.5938 H   0  0  0  0  0  0  0  0  0  0  0  0
   -6.5019   -2.7476   -2.4297 H   0  0  0  0  0  0  0  0  0  0  0  0
   -8.0252   -2.7066   -1.4964 H   0  0  0  0  0  0  0  0  0  0  0  0
   -6.6308   -1.8877   -0.8014 H   0  0  0  0  0  0  0  0  0  0  0  0
   -3.0180   -1.6618   -2.2714 H   0  0  0  0  0  0  0  0  0  0  0  0
   -4.0235   -0.3118   -1.6709 H   0  0  0  0  0  0  0  0  0  0  0  0
   -1.7171    0.4266   -1.9063 H   0  0  0  0  0  0  0  0  0  0  0  0
   -1.1154   -1.0204   -1.0712 H   0  0  0  0  0  0  0  0  0  0  0  0
  1  2  1  0
  2  3  1  0
  3  4  2  0
  3  5  1  0
  5  6  2  0
  6  7  1  0
  7  8  2  0
  8  9  1  0
  9 10  2  0
  8 11  1  0
 11 12  2  0
 12 13  1  0
 13 14  2  0
 14 15  1  0
 15 16  2  0
 14 17  1  0
 17 18  1  0
 18 19  2  0
 18 20  1  0
 20 21  1  0
 21 22  2  0
 22 23  1  0
 23 24  1  0
 24 25  1  0
 23 26  2  0
 26 27  1  0
 27 28  2  0
 20 29  1  0
 29 30  1  0
 30 31  1  0
 31 32  1  0
 32 33  1  0
 33 34  1  0
 34 35  2  0
 35 36  1  0
 36 37  2  0
 37 38  1  0
 38 39  2  0
 39 40  1  0
 32 41  1  0
 41 42  1  0
 29 43  1  0
 43 44  2  0
 10  5  1  0
 16 11  1  0
 43 17  1  0
 28 21  1  0
 42 29  1  0
 39 34  1  0
  1 45  1  0
  1 46  1  0
  1 47  1  0
  2 48  1  0
  6 49  1  0
  7 50  1  0
  9 51  1  0
 10 52  1  0
 12 53  1  0
 13 54  1  0
 15 55  1  0
 16 56  1  0
 22 57  1  0
 25 58  1  0
 25 59  1  0
 25 60  1  0
 27 61  1  0
 30 62  1  0
 30 63  1  0
 31 64  1  0
 31 65  1  0
 33 66  1  0
 33 67  1  0
 36 68  1  0
 37 69  1  0
 38 70  1  0
 40 71  1  0
 40 72  1  0
 40 73  1  0
 41 74  1  0
 41 75  1  0
 42 76  1  0
 42 77  1  0
M  END
$$$$
[H]c1nc(N2C(=O)N(c3c([H])c([H])c(-c4c([H])c([H])c([H])c([H])c4[H])c([H])c3[H])C(=O)C23C([H])([H])C([H])([H])N(C([H])([H])c2nc([H])c([H])c([H])c2C([H])([H])[H])C([H])([H])C3([H])[H])nc([H])c1[H]
     RDKit          3D

 66 71  0  0  0  0  0  0  0  0999 V2000
   -4.6122    3.0436   -1.3765 C   0  0  0  0  0  0  0  0  0  0  0  0
   -5.7669    2.3851   -0.6845 C   0  0  0  0  0  0  0  0  0  0  0  0
   -7.0645    2.7206   -0.9580 C   0  0  0  0  0  0  0  0  0  0  0  0
   -8.0909    1.9763   -0.3785 C   0  0  0  0  0  0  0  0  0  0  0  0
   -7.7925    0.9329    0.4558 C   0  0  0  0  0  0  0  0  0  0  0  0
   -6.4795    0.6595    0.6955 N   0  0  0  0  0  0  0  0  0  0  0  0
   -5.4716    1.3258    0.1747 C   0  0  0  0  0  0  0  0  0  0  0  0
   -4.0998    1.2265    0.6797 C   0  0  0  0  0  0  0  0  0  0  0  0
   -3.2282    0.2651    0.3089 N   0  0  0  0  0  0  0  0  0  0  0  0
   -3.1923   -1.0801    0.2300 C   0  0  0  0  0  0  0  0  0  0  0  0
   -2.0212   -1.4690   -0.7126 C   0  0  0  0  0  0  0  0  0  0  0  0
   -0.7359   -1.2593   -0.0242 C   0  0  0  0  0  0  0  0  0  0  0  0
   -0.9042   -0.1181    0.9570 C   0  0  0  0  0  0  0  0  0  0  0  0
   -1.8514    0.8443    0.2962 C   0  0  0  0  0  0  0  0  0  0  0  0
   -0.0828   -2.3825    0.5050 N   0  0  0  0  0  0  0  0  0  0  0  0
    1.3210   -2.0049    0.5987 C   0  0  0  0  0  0  0  0  0  0  0  0
    2.1708   -2.4826    1.3835 O   0  0  0  0  0  0  0  0  0  0  0  0
    1.5366   -0.9785   -0.3742 N   0  0  0  0  0  0  0  0  0  0  0  0
    0.3093   -0.7664   -1.0212 C   0  0  0  0  0  0  0  0  0  0  0  0
    0.0815   -0.2748   -2.1486 O   0  0  0  0  0  0  0  0  0  0  0  0
    2.7959   -0.3167   -0.5897 C   0  0  0  0  0  0  0  0  0  0  0  0
    3.9744   -0.9937   -0.2718 C   0  0  0  0  0  0  0  0  0  0  0  0
    5.1993   -0.3552   -0.2909 C   0  0  0  0  0  0  0  0  0  0  0  0
    5.1876    0.9797   -0.6413 C   0  0  0  0  0  0  0  0  0  0  0  0
    4.0484    1.6563   -0.9791 C   0  0  0  0  0  0  0  0  0  0  0  0
    2.7993    0.9938   -0.9531 C   0  0  0  0  0  0  0  0  0  0  0  0
    6.4259    1.7520   -0.3673 C   0  0  0  0  0  0  0  0  0  0  0  0
    7.6530    1.2003   -0.3820 C   0  0  0  0  0  0  0  0  0  0  0  0
    8.7589    1.9050    0.0425 C   0  0  0  0  0  0  0  0  0  0  0  0
    8.5952    3.1802    0.4967 C   0  0  0  0  0  0  0  0  0  0  0  0
    7.3489    3.7617    0.5150 C   0  0  0  0  0  0  0  0  0  0  0  0
    6.2665    3.0320    0.0687 C   0  0  0  0  0  0  0  0  0  0  0  0
   -0.4172   -3.7161    0.9017 C   0  0  0  0  0  0  0  0  0  0  0  0
   -1.0963   -4.5504    0.1042 N   0  0  0  0  0  0  0  0  0  0  0  0
   -1.3386   -5.8438    0.4618 C   0  0  0  0  0  0  0  0  0  0  0  0
   -0.8824   -6.2984    1.6710 C   0  0  0  0  0  0  0  0  0  0  0  0
   -0.1952   -5.4605    2.5103 C   0  0  0  0  0  0  0  0  0  0  0  0
    0.0164   -4.1808    2.0737 N   0  0  0  0  0  0  0  0  0  0  0  0
   -4.9956    3.7026   -2.1666 H   0  0  0  0  0  0  0  0  0  0  0  0
   -4.0412    2.2238   -1.9366 H   0  0  0  0  0  0  0  0  0  0  0  0
   -3.9097    3.5496   -0.7588 H   0  0  0  0  0  0  0  0  0  0  0  0
   -7.3118    3.5289   -1.6082 H   0  0  0  0  0  0  0  0  0  0  0  0
   -9.1133    2.2479   -0.6044 H   0  0  0  0  0  0  0  0  0  0  0  0
   -8.6040    0.3761    0.9053 H   0  0  0  0  0  0  0  0  0  0  0  0
   -3.6248    2.2506    0.6093 H   0  0  0  0  0  0  0  0  0  0  0  0
   -4.2226    1.2158    1.8734 H   0  0  0  0  0  0  0  0  0  0  0  0
   -3.0822   -1.7078    1.1434 H   0  0  0  0  0  0  0  0  0  0  0  0
   -4.1352   -1.5125   -0.2564 H   0  0  0  0  0  0  0  0  0  0  0  0
   -2.1069   -0.7610   -1.5649 H   0  0  0  0  0  0  0  0  0  0  0  0
   -2.1825   -2.4734   -1.1444 H   0  0  0  0  0  0  0  0  0  0  0  0
    0.0682    0.4139    1.0356 H   0  0  0  0  0  0  0  0  0  0  0  0
   -1.2939   -0.4265    1.9431 H   0  0  0  0  0  0  0  0  0  0  0  0
   -1.6183    1.0016   -0.7630 H   0  0  0  0  0  0  0  0  0  0  0  0
   -1.8793    1.8056    0.8030 H   0  0  0  0  0  0  0  0  0  0  0  0
    3.9360   -2.0378   -0.0272 H   0  0  0  0  0  0  0  0  0  0  0  0
    6.0840   -0.9150   -0.0435 H   0  0  0  0  0  0  0  0  0  0  0  0
    4.1144    2.6881   -1.2762 H   0  0  0  0  0  0  0  0  0  0  0  0
    1.9505    1.5835   -1.2088 H   0  0  0  0  0  0  0  0  0  0  0  0
    7.8511    0.1811   -0.7282 H   0  0  0  0  0  0  0  0  0  0  0  0
    9.7624    1.4395    0.0375 H   0  0  0  0  0  0  0  0  0  0  0  0
    9.4731    3.7407    0.8477 H   0  0  0  0  0  0  0  0  0  0  0  0
    7.2143    4.7754    0.8628 H   0  0  0  0  0  0  0  0  0  0  0  0
    5.2913    3.5211    0.1020 H   0  0  0  0  0  0  0  0  0  0  0  0
   -1.8724   -6.5371   -0.1851 H   0  0  0  0  0  0  0  0  0  0  0  0
   -1.0627   -7.3579    1.9761 H   0  0  0  0  0  0  0  0  0  0  0  0
    0.1460   -5.8257    3.4500 H   0  0  0  0  0  0  0  0  0  0  0  0
  1  2  1  0
  2  3  2  0
  3  4  1  0
  4  5  2  0
  5  6  1  0
  6  7  2  0
  7  8  1  0
  8  9  1  0
  9 10  1  0
 10 11  1  0
 11 12  1  0
 12 13  1  0
 13 14  1  0
 12 15  1  0
 15 16  1  0
 16 17  2  0
 16 18  1  0
 18 19  1  0
 19 20  2  0
 18 21  1  0
 21 22  2  0
 22 23  1  0
 23 24  2  0
 24 25  1  0
 25 26  2  0
 24 27  1  0
 27 28  2  0
 28 29  1  0
 29 30  2  0
 30 31  1  0
 31 32  2  0
 15 33  1  0
 33 34  2  0
 34 35  1  0
 35 36  2  0
 36 37  1  0
 37 38  2  0
  7  2  1  0
 14  9  1  0
 26 21  1  0
 32 27  1  0
 38 33  1  0
 19 12  1  0
  1 39  1  0
  1 40  1  0
  1 41  1  0
  3 42  1  0
  4 43  1  0
  5 44  1  0
  8 45  1  0
  8 46  1  0
 10 47  1  0
 10 48  1  0
 11 49  1  0
 11 50  1  0
 13 51  1  0
 13 52  1  0
 14 53  1  0
 14 54  1  0
 22 55  1  0
 23 56  1  0
 25 57  1  0
 26 58  1  0
 28 59  1  0
 29 60  1  0
 30 61  1  0
 31 62  1  0
 32 63  1  0
 35 64  1  0
 36 65  1  0
 37 66  1  0
M  END
$$$$
[H]OC(=O)c1c([H])c([H])c(-c2c([H])c([H])c(N3C(=O)N(c4nc([H])nc([H])c4[H])C4(C3=O)C([H])([H])C([H])([H])N(C([H])([H])c3nc([H])c([H])c([H])c3C([H])([H])[H])C([H])([H])C4([H])[H])c([H])c2[H])c([H])c1[H]
     RDKit          3D

 69 74  0  0  0  0  0  0  0  0999 V2000
   -5.9864    3.4950    0.3230 C   0  0  0  0  0  0  0  0  0  0  0  0
   -6.6575    2.1810    0.2887 C   0  0  0  0  0  0  0  0  0  0  0  0
   -8.0042    2.0829    0.5400 C   0  0  0  0  0  0  0  0  0  0  0  0
   -8.6268    0.8587    0.5063 C   0  0  0  0  0  0  0  0  0  0  0  0
   -7.8627   -0.2490    0.2159 C   0  0  0  0  0  0  0  0  0  0  0  0
   -6.5504   -0.1084   -0.0233 N   0  0  0  0  0  0  0  0  0  0  0  0
   -5.8840    1.0553   -0.0060 C   0  0  0  0  0  0  0  0  0  0  0  0
   -4.4584    1.2077   -0.2725 C   0  0  0  0  0  0  0  0  0  0  0  0
   -3.7310    0.0349   -0.5572 N   0  0  0  0  0  0  0  0  0  0  0  0
   -3.6528   -0.9799    0.4248 C   0  0  0  0  0  0  0  0  0  0  0  0
   -2.3532   -1.1245    1.1194 C   0  0  0  0  0  0  0  0  0  0  0  0
   -1.1565   -1.0003    0.2653 C   0  0  0  0  0  0  0  0  0  0  0  0
   -1.2817    0.1582   -0.6583 C   0  0  0  0  0  0  0  0  0  0  0  0
   -2.5811    0.2112   -1.3747 C   0  0  0  0  0  0  0  0  0  0  0  0
   -0.7232   -2.2228   -0.3872 N   0  0  0  0  0  0  0  0  0  0  0  0
    0.6333   -1.9598   -0.7310 C   0  0  0  0  0  0  0  0  0  0  0  0
    1.2803   -2.4755   -1.6990 O   0  0  0  0  0  0  0  0  0  0  0  0
    1.1651   -1.0039    0.2044 N   0  0  0  0  0  0  0  0  0  0  0  0
    0.0665   -0.7272    1.0991 C   0  0  0  0  0  0  0  0  0  0  0  0
    0.1472   -0.3488    2.2889 O   0  0  0  0  0  0  0  0  0  0  0  0
    2.4563   -0.4375    0.2704 C   0  0  0  0  0  0  0  0  0  0  0  0
    3.5428   -1.2668    0.4125 C   0  0  0  0  0  0  0  0  0  0  0  0
    4.8319   -0.7909    0.4893 C   0  0  0  0  0  0  0  0  0  0  0  0
    5.0526    0.5653    0.4223 C   0  0  0  0  0  0  0  0  0  0  0  0
    3.9773    1.4305    0.2787 C   0  0  0  0  0  0  0  0  0  0  0  0
    2.6843    0.9188    0.2038 C   0  0  0  0  0  0  0  0  0  0  0  0
    6.4223    1.0758    0.5077 C   0  0  0  0  0  0  0  0  0  0  0  0
    7.3394    0.3876    1.2702 C   0  0  0  0  0  0  0  0  0  0  0  0
    8.6457    0.8432    1.3820 C   0  0  0  0  0  0  0  0  0  0  0  0
    9.0565    2.0050    0.7261 C   0  0  0  0  0  0  0  0  0  0  0  0
    8.1173    2.6694   -0.0277 C   0  0  0  0  0  0  0  0  0  0  0  0
    6.8143    2.2284   -0.1484 C   0  0  0  0  0  0  0  0  0  0  0  0
   10.4044    2.5003    0.8271 C   0  0  0  0  0  0  0  0  0  0  0  0
   10.7411    3.6623    0.1525 O   0  0  0  0  0  0  0  0  0  0  0  0
   11.3037    1.9282    1.5028 O   0  0  0  0  0  0  0  0  0  0  0  0
   -1.4109   -3.4293   -0.6568 C   0  0  0  0  0  0  0  0  0  0  0  0
   -1.5698   -3.8363   -1.9630 C   0  0  0  0  0  0  0  0  0  0  0  0
   -2.2335   -5.0020   -2.2800 C   0  0  0  0  0  0  0  0  0  0  0  0
   -2.7361   -5.7573   -1.2916 N   0  0  0  0  0  0  0  0  0  0  0  0
   -2.5866   -5.3696   -0.0174 C   0  0  0  0  0  0  0  0  0  0  0  0
   -1.9371   -4.2294    0.2914 N   0  0  0  0  0  0  0  0  0  0  0  0
   -6.6691    4.2505    0.7604 H   0  0  0  0  0  0  0  0  0  0  0  0
   -5.0728    3.5064    0.9532 H   0  0  0  0  0  0  0  0  0  0  0  0
   -5.6786    3.8165   -0.6991 H   0  0  0  0  0  0  0  0  0  0  0  0
   -8.5691    2.9822    0.7646 H   0  0  0  0  0  0  0  0  0  0  0  0
   -9.6924    0.7744    0.7039 H   0  0  0  0  0  0  0  0  0  0  0  0
   -8.2821   -1.2270    0.1737 H   0  0  0  0  0  0  0  0  0  0  0  0
   -3.9963    1.8141    0.5640 H   0  0  0  0  0  0  0  0  0  0  0  0
   -4.3546    1.8897   -1.1660 H   0  0  0  0  0  0  0  0  0  0  0  0
   -3.9319   -1.9574   -0.0516 H   0  0  0  0  0  0  0  0  0  0  0  0
   -4.4199   -0.8256    1.2278 H   0  0  0  0  0  0  0  0  0  0  0  0
   -2.2937   -0.3275    1.9098 H   0  0  0  0  0  0  0  0  0  0  0  0
   -2.3814   -2.0825    1.7027 H   0  0  0  0  0  0  0  0  0  0  0  0
   -0.4682    0.0908   -1.4360 H   0  0  0  0  0  0  0  0  0  0  0  0
   -1.1326    1.0933   -0.0720 H   0  0  0  0  0  0  0  0  0  0  0  0
   -2.6042   -0.5434   -2.1870 H   0  0  0  0  0  0  0  0  0  0  0  0
   -2.6587    1.2218   -1.8635 H   0  0  0  0  0  0  0  0  0  0  0  0
    3.3685   -2.3402    0.4654 H   0  0  0  0  0  0  0  0  0  0  0  0
    5.6523   -1.4787    0.6007 H   0  0  0  0  0  0  0  0  0  0  0  0
    4.1610    2.4920    0.2270 H   0  0  0  0  0  0  0  0  0  0  0  0
    1.8198    1.5617    0.0916 H   0  0  0  0  0  0  0  0  0  0  0  0
    7.0191   -0.5185    1.7823 H   0  0  0  0  0  0  0  0  0  0  0  0
    9.3800    0.3228    1.9723 H   0  0  0  0  0  0  0  0  0  0  0  0
    8.4084    3.5804   -0.5526 H   0  0  0  0  0  0  0  0  0  0  0  0
    6.0782    2.7521   -0.7409 H   0  0  0  0  0  0  0  0  0  0  0  0
   10.1238    4.4817    0.2230 H   0  0  0  0  0  0  0  0  0  0  0  0
   -1.1637   -3.2290   -2.7863 H   0  0  0  0  0  0  0  0  0  0  0  0
   -2.3646   -5.3323   -3.3015 H   0  0  0  0  0  0  0  0  0  0  0  0
   -2.9760   -5.9490    0.7962 H   0  0  0  0  0  0  0  0  0  0  0  0
  1  2  1  0
  2  3  2  0
  3  4  1  0
  4  5  2  0
  5  6  1  0
  6  7  2  0
  7  8  1  0
  8  9  1  0
  9 10  1  0
 10 11  1  0
 11 12  1  0
 12 13  1  0
 13 14  1  0
 12 15  1  0
 15 16  1  0
 16 17  2  0
 16 18  1  0
 18 19  1  0
 19 20  2  0
 18 21  1  0
 21 22  2  0
 22 23  1  0
 23 24  2  0
 24 25  1  0
 25 26  2  0
 24 27  1  0
 27 28  2  0
 28 29  1  0
 29 30  2  0
 30 31  1  0
 31 32  2  0
 30 33  1  0
 33 34  1  0
 33 35  2  0
 15 36  1  0
 36 37  2  0
 37 38  1  0
 38 39  2  0
 39 40  1  0
 40 41  2  0
  7  2  1  0
 14  9  1  0
 26 21  1  0
 32 27  1  0
 41 36  1  0
 19 12  1  0
  1 42  1  0
  1 43  1  0
  1 44  1  0
  3 45  1  0
  4 46  1  0
  5 47  1  0
  8 48  1  0
  8 49  1  0
 10 50  1  0
 10 51  1  0
 11 52  1  0
 11 53  1  0
 13 54  1  0
 13 55  1  0
 14 56  1  0
 14 57  1  0
 22 58  1  0
 23 59  1  0
 25 60  1  0
 26 61  1  0
 28 62  1  0
 29 63  1  0
 31 64  1  0
 32 65  1  0
 34 66  1  0
 37 67  1  0
 38 68  1  0
 40 69  1  0
M  END
$$$$
[H]c1nc(OC([H])([H])[H])c([H])c(N2C(=O)N(c3c([H])c([H])c(-c4c([H])c([H])c5c([H])nn([H])c5c4[H])c([H])c3[H])C(=O)C23C([H])([H])C([H])([H])N(C([H])([H])c2nc([H])c([H])c([H])c2C([H])([H])[H])C([H])([H])C3([H])[H])n1
     RDKit          3D

 73 79  0  0  0  0  0  0  0  0999 V2000
   -2.4773    7.8739    0.1095 C   0  0  0  0  0  0  0  0  0  0  0  0
   -2.3821    6.5878   -0.4920 O   0  0  0  0  0  0  0  0  0  0  0  0
   -1.9043    5.5557    0.2998 C   0  0  0  0  0  0  0  0  0  0  0  0
   -1.7615    4.2686   -0.2654 C   0  0  0  0  0  0  0  0  0  0  0  0
   -1.2911    3.2618    0.4895 C   0  0  0  0  0  0  0  0  0  0  0  0
   -0.9682    3.5141    1.7960 N   0  0  0  0  0  0  0  0  0  0  0  0
   -1.1146    4.7369    2.3114 C   0  0  0  0  0  0  0  0  0  0  0  0
   -1.5738    5.7459    1.5883 N   0  0  0  0  0  0  0  0  0  0  0  0
   -0.9108    2.0044    0.0015 N   0  0  0  0  0  0  0  0  0  0  0  0
    0.5427    1.8690   -0.1815 C   0  0  0  0  0  0  0  0  0  0  0  0
    1.4496    2.5665    0.3167 O   0  0  0  0  0  0  0  0  0  0  0  0
    0.7927    0.7601   -1.0693 N   0  0  0  0  0  0  0  0  0  0  0  0
   -0.4573    0.2640   -1.4164 C   0  0  0  0  0  0  0  0  0  0  0  0
   -0.7342   -0.4325   -2.4314 O   0  0  0  0  0  0  0  0  0  0  0  0
   -1.4265    0.7369   -0.3441 C   0  0  0  0  0  0  0  0  0  0  0  0
   -2.7982    0.6526   -0.8598 C   0  0  0  0  0  0  0  0  0  0  0  0
   -3.8408    0.1688    0.1799 C   0  0  0  0  0  0  0  0  0  0  0  0
   -3.3281   -0.9944    0.7036 N   0  0  0  0  0  0  0  0  0  0  0  0
   -3.9828   -2.1014    1.1811 C   0  0  0  0  0  0  0  0  0  0  0  0
   -5.2219   -2.5487    0.5743 C   0  0  0  0  0  0  0  0  0  0  0  0
   -6.3927   -1.9454    0.8233 N   0  0  0  0  0  0  0  0  0  0  0  0
   -7.5757   -2.5503    0.5039 C   0  0  0  0  0  0  0  0  0  0  0  0
   -7.6211   -3.7860   -0.0794 C   0  0  0  0  0  0  0  0  0  0  0  0
   -6.4220   -4.4444   -0.3606 C   0  0  0  0  0  0  0  0  0  0  0  0
   -5.2720   -3.7857   -0.0191 C   0  0  0  0  0  0  0  0  0  0  0  0
   -3.9633   -4.3205   -0.4880 C   0  0  0  0  0  0  0  0  0  0  0  0
   -2.2454   -0.6248    1.6410 C   0  0  0  0  0  0  0  0  0  0  0  0
   -1.1018   -0.2234    0.8012 C   0  0  0  0  0  0  0  0  0  0  0  0
    2.1640    0.3459   -1.2652 C   0  0  0  0  0  0  0  0  0  0  0  0
    2.5823   -0.7273   -0.4595 C   0  0  0  0  0  0  0  0  0  0  0  0
    3.8573   -1.0705   -0.3818 C   0  0  0  0  0  0  0  0  0  0  0  0
    4.8550   -0.3800   -1.1097 C   0  0  0  0  0  0  0  0  0  0  0  0
    4.4643    0.6519   -1.9000 C   0  0  0  0  0  0  0  0  0  0  0  0
    3.0886    1.0155   -1.9732 C   0  0  0  0  0  0  0  0  0  0  0  0
    6.2015   -0.8786   -0.8706 C   0  0  0  0  0  0  0  0  0  0  0  0
    7.1477   -0.9216   -1.8422 C   0  0  0  0  0  0  0  0  0  0  0  0
    8.3665   -1.5543   -1.5727 C   0  0  0  0  0  0  0  0  0  0  0  0
    8.6049   -2.1221   -0.3292 C   0  0  0  0  0  0  0  0  0  0  0  0
    9.6450   -2.8423    0.2375 C   0  0  0  0  0  0  0  0  0  0  0  0
    9.3012   -3.1944    1.5070 N   0  0  0  0  0  0  0  0  0  0  0  0
    8.0905   -2.7242    1.7536 N   0  0  0  0  0  0  0  0  0  0  0  0
    7.6514   -2.0783    0.6689 C   0  0  0  0  0  0  0  0  0  0  0  0
    6.4677   -1.4543    0.3713 C   0  0  0  0  0  0  0  0  0  0  0  0
   -1.4412    8.2886    0.2570 H   0  0  0  0  0  0  0  0  0  0  0  0
   -2.9158    7.8314    1.1084 H   0  0  0  0  0  0  0  0  0  0  0  0
   -3.0143    8.5536   -0.5471 H   0  0  0  0  0  0  0  0  0  0  0  0
   -2.0494    4.1332   -1.3075 H   0  0  0  0  0  0  0  0  0  0  0  0
   -0.8331    4.8885    3.3374 H   0  0  0  0  0  0  0  0  0  0  0  0
   -2.9198   -0.0362   -1.7251 H   0  0  0  0  0  0  0  0  0  0  0  0
   -3.1271    1.6506   -1.1898 H   0  0  0  0  0  0  0  0  0  0  0  0
   -4.7732    0.0487   -0.4248 H   0  0  0  0  0  0  0  0  0  0  0  0
   -3.9423    0.9498    0.9462 H   0  0  0  0  0  0  0  0  0  0  0  0
   -4.3063   -1.7478    2.3082 H   0  0  0  0  0  0  0  0  0  0  0  0
   -3.2964   -2.9056    1.5014 H   0  0  0  0  0  0  0  0  0  0  0  0
   -8.5065   -2.0151    0.7567 H   0  0  0  0  0  0  0  0  0  0  0  0
   -8.5793   -4.2704   -0.3339 H   0  0  0  0  0  0  0  0  0  0  0  0
   -6.4528   -5.4149   -0.8288 H   0  0  0  0  0  0  0  0  0  0  0  0
   -3.2052   -4.3426    0.2660 H   0  0  0  0  0  0  0  0  0  0  0  0
   -4.0464   -5.2640   -1.0376 H   0  0  0  0  0  0  0  0  0  0  0  0
   -3.5939   -3.5848   -1.3012 H   0  0  0  0  0  0  0  0  0  0  0  0
   -1.9310   -1.4958    2.2586 H   0  0  0  0  0  0  0  0  0  0  0  0
   -2.6187    0.2287    2.2407 H   0  0  0  0  0  0  0  0  0  0  0  0
   -0.3458    0.2747    1.4712 H   0  0  0  0  0  0  0  0  0  0  0  0
   -0.5881   -1.1392    0.4517 H   0  0  0  0  0  0  0  0  0  0  0  0
    1.7679   -1.2523    0.0850 H   0  0  0  0  0  0  0  0  0  0  0  0
    4.1660   -1.8904    0.2191 H   0  0  0  0  0  0  0  0  0  0  0  0
    5.2040    1.1914   -2.4577 H   0  0  0  0  0  0  0  0  0  0  0  0
    2.8199    1.8570   -2.6142 H   0  0  0  0  0  0  0  0  0  0  0  0
    7.0266   -0.4797   -2.8332 H   0  0  0  0  0  0  0  0  0  0  0  0
    9.1435   -1.6176   -2.3064 H   0  0  0  0  0  0  0  0  0  0  0  0
   10.5560   -3.1085   -0.2606 H   0  0  0  0  0  0  0  0  0  0  0  0
    7.5724   -2.8327    2.6560 H   0  0  0  0  0  0  0  0  0  0  0  0
    5.7247   -1.3735    1.1563 H   0  0  0  0  0  0  0  0  0  0  0  0
  1  2  1  0
  2  3  1  0
  3  4  2  0
  4  5  1  0
  5  6  2  0
  6  7  1  0
  7  8  2  0
  5  9  1  0
  9 10  1  0
 10 11  2  0
 10 12  1  0
 12 13  1  0
 13 14  2  0
 13 15  1  0
 15 16  1  0
 16 17  1  0
 17 18  1  0
 18 19  1  0
 19 20  1  0
 20 21  2  0
 21 22  1  0
 22 23  2  0
 23 24  1  0
 24 25  2  0
 25 26  1  0
 18 27  1  0
 27 28  1  0
 12 29  1  0
 29 30  2  0
 30 31  1  0
 31 32  2  0
 32 33  1  0
 33 34  2  0
 32 35  1  0
 35 36  2  0
 36 37  1  0
 37 38  2  0
 38 39  1  0
 39 40  2  0
 40 41  1  0
 41 42  1  0
 42 43  2  0
  8  3  1  0
 15  9  1  0
 28 15  1  0
 34 29  1  0
 43 35  1  0
 25 20  1  0
 42 38  1  0
  1 44  1  0
  1 45  1  0
  1 46  1  0
  4 47  1  0
  7 48  1  0
 16 49  1  0
 16 50  1  0
 17 51  1  0
 17 52  1  0
 19 53  1  0
 19 54  1  0
 22 55  1  0
 23 56  1  0
 24 57  1  0
 26 58  1  0
 26 59  1  0
 26 60  1  0
 27 61  1  0
 27 62  1  0
 28 63  1  0
 28 64  1  0
 30 65  1  0
 31 66  1  0
 33 67  1  0
 34 68  1  0
 36 69  1  0
 37 70  1  0
 39 71  1  0
 41 72  1  0
 43 73  1  0
M  END
$$$$
[H]c1nc2c([H])c([H])c([H])c(-c3c([H])c([H])c(C#N)c([H])c3N([H])[H])n2n1
     RDKit          3D

 27 29  0  0  0  0  0  0  0  0999 V2000
    0.8210    2.1053    0.1198 N   0  0  0  0  0  0  0  0  0  0  0  0
    1.3711    0.8095    0.0131 C   0  0  0  0  0  0  0  0  0  0  0  0
    2.7283    0.6878   -0.2779 C   0  0  0  0  0  0  0  0  0  0  0  0
    3.3464   -0.5426   -0.3998 C   0  0  0  0  0  0  0  0  0  0  0  0
    2.5373   -1.6573   -0.2156 C   0  0  0  0  0  0  0  0  0  0  0  0
    1.1972   -1.5455    0.0719 C   0  0  0  0  0  0  0  0  0  0  0  0
    0.6028   -0.3022    0.1886 C   0  0  0  0  0  0  0  0  0  0  0  0
   -0.8152   -0.1392    0.4924 C   0  0  0  0  0  0  0  0  0  0  0  0
   -1.1794   -0.0573    1.8097 C   0  0  0  0  0  0  0  0  0  0  0  0
   -2.5239    0.0971    2.0936 C   0  0  0  0  0  0  0  0  0  0  0  0
   -3.4105    0.1589    1.0414 C   0  0  0  0  0  0  0  0  0  0  0  0
   -2.9769    0.0691   -0.2856 C   0  0  0  0  0  0  0  0  0  0  0  0
   -3.6615    0.1058   -1.4402 N   0  0  0  0  0  0  0  0  0  0  0  0
   -2.7680   -0.0227   -2.4300 C   0  0  0  0  0  0  0  0  0  0  0  0
   -1.5569   -0.1351   -1.8581 N   0  0  0  0  0  0  0  0  0  0  0  0
   -1.6670   -0.0806   -0.5395 N   0  0  0  0  0  0  0  0  0  0  0  0
    4.7459   -0.6742   -0.6999 C   0  0  0  0  0  0  0  0  0  0  0  0
    5.8728   -0.7901   -0.9582 N   0  0  0  0  0  0  0  0  0  0  0  0
    0.0462    2.2438    0.8036 H   0  0  0  0  0  0  0  0  0  0  0  0
    1.2115    2.8607   -0.4859 H   0  0  0  0  0  0  0  0  0  0  0  0
    3.3576    1.5589   -0.4213 H   0  0  0  0  0  0  0  0  0  0  0  0
    2.9918   -2.6394   -0.3045 H   0  0  0  0  0  0  0  0  0  0  0  0
    0.5569   -2.4193    0.2177 H   0  0  0  0  0  0  0  0  0  0  0  0
   -0.4769   -0.1066    2.6339 H   0  0  0  0  0  0  0  0  0  0  0  0
   -2.8868    0.1697    3.1285 H   0  0  0  0  0  0  0  0  0  0  0  0
   -4.4812    0.2795    1.1957 H   0  0  0  0  0  0  0  0  0  0  0  0
   -2.9827   -0.0339   -3.4935 H   0  0  0  0  0  0  0  0  0  0  0  0
  1  2  1  0
  2  3  2  0
  3  4  1  0
  4  5  2  0
  5  6  1  0
  6  7  2  0
  7  8  1  0
  8  9  2  0
  9 10  1  0
 10 11  2  0
 11 12  1  0
 12 13  2  0
 13 14  1  0
 14 15  2  0
 15 16  1  0
  4 17  1  0
 17 18  3  0
  7  2  1  0
 16  8  1  0
 16 12  1  0
  1 19  1  0
  1 20  1  0
  3 21  1  0
  5 22  1  0
  6 23  1  0
  9 24  1  0
 10 25  1  0
 11 26  1  0
 14 27  1  0
M  END
$$$$
[H]c1nc2nc(N(C([H])([H])[H])C([H])([H])[H])c([H])c(-c3c([H])c([H])c(C#N)c([H])c3[H])n2n1
     RDKit          3D

 32 34  0  0  0  0  0  0  0  0999 V2000
   -4.5257    0.5385    0.1218 C   0  0  0  0  0  0  0  0  0  0  0  0
   -3.1552    0.9439    0.1147 N   0  0  0  0  0  0  0  0  0  0  0  0
   -2.8537    2.3538    0.2501 C   0  0  0  0  0  0  0  0  0  0  0  0
   -2.1062   -0.0157   -0.0222 C   0  0  0  0  0  0  0  0  0  0  0  0
   -0.7763    0.3426   -0.0328 C   0  0  0  0  0  0  0  0  0  0  0  0
    0.2379   -0.5973   -0.1665 C   0  0  0  0  0  0  0  0  0  0  0  0
    1.6061   -0.1319   -0.1415 C   0  0  0  0  0  0  0  0  0  0  0  0
    2.5935   -0.7425   -0.8382 C   0  0  0  0  0  0  0  0  0  0  0  0
    3.9056   -0.2532   -0.7545 C   0  0  0  0  0  0  0  0  0  0  0  0
    4.1666    0.8419    0.0354 C   0  0  0  0  0  0  0  0  0  0  0  0
    3.1693    1.4771    0.7525 C   0  0  0  0  0  0  0  0  0  0  0  0
    1.9051    0.9830    0.6549 C   0  0  0  0  0  0  0  0  0  0  0  0
    5.5194    1.3282    0.1074 C   0  0  0  0  0  0  0  0  0  0  0  0
    6.6102    1.7231    0.1820 N   0  0  0  0  0  0  0  0  0  0  0  0
   -0.0440   -1.9037   -0.2913 N   0  0  0  0  0  0  0  0  0  0  0  0
    0.6960   -2.9995   -0.4224 N   0  0  0  0  0  0  0  0  0  0  0  0
   -0.1368   -4.0365   -0.4949 C   0  0  0  0  0  0  0  0  0  0  0  0
   -1.3945   -3.5879   -0.4089 N   0  0  0  0  0  0  0  0  0  0  0  0
   -1.3436   -2.2467   -0.2802 C   0  0  0  0  0  0  0  0  0  0  0  0
   -2.3530   -1.3284   -0.1493 N   0  0  0  0  0  0  0  0  0  0  0  0
   -4.6363   -0.4258   -0.3993 H   0  0  0  0  0  0  0  0  0  0  0  0
   -4.9302    0.5093    1.1719 H   0  0  0  0  0  0  0  0  0  0  0  0
   -5.1134    1.2886   -0.4342 H   0  0  0  0  0  0  0  0  0  0  0  0
   -2.5253    2.8093   -0.7117 H   0  0  0  0  0  0  0  0  0  0  0  0
   -3.7232    2.8951    0.6912 H   0  0  0  0  0  0  0  0  0  0  0  0
   -2.0245    2.4819    0.9791 H   0  0  0  0  0  0  0  0  0  0  0  0
   -0.5542    1.4005    0.0680 H   0  0  0  0  0  0  0  0  0  0  0  0
    2.4228   -1.6062   -1.4883 H   0  0  0  0  0  0  0  0  0  0  0  0
    4.6569   -0.7760   -1.3291 H   0  0  0  0  0  0  0  0  0  0  0  0
    3.3981    2.3400    1.3694 H   0  0  0  0  0  0  0  0  0  0  0  0
    1.1198    1.4799    1.2181 H   0  0  0  0  0  0  0  0  0  0  0  0
    0.1889   -5.0857   -0.6077 H   0  0  0  0  0  0  0  0  0  0  0  0
  1  2  1  0
  2  3  1  0
  2  4  1  0
  4  5  1  0
  5  6  2  0
  6  7  1  0
  7  8  2  0
  8  9  1  0
  9 10  2  0
 10 11  1  0
 11 12  2  0
 10 13  1  0
 13 14  3  0
  6 15  1  0
 15 16  1  0
 16 17  2  0
 17 18  1  0
 18 19  2  0
 19 20  1  0
 20  4  2  0
 12  7  1  0
 19 15  1  0
  1 21  1  0
  1 22  1  0
  1 23  1  0
  3 24  1  0
  3 25  1  0
  3 26  1  0
  5 27  1  0
  8 28  1  0
  9 29  1  0
 11 30  1  0
 12 31  1  0
 17 32  1  0
M  END
$$$$
[H]c1nc2c([H])c(N([H])C(=O)OC([H])([H])[H])c([H])c(-c3c([H])c([H])c(C#N)c([H])c3C([H])([H])[H])n2n1
     RDKit          3D

 36 38  0  0  0  0  0  0  0  0999 V2000
    6.3721    1.7071    1.0298 C   0  0  0  0  0  0  0  0  0  0  0  0
    5.0024    1.5385    1.3314 O   0  0  0  0  0  0  0  0  0  0  0  0
    4.1407    0.8762    0.4139 C   0  0  0  0  0  0  0  0  0  0  0  0
    4.6969    0.4811   -0.6315 O   0  0  0  0  0  0  0  0  0  0  0  0
    2.7758    0.7309    0.7597 N   0  0  0  0  0  0  0  0  0  0  0  0
    1.7680    0.1078   -0.0120 C   0  0  0  0  0  0  0  0  0  0  0  0
    0.4654    0.0496    0.4926 C   0  0  0  0  0  0  0  0  0  0  0  0
   -0.5845   -0.5293   -0.1710 C   0  0  0  0  0  0  0  0  0  0  0  0
   -1.9305   -0.5743    0.3806 C   0  0  0  0  0  0  0  0  0  0  0  0
   -2.3718   -1.6250    1.1724 C   0  0  0  0  0  0  0  0  0  0  0  0
   -3.6546   -1.6375    1.6802 C   0  0  0  0  0  0  0  0  0  0  0  0
   -4.4804   -0.5766    1.3765 C   0  0  0  0  0  0  0  0  0  0  0  0
   -4.0596    0.4891    0.5839 C   0  0  0  0  0  0  0  0  0  0  0  0
   -2.7679    0.4839    0.0831 C   0  0  0  0  0  0  0  0  0  0  0  0
   -2.3101    1.6173   -0.7639 C   0  0  0  0  0  0  0  0  0  0  0  0
   -5.8110   -0.5834    1.8995 C   0  0  0  0  0  0  0  0  0  0  0  0
   -6.8986   -0.6073    2.3360 N   0  0  0  0  0  0  0  0  0  0  0  0
   -0.3595   -1.0759   -1.3781 N   0  0  0  0  0  0  0  0  0  0  0  0
   -1.1780   -1.7030   -2.2488 N   0  0  0  0  0  0  0  0  0  0  0  0
   -0.4502   -2.0600   -3.3143 C   0  0  0  0  0  0  0  0  0  0  0  0
    0.8124   -1.6654   -3.1231 N   0  0  0  0  0  0  0  0  0  0  0  0
    0.8622   -1.0493   -1.9074 C   0  0  0  0  0  0  0  0  0  0  0  0
    1.9406   -0.4606   -1.2378 C   0  0  0  0  0  0  0  0  0  0  0  0
    6.9342    1.6303    1.9912 H   0  0  0  0  0  0  0  0  0  0  0  0
    6.7256    0.9266    0.3185 H   0  0  0  0  0  0  0  0  0  0  0  0
    6.5708    2.7028    0.5359 H   0  0  0  0  0  0  0  0  0  0  0  0
    2.4575    1.1307    1.7033 H   0  0  0  0  0  0  0  0  0  0  0  0
    0.3072    0.4969    1.4679 H   0  0  0  0  0  0  0  0  0  0  0  0
   -1.6836   -2.4378    1.3833 H   0  0  0  0  0  0  0  0  0  0  0  0
   -3.9996   -2.4735    2.3077 H   0  0  0  0  0  0  0  0  0  0  0  0
   -4.7044    1.3194    0.3457 H   0  0  0  0  0  0  0  0  0  0  0  0
   -1.2443    1.8445   -0.5799 H   0  0  0  0  0  0  0  0  0  0  0  0
   -2.9061    2.5308   -0.4863 H   0  0  0  0  0  0  0  0  0  0  0  0
   -2.5250    1.4433   -1.8404 H   0  0  0  0  0  0  0  0  0  0  0  0
   -0.8090   -2.5786   -4.1863 H   0  0  0  0  0  0  0  0  0  0  0  0
    2.8970   -0.4693   -1.7123 H   0  0  0  0  0  0  0  0  0  0  0  0
  1  2  1  0
  2  3  1  0
  3  4  2  0
  3  5  1  0
  5  6  1  0
  6  7  1  0
  7  8  2  0
  8  9  1  0
  9 10  2  0
 10 11  1  0
 11 12  2  0
 12 13  1  0
 13 14  2  0
 14 15  1  0
 12 16  1  0
 16 17  3  0
  8 18  1  0
 18 19  1  0
 19 20  2  0
 20 21  1  0
 21 22  2  0
 22 23  1  0
 23  6  2  0
 14  9  1  0
 22 18  1  0
  1 24  1  0
  1 25  1  0
  1 26  1  0
  5 27  1  0
  7 28  1  0
 10 29  1  0
 11 30  1  0
 13 31  1  0
 15 32  1  0
 15 33  1  0
 15 34  1  0
 20 35  1  0
 23 36  1  0
M  END
$$$$
[H]OC(=O)c1c([H])c([H])c(-c2c([H])c([H])c(N3C(=O)N(c4nc([H])nc(OC([H])([H])[H])c4[H])C4(C3=O)C([H])([H])C([H])([H])N(C([H])([H])c3nc([H])c([H])c([H])c3C([H])([H])[H])C([H])([H])C4([H])[H])c([H])c2[H])c(Cl)c1[H]
     RDKit          3D

 73 78  0  0  0  0  0  0  0  0999 V2000
   -1.5247    8.4854    0.6861 C   0  0  0  0  0  0  0  0  0  0  0  0
   -1.1242    7.1919    0.2211 O   0  0  0  0  0  0  0  0  0  0  0  0
   -1.2165    6.1264    1.1191 C   0  0  0  0  0  0  0  0  0  0  0  0
   -0.8392    4.8462    0.7212 C   0  0  0  0  0  0  0  0  0  0  0  0
   -0.9127    3.7679    1.5708 C   0  0  0  0  0  0  0  0  0  0  0  0
   -1.3686    3.9980    2.8161 N   0  0  0  0  0  0  0  0  0  0  0  0
   -1.7372    5.2548    3.2019 C   0  0  0  0  0  0  0  0  0  0  0  0
   -1.6601    6.2913    2.3666 N   0  0  0  0  0  0  0  0  0  0  0  0
   -0.5371    2.4579    1.2180 N   0  0  0  0  0  0  0  0  0  0  0  0
    0.8425    2.0379    1.1680 C   0  0  0  0  0  0  0  0  0  0  0  0
    1.7787    2.5760    1.8379 O   0  0  0  0  0  0  0  0  0  0  0  0
    0.9369    0.9422    0.2528 N   0  0  0  0  0  0  0  0  0  0  0  0
   -0.4087    0.7396   -0.2220 C   0  0  0  0  0  0  0  0  0  0  0  0
   -0.6494    0.2032   -1.3282 O   0  0  0  0  0  0  0  0  0  0  0  0
   -1.2690    1.2791    0.8421 C   0  0  0  0  0  0  0  0  0  0  0  0
   -1.2084    0.2889    1.9861 C   0  0  0  0  0  0  0  0  0  0  0  0
   -2.3495   -0.6639    1.9857 C   0  0  0  0  0  0  0  0  0  0  0  0
   -2.8688   -0.9712    0.6553 N   0  0  0  0  0  0  0  0  0  0  0  0
   -3.9776   -1.8747    0.8910 C   0  0  0  0  0  0  0  0  0  0  0  0
   -4.6343   -2.3963   -0.3085 C   0  0  0  0  0  0  0  0  0  0  0  0
   -4.2352   -2.0730   -1.5344 N   0  0  0  0  0  0  0  0  0  0  0  0
   -4.8127   -2.5416   -2.6564 C   0  0  0  0  0  0  0  0  0  0  0  0
   -5.8796   -3.4065   -2.5396 C   0  0  0  0  0  0  0  0  0  0  0  0
   -6.3374   -3.7775   -1.2844 C   0  0  0  0  0  0  0  0  0  0  0  0
   -5.6985   -3.2592   -0.1618 C   0  0  0  0  0  0  0  0  0  0  0  0
   -6.1896   -3.6614    1.2045 C   0  0  0  0  0  0  0  0  0  0  0  0
   -3.3048    0.2182   -0.0298 C   0  0  0  0  0  0  0  0  0  0  0  0
   -2.6914    1.4957    0.4817 C   0  0  0  0  0  0  0  0  0  0  0  0
    2.1023    0.2186   -0.1019 C   0  0  0  0  0  0  0  0  0  0  0  0
    2.8380   -0.3735    0.8987 C   0  0  0  0  0  0  0  0  0  0  0  0
    3.9737   -1.0809    0.5092 C   0  0  0  0  0  0  0  0  0  0  0  0
    4.3170   -1.1647   -0.8210 C   0  0  0  0  0  0  0  0  0  0  0  0
    3.5470   -0.5509   -1.8128 C   0  0  0  0  0  0  0  0  0  0  0  0
    2.4294    0.1458   -1.4378 C   0  0  0  0  0  0  0  0  0  0  0  0
    5.5070   -1.9001   -1.2336 C   0  0  0  0  0  0  0  0  0  0  0  0
    5.3933   -2.8550   -2.2515 C   0  0  0  0  0  0  0  0  0  0  0  0
    6.5042   -3.5625   -2.6372 C   0  0  0  0  0  0  0  0  0  0  0  0
    7.7251   -3.3562   -2.0480 C   0  0  0  0  0  0  0  0  0  0  0  0
    7.8591   -2.4259   -1.0494 C   0  0  0  0  0  0  0  0  0  0  0  0
    6.7382   -1.7095   -0.6581 C   0  0  0  0  0  0  0  0  0  0  0  0
    6.9148   -0.5063    0.6077 Cl  0  0  0  0  0  0  0  0  0  0  0  0
    8.8617   -4.1458   -2.5105 C   0  0  0  0  0  0  0  0  0  0  0  0
   10.1214   -3.9750   -1.9416 O   0  0  0  0  0  0  0  0  0  0  0  0
    8.7507   -4.9929   -3.4207 O   0  0  0  0  0  0  0  0  0  0  0  0
   -0.7767    8.7747    1.4514 H   0  0  0  0  0  0  0  0  0  0  0  0
   -1.5481    9.1905   -0.1653 H   0  0  0  0  0  0  0  0  0  0  0  0
   -2.5457    8.3510    1.1325 H   0  0  0  0  0  0  0  0  0  0  0  0
   -0.4846    4.7387   -0.2899 H   0  0  0  0  0  0  0  0  0  0  0  0
   -2.1009    5.4267    4.2037 H   0  0  0  0  0  0  0  0  0  0  0  0
   -1.2607    0.8810    2.9411 H   0  0  0  0  0  0  0  0  0  0  0  0
   -0.2146   -0.1985    1.9830 H   0  0  0  0  0  0  0  0  0  0  0  0
   -1.9667   -1.6504    2.3858 H   0  0  0  0  0  0  0  0  0  0  0  0
   -3.1918   -0.3950    2.6335 H   0  0  0  0  0  0  0  0  0  0  0  0
   -3.6547   -2.7139    1.5825 H   0  0  0  0  0  0  0  0  0  0  0  0
   -4.7226   -1.2926    1.4967 H   0  0  0  0  0  0  0  0  0  0  0  0
   -4.4813   -2.2728   -3.6480 H   0  0  0  0  0  0  0  0  0  0  0  0
   -6.3662   -3.8002   -3.4161 H   0  0  0  0  0  0  0  0  0  0  0  0
   -7.1747   -4.4562   -1.1915 H   0  0  0  0  0  0  0  0  0  0  0  0
   -7.0367   -4.3379    1.0999 H   0  0  0  0  0  0  0  0  0  0  0  0
   -5.3621   -4.2610    1.6808 H   0  0  0  0  0  0  0  0  0  0  0  0
   -6.4914   -2.7990    1.8077 H   0  0  0  0  0  0  0  0  0  0  0  0
   -4.4030    0.3083    0.0548 H   0  0  0  0  0  0  0  0  0  0  0  0
   -3.0727    0.0974   -1.1165 H   0  0  0  0  0  0  0  0  0  0  0  0
   -2.8599    2.2856   -0.2690 H   0  0  0  0  0  0  0  0  0  0  0  0
   -3.2403    1.7735    1.4015 H   0  0  0  0  0  0  0  0  0  0  0  0
    2.5889   -0.3205    1.9390 H   0  0  0  0  0  0  0  0  0  0  0  0
    4.5920   -1.5801    1.2572 H   0  0  0  0  0  0  0  0  0  0  0  0
    3.8065   -0.6120   -2.8437 H   0  0  0  0  0  0  0  0  0  0  0  0
    1.8157    0.6309   -2.1854 H   0  0  0  0  0  0  0  0  0  0  0  0
    4.4333   -3.0342   -2.7319 H   0  0  0  0  0  0  0  0  0  0  0  0
    6.3561   -4.2965   -3.4397 H   0  0  0  0  0  0  0  0  0  0  0  0
    8.7982   -2.2274   -0.5543 H   0  0  0  0  0  0  0  0  0  0  0  0
   10.8587   -3.5505   -2.4523 H   0  0  0  0  0  0  0  0  0  0  0  0
  1  2  1  0
  2  3  1  0
  3  4  2  0
  4  5  1  0
  5  6  2  0
  6  7  1  0
  7  8  2  0
  5  9  1  0
  9 10  1  0
 10 11  2  0
 10 12  1  0
 12 13  1  0
 13 14  2  0
 13 15  1  0
 15 16  1  0
 16 17  1  0
 17 18  1  0
 18 19  1  0
 19 20  1  0
 20 21  2  0
 21 22  1  0
 22 23  2  0
 23 24  1  0
 24 25  2  0
 25 26  1  0
 18 27  1  0
 27 28  1  0
 12 29  1  0
 29 30  2  0
 30 31  1  0
 31 32  2  0
 32 33  1  0
 33 34  2  0
 32 35  1  0
 35 36  2  0
 36 37  1  0
 37 38  2  0
 38 39  1  0
 39 40  2  0
 40 41  1  0
 38 42  1  0
 42 43  1  0
 42 44  2  0
  8  3  1  0
 15  9  1  0
 28 15  1  0
 34 29  1  0
 40 35  1  0
 25 20  1  0
  1 45  1  0
  1 46  1  0
  1 47  1  0
  4 48  1  0
  7 49  1  0
 16 50  1  0
 16 51  1  0
 17 52  1  0
 17 53  1  0
 19 54  1  0
 19 55  1  0
 22 56  1  0
 23 57  1  0
 24 58  1  0
 26 59  1  0
 26 60  1  0
 26 61  1  0
 27 62  1  0
 27 63  1  0
 28 64  1  0
 28 65  1  0
 30 66  1  0
 31 67  1  0
 33 68  1  0
 34 69  1  0
 36 70  1  0
 37 71  1  0
 39 72  1  0
 43 73  1  0
M  END
$$$$
[H]c1nc(C([H])([H])N2C([H])([H])C([H])([H])C3(C(=O)N(c4c([H])c([H])c(-c5c([H])c([H])c([H])c([H])c5[H])c([H])c4[H])C(=O)N3c3nc([H])n([H])c(=O)c3[H])C([H])([H])C2([H])[H])c(C([H])([H])[H])c([H])c1[H]
     RDKit          3D

 67 72  0  0  0  0  0  0  0  0999 V2000
   -6.7462   -1.8933    0.3410 C   0  0  0  0  0  0  0  0  0  0  0  0
   -6.9648   -0.4273    0.0852 C   0  0  0  0  0  0  0  0  0  0  0  0
   -8.1432    0.0899   -0.3563 C   0  0  0  0  0  0  0  0  0  0  0  0
   -8.1543    1.4056   -0.7263 C   0  0  0  0  0  0  0  0  0  0  0  0
   -7.0213    2.1507   -0.6459 C   0  0  0  0  0  0  0  0  0  0  0  0
   -5.8572    1.6009   -0.1924 N   0  0  0  0  0  0  0  0  0  0  0  0
   -5.7928    0.3272    0.1809 C   0  0  0  0  0  0  0  0  0  0  0  0
   -4.7246   -0.2549    0.9857 C   0  0  0  0  0  0  0  0  0  0  0  0
   -3.4629   -0.4943    0.4852 N   0  0  0  0  0  0  0  0  0  0  0  0
   -2.5456   -0.8454    1.4891 C   0  0  0  0  0  0  0  0  0  0  0  0
   -1.2956   -1.4859    1.0162 C   0  0  0  0  0  0  0  0  0  0  0  0
   -0.7725   -0.8290   -0.2638 C   0  0  0  0  0  0  0  0  0  0  0  0
   -1.8302   -0.7064   -1.2739 C   0  0  0  0  0  0  0  0  0  0  0  0
   -3.0186    0.0681   -0.6789 C   0  0  0  0  0  0  0  0  0  0  0  0
   -0.0274    0.3283    0.0024 N   0  0  0  0  0  0  0  0  0  0  0  0
    1.1777    0.2523   -0.8423 C   0  0  0  0  0  0  0  0  0  0  0  0
    1.9153    1.1991   -1.1605 O   0  0  0  0  0  0  0  0  0  0  0  0
    1.3637   -1.1365   -1.2178 N   0  0  0  0  0  0  0  0  0  0  0  0
    0.3110   -1.8369   -0.7197 C   0  0  0  0  0  0  0  0  0  0  0  0
    0.1435   -3.0932   -0.6358 O   0  0  0  0  0  0  0  0  0  0  0  0
    2.7565   -1.5152   -1.5636 C   0  0  0  0  0  0  0  0  0  0  0  0
    3.4499   -0.8115   -2.4647 C   0  0  0  0  0  0  0  0  0  0  0  0
    4.8731   -0.6920   -2.2390 C   0  0  0  0  0  0  0  0  0  0  0  0
    5.4300   -1.2637   -1.1952 C   0  0  0  0  0  0  0  0  0  0  0  0
    4.6988   -2.0514   -0.2695 C   0  0  0  0  0  0  0  0  0  0  0  0
    3.3225   -2.1554   -0.4931 C   0  0  0  0  0  0  0  0  0  0  0  0
    6.7446   -0.7783   -0.7182 C   0  0  0  0  0  0  0  0  0  0  0  0
    7.4100   -1.2964    0.3986 C   0  0  0  0  0  0  0  0  0  0  0  0
    8.5274   -0.6850    0.8592 C   0  0  0  0  0  0  0  0  0  0  0  0
    9.0636    0.4471    0.3029 C   0  0  0  0  0  0  0  0  0  0  0  0
    8.3940    0.9899   -0.8304 C   0  0  0  0  0  0  0  0  0  0  0  0
    7.2885    0.3507   -1.2742 C   0  0  0  0  0  0  0  0  0  0  0  0
   -0.0196    1.4496    0.9148 C   0  0  0  0  0  0  0  0  0  0  0  0
   -0.0615    2.7189    0.4942 C   0  0  0  0  0  0  0  0  0  0  0  0
    0.2682    3.7583    1.3350 C   0  0  0  0  0  0  0  0  0  0  0  0
    0.2455    4.9721    1.0279 O   0  0  0  0  0  0  0  0  0  0  0  0
    0.6282    3.4315    2.6031 N   0  0  0  0  0  0  0  0  0  0  0  0
    0.6403    2.1765    3.0002 C   0  0  0  0  0  0  0  0  0  0  0  0
    0.3276    1.1850    2.1843 N   0  0  0  0  0  0  0  0  0  0  0  0
   -6.3737   -2.1457    1.3127 H   0  0  0  0  0  0  0  0  0  0  0  0
   -5.8556   -2.1271   -0.3658 H   0  0  0  0  0  0  0  0  0  0  0  0
   -7.5872   -2.4903   -0.0052 H   0  0  0  0  0  0  0  0  0  0  0  0
   -9.0367   -0.5308   -0.4312 H   0  0  0  0  0  0  0  0  0  0  0  0
   -9.0835    1.8574   -1.0858 H   0  0  0  0  0  0  0  0  0  0  0  0
   -7.0782    3.2004   -0.9385 H   0  0  0  0  0  0  0  0  0  0  0  0
   -4.3803    0.7690    1.6731 H   0  0  0  0  0  0  0  0  0  0  0  0
   -5.0685   -0.8033    1.9060 H   0  0  0  0  0  0  0  0  0  0  0  0
   -3.0125   -1.5429    2.2520 H   0  0  0  0  0  0  0  0  0  0  0  0
   -2.3792    0.0908    2.0910 H   0  0  0  0  0  0  0  0  0  0  0  0
   -1.4157   -2.5500    0.8197 H   0  0  0  0  0  0  0  0  0  0  0  0
   -0.5216   -1.3493    1.8001 H   0  0  0  0  0  0  0  0  0  0  0  0
   -1.5234   -0.1159   -2.1529 H   0  0  0  0  0  0  0  0  0  0  0  0
   -2.2045   -1.6763   -1.5970 H   0  0  0  0  0  0  0  0  0  0  0  0
   -2.6302    1.1154   -0.5370 H   0  0  0  0  0  0  0  0  0  0  0  0
   -3.7934    0.0817   -1.4656 H   0  0  0  0  0  0  0  0  0  0  0  0
    3.0006   -0.3105   -3.2950 H   0  0  0  0  0  0  0  0  0  0  0  0
    5.4282   -0.1410   -2.9519 H   0  0  0  0  0  0  0  0  0  0  0  0
    5.1598   -2.5139    0.5640 H   0  0  0  0  0  0  0  0  0  0  0  0
    2.7025   -2.7163    0.1794 H   0  0  0  0  0  0  0  0  0  0  0  0
    7.0246   -2.2047    0.8849 H   0  0  0  0  0  0  0  0  0  0  0  0
    9.0153   -1.1478    1.7590 H   0  0  0  0  0  0  0  0  0  0  0  0
    9.9404    0.8921    0.6977 H   0  0  0  0  0  0  0  0  0  0  0  0
    8.8120    1.8711   -1.2930 H   0  0  0  0  0  0  0  0  0  0  0  0
    6.8270    0.7707   -2.1704 H   0  0  0  0  0  0  0  0  0  0  0  0
   -0.3301    2.9672   -0.5468 H   0  0  0  0  0  0  0  0  0  0  0  0
    0.8918    4.2218    3.2662 H   0  0  0  0  0  0  0  0  0  0  0  0
    0.9303    1.8783    4.0176 H   0  0  0  0  0  0  0  0  0  0  0  0
  1  2  1  0
  2  3  2  0
  3  4  1  0
  4  5  2  0
  5  6  1  0
  6  7  2  0
  7  8  1  0
  8  9  1  0
  9 10  1  0
 10 11  1  0
 11 12  1  0
 12 13  1  0
 13 14  1  0
 12 15  1  0
 15 16  1  0
 16 17  2  0
 16 18  1  0
 18 19  1  0
 19 20  2  0
 18 21  1  0
 21 22  2  0
 22 23  1  0
 23 24  2  0
 24 25  1  0
 25 26  2  0
 24 27  1  0
 27 28  2  0
 28 29  1  0
 29 30  2  0
 30 31  1  0
 31 32  2  0
 15 33  1  0
 33 34  2  0
 34 35  1  0
 35 36  2  0
 35 37  1  0
 37 38  1  0
 38 39  2  0
  7  2  1  0
 14  9  1  0
 26 21  1  0
 32 27  1  0
 39 33  1  0
 19 12  1  0
  1 40  1  0
  1 41  1  0
  1 42  1  0
  3 43  1  0
  4 44  1  0
  5 45  1  0
  8 46  1  0
  8 47  1  0
 10 48  1  0
 10 49  1  0
 11 50  1  0
 11 51  1  0
 13 52  1  0
 13 53  1  0
 14 54  1  0
 14 55  1  0
 22 56  1  0
 23 57  1  0
 25 58  1  0
 26 59  1  0
 28 60  1  0
 29 61  1  0
 30 62  1  0
 31 63  1  0
 32 64  1  0
 34 65  1  0
 37 66  1  0
 38 67  1  0
M  END
$$$$
[H]c1nc2c([H])c([H])c([H])c(-c3c(N([H])[H])nc(C#N)c([H])c3[H])n2n1
     RDKit          3D

 26 28  0  0  0  0  0  0  0  0999 V2000
    1.2437   -1.5750    1.3611 N   0  0  0  0  0  0  0  0  0  0  0  0
    1.6424   -0.5234    0.5150 C   0  0  0  0  0  0  0  0  0  0  0  0
    2.9416   -0.1430    0.5412 N   0  0  0  0  0  0  0  0  0  0  0  0
    3.4240    0.8514   -0.2287 C   0  0  0  0  0  0  0  0  0  0  0  0
    2.5291    1.4863   -1.0664 C   0  0  0  0  0  0  0  0  0  0  0  0
    1.2011    1.1104   -1.1050 C   0  0  0  0  0  0  0  0  0  0  0  0
    0.7149    0.0854   -0.3082 C   0  0  0  0  0  0  0  0  0  0  0  0
   -0.6902   -0.3070   -0.3540 C   0  0  0  0  0  0  0  0  0  0  0  0
   -1.0937   -1.2798   -1.2404 C   0  0  0  0  0  0  0  0  0  0  0  0
   -2.4191   -1.6560   -1.2898 C   0  0  0  0  0  0  0  0  0  0  0  0
   -3.3319   -1.0622   -0.4579 C   0  0  0  0  0  0  0  0  0  0  0  0
   -2.9095   -0.0949    0.4181 C   0  0  0  0  0  0  0  0  0  0  0  0
   -3.5226    0.6737    1.3523 N   0  0  0  0  0  0  0  0  0  0  0  0
   -2.6327    1.4798    1.9475 C   0  0  0  0  0  0  0  0  0  0  0  0
   -1.4456    1.2119    1.3776 N   0  0  0  0  0  0  0  0  0  0  0  0
   -1.6170    0.2711    0.4654 N   0  0  0  0  0  0  0  0  0  0  0  0
    4.8173    1.2249   -0.1691 C   0  0  0  0  0  0  0  0  0  0  0  0
    5.9293    1.5308   -0.1368 N   0  0  0  0  0  0  0  0  0  0  0  0
    0.7993   -1.3412    2.2641 H   0  0  0  0  0  0  0  0  0  0  0  0
    1.3749   -2.5924    1.1215 H   0  0  0  0  0  0  0  0  0  0  0  0
    2.8874    2.2882   -1.6961 H   0  0  0  0  0  0  0  0  0  0  0  0
    0.4751    1.5940   -1.7558 H   0  0  0  0  0  0  0  0  0  0  0  0
   -0.3384   -1.7200   -1.8769 H   0  0  0  0  0  0  0  0  0  0  0  0
   -2.7339   -2.4110   -1.9774 H   0  0  0  0  0  0  0  0  0  0  0  0
   -4.3886   -1.3066   -0.4409 H   0  0  0  0  0  0  0  0  0  0  0  0
   -2.8569    2.2046    2.7395 H   0  0  0  0  0  0  0  0  0  0  0  0
  1  2  1  0
  2  3  2  0
  3  4  1  0
  4  5  2  0
  5  6  1  0
  6  7  2  0
  7  8  1  0
  8  9  2  0
  9 10  1  0
 10 11  2  0
 11 12  1  0
 12 13  2  0
 13 14  1  0
 14 15  2  0
 15 16  1  0
  4 17  1  0
 17 18  3  0
  7  2  1  0
 16  8  1  0
 16 12  1  0
  1 19  1  0
  1 20  1  0
  5 21  1  0
  6 22  1  0
  9 23  1  0
 10 24  1  0
 11 25  1  0
 14 26  1  0
M  END
$$$$
[H]OC(=O)C([H])([H])N([H])C(=O)c1c(O[H])c2c([H])c(C([H])([H])N([H])C(=O)[C@]([H])(N([H])C(=O)[C@]([H])(N([H])C(=O)c3c([H])c([H])c([H])c([H])c3[H])C([H])([H])c3c([H])c([H])c([H])c([H])c3[H])C([H])([H])c3c([H])c([H])c([H])c([H])c3[H])c([H])c([H])c2n(C([H])([H])[H])c1=O
     RDKit          3D

 89 93  0  0  0  0  0  0  0  0999 V2000
    6.6247   -2.6887   -1.9754 C   0  0  0  0  0  0  0  0  0  0  0  0
    6.2509   -1.4896   -1.2247 N   0  0  0  0  0  0  0  0  0  0  0  0
    5.2909   -1.5074   -0.2957 C   0  0  0  0  0  0  0  0  0  0  0  0
    4.6369   -2.6891   -0.0243 C   0  0  0  0  0  0  0  0  0  0  0  0
    3.6414   -2.7891    0.9390 C   0  0  0  0  0  0  0  0  0  0  0  0
    3.2637   -1.6805    1.6742 C   0  0  0  0  0  0  0  0  0  0  0  0
    2.2422   -1.7942    2.7396 C   0  0  0  0  0  0  0  0  0  0  0  0
    0.9358   -2.1676    2.3342 N   0  0  0  0  0  0  0  0  0  0  0  0
   -0.0324   -1.3475    1.7521 C   0  0  0  0  0  0  0  0  0  0  0  0
    0.3468   -0.1138    1.6019 O   0  0  0  0  0  0  0  0  0  0  0  0
   -1.3782   -1.6299    1.3035 C   0  0  1  0  0  0  0  0  0  0  0  0
   -1.8560   -3.0053    1.0510 C   0  0  0  0  0  0  0  0  0  0  0  0
   -1.1028   -3.6692   -0.0617 C   0  0  0  0  0  0  0  0  0  0  0  0
   -1.4540   -3.2431   -1.3550 C   0  0  0  0  0  0  0  0  0  0  0  0
   -0.8196   -3.8548   -2.4065 C   0  0  0  0  0  0  0  0  0  0  0  0
    0.1098   -4.8327   -2.2135 C   0  0  0  0  0  0  0  0  0  0  0  0
    0.4508   -5.2491   -0.9458 C   0  0  0  0  0  0  0  0  0  0  0  0
   -0.1699   -4.6519    0.1237 C   0  0  0  0  0  0  0  0  0  0  0  0
   -2.3743   -0.7282    1.8288 N   0  0  0  0  0  0  0  0  0  0  0  0
   -3.4260   -0.0994    1.1456 C   0  0  0  0  0  0  0  0  0  0  0  0
   -3.5470   -0.3414   -0.0817 O   0  0  0  0  0  0  0  0  0  0  0  0
   -4.3772    0.8123    1.8119 C   0  0  1  0  0  0  0  0  0  0  0  0
   -3.8323    2.2541    1.8420 C   0  0  0  0  0  0  0  0  0  0  0  0
   -3.6149    2.7760    0.4475 C   0  0  0  0  0  0  0  0  0  0  0  0
   -4.6154    3.4488   -0.2158 C   0  0  0  0  0  0  0  0  0  0  0  0
   -4.4675    3.9457   -1.4786 C   0  0  0  0  0  0  0  0  0  0  0  0
   -3.2715    3.7802   -2.1406 C   0  0  0  0  0  0  0  0  0  0  0  0
   -2.2549    3.1032   -1.4807 C   0  0  0  0  0  0  0  0  0  0  0  0
   -2.4075    2.5997   -0.2017 C   0  0  0  0  0  0  0  0  0  0  0  0
   -5.6285    0.9094    1.0896 N   0  0  0  0  0  0  0  0  0  0  0  0
   -6.8796    0.8106    1.7489 C   0  0  0  0  0  0  0  0  0  0  0  0
   -6.8420    0.6311    3.0198 O   0  0  0  0  0  0  0  0  0  0  0  0
   -8.1778    0.8935    1.1339 C   0  0  0  0  0  0  0  0  0  0  0  0
   -8.3679    0.9010   -0.2359 C   0  0  0  0  0  0  0  0  0  0  0  0
   -9.6450    0.9916   -0.7870 C   0  0  0  0  0  0  0  0  0  0  0  0
  -10.7602    1.0757    0.0051 C   0  0  0  0  0  0  0  0  0  0  0  0
  -10.5833    1.0684    1.3792 C   0  0  0  0  0  0  0  0  0  0  0  0
   -9.3168    0.9791    1.9068 C   0  0  0  0  0  0  0  0  0  0  0  0
    3.9151   -0.4862    1.4053 C   0  0  0  0  0  0  0  0  0  0  0  0
    4.9022   -0.3918    0.4499 C   0  0  0  0  0  0  0  0  0  0  0  0
    5.5647    0.7806    0.1910 C   0  0  0  0  0  0  0  0  0  0  0  0
    5.2486    1.9292    0.8739 O   0  0  0  0  0  0  0  0  0  0  0  0
    6.5827    0.8324   -0.7820 C   0  0  0  0  0  0  0  0  0  0  0  0
    7.2622    2.0749   -1.0175 C   0  0  0  0  0  0  0  0  0  0  0  0
    6.8690    3.0798   -0.2961 O   0  0  0  0  0  0  0  0  0  0  0  0
    8.2923    2.3806   -1.9064 N   0  0  0  0  0  0  0  0  0  0  0  0
    8.8422    3.7473   -1.9702 C   0  0  0  0  0  0  0  0  0  0  0  0
    9.9269    3.7688   -2.9976 C   0  0  0  0  0  0  0  0  0  0  0  0
   10.6266    4.9336   -3.2635 O   0  0  0  0  0  0  0  0  0  0  0  0
   10.2275    2.7403   -3.6395 O   0  0  0  0  0  0  0  0  0  0  0  0
    6.8948   -0.3103   -1.4628 C   0  0  0  0  0  0  0  0  0  0  0  0
    7.7863   -0.3796   -2.3531 O   0  0  0  0  0  0  0  0  0  0  0  0
    5.8268   -3.0641   -2.6194 H   0  0  0  0  0  0  0  0  0  0  0  0
    7.5882   -2.4879   -2.4917 H   0  0  0  0  0  0  0  0  0  0  0  0
    6.8838   -3.5081   -1.2405 H   0  0  0  0  0  0  0  0  0  0  0  0
    4.9427   -3.5643   -0.6106 H   0  0  0  0  0  0  0  0  0  0  0  0
    3.1723   -3.7434    1.1011 H   0  0  0  0  0  0  0  0  0  0  0  0
    2.2034   -0.7995    3.2486 H   0  0  0  0  0  0  0  0  0  0  0  0
    2.6728   -2.4738    3.5176 H   0  0  0  0  0  0  0  0  0  0  0  0
    0.6307   -3.1748    2.5297 H   0  0  0  0  0  0  0  0  0  0  0  0
   -1.3364   -1.1818    0.1643 H   0  0  0  0  0  0  0  0  0  0  0  0
   -1.8656   -3.6536    1.9550 H   0  0  0  0  0  0  0  0  0  0  0  0
   -2.9151   -2.9710    0.7089 H   0  0  0  0  0  0  0  0  0  0  0  0
   -2.1845   -2.4745   -1.4949 H   0  0  0  0  0  0  0  0  0  0  0  0
   -1.0958   -3.5120   -3.4011 H   0  0  0  0  0  0  0  0  0  0  0  0
    0.5724   -5.2739   -3.1081 H   0  0  0  0  0  0  0  0  0  0  0  0
    1.1722   -6.0102   -0.8001 H   0  0  0  0  0  0  0  0  0  0  0  0
    0.0641   -4.9637    1.1525 H   0  0  0  0  0  0  0  0  0  0  0  0
   -2.2974   -0.5176    2.8716 H   0  0  0  0  0  0  0  0  0  0  0  0
   -4.5283    0.5250    2.8744 H   0  0  0  0  0  0  0  0  0  0  0  0
   -4.6076    2.8934    2.3050 H   0  0  0  0  0  0  0  0  0  0  0  0
   -2.9190    2.3271    2.4394 H   0  0  0  0  0  0  0  0  0  0  0  0
   -5.5584    3.5865    0.2878 H   0  0  0  0  0  0  0  0  0  0  0  0
   -5.2702    4.4845   -2.0058 H   0  0  0  0  0  0  0  0  0  0  0  0
   -3.1154    4.1607   -3.1420 H   0  0  0  0  0  0  0  0  0  0  0  0
   -1.2987    2.9729   -2.0128 H   0  0  0  0  0  0  0  0  0  0  0  0
   -1.6039    2.0710    0.3079 H   0  0  0  0  0  0  0  0  0  0  0  0
   -5.6020    1.0439    0.0636 H   0  0  0  0  0  0  0  0  0  0  0  0
   -7.4980    0.8340   -0.8706 H   0  0  0  0  0  0  0  0  0  0  0  0
   -9.7894    0.9965   -1.8628 H   0  0  0  0  0  0  0  0  0  0  0  0
  -11.7747    1.1472   -0.3785 H   0  0  0  0  0  0  0  0  0  0  0  0
  -11.4753    1.1358    2.0215 H   0  0  0  0  0  0  0  0  0  0  0  0
   -9.1862    0.9745    2.9990 H   0  0  0  0  0  0  0  0  0  0  0  0
    3.6085    0.3622    1.9835 H   0  0  0  0  0  0  0  0  0  0  0  0
    4.5492    1.9617    1.5627 H   0  0  0  0  0  0  0  0  0  0  0  0
    8.6965    1.6738   -2.5383 H   0  0  0  0  0  0  0  0  0  0  0  0
    9.3204    3.9746   -0.9739 H   0  0  0  0  0  0  0  0  0  0  0  0
    8.0089    4.4204   -2.1945 H   0  0  0  0  0  0  0  0  0  0  0  0
   10.4772    5.7219   -2.6514 H   0  0  0  0  0  0  0  0  0  0  0  0
  1  2  1  0
  2  3  1  0
  3  4  2  0
  4  5  1  0
  5  6  2  0
  6  7  1  0
  7  8  1  0
  8  9  1  0
  9 10  2  0
  9 11  1  0
 11 12  1  0
 12 13  1  0
 13 14  2  0
 14 15  1  0
 15 16  2  0
 16 17  1  0
 17 18  2  0
 11 19  1  0
 19 20  1  0
 20 21  2  0
 20 22  1  0
 22 23  1  0
 23 24  1  0
 24 25  2  0
 25 26  1  0
 26 27  2  0
 27 28  1  0
 28 29  2  0
 22 30  1  0
 30 31  1  0
 31 32  2  0
 31 33  1  0
 33 34  2  0
 34 35  1  0
 35 36  2  0
 36 37  1  0
 37 38  2  0
  6 39  1  0
 39 40  2  0
 40 41  1  0
 41 42  1  0
 41 43  2  0
 43 44  1  0
 44 45  2  0
 44 46  1  0
 46 47  1  0
 47 48  1  0
 48 49  1  0
 48 50  2  0
 43 51  1  0
 51 52  2  0
 51  2  1  0
 40  3  1  0
 18 13  1  0
 29 24  1  0
 38 33  1  0
  1 53  1  0
  1 54  1  0
  1 55  1  0
  4 56  1  0
  5 57  1  0
  7 58  1  0
  7 59  1  0
  8 60  1  0
 11 61  1  6
 12 62  1  0
 12 63  1  0
 14 64  1  0
 15 65  1  0
 16 66  1  0
 17 67  1  0
 18 68  1  0
 19 69  1  0
 22 70  1  1
 23 71  1  0
 23 72  1  0
 25 73  1  0
 26 74  1  0
 27 75  1  0
 28 76  1  0
 29 77  1  0
 30 78  1  0
 34 79  1  0
 35 80  1  0
 36 81  1  0
 37 82  1  0
 38 83  1  0
 39 84  1  0
 42 85  1  0
 46 86  1  0
 47 87  1  0
 47 88  1  0
 49 89  1  0
M  END
$$$$
[H]OC(=O)c1c([H])c([H])c(-c2c([H])c([H])c(N3C(=O)N(c4nc([H])c([H])nc4C([H])([H])[H])C4(C3=O)C([H])([H])C([H])([H])N(C([H])([H])c3nc([H])c([H])c([H])c3C([H])([H])[H])C([H])([H])C4([H])[H])c([H])c2[H])c(C([H])([H])[H])c1[H]
     RDKit          3D

 75 80  0  0  0  0  0  0  0  0999 V2000
   -7.0859    0.5840    2.0906 C   0  0  0  0  0  0  0  0  0  0  0  0
   -7.2938    0.7561    0.5922 C   0  0  0  0  0  0  0  0  0  0  0  0
   -8.3244    1.5183    0.1248 C   0  0  0  0  0  0  0  0  0  0  0  0
   -8.4468    1.6903   -1.2404 C   0  0  0  0  0  0  0  0  0  0  0  0
   -7.5605    1.1083   -2.0915 C   0  0  0  0  0  0  0  0  0  0  0  0
   -6.5365    0.3557   -1.5776 N   0  0  0  0  0  0  0  0  0  0  0  0
   -6.3964    0.1684   -0.2681 C   0  0  0  0  0  0  0  0  0  0  0  0
   -5.4806   -0.8068    0.3077 C   0  0  0  0  0  0  0  0  0  0  0  0
   -4.2854   -0.3014    0.8761 N   0  0  0  0  0  0  0  0  0  0  0  0
   -3.7286    0.9020    0.6009 C   0  0  0  0  0  0  0  0  0  0  0  0
   -2.3056    1.1277    1.0416 C   0  0  0  0  0  0  0  0  0  0  0  0
   -1.4620   -0.0998    0.8870 C   0  0  0  0  0  0  0  0  0  0  0  0
   -2.1334   -1.1701    1.6960 C   0  0  0  0  0  0  0  0  0  0  0  0
   -3.5651   -1.3821    1.4344 C   0  0  0  0  0  0  0  0  0  0  0  0
   -1.1222   -0.3989   -0.4554 N   0  0  0  0  0  0  0  0  0  0  0  0
    0.1989    0.1146   -0.6982 C   0  0  0  0  0  0  0  0  0  0  0  0
    0.7777    0.2822   -1.8282 O   0  0  0  0  0  0  0  0  0  0  0  0
    0.8419    0.4322    0.5601 N   0  0  0  0  0  0  0  0  0  0  0  0
   -0.1232    0.1284    1.5428 C   0  0  0  0  0  0  0  0  0  0  0  0
    0.1385    0.0686    2.7729 O   0  0  0  0  0  0  0  0  0  0  0  0
    2.2253    0.8056    0.6123 C   0  0  0  0  0  0  0  0  0  0  0  0
    3.0341   -0.3454    0.4103 C   0  0  0  0  0  0  0  0  0  0  0  0
    4.3841   -0.2653    0.3655 C   0  0  0  0  0  0  0  0  0  0  0  0
    5.0246    1.0123    0.5306 C   0  0  0  0  0  0  0  0  0  0  0  0
    4.2425    2.0780    0.7252 C   0  0  0  0  0  0  0  0  0  0  0  0
    2.8224    1.9845    0.7696 C   0  0  0  0  0  0  0  0  0  0  0  0
    6.4777    0.8914    0.5361 C   0  0  0  0  0  0  0  0  0  0  0  0
    7.0137    0.3871    1.7403 C   0  0  0  0  0  0  0  0  0  0  0  0
    8.3294    0.0700    1.8220 C   0  0  0  0  0  0  0  0  0  0  0  0
    9.1726    0.2290    0.7423 C   0  0  0  0  0  0  0  0  0  0  0  0
    8.6741    0.7239   -0.4319 C   0  0  0  0  0  0  0  0  0  0  0  0
    7.3112    1.0556   -0.5204 C   0  0  0  0  0  0  0  0  0  0  0  0
    6.8216    1.6340   -1.7802 C   0  0  0  0  0  0  0  0  0  0  0  0
   10.5570   -0.1577    0.9465 C   0  0  0  0  0  0  0  0  0  0  0  0
   11.3843   -0.3859   -0.1297 O   0  0  0  0  0  0  0  0  0  0  0  0
   11.0148   -0.3068    2.1410 O   0  0  0  0  0  0  0  0  0  0  0  0
   -1.7702   -1.0829   -1.5344 C   0  0  0  0  0  0  0  0  0  0  0  0
   -2.6088   -0.4366   -2.3284 N   0  0  0  0  0  0  0  0  0  0  0  0
   -3.2093   -1.0220   -3.3645 C   0  0  0  0  0  0  0  0  0  0  0  0
   -2.9637   -2.3440   -3.6337 C   0  0  0  0  0  0  0  0  0  0  0  0
   -2.1164   -2.9686   -2.8179 N   0  0  0  0  0  0  0  0  0  0  0  0
   -1.4981   -2.4144   -1.7772 C   0  0  0  0  0  0  0  0  0  0  0  0
   -0.5442   -3.2070   -0.9187 C   0  0  0  0  0  0  0  0  0  0  0  0
   -6.6405   -0.4217    2.2960 H   0  0  0  0  0  0  0  0  0  0  0  0
   -6.3596    1.3974    2.3802 H   0  0  0  0  0  0  0  0  0  0  0  0
   -8.0339    0.7458    2.5827 H   0  0  0  0  0  0  0  0  0  0  0  0
   -8.9971    2.0021    0.8239 H   0  0  0  0  0  0  0  0  0  0  0  0
   -9.2816    2.3176   -1.6188 H   0  0  0  0  0  0  0  0  0  0  0  0
   -7.6807    1.2367   -3.1735 H   0  0  0  0  0  0  0  0  0  0  0  0
   -5.9122   -1.6500    0.8092 H   0  0  0  0  0  0  0  0  0  0  0  0
   -5.0310   -1.3688   -0.6699 H   0  0  0  0  0  0  0  0  0  0  0  0
   -3.8812    1.2866   -0.4141 H   0  0  0  0  0  0  0  0  0  0  0  0
   -4.3010    1.6992    1.2286 H   0  0  0  0  0  0  0  0  0  0  0  0
   -1.9073    2.0216    0.5262 H   0  0  0  0  0  0  0  0  0  0  0  0
   -2.3017    1.3688    2.1264 H   0  0  0  0  0  0  0  0  0  0  0  0
   -1.5984   -2.1323    1.7414 H   0  0  0  0  0  0  0  0  0  0  0  0
   -2.0646   -0.7905    2.7730 H   0  0  0  0  0  0  0  0  0  0  0  0
   -3.6769   -2.2453    0.7070 H   0  0  0  0  0  0  0  0  0  0  0  0
   -4.0724   -1.7379    2.3511 H   0  0  0  0  0  0  0  0  0  0  0  0
    2.5395   -1.3063    0.2836 H   0  0  0  0  0  0  0  0  0  0  0  0
    5.0359   -1.1026    0.2179 H   0  0  0  0  0  0  0  0  0  0  0  0
    4.7165    3.0457    0.8508 H   0  0  0  0  0  0  0  0  0  0  0  0
    2.2416    2.8748    0.9303 H   0  0  0  0  0  0  0  0  0  0  0  0
    6.3551    0.2552    2.5724 H   0  0  0  0  0  0  0  0  0  0  0  0
    8.7245   -0.3278    2.7505 H   0  0  0  0  0  0  0  0  0  0  0  0
    9.3240    0.8476   -1.2865 H   0  0  0  0  0  0  0  0  0  0  0  0
    6.6723    0.9081   -2.5959 H   0  0  0  0  0  0  0  0  0  0  0  0
    5.9641    2.3324   -1.6484 H   0  0  0  0  0  0  0  0  0  0  0  0
    7.6745    2.2892   -2.1608 H   0  0  0  0  0  0  0  0  0  0  0  0
   11.0458   -1.1368   -0.7946 H   0  0  0  0  0  0  0  0  0  0  0  0
   -3.8957   -0.3871   -3.9391 H   0  0  0  0  0  0  0  0  0  0  0  0
   -3.4472   -2.8166   -4.4814 H   0  0  0  0  0  0  0  0  0  0  0  0
   -1.1887   -3.7317   -0.1521 H   0  0  0  0  0  0  0  0  0  0  0  0
   -0.0367   -3.9680   -1.5129 H   0  0  0  0  0  0  0  0  0  0  0  0
    0.1292   -2.5180   -0.4039 H   0  0  0  0  0  0  0  0  0  0  0  0
  1  2  1  0
  2  3  2  0
  3  4  1  0
  4  5  2  0
  5  6  1  0
  6  7  2  0
  7  8  1  0
  8  9  1  0
  9 10  1  0
 10 11  1  0
 11 12  1  0
 12 13  1  0
 13 14  1  0
 12 15  1  0
 15 16  1  0
 16 17  2  0
 16 18  1  0
 18 19  1  0
 19 20  2  0
 18 21  1  0
 21 22  2  0
 22 23  1  0
 23 24  2  0
 24 25  1  0
 25 26  2  0
 24 27  1  0
 27 28  2  0
 28 29  1  0
 29 30  2  0
 30 31  1  0
 31 32  2  0
 32 33  1  0
 30 34  1  0
 34 35  1  0
 34 36  2  0
 15 37  1  0
 37 38  2  0
 38 39  1  0
 39 40  2  0
 40 41  1  0
 41 42  2  0
 42 43  1  0
  7  2  1  0
 14  9  1  0
 26 21  1  0
 32 27  1  0
 42 37  1  0
 19 12  1  0
  1 44  1  0
  1 45  1  0
  1 46  1  0
  3 47  1  0
  4 48  1  0
  5 49  1  0
  8 50  1  0
  8 51  1  0
 10 52  1  0
 10 53  1  0
 11 54  1  0
 11 55  1  0
 13 56  1  0
 13 57  1  0
 14 58  1  0
 14 59  1  0
 22 60  1  0
 23 61  1  0
 25 62  1  0
 26 63  1  0
 28 64  1  0
 29 65  1  0
 31 66  1  0
 33 67  1  0
 33 68  1  0
 33 69  1  0
 35 70  1  0
 39 71  1  0
 40 72  1  0
 43 73  1  0
 43 74  1  0
 43 75  1  0
M  END
$$$$
[H]c1nc([H])c(-c2c([H])c([H])c(N3C(=O)N(c4nc([H])n([H])c(=O)c4[H])C4(C3=O)C([H])([H])C([H])([H])N(C([H])([H])c3nc([H])c([H])c([H])c3C([H])([H])[H])C([H])([H])C4([H])[H])c([H])c2[H])c([H])n1
     RDKit          3D

 65 70  0  0  0  0  0  0  0  0999 V2000
   -7.1484   -0.2330   -0.5697 C   0  0  0  0  0  0  0  0  0  0  0  0
   -6.1555   -1.2988   -0.1868 C   0  0  0  0  0  0  0  0  0  0  0  0
   -6.5926   -2.5959    0.0006 C   0  0  0  0  0  0  0  0  0  0  0  0
   -5.7164   -3.5977    0.3487 C   0  0  0  0  0  0  0  0  0  0  0  0
   -4.3785   -3.2604    0.5051 C   0  0  0  0  0  0  0  0  0  0  0  0
   -3.9783   -1.9830    0.3153 N   0  0  0  0  0  0  0  0  0  0  0  0
   -4.8212   -1.0029   -0.0229 C   0  0  0  0  0  0  0  0  0  0  0  0
   -4.3726    0.3676   -0.2130 C   0  0  0  0  0  0  0  0  0  0  0  0
   -2.9984    0.6442   -0.0497 N   0  0  0  0  0  0  0  0  0  0  0  0
   -2.0834    0.0055   -0.9344 C   0  0  0  0  0  0  0  0  0  0  0  0
   -0.8270    0.8502   -1.0633 C   0  0  0  0  0  0  0  0  0  0  0  0
   -0.2645    1.2290    0.2730 C   0  0  0  0  0  0  0  0  0  0  0  0
   -1.2539    1.4515    1.3554 C   0  0  0  0  0  0  0  0  0  0  0  0
   -2.4708    0.5942    1.2751 C   0  0  0  0  0  0  0  0  0  0  0  0
    0.6253    2.3806    0.1236 N   0  0  0  0  0  0  0  0  0  0  0  0
    1.9066    1.8131   -0.2171 C   0  0  0  0  0  0  0  0  0  0  0  0
    2.8370    2.4848   -0.7364 O   0  0  0  0  0  0  0  0  0  0  0  0
    1.9182    0.4108    0.1296 N   0  0  0  0  0  0  0  0  0  0  0  0
    0.6467    0.1191    0.6804 C   0  0  0  0  0  0  0  0  0  0  0  0
    0.3438   -0.8641    1.3672 O   0  0  0  0  0  0  0  0  0  0  0  0
    3.0196   -0.4462   -0.0739 C   0  0  0  0  0  0  0  0  0  0  0  0
    4.3139    0.0051    0.0782 C   0  0  0  0  0  0  0  0  0  0  0  0
    5.3998   -0.8418   -0.1245 C   0  0  0  0  0  0  0  0  0  0  0  0
    5.2067   -2.1446   -0.4805 C   0  0  0  0  0  0  0  0  0  0  0  0
    3.9275   -2.6094   -0.6358 C   0  0  0  0  0  0  0  0  0  0  0  0
    2.8472   -1.7666   -0.4343 C   0  0  0  0  0  0  0  0  0  0  0  0
    6.3599   -3.0108   -0.6868 C   0  0  0  0  0  0  0  0  0  0  0  0
    7.5357   -2.8606    0.0147 C   0  0  0  0  0  0  0  0  0  0  0  0
    8.5694   -3.7014   -0.2280 N   0  0  0  0  0  0  0  0  0  0  0  0
    8.5094   -4.6907   -1.1311 C   0  0  0  0  0  0  0  0  0  0  0  0
    7.3688   -4.8497   -1.8224 N   0  0  0  0  0  0  0  0  0  0  0  0
    6.3109   -4.0320   -1.6122 C   0  0  0  0  0  0  0  0  0  0  0  0
    0.3655    3.7672    0.2702 C   0  0  0  0  0  0  0  0  0  0  0  0
   -0.7588    4.3834   -0.2264 C   0  0  0  0  0  0  0  0  0  0  0  0
   -0.9834    5.7435   -0.0646 C   0  0  0  0  0  0  0  0  0  0  0  0
   -2.0302    6.2945   -0.5319 O   0  0  0  0  0  0  0  0  0  0  0  0
   -0.0844    6.4941    0.5945 N   0  0  0  0  0  0  0  0  0  0  0  0
    1.0097    5.8893    1.0770 C   0  0  0  0  0  0  0  0  0  0  0  0
    1.2397    4.5861    0.9303 N   0  0  0  0  0  0  0  0  0  0  0  0
   -6.6793    0.3905   -1.3618 H   0  0  0  0  0  0  0  0  0  0  0  0
   -8.0158   -0.7174   -1.0109 H   0  0  0  0  0  0  0  0  0  0  0  0
   -7.4834    0.3525    0.3080 H   0  0  0  0  0  0  0  0  0  0  0  0
   -7.6401   -2.8380   -0.1255 H   0  0  0  0  0  0  0  0  0  0  0  0
   -6.0461   -4.6222    0.5004 H   0  0  0  0  0  0  0  0  0  0  0  0
   -3.6898   -4.0586    0.7805 H   0  0  0  0  0  0  0  0  0  0  0  0
   -4.6758    0.7866   -1.2191 H   0  0  0  0  0  0  0  0  0  0  0  0
   -4.9329    1.0371    0.5108 H   0  0  0  0  0  0  0  0  0  0  0  0
   -1.8137   -1.0445   -0.6559 H   0  0  0  0  0  0  0  0  0  0  0  0
   -2.5408   -0.0497   -1.9440 H   0  0  0  0  0  0  0  0  0  0  0  0
   -0.0805    0.2217   -1.5916 H   0  0  0  0  0  0  0  0  0  0  0  0
   -1.0153    1.6995   -1.7490 H   0  0  0  0  0  0  0  0  0  0  0  0
   -1.5873    2.5029    1.4803 H   0  0  0  0  0  0  0  0  0  0  0  0
   -0.7501    1.2014    2.3285 H   0  0  0  0  0  0  0  0  0  0  0  0
   -3.2040    0.9282    2.0449 H   0  0  0  0  0  0  0  0  0  0  0  0
   -2.1773   -0.4402    1.5791 H   0  0  0  0  0  0  0  0  0  0  0  0
    4.5585    1.0229    0.3576 H   0  0  0  0  0  0  0  0  0  0  0  0
    6.4259   -0.4985   -0.0090 H   0  0  0  0  0  0  0  0  0  0  0  0
    3.7884   -3.6407   -0.9166 H   0  0  0  0  0  0  0  0  0  0  0  0
    1.8657   -2.2089   -0.5771 H   0  0  0  0  0  0  0  0  0  0  0  0
    7.5908   -2.0654    0.7438 H   0  0  0  0  0  0  0  0  0  0  0  0
    9.3513   -5.3669   -1.3187 H   0  0  0  0  0  0  0  0  0  0  0  0
    5.3807   -4.1379   -2.1580 H   0  0  0  0  0  0  0  0  0  0  0  0
   -1.4959    3.8085   -0.7567 H   0  0  0  0  0  0  0  0  0  0  0  0
   -0.2339    7.5347    0.7277 H   0  0  0  0  0  0  0  0  0  0  0  0
    1.7574    6.4783    1.6150 H   0  0  0  0  0  0  0  0  0  0  0  0
  1  2  1  0
  2  3  2  0
  3  4  1  0
  4  5  2  0
  5  6  1  0
  6  7  2  0
  7  8  1  0
  8  9  1  0
  9 10  1  0
 10 11  1  0
 11 12  1  0
 12 13  1  0
 13 14  1  0
 12 15  1  0
 15 16  1  0
 16 17  2  0
 16 18  1  0
 18 19  1  0
 19 20  2  0
 18 21  1  0
 21 22  2  0
 22 23  1  0
 23 24  2  0
 24 25  1  0
 25 26  2  0
 24 27  1  0
 27 28  2  0
 28 29  1  0
 29 30  2  0
 30 31  1  0
 31 32  2  0
 15 33  1  0
 33 34  2  0
 34 35  1  0
 35 36  2  0
 35 37  1  0
 37 38  1  0
 38 39  2  0
  7  2  1  0
 14  9  1  0
 26 21  1  0
 32 27  1  0
 39 33  1  0
 19 12  1  0
  1 40  1  0
  1 41  1  0
  1 42  1  0
  3 43  1  0
  4 44  1  0
  5 45  1  0
  8 46  1  0
  8 47  1  0
 10 48  1  0
 10 49  1  0
 11 50  1  0
 11 51  1  0
 13 52  1  0
 13 53  1  0
 14 54  1  0
 14 55  1  0
 22 56  1  0
 23 57  1  0
 25 58  1  0
 26 59  1  0
 28 60  1  0
 30 61  1  0
 32 62  1  0
 34 63  1  0
 37 64  1  0
 38 65  1  0
M  END
$$$$
[H]OC(=O)C([H])([H])N([H])C(=O)c1c(O[H])c2c([H])c(C([H])([H])N([H])C(=O)[C@@]([H])(N([H])C(=O)[C@@]([H])(N([H])C(=O)C([H])([H])[H])C([H])([H])c3c([H])c([H])c4c([H])c([H])c([H])c([H])c4c3[H])C([H])([H])c3c([H])c([H])c([H])c([H])c3[H])c([H])c([H])c2n(C([H])([H])[H])c1=O
     RDKit          3D

 88 92  0  0  0  0  0  0  0  0999 V2000
    5.0328    3.4817    2.2899 C   0  0  0  0  0  0  0  0  0  0  0  0
    4.3885    2.6659    1.2419 C   0  0  0  0  0  0  0  0  0  0  0  0
    3.7023    3.2400    0.3730 O   0  0  0  0  0  0  0  0  0  0  0  0
    4.5210    1.2570    1.1873 N   0  0  0  0  0  0  0  0  0  0  0  0
    3.9168    0.4262    0.1949 C   0  0  1  0  0  0  0  0  0  0  0  0
    4.9585   -0.4304   -0.4941 C   0  0  0  0  0  0  0  0  0  0  0  0
    5.9991    0.3646   -1.1781 C   0  0  0  0  0  0  0  0  0  0  0  0
    7.1560    0.7857   -0.5650 C   0  0  0  0  0  0  0  0  0  0  0  0
    8.1216    1.5229   -1.2192 C   0  0  0  0  0  0  0  0  0  0  0  0
    7.9178    1.8571   -2.5639 C   0  0  0  0  0  0  0  0  0  0  0  0
    8.8789    2.5920   -3.2275 C   0  0  0  0  0  0  0  0  0  0  0  0
    8.6555    2.9083   -4.5587 C   0  0  0  0  0  0  0  0  0  0  0  0
    7.5013    2.4931   -5.1848 C   0  0  0  0  0  0  0  0  0  0  0  0
    6.5643    1.7697   -4.5154 C   0  0  0  0  0  0  0  0  0  0  0  0
    6.7728    1.4491   -3.1974 C   0  0  0  0  0  0  0  0  0  0  0  0
    5.8347    0.7122   -2.4977 C   0  0  0  0  0  0  0  0  0  0  0  0
    2.9413   -0.5657    0.7973 C   0  0  0  0  0  0  0  0  0  0  0  0
    2.8462   -0.4867    2.0406 O   0  0  0  0  0  0  0  0  0  0  0  0
    2.2359   -1.4690   -0.0256 N   0  0  0  0  0  0  0  0  0  0  0  0
    1.2715   -2.4590    0.4974 C   0  0  1  0  0  0  0  0  0  0  0  0
    2.0640   -3.3930    1.3055 C   0  0  0  0  0  0  0  0  0  0  0  0
    1.4256   -4.5060    1.9915 C   0  0  0  0  0  0  0  0  0  0  0  0
    1.1602   -5.7205    1.3500 C   0  0  0  0  0  0  0  0  0  0  0  0
    0.5932   -6.7738    2.0355 C   0  0  0  0  0  0  0  0  0  0  0  0
    0.2587   -6.6983    3.3662 C   0  0  0  0  0  0  0  0  0  0  0  0
    0.5134   -5.5081    4.0151 C   0  0  0  0  0  0  0  0  0  0  0  0
    1.0884   -4.4390    3.3229 C   0  0  0  0  0  0  0  0  0  0  0  0
    0.1819   -1.6991    1.1040 C   0  0  0  0  0  0  0  0  0  0  0  0
    0.1771   -0.4325    1.2021 O   0  0  0  0  0  0  0  0  0  0  0  0
   -0.9867   -2.3279    1.6396 N   0  0  0  0  0  0  0  0  0  0  0  0
   -2.0766   -1.5959    2.2431 C   0  0  0  0  0  0  0  0  0  0  0  0
   -3.0077   -1.0052    1.2373 C   0  0  0  0  0  0  0  0  0  0  0  0
   -2.8186   -1.2739   -0.1196 C   0  0  0  0  0  0  0  0  0  0  0  0
   -3.6316   -0.7851   -1.1072 C   0  0  0  0  0  0  0  0  0  0  0  0
   -4.6979    0.0214   -0.7091 C   0  0  0  0  0  0  0  0  0  0  0  0
   -5.4928    0.4926   -1.6763 N   0  0  0  0  0  0  0  0  0  0  0  0
   -5.2460    0.1737   -3.0771 C   0  0  0  0  0  0  0  0  0  0  0  0
   -6.5463    1.2788   -1.3209 C   0  0  0  0  0  0  0  0  0  0  0  0
   -7.2689    1.6994   -2.2765 O   0  0  0  0  0  0  0  0  0  0  0  0
   -6.8423    1.6164   -0.0435 C   0  0  0  0  0  0  0  0  0  0  0  0
   -7.9481    2.4308    0.3973 C   0  0  0  0  0  0  0  0  0  0  0  0
   -8.0900    2.6366    1.6621 O   0  0  0  0  0  0  0  0  0  0  0  0
   -8.8905    3.0209   -0.4594 N   0  0  0  0  0  0  0  0  0  0  0  0
   -9.9611    3.8196    0.1851 C   0  0  0  0  0  0  0  0  0  0  0  0
  -10.8634    4.3823   -0.8300 C   0  0  0  0  0  0  0  0  0  0  0  0
  -11.9265    5.1587   -0.3553 O   0  0  0  0  0  0  0  0  0  0  0  0
  -10.7031    4.1876   -2.0420 O   0  0  0  0  0  0  0  0  0  0  0  0
   -5.9837    1.1039    0.9583 C   0  0  0  0  0  0  0  0  0  0  0  0
   -6.2423    1.4181    2.2615 O   0  0  0  0  0  0  0  0  0  0  0  0
   -4.9151    0.3083    0.6195 C   0  0  0  0  0  0  0  0  0  0  0  0
   -4.0620   -0.2111    1.5844 C   0  0  0  0  0  0  0  0  0  0  0  0
    4.2784    3.8743    3.0334 H   0  0  0  0  0  0  0  0  0  0  0  0
    5.5451    4.3831    1.8909 H   0  0  0  0  0  0  0  0  0  0  0  0
    5.7645    2.8772    2.8992 H   0  0  0  0  0  0  0  0  0  0  0  0
    5.1130    0.8076    1.9447 H   0  0  0  0  0  0  0  0  0  0  0  0
    3.3918    1.0507   -0.5430 H   0  0  0  0  0  0  0  0  0  0  0  0
    4.4286   -1.1060   -1.2321 H   0  0  0  0  0  0  0  0  0  0  0  0
    5.4330   -1.1460    0.2207 H   0  0  0  0  0  0  0  0  0  0  0  0
    7.3361    0.5397    0.4720 H   0  0  0  0  0  0  0  0  0  0  0  0
    9.0211    1.8436   -0.7271 H   0  0  0  0  0  0  0  0  0  0  0  0
    9.7538    2.8884   -2.6955 H   0  0  0  0  0  0  0  0  0  0  0  0
    9.4019    3.4821   -5.0863 H   0  0  0  0  0  0  0  0  0  0  0  0
    7.3098    2.7346   -6.2366 H   0  0  0  0  0  0  0  0  0  0  0  0
    5.6335    1.4210   -4.9789 H   0  0  0  0  0  0  0  0  0  0  0  0
    4.9325    0.3973   -3.0217 H   0  0  0  0  0  0  0  0  0  0  0  0
    2.4253   -1.4125   -1.0561 H   0  0  0  0  0  0  0  0  0  0  0  0
    0.8456   -2.9604   -0.4244 H   0  0  0  0  0  0  0  0  0  0  0  0
    2.7807   -3.8959    0.5567 H   0  0  0  0  0  0  0  0  0  0  0  0
    2.7868   -2.8509    1.9650 H   0  0  0  0  0  0  0  0  0  0  0  0
    1.4170   -5.7912    0.3064 H   0  0  0  0  0  0  0  0  0  0  0  0
    0.3812   -7.7333    1.5365 H   0  0  0  0  0  0  0  0  0  0  0  0
   -0.1827   -7.5458    3.8669 H   0  0  0  0  0  0  0  0  0  0  0  0
    0.2489   -5.4587    5.0585 H   0  0  0  0  0  0  0  0  0  0  0  0
    1.2734   -3.5224    3.8596 H   0  0  0  0  0  0  0  0  0  0  0  0
   -1.1007   -3.3602    1.5872 H   0  0  0  0  0  0  0  0  0  0  0  0
   -2.5905   -2.1826    3.0095 H   0  0  0  0  0  0  0  0  0  0  0  0
   -1.6581   -0.6941    2.7923 H   0  0  0  0  0  0  0  0  0  0  0  0
   -1.9776   -1.9133   -0.4082 H   0  0  0  0  0  0  0  0  0  0  0  0
   -3.4804   -0.9978   -2.1606 H   0  0  0  0  0  0  0  0  0  0  0  0
   -5.2903   -0.9182   -3.2387 H   0  0  0  0  0  0  0  0  0  0  0  0
   -4.2539    0.5110   -3.4295 H   0  0  0  0  0  0  0  0  0  0  0  0
   -6.0230    0.6541   -3.7254 H   0  0  0  0  0  0  0  0  0  0  0  0
   -8.9173    2.9594   -1.4815 H   0  0  0  0  0  0  0  0  0  0  0  0
  -10.4755    3.1307    0.8829 H   0  0  0  0  0  0  0  0  0  0  0  0
   -9.4378    4.5944    0.7758 H   0  0  0  0  0  0  0  0  0  0  0  0
  -12.5858    4.6647    0.2430 H   0  0  0  0  0  0  0  0  0  0  0  0
   -5.7690    1.1639    3.0804 H   0  0  0  0  0  0  0  0  0  0  0  0
   -4.2371    0.0174    2.6049 H   0  0  0  0  0  0  0  0  0  0  0  0
  1  2  1  0
  2  3  2  0
  2  4  1  0
  4  5  1  0
  5  6  1  0
  6  7  1  0
  7  8  2  0
  8  9  1  0
  9 10  2  0
 10 11  1  0
 11 12  2  0
 12 13  1  0
 13 14  2  0
 14 15  1  0
 15 16  2  0
  5 17  1  0
 17 18  2  0
 17 19  1  0
 19 20  1  0
 20 21  1  0
 21 22  1  0
 22 23  2  0
 23 24  1  0
 24 25  2  0
 25 26  1  0
 26 27  2  0
 20 28  1  0
 28 29  2  0
 28 30  1  0
 30 31  1  0
 31 32  1  0
 32 33  2  0
 33 34  1  0
 34 35  2  0
 35 36  1  0
 36 37  1  0
 36 38  1  0
 38 39  2  0
 38 40  1  0
 40 41  1  0
 41 42  2  0
 41 43  1  0
 43 44  1  0
 44 45  1  0
 45 46  1  0
 45 47  2  0
 40 48  2  0
 48 49  1  0
 48 50  1  0
 50 51  2  0
 16  7  1  0
 27 22  1  0
 51 32  1  0
 15 10  1  0
 50 35  1  0
  1 52  1  0
  1 53  1  0
  1 54  1  0
  4 55  1  0
  5 56  1  6
  6 57  1  0
  6 58  1  0
  8 59  1  0
  9 60  1  0
 11 61  1  0
 12 62  1  0
 13 63  1  0
 14 64  1  0
 16 65  1  0
 19 66  1  0
 20 67  1  6
 21 68  1  0
 21 69  1  0
 23 70  1  0
 24 71  1  0
 25 72  1  0
 26 73  1  0
 27 74  1  0
 30 75  1  0
 31 76  1  0
 31 77  1  0
 33 78  1  0
 34 79  1  0
 37 80  1  0
 37 81  1  0
 37 82  1  0
 43 83  1  0
 44 84  1  0
 44 85  1  0
 46 86  1  0
 49 87  1  0
 51 88  1  0
M  END
$$$$
[H]c1nc2c([H])c(N([H])C(=O)OC(C([H])([H])[H])(C([H])([H])[H])C([H])([H])[H])c([H])c(-c3c([H])c([H])c(C#N)c([H])c3[H])n2n1
     RDKit          3D

 42 44  0  0  0  0  0  0  0  0999 V2000
    5.3252   -0.0034    1.3542 C   0  0  0  0  0  0  0  0  0  0  0  0
    4.9389   -0.6703    0.0494 C   0  0  0  0  0  0  0  0  0  0  0  0
    5.3023    0.2700   -1.0793 C   0  0  0  0  0  0  0  0  0  0  0  0
    5.7809   -1.9055   -0.0958 C   0  0  0  0  0  0  0  0  0  0  0  0
    3.5702   -1.0268    0.0235 O   0  0  0  0  0  0  0  0  0  0  0  0
    2.5649   -0.0626    0.1570 C   0  0  0  0  0  0  0  0  0  0  0  0
    2.9064    1.1193    0.2995 O   0  0  0  0  0  0  0  0  0  0  0  0
    1.2210   -0.4616    0.1254 N   0  0  0  0  0  0  0  0  0  0  0  0
    0.0591    0.3275    0.2417 C   0  0  0  0  0  0  0  0  0  0  0  0
   -1.1806   -0.2953    0.0362 C   0  0  0  0  0  0  0  0  0  0  0  0
   -2.3332    0.4158    0.1420 C   0  0  0  0  0  0  0  0  0  0  0  0
   -3.6571   -0.2239   -0.0717 C   0  0  0  0  0  0  0  0  0  0  0  0
   -4.3544   -0.7964    0.9699 C   0  0  0  0  0  0  0  0  0  0  0  0
   -5.5826   -1.3862    0.7537 C   0  0  0  0  0  0  0  0  0  0  0  0
   -6.1692   -1.4337   -0.4976 C   0  0  0  0  0  0  0  0  0  0  0  0
   -5.4658   -0.8587   -1.5362 C   0  0  0  0  0  0  0  0  0  0  0  0
   -4.2373   -0.2686   -1.3203 C   0  0  0  0  0  0  0  0  0  0  0  0
   -7.4472   -2.0479   -0.7207 C   0  0  0  0  0  0  0  0  0  0  0  0
   -8.4779   -2.5411   -0.9057 N   0  0  0  0  0  0  0  0  0  0  0  0
   -2.3419    1.7240    0.4426 N   0  0  0  0  0  0  0  0  0  0  0  0
   -3.3219    2.6250    0.6006 N   0  0  0  0  0  0  0  0  0  0  0  0
   -2.7823    3.8241    0.9037 C   0  0  0  0  0  0  0  0  0  0  0  0
   -1.4330    3.6789    0.9381 N   0  0  0  0  0  0  0  0  0  0  0  0
   -1.1946    2.3722    0.6494 C   0  0  0  0  0  0  0  0  0  0  0  0
    0.0177    1.6691    0.5485 C   0  0  0  0  0  0  0  0  0  0  0  0
    5.1545    1.1054    1.3122 H   0  0  0  0  0  0  0  0  0  0  0  0
    4.7571   -0.4436    2.1870 H   0  0  0  0  0  0  0  0  0  0  0  0
    6.4304   -0.1791    1.4743 H   0  0  0  0  0  0  0  0  0  0  0  0
    5.2619    1.3212   -0.7179 H   0  0  0  0  0  0  0  0  0  0  0  0
    4.6789    0.0886   -1.9634 H   0  0  0  0  0  0  0  0  0  0  0  0
    6.3872    0.0920   -1.3241 H   0  0  0  0  0  0  0  0  0  0  0  0
    5.6835   -2.5812    0.7943 H   0  0  0  0  0  0  0  0  0  0  0  0
    5.4072   -2.5211   -0.9575 H   0  0  0  0  0  0  0  0  0  0  0  0
    6.8353   -1.6523   -0.3001 H   0  0  0  0  0  0  0  0  0  0  0  0
    1.0322   -1.5202   -0.0023 H   0  0  0  0  0  0  0  0  0  0  0  0
   -1.2661   -1.3508   -0.2113 H   0  0  0  0  0  0  0  0  0  0  0  0
   -3.8900   -0.7564    1.9487 H   0  0  0  0  0  0  0  0  0  0  0  0
   -6.1329   -1.8366    1.5691 H   0  0  0  0  0  0  0  0  0  0  0  0
   -5.9181   -0.8885   -2.5344 H   0  0  0  0  0  0  0  0  0  0  0  0
   -3.6864    0.1831   -2.1404 H   0  0  0  0  0  0  0  0  0  0  0  0
   -3.3834    4.6990    1.0748 H   0  0  0  0  0  0  0  0  0  0  0  0
    0.9413    2.1964    0.7212 H   0  0  0  0  0  0  0  0  0  0  0  0
  1  2  1  0
  2  3  1  0
  2  4  1  0
  2  5  1  0
  5  6  1  0
  6  7  2  0
  6  8  1  0
  8  9  1  0
  9 10  1  0
 10 11  2  0
 11 12  1  0
 12 13  2  0
 13 14  1  0
 14 15  2  0
 15 16  1  0
 16 17  2  0
 15 18  1  0
 18 19  3  0
 11 20  1  0
 20 21  1  0
 21 22  2  0
 22 23  1  0
 23 24  2  0
 24 25  1  0
 25  9  2  0
 17 12  1  0
 24 20  1  0
  1 26  1  0
  1 27  1  0
  1 28  1  0
  3 29  1  0
  3 30  1  0
  3 31  1  0
  4 32  1  0
  4 33  1  0
  4 34  1  0
  8 35  1  0
 10 36  1  0
 13 37  1  0
 14 38  1  0
 16 39  1  0
 17 40  1  0
 22 41  1  0
 25 42  1  0
M  END
$$$$
