[H]c1nc(N([H])S(=O)(=O)c2c(F)c([H])c(Oc3c([H])c([H])c(Cl)c([H])c3C([H])([H])[H])c([H])c2Cl)sc1[H]
     RDKit          3D

 37 39  0  0  0  0  0  0  0  0999 V2000
   -4.4976   -1.8001   -0.8826 C   0  0  0  0  0  0  0  0  0  0  0  0
   -4.6080   -0.3722   -0.4570 C   0  0  0  0  0  0  0  0  0  0  0  0
   -5.8201    0.2503   -0.5092 C   0  0  0  0  0  0  0  0  0  0  0  0
   -5.9217    1.5475   -0.1228 C   0  0  0  0  0  0  0  0  0  0  0  0
   -7.5013    2.3194   -0.2032 Cl  0  0  0  0  0  0  0  0  0  0  0  0
   -4.8319    2.2249    0.3124 C   0  0  0  0  0  0  0  0  0  0  0  0
   -3.6003    1.5759    0.3603 C   0  0  0  0  0  0  0  0  0  0  0  0
   -3.4242    0.2607   -0.0166 C   0  0  0  0  0  0  0  0  0  0  0  0
   -2.3312   -0.4608   -0.0198 O   0  0  0  0  0  0  0  0  0  0  0  0
   -1.0437   -0.5217    0.2241 C   0  0  0  0  0  0  0  0  0  0  0  0
   -0.3984   -1.7574   -0.0319 C   0  0  0  0  0  0  0  0  0  0  0  0
    0.9439   -1.9378    0.1855 C   0  0  0  0  0  0  0  0  0  0  0  0
    1.5173   -3.1574   -0.0802 F   0  0  0  0  0  0  0  0  0  0  0  0
    1.7230   -0.9081    0.6678 C   0  0  0  0  0  0  0  0  0  0  0  0
    1.1453    0.3056    0.9309 C   0  0  0  0  0  0  0  0  0  0  0  0
    2.1461    1.5960    1.5474 Cl  0  0  0  0  0  0  0  0  0  0  0  0
   -0.2061    0.4608    0.7036 C   0  0  0  0  0  0  0  0  0  0  0  0
    3.4157   -1.2633    0.9067 S   0  0  0  0  0  0  0  0  0  0  0  0
    3.8592   -0.4512    2.0961 O   0  0  0  0  0  0  0  0  0  0  0  0
    3.5322   -2.7136    1.3512 O   0  0  0  0  0  0  0  0  0  0  0  0
    4.3834   -0.9933   -0.4567 N   0  0  0  0  0  0  0  0  0  0  0  0
    5.3721    0.0298   -0.4624 C   0  0  0  0  0  0  0  0  0  0  0  0
    5.7128    0.8889    0.4867 N   0  0  0  0  0  0  0  0  0  0  0  0
    6.6477    1.7519    0.2852 C   0  0  0  0  0  0  0  0  0  0  0  0
    7.2735    1.7519   -0.9345 C   0  0  0  0  0  0  0  0  0  0  0  0
    6.4585    0.4806   -1.7332 S   0  0  0  0  0  0  0  0  0  0  0  0
   -3.8091   -2.2810   -0.1499 H   0  0  0  0  0  0  0  0  0  0  0  0
   -5.4656   -2.3125   -0.8621 H   0  0  0  0  0  0  0  0  0  0  0  0
   -3.9843   -1.8261   -1.8611 H   0  0  0  0  0  0  0  0  0  0  0  0
   -6.7295   -0.2680   -0.8576 H   0  0  0  0  0  0  0  0  0  0  0  0
   -4.9444    3.2558    0.6130 H   0  0  0  0  0  0  0  0  0  0  0  0
   -2.7469    2.1297    0.7084 H   0  0  0  0  0  0  0  0  0  0  0  0
   -0.9788   -2.5648   -0.4039 H   0  0  0  0  0  0  0  0  0  0  0  0
   -0.6075    1.4259    0.9245 H   0  0  0  0  0  0  0  0  0  0  0  0
    4.2716   -1.5676   -1.3073 H   0  0  0  0  0  0  0  0  0  0  0  0
    6.9604    2.4871    1.0559 H   0  0  0  0  0  0  0  0  0  0  0  0
    8.0880    2.4142   -1.2782 H   0  0  0  0  0  0  0  0  0  0  0  0
  1  2  1  0
  2  3  2  0
  3  4  1  0
  4  5  1  0
  4  6  2  0
  6  7  1  0
  7  8  2  0
  8  9  1  0
  9 10  1  0
 10 11  2  0
 11 12  1  0
 12 13  1  0
 12 14  2  0
 14 15  1  0
 15 16  1  0
 15 17  2  0
 14 18  1  0
 18 19  2  0
 18 20  2  0
 18 21  1  0
 21 22  1  0
 22 23  2  0
 23 24  1  0
 24 25  2  0
 25 26  1  0
  8  2  1  0
 17 10  1  0
 26 22  1  0
  1 27  1  0
  1 28  1  0
  1 29  1  0
  3 30  1  0
  6 31  1  0
  7 32  1  0
 11 33  1  0
 17 34  1  0
 21 35  1  0
 24 36  1  0
 25 37  1  0
M  END
$$$$
[H]O[C@@]1([H])C([H])([H])C([H])([H])[C@]2([H])C([H])(C1([H])[H])[C@@]1([H])[C@@]2([H])C([H])([H])C([H])([H])[C@@]1([H])[C@@](O[H])(OP(=O)(O[H])O[H])C([H])([H])[H]
     RDKit          3D

 43 45  0  0  0  0  0  0  0  0999 V2000
   -2.8223   -1.2071   -1.5109 C   0  0  0  0  0  0  0  0  0  0  0  0
   -1.6128   -0.4388   -0.9208 C   0  0  2  0  0  0  0  0  0  0  0  0
   -2.1047    0.0781    0.2794 O   0  0  0  0  0  0  0  0  0  0  0  0
   -1.4863    0.6440   -1.7424 O   0  0  0  0  0  0  0  0  0  0  0  0
   -2.8231    1.6651   -1.7940 P   0  0  0  0  0  0  0  0  0  0  0  0
   -2.3105    3.0920   -2.5843 O   0  0  0  0  0  0  0  0  0  0  0  0
   -3.1510    2.1521   -0.1859 O   0  0  0  0  0  0  0  0  0  0  0  0
   -4.0261    1.0821   -2.4446 O   0  0  0  0  0  0  0  0  0  0  0  0
   -0.5118   -1.3905   -0.8083 C   0  0  2  0  0  0  0  0  0  0  0  0
   -0.9725   -2.5058    0.1278 C   0  0  0  0  0  0  0  0  0  0  0  0
    0.0486   -2.5382    1.2826 C   0  0  0  0  0  0  0  0  0  0  0  0
    0.5830   -1.1758    1.1205 C   0  0  1  0  0  0  0  0  0  0  0  0
    1.9707   -0.7618    1.2059 C   0  0  2  0  0  0  0  0  0  0  0  0
    2.1662    0.4155    2.1397 C   0  0  0  0  0  0  0  0  0  0  0  0
    3.2390    1.2870    1.6006 C   0  0  0  0  0  0  0  0  0  0  0  0
    2.7263    1.9733    0.3809 C   0  0  2  0  0  0  0  0  0  0  0  0
    2.1478    3.1905    0.7430 O   0  0  0  0  0  0  0  0  0  0  0  0
    1.7651    1.1566   -0.4461 C   0  0  0  0  0  0  0  0  0  0  0  0
    1.8631   -0.3108   -0.2419 C   0  0  0  0  0  0  0  0  0  0  0  0
    0.8132   -1.2581   -0.3960 C   0  0  2  0  0  0  0  0  0  0  0  0
   -2.6718   -2.3017   -1.3823 H   0  0  0  0  0  0  0  0  0  0  0  0
   -2.8684   -1.0595   -2.6091 H   0  0  0  0  0  0  0  0  0  0  0  0
   -3.7647   -0.9312   -1.0540 H   0  0  0  0  0  0  0  0  0  0  0  0
   -2.8185   -0.4751    0.6727 H   0  0  0  0  0  0  0  0  0  0  0  0
   -1.9244    3.7347   -1.9582 H   0  0  0  0  0  0  0  0  0  0  0  0
   -4.1114    2.0447    0.0228 H   0  0  0  0  0  0  0  0  0  0  0  0
   -0.5019   -1.9426   -1.8315 H   0  0  0  0  0  0  0  0  0  0  0  0
   -0.9088   -3.5124   -0.3258 H   0  0  0  0  0  0  0  0  0  0  0  0
   -1.9893   -2.3639    0.5000 H   0  0  0  0  0  0  0  0  0  0  0  0
   -0.5027   -2.7257    2.2083 H   0  0  0  0  0  0  0  0  0  0  0  0
    0.8218   -3.2883    1.1174 H   0  0  0  0  0  0  0  0  0  0  0  0
   -0.1083   -0.4555    1.4991 H   0  0  0  0  0  0  0  0  0  0  0  0
    2.6662   -1.5538    1.4557 H   0  0  0  0  0  0  0  0  0  0  0  0
    1.2143    1.0108    2.1331 H   0  0  0  0  0  0  0  0  0  0  0  0
    2.3472    0.0303    3.1472 H   0  0  0  0  0  0  0  0  0  0  0  0
    3.4491    2.0815    2.3752 H   0  0  0  0  0  0  0  0  0  0  0  0
    4.2079    0.7736    1.4523 H   0  0  0  0  0  0  0  0  0  0  0  0
    3.6397    2.2630   -0.2230 H   0  0  0  0  0  0  0  0  0  0  0  0
    1.4071    3.3455    0.1007 H   0  0  0  0  0  0  0  0  0  0  0  0
    0.7644    1.6044   -0.2911 H   0  0  0  0  0  0  0  0  0  0  0  0
    1.9770    1.4416   -1.4998 H   0  0  0  0  0  0  0  0  0  0  0  0
    2.8498   -0.5958   -0.6767 H   0  0  0  0  0  0  0  0  0  0  0  0
    1.3240   -2.2739   -0.6382 H   0  0  0  0  0  0  0  0  0  0  0  0
  1  2  1  0
  2  3  1  1
  2  4  1  0
  4  5  1  0
  5  6  1  0
  5  7  1  0
  5  8  2  0
  2  9  1  0
  9 10  1  0
 10 11  1  0
 11 12  1  0
 12 13  1  0
 13 14  1  0
 14 15  1  0
 15 16  1  0
 16 17  1  0
 16 18  1  0
 18 19  1  0
 19 20  1  0
 20  9  1  0
 20 12  1  0
 19 13  1  0
  1 21  1  0
  1 22  1  0
  1 23  1  0
  3 24  1  0
  6 25  1  0
  7 26  1  0
  9 27  1  6
 10 28  1  0
 10 29  1  0
 11 30  1  0
 11 31  1  0
 12 32  1  6
 13 33  1  6
 14 34  1  0
 14 35  1  0
 15 36  1  0
 15 37  1  0
 16 38  1  6
 17 39  1  0
 18 40  1  0
 18 41  1  0
 19 42  1  0
 20 43  1  1
M  END
$$$$
[H]C#CC1=C2c3c([H])c([H])c(O[H])c(C([H])([H])C([H])([H])C4([H])C([H])([H])C4([H])[H])c3C([H])([H])C([H])([H])[C@]2(C([H])([H])[H])C([H])([H])C([H])([H])C1=O
     RDKit          3D

 48 51  0  0  0  0  0  0  0  0999 V2000
   -1.5065    1.3596   -1.7421 C   0  0  0  0  0  0  0  0  0  0  0  0
   -2.0913    1.2097   -0.3781 C   0  0  2  0  0  0  0  0  0  0  0  0
   -1.0497    1.7224    0.6201 C   0  0  0  0  0  0  0  0  0  0  0  0
    0.0938    0.8536    0.9163 C   0  0  0  0  0  0  0  0  0  0  0  0
    0.1131   -0.5188    0.3995 C   0  0  0  0  0  0  0  0  0  0  0  0
    1.2253   -1.3172    0.3338 C   0  0  0  0  0  0  0  0  0  0  0  0
    2.5597   -0.8196    0.7195 C   0  0  0  0  0  0  0  0  0  0  0  0
    3.2908   -0.0868   -0.3789 C   0  0  0  0  0  0  0  0  0  0  0  0
    4.6196    0.3859    0.2286 C   0  0  0  0  0  0  0  0  0  0  0  0
    5.5974    1.1368   -0.5825 C   0  0  0  0  0  0  0  0  0  0  0  0
    4.7088    1.8892    0.4165 C   0  0  0  0  0  0  0  0  0  0  0  0
    1.1471   -2.6071   -0.1530 C   0  0  0  0  0  0  0  0  0  0  0  0
    2.3001   -3.4206   -0.2116 O   0  0  0  0  0  0  0  0  0  0  0  0
   -0.0712   -3.0816   -0.5777 C   0  0  0  0  0  0  0  0  0  0  0  0
   -1.2282   -2.3251   -0.5402 C   0  0  0  0  0  0  0  0  0  0  0  0
   -1.1166   -1.0610   -0.0502 C   0  0  0  0  0  0  0  0  0  0  0  0
   -2.3019   -0.2092    0.0555 C   0  0  0  0  0  0  0  0  0  0  0  0
   -3.4087   -0.7349    0.4931 C   0  0  0  0  0  0  0  0  0  0  0  0
   -3.5806   -2.0872    0.9138 C   0  0  0  0  0  0  0  0  0  0  0  0
   -3.7573   -3.2345    1.3252 C   0  0  0  0  0  0  0  0  0  0  0  0
   -4.5711    0.2005    0.5177 C   0  0  0  0  0  0  0  0  0  0  0  0
   -5.4957   -0.0543    1.3222 O   0  0  0  0  0  0  0  0  0  0  0  0
   -4.6077    1.3741   -0.3826 C   0  0  0  0  0  0  0  0  0  0  0  0
   -3.2879    2.0778   -0.2506 C   0  0  0  0  0  0  0  0  0  0  0  0
   -1.0446    0.4323   -2.1497 H   0  0  0  0  0  0  0  0  0  0  0  0
   -2.2404    1.7022   -2.5168 H   0  0  0  0  0  0  0  0  0  0  0  0
   -0.6910    2.1383   -1.7756 H   0  0  0  0  0  0  0  0  0  0  0  0
   -1.6543    1.9041    1.5648 H   0  0  0  0  0  0  0  0  0  0  0  0
   -0.6755    2.7224    0.2556 H   0  0  0  0  0  0  0  0  0  0  0  0
    1.0272    1.3498    0.5386 H   0  0  0  0  0  0  0  0  0  0  0  0
    0.1781    0.8098    2.0605 H   0  0  0  0  0  0  0  0  0  0  0  0
    2.4991   -0.1100    1.5756 H   0  0  0  0  0  0  0  0  0  0  0  0
    3.1921   -1.6982    0.9758 H   0  0  0  0  0  0  0  0  0  0  0  0
    2.7259    0.7293   -0.8247 H   0  0  0  0  0  0  0  0  0  0  0  0
    3.5934   -0.8077   -1.1992 H   0  0  0  0  0  0  0  0  0  0  0  0
    5.0139   -0.2073    1.0773 H   0  0  0  0  0  0  0  0  0  0  0  0
    6.6722    1.0391   -0.3156 H   0  0  0  0  0  0  0  0  0  0  0  0
    5.3498    1.2084   -1.6607 H   0  0  0  0  0  0  0  0  0  0  0  0
    5.2017    2.2835    1.3248 H   0  0  0  0  0  0  0  0  0  0  0  0
    3.9231    2.5301   -0.0687 H   0  0  0  0  0  0  0  0  0  0  0  0
    2.2753   -4.3500   -0.5558 H   0  0  0  0  0  0  0  0  0  0  0  0
   -0.1524   -4.0926   -0.9617 H   0  0  0  0  0  0  0  0  0  0  0  0
   -2.1300   -2.7165   -0.9424 H   0  0  0  0  0  0  0  0  0  0  0  0
   -3.9009   -4.2250    1.6651 H   0  0  0  0  0  0  0  0  0  0  0  0
   -5.3864    2.0709    0.0247 H   0  0  0  0  0  0  0  0  0  0  0  0
   -4.8974    1.1278   -1.4140 H   0  0  0  0  0  0  0  0  0  0  0  0
   -3.1958    2.9093   -1.0063 H   0  0  0  0  0  0  0  0  0  0  0  0
   -3.2648    2.5983    0.7267 H   0  0  0  0  0  0  0  0  0  0  0  0
  2  1  1  6
  2  3  1  0
  3  4  1  0
  4  5  1  0
  5  6  2  0
  6  7  1  0
  7  8  1  0
  8  9  1  0
  9 10  1  0
 10 11  1  0
  6 12  1  0
 12 13  1  0
 12 14  2  0
 14 15  1  0
 15 16  2  0
 16 17  1  0
 17 18  2  0
 18 19  1  0
 19 20  3  0
 18 21  1  0
 21 22  2  0
 21 23  1  0
 23 24  1  0
 17  2  1  0
 24  2  1  0
 16  5  1  0
 11  9  1  0
  1 25  1  0
  1 26  1  0
  1 27  1  0
  3 28  1  0
  3 29  1  0
  4 30  1  0
  4 31  1  0
  7 32  1  0
  7 33  1  0
  8 34  1  0
  8 35  1  0
  9 36  1  0
 10 37  1  0
 10 38  1  0
 11 39  1  0
 11 40  1  0
 13 41  1  0
 14 42  1  0
 15 43  1  0
 20 44  1  0
 23 45  1  0
 23 46  1  0
 24 47  1  0
 24 48  1  0
M  END
$$$$
[H]c1nc(C(=O)N([H])c2c([H])c([H])c(C([H])([H])[H])c(-c3c([H])c(N4C([H])([H])C([H])([H])OC([H])([H])C4([H])[H])c(=O)n(C([H])([H])[H])c3[H])c2[H])c([H])c(C(F)(F)F)c1[H]
     RDKit          3D

 57 60  0  0  0  0  0  0  0  0999 V2000
   -1.2482   -3.8535   -1.0816 C   0  0  0  0  0  0  0  0  0  0  0  0
   -0.1415   -2.8996   -0.8048 C   0  0  0  0  0  0  0  0  0  0  0  0
    1.1355   -3.3350   -1.1498 C   0  0  0  0  0  0  0  0  0  0  0  0
    2.2355   -2.5614   -0.9815 C   0  0  0  0  0  0  0  0  0  0  0  0
    2.1497   -1.2447   -0.4325 C   0  0  0  0  0  0  0  0  0  0  0  0
    3.3442   -0.5486   -0.3411 N   0  0  0  0  0  0  0  0  0  0  0  0
    3.8929    0.5032    0.3550 C   0  0  0  0  0  0  0  0  0  0  0  0
    3.3663    1.2068    1.2031 O   0  0  0  0  0  0  0  0  0  0  0  0
    5.3611    0.8203    0.0341 C   0  0  0  0  0  0  0  0  0  0  0  0
    6.1170    1.3988    0.9753 C   0  0  0  0  0  0  0  0  0  0  0  0
    7.4614    1.6357    0.6913 C   0  0  0  0  0  0  0  0  0  0  0  0
    7.9756    1.2769   -0.5514 C   0  0  0  0  0  0  0  0  0  0  0  0
    7.1130    0.6947   -1.4407 C   0  0  0  0  0  0  0  0  0  0  0  0
    5.8060    0.4606   -1.1587 N   0  0  0  0  0  0  0  0  0  0  0  0
    8.3435    2.2215    1.7220 C   0  0  0  0  0  0  0  0  0  0  0  0
    8.9692    3.3306    1.1948 F   0  0  0  0  0  0  0  0  0  0  0  0
    9.2756    1.2770    2.1684 F   0  0  0  0  0  0  0  0  0  0  0  0
    7.5662    2.6790    2.7739 F   0  0  0  0  0  0  0  0  0  0  0  0
    0.8731   -0.8541   -0.1038 C   0  0  0  0  0  0  0  0  0  0  0  0
   -0.2663   -1.6371   -0.2743 C   0  0  0  0  0  0  0  0  0  0  0  0
   -1.6210   -1.2119    0.0701 C   0  0  0  0  0  0  0  0  0  0  0  0
   -2.1891   -0.0218   -0.3405 C   0  0  0  0  0  0  0  0  0  0  0  0
   -3.5150    0.3035   -0.0435 C   0  0  0  0  0  0  0  0  0  0  0  0
   -4.1604    1.4844   -0.4411 N   0  0  0  0  0  0  0  0  0  0  0  0
   -5.1795    1.5683   -1.4582 C   0  0  0  0  0  0  0  0  0  0  0  0
   -6.0175    2.8030   -1.0852 C   0  0  0  0  0  0  0  0  0  0  0  0
   -6.2400    2.8595    0.2701 O   0  0  0  0  0  0  0  0  0  0  0  0
   -5.1154    3.0620    1.0502 C   0  0  0  0  0  0  0  0  0  0  0  0
   -3.8565    2.7629    0.2300 C   0  0  0  0  0  0  0  0  0  0  0  0
   -4.2749   -0.5972    0.6851 C   0  0  0  0  0  0  0  0  0  0  0  0
   -5.4975   -0.3529    0.9941 O   0  0  0  0  0  0  0  0  0  0  0  0
   -3.7328   -1.7495    1.0885 N   0  0  0  0  0  0  0  0  0  0  0  0
   -4.5980   -2.6830    1.8346 C   0  0  0  0  0  0  0  0  0  0  0  0
   -2.4574   -2.0446    0.7968 C   0  0  0  0  0  0  0  0  0  0  0  0
   -1.2884   -4.6207   -0.2687 H   0  0  0  0  0  0  0  0  0  0  0  0
   -0.9394   -4.4807   -1.9811 H   0  0  0  0  0  0  0  0  0  0  0  0
   -2.1945   -3.4173   -1.3751 H   0  0  0  0  0  0  0  0  0  0  0  0
    1.2340   -4.3580   -1.5762 H   0  0  0  0  0  0  0  0  0  0  0  0
    3.2082   -2.9194   -1.2468 H   0  0  0  0  0  0  0  0  0  0  0  0
    4.1273   -0.9202   -1.0874 H   0  0  0  0  0  0  0  0  0  0  0  0
    5.7653    1.7026    1.9661 H   0  0  0  0  0  0  0  0  0  0  0  0
    9.0194    1.4692   -0.7296 H   0  0  0  0  0  0  0  0  0  0  0  0
    7.5476    0.4169   -2.4140 H   0  0  0  0  0  0  0  0  0  0  0  0
    0.7550    0.1331    0.3245 H   0  0  0  0  0  0  0  0  0  0  0  0
   -1.6155    0.6972   -0.9046 H   0  0  0  0  0  0  0  0  0  0  0  0
   -4.6797    1.7142   -2.4314 H   0  0  0  0  0  0  0  0  0  0  0  0
   -5.8763    0.7319   -1.5016 H   0  0  0  0  0  0  0  0  0  0  0  0
   -5.5778    3.7229   -1.4792 H   0  0  0  0  0  0  0  0  0  0  0  0
   -6.9956    2.6646   -1.5749 H   0  0  0  0  0  0  0  0  0  0  0  0
   -5.0729    4.0741    1.4495 H   0  0  0  0  0  0  0  0  0  0  0  0
   -5.0971    2.3419    1.9030 H   0  0  0  0  0  0  0  0  0  0  0  0
   -3.7042    3.5026   -0.5570 H   0  0  0  0  0  0  0  0  0  0  0  0
   -3.0128    2.6777    0.9097 H   0  0  0  0  0  0  0  0  0  0  0  0
   -5.3977   -2.1944    2.3631 H   0  0  0  0  0  0  0  0  0  0  0  0
   -3.9316   -3.3422    2.4115 H   0  0  0  0  0  0  0  0  0  0  0  0
   -5.0154   -3.3381    1.0117 H   0  0  0  0  0  0  0  0  0  0  0  0
   -2.1330   -3.0115    1.2067 H   0  0  0  0  0  0  0  0  0  0  0  0
  1  2  1  0
  2  3  2  0
  3  4  1  0
  4  5  2  0
  5  6  1  0
  6  7  1  0
  7  8  2  0
  7  9  1  0
  9 10  2  0
 10 11  1  0
 11 12  2  0
 12 13  1  0
 13 14  2  0
 11 15  1  0
 15 16  1  0
 15 17  1  0
 15 18  1  0
  5 19  1  0
 19 20  2  0
 20 21  1  0
 21 22  1  0
 22 23  2  0
 23 24  1  0
 24 25  1  0
 25 26  1  0
 26 27  1  0
 27 28  1  0
 28 29  1  0
 23 30  1  0
 30 31  2  0
 30 32  1  0
 32 33  1  0
 32 34  1  0
 20  2  1  0
 34 21  2  0
 14  9  1  0
 29 24  1  0
  1 35  1  0
  1 36  1  0
  1 37  1  0
  3 38  1  0
  4 39  1  0
  6 40  1  0
 10 41  1  0
 12 42  1  0
 13 43  1  0
 19 44  1  0
 22 45  1  0
 25 46  1  0
 25 47  1  0
 26 48  1  0
 26 49  1  0
 28 50  1  0
 28 51  1  0
 29 52  1  0
 29 53  1  0
 33 54  1  0
 33 55  1  0
 33 56  1  0
 34 57  1  0
M  END
$$$$
[H]c1c([H])c(C([H])([H])n2nnc(C([H])([H])[H])c2C(=O)N([H])C2([H])C([H])([H])C([H])([H])C([H])([H])C2([H])[H])c(Cl)c([H])c1Cl
     RDKit          3D

 41 43  0  0  0  0  0  0  0  0999 V2000
    0.1163    4.2624    0.6295 C   0  0  0  0  0  0  0  0  0  0  0  0
    0.8983    3.0820    1.0821 C   0  0  0  0  0  0  0  0  0  0  0  0
    2.0778    3.1875    1.6928 N   0  0  0  0  0  0  0  0  0  0  0  0
    2.5097    2.0089    1.9609 N   0  0  0  0  0  0  0  0  0  0  0  0
    1.6075    1.0991    1.5230 N   0  0  0  0  0  0  0  0  0  0  0  0
    1.8198   -0.3363    1.6524 C   0  0  0  0  0  0  0  0  0  0  0  0
    2.6406   -0.8820    0.5417 C   0  0  0  0  0  0  0  0  0  0  0  0
    2.1028   -1.5002   -0.5846 C   0  0  0  0  0  0  0  0  0  0  0  0
    2.9117   -1.9692   -1.6047 C   0  0  0  0  0  0  0  0  0  0  0  0
    4.2795   -1.8329   -1.5252 C   0  0  0  0  0  0  0  0  0  0  0  0
    5.2858   -2.4339   -2.8314 Cl  0  0  0  0  0  0  0  0  0  0  0  0
    4.8585   -1.2290   -0.4295 C   0  0  0  0  0  0  0  0  0  0  0  0
    4.0319   -0.7662    0.5822 C   0  0  0  0  0  0  0  0  0  0  0  0
    4.7957   -0.0593    1.9865 Cl  0  0  0  0  0  0  0  0  0  0  0  0
    0.5738    1.7116    0.9635 C   0  0  0  0  0  0  0  0  0  0  0  0
   -0.6749    1.3049    0.3543 C   0  0  0  0  0  0  0  0  0  0  0  0
   -1.4377    2.2470   -0.1450 O   0  0  0  0  0  0  0  0  0  0  0  0
   -1.2369    0.0397    0.1989 N   0  0  0  0  0  0  0  0  0  0  0  0
   -2.5313   -0.1062   -0.4565 C   0  0  0  0  0  0  0  0  0  0  0  0
   -2.4102   -0.9414   -1.7421 C   0  0  0  0  0  0  0  0  0  0  0  0
   -3.8337   -1.4538   -1.9548 C   0  0  0  0  0  0  0  0  0  0  0  0
   -4.5877   -1.1913   -0.6725 C   0  0  0  0  0  0  0  0  0  0  0  0
   -3.4648   -0.9916    0.3323 C   0  0  0  0  0  0  0  0  0  0  0  0
   -0.8425    4.2294    1.1883 H   0  0  0  0  0  0  0  0  0  0  0  0
   -0.0370    4.2115   -0.4503 H   0  0  0  0  0  0  0  0  0  0  0  0
    0.6274    5.2033    0.9295 H   0  0  0  0  0  0  0  0  0  0  0  0
    2.4555   -0.4751    2.6175 H   0  0  0  0  0  0  0  0  0  0  0  0
    0.9139   -0.8989    1.7610 H   0  0  0  0  0  0  0  0  0  0  0  0
    1.0390   -1.6303   -0.6714 H   0  0  0  0  0  0  0  0  0  0  0  0
    2.4657   -2.4436   -2.4656 H   0  0  0  0  0  0  0  0  0  0  0  0
    5.9388   -1.1129   -0.3496 H   0  0  0  0  0  0  0  0  0  0  0  0
   -0.8155   -0.8218    0.5118 H   0  0  0  0  0  0  0  0  0  0  0  0
   -3.0253    0.8273   -0.6985 H   0  0  0  0  0  0  0  0  0  0  0  0
   -1.7080   -1.7838   -1.5890 H   0  0  0  0  0  0  0  0  0  0  0  0
   -2.1119   -0.2563   -2.5647 H   0  0  0  0  0  0  0  0  0  0  0  0
   -4.2812   -0.9425   -2.8345 H   0  0  0  0  0  0  0  0  0  0  0  0
   -3.8398   -2.5705   -2.1036 H   0  0  0  0  0  0  0  0  0  0  0  0
   -5.2478   -2.0329   -0.3824 H   0  0  0  0  0  0  0  0  0  0  0  0
   -5.1217   -0.2321   -0.7537 H   0  0  0  0  0  0  0  0  0  0  0  0
   -3.8046   -0.5567    1.2842 H   0  0  0  0  0  0  0  0  0  0  0  0
   -2.9375   -1.9635    0.4533 H   0  0  0  0  0  0  0  0  0  0  0  0
  1  2  1  0
  2  3  1  0
  3  4  2  0
  4  5  1  0
  5  6  1  0
  6  7  1  0
  7  8  2  0
  8  9  1  0
  9 10  2  0
 10 11  1  0
 10 12  1  0
 12 13  2  0
 13 14  1  0
  5 15  1  0
 15 16  1  0
 16 17  2  0
 16 18  1  0
 18 19  1  0
 19 20  1  0
 20 21  1  0
 21 22  1  0
 22 23  1  0
 15  2  2  0
 23 19  1  0
 13  7  1  0
  1 24  1  0
  1 25  1  0
  1 26  1  0
  6 27  1  0
  6 28  1  0
  8 29  1  0
  9 30  1  0
 12 31  1  0
 18 32  1  0
 19 33  1  0
 20 34  1  0
 20 35  1  0
 21 36  1  0
 21 37  1  0
 22 38  1  0
 22 39  1  0
 23 40  1  0
 23 41  1  0
M  END
$$$$
[H]C1=C(C(=O)[O-])N2C(=O)/C(=C(\[H])c3sc4c(c3[H])C([H])([H])N(C([H])([H])c3c([H])nc([H])c([H])c3[H])C([H])([H])C4([H])[H])[C@@]2([H])S1
     RDKit          3D

 44 48  0  0  0  0  0  0  0  0999 V2000
   -8.3413    0.2638    0.4226 O   0  0  0  0  0  0  0  0  0  0  0  0
   -7.5043   -0.7336   -0.0606 C   0  0  0  0  0  0  0  0  0  0  0  0
   -8.0362   -1.7874   -0.4794 O   0  0  0  0  0  0  0  0  0  0  0  0
   -6.0200   -0.5596   -0.0822 C   0  0  0  0  0  0  0  0  0  0  0  0
   -5.2783   -1.5277   -0.5522 C   0  0  0  0  0  0  0  0  0  0  0  0
   -3.5793   -0.9782   -0.4242 S   0  0  0  0  0  0  0  0  0  0  0  0
   -4.0237    0.7574   -0.1534 C   0  0  1  0  0  0  0  0  0  0  0  0
   -5.3833    0.5725    0.3842 N   0  0  0  0  0  0  0  0  0  0  0  0
   -5.1538    1.7626    1.0987 C   0  0  0  0  0  0  0  0  0  0  0  0
   -5.7263    2.7885    1.5381 O   0  0  0  0  0  0  0  0  0  0  0  0
   -3.7448    1.3067    1.1685 C   0  0  0  0  0  0  0  0  0  0  0  0
   -2.7434    1.3599    1.9909 C   0  0  0  0  0  0  0  0  0  0  0  0
   -1.4986    0.7279    1.5776 C   0  0  0  0  0  0  0  0  0  0  0  0
   -0.8374    0.7944    0.3882 C   0  0  0  0  0  0  0  0  0  0  0  0
    0.3060    0.0691    0.2861 C   0  0  0  0  0  0  0  0  0  0  0  0
    1.1938    0.0286   -0.9468 C   0  0  0  0  0  0  0  0  0  0  0  0
    2.0037   -1.0820   -1.0149 N   0  0  0  0  0  0  0  0  0  0  0  0
    3.2214   -0.9769   -1.7449 C   0  0  0  0  0  0  0  0  0  0  0  0
    4.2106   -0.0138   -1.2215 C   0  0  0  0  0  0  0  0  0  0  0  0
    5.1037   -0.4246   -0.2598 C   0  0  0  0  0  0  0  0  0  0  0  0
    6.0415    0.4234    0.2472 C   0  0  0  0  0  0  0  0  0  0  0  0
    6.0912    1.7224   -0.2183 C   0  0  0  0  0  0  0  0  0  0  0  0
    5.2077    2.0947   -1.1564 N   0  0  0  0  0  0  0  0  0  0  0  0
    4.2760    1.2745   -1.6687 C   0  0  0  0  0  0  0  0  0  0  0  0
    2.0097   -2.0686    0.0079 C   0  0  0  0  0  0  0  0  0  0  0  0
    1.9141   -1.5160    1.3988 C   0  0  0  0  0  0  0  0  0  0  0  0
    0.6828   -0.6563    1.3784 C   0  0  0  0  0  0  0  0  0  0  0  0
   -0.5400   -0.3175    2.5075 S   0  0  0  0  0  0  0  0  0  0  0  0
   -5.5809   -2.4984   -0.9529 H   0  0  0  0  0  0  0  0  0  0  0  0
   -3.9987    1.4068   -1.0265 H   0  0  0  0  0  0  0  0  0  0  0  0
   -2.8692    1.8649    2.9346 H   0  0  0  0  0  0  0  0  0  0  0  0
   -1.2717    1.4367   -0.4206 H   0  0  0  0  0  0  0  0  0  0  0  0
    1.7553    0.9812   -0.9786 H   0  0  0  0  0  0  0  0  0  0  0  0
    0.5514    0.0614   -1.8790 H   0  0  0  0  0  0  0  0  0  0  0  0
    3.6579   -2.0182   -1.8112 H   0  0  0  0  0  0  0  0  0  0  0  0
    3.0081   -0.7251   -2.8172 H   0  0  0  0  0  0  0  0  0  0  0  0
    5.0639   -1.4502    0.1070 H   0  0  0  0  0  0  0  0  0  0  0  0
    6.7431    0.0742    1.0120 H   0  0  0  0  0  0  0  0  0  0  0  0
    6.8449    2.3773    0.1984 H   0  0  0  0  0  0  0  0  0  0  0  0
    3.5708    1.6052   -2.4276 H   0  0  0  0  0  0  0  0  0  0  0  0
    1.1830   -2.7953   -0.1369 H   0  0  0  0  0  0  0  0  0  0  0  0
    2.9577   -2.6361   -0.0600 H   0  0  0  0  0  0  0  0  0  0  0  0
    2.7793   -0.9831    1.7722 H   0  0  0  0  0  0  0  0  0  0  0  0
    1.7536   -2.3988    2.0748 H   0  0  0  0  0  0  0  0  0  0  0  0
  1  2  1  0
  2  3  2  0
  2  4  1  0
  4  5  2  0
  5  6  1  0
  6  7  1  0
  7  8  1  0
  8  9  1  0
  9 10  2  0
  9 11  1  0
 11 12  2  0
 12 13  1  0
 13 14  2  0
 14 15  1  0
 15 16  1  0
 16 17  1  0
 17 18  1  0
 18 19  1  0
 19 20  2  0
 20 21  1  0
 21 22  2  0
 22 23  1  0
 23 24  2  0
 17 25  1  0
 25 26  1  0
 26 27  1  0
 27 28  1  0
  8  4  1  0
 28 13  1  0
 11  7  1  0
 27 15  2  0
 24 19  1  0
  5 29  1  0
  7 30  1  6
 12 31  1  0
 14 32  1  0
 16 33  1  0
 16 34  1  0
 18 35  1  0
 18 36  1  0
 20 37  1  0
 21 38  1  0
 22 39  1  0
 24 40  1  0
 25 41  1  0
 25 42  1  0
 26 43  1  0
 26 44  1  0
M  CHG  1   1  -1
M  END
$$$$
[H]c1nc2c(c([H])c(N3C(=O)O[C@@]([H])(C([H])([H])[H])[C@]3([H])C3([H])C([H])([H])C3([H])[H])n2[H])c(-c2c([H])c([H])c([H])c(OC([H])([H])C([H])(F)F)c2[H])c1[H]
     RDKit          3D

 51 55  0  0  0  0  0  0  0  0999 V2000
   -6.3080   -0.2198    0.1684 C   0  0  0  0  0  0  0  0  0  0  0  0
   -5.1347    0.0872   -0.7535 C   0  0  2  0  0  0  0  0  0  0  0  0
   -4.8548   -1.1102   -1.4861 O   0  0  0  0  0  0  0  0  0  0  0  0
   -3.8724   -1.7701   -0.7621 C   0  0  0  0  0  0  0  0  0  0  0  0
   -3.6309   -2.9984   -0.8696 O   0  0  0  0  0  0  0  0  0  0  0  0
   -3.2011   -0.8571    0.0977 N   0  0  0  0  0  0  0  0  0  0  0  0
   -3.9117    0.3956    0.0436 C   0  0  1  0  0  0  0  0  0  0  0  0
   -3.0321    1.4497   -0.5424 C   0  0  0  0  0  0  0  0  0  0  0  0
   -3.7242    2.8196   -0.7183 C   0  0  0  0  0  0  0  0  0  0  0  0
   -3.1902    1.9906   -1.8922 C   0  0  0  0  0  0  0  0  0  0  0  0
   -2.0205   -1.1835    0.8647 C   0  0  0  0  0  0  0  0  0  0  0  0
   -0.7084   -1.0145    0.4782 C   0  0  0  0  0  0  0  0  0  0  0  0
    0.1174   -1.4474    1.4911 C   0  0  0  0  0  0  0  0  0  0  0  0
    1.4889   -1.5110    1.6535 C   0  0  0  0  0  0  0  0  0  0  0  0
    2.0635   -2.0092    2.8262 C   0  0  0  0  0  0  0  0  0  0  0  0
    1.1917   -2.4313    3.8054 C   0  0  0  0  0  0  0  0  0  0  0  0
   -0.1444   -2.3676    3.6424 N   0  0  0  0  0  0  0  0  0  0  0  0
   -0.7164   -1.8909    2.5206 C   0  0  0  0  0  0  0  0  0  0  0  0
   -1.9792   -1.7125    2.0978 N   0  0  0  0  0  0  0  0  0  0  0  0
    2.3532   -1.0586    0.5748 C   0  0  0  0  0  0  0  0  0  0  0  0
    2.1969   -1.4327   -0.7414 C   0  0  0  0  0  0  0  0  0  0  0  0
    3.0694   -0.9464   -1.7225 C   0  0  0  0  0  0  0  0  0  0  0  0
    4.0942   -0.0936   -1.4098 C   0  0  0  0  0  0  0  0  0  0  0  0
    4.2539    0.2825   -0.0948 C   0  0  0  0  0  0  0  0  0  0  0  0
    5.3031    1.1517    0.2061 O   0  0  0  0  0  0  0  0  0  0  0  0
    6.1725    1.6366   -0.7703 C   0  0  0  0  0  0  0  0  0  0  0  0
    7.1862    2.5517   -0.0886 C   0  0  0  0  0  0  0  0  0  0  0  0
    7.8857    1.8550    0.8510 F   0  0  0  0  0  0  0  0  0  0  0  0
    8.0551    3.0832   -1.0345 F   0  0  0  0  0  0  0  0  0  0  0  0
    3.3964   -0.1969    0.8616 C   0  0  0  0  0  0  0  0  0  0  0  0
   -6.0590    0.1050    1.2103 H   0  0  0  0  0  0  0  0  0  0  0  0
   -7.1671    0.4058   -0.1481 H   0  0  0  0  0  0  0  0  0  0  0  0
   -6.6007   -1.2678    0.1101 H   0  0  0  0  0  0  0  0  0  0  0  0
   -5.4031    0.8487   -1.5025 H   0  0  0  0  0  0  0  0  0  0  0  0
   -4.2344    0.6258    1.0844 H   0  0  0  0  0  0  0  0  0  0  0  0
   -2.0040    1.4872   -0.0912 H   0  0  0  0  0  0  0  0  0  0  0  0
   -3.1538    3.7193   -0.4265 H   0  0  0  0  0  0  0  0  0  0  0  0
   -4.8277    2.8398   -0.6145 H   0  0  0  0  0  0  0  0  0  0  0  0
   -2.2713    2.4382   -2.3723 H   0  0  0  0  0  0  0  0  0  0  0  0
   -3.9058    1.6382   -2.6363 H   0  0  0  0  0  0  0  0  0  0  0  0
   -0.3596   -0.6130   -0.4480 H   0  0  0  0  0  0  0  0  0  0  0  0
    3.1224   -2.0244    2.8723 H   0  0  0  0  0  0  0  0  0  0  0  0
    1.6277   -2.8255    4.7329 H   0  0  0  0  0  0  0  0  0  0  0  0
   -2.8293   -1.9580    2.6653 H   0  0  0  0  0  0  0  0  0  0  0  0
    1.4045   -2.1009   -0.9983 H   0  0  0  0  0  0  0  0  0  0  0  0
    2.9515   -1.2355   -2.7545 H   0  0  0  0  0  0  0  0  0  0  0  0
    4.7500    0.2633   -2.1921 H   0  0  0  0  0  0  0  0  0  0  0  0
    5.5984    2.2341   -1.5229 H   0  0  0  0  0  0  0  0  0  0  0  0
    6.7667    0.8498   -1.2758 H   0  0  0  0  0  0  0  0  0  0  0  0
    6.6608    3.4077    0.3909 H   0  0  0  0  0  0  0  0  0  0  0  0
    3.5347    0.1103    1.9049 H   0  0  0  0  0  0  0  0  0  0  0  0
  1  2  1  0
  2  3  1  0
  3  4  1  0
  4  5  2  0
  4  6  1  0
  6  7  1  0
  7  8  1  0
  8  9  1  0
  9 10  1  0
  6 11  1  0
 11 12  2  0
 12 13  1  0
 13 14  2  0
 14 15  1  0
 15 16  2  0
 16 17  1  0
 17 18  2  0
 18 19  1  0
 14 20  1  0
 20 21  2  0
 21 22  1  0
 22 23  2  0
 23 24  1  0
 24 25  1  0
 25 26  1  0
 26 27  1  0
 27 28  1  0
 27 29  1  0
 24 30  2  0
  7  2  1  0
 10  8  1  0
 19 11  1  0
 30 20  1  0
 18 13  1  0
  1 31  1  0
  1 32  1  0
  1 33  1  0
  2 34  1  6
  7 35  1  1
  8 36  1  0
  9 37  1  0
  9 38  1  0
 10 39  1  0
 10 40  1  0
 12 41  1  0
 15 42  1  0
 16 43  1  0
 19 44  1  0
 21 45  1  0
 22 46  1  0
 23 47  1  0
 26 48  1  0
 26 49  1  0
 27 50  1  0
 30 51  1  0
M  END
$$$$
[H]N1[C@@]2([H])C([H])([H])C([H])([H])[C@]1([H])C([H])([H])[C@]([H])(N1C([H])([H])C([H])([H])C([H])(C(=O)[O-])C([H])([H])C1([H])[H])C2([H])[H]
     RDKit          3D

 38 40  0  0  0  0  0  0  0  0999 V2000
    4.8753    1.0647   -1.0051 O   0  0  0  0  0  0  0  0  0  0  0  0
    4.7267   -0.1200   -0.3091 C   0  0  0  0  0  0  0  0  0  0  0  0
    5.7449   -0.7366    0.0722 O   0  0  0  0  0  0  0  0  0  0  0  0
    3.3858   -0.6408   -0.0262 C   0  0  0  0  0  0  0  0  0  0  0  0
    2.4218   -0.0064   -1.0084 C   0  0  0  0  0  0  0  0  0  0  0  0
    0.9991   -0.4544   -0.7551 C   0  0  0  0  0  0  0  0  0  0  0  0
    0.7465   -0.3794    0.6612 N   0  0  0  0  0  0  0  0  0  0  0  0
    1.6884    0.4610    1.3571 C   0  0  0  0  0  0  0  0  0  0  0  0
    3.0084   -0.3038    1.3894 C   0  0  0  0  0  0  0  0  0  0  0  0
   -0.6248   -0.0773    0.9767 C   0  0  2  0  0  0  0  0  0  0  0  0
   -1.4854   -1.1935    0.4479 C   0  0  0  0  0  0  0  0  0  0  0  0
   -2.9595   -0.9045    0.6003 C   0  0  2  0  0  0  0  0  0  0  0  0
   -3.5578   -0.5420   -0.7419 C   0  0  0  0  0  0  0  0  0  0  0  0
   -2.9222    0.8059   -0.9942 C   0  0  0  0  0  0  0  0  0  0  0  0
   -2.5737    1.2958    0.3774 C   0  0  2  0  0  0  0  0  0  0  0  0
   -1.0646    1.2898    0.5778 C   0  0  0  0  0  0  0  0  0  0  0  0
   -3.1289    0.3432    1.3218 N   0  0  0  0  0  0  0  0  0  0  0  0
    3.3428   -1.7425   -0.2419 H   0  0  0  0  0  0  0  0  0  0  0  0
    2.5361    1.0770   -1.0106 H   0  0  0  0  0  0  0  0  0  0  0  0
    2.6964   -0.3904   -2.0151 H   0  0  0  0  0  0  0  0  0  0  0  0
    0.9812   -1.5529   -1.0149 H   0  0  0  0  0  0  0  0  0  0  0  0
    0.3315    0.1273   -1.3863 H   0  0  0  0  0  0  0  0  0  0  0  0
    1.8616    1.4411    0.8810 H   0  0  0  0  0  0  0  0  0  0  0  0
    1.3404    0.6090    2.3865 H   0  0  0  0  0  0  0  0  0  0  0  0
    3.7793    0.2244    1.9498 H   0  0  0  0  0  0  0  0  0  0  0  0
    2.7544   -1.2830    1.8939 H   0  0  0  0  0  0  0  0  0  0  0  0
   -0.7045   -0.1354    2.1009 H   0  0  0  0  0  0  0  0  0  0  0  0
   -1.2433   -1.4733   -0.5856 H   0  0  0  0  0  0  0  0  0  0  0  0
   -1.2694   -2.0927    1.0733 H   0  0  0  0  0  0  0  0  0  0  0  0
   -3.5012   -1.7429    1.0824 H   0  0  0  0  0  0  0  0  0  0  0  0
   -4.6399   -0.3562   -0.5903 H   0  0  0  0  0  0  0  0  0  0  0  0
   -3.3482   -1.2760   -1.5290 H   0  0  0  0  0  0  0  0  0  0  0  0
   -3.5978    1.4902   -1.5453 H   0  0  0  0  0  0  0  0  0  0  0  0
   -2.0028    0.6239   -1.5910 H   0  0  0  0  0  0  0  0  0  0  0  0
   -3.0156    2.2890    0.5434 H   0  0  0  0  0  0  0  0  0  0  0  0
   -0.5245    1.7142   -0.2934 H   0  0  0  0  0  0  0  0  0  0  0  0
   -0.8840    2.0190    1.4206 H   0  0  0  0  0  0  0  0  0  0  0  0
   -4.1726    0.5285    1.3282 H   0  0  0  0  0  0  0  0  0  0  0  0
  1  2  1  0
  2  3  2  0
  2  4  1  0
  4  5  1  0
  5  6  1  0
  6  7  1  0
  7  8  1  0
  8  9  1  0
  7 10  1  0
 10 11  1  0
 11 12  1  0
 12 13  1  0
 13 14  1  0
 14 15  1  0
 15 16  1  0
 15 17  1  0
  9  4  1  0
 16 10  1  0
 17 12  1  0
  4 18  1  0
  5 19  1  0
  5 20  1  0
  6 21  1  0
  6 22  1  0
  8 23  1  0
  8 24  1  0
  9 25  1  0
  9 26  1  0
 10 27  1  1
 11 28  1  0
 11 29  1  0
 12 30  1  1
 13 31  1  0
 13 32  1  0
 14 33  1  0
 14 34  1  0
 15 35  1  1
 16 36  1  0
 16 37  1  0
 17 38  1  0
M  CHG  1   1  -1
M  END
$$$$
[H]O[C@]([H])(C([H])([H])[H])[C@@]([H])(C(=O)N([H])[C@]([H])(C(=O)C([H])([H])C([H])([H])C([H])([H])C([H])([H])C([H])([H])C([H])([H])C([H])([H])C#N)C([H])([H])C([H])([H])c1c([H])c([H])c([H])c([H])c1[H])N([H])C(=O)OC([H])([H])c1c([H])c([H])c([H])c([H])c1[H]
     RDKit          3D

 77 78  0  0  0  0  0  0  0  0999 V2000
   -2.2758   -0.5710   -2.3719 C   0  0  0  0  0  0  0  0  0  0  0  0
   -1.5849   -1.3657   -1.2473 C   0  0  1  0  0  0  0  0  0  0  0  0
   -0.2761   -1.3258   -1.3094 O   0  0  0  0  0  0  0  0  0  0  0  0
   -2.1278   -0.5888    0.0337 C   0  0  2  0  0  0  0  0  0  0  0  0
   -3.4968   -0.7538   -0.0396 N   0  0  0  0  0  0  0  0  0  0  0  0
   -4.7879   -0.3543    0.2053 C   0  0  0  0  0  0  0  0  0  0  0  0
   -5.1235    0.7463    0.8234 O   0  0  0  0  0  0  0  0  0  0  0  0
   -5.8881   -1.0426   -0.1807 O   0  0  0  0  0  0  0  0  0  0  0  0
   -6.9770   -1.5994   -0.4820 C   0  0  0  0  0  0  0  0  0  0  0  0
   -8.0295   -2.2281    0.3359 C   0  0  0  0  0  0  0  0  0  0  0  0
   -9.0599   -1.5086    0.8616 C   0  0  0  0  0  0  0  0  0  0  0  0
  -10.0618   -2.1438    1.5310 C   0  0  0  0  0  0  0  0  0  0  0  0
  -10.0214   -3.5347    1.6748 C   0  0  0  0  0  0  0  0  0  0  0  0
   -8.9664   -4.2564    1.1388 C   0  0  0  0  0  0  0  0  0  0  0  0
   -7.9668   -3.6307    0.4719 C   0  0  0  0  0  0  0  0  0  0  0  0
   -1.5374    0.7829   -0.1704 C   0  0  0  0  0  0  0  0  0  0  0  0
   -2.1886    1.7928   -0.4723 O   0  0  0  0  0  0  0  0  0  0  0  0
   -0.1056    0.9277   -0.0154 N   0  0  0  0  0  0  0  0  0  0  0  0
    0.7322    2.0226   -0.2440 C   0  0  1  0  0  0  0  0  0  0  0  0
    1.3399    3.0173    0.6743 C   0  0  0  0  0  0  0  0  0  0  0  0
    1.9163    4.0654   -0.2799 C   0  0  0  0  0  0  0  0  0  0  0  0
    2.4434    5.2890    0.2262 C   0  0  0  0  0  0  0  0  0  0  0  0
    3.7679    5.6735    0.1462 C   0  0  0  0  0  0  0  0  0  0  0  0
    4.1546    6.8873    0.5846 C   0  0  0  0  0  0  0  0  0  0  0  0
    3.2335    7.7780    1.1178 C   0  0  0  0  0  0  0  0  0  0  0  0
    1.9167    7.3939    1.1982 C   0  0  0  0  0  0  0  0  0  0  0  0
    1.5214    6.1928    0.7708 C   0  0  0  0  0  0  0  0  0  0  0  0
    1.8449    1.4072   -1.1369 C   0  0  0  0  0  0  0  0  0  0  0  0
    1.8256    1.4667   -2.2940 O   0  0  0  0  0  0  0  0  0  0  0  0
    2.9447    0.6721   -0.3872 C   0  0  0  0  0  0  0  0  0  0  0  0
    3.2790   -0.4961   -1.3099 C   0  0  0  0  0  0  0  0  0  0  0  0
    3.9867   -1.6068   -0.7529 C   0  0  0  0  0  0  0  0  0  0  0  0
    5.3285   -1.6514   -0.1647 C   0  0  0  0  0  0  0  0  0  0  0  0
    5.5533   -3.1441    0.1557 C   0  0  0  0  0  0  0  0  0  0  0  0
    6.9096   -3.3602    0.7552 C   0  0  0  0  0  0  0  0  0  0  0  0
    7.0868   -4.8778    0.9857 C   0  0  0  0  0  0  0  0  0  0  0  0
    6.9790   -5.5500   -0.3140 C   0  0  0  0  0  0  0  0  0  0  0  0
    6.8766   -6.0822   -1.3584 N   0  0  0  0  0  0  0  0  0  0  0  0
   -2.8592   -1.2391   -3.0265 H   0  0  0  0  0  0  0  0  0  0  0  0
   -3.0494    0.1297   -1.9470 H   0  0  0  0  0  0  0  0  0  0  0  0
   -1.5332    0.0634   -2.8780 H   0  0  0  0  0  0  0  0  0  0  0  0
   -1.9476   -2.4089   -1.1474 H   0  0  0  0  0  0  0  0  0  0  0  0
    0.0099   -0.8522   -2.1340 H   0  0  0  0  0  0  0  0  0  0  0  0
   -1.7141   -1.0634    0.9233 H   0  0  0  0  0  0  0  0  0  0  0  0
   -3.5826   -1.8850   -0.4812 H   0  0  0  0  0  0  0  0  0  0  0  0
   -6.6608   -2.4640   -1.2408 H   0  0  0  0  0  0  0  0  0  0  0  0
   -7.5741   -0.9877   -1.3160 H   0  0  0  0  0  0  0  0  0  0  0  0
   -9.0900   -0.4145    0.7614 H   0  0  0  0  0  0  0  0  0  0  0  0
  -10.8890   -1.5983    1.9739 H   0  0  0  0  0  0  0  0  0  0  0  0
  -10.8030   -4.0331    2.2100 H   0  0  0  0  0  0  0  0  0  0  0  0
   -8.9293   -5.3421    1.2454 H   0  0  0  0  0  0  0  0  0  0  0  0
   -7.0891   -4.1403    0.0586 H   0  0  0  0  0  0  0  0  0  0  0  0
    0.3360    0.0162    0.4023 H   0  0  0  0  0  0  0  0  0  0  0  0
    0.1689    2.7260   -1.0334 H   0  0  0  0  0  0  0  0  0  0  0  0
    0.5268    3.5486    1.2631 H   0  0  0  0  0  0  0  0  0  0  0  0
    2.1041    2.6269    1.3817 H   0  0  0  0  0  0  0  0  0  0  0  0
    1.1111    4.1975   -1.0702 H   0  0  0  0  0  0  0  0  0  0  0  0
    2.7344    3.4986   -0.8545 H   0  0  0  0  0  0  0  0  0  0  0  0
    4.5055    4.9433   -0.2798 H   0  0  0  0  0  0  0  0  0  0  0  0
    5.2246    7.1535    0.4904 H   0  0  0  0  0  0  0  0  0  0  0  0
    3.4792    8.7546    1.4723 H   0  0  0  0  0  0  0  0  0  0  0  0
    1.1864    8.0936    1.6171 H   0  0  0  0  0  0  0  0  0  0  0  0
    0.4678    5.8949    0.8442 H   0  0  0  0  0  0  0  0  0  0  0  0
    2.6329    0.3314    0.6186 H   0  0  0  0  0  0  0  0  0  0  0  0
    3.8044    1.3425   -0.3039 H   0  0  0  0  0  0  0  0  0  0  0  0
    3.8919   -0.0293   -2.1868 H   0  0  0  0  0  0  0  0  0  0  0  0
    2.3502   -0.8175   -1.8585 H   0  0  0  0  0  0  0  0  0  0  0  0
    3.2794   -2.1161    0.0455 H   0  0  0  0  0  0  0  0  0  0  0  0
    3.9149   -2.4893   -1.5386 H   0  0  0  0  0  0  0  0  0  0  0  0
    6.1537   -1.3246   -0.8038 H   0  0  0  0  0  0  0  0  0  0  0  0
    5.4142   -1.0836    0.7830 H   0  0  0  0  0  0  0  0  0  0  0  0
    5.4247   -3.7169   -0.7832 H   0  0  0  0  0  0  0  0  0  0  0  0
    4.7565   -3.5299    0.8608 H   0  0  0  0  0  0  0  0  0  0  0  0
    7.7225   -3.0142    0.1477 H   0  0  0  0  0  0  0  0  0  0  0  0
    6.9821   -2.8946    1.7836 H   0  0  0  0  0  0  0  0  0  0  0  0
    6.2959   -5.2798    1.6363 H   0  0  0  0  0  0  0  0  0  0  0  0
    8.0779   -5.0393    1.3902 H   0  0  0  0  0  0  0  0  0  0  0  0
  1  2  1  0
  2  3  1  0
  2  4  1  0
  4  5  1  0
  5  6  1  0
  6  7  2  0
  6  8  1  0
  8  9  1  0
  9 10  1  0
 10 11  2  0
 11 12  1  0
 12 13  2  0
 13 14  1  0
 14 15  2  0
  4 16  1  0
 16 17  2  0
 16 18  1  0
 18 19  1  0
 19 20  1  0
 20 21  1  0
 21 22  1  0
 22 23  2  0
 23 24  1  0
 24 25  2  0
 25 26  1  0
 26 27  2  0
 19 28  1  0
 28 29  2  0
 28 30  1  0
 30 31  1  0
 31 32  1  0
 32 33  1  0
 33 34  1  0
 34 35  1  0
 35 36  1  0
 36 37  1  0
 37 38  3  0
 15 10  1  0
 27 22  1  0
  1 39  1  0
  1 40  1  0
  1 41  1  0
  2 42  1  1
  3 43  1  0
  4 44  1  1
  5 45  1  0
  9 46  1  0
  9 47  1  0
 11 48  1  0
 12 49  1  0
 13 50  1  0
 14 51  1  0
 15 52  1  0
 18 53  1  0
 19 54  1  6
 20 55  1  0
 20 56  1  0
 21 57  1  0
 21 58  1  0
 23 59  1  0
 24 60  1  0
 25 61  1  0
 26 62  1  0
 27 63  1  0
 30 64  1  0
 30 65  1  0
 31 66  1  0
 31 67  1  0
 32 68  1  0
 32 69  1  0
 33 70  1  0
 33 71  1  0
 34 72  1  0
 34 73  1  0
 35 74  1  0
 35 75  1  0
 36 76  1  0
 36 77  1  0
M  END
$$$$
[H]c1nc([H])c(C(=O)N2C([H])([H])C([H])([H])N(C(=O)C([H])([H])[H])C([H])([H])C2([H])[H])c([H])c1Oc1c([H])c([H])c(N([H])C(=O)c2c([H])c([H])c([H])c([H])c2[H])c([H])c1[H]
     RDKit          3D

 57 60  0  0  0  0  0  0  0  0999 V2000
    5.7925   -0.8542    3.5909 C   0  0  0  0  0  0  0  0  0  0  0  0
    5.6909    0.5059    2.9747 C   0  0  0  0  0  0  0  0  0  0  0  0
    5.8888    1.5082    3.6979 O   0  0  0  0  0  0  0  0  0  0  0  0
    5.3809    0.6732    1.6139 N   0  0  0  0  0  0  0  0  0  0  0  0
    5.1475   -0.4461    0.7559 C   0  0  0  0  0  0  0  0  0  0  0  0
    4.0761   -0.1133   -0.3122 C   0  0  0  0  0  0  0  0  0  0  0  0
    4.3576    1.1066   -0.9849 N   0  0  0  0  0  0  0  0  0  0  0  0
    5.5545    1.8290   -0.4488 C   0  0  0  0  0  0  0  0  0  0  0  0
    5.2923    2.0034    1.0520 C   0  0  0  0  0  0  0  0  0  0  0  0
    3.7062    1.7265   -2.0453 C   0  0  0  0  0  0  0  0  0  0  0  0
    4.2498    2.8634   -2.4237 O   0  0  0  0  0  0  0  0  0  0  0  0
    2.5436    1.2887   -2.7588 C   0  0  0  0  0  0  0  0  0  0  0  0
    2.0894    2.1050   -3.8186 C   0  0  0  0  0  0  0  0  0  0  0  0
    1.0097    1.7767   -4.5386 N   0  0  0  0  0  0  0  0  0  0  0  0
    0.2734    0.6759   -4.3343 C   0  0  0  0  0  0  0  0  0  0  0  0
    0.6712   -0.1527   -3.3160 C   0  0  0  0  0  0  0  0  0  0  0  0
   -0.0544   -1.3207   -3.0489 O   0  0  0  0  0  0  0  0  0  0  0  0
   -1.1136   -1.1916   -2.1270 C   0  0  0  0  0  0  0  0  0  0  0  0
   -2.3819   -0.8772   -2.5410 C   0  0  0  0  0  0  0  0  0  0  0  0
   -3.4486   -0.7406   -1.6760 C   0  0  0  0  0  0  0  0  0  0  0  0
   -3.2656   -0.9226   -0.3228 C   0  0  0  0  0  0  0  0  0  0  0  0
   -4.2450   -0.8393    0.6694 N   0  0  0  0  0  0  0  0  0  0  0  0
   -5.6426   -0.8006    0.5305 C   0  0  0  0  0  0  0  0  0  0  0  0
   -6.1656   -0.8468   -0.6037 O   0  0  0  0  0  0  0  0  0  0  0  0
   -6.5493   -0.7068    1.6681 C   0  0  0  0  0  0  0  0  0  0  0  0
   -7.9350   -0.7319    1.4808 C   0  0  0  0  0  0  0  0  0  0  0  0
   -8.8430   -0.6480    2.4921 C   0  0  0  0  0  0  0  0  0  0  0  0
   -8.4042   -0.5304    3.7903 C   0  0  0  0  0  0  0  0  0  0  0  0
   -7.0493   -0.5014    4.0244 C   0  0  0  0  0  0  0  0  0  0  0  0
   -6.1339   -0.5888    2.9727 C   0  0  0  0  0  0  0  0  0  0  0  0
   -1.9617   -1.2441    0.0897 C   0  0  0  0  0  0  0  0  0  0  0  0
   -0.9091   -1.3768   -0.7820 C   0  0  0  0  0  0  0  0  0  0  0  0
    1.7961    0.1642   -2.5459 C   0  0  0  0  0  0  0  0  0  0  0  0
    6.4956   -0.7942    4.4468 H   0  0  0  0  0  0  0  0  0  0  0  0
    4.8208   -1.2498    3.9014 H   0  0  0  0  0  0  0  0  0  0  0  0
    6.2426   -1.5548    2.8345 H   0  0  0  0  0  0  0  0  0  0  0  0
    6.0625   -0.7303    0.2180 H   0  0  0  0  0  0  0  0  0  0  0  0
    4.7855   -1.3489    1.2891 H   0  0  0  0  0  0  0  0  0  0  0  0
    3.1196   -0.1530    0.2405 H   0  0  0  0  0  0  0  0  0  0  0  0
    4.1915   -0.9613   -1.0378 H   0  0  0  0  0  0  0  0  0  0  0  0
    6.4130    1.1324   -0.5324 H   0  0  0  0  0  0  0  0  0  0  0  0
    5.6828    2.7816   -0.9630 H   0  0  0  0  0  0  0  0  0  0  0  0
    4.2713    2.4150    1.1911 H   0  0  0  0  0  0  0  0  0  0  0  0
    6.0537    2.6898    1.4524 H   0  0  0  0  0  0  0  0  0  0  0  0
    2.6532    3.0164   -4.0296 H   0  0  0  0  0  0  0  0  0  0  0  0
   -0.5947    0.4348   -4.9315 H   0  0  0  0  0  0  0  0  0  0  0  0
   -2.5627   -0.7275   -3.5965 H   0  0  0  0  0  0  0  0  0  0  0  0
   -4.4439   -0.4774   -2.0655 H   0  0  0  0  0  0  0  0  0  0  0  0
   -3.9021   -0.7927    1.6737 H   0  0  0  0  0  0  0  0  0  0  0  0
   -8.3028   -0.8243    0.4617 H   0  0  0  0  0  0  0  0  0  0  0  0
   -9.9002   -0.6757    2.2514 H   0  0  0  0  0  0  0  0  0  0  0  0
   -9.1402   -0.4647    4.5843 H   0  0  0  0  0  0  0  0  0  0  0  0
   -6.6810   -0.4079    5.0565 H   0  0  0  0  0  0  0  0  0  0  0  0
   -5.0844   -0.5586    3.2336 H   0  0  0  0  0  0  0  0  0  0  0  0
   -1.7511   -1.4002    1.1380 H   0  0  0  0  0  0  0  0  0  0  0  0
    0.0988   -1.6264   -0.4519 H   0  0  0  0  0  0  0  0  0  0  0  0
    2.0547   -0.5150   -1.7692 H   0  0  0  0  0  0  0  0  0  0  0  0
  1  2  1  0
  2  3  2  0
  2  4  1  0
  4  5  1  0
  5  6  1  0
  6  7  1  0
  7  8  1  0
  8  9  1  0
  7 10  1  0
 10 11  2  0
 10 12  1  0
 12 13  2  0
 13 14  1  0
 14 15  2  0
 15 16  1  0
 16 17  1  0
 17 18  1  0
 18 19  2  0
 19 20  1  0
 20 21  2  0
 21 22  1  0
 22 23  1  0
 23 24  2  0
 23 25  1  0
 25 26  2  0
 26 27  1  0
 27 28  2  0
 28 29  1  0
 29 30  2  0
 21 31  1  0
 31 32  2  0
 16 33  2  0
  9  4  1  0
 33 12  1  0
 32 18  1  0
 30 25  1  0
  1 34  1  0
  1 35  1  0
  1 36  1  0
  5 37  1  0
  5 38  1  0
  6 39  1  0
  6 40  1  0
  8 41  1  0
  8 42  1  0
  9 43  1  0
  9 44  1  0
 13 45  1  0
 15 46  1  0
 19 47  1  0
 20 48  1  0
 22 49  1  0
 26 50  1  0
 27 51  1  0
 28 52  1  0
 29 53  1  0
 30 54  1  0
 31 55  1  0
 32 56  1  0
 33 57  1  0
M  END
$$$$
[H]C([H])([H])N1C(=O)C([H])(OC(=O)C2([H])C([H])([H])C3([H])C([H])([H])C([H])([H])C2(C([H])([H])[H])C3(C([H])([H])[H])C([H])([H])[H])C([H])([H])C([H])([H])C([H])([H])C1([H])[H]
     RDKit          3D

 51 53  0  0  0  0  0  0  0  0999 V2000
   -4.1620   -1.5618   -0.0041 C   0  0  0  0  0  0  0  0  0  0  0  0
   -3.2787   -0.3992    0.3145 C   0  0  0  0  0  0  0  0  0  0  0  0
   -2.9053   -0.4505    1.7466 C   0  0  0  0  0  0  0  0  0  0  0  0
   -3.9283    0.9306   -0.1048 C   0  0  0  0  0  0  0  0  0  0  0  0
   -4.0332    0.6760   -1.6089 C   0  0  0  0  0  0  0  0  0  0  0  0
   -2.8781   -0.2345   -1.9706 C   0  0  0  0  0  0  0  0  0  0  0  0
   -2.1018   -0.2707   -0.6462 C   0  0  0  0  0  0  0  0  0  0  0  0
   -1.1243   -1.3479   -0.5649 C   0  0  0  0  0  0  0  0  0  0  0  0
   -1.6147    1.1252   -0.4702 C   0  0  0  0  0  0  0  0  0  0  0  0
   -0.3800    1.2957    0.2787 C   0  0  0  0  0  0  0  0  0  0  0  0
   -0.3949    1.9884    1.3300 O   0  0  0  0  0  0  0  0  0  0  0  0
    0.7980    0.7348   -0.1117 O   0  0  0  0  0  0  0  0  0  0  0  0
    2.0316    0.8858    0.6067 C   0  0  0  0  0  0  0  0  0  0  0  0
    2.9661    1.5968   -0.3732 C   0  0  0  0  0  0  0  0  0  0  0  0
    4.3357    1.7942    0.1776 C   0  0  0  0  0  0  0  0  0  0  0  0
    5.2092    0.5881    0.1746 C   0  0  0  0  0  0  0  0  0  0  0  0
    4.6277   -0.6170   -0.4838 C   0  0  0  0  0  0  0  0  0  0  0  0
    3.5736   -1.1944    0.3512 N   0  0  0  0  0  0  0  0  0  0  0  0
    3.6235   -2.6186    0.5775 C   0  0  0  0  0  0  0  0  0  0  0  0
    2.5243   -0.4581    0.9420 C   0  0  0  0  0  0  0  0  0  0  0  0
    1.9366   -1.0341    1.8796 O   0  0  0  0  0  0  0  0  0  0  0  0
   -2.7877    1.8691    0.1778 C   0  0  0  0  0  0  0  0  0  0  0  0
   -5.1080   -1.1528   -0.4582 H   0  0  0  0  0  0  0  0  0  0  0  0
   -4.5172   -2.0712    0.9403 H   0  0  0  0  0  0  0  0  0  0  0  0
   -3.7229   -2.3319   -0.6255 H   0  0  0  0  0  0  0  0  0  0  0  0
   -3.4537    0.3695    2.2972 H   0  0  0  0  0  0  0  0  0  0  0  0
   -1.8300   -0.4443    1.9640 H   0  0  0  0  0  0  0  0  0  0  0  0
   -3.2949   -1.3894    2.2446 H   0  0  0  0  0  0  0  0  0  0  0  0
   -4.8562    1.1359    0.3831 H   0  0  0  0  0  0  0  0  0  0  0  0
   -5.0082    0.2902   -1.8969 H   0  0  0  0  0  0  0  0  0  0  0  0
   -3.8232    1.6631   -2.1051 H   0  0  0  0  0  0  0  0  0  0  0  0
   -3.1723   -1.2161   -2.3122 H   0  0  0  0  0  0  0  0  0  0  0  0
   -2.2133    0.2189   -2.7426 H   0  0  0  0  0  0  0  0  0  0  0  0
   -1.6866   -2.3259   -0.4947 H   0  0  0  0  0  0  0  0  0  0  0  0
   -0.5236   -1.4331   -1.4845 H   0  0  0  0  0  0  0  0  0  0  0  0
   -0.5439   -1.2765    0.3508 H   0  0  0  0  0  0  0  0  0  0  0  0
   -1.4691    1.6573   -1.4582 H   0  0  0  0  0  0  0  0  0  0  0  0
    1.8546    1.5210    1.5062 H   0  0  0  0  0  0  0  0  0  0  0  0
    2.5130    2.5951   -0.5424 H   0  0  0  0  0  0  0  0  0  0  0  0
    2.9056    1.0496   -1.3127 H   0  0  0  0  0  0  0  0  0  0  0  0
    4.8363    2.5852   -0.4134 H   0  0  0  0  0  0  0  0  0  0  0  0
    4.2152    2.1790    1.2308 H   0  0  0  0  0  0  0  0  0  0  0  0
    6.2008    0.7860   -0.3116 H   0  0  0  0  0  0  0  0  0  0  0  0
    5.4651    0.3020    1.2258 H   0  0  0  0  0  0  0  0  0  0  0  0
    5.4277   -1.3870   -0.5551 H   0  0  0  0  0  0  0  0  0  0  0  0
    4.2861   -0.4366   -1.5185 H   0  0  0  0  0  0  0  0  0  0  0  0
    2.6735   -2.9827    0.9699 H   0  0  0  0  0  0  0  0  0  0  0  0
    4.4255   -2.8759    1.3128 H   0  0  0  0  0  0  0  0  0  0  0  0
    3.9174   -3.0906   -0.3976 H   0  0  0  0  0  0  0  0  0  0  0  0
   -2.5984    1.8917    1.2507 H   0  0  0  0  0  0  0  0  0  0  0  0
   -2.9365    2.8715   -0.2602 H   0  0  0  0  0  0  0  0  0  0  0  0
  1  2  1  0
  2  3  1  0
  2  4  1  0
  4  5  1  0
  5  6  1  0
  6  7  1  0
  7  8  1  0
  7  9  1  0
  9 10  1  0
 10 11  2  0
 10 12  1  0
 12 13  1  0
 13 14  1  0
 14 15  1  0
 15 16  1  0
 16 17  1  0
 17 18  1  0
 18 19  1  0
 18 20  1  0
 20 21  2  0
  9 22  1  0
  7  2  1  0
 20 13  1  0
 22  4  1  0
  1 23  1  0
  1 24  1  0
  1 25  1  0
  3 26  1  0
  3 27  1  0
  3 28  1  0
  4 29  1  0
  5 30  1  0
  5 31  1  0
  6 32  1  0
  6 33  1  0
  8 34  1  0
  8 35  1  0
  8 36  1  0
  9 37  1  0
 13 38  1  0
 14 39  1  0
 14 40  1  0
 15 41  1  0
 15 42  1  0
 16 43  1  0
 16 44  1  0
 17 45  1  0
 17 46  1  0
 19 47  1  0
 19 48  1  0
 19 49  1  0
 22 50  1  0
 22 51  1  0
M  END
$$$$
[H]OC(=O)c1sc2c([H])c([H])c(C(=O)C([H])(N([H])C(=O)c3oc4c([H])c([H])c([H])c([H])c4c3[H])C([H])([H])C([H])([H])C(=O)O[H])c([H])c2c1[H]
     RDKit          3D

 49 52  0  0  0  0  0  0  0  0999 V2000
   -8.5337    2.2948    0.0800 O   0  0  0  0  0  0  0  0  0  0  0  0
   -7.2951    2.1244    0.6790 C   0  0  0  0  0  0  0  0  0  0  0  0
   -7.0999    2.5357    1.8239 O   0  0  0  0  0  0  0  0  0  0  0  0
   -6.2356    1.4397   -0.1003 C   0  0  0  0  0  0  0  0  0  0  0  0
   -4.9556    1.1681    0.2916 C   0  0  0  0  0  0  0  0  0  0  0  0
   -4.1610    0.5308   -0.5977 C   0  0  0  0  0  0  0  0  0  0  0  0
   -2.8182    0.1513   -0.4218 C   0  0  0  0  0  0  0  0  0  0  0  0
   -2.1164   -0.4921   -1.4074 C   0  0  0  0  0  0  0  0  0  0  0  0
   -2.6920   -0.8085   -2.6442 C   0  0  0  0  0  0  0  0  0  0  0  0
   -4.0065   -0.4335   -2.8078 C   0  0  0  0  0  0  0  0  0  0  0  0
   -4.7097    0.2159   -1.8084 C   0  0  0  0  0  0  0  0  0  0  0  0
   -6.3002    0.8069   -1.6822 S   0  0  0  0  0  0  0  0  0  0  0  0
   -0.7131   -0.8988   -1.2025 C   0  0  0  0  0  0  0  0  0  0  0  0
   -0.1257   -1.4141   -2.2153 O   0  0  0  0  0  0  0  0  0  0  0  0
    0.0282   -0.7525    0.0515 C   0  0  0  0  0  0  0  0  0  0  0  0
   -0.0297   -1.9937    0.9165 C   0  0  0  0  0  0  0  0  0  0  0  0
   -1.3783   -2.4307    1.3369 C   0  0  0  0  0  0  0  0  0  0  0  0
   -1.2340   -3.6503    2.1745 C   0  0  0  0  0  0  0  0  0  0  0  0
   -2.4366   -4.1948    2.6632 O   0  0  0  0  0  0  0  0  0  0  0  0
   -0.1454   -4.1907    2.4527 O   0  0  0  0  0  0  0  0  0  0  0  0
    1.4522   -0.5210   -0.1948 N   0  0  0  0  0  0  0  0  0  0  0  0
    2.1465    0.5860    0.2933 C   0  0  0  0  0  0  0  0  0  0  0  0
    1.4989    1.4329    0.9915 O   0  0  0  0  0  0  0  0  0  0  0  0
    3.5558    0.8571    0.0714 C   0  0  0  0  0  0  0  0  0  0  0  0
    4.2691    1.9340    0.5537 C   0  0  0  0  0  0  0  0  0  0  0  0
    5.5750    1.8354    0.1264 C   0  0  0  0  0  0  0  0  0  0  0  0
    6.6971    2.6112    0.3034 C   0  0  0  0  0  0  0  0  0  0  0  0
    7.9067    2.2583   -0.2583 C   0  0  0  0  0  0  0  0  0  0  0  0
    7.9579    1.1041   -1.0032 C   0  0  0  0  0  0  0  0  0  0  0  0
    6.8311    0.3320   -1.1767 C   0  0  0  0  0  0  0  0  0  0  0  0
    5.6069    0.6668   -0.6223 C   0  0  0  0  0  0  0  0  0  0  0  0
    4.4113    0.1355   -0.6243 O   0  0  0  0  0  0  0  0  0  0  0  0
   -8.6377    2.8102   -0.7955 H   0  0  0  0  0  0  0  0  0  0  0  0
   -4.6443    1.4877    1.3186 H   0  0  0  0  0  0  0  0  0  0  0  0
   -2.3122    0.3749    0.5004 H   0  0  0  0  0  0  0  0  0  0  0  0
   -2.1301   -1.3147   -3.4136 H   0  0  0  0  0  0  0  0  0  0  0  0
   -4.5042   -0.6563   -3.7552 H   0  0  0  0  0  0  0  0  0  0  0  0
   -0.3480    0.0897    0.6309 H   0  0  0  0  0  0  0  0  0  0  0  0
    0.5598   -1.7571    1.8422 H   0  0  0  0  0  0  0  0  0  0  0  0
    0.4980   -2.8508    0.4500 H   0  0  0  0  0  0  0  0  0  0  0  0
   -1.9066   -1.6798    1.9753 H   0  0  0  0  0  0  0  0  0  0  0  0
   -2.0139   -2.7497    0.4747 H   0  0  0  0  0  0  0  0  0  0  0  0
   -2.6718   -5.1662    2.5751 H   0  0  0  0  0  0  0  0  0  0  0  0
    1.9457   -1.2330   -0.7659 H   0  0  0  0  0  0  0  0  0  0  0  0
    3.9238    2.7596    1.1731 H   0  0  0  0  0  0  0  0  0  0  0  0
    6.6434    3.5257    0.8978 H   0  0  0  0  0  0  0  0  0  0  0  0
    8.8119    2.8459   -0.1396 H   0  0  0  0  0  0  0  0  0  0  0  0
    8.9223    0.8378   -1.4418 H   0  0  0  0  0  0  0  0  0  0  0  0
    6.9140   -0.5638   -1.7668 H   0  0  0  0  0  0  0  0  0  0  0  0
  1  2  1  0
  2  3  2  0
  2  4  1  0
  4  5  2  0
  5  6  1  0
  6  7  2  0
  7  8  1  0
  8  9  2  0
  9 10  1  0
 10 11  2  0
 11 12  1  0
  8 13  1  0
 13 14  2  0
 13 15  1  0
 15 16  1  0
 16 17  1  0
 17 18  1  0
 18 19  1  0
 18 20  2  0
 15 21  1  0
 21 22  1  0
 22 23  2  0
 22 24  1  0
 24 25  2  0
 25 26  1  0
 26 27  2  0
 27 28  1  0
 28 29  2  0
 29 30  1  0
 30 31  2  0
 31 32  1  0
 12  4  1  0
 32 24  1  0
 11  6  1  0
 31 26  1  0
  1 33  1  0
  5 34  1  0
  7 35  1  0
  9 36  1  0
 10 37  1  0
 15 38  1  0
 16 39  1  0
 16 40  1  0
 17 41  1  0
 17 42  1  0
 19 43  1  0
 21 44  1  0
 25 45  1  0
 27 46  1  0
 28 47  1  0
 29 48  1  0
 30 49  1  0
M  END
$$$$
[H]c1c([H])c([H])c(C2=NC([H])(N([H])C(=O)C(C([H])([H])[H])(C([H])([H])[H])C([H])([H])[H])C(=O)N(C([H])([H])C([H])([H])C#N)c3c([H])c([H])c(Cl)c([H])c32)c([H])c1[H]
     RDKit          3D

 53 55  0  0  0  0  0  0  0  0999 V2000
    3.6369    1.6668    1.0957 C   0  0  0  0  0  0  0  0  0  0  0  0
    3.6477    0.1365    1.0954 C   0  0  0  0  0  0  0  0  0  0  0  0
    5.0438   -0.3946    1.1329 C   0  0  0  0  0  0  0  0  0  0  0  0
    2.9706   -0.2972    2.4001 C   0  0  0  0  0  0  0  0  0  0  0  0
    2.8776   -0.4037   -0.0532 C   0  0  0  0  0  0  0  0  0  0  0  0
    3.5025   -1.1255   -0.8725 O   0  0  0  0  0  0  0  0  0  0  0  0
    1.4877   -0.1084   -0.2085 N   0  0  0  0  0  0  0  0  0  0  0  0
    0.7342   -0.6297   -1.3212 C   0  0  0  0  0  0  0  0  0  0  0  0
   -0.2739   -1.5364   -0.7979 N   0  0  0  0  0  0  0  0  0  0  0  0
   -1.4294   -1.2670   -0.2461 C   0  0  0  0  0  0  0  0  0  0  0  0
   -2.1739   -2.4338    0.1426 C   0  0  0  0  0  0  0  0  0  0  0  0
   -1.5323   -3.6868    0.0956 C   0  0  0  0  0  0  0  0  0  0  0  0
   -2.2125   -4.8385    0.2946 C   0  0  0  0  0  0  0  0  0  0  0  0
   -3.5604   -4.8512    0.5525 C   0  0  0  0  0  0  0  0  0  0  0  0
   -4.1969   -3.6334    0.5992 C   0  0  0  0  0  0  0  0  0  0  0  0
   -3.4967   -2.4475    0.3930 C   0  0  0  0  0  0  0  0  0  0  0  0
   -1.8755    0.0748    0.0655 C   0  0  0  0  0  0  0  0  0  0  0  0
   -2.6092    0.0961    1.2358 C   0  0  0  0  0  0  0  0  0  0  0  0
   -3.1965    1.2680    1.6539 C   0  0  0  0  0  0  0  0  0  0  0  0
   -4.1486    1.3025    3.1460 Cl  0  0  0  0  0  0  0  0  0  0  0  0
   -3.0321    2.3999    0.8871 C   0  0  0  0  0  0  0  0  0  0  0  0
   -2.2920    2.4060   -0.2934 C   0  0  0  0  0  0  0  0  0  0  0  0
   -1.7197    1.2413   -0.6846 C   0  0  0  0  0  0  0  0  0  0  0  0
   -0.8566    1.4391   -1.8292 N   0  0  0  0  0  0  0  0  0  0  0  0
   -0.9523    2.6095   -2.6092 C   0  0  0  0  0  0  0  0  0  0  0  0
   -0.0556    3.7627   -2.2685 C   0  0  0  0  0  0  0  0  0  0  0  0
    1.3746    3.4015   -2.3795 C   0  0  0  0  0  0  0  0  0  0  0  0
    2.5064    3.1400   -2.4571 N   0  0  0  0  0  0  0  0  0  0  0  0
    0.1186    0.4138   -2.1748 C   0  0  0  0  0  0  0  0  0  0  0  0
    0.4734    0.4314   -3.3554 O   0  0  0  0  0  0  0  0  0  0  0  0
    3.8170    2.0338    0.0650 H   0  0  0  0  0  0  0  0  0  0  0  0
    4.4719    1.9691    1.7844 H   0  0  0  0  0  0  0  0  0  0  0  0
    2.6955    2.0191    1.5370 H   0  0  0  0  0  0  0  0  0  0  0  0
    5.7891    0.3204    1.5389 H   0  0  0  0  0  0  0  0  0  0  0  0
    5.3867   -0.6340    0.0866 H   0  0  0  0  0  0  0  0  0  0  0  0
    5.1401   -1.3345    1.7154 H   0  0  0  0  0  0  0  0  0  0  0  0
    2.0614    0.2954    2.5699 H   0  0  0  0  0  0  0  0  0  0  0  0
    2.7313   -1.3904    2.3373 H   0  0  0  0  0  0  0  0  0  0  0  0
    3.6939   -0.1500    3.2139 H   0  0  0  0  0  0  0  0  0  0  0  0
    1.0364    0.4986    0.5126 H   0  0  0  0  0  0  0  0  0  0  0  0
    1.4112   -1.2337   -1.9399 H   0  0  0  0  0  0  0  0  0  0  0  0
   -0.4704   -3.7056   -0.1055 H   0  0  0  0  0  0  0  0  0  0  0  0
   -1.7035   -5.7968    0.2552 H   0  0  0  0  0  0  0  0  0  0  0  0
   -4.0748   -5.7845    0.7078 H   0  0  0  0  0  0  0  0  0  0  0  0
   -5.2633   -3.6083    0.8013 H   0  0  0  0  0  0  0  0  0  0  0  0
   -4.1613   -1.5634    0.4020 H   0  0  0  0  0  0  0  0  0  0  0  0
   -2.6735   -0.7831    1.8530 H   0  0  0  0  0  0  0  0  0  0  0  0
   -3.4874    3.3563    1.1848 H   0  0  0  0  0  0  0  0  0  0  0  0
   -2.1870    3.2643   -0.9015 H   0  0  0  0  0  0  0  0  0  0  0  0
   -1.9813    2.9273   -2.8855 H   0  0  0  0  0  0  0  0  0  0  0  0
   -0.5814    2.2874   -3.6337 H   0  0  0  0  0  0  0  0  0  0  0  0
   -0.1663    4.6006   -3.0257 H   0  0  0  0  0  0  0  0  0  0  0  0
   -0.2441    4.2756   -1.3124 H   0  0  0  0  0  0  0  0  0  0  0  0
  1  2  1  0
  2  3  1  0
  2  4  1  0
  2  5  1  0
  5  6  2  0
  5  7  1  0
  7  8  1  0
  8  9  1  0
  9 10  2  0
 10 11  1  0
 11 12  2  0
 12 13  1  0
 13 14  2  0
 14 15  1  0
 15 16  2  0
 10 17  1  0
 17 18  2  0
 18 19  1  0
 19 20  1  0
 19 21  2  0
 21 22  1  0
 22 23  2  0
 23 24  1  0
 24 25  1  0
 25 26  1  0
 26 27  1  0
 27 28  3  0
 24 29  1  0
 29 30  2  0
 29  8  1  0
 16 11  1  0
 23 17  1  0
  1 31  1  0
  1 32  1  0
  1 33  1  0
  3 34  1  0
  3 35  1  0
  3 36  1  0
  4 37  1  0
  4 38  1  0
  4 39  1  0
  7 40  1  0
  8 41  1  0
 12 42  1  0
 13 43  1  0
 14 44  1  0
 15 45  1  0
 16 46  1  0
 18 47  1  0
 21 48  1  0
 22 49  1  0
 25 50  1  0
 25 51  1  0
 26 52  1  0
 26 53  1  0
M  END
$$$$
[H]OC(=O)c1c([H])c2c(C([H])([H])[H])c([H])c(-c3c([H])c([H])c([H])c([H])c3F)c(C([H])([H])[H])n2c1C([H])([H])C(=O)O[H]
     RDKit          3D

 41 43  0  0  0  0  0  0  0  0999 V2000
    0.6262    3.7557    0.3299 C   0  0  0  0  0  0  0  0  0  0  0  0
    0.2309    2.3251    0.2236 C   0  0  0  0  0  0  0  0  0  0  0  0
   -1.0571    1.9125    0.1272 C   0  0  0  0  0  0  0  0  0  0  0  0
   -1.3407    0.5565    0.0428 C   0  0  0  0  0  0  0  0  0  0  0  0
   -2.7482    0.1754   -0.0914 C   0  0  0  0  0  0  0  0  0  0  0  0
   -3.5671    0.1984    1.0281 C   0  0  0  0  0  0  0  0  0  0  0  0
   -4.8890   -0.1124    0.9755 C   0  0  0  0  0  0  0  0  0  0  0  0
   -5.4406   -0.4658   -0.2341 C   0  0  0  0  0  0  0  0  0  0  0  0
   -4.6466   -0.4966   -1.3606 C   0  0  0  0  0  0  0  0  0  0  0  0
   -3.3171   -0.1815   -1.2959 C   0  0  0  0  0  0  0  0  0  0  0  0
   -2.5188   -0.2110   -2.4189 F   0  0  0  0  0  0  0  0  0  0  0  0
   -0.3389   -0.3907    0.0564 C   0  0  0  0  0  0  0  0  0  0  0  0
   -0.6589   -1.8367   -0.0158 C   0  0  0  0  0  0  0  0  0  0  0  0
    0.9543    0.0277    0.1520 N   0  0  0  0  0  0  0  0  0  0  0  0
    2.1295   -0.6466    0.1660 C   0  0  0  0  0  0  0  0  0  0  0  0
    2.3708   -2.0824    0.0970 C   0  0  0  0  0  0  0  0  0  0  0  0
    2.8215   -2.4300   -1.3057 C   0  0  0  0  0  0  0  0  0  0  0  0
    2.8131   -1.4313   -2.2658 O   0  0  0  0  0  0  0  0  0  0  0  0
    3.1863   -3.5932   -1.5597 O   0  0  0  0  0  0  0  0  0  0  0  0
    3.1862    0.2745    0.2562 C   0  0  0  0  0  0  0  0  0  0  0  0
    2.6113    1.5084    0.2976 C   0  0  0  0  0  0  0  0  0  0  0  0
    1.2320    1.3655    0.2337 C   0  0  0  0  0  0  0  0  0  0  0  0
    4.5842   -0.0401    0.2819 C   0  0  0  0  0  0  0  0  0  0  0  0
    5.2069   -1.2501    0.2844 O   0  0  0  0  0  0  0  0  0  0  0  0
    5.4358    0.9536    0.3053 O   0  0  0  0  0  0  0  0  0  0  0  0
   -0.0417    4.3675   -0.2782 H   0  0  0  0  0  0  0  0  0  0  0  0
    0.5413    4.0138    1.4133 H   0  0  0  0  0  0  0  0  0  0  0  0
    1.6666    3.9175   -0.0062 H   0  0  0  0  0  0  0  0  0  0  0  0
   -1.8350    2.6467    0.1160 H   0  0  0  0  0  0  0  0  0  0  0  0
   -3.0931    0.4836    1.9704 H   0  0  0  0  0  0  0  0  0  0  0  0
   -5.4908   -0.0764    1.8936 H   0  0  0  0  0  0  0  0  0  0  0  0
   -6.4948   -0.7186   -0.2998 H   0  0  0  0  0  0  0  0  0  0  0  0
   -5.0833   -0.7799   -2.3308 H   0  0  0  0  0  0  0  0  0  0  0  0
   -0.2750   -2.3435   -0.9094 H   0  0  0  0  0  0  0  0  0  0  0  0
   -1.7897   -1.9037   -0.1437 H   0  0  0  0  0  0  0  0  0  0  0  0
   -0.4968   -2.3633    0.9498 H   0  0  0  0  0  0  0  0  0  0  0  0
    1.6020   -2.7983    0.3305 H   0  0  0  0  0  0  0  0  0  0  0  0
    3.2185   -2.3868    0.8020 H   0  0  0  0  0  0  0  0  0  0  0  0
    2.1115   -0.7177   -2.3495 H   0  0  0  0  0  0  0  0  0  0  0  0
    3.0985    2.4763    0.3669 H   0  0  0  0  0  0  0  0  0  0  0  0
    5.4959   -1.7018    1.1471 H   0  0  0  0  0  0  0  0  0  0  0  0
  1  2  1  0
  2  3  2  0
  3  4  1  0
  4  5  1  0
  5  6  2  0
  6  7  1  0
  7  8  2  0
  8  9  1  0
  9 10  2  0
 10 11  1  0
  4 12  2  0
 12 13  1  0
 12 14  1  0
 14 15  1  0
 15 16  1  0
 16 17  1  0
 17 18  1  0
 17 19  2  0
 15 20  2  0
 20 21  1  0
 21 22  2  0
 20 23  1  0
 23 24  1  0
 23 25  2  0
 22  2  1  0
 10  5  1  0
 22 14  1  0
  1 26  1  0
  1 27  1  0
  1 28  1  0
  3 29  1  0
  6 30  1  0
  7 31  1  0
  8 32  1  0
  9 33  1  0
 13 34  1  0
 13 35  1  0
 13 36  1  0
 16 37  1  0
 16 38  1  0
 18 39  1  0
 21 40  1  0
 24 41  1  0
M  END
$$$$
[H]c1nc([H])c([H])c(C([H])([H])Sc2nnc(-c3c([H])c([H])c(Oc4c([H])c([H])c([H])c([H])c4[H])c([H])c3[H])n2C([H])([H])[H])c1[H]
     RDKit          3D

 45 48  0  0  0  0  0  0  0  0999 V2000
   -1.3213    0.6594    2.2755 C   0  0  0  0  0  0  0  0  0  0  0  0
   -1.6523   -0.1796    1.1406 N   0  0  0  0  0  0  0  0  0  0  0  0
   -2.9264   -0.6521    0.8933 C   0  0  0  0  0  0  0  0  0  0  0  0
   -4.3237   -0.2916    1.9146 S   0  0  0  0  0  0  0  0  0  0  0  0
   -5.8087   -1.0475    1.2956 C   0  0  0  0  0  0  0  0  0  0  0  0
   -6.3091   -0.4885    0.0137 C   0  0  0  0  0  0  0  0  0  0  0  0
   -7.0610    0.6974    0.0292 C   0  0  0  0  0  0  0  0  0  0  0  0
   -7.5675    1.2380   -1.1255 C   0  0  0  0  0  0  0  0  0  0  0  0
   -7.3163    0.5889   -2.2720 N   0  0  0  0  0  0  0  0  0  0  0  0
   -6.6049   -0.5433   -2.3308 C   0  0  0  0  0  0  0  0  0  0  0  0
   -6.0734   -1.1237   -1.1741 C   0  0  0  0  0  0  0  0  0  0  0  0
   -2.8445   -1.3948   -0.2098 N   0  0  0  0  0  0  0  0  0  0  0  0
   -1.6137   -1.3831   -0.6153 N   0  0  0  0  0  0  0  0  0  0  0  0
   -0.8324   -0.6229    0.2164 C   0  0  0  0  0  0  0  0  0  0  0  0
    0.5904   -0.4652    0.0008 C   0  0  0  0  0  0  0  0  0  0  0  0
    1.2076   -1.2373   -1.0076 C   0  0  0  0  0  0  0  0  0  0  0  0
    2.5346   -1.1464   -1.2946 C   0  0  0  0  0  0  0  0  0  0  0  0
    3.3784   -0.2576   -0.5842 C   0  0  0  0  0  0  0  0  0  0  0  0
    4.6460   -0.2519   -0.9453 O   0  0  0  0  0  0  0  0  0  0  0  0
    5.8339    0.2587   -0.6763 C   0  0  0  0  0  0  0  0  0  0  0  0
    6.8860   -0.1135   -1.5635 C   0  0  0  0  0  0  0  0  0  0  0  0
    8.1627    0.3323   -1.4146 C   0  0  0  0  0  0  0  0  0  0  0  0
    8.5043    1.1734   -0.3898 C   0  0  0  0  0  0  0  0  0  0  0  0
    7.4999    1.5558    0.4946 C   0  0  0  0  0  0  0  0  0  0  0  0
    6.2119    1.0994    0.3355 C   0  0  0  0  0  0  0  0  0  0  0  0
    2.7491    0.4668    0.3752 C   0  0  0  0  0  0  0  0  0  0  0  0
    1.3925    0.3957    0.6915 C   0  0  0  0  0  0  0  0  0  0  0  0
   -1.1407    1.7204    2.0071 H   0  0  0  0  0  0  0  0  0  0  0  0
   -0.5498    0.2149    2.9415 H   0  0  0  0  0  0  0  0  0  0  0  0
   -2.2286    0.7296    2.9577 H   0  0  0  0  0  0  0  0  0  0  0  0
   -5.6648   -2.1492    1.1421 H   0  0  0  0  0  0  0  0  0  0  0  0
   -6.6523   -0.9831    2.0294 H   0  0  0  0  0  0  0  0  0  0  0  0
   -7.2531    1.2081    0.9768 H   0  0  0  0  0  0  0  0  0  0  0  0
   -8.1443    2.1508   -1.1041 H   0  0  0  0  0  0  0  0  0  0  0  0
   -6.4239   -1.0408   -3.2888 H   0  0  0  0  0  0  0  0  0  0  0  0
   -5.5233   -2.0401   -1.2786 H   0  0  0  0  0  0  0  0  0  0  0  0
    0.5769   -1.9369   -1.5747 H   0  0  0  0  0  0  0  0  0  0  0  0
    2.9649   -1.7637   -2.0814 H   0  0  0  0  0  0  0  0  0  0  0  0
    6.6207   -0.7836   -2.3815 H   0  0  0  0  0  0  0  0  0  0  0  0
    8.9641    0.0370   -2.1053 H   0  0  0  0  0  0  0  0  0  0  0  0
    9.5236    1.5024   -0.3085 H   0  0  0  0  0  0  0  0  0  0  0  0
    7.7632    2.2191    1.3051 H   0  0  0  0  0  0  0  0  0  0  0  0
    5.5015    1.4326    1.0570 H   0  0  0  0  0  0  0  0  0  0  0  0
    3.3143    1.1705    0.9575 H   0  0  0  0  0  0  0  0  0  0  0  0
    1.0096    1.0452    1.4782 H   0  0  0  0  0  0  0  0  0  0  0  0
  1  2  1  0
  2  3  1  0
  3  4  1  0
  4  5  1  0
  5  6  1  0
  6  7  2  0
  7  8  1  0
  8  9  2  0
  9 10  1  0
 10 11  2  0
  3 12  2  0
 12 13  1  0
 13 14  2  0
 14 15  1  0
 15 16  2  0
 16 17  1  0
 17 18  2  0
 18 19  1  0
 19 20  1  0
 20 21  2  0
 21 22  1  0
 22 23  2  0
 23 24  1  0
 24 25  2  0
 18 26  1  0
 26 27  2  0
 14  2  1  0
 27 15  1  0
 11  6  1  0
 25 20  1  0
  1 28  1  0
  1 29  1  0
  1 30  1  0
  5 31  1  0
  5 32  1  0
  7 33  1  0
  8 34  1  0
 10 35  1  0
 11 36  1  0
 16 37  1  0
 17 38  1  0
 21 39  1  0
 22 40  1  0
 23 41  1  0
 24 42  1  0
 25 43  1  0
 26 44  1  0
 27 45  1  0
M  END
$$$$
[H]Oc1c([H])c([H])c(C([H])([H])[C@@]2([H])C(=O)N([H])[C@@]([H])(C3([H])C([H])([H])C([H])([H])C3([H])[H])C(=O)N([H])[C@]([H])(C([H])([H])C([H])([H])[H])C(=O)N([H])[C@]([H])(C([H])(C([H])([H])[H])C([H])([H])[H])C(=O)N([H])[C@@]([H])(C([H])([H])c3c([H])c([H])c([H])c([H])c3[H])C(=O)N2[H])c([H])c1[H]
     RDKit          3D

 87 90  0  0  0  0  0  0  0  0999 V2000
   -4.5299   -4.5119    0.9449 C   0  0  0  0  0  0  0  0  0  0  0  0
   -4.3362   -2.9957    0.8181 C   0  0  0  0  0  0  0  0  0  0  0  0
   -2.9160   -2.6492    1.2950 C   0  0  1  0  0  0  0  0  0  0  0  0
   -1.9294   -3.2935    0.5266 N   0  0  0  0  0  0  0  0  0  0  0  0
   -0.9213   -2.8721   -0.3352 C   0  0  0  0  0  0  0  0  0  0  0  0
   -0.8957   -3.4281   -1.5100 O   0  0  0  0  0  0  0  0  0  0  0  0
    0.1463   -1.8726   -0.1246 C   0  0  1  0  0  0  0  0  0  0  0  0
    1.0653   -2.3896    0.9181 N   0  0  0  0  0  0  0  0  0  0  0  0
    1.6753   -1.6044    1.8972 C   0  0  0  0  0  0  0  0  0  0  0  0
    2.0742   -2.2034    2.9596 O   0  0  0  0  0  0  0  0  0  0  0  0
    1.9256   -0.1482    1.8744 C   0  0  2  0  0  0  0  0  0  0  0  0
    3.3917    0.1433    1.9893 C   0  0  0  0  0  0  0  0  0  0  0  0
    4.2507   -0.3822    0.9460 C   0  0  0  0  0  0  0  0  0  0  0  0
    4.8528   -1.6007    1.0452 C   0  0  0  0  0  0  0  0  0  0  0  0
    5.6799   -2.1257    0.0606 C   0  0  0  0  0  0  0  0  0  0  0  0
    5.9229   -1.4090   -1.0777 C   0  0  0  0  0  0  0  0  0  0  0  0
    6.7468   -1.9039   -2.0860 O   0  0  0  0  0  0  0  0  0  0  0  0
    5.3297   -0.1610   -1.2209 C   0  0  0  0  0  0  0  0  0  0  0  0
    4.5123    0.3368   -0.2277 C   0  0  0  0  0  0  0  0  0  0  0  0
    1.2768    0.4858    3.0325 N   0  0  0  0  0  0  0  0  0  0  0  0
    0.4127    1.5884    2.9753 C   0  0  0  0  0  0  0  0  0  0  0  0
    0.1319    2.1801    4.0525 O   0  0  0  0  0  0  0  0  0  0  0  0
   -0.2016    2.1085    1.6970 C   0  0  2  0  0  0  0  0  0  0  0  0
    0.6762    3.2679    1.3089 C   0  0  0  0  0  0  0  0  0  0  0  0
    0.3299    3.9834    0.0958 C   0  0  0  0  0  0  0  0  0  0  0  0
   -0.4620    5.1091    0.0642 C   0  0  0  0  0  0  0  0  0  0  0  0
   -0.7681    5.7584   -1.0958 C   0  0  0  0  0  0  0  0  0  0  0  0
   -0.2710    5.2779   -2.2868 C   0  0  0  0  0  0  0  0  0  0  0  0
    0.5165    4.1629   -2.2784 C   0  0  0  0  0  0  0  0  0  0  0  0
    0.8096    3.5292   -1.1042 C   0  0  0  0  0  0  0  0  0  0  0  0
   -1.5802    2.4585    1.9605 N   0  0  0  0  0  0  0  0  0  0  0  0
   -2.7157    2.2926    1.1933 C   0  0  0  0  0  0  0  0  0  0  0  0
   -3.4382    3.3427    0.9982 O   0  0  0  0  0  0  0  0  0  0  0  0
   -3.2481    1.0334    0.5364 C   0  0  2  0  0  0  0  0  0  0  0  0
   -3.2724   -0.0344    1.4854 N   0  0  0  0  0  0  0  0  0  0  0  0
   -2.7400   -1.2657    1.7358 C   0  0  0  0  0  0  0  0  0  0  0  0
   -1.7826   -1.2227    2.6498 O   0  0  0  0  0  0  0  0  0  0  0  0
   -2.6598    0.8577   -0.8036 C   0  0  0  0  0  0  0  0  0  0  0  0
   -3.0348    2.1747   -1.5715 C   0  0  0  0  0  0  0  0  0  0  0  0
   -3.4861   -0.1431   -1.6418 C   0  0  0  0  0  0  0  0  0  0  0  0
    0.9634   -1.5773   -1.3573 C   0  0  0  0  0  0  0  0  0  0  0  0
    0.2650   -1.1410   -2.5919 C   0  0  0  0  0  0  0  0  0  0  0  0
    1.1637   -2.1133   -3.3581 C   0  0  0  0  0  0  0  0  0  0  0  0
    1.6926   -2.6781   -2.0291 C   0  0  0  0  0  0  0  0  0  0  0  0
   -3.8407   -4.8828    1.7465 H   0  0  0  0  0  0  0  0  0  0  0  0
   -5.5842   -4.6768    1.1916 H   0  0  0  0  0  0  0  0  0  0  0  0
   -4.2003   -4.9665   -0.0012 H   0  0  0  0  0  0  0  0  0  0  0  0
   -4.4623   -2.7112   -0.2281 H   0  0  0  0  0  0  0  0  0  0  0  0
   -5.0301   -2.4684    1.4853 H   0  0  0  0  0  0  0  0  0  0  0  0
   -2.9510   -3.3196    2.2791 H   0  0  0  0  0  0  0  0  0  0  0  0
   -1.9443   -4.3890    0.5967 H   0  0  0  0  0  0  0  0  0  0  0  0
   -0.2616   -0.8902    0.2034 H   0  0  0  0  0  0  0  0  0  0  0  0
    1.2666   -3.4237    0.9120 H   0  0  0  0  0  0  0  0  0  0  0  0
    1.4978    0.3485    0.9851 H   0  0  0  0  0  0  0  0  0  0  0  0
    3.4726    1.2736    2.0375 H   0  0  0  0  0  0  0  0  0  0  0  0
    3.7268   -0.1579    3.0290 H   0  0  0  0  0  0  0  0  0  0  0  0
    4.7123   -2.2125    1.9139 H   0  0  0  0  0  0  0  0  0  0  0  0
    6.1319   -3.0995    0.1922 H   0  0  0  0  0  0  0  0  0  0  0  0
    7.7460   -1.7309   -2.1031 H   0  0  0  0  0  0  0  0  0  0  0  0
    5.5345    0.3822   -2.1203 H   0  0  0  0  0  0  0  0  0  0  0  0
    4.0687    1.3122   -0.3755 H   0  0  0  0  0  0  0  0  0  0  0  0
    1.5295    0.0153    3.9621 H   0  0  0  0  0  0  0  0  0  0  0  0
   -0.2320    1.3401    0.9060 H   0  0  0  0  0  0  0  0  0  0  0  0
    1.7274    2.8503    1.2927 H   0  0  0  0  0  0  0  0  0  0  0  0
    0.7307    4.0321    2.1398 H   0  0  0  0  0  0  0  0  0  0  0  0
   -0.8544    5.4873    1.0092 H   0  0  0  0  0  0  0  0  0  0  0  0
   -1.3946    6.6513   -1.1325 H   0  0  0  0  0  0  0  0  0  0  0  0
   -0.4965    5.7738   -3.2355 H   0  0  0  0  0  0  0  0  0  0  0  0
    0.8950    3.8053   -3.2288 H   0  0  0  0  0  0  0  0  0  0  0  0
    1.4296    2.6555   -1.1199 H   0  0  0  0  0  0  0  0  0  0  0  0
   -1.6859    2.9265    2.9306 H   0  0  0  0  0  0  0  0  0  0  0  0
   -4.3600    1.2270    0.3097 H   0  0  0  0  0  0  0  0  0  0  0  0
   -3.9618    0.3177    2.2985 H   0  0  0  0  0  0  0  0  0  0  0  0
   -1.6019    0.7635   -0.9216 H   0  0  0  0  0  0  0  0  0  0  0  0
   -4.1049    2.3641   -1.4823 H   0  0  0  0  0  0  0  0  0  0  0  0
   -2.8050    2.0359   -2.6488 H   0  0  0  0  0  0  0  0  0  0  0  0
   -2.3846    2.9994   -1.2212 H   0  0  0  0  0  0  0  0  0  0  0  0
   -4.5361   -0.0289   -1.2617 H   0  0  0  0  0  0  0  0  0  0  0  0
   -3.1900   -1.1733   -1.4806 H   0  0  0  0  0  0  0  0  0  0  0  0
   -3.5197    0.1513   -2.7113 H   0  0  0  0  0  0  0  0  0  0  0  0
    1.7278   -0.7586   -1.1122 H   0  0  0  0  0  0  0  0  0  0  0  0
   -0.7984   -1.3059   -2.7161 H   0  0  0  0  0  0  0  0  0  0  0  0
    0.4941   -0.1017   -2.9729 H   0  0  0  0  0  0  0  0  0  0  0  0
    0.6295   -2.8335   -3.9798 H   0  0  0  0  0  0  0  0  0  0  0  0
    1.9822   -1.6346   -3.9298 H   0  0  0  0  0  0  0  0  0  0  0  0
    2.8270   -2.5987   -1.9812 H   0  0  0  0  0  0  0  0  0  0  0  0
    1.4474   -3.7132   -1.8165 H   0  0  0  0  0  0  0  0  0  0  0  0
  1  2  1  0
  2  3  1  0
  3  4  1  0
  4  5  1  0
  5  6  2  0
  5  7  1  0
  7  8  1  0
  8  9  1  0
  9 10  2  0
  9 11  1  0
 11 12  1  0
 12 13  1  0
 13 14  2  0
 14 15  1  0
 15 16  2  0
 16 17  1  0
 16 18  1  0
 18 19  2  0
 11 20  1  0
 20 21  1  0
 21 22  2  0
 21 23  1  0
 23 24  1  0
 24 25  1  0
 25 26  2  0
 26 27  1  0
 27 28  2  0
 28 29  1  0
 29 30  2  0
 23 31  1  0
 31 32  1  0
 32 33  2  0
 32 34  1  0
 34 35  1  0
 35 36  1  0
 36 37  2  0
 34 38  1  0
 38 39  1  0
 38 40  1  0
  7 41  1  0
 41 42  1  0
 42 43  1  0
 43 44  1  0
 36  3  1  0
 44 41  1  0
 19 13  1  0
 30 25  1  0
  1 45  1  0
  1 46  1  0
  1 47  1  0
  2 48  1  0
  2 49  1  0
  3 50  1  1
  4 51  1  0
  7 52  1  1
  8 53  1  0
 11 54  1  6
 12 55  1  0
 12 56  1  0
 14 57  1  0
 15 58  1  0
 17 59  1  0
 18 60  1  0
 19 61  1  0
 20 62  1  0
 23 63  1  6
 24 64  1  0
 24 65  1  0
 26 66  1  0
 27 67  1  0
 28 68  1  0
 29 69  1  0
 30 70  1  0
 31 71  1  0
 34 72  1  6
 35 73  1  0
 38 74  1  0
 39 75  1  0
 39 76  1  0
 39 77  1  0
 40 78  1  0
 40 79  1  0
 40 80  1  0
 41 81  1  0
 42 82  1  0
 42 83  1  0
 43 84  1  0
 43 85  1  0
 44 86  1  0
 44 87  1  0
M  END
$$$$
[H]C#CC([H])([H])[N+]([H])(C([H])([H])[H])C([H])([H])C(=C([H])[H])c1c([H])c([H])c([H])c(C([H])([H])Oc2c([H])c([H])c([H])c(C(F)(F)F)c2[H])c1[H].[H]OC(=O)C(=O)[O-]
     RDKit          3D

 54 54  0  0  0  0  0  0  0  0999 V2000
   -1.2939   -0.1486   -0.7352 O   0  0  0  0  0  0  0  0  0  0  0  0
   -0.3604   -0.0204    0.2763 C   0  0  0  0  0  0  0  0  0  0  0  0
   -0.7565   -0.2395    1.4424 O   0  0  0  0  0  0  0  0  0  0  0  0
    0.9988    0.3539   -0.0683 C   0  0  0  0  0  0  0  0  0  0  0  0
    1.8975    0.4665    1.0104 O   0  0  0  0  0  0  0  0  0  0  0  0
    1.3963    0.5719   -1.2205 O   0  0  0  0  0  0  0  0  0  0  0  0
   -5.0452   -2.8185   -0.2891 C   0  0  0  0  0  0  0  0  0  0  0  0
   -4.6874   -1.4217   -0.6882 N   0  0  0  0  0  0  0  0  0  0  0  0
   -5.9252   -0.7274   -0.7141 C   0  0  0  0  0  0  0  0  0  0  0  0
   -5.8885    0.6167   -0.1828 C   0  0  0  0  0  0  0  0  0  0  0  0
   -5.8408    1.7265    0.2627 C   0  0  0  0  0  0  0  0  0  0  0  0
   -3.7141   -0.9187    0.2004 C   0  0  0  0  0  0  0  0  0  0  0  0
   -2.6900   -0.0071   -0.3753 C   0  0  0  0  0  0  0  0  0  0  0  0
   -2.6265    0.3636   -1.6204 C   0  0  0  0  0  0  0  0  0  0  0  0
   -1.6331    0.5116    0.5186 C   0  0  0  0  0  0  0  0  0  0  0  0
   -1.9958    1.3857    1.5239 C   0  0  0  0  0  0  0  0  0  0  0  0
   -1.0136    1.8441    2.3746 C   0  0  0  0  0  0  0  0  0  0  0  0
    0.3158    1.4675    2.2683 C   0  0  0  0  0  0  0  0  0  0  0  0
    0.6915    0.5906    1.2630 C   0  0  0  0  0  0  0  0  0  0  0  0
    2.0565    0.1106    1.0906 C   0  0  0  0  0  0  0  0  0  0  0  0
    2.8805    0.8112    0.2027 O   0  0  0  0  0  0  0  0  0  0  0  0
    4.1695    0.3486    0.0039 C   0  0  0  0  0  0  0  0  0  0  0  0
    4.6211   -0.7840    0.6824 C   0  0  0  0  0  0  0  0  0  0  0  0
    5.9025   -1.2219    0.4708 C   0  0  0  0  0  0  0  0  0  0  0  0
    6.7577   -0.5608   -0.3982 C   0  0  0  0  0  0  0  0  0  0  0  0
    6.3350    0.5811   -1.0980 C   0  0  0  0  0  0  0  0  0  0  0  0
    5.0262    0.9661   -0.8344 C   0  0  0  0  0  0  0  0  0  0  0  0
    7.2305    1.3058   -2.0172 C   0  0  0  0  0  0  0  0  0  0  0  0
    6.9507    0.9377   -3.3110 F   0  0  0  0  0  0  0  0  0  0  0  0
    6.9271    2.6673   -1.9298 F   0  0  0  0  0  0  0  0  0  0  0  0
    8.5607    1.1016   -1.6841 F   0  0  0  0  0  0  0  0  0  0  0  0
   -0.3338    0.1451    0.4133 C   0  0  0  0  0  0  0  0  0  0  0  0
   -1.8818   -0.9838   -0.7051 H   0  0  0  0  0  0  0  0  0  0  0  0
   -5.7994   -3.1406   -1.0210 H   0  0  0  0  0  0  0  0  0  0  0  0
   -4.1413   -3.4229   -0.2715 H   0  0  0  0  0  0  0  0  0  0  0  0
   -5.5687   -2.7601    0.6890 H   0  0  0  0  0  0  0  0  0  0  0  0
   -4.2783   -1.5548   -1.6347 H   0  0  0  0  0  0  0  0  0  0  0  0
   -6.7501   -1.2761   -0.1654 H   0  0  0  0  0  0  0  0  0  0  0  0
   -6.2890   -0.6752   -1.7580 H   0  0  0  0  0  0  0  0  0  0  0  0
   -5.7768    2.7260    0.6768 H   0  0  0  0  0  0  0  0  0  0  0  0
   -4.1268   -0.4530    1.1319 H   0  0  0  0  0  0  0  0  0  0  0  0
   -3.1254   -1.8059    0.5766 H   0  0  0  0  0  0  0  0  0  0  0  0
   -1.8633    1.0308   -2.0077 H   0  0  0  0  0  0  0  0  0  0  0  0
   -3.3635    0.0162   -2.3208 H   0  0  0  0  0  0  0  0  0  0  0  0
   -3.0282    1.6945    1.6327 H   0  0  0  0  0  0  0  0  0  0  0  0
   -1.2744    2.5396    3.1809 H   0  0  0  0  0  0  0  0  0  0  0  0
    1.0746    1.8394    2.9629 H   0  0  0  0  0  0  0  0  0  0  0  0
    2.5821    0.1236    2.0779 H   0  0  0  0  0  0  0  0  0  0  0  0
    2.0142   -0.9504    0.7496 H   0  0  0  0  0  0  0  0  0  0  0  0
    3.9384   -1.2711    1.3484 H   0  0  0  0  0  0  0  0  0  0  0  0
    6.2987   -2.1041    0.9697 H   0  0  0  0  0  0  0  0  0  0  0  0
    7.7737   -0.8991   -0.5788 H   0  0  0  0  0  0  0  0  0  0  0  0
    4.7193    1.8700   -1.4027 H   0  0  0  0  0  0  0  0  0  0  0  0
   -0.0472   -0.5480   -0.3772 H   0  0  0  0  0  0  0  0  0  0  0  0
  1  2  1  0
  2  3  2  0
  2  4  1  0
  4  5  1  0
  4  6  2  0
  7  8  1  0
  8  9  1  0
  9 10  1  0
 10 11  3  0
  8 12  1  0
 12 13  1  0
 13 14  2  3
 13 15  1  0
 15 16  2  0
 16 17  1  0
 17 18  2  0
 18 19  1  0
 19 20  1  0
 20 21  1  0
 21 22  1  0
 22 23  2  0
 23 24  1  0
 24 25  2  0
 25 26  1  0
 26 27  2  0
 26 28  1  0
 28 29  1  0
 28 30  1  0
 28 31  1  0
 19 32  2  0
 32 15  1  0
 27 22  1  0
  1 33  1  0
  7 34  1  0
  7 35  1  0
  7 36  1  0
  8 37  1  0
  9 38  1  0
  9 39  1  0
 11 40  1  0
 12 41  1  0
 12 42  1  0
 14 43  1  0
 14 44  1  0
 16 45  1  0
 17 46  1  0
 18 47  1  0
 20 48  1  0
 20 49  1  0
 23 50  1  0
 24 51  1  0
 25 52  1  0
 27 53  1  0
 32 54  1  0
M  CHG  2   5  -1   8   1
M  END
$$$$
[H]c1nn(-c2c([H])c([H])c3c(c2[H])OC([H])([H])C([H])([H])O3)c(C([H])([H])[H])c1C(=O)N1C([H])([H])C([H])([H])C([H])([H])C1([H])[H]
     RDKit          3D

 42 45  0  0  0  0  0  0  0  0999 V2000
   -0.1849    1.3969    0.4930 C   0  0  0  0  0  0  0  0  0  0  0  0
   -0.4205    0.3173   -0.5322 C   0  0  0  0  0  0  0  0  0  0  0  0
   -1.5787    0.2081   -1.2733 C   0  0  0  0  0  0  0  0  0  0  0  0
   -1.3958   -0.8788   -2.0693 C   0  0  0  0  0  0  0  0  0  0  0  0
   -0.1797   -1.3774   -1.7981 N   0  0  0  0  0  0  0  0  0  0  0  0
    0.4266   -0.6664   -0.8694 N   0  0  0  0  0  0  0  0  0  0  0  0
    1.7251   -0.8733   -0.3107 C   0  0  0  0  0  0  0  0  0  0  0  0
    2.0630   -2.0567    0.3098 C   0  0  0  0  0  0  0  0  0  0  0  0
    3.3049   -2.2936    0.8605 C   0  0  0  0  0  0  0  0  0  0  0  0
    4.2677   -1.2976    0.7913 C   0  0  0  0  0  0  0  0  0  0  0  0
    5.5383   -1.4640    1.3228 O   0  0  0  0  0  0  0  0  0  0  0  0
    6.6240   -0.6215    1.0229 C   0  0  0  0  0  0  0  0  0  0  0  0
    6.2954    0.5371    0.1449 C   0  0  0  0  0  0  0  0  0  0  0  0
    4.9187    0.8635    0.1187 O   0  0  0  0  0  0  0  0  0  0  0  0
    3.9238   -0.1085    0.1662 C   0  0  0  0  0  0  0  0  0  0  0  0
    2.6779    0.1147   -0.3802 C   0  0  0  0  0  0  0  0  0  0  0  0
   -2.7218    1.1189   -1.1628 C   0  0  0  0  0  0  0  0  0  0  0  0
   -2.6789    2.1256   -1.9391 O   0  0  0  0  0  0  0  0  0  0  0  0
   -3.7798    0.8928   -0.2674 N   0  0  0  0  0  0  0  0  0  0  0  0
   -4.9406    1.7123   -0.0768 C   0  0  0  0  0  0  0  0  0  0  0  0
   -6.0165    0.7505    0.3916 C   0  0  0  0  0  0  0  0  0  0  0  0
   -5.3449   -0.6065    0.4746 C   0  0  0  0  0  0  0  0  0  0  0  0
   -3.8885   -0.2196    0.6326 C   0  0  0  0  0  0  0  0  0  0  0  0
   -1.1359    1.6156    1.0325 H   0  0  0  0  0  0  0  0  0  0  0  0
    0.0234    2.3169   -0.1119 H   0  0  0  0  0  0  0  0  0  0  0  0
    0.6091    1.1410    1.1916 H   0  0  0  0  0  0  0  0  0  0  0  0
   -2.1289   -1.2414   -2.7812 H   0  0  0  0  0  0  0  0  0  0  0  0
    1.3438   -2.8681    0.3898 H   0  0  0  0  0  0  0  0  0  0  0  0
    3.5626   -3.2271    1.3468 H   0  0  0  0  0  0  0  0  0  0  0  0
    7.3924   -1.2456    0.4828 H   0  0  0  0  0  0  0  0  0  0  0  0
    7.0923   -0.2935    1.9912 H   0  0  0  0  0  0  0  0  0  0  0  0
    6.6567    0.4403   -0.8923 H   0  0  0  0  0  0  0  0  0  0  0  0
    6.8288    1.4408    0.5622 H   0  0  0  0  0  0  0  0  0  0  0  0
    2.4803    1.0797   -0.8579 H   0  0  0  0  0  0  0  0  0  0  0  0
   -4.7504    2.4739    0.7331 H   0  0  0  0  0  0  0  0  0  0  0  0
   -5.2618    2.2396   -0.9967 H   0  0  0  0  0  0  0  0  0  0  0  0
   -6.8495    0.7427   -0.3428 H   0  0  0  0  0  0  0  0  0  0  0  0
   -6.4399    1.0665    1.3796 H   0  0  0  0  0  0  0  0  0  0  0  0
   -5.7103   -1.2056    1.3322 H   0  0  0  0  0  0  0  0  0  0  0  0
   -5.4447   -1.1215   -0.4926 H   0  0  0  0  0  0  0  0  0  0  0  0
   -3.2070   -1.0498    0.3596 H   0  0  0  0  0  0  0  0  0  0  0  0
   -3.6961    0.1216    1.6824 H   0  0  0  0  0  0  0  0  0  0  0  0
  1  2  1  0
  2  3  2  0
  3  4  1  0
  4  5  2  0
  5  6  1  0
  6  7  1  0
  7  8  2  0
  8  9  1  0
  9 10  2  0
 10 11  1  0
 11 12  1  0
 12 13  1  0
 13 14  1  0
 14 15  1  0
 15 16  2  0
  3 17  1  0
 17 18  2  0
 17 19  1  0
 19 20  1  0
 20 21  1  0
 21 22  1  0
 22 23  1  0
  6  2  1  0
 16  7  1  0
 23 19  1  0
 15 10  1  0
  1 24  1  0
  1 25  1  0
  1 26  1  0
  4 27  1  0
  8 28  1  0
  9 29  1  0
 12 30  1  0
 12 31  1  0
 13 32  1  0
 13 33  1  0
 16 34  1  0
 20 35  1  0
 20 36  1  0
 21 37  1  0
 21 38  1  0
 22 39  1  0
 22 40  1  0
 23 41  1  0
 23 42  1  0
M  END
$$$$
[H]Oc1c([H])c([H])c([H])c(C#Cc2c([H])c(O[C@@]([H])(C([H])([H])[H])C([H])([H])OC([H])([H])[H])c([H])c(C(=O)N([H])c3nn(C([H])([H])[H])c([H])c3[H])c2[H])c1[H]
     RDKit          3D

 53 55  0  0  0  0  0  0  0  0999 V2000
   -3.2585    5.6803   -1.2319 C   0  0  0  0  0  0  0  0  0  0  0  0
   -2.0878    6.3139   -0.9348 O   0  0  0  0  0  0  0  0  0  0  0  0
   -1.0250    5.4528   -0.8771 C   0  0  0  0  0  0  0  0  0  0  0  0
   -1.2166    4.4105    0.1932 C   0  0  2  0  0  0  0  0  0  0  0  0
   -1.2622    5.1409    1.5419 C   0  0  0  0  0  0  0  0  0  0  0  0
   -0.0940    3.5849    0.2085 O   0  0  0  0  0  0  0  0  0  0  0  0
   -0.0524    2.2099    0.1049 C   0  0  0  0  0  0  0  0  0  0  0  0
    1.2055    1.6147    0.1476 C   0  0  0  0  0  0  0  0  0  0  0  0
    1.3936    0.2561    0.0555 C   0  0  0  0  0  0  0  0  0  0  0  0
    0.2517   -0.5388   -0.0867 C   0  0  0  0  0  0  0  0  0  0  0  0
   -1.0025   -0.0008   -0.1333 C   0  0  0  0  0  0  0  0  0  0  0  0
   -1.1416    1.3889   -0.0355 C   0  0  0  0  0  0  0  0  0  0  0  0
   -2.2379   -0.8047   -0.2767 C   0  0  0  0  0  0  0  0  0  0  0  0
   -3.3220   -0.2145   -0.5647 O   0  0  0  0  0  0  0  0  0  0  0  0
   -2.1556   -2.1809   -0.0874 N   0  0  0  0  0  0  0  0  0  0  0  0
   -3.2690   -3.0565   -0.1981 C   0  0  0  0  0  0  0  0  0  0  0  0
   -4.5652   -2.7474   -0.4940 C   0  0  0  0  0  0  0  0  0  0  0  0
   -5.2889   -3.9519   -0.4859 C   0  0  0  0  0  0  0  0  0  0  0  0
   -4.4360   -4.9218   -0.1948 N   0  0  0  0  0  0  0  0  0  0  0  0
   -4.8027   -6.3257   -0.0909 C   0  0  0  0  0  0  0  0  0  0  0  0
   -3.2458   -4.4058   -0.0238 N   0  0  0  0  0  0  0  0  0  0  0  0
    2.7097   -0.3126    0.1043 C   0  0  0  0  0  0  0  0  0  0  0  0
    3.8087   -0.8091    0.1407 C   0  0  0  0  0  0  0  0  0  0  0  0
    5.1230   -1.4290    0.1772 C   0  0  0  0  0  0  0  0  0  0  0  0
    5.8364   -1.6361   -0.9851 C   0  0  0  0  0  0  0  0  0  0  0  0
    7.0777   -2.2212   -0.9546 C   0  0  0  0  0  0  0  0  0  0  0  0
    7.6001   -2.5990    0.2608 C   0  0  0  0  0  0  0  0  0  0  0  0
    6.8927   -2.3970    1.4449 C   0  0  0  0  0  0  0  0  0  0  0  0
    7.4580   -2.7958    2.6677 O   0  0  0  0  0  0  0  0  0  0  0  0
    5.6485   -1.8061    1.3733 C   0  0  0  0  0  0  0  0  0  0  0  0
   -3.6096    4.9130   -0.5355 H   0  0  0  0  0  0  0  0  0  0  0  0
   -3.1524    5.1962   -2.2301 H   0  0  0  0  0  0  0  0  0  0  0  0
   -4.0362    6.4718   -1.3914 H   0  0  0  0  0  0  0  0  0  0  0  0
   -0.8410    4.9667   -1.8708 H   0  0  0  0  0  0  0  0  0  0  0  0
   -0.1037    6.0268   -0.6093 H   0  0  0  0  0  0  0  0  0  0  0  0
   -2.1105    3.7933    0.0824 H   0  0  0  0  0  0  0  0  0  0  0  0
   -1.7296    4.4459    2.2618 H   0  0  0  0  0  0  0  0  0  0  0  0
   -0.2177    5.3973    1.8179 H   0  0  0  0  0  0  0  0  0  0  0  0
   -1.8137    6.0825    1.4164 H   0  0  0  0  0  0  0  0  0  0  0  0
    2.0624    2.2989    0.2611 H   0  0  0  0  0  0  0  0  0  0  0  0
    0.4049   -1.5945   -0.1617 H   0  0  0  0  0  0  0  0  0  0  0  0
   -2.1245    1.8072   -0.0724 H   0  0  0  0  0  0  0  0  0  0  0  0
   -1.2236   -2.6473    0.1559 H   0  0  0  0  0  0  0  0  0  0  0  0
   -5.0225   -1.7826   -0.7060 H   0  0  0  0  0  0  0  0  0  0  0  0
   -6.3550   -4.0045   -0.6907 H   0  0  0  0  0  0  0  0  0  0  0  0
   -3.9610   -6.8789    0.3923 H   0  0  0  0  0  0  0  0  0  0  0  0
   -5.7172   -6.4653    0.5045 H   0  0  0  0  0  0  0  0  0  0  0  0
   -4.9768   -6.7470   -1.0915 H   0  0  0  0  0  0  0  0  0  0  0  0
    5.4416   -1.3453   -1.9523 H   0  0  0  0  0  0  0  0  0  0  0  0
    7.6239   -2.3739   -1.8980 H   0  0  0  0  0  0  0  0  0  0  0  0
    8.5865   -3.0647    0.2926 H   0  0  0  0  0  0  0  0  0  0  0  0
    7.2559   -3.7557    2.9798 H   0  0  0  0  0  0  0  0  0  0  0  0
    5.0781   -1.6381    2.2800 H   0  0  0  0  0  0  0  0  0  0  0  0
  1  2  1  0
  2  3  1  0
  3  4  1  0
  4  5  1  0
  4  6  1  0
  6  7  1  0
  7  8  2  0
  8  9  1  0
  9 10  2  0
 10 11  1  0
 11 12  2  0
 11 13  1  0
 13 14  2  0
 13 15  1  0
 15 16  1  0
 16 17  1  0
 17 18  2  0
 18 19  1  0
 19 20  1  0
 19 21  1  0
  9 22  1  0
 22 23  3  0
 23 24  1  0
 24 25  2  0
 25 26  1  0
 26 27  2  0
 27 28  1  0
 28 29  1  0
 28 30  2  0
 12  7  1  0
 21 16  2  0
 30 24  1  0
  1 31  1  0
  1 32  1  0
  1 33  1  0
  3 34  1  0
  3 35  1  0
  4 36  1  6
  5 37  1  0
  5 38  1  0
  5 39  1  0
  8 40  1  0
 10 41  1  0
 12 42  1  0
 15 43  1  0
 17 44  1  0
 18 45  1  0
 20 46  1  0
 20 47  1  0
 20 48  1  0
 25 49  1  0
 26 50  1  0
 27 51  1  0
 29 52  1  0
 30 53  1  0
M  END
$$$$
[H]c1c([H])c([H])c(N([H])C(=O)C([H])(N([H])[H])[C@@]([H])(C(=O)N([H])[C@]([H])(C(=O)N([H])[C@]([H])(C(=O)N([H])C([H])([H])C([H])([H])c2c([H])c([H])c([H])c([H])c2[H])C([H])([H])C([H])([H])C(=O)N([H])[H])C([H])([H])C(=O)N([H])[H])C([H])([H])C([H])([H])N=C(N([H])[H])N([H])[H])c([H])c1[H]
     RDKit          3D

 88 89  0  0  0  0  0  0  0  0999 V2000
   -4.8865   -0.8583    1.2364 N   0  0  0  0  0  0  0  0  0  0  0  0
   -4.6511   -0.4148   -0.0456 C   0  0  0  0  0  0  0  0  0  0  0  0
   -3.4903   -0.8448   -0.8562 C   0  0  2  0  0  0  0  0  0  0  0  0
   -3.3557   -2.2360   -1.2995 C   0  0  0  0  0  0  0  0  0  0  0  0
   -3.2797   -3.4158   -0.4570 C   0  0  0  0  0  0  0  0  0  0  0  0
   -4.4244   -3.7180    0.3750 N   0  0  0  0  0  0  0  0  0  0  0  0
   -5.4227   -4.4160   -0.0898 C   0  0  0  0  0  0  0  0  0  0  0  0
   -6.5204   -4.6854    0.7648 N   0  0  0  0  0  0  0  0  0  0  0  0
   -5.4547   -4.9168   -1.3982 N   0  0  0  0  0  0  0  0  0  0  0  0
   -2.1866   -0.2789   -0.3617 C   0  0  0  0  0  0  0  0  0  0  0  0
   -1.6490    0.7353   -0.9180 O   0  0  0  0  0  0  0  0  0  0  0  0
   -1.4599   -0.8051    0.7409 N   0  0  0  0  0  0  0  0  0  0  0  0
   -0.2204   -0.2213    1.1964 C   0  0  1  0  0  0  0  0  0  0  0  0
   -0.3130    0.1683    2.6394 C   0  0  0  0  0  0  0  0  0  0  0  0
   -0.5949   -0.8836    3.5847 C   0  0  0  0  0  0  0  0  0  0  0  0
   -0.6923   -0.5482    4.9894 N   0  0  0  0  0  0  0  0  0  0  0  0
   -0.7744   -2.0927    3.3360 O   0  0  0  0  0  0  0  0  0  0  0  0
    0.9734   -1.1262    0.9232 C   0  0  0  0  0  0  0  0  0  0  0  0
    0.9586   -2.3441    1.1068 O   0  0  0  0  0  0  0  0  0  0  0  0
    2.1579   -0.5519    0.4296 N   0  0  0  0  0  0  0  0  0  0  0  0
    3.3725   -1.2034    0.1028 C   0  0  1  0  0  0  0  0  0  0  0  0
    3.3850   -1.3880   -1.4368 C   0  0  0  0  0  0  0  0  0  0  0  0
    2.1950   -2.1973   -1.8978 C   0  0  0  0  0  0  0  0  0  0  0  0
    2.3050   -2.3075   -3.3891 C   0  0  0  0  0  0  0  0  0  0  0  0
    1.2693   -2.9002   -4.1341 N   0  0  0  0  0  0  0  0  0  0  0  0
    3.3227   -1.8735   -3.9647 O   0  0  0  0  0  0  0  0  0  0  0  0
    4.5417   -0.3214    0.4480 C   0  0  0  0  0  0  0  0  0  0  0  0
    4.3245    0.7725    1.0747 O   0  0  0  0  0  0  0  0  0  0  0  0
    5.8349   -0.6848    0.0876 N   0  0  0  0  0  0  0  0  0  0  0  0
    7.0084    0.1420    0.3718 C   0  0  0  0  0  0  0  0  0  0  0  0
    6.8823    1.4695   -0.3598 C   0  0  0  0  0  0  0  0  0  0  0  0
    8.0699    2.3050   -0.1041 C   0  0  0  0  0  0  0  0  0  0  0  0
    8.1612    3.1824    0.9138 C   0  0  0  0  0  0  0  0  0  0  0  0
    9.2600    3.9749    1.1315 C   0  0  0  0  0  0  0  0  0  0  0  0
   10.3394    3.8984    0.2957 C   0  0  0  0  0  0  0  0  0  0  0  0
   10.2875    2.9856   -0.7896 C   0  0  0  0  0  0  0  0  0  0  0  0
    9.1700    2.2085   -0.9788 C   0  0  0  0  0  0  0  0  0  0  0  0
   -5.0116    1.0040   -0.3220 C   0  0  0  0  0  0  0  0  0  0  0  0
   -4.5080    1.4851   -1.4130 O   0  0  0  0  0  0  0  0  0  0  0  0
   -5.8299    1.7399    0.5169 N   0  0  0  0  0  0  0  0  0  0  0  0
   -6.1985    3.0838    0.2801 C   0  0  0  0  0  0  0  0  0  0  0  0
   -7.3374    3.6073    0.8855 C   0  0  0  0  0  0  0  0  0  0  0  0
   -7.7513    4.9092    0.7363 C   0  0  0  0  0  0  0  0  0  0  0  0
   -7.0309    5.7820   -0.0476 C   0  0  0  0  0  0  0  0  0  0  0  0
   -5.9072    5.2939   -0.6544 C   0  0  0  0  0  0  0  0  0  0  0  0
   -5.4786    3.9617   -0.5047 C   0  0  0  0  0  0  0  0  0  0  0  0
   -4.0183   -1.1457    1.7942 H   0  0  0  0  0  0  0  0  0  0  0  0
   -5.5344   -0.3363    1.8650 H   0  0  0  0  0  0  0  0  0  0  0  0
   -5.5573   -0.9289   -0.6794 H   0  0  0  0  0  0  0  0  0  0  0  0
   -3.6351   -0.2580   -1.8490 H   0  0  0  0  0  0  0  0  0  0  0  0
   -2.5500   -2.2378   -2.1161 H   0  0  0  0  0  0  0  0  0  0  0  0
   -4.2854   -2.4055   -1.9837 H   0  0  0  0  0  0  0  0  0  0  0  0
   -3.2566   -4.3119   -1.1913 H   0  0  0  0  0  0  0  0  0  0  0  0
   -2.3194   -3.5815    0.0877 H   0  0  0  0  0  0  0  0  0  0  0  0
   -7.2815   -5.3652    0.5949 H   0  0  0  0  0  0  0  0  0  0  0  0
   -6.5851   -4.1377    1.6830 H   0  0  0  0  0  0  0  0  0  0  0  0
   -5.1235   -5.8891   -1.5927 H   0  0  0  0  0  0  0  0  0  0  0  0
   -5.7880   -4.3984   -2.2313 H   0  0  0  0  0  0  0  0  0  0  0  0
   -1.8369   -1.6310    1.2240 H   0  0  0  0  0  0  0  0  0  0  0  0
    0.0184    0.7217    0.6194 H   0  0  0  0  0  0  0  0  0  0  0  0
    0.5854    0.7668    2.9738 H   0  0  0  0  0  0  0  0  0  0  0  0
   -1.1672    0.9048    2.7105 H   0  0  0  0  0  0  0  0  0  0  0  0
    0.1048   -0.0776    5.4484 H   0  0  0  0  0  0  0  0  0  0  0  0
   -1.5337   -0.7715    5.5363 H   0  0  0  0  0  0  0  0  0  0  0  0
    2.1573    0.5363    0.2881 H   0  0  0  0  0  0  0  0  0  0  0  0
    3.5189   -2.2022    0.5357 H   0  0  0  0  0  0  0  0  0  0  0  0
    4.3440   -1.9028   -1.6533 H   0  0  0  0  0  0  0  0  0  0  0  0
    3.3383   -0.4148   -1.9539 H   0  0  0  0  0  0  0  0  0  0  0  0
    1.2917   -1.5863   -1.6453 H   0  0  0  0  0  0  0  0  0  0  0  0
    2.1388   -3.1971   -1.4597 H   0  0  0  0  0  0  0  0  0  0  0  0
    0.4743   -3.4464   -3.7453 H   0  0  0  0  0  0  0  0  0  0  0  0
    1.2846   -2.7905   -5.1913 H   0  0  0  0  0  0  0  0  0  0  0  0
    6.0246   -1.5637   -0.4259 H   0  0  0  0  0  0  0  0  0  0  0  0
    7.9509   -0.3224    0.0542 H   0  0  0  0  0  0  0  0  0  0  0  0
    7.0199    0.3401    1.4535 H   0  0  0  0  0  0  0  0  0  0  0  0
    6.8657    1.2486   -1.4855 H   0  0  0  0  0  0  0  0  0  0  0  0
    5.9827    2.0359   -0.1417 H   0  0  0  0  0  0  0  0  0  0  0  0
    7.3204    3.2783    1.6265 H   0  0  0  0  0  0  0  0  0  0  0  0
    9.3077    4.6816    1.9596 H   0  0  0  0  0  0  0  0  0  0  0  0
   11.2328    4.4883    0.3890 H   0  0  0  0  0  0  0  0  0  0  0  0
   11.1180    2.8940   -1.4700 H   0  0  0  0  0  0  0  0  0  0  0  0
    9.0647    1.5131   -1.7856 H   0  0  0  0  0  0  0  0  0  0  0  0
   -6.2386    1.3182    1.3930 H   0  0  0  0  0  0  0  0  0  0  0  0
   -7.9136    2.9343    1.4965 H   0  0  0  0  0  0  0  0  0  0  0  0
   -8.6331    5.3227    1.2118 H   0  0  0  0  0  0  0  0  0  0  0  0
   -7.3586    6.8182   -0.1751 H   0  0  0  0  0  0  0  0  0  0  0  0
   -5.3300    5.9638   -1.2711 H   0  0  0  0  0  0  0  0  0  0  0  0
   -4.5875    3.6602   -1.0076 H   0  0  0  0  0  0  0  0  0  0  0  0
  1  2  1  0
  2  3  1  0
  3  4  1  0
  4  5  1  0
  5  6  1  0
  6  7  2  3
  7  8  1  0
  7  9  1  0
  3 10  1  0
 10 11  2  0
 10 12  1  0
 12 13  1  0
 13 14  1  0
 14 15  1  0
 15 16  1  0
 15 17  2  0
 13 18  1  0
 18 19  2  0
 18 20  1  0
 20 21  1  0
 21 22  1  0
 22 23  1  0
 23 24  1  0
 24 25  1  0
 24 26  2  0
 21 27  1  0
 27 28  2  0
 27 29  1  0
 29 30  1  0
 30 31  1  0
 31 32  1  0
 32 33  2  0
 33 34  1  0
 34 35  2  0
 35 36  1  0
 36 37  2  0
  2 38  1  0
 38 39  2  0
 38 40  1  0
 40 41  1  0
 41 42  2  0
 42 43  1  0
 43 44  2  0
 44 45  1  0
 45 46  2  0
 37 32  1  0
 46 41  1  0
  1 47  1  0
  1 48  1  0
  2 49  1  0
  3 50  1  6
  4 51  1  0
  4 52  1  0
  5 53  1  0
  5 54  1  0
  8 55  1  0
  8 56  1  0
  9 57  1  0
  9 58  1  0
 12 59  1  0
 13 60  1  6
 14 61  1  0
 14 62  1  0
 16 63  1  0
 16 64  1  0
 20 65  1  0
 21 66  1  1
 22 67  1  0
 22 68  1  0
 23 69  1  0
 23 70  1  0
 25 71  1  0
 25 72  1  0
 29 73  1  0
 30 74  1  0
 30 75  1  0
 31 76  1  0
 31 77  1  0
 33 78  1  0
 34 79  1  0
 35 80  1  0
 36 81  1  0
 37 82  1  0
 40 83  1  0
 42 84  1  0
 43 85  1  0
 44 86  1  0
 45 87  1  0
 46 88  1  0
M  END
$$$$
[H]c1onc(N([H])C(=O)c2c([H])c([H])c(-c3c([H])c([H])c(C(=O)N([H])[H])c4c5c(n([H])c34)C([H])([H])C([H])([H])N(C(=O)C#CC([H])([H])[H])C5([H])[H])c([H])c2[H])c1[H]
     RDKit          3D

 56 60  0  0  0  0  0  0  0  0999 V2000
   -7.6597    3.1767   -2.4790 C   0  0  0  0  0  0  0  0  0  0  0  0
   -7.0390    2.0901   -1.7275 C   0  0  0  0  0  0  0  0  0  0  0  0
   -6.5131    1.1947   -1.1230 C   0  0  0  0  0  0  0  0  0  0  0  0
   -5.8715    0.1131   -0.4188 C   0  0  0  0  0  0  0  0  0  0  0  0
   -6.2795   -1.0585   -0.5956 O   0  0  0  0  0  0  0  0  0  0  0  0
   -4.7967    0.3759    0.4583 N   0  0  0  0  0  0  0  0  0  0  0  0
   -4.3014    1.7127    0.6854 C   0  0  0  0  0  0  0  0  0  0  0  0
   -2.8578    1.8027    0.2370 C   0  0  0  0  0  0  0  0  0  0  0  0
   -2.1424    0.5308    0.5401 C   0  0  0  0  0  0  0  0  0  0  0  0
   -0.8275    0.3348    0.4245 N   0  0  0  0  0  0  0  0  0  0  0  0
   -0.5083   -0.9103    0.8021 C   0  0  0  0  0  0  0  0  0  0  0  0
    0.6988   -1.5849    0.8432 C   0  0  0  0  0  0  0  0  0  0  0  0
    0.7373   -2.8933    1.2664 C   0  0  0  0  0  0  0  0  0  0  0  0
   -0.3971   -3.5405    1.6497 C   0  0  0  0  0  0  0  0  0  0  0  0
   -1.6365   -2.8758    1.6181 C   0  0  0  0  0  0  0  0  0  0  0  0
   -2.8031   -3.6057    2.0604 C   0  0  0  0  0  0  0  0  0  0  0  0
   -2.7651   -5.0358    1.7365 N   0  0  0  0  0  0  0  0  0  0  0  0
   -3.8144   -3.2544    2.6521 O   0  0  0  0  0  0  0  0  0  0  0  0
   -1.6750   -1.5806    1.1937 C   0  0  0  0  0  0  0  0  0  0  0  0
   -2.6970   -0.6295    1.0078 C   0  0  0  0  0  0  0  0  0  0  0  0
   -4.1553   -0.7100    1.1633 C   0  0  0  0  0  0  0  0  0  0  0  0
    1.9224   -0.9262    0.4257 C   0  0  0  0  0  0  0  0  0  0  0  0
    3.0467   -0.9528    1.2491 C   0  0  0  0  0  0  0  0  0  0  0  0
    4.2323   -0.3431    0.8637 C   0  0  0  0  0  0  0  0  0  0  0  0
    4.3402    0.3063   -0.3391 C   0  0  0  0  0  0  0  0  0  0  0  0
    3.2267    0.3279   -1.1457 C   0  0  0  0  0  0  0  0  0  0  0  0
    2.0362   -0.2760   -0.7753 C   0  0  0  0  0  0  0  0  0  0  0  0
    5.5441    0.9716   -0.8209 C   0  0  0  0  0  0  0  0  0  0  0  0
    5.5633    1.5482   -1.9446 O   0  0  0  0  0  0  0  0  0  0  0  0
    6.7355    1.0061   -0.0674 N   0  0  0  0  0  0  0  0  0  0  0  0
    7.9444    1.6210   -0.4464 C   0  0  0  0  0  0  0  0  0  0  0  0
    8.2877    2.3146   -1.5776 C   0  0  0  0  0  0  0  0  0  0  0  0
    9.6051    2.7132   -1.4553 C   0  0  0  0  0  0  0  0  0  0  0  0
   10.0042    2.2646   -0.2955 O   0  0  0  0  0  0  0  0  0  0  0  0
    9.0636    1.6295    0.3085 N   0  0  0  0  0  0  0  0  0  0  0  0
   -8.3224    2.7240   -3.2586 H   0  0  0  0  0  0  0  0  0  0  0  0
   -8.2693    3.8485   -1.8407 H   0  0  0  0  0  0  0  0  0  0  0  0
   -6.8904    3.8190   -2.9762 H   0  0  0  0  0  0  0  0  0  0  0  0
   -4.9019    2.4152    0.0925 H   0  0  0  0  0  0  0  0  0  0  0  0
   -4.4028    1.9282    1.7660 H   0  0  0  0  0  0  0  0  0  0  0  0
   -2.8235    2.0712   -0.8293 H   0  0  0  0  0  0  0  0  0  0  0  0
   -2.3811    2.6091    0.8180 H   0  0  0  0  0  0  0  0  0  0  0  0
   -0.1020    1.0258    0.0954 H   0  0  0  0  0  0  0  0  0  0  0  0
    1.6928   -3.4385    1.3011 H   0  0  0  0  0  0  0  0  0  0  0  0
   -0.4317   -4.5635    1.9914 H   0  0  0  0  0  0  0  0  0  0  0  0
   -3.0140   -5.3676    0.7981 H   0  0  0  0  0  0  0  0  0  0  0  0
   -2.4821   -5.6858    2.4789 H   0  0  0  0  0  0  0  0  0  0  0  0
   -4.5768   -1.6753    0.7912 H   0  0  0  0  0  0  0  0  0  0  0  0
   -4.4228   -0.6014    2.2247 H   0  0  0  0  0  0  0  0  0  0  0  0
    2.9783   -1.4635    2.2063 H   0  0  0  0  0  0  0  0  0  0  0  0
    5.0663   -0.3980    1.5437 H   0  0  0  0  0  0  0  0  0  0  0  0
    3.2415    0.8218   -2.1066 H   0  0  0  0  0  0  0  0  0  0  0  0
    1.1851   -0.2460   -1.4320 H   0  0  0  0  0  0  0  0  0  0  0  0
    6.7003    0.5157    0.8754 H   0  0  0  0  0  0  0  0  0  0  0  0
    7.6865    2.5329   -2.4225 H   0  0  0  0  0  0  0  0  0  0  0  0
   10.2221    3.2710   -2.1300 H   0  0  0  0  0  0  0  0  0  0  0  0
  1  2  1  0
  2  3  3  0
  3  4  1  0
  4  5  2  0
  4  6  1  0
  6  7  1  0
  7  8  1  0
  8  9  1  0
  9 10  1  0
 10 11  1  0
 11 12  2  0
 12 13  1  0
 13 14  2  0
 14 15  1  0
 15 16  1  0
 16 17  1  0
 16 18  2  0
 15 19  2  0
 19 20  1  0
 20 21  1  0
 12 22  1  0
 22 23  2  0
 23 24  1  0
 24 25  2  0
 25 26  1  0
 26 27  2  0
 25 28  1  0
 28 29  2  0
 28 30  1  0
 30 31  1  0
 31 32  1  0
 32 33  2  0
 33 34  1  0
 34 35  1  0
 21  6  1  0
 27 22  1  0
 35 31  2  0
 20  9  2  0
 19 11  1  0
  1 36  1  0
  1 37  1  0
  1 38  1  0
  7 39  1  0
  7 40  1  0
  8 41  1  0
  8 42  1  0
 10 43  1  0
 13 44  1  0
 14 45  1  0
 17 46  1  0
 17 47  1  0
 21 48  1  0
 21 49  1  0
 23 50  1  0
 24 51  1  0
 26 52  1  0
 27 53  1  0
 30 54  1  0
 32 55  1  0
 33 56  1  0
M  END
$$$$
[H]/C(C(=O)N([H])c1c(N2C([H])([H])C([H])([H])N(C([H])([H])[H])C([H])(C(=O)N([H])C([H])([H])C([H])([H])[H])C2([H])[H])c([H])c2nc([H])nc(N([H])c3c([H])c([H])c(OC([H])([H])c4c([H])c([H])c([H])c(F)c4[H])c(Cl)c3[H])c2c1[H])=C(/[H])C([H])([H])N(C([H])([H])[H])C([H])([H])[H]
     RDKit          3D

 88 92  0  0  0  0  0  0  0  0999 V2000
   -7.3040   -1.2130    0.1098 C   0  0  0  0  0  0  0  0  0  0  0  0
   -6.2196   -0.9808    1.1496 C   0  0  0  0  0  0  0  0  0  0  0  0
   -5.3385    0.0716    0.7159 N   0  0  0  0  0  0  0  0  0  0  0  0
   -5.8524    1.3779    0.4973 C   0  0  0  0  0  0  0  0  0  0  0  0
   -7.0779    1.5597    0.7011 O   0  0  0  0  0  0  0  0  0  0  0  0
   -4.9177    2.4447    0.0431 C   0  0  0  0  0  0  0  0  0  0  0  0
   -3.6112    2.4522    0.7776 C   0  0  0  0  0  0  0  0  0  0  0  0
   -2.6349    3.0805   -0.1262 N   0  0  0  0  0  0  0  0  0  0  0  0
   -3.1861    4.0793   -1.0100 C   0  0  0  0  0  0  0  0  0  0  0  0
   -4.4369    4.6933   -0.4316 C   0  0  0  0  0  0  0  0  0  0  0  0
   -5.4638    3.7494   -0.0637 N   0  0  0  0  0  0  0  0  0  0  0  0
   -6.1307    4.2550    1.0995 C   0  0  0  0  0  0  0  0  0  0  0  0
   -1.2657    2.7255   -0.1241 C   0  0  0  0  0  0  0  0  0  0  0  0
   -0.3245    3.5629    0.4103 C   0  0  0  0  0  0  0  0  0  0  0  0
    1.0272    3.2381    0.4889 C   0  0  0  0  0  0  0  0  0  0  0  0
    1.8792    4.1151    1.0367 N   0  0  0  0  0  0  0  0  0  0  0  0
    3.1708    3.7807    1.1091 C   0  0  0  0  0  0  0  0  0  0  0  0
    3.5975    2.6096    0.6501 N   0  0  0  0  0  0  0  0  0  0  0  0
    2.8178    1.6757    0.0891 C   0  0  0  0  0  0  0  0  0  0  0  0
    3.3203    0.4789   -0.4165 N   0  0  0  0  0  0  0  0  0  0  0  0
    4.6505    0.0442   -0.3469 C   0  0  0  0  0  0  0  0  0  0  0  0
    5.5680    0.4193    0.6176 C   0  0  0  0  0  0  0  0  0  0  0  0
    6.8630   -0.0450    0.6192 C   0  0  0  0  0  0  0  0  0  0  0  0
    7.2671   -0.9210   -0.3780 C   0  0  0  0  0  0  0  0  0  0  0  0
    8.5623   -1.3754   -0.3613 O   0  0  0  0  0  0  0  0  0  0  0  0
    9.5802   -1.1018    0.5414 C   0  0  0  0  0  0  0  0  0  0  0  0
    9.2471   -1.5818    1.9070 C   0  0  0  0  0  0  0  0  0  0  0  0
    9.8811   -1.0116    2.9893 C   0  0  0  0  0  0  0  0  0  0  0  0
    9.6121   -1.4234    4.2628 C   0  0  0  0  0  0  0  0  0  0  0  0
    8.6739   -2.4433    4.4585 C   0  0  0  0  0  0  0  0  0  0  0  0
    8.0449   -3.0114    3.4033 C   0  0  0  0  0  0  0  0  0  0  0  0
    7.1151   -4.0146    3.5571 F   0  0  0  0  0  0  0  0  0  0  0  0
    8.3386   -2.5724    2.1121 C   0  0  0  0  0  0  0  0  0  0  0  0
    6.3664   -1.3000   -1.3413 C   0  0  0  0  0  0  0  0  0  0  0  0
    6.8451   -2.4163   -2.6258 Cl  0  0  0  0  0  0  0  0  0  0  0  0
    5.0884   -0.8235   -1.3194 C   0  0  0  0  0  0  0  0  0  0  0  0
    1.4614    2.0230    0.0124 C   0  0  0  0  0  0  0  0  0  0  0  0
    0.5387    1.1458   -0.5381 C   0  0  0  0  0  0  0  0  0  0  0  0
   -0.8153    1.4801   -0.6126 C   0  0  0  0  0  0  0  0  0  0  0  0
   -1.7169    0.6135   -1.2265 N   0  0  0  0  0  0  0  0  0  0  0  0
   -1.5326   -0.7151   -1.5818 C   0  0  0  0  0  0  0  0  0  0  0  0
   -0.5149   -1.3822   -1.3977 O   0  0  0  0  0  0  0  0  0  0  0  0
   -2.6527   -1.4533   -2.2602 C   0  0  0  0  0  0  0  0  0  0  0  0
   -2.5422   -2.6991   -2.6218 C   0  0  0  0  0  0  0  0  0  0  0  0
   -3.6388   -3.4457   -3.2956 C   0  0  0  0  0  0  0  0  0  0  0  0
   -3.9812   -4.5742   -2.4780 N   0  0  0  0  0  0  0  0  0  0  0  0
   -4.5814   -4.1369   -1.2509 C   0  0  0  0  0  0  0  0  0  0  0  0
   -4.9261   -5.4214   -3.1769 C   0  0  0  0  0  0  0  0  0  0  0  0
   -7.5323   -2.3065    0.1405 H   0  0  0  0  0  0  0  0  0  0  0  0
   -8.1826   -0.5985    0.3037 H   0  0  0  0  0  0  0  0  0  0  0  0
   -6.9273   -0.9959   -0.9295 H   0  0  0  0  0  0  0  0  0  0  0  0
   -6.7349   -0.6506    2.0817 H   0  0  0  0  0  0  0  0  0  0  0  0
   -5.6875   -1.9234    1.3678 H   0  0  0  0  0  0  0  0  0  0  0  0
   -4.3331   -0.1947    0.5776 H   0  0  0  0  0  0  0  0  0  0  0  0
   -4.6655    2.1380   -1.0251 H   0  0  0  0  0  0  0  0  0  0  0  0
   -3.7346    3.1475    1.6389 H   0  0  0  0  0  0  0  0  0  0  0  0
   -3.3361    1.4418    1.0722 H   0  0  0  0  0  0  0  0  0  0  0  0
   -3.3413    3.7108   -2.0460 H   0  0  0  0  0  0  0  0  0  0  0  0
   -2.4655    4.9406   -1.1364 H   0  0  0  0  0  0  0  0  0  0  0  0
   -4.8896    5.3906   -1.1824 H   0  0  0  0  0  0  0  0  0  0  0  0
   -4.1615    5.3541    0.4276 H   0  0  0  0  0  0  0  0  0  0  0  0
   -6.0659    5.3843    1.0538 H   0  0  0  0  0  0  0  0  0  0  0  0
   -7.1609    3.9329    1.2457 H   0  0  0  0  0  0  0  0  0  0  0  0
   -5.5803    3.9863    2.0487 H   0  0  0  0  0  0  0  0  0  0  0  0
   -0.6078    4.5141    0.7900 H   0  0  0  0  0  0  0  0  0  0  0  0
    3.8572    4.4790    1.5475 H   0  0  0  0  0  0  0  0  0  0  0  0
    2.6331   -0.1708   -0.9003 H   0  0  0  0  0  0  0  0  0  0  0  0
    5.2780    1.0677    1.3958 H   0  0  0  0  0  0  0  0  0  0  0  0
    7.5089    0.3118    1.3994 H   0  0  0  0  0  0  0  0  0  0  0  0
    9.8204   -0.0076    0.5782 H   0  0  0  0  0  0  0  0  0  0  0  0
   10.5379   -1.6040    0.2280 H   0  0  0  0  0  0  0  0  0  0  0  0
   10.6048   -0.2247    2.8390 H   0  0  0  0  0  0  0  0  0  0  0  0
   10.0690   -1.0195    5.1594 H   0  0  0  0  0  0  0  0  0  0  0  0
    8.4588   -2.7721    5.4844 H   0  0  0  0  0  0  0  0  0  0  0  0
    7.8093   -3.0575    1.2980 H   0  0  0  0  0  0  0  0  0  0  0  0
    4.4073   -1.1547   -2.1152 H   0  0  0  0  0  0  0  0  0  0  0  0
    0.9149    0.2304   -0.8989 H   0  0  0  0  0  0  0  0  0  0  0  0
   -2.6684    1.0272   -1.4682 H   0  0  0  0  0  0  0  0  0  0  0  0
   -3.5735   -0.9189   -2.4417 H   0  0  0  0  0  0  0  0  0  0  0  0
   -1.5801   -3.1882   -2.4003 H   0  0  0  0  0  0  0  0  0  0  0  0
   -4.4898   -2.7912   -3.4865 H   0  0  0  0  0  0  0  0  0  0  0  0
   -3.2943   -3.8201   -4.2895 H   0  0  0  0  0  0  0  0  0  0  0  0
   -4.9353   -3.1052   -1.3003 H   0  0  0  0  0  0  0  0  0  0  0  0
   -5.4445   -4.7897   -1.0002 H   0  0  0  0  0  0  0  0  0  0  0  0
   -3.8168   -4.2826   -0.4529 H   0  0  0  0  0  0  0  0  0  0  0  0
   -4.6126   -5.6742   -4.2126 H   0  0  0  0  0  0  0  0  0  0  0  0
   -4.9646   -6.3992   -2.6176 H   0  0  0  0  0  0  0  0  0  0  0  0
   -5.9636   -5.0203   -3.1477 H   0  0  0  0  0  0  0  0  0  0  0  0
  1  2  1  0
  2  3  1  0
  3  4  1  0
  4  5  2  0
  4  6  1  0
  6  7  1  0
  7  8  1  0
  8  9  1  0
  9 10  1  0
 10 11  1  0
 11 12  1  0
  8 13  1  0
 13 14  2  0
 14 15  1  0
 15 16  2  0
 16 17  1  0
 17 18  2  0
 18 19  1  0
 19 20  1  0
 20 21  1  0
 21 22  2  0
 22 23  1  0
 23 24  2  0
 24 25  1  0
 25 26  1  0
 26 27  1  0
 27 28  2  0
 28 29  1  0
 29 30  2  0
 30 31  1  0
 31 32  1  0
 31 33  2  0
 24 34  1  0
 34 35  1  0
 34 36  2  0
 19 37  2  0
 37 38  1  0
 38 39  2  0
 39 40  1  0
 40 41  1  0
 41 42  2  0
 41 43  1  0
 43 44  2  0
 44 45  1  0
 45 46  1  0
 46 47  1  0
 46 48  1  0
 11  6  1  0
 39 13  1  0
 37 15  1  0
 36 21  1  0
 33 27  1  0
  1 49  1  0
  1 50  1  0
  1 51  1  0
  2 52  1  0
  2 53  1  0
  3 54  1  0
  6 55  1  0
  7 56  1  0
  7 57  1  0
  9 58  1  0
  9 59  1  0
 10 60  1  0
 10 61  1  0
 12 62  1  0
 12 63  1  0
 12 64  1  0
 14 65  1  0
 17 66  1  0
 20 67  1  0
 22 68  1  0
 23 69  1  0
 26 70  1  0
 26 71  1  0
 28 72  1  0
 29 73  1  0
 30 74  1  0
 33 75  1  0
 36 76  1  0
 38 77  1  0
 40 78  1  0
 43 79  1  0
 44 80  1  0
 45 81  1  0
 45 82  1  0
 47 83  1  0
 47 84  1  0
 47 85  1  0
 48 86  1  0
 48 87  1  0
 48 88  1  0
M  END
$$$$
[H]Oc1c([H])c([H])c(C([H])([H])[C@@]([H])(C(=O)N([H])[C@@]([H])(C(=O)N([H])C([H])([H])C(=O)N([H])[C@]([H])(c2nc(C([H])([H])N3C([H])([H])C([H])([H])C([H])([H])C3([H])C(=O)[O-])c([H])s2)C([H])([H])c2c([H])c([H])c([H])c([H])c2[H])C([H])([H])[H])N([H])[H])c([H])c1[H]
     RDKit          3D

 81 84  0  0  0  0  0  0  0  0999 V2000
    3.7513   -2.7208    0.3231 C   0  0  0  0  0  0  0  0  0  0  0  0
    3.7624   -1.1918    0.1548 C   0  0  1  0  0  0  0  0  0  0  0  0
    5.0734   -0.7347   -0.1973 N   0  0  0  0  0  0  0  0  0  0  0  0
    5.8821   -0.0383    0.7330 C   0  0  0  0  0  0  0  0  0  0  0  0
    5.4413    0.1795    1.8751 O   0  0  0  0  0  0  0  0  0  0  0  0
    7.1994    0.3914    0.3162 C   0  0  1  0  0  0  0  0  0  0  0  0
    7.4274    0.1403   -1.1281 N   0  0  0  0  0  0  0  0  0  0  0  0
    7.7097    1.7085    0.7280 C   0  0  0  0  0  0  0  0  0  0  0  0
    6.9267    2.8928    0.3158 C   0  0  0  0  0  0  0  0  0  0  0  0
    7.0724    3.4839   -0.9188 C   0  0  0  0  0  0  0  0  0  0  0  0
    6.3243    4.6018   -1.1990 C   0  0  0  0  0  0  0  0  0  0  0  0
    5.4337    5.1669   -0.3122 C   0  0  0  0  0  0  0  0  0  0  0  0
    4.7057    6.3152   -0.6738 O   0  0  0  0  0  0  0  0  0  0  0  0
    5.2922    4.5668    0.9259 C   0  0  0  0  0  0  0  0  0  0  0  0
    6.0464    3.4351    1.2164 C   0  0  0  0  0  0  0  0  0  0  0  0
    2.8288   -0.9079   -0.9480 C   0  0  0  0  0  0  0  0  0  0  0  0
    3.2209   -0.2593   -1.9440 O   0  0  0  0  0  0  0  0  0  0  0  0
    1.4966   -1.3708   -0.8972 N   0  0  0  0  0  0  0  0  0  0  0  0
    0.6290   -1.0978   -2.0035 C   0  0  0  0  0  0  0  0  0  0  0  0
   -0.6945   -1.6691   -1.8425 C   0  0  0  0  0  0  0  0  0  0  0  0
   -1.5199   -1.5691   -2.8083 O   0  0  0  0  0  0  0  0  0  0  0  0
   -1.1427   -2.3403   -0.6727 N   0  0  0  0  0  0  0  0  0  0  0  0
   -2.5006   -2.9104   -0.6729 C   0  0  1  0  0  0  0  0  0  0  0  0
   -2.5479   -4.0177    0.3209 C   0  0  0  0  0  0  0  0  0  0  0  0
   -3.8557   -4.6835    0.4102 C   0  0  0  0  0  0  0  0  0  0  0  0
   -4.7981   -4.2608    1.2893 C   0  0  0  0  0  0  0  0  0  0  0  0
   -6.0601   -4.8614    1.3979 C   0  0  0  0  0  0  0  0  0  0  0  0
   -6.2942   -5.9239    0.5482 C   0  0  0  0  0  0  0  0  0  0  0  0
   -5.3559   -6.3659   -0.3474 C   0  0  0  0  0  0  0  0  0  0  0  0
   -4.1019   -5.7407   -0.4289 C   0  0  0  0  0  0  0  0  0  0  0  0
   -3.5089   -1.8361   -0.3996 C   0  0  0  0  0  0  0  0  0  0  0  0
   -3.5023   -0.7669    0.3442 N   0  0  0  0  0  0  0  0  0  0  0  0
   -4.5453    0.0150    0.4023 C   0  0  0  0  0  0  0  0  0  0  0  0
   -4.5994    1.2854    1.2272 C   0  0  0  0  0  0  0  0  0  0  0  0
   -3.8250    2.3246    0.5895 N   0  0  0  0  0  0  0  0  0  0  0  0
   -4.2278    2.5252   -0.7956 C   0  0  0  0  0  0  0  0  0  0  0  0
   -5.5265    3.2565   -0.7599 C   0  0  0  0  0  0  0  0  0  0  0  0
   -5.5463    3.8942    0.5990 C   0  0  0  0  0  0  0  0  0  0  0  0
   -4.1549    3.6451    1.1287 C   0  0  0  0  0  0  0  0  0  0  0  0
   -4.1081    3.7215    2.5857 C   0  0  0  0  0  0  0  0  0  0  0  0
   -5.2557    3.7085    3.3375 O   0  0  0  0  0  0  0  0  0  0  0  0
   -2.9944    3.7979    3.1691 O   0  0  0  0  0  0  0  0  0  0  0  0
   -5.6388   -0.3482   -0.3551 C   0  0  0  0  0  0  0  0  0  0  0  0
   -5.0936   -1.7802   -1.0952 S   0  0  0  0  0  0  0  0  0  0  0  0
    2.7642   -3.0444    0.7080 H   0  0  0  0  0  0  0  0  0  0  0  0
    4.5279   -3.0571    1.0187 H   0  0  0  0  0  0  0  0  0  0  0  0
    3.9161   -3.1486   -0.6794 H   0  0  0  0  0  0  0  0  0  0  0  0
    3.3810   -0.7925    1.1168 H   0  0  0  0  0  0  0  0  0  0  0  0
    5.3987   -0.9435   -1.1793 H   0  0  0  0  0  0  0  0  0  0  0  0
    7.9228   -0.3708    0.7830 H   0  0  0  0  0  0  0  0  0  0  0  0
    7.4217   -0.8974   -1.3162 H   0  0  0  0  0  0  0  0  0  0  0  0
    8.3551    0.5597   -1.3917 H   0  0  0  0  0  0  0  0  0  0  0  0
    7.8094    1.7375    1.8447 H   0  0  0  0  0  0  0  0  0  0  0  0
    8.7635    1.7930    0.3536 H   0  0  0  0  0  0  0  0  0  0  0  0
    7.7750    3.0194   -1.6108 H   0  0  0  0  0  0  0  0  0  0  0  0
    6.4428    5.0674   -2.1767 H   0  0  0  0  0  0  0  0  0  0  0  0
    3.8133    6.1675   -1.1164 H   0  0  0  0  0  0  0  0  0  0  0  0
    4.6140    4.9797    1.6394 H   0  0  0  0  0  0  0  0  0  0  0  0
    5.8994    2.9999    2.2193 H   0  0  0  0  0  0  0  0  0  0  0  0
    1.1853   -1.8884   -0.0769 H   0  0  0  0  0  0  0  0  0  0  0  0
    0.4649    0.0443   -1.9551 H   0  0  0  0  0  0  0  0  0  0  0  0
    1.0951   -1.3212   -2.9999 H   0  0  0  0  0  0  0  0  0  0  0  0
   -0.6014   -2.4713    0.1898 H   0  0  0  0  0  0  0  0  0  0  0  0
   -2.6972   -3.2986   -1.7230 H   0  0  0  0  0  0  0  0  0  0  0  0
   -1.7829   -4.7767   -0.0245 H   0  0  0  0  0  0  0  0  0  0  0  0
   -2.1749   -3.6880    1.3148 H   0  0  0  0  0  0  0  0  0  0  0  0
   -4.6061   -3.4407    1.9446 H   0  0  0  0  0  0  0  0  0  0  0  0
   -6.8186   -4.5598    2.0736 H   0  0  0  0  0  0  0  0  0  0  0  0
   -7.2617   -6.4482    0.5756 H   0  0  0  0  0  0  0  0  0  0  0  0
   -5.5491   -7.2006   -1.0072 H   0  0  0  0  0  0  0  0  0  0  0  0
   -3.3682   -6.0755   -1.1187 H   0  0  0  0  0  0  0  0  0  0  0  0
   -5.6303    1.6263    1.3448 H   0  0  0  0  0  0  0  0  0  0  0  0
   -4.1734    1.1201    2.2328 H   0  0  0  0  0  0  0  0  0  0  0  0
   -4.1882    1.6239   -1.3996 H   0  0  0  0  0  0  0  0  0  0  0  0
   -3.4617    3.2394   -1.2278 H   0  0  0  0  0  0  0  0  0  0  0  0
   -5.5855    4.0807   -1.5189 H   0  0  0  0  0  0  0  0  0  0  0  0
   -6.4229    2.6321   -0.9639 H   0  0  0  0  0  0  0  0  0  0  0  0
   -6.3308    3.4917    1.2793 H   0  0  0  0  0  0  0  0  0  0  0  0
   -5.6433    5.0174    0.5188 H   0  0  0  0  0  0  0  0  0  0  0  0
   -3.4738    4.3789    0.6422 H   0  0  0  0  0  0  0  0  0  0  0  0
   -6.6052    0.1840   -0.4335 H   0  0  0  0  0  0  0  0  0  0  0  0
  1  2  1  0
  2  3  1  0
  3  4  1  0
  4  5  2  0
  4  6  1  0
  6  7  1  0
  6  8  1  0
  8  9  1  0
  9 10  2  0
 10 11  1  0
 11 12  2  0
 12 13  1  0
 12 14  1  0
 14 15  2  0
  2 16  1  0
 16 17  2  0
 16 18  1  0
 18 19  1  0
 19 20  1  0
 20 21  2  0
 20 22  1  0
 22 23  1  0
 23 24  1  0
 24 25  1  0
 25 26  2  0
 26 27  1  0
 27 28  2  0
 28 29  1  0
 29 30  2  0
 23 31  1  0
 31 32  2  0
 32 33  1  0
 33 34  1  0
 34 35  1  0
 35 36  1  0
 36 37  1  0
 37 38  1  0
 38 39  1  0
 39 40  1  0
 40 41  1  0
 40 42  2  0
 33 43  2  0
 43 44  1  0
 15  9  1  0
 30 25  1  0
 44 31  1  0
 39 35  1  0
  1 45  1  0
  1 46  1  0
  1 47  1  0
  2 48  1  1
  3 49  1  0
  6 50  1  1
  7 51  1  0
  7 52  1  0
  8 53  1  0
  8 54  1  0
 10 55  1  0
 11 56  1  0
 13 57  1  0
 14 58  1  0
 15 59  1  0
 18 60  1  0
 19 61  1  0
 19 62  1  0
 22 63  1  0
 23 64  1  6
 24 65  1  0
 24 66  1  0
 26 67  1  0
 27 68  1  0
 28 69  1  0
 29 70  1  0
 30 71  1  0
 34 72  1  0
 34 73  1  0
 36 74  1  0
 36 75  1  0
 37 76  1  0
 37 77  1  0
 38 78  1  0
 38 79  1  0
 39 80  1  0
 43 81  1  0
M  CHG  1  41  -1
M  END
$$$$
[H]c1c([H])c(F)c([H])c(C([H])([H])N([H])c2c(C(=O)N([H])[H])nnc(N([H])c3c([H])c([H])c(C(=O)N([H])C([H])([H])C([H])(C([H])([H])[H])C([H])([H])[H])c([H])c3[H])c2[H])c1[H]
     RDKit          3D

 57 59  0  0  0  0  0  0  0  0999 V2000
    8.2512   -1.2407    0.5124 C   0  0  0  0  0  0  0  0  0  0  0  0
    8.1576    0.2469    0.5011 C   0  0  0  0  0  0  0  0  0  0  0  0
    9.6191    0.7449    0.3708 C   0  0  0  0  0  0  0  0  0  0  0  0
    7.3379    0.9192   -0.5146 C   0  0  0  0  0  0  0  0  0  0  0  0
    5.9441    0.6629   -0.5688 N   0  0  0  0  0  0  0  0  0  0  0  0
    5.2506   -0.5188   -0.8698 C   0  0  0  0  0  0  0  0  0  0  0  0
    5.7522   -1.6184   -1.1778 O   0  0  0  0  0  0  0  0  0  0  0  0
    3.7602   -0.5039   -0.8306 C   0  0  0  0  0  0  0  0  0  0  0  0
    3.0531   -1.4285   -1.5813 C   0  0  0  0  0  0  0  0  0  0  0  0
    1.6888   -1.3960   -1.5167 C   0  0  0  0  0  0  0  0  0  0  0  0
    0.9567   -0.4860   -0.7386 C   0  0  0  0  0  0  0  0  0  0  0  0
   -0.4362   -0.5397   -0.7682 N   0  0  0  0  0  0  0  0  0  0  0  0
   -1.3517    0.0450    0.1442 C   0  0  0  0  0  0  0  0  0  0  0  0
   -2.7141   -0.1074   -0.0922 C   0  0  0  0  0  0  0  0  0  0  0  0
   -3.6418    0.4453    0.7995 C   0  0  0  0  0  0  0  0  0  0  0  0
   -5.0090    0.2586    0.5082 N   0  0  0  0  0  0  0  0  0  0  0  0
   -5.3857   -0.4967   -0.7008 C   0  0  0  0  0  0  0  0  0  0  0  0
   -6.8523   -0.6015   -0.8600 C   0  0  0  0  0  0  0  0  0  0  0  0
   -7.5722    0.3489   -1.5631 C   0  0  0  0  0  0  0  0  0  0  0  0
   -8.9433    0.2727   -1.7255 C   0  0  0  0  0  0  0  0  0  0  0  0
   -9.6167   -0.7965   -1.1616 C   0  0  0  0  0  0  0  0  0  0  0  0
   -8.9432   -1.7668   -0.4531 C   0  0  0  0  0  0  0  0  0  0  0  0
   -9.6293   -2.7979    0.0852 F   0  0  0  0  0  0  0  0  0  0  0  0
   -7.5810   -1.6488   -0.3181 C   0  0  0  0  0  0  0  0  0  0  0  0
   -3.2599    1.1396    1.9109 C   0  0  0  0  0  0  0  0  0  0  0  0
   -1.8981    1.2526    2.0841 N   0  0  0  0  0  0  0  0  0  0  0  0
   -1.0460    0.7299    1.2408 N   0  0  0  0  0  0  0  0  0  0  0  0
   -4.1335    1.7496    2.8943 C   0  0  0  0  0  0  0  0  0  0  0  0
   -3.5615    2.4548    4.0219 N   0  0  0  0  0  0  0  0  0  0  0  0
   -5.3655    1.7302    2.8707 O   0  0  0  0  0  0  0  0  0  0  0  0
    1.6970    0.4075   -0.0153 C   0  0  0  0  0  0  0  0  0  0  0  0
    3.0928    0.4042   -0.0559 C   0  0  0  0  0  0  0  0  0  0  0  0
    7.4292   -1.7218    1.0662 H   0  0  0  0  0  0  0  0  0  0  0  0
    8.4635   -1.6751   -0.4897 H   0  0  0  0  0  0  0  0  0  0  0  0
    9.1714   -1.5238    1.1481 H   0  0  0  0  0  0  0  0  0  0  0  0
    7.7836    0.5977    1.5165 H   0  0  0  0  0  0  0  0  0  0  0  0
   10.1617    0.2203    1.1965 H   0  0  0  0  0  0  0  0  0  0  0  0
    9.9622    0.3397   -0.6067 H   0  0  0  0  0  0  0  0  0  0  0  0
    9.6528    1.8321    0.4437 H   0  0  0  0  0  0  0  0  0  0  0  0
    7.8072    0.7076   -1.5413 H   0  0  0  0  0  0  0  0  0  0  0  0
    7.5076    2.0473   -0.4509 H   0  0  0  0  0  0  0  0  0  0  0  0
    5.3174    1.5295   -0.3441 H   0  0  0  0  0  0  0  0  0  0  0  0
    3.6213   -2.1204   -2.1731 H   0  0  0  0  0  0  0  0  0  0  0  0
    1.1706   -2.1502   -2.1304 H   0  0  0  0  0  0  0  0  0  0  0  0
   -0.8471   -1.0935   -1.5936 H   0  0  0  0  0  0  0  0  0  0  0  0
   -3.0377   -0.6522   -0.9644 H   0  0  0  0  0  0  0  0  0  0  0  0
   -5.8122    0.5926    1.0484 H   0  0  0  0  0  0  0  0  0  0  0  0
   -4.8967    0.0023   -1.5668 H   0  0  0  0  0  0  0  0  0  0  0  0
   -4.9999   -1.5301   -0.5792 H   0  0  0  0  0  0  0  0  0  0  0  0
   -7.0265    1.1841   -2.0007 H   0  0  0  0  0  0  0  0  0  0  0  0
   -9.4807    1.0282   -2.2792 H   0  0  0  0  0  0  0  0  0  0  0  0
  -10.6924   -0.8651   -1.2835 H   0  0  0  0  0  0  0  0  0  0  0  0
   -7.0147   -2.3877    0.2296 H   0  0  0  0  0  0  0  0  0  0  0  0
   -3.2487    1.9538    4.8774 H   0  0  0  0  0  0  0  0  0  0  0  0
   -3.4538    3.4888    3.9916 H   0  0  0  0  0  0  0  0  0  0  0  0
    1.2354    1.1744    0.6193 H   0  0  0  0  0  0  0  0  0  0  0  0
    3.6060    1.1559    0.5646 H   0  0  0  0  0  0  0  0  0  0  0  0
  1  2  1  0
  2  3  1  0
  2  4  1  0
  4  5  1  0
  5  6  1  0
  6  7  2  0
  6  8  1  0
  8  9  2  0
  9 10  1  0
 10 11  2  0
 11 12  1  0
 12 13  1  0
 13 14  2  0
 14 15  1  0
 15 16  1  0
 16 17  1  0
 17 18  1  0
 18 19  2  0
 19 20  1  0
 20 21  2  0
 21 22  1  0
 22 23  1  0
 22 24  2  0
 15 25  2  0
 25 26  1  0
 26 27  2  0
 25 28  1  0
 28 29  1  0
 28 30  2  0
 11 31  1  0
 31 32  2  0
 32  8  1  0
 27 13  1  0
 24 18  1  0
  1 33  1  0
  1 34  1  0
  1 35  1  0
  2 36  1  0
  3 37  1  0
  3 38  1  0
  3 39  1  0
  4 40  1  0
  4 41  1  0
  5 42  1  0
  9 43  1  0
 10 44  1  0
 12 45  1  0
 14 46  1  0
 16 47  1  0
 17 48  1  0
 17 49  1  0
 19 50  1  0
 20 51  1  0
 21 52  1  0
 24 53  1  0
 29 54  1  0
 29 55  1  0
 31 56  1  0
 32 57  1  0
M  END
$$$$
[H]N=C(c1c([H])c([H])c([H])c(C([H])([H])[C@@]([H])(C(=O)N([H])[C@]([H])(C(=O)c2nc3c([H])c([H])c([H])c([H])c3s2)C([H])([H])C([H])([H])C([H])([H])N=C(N([H])[H])N([H])[H])N([H])C(=O)[C@]([H])(N([H])C(=O)C([H])([H])[H])C(C([H])([H])[H])(C([H])([H])[H])C([H])([H])[H])c1[H])N([H])[H]
     RDKit          3D

 86 88  0  0  0  0  0  0  0  0999 V2000
   -4.3760    6.0177   -0.6828 C   0  0  0  0  0  0  0  0  0  0  0  0
   -3.8794    4.8080   -1.3646 C   0  0  0  0  0  0  0  0  0  0  0  0
   -3.1861    4.9619   -2.3922 O   0  0  0  0  0  0  0  0  0  0  0  0
   -4.1468    3.4980   -0.9166 N   0  0  0  0  0  0  0  0  0  0  0  0
   -3.6420    2.3062   -1.6153 C   0  0  1  0  0  0  0  0  0  0  0  0
   -2.7445    1.5425   -0.7633 C   0  0  0  0  0  0  0  0  0  0  0  0
   -2.5835    2.0633    0.4246 O   0  0  0  0  0  0  0  0  0  0  0  0
   -2.0214    0.3761   -0.9574 N   0  0  0  0  0  0  0  0  0  0  0  0
   -1.1513   -0.2095    0.0485 C   0  0  1  0  0  0  0  0  0  0  0  0
   -1.3679   -1.6357    0.3596 C   0  0  0  0  0  0  0  0  0  0  0  0
   -2.6803   -2.0280    0.8691 C   0  0  0  0  0  0  0  0  0  0  0  0
   -3.6248   -2.4591   -0.0190 C   0  0  0  0  0  0  0  0  0  0  0  0
   -4.8757   -2.8338    0.4111 C   0  0  0  0  0  0  0  0  0  0  0  0
   -5.1586   -2.7660    1.7570 C   0  0  0  0  0  0  0  0  0  0  0  0
   -4.2391   -2.3380    2.6887 C   0  0  0  0  0  0  0  0  0  0  0  0
   -2.9906   -1.9711    2.2022 C   0  0  0  0  0  0  0  0  0  0  0  0
   -4.5611   -2.2689    4.1051 C   0  0  0  0  0  0  0  0  0  0  0  0
   -5.8454   -2.6291    4.5550 N   0  0  0  0  0  0  0  0  0  0  0  0
   -3.6812   -1.8772    4.9415 N   0  0  0  0  0  0  0  0  0  0  0  0
    0.2843   -0.0920   -0.4151 C   0  0  0  0  0  0  0  0  0  0  0  0
    0.5146    0.4318   -1.5334 O   0  0  0  0  0  0  0  0  0  0  0  0
    1.3700   -0.5478    0.3580 N   0  0  0  0  0  0  0  0  0  0  0  0
    2.7483   -0.4069   -0.1562 C   0  0  1  0  0  0  0  0  0  0  0  0
    3.3280    0.6751    0.7718 C   0  0  0  0  0  0  0  0  0  0  0  0
    4.7425    1.0238    0.5023 C   0  0  0  0  0  0  0  0  0  0  0  0
    5.1684    2.1334    1.4414 C   0  0  0  0  0  0  0  0  0  0  0  0
    5.0447    1.7449    2.7845 N   0  0  0  0  0  0  0  0  0  0  0  0
    5.6190    0.8796    3.4760 C   0  0  0  0  0  0  0  0  0  0  0  0
    6.6136    0.0311    2.9879 N   0  0  0  0  0  0  0  0  0  0  0  0
    5.2442    0.7433    4.8609 N   0  0  0  0  0  0  0  0  0  0  0  0
    3.3988   -1.6961   -0.0410 C   0  0  0  0  0  0  0  0  0  0  0  0
    2.9351   -2.5718    0.7348 O   0  0  0  0  0  0  0  0  0  0  0  0
    4.5968   -2.0406   -0.8060 C   0  0  0  0  0  0  0  0  0  0  0  0
    5.2919   -1.3811   -1.7077 N   0  0  0  0  0  0  0  0  0  0  0  0
    6.3502   -1.9136   -2.2568 C   0  0  0  0  0  0  0  0  0  0  0  0
    7.1727   -1.3037   -3.2298 C   0  0  0  0  0  0  0  0  0  0  0  0
    8.2417   -1.9822   -3.7070 C   0  0  0  0  0  0  0  0  0  0  0  0
    8.6287   -3.2486   -3.3334 C   0  0  0  0  0  0  0  0  0  0  0  0
    7.8181   -3.8499   -2.3740 C   0  0  0  0  0  0  0  0  0  0  0  0
    6.7002   -3.1751   -1.8565 C   0  0  0  0  0  0  0  0  0  0  0  0
    5.4806   -3.5202   -0.7097 S   0  0  0  0  0  0  0  0  0  0  0  0
   -4.7984    1.5361   -2.1973 C   0  0  0  0  0  0  0  0  0  0  0  0
   -4.3867    0.3172   -2.9699 C   0  0  0  0  0  0  0  0  0  0  0  0
   -5.5689    2.4155   -3.1842 C   0  0  0  0  0  0  0  0  0  0  0  0
   -5.7451    1.0497   -1.1090 C   0  0  0  0  0  0  0  0  0  0  0  0
   -5.1025    6.5912   -1.2929 H   0  0  0  0  0  0  0  0  0  0  0  0
   -3.5110    6.7019   -0.5309 H   0  0  0  0  0  0  0  0  0  0  0  0
   -4.8166    5.8263    0.2984 H   0  0  0  0  0  0  0  0  0  0  0  0
   -4.7246    3.3844   -0.0553 H   0  0  0  0  0  0  0  0  0  0  0  0
   -3.0507    2.6841   -2.4843 H   0  0  0  0  0  0  0  0  0  0  0  0
   -2.0726   -0.1303   -1.8585 H   0  0  0  0  0  0  0  0  0  0  0  0
   -1.1856    0.3924    0.9653 H   0  0  0  0  0  0  0  0  0  0  0  0
   -1.0480   -2.3081   -0.4827 H   0  0  0  0  0  0  0  0  0  0  0  0
   -0.6294   -1.9008    1.1766 H   0  0  0  0  0  0  0  0  0  0  0  0
   -3.4049   -2.5170   -1.1041 H   0  0  0  0  0  0  0  0  0  0  0  0
   -5.6415   -3.1837   -0.3047 H   0  0  0  0  0  0  0  0  0  0  0  0
   -6.1530   -3.0607    2.1241 H   0  0  0  0  0  0  0  0  0  0  0  0
   -2.2688   -1.6320    2.9569 H   0  0  0  0  0  0  0  0  0  0  0  0
   -6.2248   -3.5637    4.3213 H   0  0  0  0  0  0  0  0  0  0  0  0
   -6.4324   -1.9860    5.1179 H   0  0  0  0  0  0  0  0  0  0  0  0
   -3.8731   -1.8114    5.9833 H   0  0  0  0  0  0  0  0  0  0  0  0
    1.2593   -0.9828    1.2793 H   0  0  0  0  0  0  0  0  0  0  0  0
    2.6823    0.0010   -1.1940 H   0  0  0  0  0  0  0  0  0  0  0  0
    2.6438    1.5594    0.6445 H   0  0  0  0  0  0  0  0  0  0  0  0
    3.1962    0.3295    1.8169 H   0  0  0  0  0  0  0  0  0  0  0  0
    4.9375    1.3854   -0.5190 H   0  0  0  0  0  0  0  0  0  0  0  0
    5.3631    0.1368    0.7864 H   0  0  0  0  0  0  0  0  0  0  0  0
    4.4595    2.9889    1.2675 H   0  0  0  0  0  0  0  0  0  0  0  0
    6.2003    2.4188    1.1313 H   0  0  0  0  0  0  0  0  0  0  0  0
    6.6066   -0.9985    3.1520 H   0  0  0  0  0  0  0  0  0  0  0  0
    7.4113    0.4098    2.4297 H   0  0  0  0  0  0  0  0  0  0  0  0
    5.9502    0.5045    5.5845 H   0  0  0  0  0  0  0  0  0  0  0  0
    4.2638    0.8794    5.1696 H   0  0  0  0  0  0  0  0  0  0  0  0
    6.9753   -0.3141   -3.6059 H   0  0  0  0  0  0  0  0  0  0  0  0
    8.8765   -1.5049   -4.4602 H   0  0  0  0  0  0  0  0  0  0  0  0
    9.4715   -3.7665   -3.7181 H   0  0  0  0  0  0  0  0  0  0  0  0
    7.9879   -4.8327   -1.9811 H   0  0  0  0  0  0  0  0  0  0  0  0
   -5.2153    0.1049   -3.7246 H   0  0  0  0  0  0  0  0  0  0  0  0
   -3.5020    0.4869   -3.6219 H   0  0  0  0  0  0  0  0  0  0  0  0
   -4.3483   -0.6086   -2.3745 H   0  0  0  0  0  0  0  0  0  0  0  0
   -6.0789    1.7898   -3.9482 H   0  0  0  0  0  0  0  0  0  0  0  0
   -6.2854    3.0348   -2.6412 H   0  0  0  0  0  0  0  0  0  0  0  0
   -4.8210    3.0098   -3.7464 H   0  0  0  0  0  0  0  0  0  0  0  0
   -6.6379    0.6071   -1.6109 H   0  0  0  0  0  0  0  0  0  0  0  0
   -5.2821    0.2290   -0.5236 H   0  0  0  0  0  0  0  0  0  0  0  0
   -6.0122    1.8363   -0.4043 H   0  0  0  0  0  0  0  0  0  0  0  0
  1  2  1  0
  2  3  2  0
  2  4  1  0
  4  5  1  0
  5  6  1  0
  6  7  2  0
  6  8  1  0
  8  9  1  0
  9 10  1  0
 10 11  1  0
 11 12  2  0
 12 13  1  0
 13 14  2  0
 14 15  1  0
 15 16  2  0
 15 17  1  0
 17 18  1  0
 17 19  2  3
  9 20  1  0
 20 21  2  0
 20 22  1  0
 22 23  1  0
 23 24  1  0
 24 25  1  0
 25 26  1  0
 26 27  1  0
 27 28  2  3
 28 29  1  0
 28 30  1  0
 23 31  1  0
 31 32  2  0
 31 33  1  0
 33 34  2  0
 34 35  1  0
 35 36  2  0
 36 37  1  0
 37 38  2  0
 38 39  1  0
 39 40  2  0
 40 41  1  0
  5 42  1  0
 42 43  1  0
 42 44  1  0
 42 45  1  0
 16 11  1  0
 41 33  1  0
 40 35  1  0
  1 46  1  0
  1 47  1  0
  1 48  1  0
  4 49  1  0
  5 50  1  6
  8 51  1  0
  9 52  1  1
 10 53  1  0
 10 54  1  0
 12 55  1  0
 13 56  1  0
 14 57  1  0
 16 58  1  0
 18 59  1  0
 18 60  1  0
 19 61  1  0
 22 62  1  0
 23 63  1  6
 24 64  1  0
 24 65  1  0
 25 66  1  0
 25 67  1  0
 26 68  1  0
 26 69  1  0
 29 70  1  0
 29 71  1  0
 30 72  1  0
 30 73  1  0
 36 74  1  0
 37 75  1  0
 38 76  1  0
 39 77  1  0
 43 78  1  0
 43 79  1  0
 43 80  1  0
 44 81  1  0
 44 82  1  0
 44 83  1  0
 45 84  1  0
 45 85  1  0
 45 86  1  0
M  END
$$$$
[H]Oc1c([H])c([H])c(-c2c(C(=O)c3c([H])c(O[H])c([H])c([H])c3O[H])c3c([H])c([H])c(C#N)c([H])c3n2[H])c([H])c1[H]
     RDKit          3D

 42 45  0  0  0  0  0  0  0  0999 V2000
   -4.6009   -1.5893   -2.8111 O   0  0  0  0  0  0  0  0  0  0  0  0
   -4.0004   -1.3305   -1.5900 C   0  0  0  0  0  0  0  0  0  0  0  0
   -4.8233   -1.5556   -0.4819 C   0  0  0  0  0  0  0  0  0  0  0  0
   -4.2871   -1.3588    0.7501 C   0  0  0  0  0  0  0  0  0  0  0  0
   -2.9876   -0.9531    0.8917 C   0  0  0  0  0  0  0  0  0  0  0  0
   -2.4344   -0.7402    2.1617 O   0  0  0  0  0  0  0  0  0  0  0  0
   -2.1270   -0.7187   -0.2095 C   0  0  0  0  0  0  0  0  0  0  0  0
   -0.7005   -0.6676    0.0635 C   0  0  0  0  0  0  0  0  0  0  0  0
   -0.2985   -1.8905    0.3513 O   0  0  0  0  0  0  0  0  0  0  0  0
    0.2502    0.3884    0.0938 C   0  0  0  0  0  0  0  0  0  0  0  0
    1.6206    0.2056    0.2725 C   0  0  0  0  0  0  0  0  0  0  0  0
    2.1343    1.4836    0.3495 N   0  0  0  0  0  0  0  0  0  0  0  0
    1.1650    2.3888    0.2406 C   0  0  0  0  0  0  0  0  0  0  0  0
    1.1832    3.7778    0.3024 C   0  0  0  0  0  0  0  0  0  0  0  0
    0.0066    4.5009    0.1987 C   0  0  0  0  0  0  0  0  0  0  0  0
   -1.2116    3.8530    0.0265 C   0  0  0  0  0  0  0  0  0  0  0  0
   -1.2408    2.4445   -0.0416 C   0  0  0  0  0  0  0  0  0  0  0  0
   -0.0421    1.7527    0.0721 C   0  0  0  0  0  0  0  0  0  0  0  0
   -0.0364    5.9490    0.3370 C   0  0  0  0  0  0  0  0  0  0  0  0
   -0.0296    7.1134    0.4237 N   0  0  0  0  0  0  0  0  0  0  0  0
    2.4925   -0.9661    0.2856 C   0  0  0  0  0  0  0  0  0  0  0  0
    3.6119   -0.8969   -0.5831 C   0  0  0  0  0  0  0  0  0  0  0  0
    4.5440   -1.8748   -0.6848 C   0  0  0  0  0  0  0  0  0  0  0  0
    4.3929   -3.0021    0.0995 C   0  0  0  0  0  0  0  0  0  0  0  0
    5.3669   -4.0281   -0.0094 O   0  0  0  0  0  0  0  0  0  0  0  0
    3.3485   -3.1133    0.9396 C   0  0  0  0  0  0  0  0  0  0  0  0
    2.4131   -2.0955    1.0273 C   0  0  0  0  0  0  0  0  0  0  0  0
   -2.7048   -0.9245   -1.4471 C   0  0  0  0  0  0  0  0  0  0  0  0
   -5.0792   -0.7599   -3.3129 H   0  0  0  0  0  0  0  0  0  0  0  0
   -5.8458   -1.8738   -0.6557 H   0  0  0  0  0  0  0  0  0  0  0  0
   -4.9613   -1.5432    1.5971 H   0  0  0  0  0  0  0  0  0  0  0  0
   -3.0642   -0.8586    2.9336 H   0  0  0  0  0  0  0  0  0  0  0  0
    3.1534    1.6738    0.4805 H   0  0  0  0  0  0  0  0  0  0  0  0
    2.1306    4.2964    0.4430 H   0  0  0  0  0  0  0  0  0  0  0  0
   -2.1298    4.3757   -0.0676 H   0  0  0  0  0  0  0  0  0  0  0  0
   -2.1465    1.9092   -0.1762 H   0  0  0  0  0  0  0  0  0  0  0  0
    3.7191    0.0074   -1.2093 H   0  0  0  0  0  0  0  0  0  0  0  0
    5.3702   -1.7547   -1.3848 H   0  0  0  0  0  0  0  0  0  0  0  0
    5.1036   -4.7314   -0.7108 H   0  0  0  0  0  0  0  0  0  0  0  0
    3.1756   -3.9695    1.5740 H   0  0  0  0  0  0  0  0  0  0  0  0
    1.6120   -2.1748    1.7850 H   0  0  0  0  0  0  0  0  0  0  0  0
   -2.0423   -0.7487   -2.3247 H   0  0  0  0  0  0  0  0  0  0  0  0
  1  2  1  0
  2  3  2  0
  3  4  1  0
  4  5  2  0
  5  6  1  0
  5  7  1  0
  7  8  1  0
  8  9  2  0
  8 10  1  0
 10 11  2  0
 11 12  1  0
 12 13  1  0
 13 14  2  0
 14 15  1  0
 15 16  2  0
 16 17  1  0
 17 18  2  0
 15 19  1  0
 19 20  3  0
 11 21  1  0
 21 22  2  0
 22 23  1  0
 23 24  2  0
 24 25  1  0
 24 26  1  0
 26 27  2  0
  7 28  2  0
 28  2  1  0
 18 10  1  0
 27 21  1  0
 18 13  1  0
  1 29  1  0
  3 30  1  0
  4 31  1  0
  6 32  1  0
 12 33  1  0
 14 34  1  0
 16 35  1  0
 17 36  1  0
 22 37  1  0
 23 38  1  0
 25 39  1  0
 26 40  1  0
 27 41  1  0
 28 42  1  0
M  END
$$$$
[H]c1c([H])c([H])c2c(c1[H])c1c3c(c4c5c([H])c([H])c([H])c([H])c5n5c4c1n2[C@@]1(C([H])([H])[H])O[C@]5([H])C([H])([H])[C@@]([H])(N([H])C([H])([H])[H])[C@@]1([H])OC([H])([H])[H])C(=O)N([H])C3([H])[H]
     RDKit          3D

 61 68  0  0  0  0  0  0  0  0999 V2000
   -3.3415   -2.0929    0.8927 C   0  0  0  0  0  0  0  0  0  0  0  0
   -2.7520   -0.8244    0.5060 N   0  0  0  0  0  0  0  0  0  0  0  0
   -2.5947   -0.7699   -0.9652 C   0  0  2  0  0  0  0  0  0  0  0  0
   -1.6635   -1.8336   -1.3456 C   0  0  0  0  0  0  0  0  0  0  0  0
   -0.4098   -1.3263   -1.9401 C   0  0  1  0  0  0  0  0  0  0  0  0
   -0.2904   -0.0961   -2.3609 O   0  0  0  0  0  0  0  0  0  0  0  0
   -0.9141    0.9817   -1.7381 C   0  0  1  0  0  0  0  0  0  0  0  0
   -0.8729    2.0231   -2.8643 C   0  0  0  0  0  0  0  0  0  0  0  0
   -2.2914    0.6326   -1.4119 C   0  0  2  0  0  0  0  0  0  0  0  0
   -2.9229    1.4324   -0.4622 O   0  0  0  0  0  0  0  0  0  0  0  0
   -4.0664    2.0564   -0.9455 C   0  0  0  0  0  0  0  0  0  0  0  0
   -0.0747    1.3904   -0.5981 N   0  0  0  0  0  0  0  0  0  0  0  0
    0.0066    2.5943   -0.0347 C   0  0  0  0  0  0  0  0  0  0  0  0
   -0.6403    3.7755   -0.2701 C   0  0  0  0  0  0  0  0  0  0  0  0
   -0.3753    4.9057    0.4704 C   0  0  0  0  0  0  0  0  0  0  0  0
    0.5715    4.8915    1.4994 C   0  0  0  0  0  0  0  0  0  0  0  0
    1.2169    3.7192    1.7374 C   0  0  0  0  0  0  0  0  0  0  0  0
    0.9447    2.6014    0.9941 C   0  0  0  0  0  0  0  0  0  0  0  0
    1.4533    1.3308    1.0530 C   0  0  0  0  0  0  0  0  0  0  0  0
    2.4134    0.7192    1.8621 C   0  0  0  0  0  0  0  0  0  0  0  0
    3.2252    1.2814    2.9656 C   0  0  0  0  0  0  0  0  0  0  0  0
    4.0513    0.2282    3.4563 N   0  0  0  0  0  0  0  0  0  0  0  0
    3.7725   -0.9500    2.6928 C   0  0  0  0  0  0  0  0  0  0  0  0
    4.3602   -2.0093    2.9202 O   0  0  0  0  0  0  0  0  0  0  0  0
    2.7553   -0.6238    1.7110 C   0  0  0  0  0  0  0  0  0  0  0  0
    2.1006   -1.3257    0.7242 C   0  0  0  0  0  0  0  0  0  0  0  0
    2.1422   -2.6347    0.2794 C   0  0  0  0  0  0  0  0  0  0  0  0
    2.8759   -3.7217    0.6638 C   0  0  0  0  0  0  0  0  0  0  0  0
    2.6892   -4.9254    0.0128 C   0  0  0  0  0  0  0  0  0  0  0  0
    1.7808   -5.0386   -1.0084 C   0  0  0  0  0  0  0  0  0  0  0  0
    1.0343   -3.9515   -1.4066 C   0  0  0  0  0  0  0  0  0  0  0  0
    1.2263   -2.7646   -0.7562 C   0  0  0  0  0  0  0  0  0  0  0  0
    0.6469   -1.5975   -0.9447 N   0  0  0  0  0  0  0  0  0  0  0  0
    1.1358   -0.7009   -0.0851 C   0  0  0  0  0  0  0  0  0  0  0  0
    0.8119    0.6350    0.0794 C   0  0  0  0  0  0  0  0  0  0  0  0
   -3.9345   -1.8764    1.8249 H   0  0  0  0  0  0  0  0  0  0  0  0
   -2.5804   -2.8202    1.1896 H   0  0  0  0  0  0  0  0  0  0  0  0
   -4.0376   -2.4413    0.1071 H   0  0  0  0  0  0  0  0  0  0  0  0
   -1.8252   -0.7857    0.9817 H   0  0  0  0  0  0  0  0  0  0  0  0
   -3.6418   -1.0758   -1.3069 H   0  0  0  0  0  0  0  0  0  0  0  0
   -1.4743   -2.5407   -0.4944 H   0  0  0  0  0  0  0  0  0  0  0  0
   -2.1827   -2.5069   -2.1019 H   0  0  0  0  0  0  0  0  0  0  0  0
   -0.1764   -2.0147   -2.8352 H   0  0  0  0  0  0  0  0  0  0  0  0
   -1.8561    2.5173   -2.9808 H   0  0  0  0  0  0  0  0  0  0  0  0
   -0.0367    2.7359   -2.7018 H   0  0  0  0  0  0  0  0  0  0  0  0
   -0.6761    1.5932   -3.8662 H   0  0  0  0  0  0  0  0  0  0  0  0
   -2.9127    0.7625   -2.3525 H   0  0  0  0  0  0  0  0  0  0  0  0
   -4.5472    2.6842   -0.1440 H   0  0  0  0  0  0  0  0  0  0  0  0
   -3.8494    2.7776   -1.7563 H   0  0  0  0  0  0  0  0  0  0  0  0
   -4.7942    1.3294   -1.3803 H   0  0  0  0  0  0  0  0  0  0  0  0
   -1.3647    3.8112   -1.0348 H   0  0  0  0  0  0  0  0  0  0  0  0
   -0.8845    5.8355    0.2847 H   0  0  0  0  0  0  0  0  0  0  0  0
    0.7949    5.7654    2.0918 H   0  0  0  0  0  0  0  0  0  0  0  0
    1.9682    3.6487    2.5304 H   0  0  0  0  0  0  0  0  0  0  0  0
    3.8868    2.0907    2.5395 H   0  0  0  0  0  0  0  0  0  0  0  0
    2.5967    1.6993    3.7873 H   0  0  0  0  0  0  0  0  0  0  0  0
    4.7363    0.3270    4.2421 H   0  0  0  0  0  0  0  0  0  0  0  0
    3.5871   -3.7061    1.4353 H   0  0  0  0  0  0  0  0  0  0  0  0
    3.2659   -5.8106    0.3031 H   0  0  0  0  0  0  0  0  0  0  0  0
    1.6292   -5.9934   -1.5280 H   0  0  0  0  0  0  0  0  0  0  0  0
    0.3048   -4.0175   -2.2172 H   0  0  0  0  0  0  0  0  0  0  0  0
  1  2  1  0
  2  3  1  0
  3  4  1  0
  4  5  1  0
  5  6  1  0
  6  7  1  0
  7  8  1  6
  7  9  1  0
  9 10  1  0
 10 11  1  0
  7 12  1  0
 12 13  1  0
 13 14  2  0
 14 15  1  0
 15 16  2  0
 16 17  1  0
 17 18  2  0
 18 19  1  0
 19 20  2  0
 20 21  1  0
 21 22  1  0
 22 23  1  0
 23 24  2  0
 23 25  1  0
 25 26  2  0
 26 27  1  0
 27 28  2  0
 28 29  1  0
 29 30  2  0
 30 31  1  0
 31 32  2  0
 32 33  1  0
 33 34  1  0
 34 35  2  0
  9  3  1  0
 35 12  1  0
 33  5  1  0
 18 13  1  0
 35 19  1  0
 25 20  1  0
 34 26  1  0
 32 27  1  0
  1 36  1  0
  1 37  1  0
  1 38  1  0
  2 39  1  0
  3 40  1  6
  4 41  1  0
  4 42  1  0
  5 43  1  6
  8 44  1  0
  8 45  1  0
  8 46  1  0
  9 47  1  6
 11 48  1  0
 11 49  1  0
 11 50  1  0
 14 51  1  0
 15 52  1  0
 16 53  1  0
 17 54  1  0
 21 55  1  0
 21 56  1  0
 22 57  1  0
 28 58  1  0
 29 59  1  0
 30 60  1  0
 31 61  1  0
M  END
$$$$
[H]c1nc(N([H])c2c([H])c([H])c(OC([H])([H])C([H])([H])N3C([H])([H])C([H])([H])C([H])([H])C3([H])[H])c([H])c2[H])nc(N([H])c2c([H])c([H])c([H])c(S(=O)(=O)N([H])C(C([H])([H])[H])(C([H])([H])[H])C([H])([H])[H])c2[H])c1C([H])([H])[H]
     RDKit          3D

 73 76  0  0  0  0  0  0  0  0999 V2000
   -2.4761    2.9548    3.6535 C   0  0  0  0  0  0  0  0  0  0  0  0
   -1.5528    2.2278    2.7448 C   0  0  0  0  0  0  0  0  0  0  0  0
   -0.1932    2.4320    2.8143 C   0  0  0  0  0  0  0  0  0  0  0  0
    0.6275    1.7724    1.9801 N   0  0  0  0  0  0  0  0  0  0  0  0
    0.2324    0.9048    1.0548 C   0  0  0  0  0  0  0  0  0  0  0  0
    1.0397    0.1749    0.1526 N   0  0  0  0  0  0  0  0  0  0  0  0
    2.4282    0.1946    0.0385 C   0  0  0  0  0  0  0  0  0  0  0  0
    3.2799    0.7351    0.9629 C   0  0  0  0  0  0  0  0  0  0  0  0
    4.6625    0.7475    0.7908 C   0  0  0  0  0  0  0  0  0  0  0  0
    5.1863    0.1846   -0.3698 C   0  0  0  0  0  0  0  0  0  0  0  0
    6.5434    0.1553   -0.6169 O   0  0  0  0  0  0  0  0  0  0  0  0
    7.0868   -0.4045   -1.7673 C   0  0  0  0  0  0  0  0  0  0  0  0
    8.5564   -0.3719   -1.9259 C   0  0  0  0  0  0  0  0  0  0  0  0
    9.3665   -1.0315   -0.9641 N   0  0  0  0  0  0  0  0  0  0  0  0
   10.7720   -1.0536   -1.4064 C   0  0  0  0  0  0  0  0  0  0  0  0
   11.5510   -0.1593   -0.5026 C   0  0  0  0  0  0  0  0  0  0  0  0
   10.4833    0.7049    0.1396 C   0  0  0  0  0  0  0  0  0  0  0  0
    9.3746   -0.3631    0.2927 C   0  0  0  0  0  0  0  0  0  0  0  0
    4.3291   -0.3566   -1.2931 C   0  0  0  0  0  0  0  0  0  0  0  0
    2.9685   -0.3730   -1.1329 C   0  0  0  0  0  0  0  0  0  0  0  0
   -1.1248    0.7131    0.9987 N   0  0  0  0  0  0  0  0  0  0  0  0
   -2.0121    1.3234    1.7865 C   0  0  0  0  0  0  0  0  0  0  0  0
   -3.3822    1.0408    1.6831 N   0  0  0  0  0  0  0  0  0  0  0  0
   -3.9978    0.1873    0.7368 C   0  0  0  0  0  0  0  0  0  0  0  0
   -3.5278   -0.1103   -0.5100 C   0  0  0  0  0  0  0  0  0  0  0  0
   -4.2008   -0.9932   -1.3759 C   0  0  0  0  0  0  0  0  0  0  0  0
   -5.3630   -1.5740   -0.9592 C   0  0  0  0  0  0  0  0  0  0  0  0
   -5.8774   -1.3021    0.2992 C   0  0  0  0  0  0  0  0  0  0  0  0
   -5.1904   -0.4323    1.1173 C   0  0  0  0  0  0  0  0  0  0  0  0
   -7.3700   -2.0640    0.8140 S   0  0  0  0  0  0  0  0  0  0  0  0
   -7.2030   -2.3397    2.3031 O   0  0  0  0  0  0  0  0  0  0  0  0
   -7.4282   -3.4181    0.1698 O   0  0  0  0  0  0  0  0  0  0  0  0
   -8.7516   -1.1394    0.6197 N   0  0  0  0  0  0  0  0  0  0  0  0
   -9.1444   -0.7270   -0.6773 C   0  0  0  0  0  0  0  0  0  0  0  0
   -9.3945   -1.8719   -1.6336 C   0  0  0  0  0  0  0  0  0  0  0  0
  -10.5185   -0.0485   -0.4826 C   0  0  0  0  0  0  0  0  0  0  0  0
   -8.2591    0.2941   -1.3381 C   0  0  0  0  0  0  0  0  0  0  0  0
   -1.9516    3.7938    4.1714 H   0  0  0  0  0  0  0  0  0  0  0  0
   -2.9283    2.3162    4.4105 H   0  0  0  0  0  0  0  0  0  0  0  0
   -3.3093    3.3634    3.0111 H   0  0  0  0  0  0  0  0  0  0  0  0
    0.1856    3.1369    3.5591 H   0  0  0  0  0  0  0  0  0  0  0  0
    0.5184   -0.4865   -0.5287 H   0  0  0  0  0  0  0  0  0  0  0  0
    2.9182    1.1804    1.9034 H   0  0  0  0  0  0  0  0  0  0  0  0
    5.3596    1.1612    1.4891 H   0  0  0  0  0  0  0  0  0  0  0  0
    6.6693   -1.4519   -1.9346 H   0  0  0  0  0  0  0  0  0  0  0  0
    6.6634    0.1704   -2.6511 H   0  0  0  0  0  0  0  0  0  0  0  0
    8.7786   -0.8809   -2.9208 H   0  0  0  0  0  0  0  0  0  0  0  0
    8.8641    0.7018   -2.0745 H   0  0  0  0  0  0  0  0  0  0  0  0
   11.2063   -2.0867   -1.3083 H   0  0  0  0  0  0  0  0  0  0  0  0
   10.8293   -0.6687   -2.4470 H   0  0  0  0  0  0  0  0  0  0  0  0
   12.3434    0.4293   -1.0015 H   0  0  0  0  0  0  0  0  0  0  0  0
   12.0185   -0.7252    0.3428 H   0  0  0  0  0  0  0  0  0  0  0  0
   10.1316    1.4435   -0.5829 H   0  0  0  0  0  0  0  0  0  0  0  0
   10.7756    1.1063    1.1222 H   0  0  0  0  0  0  0  0  0  0  0  0
    8.4848    0.1709    0.5726 H   0  0  0  0  0  0  0  0  0  0  0  0
    9.7014   -1.0919    1.0897 H   0  0  0  0  0  0  0  0  0  0  0  0
    4.7466   -0.7968   -2.2008 H   0  0  0  0  0  0  0  0  0  0  0  0
    2.3187   -0.8163   -1.8982 H   0  0  0  0  0  0  0  0  0  0  0  0
   -3.9986    1.5409    2.4126 H   0  0  0  0  0  0  0  0  0  0  0  0
   -2.6245    0.3407   -0.8773 H   0  0  0  0  0  0  0  0  0  0  0  0
   -3.8014   -1.2053   -2.3519 H   0  0  0  0  0  0  0  0  0  0  0  0
   -5.9388   -2.2728   -1.5855 H   0  0  0  0  0  0  0  0  0  0  0  0
   -5.5816   -0.2090    2.1056 H   0  0  0  0  0  0  0  0  0  0  0  0
   -8.7218   -0.3046    1.2420 H   0  0  0  0  0  0  0  0  0  0  0  0
  -10.3591   -1.7327   -2.1781 H   0  0  0  0  0  0  0  0  0  0  0  0
   -9.4462   -2.8551   -1.1461 H   0  0  0  0  0  0  0  0  0  0  0  0
   -8.6081   -1.8265   -2.4440 H   0  0  0  0  0  0  0  0  0  0  0  0
  -10.8053    0.5288   -1.3595 H   0  0  0  0  0  0  0  0  0  0  0  0
  -10.5247    0.5204    0.4690 H   0  0  0  0  0  0  0  0  0  0  0  0
  -11.2325   -0.8866   -0.3644 H   0  0  0  0  0  0  0  0  0  0  0  0
   -7.5193    0.7263   -0.6434 H   0  0  0  0  0  0  0  0  0  0  0  0
   -8.8915    1.1428   -1.6612 H   0  0  0  0  0  0  0  0  0  0  0  0
   -7.7913   -0.0898   -2.2720 H   0  0  0  0  0  0  0  0  0  0  0  0
  1  2  1  0
  2  3  2  0
  3  4  1  0
  4  5  2  0
  5  6  1  0
  6  7  1  0
  7  8  2  0
  8  9  1  0
  9 10  2  0
 10 11  1  0
 11 12  1  0
 12 13  1  0
 13 14  1  0
 14 15  1  0
 15 16  1  0
 16 17  1  0
 17 18  1  0
 10 19  1  0
 19 20  2  0
  5 21  1  0
 21 22  2  0
 22 23  1  0
 23 24  1  0
 24 25  2  0
 25 26  1  0
 26 27  2  0
 27 28  1  0
 28 29  2  0
 28 30  1  0
 30 31  2  0
 30 32  2  0
 30 33  1  0
 33 34  1  0
 34 35  1  0
 34 36  1  0
 34 37  1  0
 22  2  1  0
 29 24  1  0
 20  7  1  0
 18 14  1  0
  1 38  1  0
  1 39  1  0
  1 40  1  0
  3 41  1  0
  6 42  1  0
  8 43  1  0
  9 44  1  0
 12 45  1  0
 12 46  1  0
 13 47  1  0
 13 48  1  0
 15 49  1  0
 15 50  1  0
 16 51  1  0
 16 52  1  0
 17 53  1  0
 17 54  1  0
 18 55  1  0
 18 56  1  0
 19 57  1  0
 20 58  1  0
 23 59  1  0
 25 60  1  0
 26 61  1  0
 27 62  1  0
 29 63  1  0
 33 64  1  0
 35 65  1  0
 35 66  1  0
 35 67  1  0
 36 68  1  0
 36 69  1  0
 36 70  1  0
 37 71  1  0
 37 72  1  0
 37 73  1  0
M  END
$$$$
[H]/C(C(=O)N([H])c1c([H])c([H])c(OC(F)(F)F)c(F)c1[H])=C(/[H])c1c([H])c([H])c(N(C([H])([H])[H])C([H])([H])[H])c([H])c1[H]
     RDKit          3D

 42 43  0  0  0  0  0  0  0  0999 V2000
   -7.0560    1.7042    0.4292 C   0  0  0  0  0  0  0  0  0  0  0  0
   -6.3642    0.4887    0.1000 N   0  0  0  0  0  0  0  0  0  0  0  0
   -7.1284   -0.6699   -0.2745 C   0  0  0  0  0  0  0  0  0  0  0  0
   -4.9565    0.4126    0.1375 C   0  0  0  0  0  0  0  0  0  0  0  0
   -4.1771    1.4912    0.4889 C   0  0  0  0  0  0  0  0  0  0  0  0
   -2.7944    1.3909    0.5182 C   0  0  0  0  0  0  0  0  0  0  0  0
   -2.1374    0.2363    0.2055 C   0  0  0  0  0  0  0  0  0  0  0  0
   -0.6838    0.0897    0.2241 C   0  0  0  0  0  0  0  0  0  0  0  0
    0.1294    1.0556    0.5438 C   0  0  0  0  0  0  0  0  0  0  0  0
    1.5829    1.0014    0.5897 C   0  0  0  0  0  0  0  0  0  0  0  0
    2.1613    2.0629    0.9275 O   0  0  0  0  0  0  0  0  0  0  0  0
    2.2783   -0.1665    0.2747 N   0  0  0  0  0  0  0  0  0  0  0  0
    3.6790   -0.3787    0.2750 C   0  0  0  0  0  0  0  0  0  0  0  0
    4.6241    0.4876    0.7541 C   0  0  0  0  0  0  0  0  0  0  0  0
    5.9878    0.1546    0.6786 C   0  0  0  0  0  0  0  0  0  0  0  0
    6.4263   -1.0302    0.1326 C   0  0  0  0  0  0  0  0  0  0  0  0
    7.7723   -1.3571    0.0593 O   0  0  0  0  0  0  0  0  0  0  0  0
    8.5023   -0.9657   -1.0800 C   0  0  0  0  0  0  0  0  0  0  0  0
    7.9687   -1.5177   -2.2126 F   0  0  0  0  0  0  0  0  0  0  0  0
    9.8522   -1.2585   -0.9423 F   0  0  0  0  0  0  0  0  0  0  0  0
    8.4044    0.4230   -1.2376 F   0  0  0  0  0  0  0  0  0  0  0  0
    5.4749   -1.9029   -0.3495 C   0  0  0  0  0  0  0  0  0  0  0  0
    5.8985   -3.0914   -0.8919 F   0  0  0  0  0  0  0  0  0  0  0  0
    4.1532   -1.5770   -0.2750 C   0  0  0  0  0  0  0  0  0  0  0  0
   -2.9205   -0.8620   -0.1519 C   0  0  0  0  0  0  0  0  0  0  0  0
   -4.2935   -0.7679   -0.1826 C   0  0  0  0  0  0  0  0  0  0  0  0
   -6.6511    2.2280    1.3100 H   0  0  0  0  0  0  0  0  0  0  0  0
   -7.0109    2.3583   -0.4855 H   0  0  0  0  0  0  0  0  0  0  0  0
   -8.1408    1.4927    0.6453 H   0  0  0  0  0  0  0  0  0  0  0  0
   -8.2142   -0.4605   -0.3167 H   0  0  0  0  0  0  0  0  0  0  0  0
   -6.7508   -0.9805   -1.2919 H   0  0  0  0  0  0  0  0  0  0  0  0
   -6.8690   -1.5005    0.4121 H   0  0  0  0  0  0  0  0  0  0  0  0
   -4.6970    2.4135    0.7389 H   0  0  0  0  0  0  0  0  0  0  0  0
   -2.2769    2.2755    0.8012 H   0  0  0  0  0  0  0  0  0  0  0  0
   -0.2393   -0.8761   -0.0420 H   0  0  0  0  0  0  0  0  0  0  0  0
   -0.3591    2.0221    0.8082 H   0  0  0  0  0  0  0  0  0  0  0  0
    1.6617   -1.0000    0.0042 H   0  0  0  0  0  0  0  0  0  0  0  0
    4.3338    1.4279    1.1988 H   0  0  0  0  0  0  0  0  0  0  0  0
    6.6863    0.8800    1.0736 H   0  0  0  0  0  0  0  0  0  0  0  0
    3.4404   -2.2887   -0.6650 H   0  0  0  0  0  0  0  0  0  0  0  0
   -2.4187   -1.7936   -0.4054 H   0  0  0  0  0  0  0  0  0  0  0  0
   -4.8778   -1.6514   -0.4682 H   0  0  0  0  0  0  0  0  0  0  0  0
  1  2  1  0
  2  3  1  0
  2  4  1  0
  4  5  2  0
  5  6  1  0
  6  7  2  0
  7  8  1  0
  8  9  2  0
  9 10  1  0
 10 11  2  0
 10 12  1  0
 12 13  1  0
 13 14  2  0
 14 15  1  0
 15 16  2  0
 16 17  1  0
 17 18  1  0
 18 19  1  0
 18 20  1  0
 18 21  1  0
 16 22  1  0
 22 23  1  0
 22 24  2  0
  7 25  1  0
 25 26  2  0
 26  4  1  0
 24 13  1  0
  1 27  1  0
  1 28  1  0
  1 29  1  0
  3 30  1  0
  3 31  1  0
  3 32  1  0
  5 33  1  0
  6 34  1  0
  8 35  1  0
  9 36  1  0
 12 37  1  0
 14 38  1  0
 15 39  1  0
 24 40  1  0
 25 41  1  0
 26 42  1  0
M  END
$$$$
[H]c1nc(N([H])c2c([H])c(C(=O)N([H])C3([H])C([H])([H])C([H])([H])N([H])C([H])([H])C3([H])[H])c([H])c([H])c2Cl)c2nc([H])n(C([H])(C([H])([H])[H])C([H])([H])[H])c2n1
     RDKit          3D

 53 56  0  0  0  0  0  0  0  0999 V2000
   -6.9307   -2.2539    3.1126 C   0  0  0  0  0  0  0  0  0  0  0  0
   -6.4765   -0.8619    2.7167 C   0  0  0  0  0  0  0  0  0  0  0  0
   -6.9542    0.1517    3.7338 C   0  0  0  0  0  0  0  0  0  0  0  0
   -4.9967   -0.8090    2.6713 N   0  0  0  0  0  0  0  0  0  0  0  0
   -4.1727   -0.8854    3.7163 C   0  0  0  0  0  0  0  0  0  0  0  0
   -2.9000   -0.8242    3.3110 N   0  0  0  0  0  0  0  0  0  0  0  0
   -2.9016   -0.6940    1.9209 C   0  0  0  0  0  0  0  0  0  0  0  0
   -1.8236   -0.5596    1.0963 C   0  0  0  0  0  0  0  0  0  0  0  0
   -0.5255   -0.7475    1.5338 N   0  0  0  0  0  0  0  0  0  0  0  0
    0.7399   -0.4834    1.0189 C   0  0  0  0  0  0  0  0  0  0  0  0
    0.9126    0.5378    0.0458 C   0  0  0  0  0  0  0  0  0  0  0  0
    2.2176    0.8588   -0.3077 C   0  0  0  0  0  0  0  0  0  0  0  0
    3.3139    0.2547    0.2241 C   0  0  0  0  0  0  0  0  0  0  0  0
    3.1146   -0.7595    1.1861 C   0  0  0  0  0  0  0  0  0  0  0  0
    1.8438   -1.1077    1.5596 C   0  0  0  0  0  0  0  0  0  0  0  0
    1.6039   -2.4360    2.7459 Cl  0  0  0  0  0  0  0  0  0  0  0  0
    2.3648    1.8919   -1.4216 C   0  0  0  0  0  0  0  0  0  0  0  0
    1.9995    2.9913   -1.2384 O   0  0  0  0  0  0  0  0  0  0  0  0
    2.9378    1.2490   -2.5275 N   0  0  0  0  0  0  0  0  0  0  0  0
    3.4503    1.0607   -3.8168 C   0  0  0  0  0  0  0  0  0  0  0  0
    4.1737   -0.2823   -3.9633 C   0  0  0  0  0  0  0  0  0  0  0  0
    5.4127   -0.3213   -3.0872 C   0  0  0  0  0  0  0  0  0  0  0  0
    5.9937    0.9876   -3.0196 N   0  0  0  0  0  0  0  0  0  0  0  0
    5.8109    1.6328   -4.3287 C   0  0  0  0  0  0  0  0  0  0  0  0
    4.3698    2.0926   -4.4206 C   0  0  0  0  0  0  0  0  0  0  0  0
   -2.1269   -0.3976   -0.2658 N   0  0  0  0  0  0  0  0  0  0  0  0
   -3.4633   -0.4075   -0.5545 C   0  0  0  0  0  0  0  0  0  0  0  0
   -4.4778   -0.5340    0.2335 N   0  0  0  0  0  0  0  0  0  0  0  0
   -4.2342   -0.6973    1.6012 C   0  0  0  0  0  0  0  0  0  0  0  0
   -7.7951   -2.5173    2.4901 H   0  0  0  0  0  0  0  0  0  0  0  0
   -6.1421   -2.9869    2.9956 H   0  0  0  0  0  0  0  0  0  0  0  0
   -7.2619   -2.2521    4.1726 H   0  0  0  0  0  0  0  0  0  0  0  0
   -6.8505   -0.6157    1.7345 H   0  0  0  0  0  0  0  0  0  0  0  0
   -6.0623    0.5538    4.2804 H   0  0  0  0  0  0  0  0  0  0  0  0
   -7.7142   -0.2474    4.4486 H   0  0  0  0  0  0  0  0  0  0  0  0
   -7.4044    0.9879    3.1936 H   0  0  0  0  0  0  0  0  0  0  0  0
   -4.4106   -0.9556    4.7788 H   0  0  0  0  0  0  0  0  0  0  0  0
   -0.4823   -1.2479    2.5313 H   0  0  0  0  0  0  0  0  0  0  0  0
    0.0531    1.0101   -0.3557 H   0  0  0  0  0  0  0  0  0  0  0  0
    4.3523    0.4965   -0.0169 H   0  0  0  0  0  0  0  0  0  0  0  0
    3.9802   -1.2728    1.6064 H   0  0  0  0  0  0  0  0  0  0  0  0
    2.9605    2.6663   -2.9862 H   0  0  0  0  0  0  0  0  0  0  0  0
    2.5698    1.0037   -4.5791 H   0  0  0  0  0  0  0  0  0  0  0  0
    3.4963   -1.1385   -3.6994 H   0  0  0  0  0  0  0  0  0  0  0  0
    4.4150   -0.4173   -5.0291 H   0  0  0  0  0  0  0  0  0  0  0  0
    5.0697   -0.6721   -2.0734 H   0  0  0  0  0  0  0  0  0  0  0  0
    6.1571   -1.0288   -3.4399 H   0  0  0  0  0  0  0  0  0  0  0  0
    5.5066    1.6185   -2.3154 H   0  0  0  0  0  0  0  0  0  0  0  0
    6.0987    0.8985   -5.0872 H   0  0  0  0  0  0  0  0  0  0  0  0
    6.4663    2.4845   -4.3488 H   0  0  0  0  0  0  0  0  0  0  0  0
    4.1825    2.1299   -5.5574 H   0  0  0  0  0  0  0  0  0  0  0  0
    4.2394    3.1162   -4.0863 H   0  0  0  0  0  0  0  0  0  0  0  0
   -3.6999   -0.2603   -1.6625 H   0  0  0  0  0  0  0  0  0  0  0  0
  1  2  1  0
  2  3  1  0
  2  4  1  0
  4  5  1  0
  5  6  2  0
  6  7  1  0
  7  8  2  0
  8  9  1  0
  9 10  1  0
 10 11  2  0
 11 12  1  0
 12 13  2  0
 13 14  1  0
 14 15  2  0
 15 16  1  0
 12 17  1  0
 17 18  2  0
 17 19  1  0
 19 20  1  0
 20 21  1  0
 21 22  1  0
 22 23  1  0
 23 24  1  0
 24 25  1  0
  8 26  1  0
 26 27  2  0
 27 28  1  0
 28 29  2  0
 29  4  1  0
 29  7  1  0
 15 10  1  0
 25 20  1  0
  1 30  1  0
  1 31  1  0
  1 32  1  0
  2 33  1  0
  3 34  1  0
  3 35  1  0
  3 36  1  0
  5 37  1  0
  9 38  1  0
 11 39  1  0
 13 40  1  0
 14 41  1  0
 19 42  1  0
 20 43  1  0
 21 44  1  0
 21 45  1  0
 22 46  1  0
 22 47  1  0
 23 48  1  0
 24 49  1  0
 24 50  1  0
 25 51  1  0
 25 52  1  0
 27 53  1  0
M  END
$$$$
[H]c1c([H])c([H])c2c(c1[H])c1c3c(c4c5c([H])c([H])c([H])c([H])c5n5c4c1n2[C@@]1([H])O[C@]5(C([H])([H])[H])[C@@]([H])(OC([H])([H])[H])[C@@]([H])(N([H])C([H])([H])[H])C1([H])[H])C([H])([H])N([H])C3=O
     RDKit          3D

 61 68  0  0  0  0  0  0  0  0999 V2000
   -2.5900    1.1246    2.6909 C   0  0  0  0  0  0  0  0  0  0  0  0
   -2.2701    0.1494    1.6691 N   0  0  0  0  0  0  0  0  0  0  0  0
   -2.7037    0.7256    0.3894 C   0  0  1  0  0  0  0  0  0  0  0  0
   -1.9693    1.9591    0.0600 C   0  0  0  0  0  0  0  0  0  0  0  0
   -1.0374    1.8542   -1.1025 C   0  0  2  0  0  0  0  0  0  0  0  0
   -1.1108    0.8211   -1.8978 O   0  0  0  0  0  0  0  0  0  0  0  0
   -1.4719   -0.4453   -1.4993 C   0  0  2  0  0  0  0  0  0  0  0  0
   -1.8587   -1.0747   -2.8537 C   0  0  0  0  0  0  0  0  0  0  0  0
   -2.6627   -0.3659   -0.6565 C   0  0  1  0  0  0  0  0  0  0  0  0
   -3.0555   -1.5061    0.0270 O   0  0  0  0  0  0  0  0  0  0  0  0
   -4.3079   -1.9695   -0.2639 C   0  0  0  0  0  0  0  0  0  0  0  0
   -0.3020   -1.1026   -0.9411 N   0  0  0  0  0  0  0  0  0  0  0  0
   -0.0368   -2.4107   -0.8661 C   0  0  0  0  0  0  0  0  0  0  0  0
   -0.7505   -3.5118   -1.2342 C   0  0  0  0  0  0  0  0  0  0  0  0
   -0.2313   -4.7829   -1.0386 C   0  0  0  0  0  0  0  0  0  0  0  0
    1.0025   -5.0019   -0.4761 C   0  0  0  0  0  0  0  0  0  0  0  0
    1.7444   -3.8826   -0.0939 C   0  0  0  0  0  0  0  0  0  0  0  0
    1.2038   -2.6348   -0.3003 C   0  0  0  0  0  0  0  0  0  0  0  0
    1.7282   -1.3877   -0.0109 C   0  0  0  0  0  0  0  0  0  0  0  0
    2.9250   -0.9637    0.5498 C   0  0  0  0  0  0  0  0  0  0  0  0
    4.0703   -1.7821    1.0519 C   0  0  0  0  0  0  0  0  0  0  0  0
    5.0490   -0.8360    1.5052 N   0  0  0  0  0  0  0  0  0  0  0  0
    4.5511    0.4878    1.3292 C   0  0  0  0  0  0  0  0  0  0  0  0
    5.2116    1.4752    1.6612 O   0  0  0  0  0  0  0  0  0  0  0  0
    3.2325    0.3685    0.7340 C   0  0  0  0  0  0  0  0  0  0  0  0
    2.2736    1.2731    0.3281 C   0  0  0  0  0  0  0  0  0  0  0  0
    2.1943    2.6494    0.3519 C   0  0  0  0  0  0  0  0  0  0  0  0
    3.0346    3.6410    0.7719 C   0  0  0  0  0  0  0  0  0  0  0  0
    2.6237    4.9672    0.6424 C   0  0  0  0  0  0  0  0  0  0  0  0
    1.4040    5.3207    0.1079 C   0  0  0  0  0  0  0  0  0  0  0  0
    0.5569    4.3176   -0.3154 C   0  0  0  0  0  0  0  0  0  0  0  0
    0.9564    3.0255   -0.1896 C   0  0  0  0  0  0  0  0  0  0  0  0
    0.3179    1.9031   -0.5262 N   0  0  0  0  0  0  0  0  0  0  0  0
    1.0813    0.8475   -0.2300 C   0  0  0  0  0  0  0  0  0  0  0  0
    0.8029   -0.4946   -0.4048 C   0  0  0  0  0  0  0  0  0  0  0  0
   -1.7275    1.7656    2.9459 H   0  0  0  0  0  0  0  0  0  0  0  0
   -3.4000    1.7830    2.2910 H   0  0  0  0  0  0  0  0  0  0  0  0
   -3.0290    0.6437    3.5924 H   0  0  0  0  0  0  0  0  0  0  0  0
   -2.7602   -0.7186    1.9035 H   0  0  0  0  0  0  0  0  0  0  0  0
   -3.7998    0.9480    0.5957 H   0  0  0  0  0  0  0  0  0  0  0  0
   -1.4594    2.3204    1.0029 H   0  0  0  0  0  0  0  0  0  0  0  0
   -2.7065    2.7776   -0.1658 H   0  0  0  0  0  0  0  0  0  0  0  0
   -1.0912    2.7965   -1.7221 H   0  0  0  0  0  0  0  0  0  0  0  0
   -2.0056   -0.3257   -3.6573 H   0  0  0  0  0  0  0  0  0  0  0  0
   -1.0068   -1.6950   -3.1940 H   0  0  0  0  0  0  0  0  0  0  0  0
   -2.8277   -1.6039   -2.8044 H   0  0  0  0  0  0  0  0  0  0  0  0
   -3.5358   -0.1252   -1.3381 H   0  0  0  0  0  0  0  0  0  0  0  0
   -4.4650   -2.8889    0.3782 H   0  0  0  0  0  0  0  0  0  0  0  0
   -4.4865   -2.3125   -1.2897 H   0  0  0  0  0  0  0  0  0  0  0  0
   -5.1216   -1.2643    0.0633 H   0  0  0  0  0  0  0  0  0  0  0  0
   -1.7208   -3.3825   -1.6725 H   0  0  0  0  0  0  0  0  0  0  0  0
   -0.8491   -5.6109   -1.3524 H   0  0  0  0  0  0  0  0  0  0  0  0
    1.4213   -5.9802   -0.3168 H   0  0  0  0  0  0  0  0  0  0  0  0
    2.7206   -4.0420    0.3513 H   0  0  0  0  0  0  0  0  0  0  0  0
    3.7648   -2.4865    1.8473 H   0  0  0  0  0  0  0  0  0  0  0  0
    4.5351   -2.3717    0.2322 H   0  0  0  0  0  0  0  0  0  0  0  0
    5.9960   -1.0989    1.9084 H   0  0  0  0  0  0  0  0  0  0  0  0
    3.9823    3.4684    1.1903 H   0  0  0  0  0  0  0  0  0  0  0  0
    3.2909    5.7541    0.9750 H   0  0  0  0  0  0  0  0  0  0  0  0
    1.0902    6.3566    0.0099 H   0  0  0  0  0  0  0  0  0  0  0  0
   -0.4140    4.5350   -0.7434 H   0  0  0  0  0  0  0  0  0  0  0  0
  1  2  1  0
  2  3  1  0
  3  4  1  0
  4  5  1  0
  5  6  1  0
  6  7  1  0
  7  8  1  6
  7  9  1  0
  9 10  1  0
 10 11  1  0
  7 12  1  0
 12 13  1  0
 13 14  2  0
 14 15  1  0
 15 16  2  0
 16 17  1  0
 17 18  2  0
 18 19  1  0
 19 20  2  0
 20 21  1  0
 21 22  1  0
 22 23  1  0
 23 24  2  0
 23 25  1  0
 25 26  2  0
 26 27  1  0
 27 28  2  0
 28 29  1  0
 29 30  2  0
 30 31  1  0
 31 32  2  0
 32 33  1  0
 33 34  1  0
 34 35  2  0
  9  3  1  0
 35 12  1  0
 33  5  1  0
 18 13  1  0
 35 19  1  0
 25 20  1  0
 34 26  1  0
 32 27  1  0
  1 36  1  0
  1 37  1  0
  1 38  1  0
  2 39  1  0
  3 40  1  1
  4 41  1  0
  4 42  1  0
  5 43  1  6
  8 44  1  0
  8 45  1  0
  8 46  1  0
  9 47  1  6
 11 48  1  0
 11 49  1  0
 11 50  1  0
 14 51  1  0
 15 52  1  0
 16 53  1  0
 17 54  1  0
 21 55  1  0
 21 56  1  0
 22 57  1  0
 28 58  1  0
 29 59  1  0
 30 60  1  0
 31 61  1  0
M  END
$$$$
[H]OC([H])([H])[C@@]([H])(C(=O)N([H])[C@]([H])(C(=O)N([H])[H])C([H])([H])c1c([H])c([H])c([H])c([H])c1[H])N([H])C(=O)[C@@]([H])(N([H])C(=O)[C@@]([H])(N([H])C(=O)[C@@]([H])(N([H])C(=O)[C@@]([H])(N([H])C(=O)C([H])([H])[H])C([H])([H])C([H])(C([H])([H])[H])C([H])([H])[H])C([H])([H])c1c([H])c([H])c([H])c([H])c1[H])C([H])([H])c1c([H])c([H])c([H])c([H])c1[H])[C@@]([H])(C([H])([H])[H])C([H])([H])C([H])([H])[H]
     RDKit          3D

118120  0  0  0  0  0  0  0  0999 V2000
    3.0679   -0.3453   -5.3056 C   0  0  0  0  0  0  0  0  0  0  0  0
    2.3160   -0.5284   -4.0082 C   0  0  0  0  0  0  0  0  0  0  0  0
    3.2489   -1.1432   -2.9429 C   0  0  2  0  0  0  0  0  0  0  0  0
    3.6483   -2.4866   -3.6030 C   0  0  0  0  0  0  0  0  0  0  0  0
    2.4311   -1.4948   -1.7644 C   0  0  2  0  0  0  0  0  0  0  0  0
    1.6810   -0.3955   -1.1847 N   0  0  0  0  0  0  0  0  0  0  0  0
    0.3359   -0.0878   -1.3103 C   0  0  0  0  0  0  0  0  0  0  0  0
   -0.4392   -0.7541   -1.9810 O   0  0  0  0  0  0  0  0  0  0  0  0
   -0.2121    1.1341   -0.5877 C   0  0  2  0  0  0  0  0  0  0  0  0
    0.0944    0.9171    0.8527 C   0  0  0  0  0  0  0  0  0  0  0  0
   -0.2976    1.9602    1.7936 C   0  0  0  0  0  0  0  0  0  0  0  0
    0.5728    3.0315    2.0092 C   0  0  0  0  0  0  0  0  0  0  0  0
    0.2002    3.9865    2.9219 C   0  0  0  0  0  0  0  0  0  0  0  0
   -0.9806    3.9165    3.6120 C   0  0  0  0  0  0  0  0  0  0  0  0
   -1.8421    2.8741    3.4112 C   0  0  0  0  0  0  0  0  0  0  0  0
   -1.4836    1.8852    2.4833 C   0  0  0  0  0  0  0  0  0  0  0  0
   -1.5733    1.3230   -0.9444 N   0  0  0  0  0  0  0  0  0  0  0  0
   -2.6887    0.5214   -0.6775 C   0  0  0  0  0  0  0  0  0  0  0  0
   -2.5413   -0.5347   -0.0289 O   0  0  0  0  0  0  0  0  0  0  0  0
   -4.0697    0.9098   -1.1616 C   0  0  2  0  0  0  0  0  0  0  0  0
   -4.3654    2.3156   -0.8274 C   0  0  0  0  0  0  0  0  0  0  0  0
   -5.6623    2.8541   -1.2499 C   0  0  0  0  0  0  0  0  0  0  0  0
   -5.8337    3.4096   -2.5239 C   0  0  0  0  0  0  0  0  0  0  0  0
   -7.0659    3.9060   -2.8559 C   0  0  0  0  0  0  0  0  0  0  0  0
   -8.1465    3.8908   -2.0118 C   0  0  0  0  0  0  0  0  0  0  0  0
   -7.9694    3.3460   -0.7684 C   0  0  0  0  0  0  0  0  0  0  0  0
   -6.7293    2.8291   -0.3885 C   0  0  0  0  0  0  0  0  0  0  0  0
   -5.1010    0.0310   -0.7276 N   0  0  0  0  0  0  0  0  0  0  0  0
   -5.4173   -0.3699    0.5859 C   0  0  0  0  0  0  0  0  0  0  0  0
   -4.7376    0.0783    1.5333 O   0  0  0  0  0  0  0  0  0  0  0  0
   -6.5273   -1.3041    0.9132 C   0  0  2  0  0  0  0  0  0  0  0  0
   -7.7478   -1.0745    0.1210 C   0  0  0  0  0  0  0  0  0  0  0  0
   -8.9114   -1.9638    0.3568 C   0  0  0  0  0  0  0  0  0  0  0  0
   -8.4673   -3.3932    0.0716 C   0  0  0  0  0  0  0  0  0  0  0  0
   -9.6486   -1.7980    1.6341 C   0  0  0  0  0  0  0  0  0  0  0  0
   -6.7329   -1.4700    2.3274 N   0  0  0  0  0  0  0  0  0  0  0  0
   -6.9123   -0.4570    3.2872 C   0  0  0  0  0  0  0  0  0  0  0  0
   -7.1000   -0.7960    4.7167 C   0  0  0  0  0  0  0  0  0  0  0  0
   -6.9224    0.7533    2.9901 O   0  0  0  0  0  0  0  0  0  0  0  0
    3.2913   -2.0600   -0.6861 C   0  0  0  0  0  0  0  0  0  0  0  0
    2.7409   -2.2942    0.4500 O   0  0  0  0  0  0  0  0  0  0  0  0
    4.6598   -2.3455   -0.8141 N   0  0  0  0  0  0  0  0  0  0  0  0
    5.4435   -2.8992    0.3082 C   0  0  1  0  0  0  0  0  0  0  0  0
    6.2999   -4.0333   -0.0498 C   0  0  0  0  0  0  0  0  0  0  0  0
    6.9682   -4.5721    1.0457 O   0  0  0  0  0  0  0  0  0  0  0  0
    6.1609   -1.8107    0.9728 C   0  0  0  0  0  0  0  0  0  0  0  0
    5.4718   -0.7370    1.1864 O   0  0  0  0  0  0  0  0  0  0  0  0
    7.4919   -1.7491    1.4135 N   0  0  0  0  0  0  0  0  0  0  0  0
    8.0845   -0.6216    2.0620 C   0  0  1  0  0  0  0  0  0  0  0  0
    8.0356    0.6769    1.3492 C   0  0  0  0  0  0  0  0  0  0  0  0
    8.6797    0.7768    0.0498 C   0  0  0  0  0  0  0  0  0  0  0  0
   10.0227    1.1100   -0.0673 C   0  0  0  0  0  0  0  0  0  0  0  0
   10.6205    1.2244   -1.3077 C   0  0  0  0  0  0  0  0  0  0  0  0
    9.9091    1.0126   -2.4630 C   0  0  0  0  0  0  0  0  0  0  0  0
    8.5789    0.6816   -2.3714 C   0  0  0  0  0  0  0  0  0  0  0  0
    7.9867    0.5695   -1.1115 C   0  0  0  0  0  0  0  0  0  0  0  0
    7.4883   -0.3885    3.4232 C   0  0  0  0  0  0  0  0  0  0  0  0
    7.9189    0.6735    4.2567 N   0  0  0  0  0  0  0  0  0  0  0  0
    6.5874   -1.1468    3.8388 O   0  0  0  0  0  0  0  0  0  0  0  0
    2.5792    0.5011   -5.8515 H   0  0  0  0  0  0  0  0  0  0  0  0
    4.1029   -0.0234   -5.0883 H   0  0  0  0  0  0  0  0  0  0  0  0
    3.0702   -1.2530   -5.9292 H   0  0  0  0  0  0  0  0  0  0  0  0
    1.8495    0.3943   -3.6316 H   0  0  0  0  0  0  0  0  0  0  0  0
    1.5038   -1.2547   -4.2174 H   0  0  0  0  0  0  0  0  0  0  0  0
    4.1681   -0.5988   -2.8032 H   0  0  0  0  0  0  0  0  0  0  0  0
    4.6654   -2.4245   -4.0309 H   0  0  0  0  0  0  0  0  0  0  0  0
    2.9575   -2.6433   -4.4492 H   0  0  0  0  0  0  0  0  0  0  0  0
    3.5292   -3.3321   -2.8900 H   0  0  0  0  0  0  0  0  0  0  0  0
    1.6969   -2.2573   -2.0845 H   0  0  0  0  0  0  0  0  0  0  0  0
    2.3003    0.2372   -0.5867 H   0  0  0  0  0  0  0  0  0  0  0  0
    0.3742    2.0190   -0.9494 H   0  0  0  0  0  0  0  0  0  0  0  0
    1.1684    0.6882    1.0405 H   0  0  0  0  0  0  0  0  0  0  0  0
   -0.4498   -0.0250    1.1643 H   0  0  0  0  0  0  0  0  0  0  0  0
    1.4740    3.0455    1.4539 H   0  0  0  0  0  0  0  0  0  0  0  0
    0.8931    4.8087    3.0742 H   0  0  0  0  0  0  0  0  0  0  0  0
   -1.2510    4.6818    4.3271 H   0  0  0  0  0  0  0  0  0  0  0  0
   -2.7881    2.7338    3.9040 H   0  0  0  0  0  0  0  0  0  0  0  0
   -2.1528    1.0556    2.3287 H   0  0  0  0  0  0  0  0  0  0  0  0
   -1.7839    2.2111   -1.5085 H   0  0  0  0  0  0  0  0  0  0  0  0
   -3.9627    0.7370   -2.2749 H   0  0  0  0  0  0  0  0  0  0  0  0
   -3.5891    3.0192   -1.2386 H   0  0  0  0  0  0  0  0  0  0  0  0
   -4.3036    2.4804    0.2869 H   0  0  0  0  0  0  0  0  0  0  0  0
   -4.9620    3.4004   -3.1608 H   0  0  0  0  0  0  0  0  0  0  0  0
   -7.1856    4.3398   -3.8592 H   0  0  0  0  0  0  0  0  0  0  0  0
   -9.1224    4.2922   -2.2979 H   0  0  0  0  0  0  0  0  0  0  0  0
   -8.8039    3.3143   -0.0666 H   0  0  0  0  0  0  0  0  0  0  0  0
   -6.6965    2.4306    0.6227 H   0  0  0  0  0  0  0  0  0  0  0  0
   -5.7333   -0.3913   -1.4826 H   0  0  0  0  0  0  0  0  0  0  0  0
   -6.1079   -2.3180    0.5689 H   0  0  0  0  0  0  0  0  0  0  0  0
   -7.5492   -1.0519   -0.9769 H   0  0  0  0  0  0  0  0  0  0  0  0
   -8.1100   -0.0217    0.3552 H   0  0  0  0  0  0  0  0  0  0  0  0
   -9.6646   -1.7123   -0.4626 H   0  0  0  0  0  0  0  0  0  0  0  0
   -7.8419   -3.3552   -0.8414 H   0  0  0  0  0  0  0  0  0  0  0  0
   -9.3797   -3.9924   -0.0530 H   0  0  0  0  0  0  0  0  0  0  0  0
   -7.8593   -3.7086    0.9576 H   0  0  0  0  0  0  0  0  0  0  0  0
   -9.7028   -0.7645    1.9922 H   0  0  0  0  0  0  0  0  0  0  0  0
   -9.1774   -2.4147    2.4259 H   0  0  0  0  0  0  0  0  0  0  0  0
  -10.7410   -2.1000    1.5163 H   0  0  0  0  0  0  0  0  0  0  0  0
   -6.7638   -2.4684    2.7363 H   0  0  0  0  0  0  0  0  0  0  0  0
   -7.3914   -1.8588    4.8519 H   0  0  0  0  0  0  0  0  0  0  0  0
   -6.1625   -0.5244    5.2422 H   0  0  0  0  0  0  0  0  0  0  0  0
   -7.9107   -0.1344    5.1108 H   0  0  0  0  0  0  0  0  0  0  0  0
    5.2041   -2.1713   -1.6798 H   0  0  0  0  0  0  0  0  0  0  0  0
    4.6642   -3.2345    1.0704 H   0  0  0  0  0  0  0  0  0  0  0  0
    5.7670   -4.8922   -0.5199 H   0  0  0  0  0  0  0  0  0  0  0  0
    7.0890   -3.7035   -0.7748 H   0  0  0  0  0  0  0  0  0  0  0  0
    7.5470   -5.3332    0.7959 H   0  0  0  0  0  0  0  0  0  0  0  0
    8.1144   -2.5722    1.2553 H   0  0  0  0  0  0  0  0  0  0  0  0
    9.1767   -0.8215    2.2826 H   0  0  0  0  0  0  0  0  0  0  0  0
    7.0063    1.1117    1.3225 H   0  0  0  0  0  0  0  0  0  0  0  0
    8.6016    1.4110    2.0258 H   0  0  0  0  0  0  0  0  0  0  0  0
   10.6140    1.2848    0.8226 H   0  0  0  0  0  0  0  0  0  0  0  0
   11.6635    1.4858   -1.3848 H   0  0  0  0  0  0  0  0  0  0  0  0
   10.3734    1.1004   -3.4372 H   0  0  0  0  0  0  0  0  0  0  0  0
    7.9992    0.5108   -3.2734 H   0  0  0  0  0  0  0  0  0  0  0  0
    6.9349    0.3106   -1.1413 H   0  0  0  0  0  0  0  0  0  0  0  0
    7.3969    1.5766    4.2741 H   0  0  0  0  0  0  0  0  0  0  0  0
    8.7514    0.6314    4.8842 H   0  0  0  0  0  0  0  0  0  0  0  0
  1  2  1  0
  2  3  1  0
  3  4  1  0
  3  5  1  0
  5  6  1  0
  6  7  1  0
  7  8  2  0
  7  9  1  0
  9 10  1  0
 10 11  1  0
 11 12  2  0
 12 13  1  0
 13 14  2  0
 14 15  1  0
 15 16  2  0
  9 17  1  0
 17 18  1  0
 18 19  2  0
 18 20  1  0
 20 21  1  0
 21 22  1  0
 22 23  2  0
 23 24  1  0
 24 25  2  0
 25 26  1  0
 26 27  2  0
 20 28  1  0
 28 29  1  0
 29 30  2  0
 29 31  1  0
 31 32  1  0
 32 33  1  0
 33 34  1  0
 33 35  1  0
 31 36  1  0
 36 37  1  0
 37 38  1  0
 37 39  2  0
  5 40  1  0
 40 41  2  0
 40 42  1  0
 42 43  1  0
 43 44  1  0
 44 45  1  0
 43 46  1  0
 46 47  2  0
 46 48  1  0
 48 49  1  0
 49 50  1  0
 50 51  1  0
 51 52  2  0
 52 53  1  0
 53 54  2  0
 54 55  1  0
 55 56  2  0
 49 57  1  0
 57 58  1  0
 57 59  2  0
 16 11  1  0
 27 22  1  0
 56 51  1  0
  1 60  1  0
  1 61  1  0
  1 62  1  0
  2 63  1  0
  2 64  1  0
  3 65  1  1
  4 66  1  0
  4 67  1  0
  4 68  1  0
  5 69  1  6
  6 70  1  0
  9 71  1  6
 10 72  1  0
 10 73  1  0
 12 74  1  0
 13 75  1  0
 14 76  1  0
 15 77  1  0
 16 78  1  0
 17 79  1  0
 20 80  1  6
 21 81  1  0
 21 82  1  0
 23 83  1  0
 24 84  1  0
 25 85  1  0
 26 86  1  0
 27 87  1  0
 28 88  1  0
 31 89  1  6
 32 90  1  0
 32 91  1  0
 33 92  1  0
 34 93  1  0
 34 94  1  0
 34 95  1  0
 35 96  1  0
 35 97  1  0
 35 98  1  0
 36 99  1  0
 38100  1  0
 38101  1  0
 38102  1  0
 42103  1  0
 43104  1  1
 44105  1  0
 44106  1  0
 45107  1  0
 48108  1  0
 49109  1  1
 50110  1  0
 50111  1  0
 52112  1  0
 53113  1  0
 54114  1  0
 55115  1  0
 56116  1  0
 58117  1  0
 58118  1  0
M  END
$$$$
[H]c1nc2c(-c3c([H])c([H])c(OC([H])([H])C([H])([H])Oc4c([H])c([H])c([H])c(C(F)(F)F)c4[H])c([H])c3[H])c([H])nn2c(N([H])[H])c1-c1c([H])c([H])c([H])c(N([H])C(=O)c2c([H])c([H])c(C([H])([H])N(C([H])([H])[H])C([H])([H])[H])c([H])c2[H])c1C([H])([H])[H]
     RDKit          3D

 85 90  0  0  0  0  0  0  0  0999 V2000
  -12.6209   -0.5407   -0.1446 C   0  0  0  0  0  0  0  0  0  0  0  0
  -12.3227   -0.5074   -1.5595 N   0  0  0  0  0  0  0  0  0  0  0  0
  -11.3934   -1.6085   -1.8223 C   0  0  0  0  0  0  0  0  0  0  0  0
  -11.7513    0.7560   -1.9988 C   0  0  0  0  0  0  0  0  0  0  0  0
  -10.4314    0.9564   -1.3579 C   0  0  0  0  0  0  0  0  0  0  0  0
   -9.2640    0.5623   -1.9671 C   0  0  0  0  0  0  0  0  0  0  0  0
   -8.0817    0.6576   -1.2737 C   0  0  0  0  0  0  0  0  0  0  0  0
   -8.0613    1.1439    0.0053 C   0  0  0  0  0  0  0  0  0  0  0  0
   -9.2379    1.5581    0.6245 C   0  0  0  0  0  0  0  0  0  0  0  0
  -10.4324    1.4520   -0.0871 C   0  0  0  0  0  0  0  0  0  0  0  0
   -6.8235    1.0216    0.8428 C   0  0  0  0  0  0  0  0  0  0  0  0
   -6.9240    1.7146    1.9191 O   0  0  0  0  0  0  0  0  0  0  0  0
   -5.8362    0.2483    0.4227 N   0  0  0  0  0  0  0  0  0  0  0  0
   -4.8010   -0.5581   -0.0072 C   0  0  0  0  0  0  0  0  0  0  0  0
   -5.1405   -1.8972   -0.2595 C   0  0  0  0  0  0  0  0  0  0  0  0
   -4.2197   -2.7792   -0.7368 C   0  0  0  0  0  0  0  0  0  0  0  0
   -2.9095   -2.3591   -0.9812 C   0  0  0  0  0  0  0  0  0  0  0  0
   -2.5647   -1.0619   -0.7335 C   0  0  0  0  0  0  0  0  0  0  0  0
   -3.5125   -0.1796   -0.2596 C   0  0  0  0  0  0  0  0  0  0  0  0
   -3.1267    1.2097   -0.0328 C   0  0  0  0  0  0  0  0  0  0  0  0
   -1.1580   -0.7335   -0.5581 C   0  0  0  0  0  0  0  0  0  0  0  0
   -0.1875   -0.2401   -1.2957 C   0  0  0  0  0  0  0  0  0  0  0  0
    1.0843   -0.0384   -0.8134 N   0  0  0  0  0  0  0  0  0  0  0  0
    1.3904   -0.3430    0.4684 C   0  0  0  0  0  0  0  0  0  0  0  0
    2.5329   -0.2522    1.2182 C   0  0  0  0  0  0  0  0  0  0  0  0
    2.1791   -0.7289    2.4847 C   0  0  0  0  0  0  0  0  0  0  0  0
    0.9024   -1.0882    2.5006 N   0  0  0  0  0  0  0  0  0  0  0  0
    0.4265   -0.8488    1.2628 N   0  0  0  0  0  0  0  0  0  0  0  0
   -0.7977   -1.0458    0.7936 C   0  0  0  0  0  0  0  0  0  0  0  0
   -1.7956   -1.5923    1.6652 N   0  0  0  0  0  0  0  0  0  0  0  0
    3.8708    0.1901    0.8898 C   0  0  0  0  0  0  0  0  0  0  0  0
    4.8624    0.0115    1.8593 C   0  0  0  0  0  0  0  0  0  0  0  0
    6.1619    0.3573    1.6927 C   0  0  0  0  0  0  0  0  0  0  0  0
    6.5898    0.9205    0.5170 C   0  0  0  0  0  0  0  0  0  0  0  0
    7.9441    1.2761    0.3652 O   0  0  0  0  0  0  0  0  0  0  0  0
    8.8267    0.9557    1.4493 C   0  0  0  0  0  0  0  0  0  0  0  0
    9.1235   -0.5124    1.5782 C   0  0  0  0  0  0  0  0  0  0  0  0
    9.8439   -0.9994    0.4285 O   0  0  0  0  0  0  0  0  0  0  0  0
   11.1966   -0.6830    0.2362 C   0  0  0  0  0  0  0  0  0  0  0  0
   11.8895    0.0273    1.1907 C   0  0  0  0  0  0  0  0  0  0  0  0
   13.2204    0.3250    0.9643 C   0  0  0  0  0  0  0  0  0  0  0  0
   13.8277   -0.1084   -0.2283 C   0  0  0  0  0  0  0  0  0  0  0  0
   13.1042   -0.8192   -1.1669 C   0  0  0  0  0  0  0  0  0  0  0  0
   11.7973   -1.0881   -0.9077 C   0  0  0  0  0  0  0  0  0  0  0  0
   13.7734   -1.2569   -2.3919 C   0  0  0  0  0  0  0  0  0  0  0  0
   12.9996   -1.1652   -3.5109 F   0  0  0  0  0  0  0  0  0  0  0  0
   14.8831   -0.4685   -2.5883 F   0  0  0  0  0  0  0  0  0  0  0  0
   14.1715   -2.5999   -2.2987 F   0  0  0  0  0  0  0  0  0  0  0  0
    5.6399    1.1108   -0.4662 C   0  0  0  0  0  0  0  0  0  0  0  0
    4.3098    0.7505   -0.2758 C   0  0  0  0  0  0  0  0  0  0  0  0
  -13.1902    0.3407    0.2226 H   0  0  0  0  0  0  0  0  0  0  0  0
  -13.3222   -1.4087    0.0161 H   0  0  0  0  0  0  0  0  0  0  0  0
  -11.7676   -0.7514    0.4890 H   0  0  0  0  0  0  0  0  0  0  0  0
  -10.9353   -1.4912   -2.8009 H   0  0  0  0  0  0  0  0  0  0  0  0
  -10.5545   -1.5950   -1.0564 H   0  0  0  0  0  0  0  0  0  0  0  0
  -11.9443   -2.5670   -1.6636 H   0  0  0  0  0  0  0  0  0  0  0  0
  -11.6609    0.7235   -3.0828 H   0  0  0  0  0  0  0  0  0  0  0  0
  -12.4211    1.5599   -1.6242 H   0  0  0  0  0  0  0  0  0  0  0  0
   -9.2276    0.1834   -2.9775 H   0  0  0  0  0  0  0  0  0  0  0  0
   -7.1642    0.3497   -1.7732 H   0  0  0  0  0  0  0  0  0  0  0  0
   -9.1962    1.9282    1.6203 H   0  0  0  0  0  0  0  0  0  0  0  0
  -11.3029    1.7827    0.4429 H   0  0  0  0  0  0  0  0  0  0  0  0
   -5.2399    0.3067    1.6481 H   0  0  0  0  0  0  0  0  0  0  0  0
   -6.1451   -2.2421   -0.0721 H   0  0  0  0  0  0  0  0  0  0  0  0
   -4.4895   -3.8140   -0.9422 H   0  0  0  0  0  0  0  0  0  0  0  0
   -2.2047   -3.0927   -1.3695 H   0  0  0  0  0  0  0  0  0  0  0  0
   -3.1000    1.4858    1.0262 H   0  0  0  0  0  0  0  0  0  0  0  0
   -2.1200    1.4455   -0.4695 H   0  0  0  0  0  0  0  0  0  0  0  0
   -3.8588    1.8559   -0.5552 H   0  0  0  0  0  0  0  0  0  0  0  0
   -0.3944    0.0198   -2.3591 H   0  0  0  0  0  0  0  0  0  0  0  0
    2.8108   -0.8222    3.3582 H   0  0  0  0  0  0  0  0  0  0  0  0
   -2.3679   -0.9105    2.1783 H   0  0  0  0  0  0  0  0  0  0  0  0
   -1.9260   -2.6120    1.7677 H   0  0  0  0  0  0  0  0  0  0  0  0
    4.5752   -0.4268    2.8108 H   0  0  0  0  0  0  0  0  0  0  0  0
    6.8386    0.2027    2.5684 H   0  0  0  0  0  0  0  0  0  0  0  0
    9.7810    1.4998    1.2154 H   0  0  0  0  0  0  0  0  0  0  0  0
    8.4405    1.3920    2.3921 H   0  0  0  0  0  0  0  0  0  0  0  0
    9.7729   -0.6876    2.4588 H   0  0  0  0  0  0  0  0  0  0  0  0
    8.2518   -1.1886    1.6198 H   0  0  0  0  0  0  0  0  0  0  0  0
   11.4678    0.3472    2.1068 H   0  0  0  0  0  0  0  0  0  0  0  0
   13.8085    0.8844    1.6924 H   0  0  0  0  0  0  0  0  0  0  0  0
   14.8531    0.1013   -0.4256 H   0  0  0  0  0  0  0  0  0  0  0  0
   11.2220   -1.6615   -1.6520 H   0  0  0  0  0  0  0  0  0  0  0  0
    5.9628    1.5548   -1.4009 H   0  0  0  0  0  0  0  0  0  0  0  0
    3.5907    0.9227   -1.0645 H   0  0  0  0  0  0  0  0  0  0  0  0
  1  2  1  0
  2  3  1  0
  2  4  1  0
  4  5  1  0
  5  6  2  0
  6  7  1  0
  7  8  2  0
  8  9  1  0
  9 10  2  0
  8 11  1  0
 11 12  2  0
 11 13  1  0
 13 14  1  0
 14 15  2  0
 15 16  1  0
 16 17  2  0
 17 18  1  0
 18 19  2  0
 19 20  1  0
 18 21  1  0
 21 22  1  0
 22 23  2  0
 23 24  1  0
 24 25  2  0
 25 26  1  0
 26 27  2  0
 27 28  1  0
 28 29  1  0
 29 30  1  0
 25 31  1  0
 31 32  2  0
 32 33  1  0
 33 34  2  0
 34 35  1  0
 35 36  1  0
 36 37  1  0
 37 38  1  0
 38 39  1  0
 39 40  2  0
 40 41  1  0
 41 42  2  0
 42 43  1  0
 43 44  2  0
 43 45  1  0
 45 46  1  0
 45 47  1  0
 45 48  1  0
 34 49  1  0
 49 50  2  0
 10  5  1  0
 19 14  1  0
 29 21  2  0
 50 31  1  0
 28 24  1  0
 44 39  1  0
  1 51  1  0
  1 52  1  0
  1 53  1  0
  3 54  1  0
  3 55  1  0
  3 56  1  0
  4 57  1  0
  4 58  1  0
  6 59  1  0
  7 60  1  0
  9 61  1  0
 10 62  1  0
 13 63  1  0
 15 64  1  0
 16 65  1  0
 17 66  1  0
 20 67  1  0
 20 68  1  0
 20 69  1  0
 22 70  1  0
 26 71  1  0
 30 72  1  0
 30 73  1  0
 32 74  1  0
 33 75  1  0
 36 76  1  0
 36 77  1  0
 37 78  1  0
 37 79  1  0
 40 80  1  0
 41 81  1  0
 42 82  1  0
 44 83  1  0
 49 84  1  0
 50 85  1  0
M  END
$$$$
[H]Oc1c([H])c([H])c(C([H])([H])C([H])([H])N([H])c2nc(N(C([H])([H])c3c([H])c([H])c(N([H])C(=O)C([H])([H])c4c([H])c([H])c([H])c([H])c4[H])c([H])c3[H])C([H])([H])C([H])([H])[H])nc(N3C([H])([H])C([H])([H])OC([H])([H])C3([H])[H])n2)c([H])c1[H]
     RDKit          3D

 79 83  0  0  0  0  0  0  0  0999 V2000
    0.3253    0.2958    3.6760 C   0  0  0  0  0  0  0  0  0  0  0  0
    1.1108    1.0273    2.6609 C   0  0  0  0  0  0  0  0  0  0  0  0
    0.4445    1.2455    1.4339 N   0  0  0  0  0  0  0  0  0  0  0  0
    1.1823    1.9314    0.3626 C   0  0  0  0  0  0  0  0  0  0  0  0
    2.3985    1.2067   -0.0320 C   0  0  0  0  0  0  0  0  0  0  0  0
    2.3685    0.1629   -0.9284 C   0  0  0  0  0  0  0  0  0  0  0  0
    3.4996   -0.5223   -1.3089 C   0  0  0  0  0  0  0  0  0  0  0  0
    4.7649   -0.1822   -0.7910 C   0  0  0  0  0  0  0  0  0  0  0  0
    5.8768   -0.9300   -1.2174 N   0  0  0  0  0  0  0  0  0  0  0  0
    7.2402   -0.6745   -1.0236 C   0  0  0  0  0  0  0  0  0  0  0  0
    7.6394    0.3227   -0.4060 O   0  0  0  0  0  0  0  0  0  0  0  0
    8.2510   -1.6231   -1.5716 C   0  0  0  0  0  0  0  0  0  0  0  0
    9.5968   -1.0948   -1.2310 C   0  0  0  0  0  0  0  0  0  0  0  0
   10.2711   -0.2707   -2.1331 C   0  0  0  0  0  0  0  0  0  0  0  0
   11.5171    0.2367   -1.8438 C   0  0  0  0  0  0  0  0  0  0  0  0
   12.1058   -0.0668   -0.6587 C   0  0  0  0  0  0  0  0  0  0  0  0
   11.4865   -0.8858    0.2893 C   0  0  0  0  0  0  0  0  0  0  0  0
   10.2404   -1.3727   -0.0415 C   0  0  0  0  0  0  0  0  0  0  0  0
    4.7731    0.8622    0.1018 C   0  0  0  0  0  0  0  0  0  0  0  0
    3.6095    1.5538    0.4829 C   0  0  0  0  0  0  0  0  0  0  0  0
   -0.8709    0.8764    1.1488 C   0  0  0  0  0  0  0  0  0  0  0  0
   -1.7256    0.2667    1.9787 N   0  0  0  0  0  0  0  0  0  0  0  0
   -2.9918   -0.0751    1.7094 C   0  0  0  0  0  0  0  0  0  0  0  0
   -3.8163   -0.7345    2.6588 N   0  0  0  0  0  0  0  0  0  0  0  0
   -5.1641   -1.0730    2.3112 C   0  0  0  0  0  0  0  0  0  0  0  0
   -6.0751    0.0895    2.0708 C   0  0  0  0  0  0  0  0  0  0  0  0
   -7.4580   -0.3747    1.7066 C   0  0  0  0  0  0  0  0  0  0  0  0
   -8.4130   -0.5948    2.6674 C   0  0  0  0  0  0  0  0  0  0  0  0
   -9.6934   -1.0253    2.3424 C   0  0  0  0  0  0  0  0  0  0  0  0
  -10.0287   -1.2410    1.0267 C   0  0  0  0  0  0  0  0  0  0  0  0
  -11.3217   -1.6766    0.6942 O   0  0  0  0  0  0  0  0  0  0  0  0
   -9.0813   -1.0245    0.0415 C   0  0  0  0  0  0  0  0  0  0  0  0
   -7.8201   -0.5980    0.3971 C   0  0  0  0  0  0  0  0  0  0  0  0
   -3.4268    0.2374    0.4708 N   0  0  0  0  0  0  0  0  0  0  0  0
   -2.6386    0.8502   -0.4300 C   0  0  0  0  0  0  0  0  0  0  0  0
   -1.3830    1.1641   -0.0982 N   0  0  0  0  0  0  0  0  0  0  0  0
   -3.1075    1.2050   -1.7237 N   0  0  0  0  0  0  0  0  0  0  0  0
   -4.1360    2.2022   -1.9538 C   0  0  0  0  0  0  0  0  0  0  0  0
   -4.5821    2.0148   -3.3927 C   0  0  0  0  0  0  0  0  0  0  0  0
   -4.8798    0.6736   -3.6093 O   0  0  0  0  0  0  0  0  0  0  0  0
   -3.7330   -0.1167   -3.6087 C   0  0  0  0  0  0  0  0  0  0  0  0
   -2.5667    0.5368   -2.8851 C   0  0  0  0  0  0  0  0  0  0  0  0
    0.9520    0.1235    4.6160 H   0  0  0  0  0  0  0  0  0  0  0  0
   -0.5546    0.8401    4.0587 H   0  0  0  0  0  0  0  0  0  0  0  0
    0.0096   -0.7290    3.4098 H   0  0  0  0  0  0  0  0  0  0  0  0
    1.3031    2.0752    3.0861 H   0  0  0  0  0  0  0  0  0  0  0  0
    2.1490    0.6196    2.5343 H   0  0  0  0  0  0  0  0  0  0  0  0
    0.5706    2.1214   -0.5225 H   0  0  0  0  0  0  0  0  0  0  0  0
    1.4545    2.9343    0.8005 H   0  0  0  0  0  0  0  0  0  0  0  0
    1.3790   -0.0851   -1.3185 H   0  0  0  0  0  0  0  0  0  0  0  0
    3.4086   -1.3396   -2.0273 H   0  0  0  0  0  0  0  0  0  0  0  0
    5.6533   -1.8134   -1.7603 H   0  0  0  0  0  0  0  0  0  0  0  0
    8.0987   -2.6122   -1.1118 H   0  0  0  0  0  0  0  0  0  0  0  0
    8.1311   -1.7578   -2.6669 H   0  0  0  0  0  0  0  0  0  0  0  0
    9.7681   -0.0505   -3.0736 H   0  0  0  0  0  0  0  0  0  0  0  0
   12.0279    0.8734   -2.5449 H   0  0  0  0  0  0  0  0  0  0  0  0
   13.0868    0.3227   -0.4130 H   0  0  0  0  0  0  0  0  0  0  0  0
   11.9690   -1.1206    1.2346 H   0  0  0  0  0  0  0  0  0  0  0  0
    9.7117   -2.0143    0.6575 H   0  0  0  0  0  0  0  0  0  0  0  0
    5.7192    1.1603    0.5323 H   0  0  0  0  0  0  0  0  0  0  0  0
    3.7193    2.3730    1.2049 H   0  0  0  0  0  0  0  0  0  0  0  0
   -3.4426   -0.9643    3.5859 H   0  0  0  0  0  0  0  0  0  0  0  0
   -5.1805   -1.6751    1.3555 H   0  0  0  0  0  0  0  0  0  0  0  0
   -5.6125   -1.7628    3.0662 H   0  0  0  0  0  0  0  0  0  0  0  0
   -6.2046    0.6162    3.0613 H   0  0  0  0  0  0  0  0  0  0  0  0
   -5.7301    0.8400    1.3633 H   0  0  0  0  0  0  0  0  0  0  0  0
   -8.1948   -0.4366    3.7188 H   0  0  0  0  0  0  0  0  0  0  0  0
  -10.4053   -1.1786    3.1718 H   0  0  0  0  0  0  0  0  0  0  0  0
  -12.0729   -1.0423    0.4966 H   0  0  0  0  0  0  0  0  0  0  0  0
   -9.3676   -1.1969   -0.9906 H   0  0  0  0  0  0  0  0  0  0  0  0
   -7.0760   -0.4305   -0.3690 H   0  0  0  0  0  0  0  0  0  0  0  0
   -4.9587    2.1734   -1.2281 H   0  0  0  0  0  0  0  0  0  0  0  0
   -3.6328    3.2085   -1.8876 H   0  0  0  0  0  0  0  0  0  0  0  0
   -5.4759    2.6123   -3.6050 H   0  0  0  0  0  0  0  0  0  0  0  0
   -3.7132    2.3302   -4.0339 H   0  0  0  0  0  0  0  0  0  0  0  0
   -3.9728   -1.0319   -3.0297 H   0  0  0  0  0  0  0  0  0  0  0  0
   -3.4163   -0.4029   -4.6106 H   0  0  0  0  0  0  0  0  0  0  0  0
   -2.0085    1.2405   -3.5040 H   0  0  0  0  0  0  0  0  0  0  0  0
   -1.8807   -0.2985   -2.6001 H   0  0  0  0  0  0  0  0  0  0  0  0
  1  2  1  0
  2  3  1  0
  3  4  1  0
  4  5  1  0
  5  6  2  0
  6  7  1  0
  7  8  2  0
  8  9  1  0
  9 10  1  0
 10 11  2  0
 10 12  1  0
 12 13  1  0
 13 14  2  0
 14 15  1  0
 15 16  2  0
 16 17  1  0
 17 18  2  0
  8 19  1  0
 19 20  2  0
  3 21  1  0
 21 22  2  0
 22 23  1  0
 23 24  1  0
 24 25  1  0
 25 26  1  0
 26 27  1  0
 27 28  2  0
 28 29  1  0
 29 30  2  0
 30 31  1  0
 30 32  1  0
 32 33  2  0
 23 34  2  0
 34 35  1  0
 35 36  2  0
 35 37  1  0
 37 38  1  0
 38 39  1  0
 39 40  1  0
 40 41  1  0
 41 42  1  0
 20  5  1  0
 36 21  1  0
 42 37  1  0
 18 13  1  0
 33 27  1  0
  1 43  1  0
  1 44  1  0
  1 45  1  0
  2 46  1  0
  2 47  1  0
  4 48  1  0
  4 49  1  0
  6 50  1  0
  7 51  1  0
  9 52  1  0
 12 53  1  0
 12 54  1  0
 14 55  1  0
 15 56  1  0
 16 57  1  0
 17 58  1  0
 18 59  1  0
 19 60  1  0
 20 61  1  0
 24 62  1  0
 25 63  1  0
 25 64  1  0
 26 65  1  0
 26 66  1  0
 28 67  1  0
 29 68  1  0
 31 69  1  0
 32 70  1  0
 33 71  1  0
 38 72  1  0
 38 73  1  0
 39 74  1  0
 39 75  1  0
 41 76  1  0
 41 77  1  0
 42 78  1  0
 42 79  1  0
M  END
$$$$
[H]c1nn([H])c2c1C1=N[C@@]([H])(C([H])([H])[H])c3c([H])c([H])c([H])c(c31)C([H])([H])C2([H])[H]
     RDKit          3D

 30 33  0  0  0  0  0  0  0  0999 V2000
    3.5002   -1.1013   -0.1223 C   0  0  0  0  0  0  0  0  0  0  0  0
    2.3236   -0.7721    0.7594 C   0  0  2  0  0  0  0  0  0  0  0  0
    1.2259   -1.6887    0.5864 N   0  0  0  0  0  0  0  0  0  0  0  0
    0.1665   -1.0655    0.2288 C   0  0  0  0  0  0  0  0  0  0  0  0
   -1.1604   -1.6735   -0.0432 C   0  0  0  0  0  0  0  0  0  0  0  0
   -1.3439   -2.9842   -0.3297 C   0  0  0  0  0  0  0  0  0  0  0  0
   -2.6861   -3.1492   -0.5124 N   0  0  0  0  0  0  0  0  0  0  0  0
   -3.3125   -1.9765   -0.3439 N   0  0  0  0  0  0  0  0  0  0  0  0
   -2.3937   -1.0599   -0.0556 C   0  0  0  0  0  0  0  0  0  0  0  0
   -2.6844    0.3577    0.2043 C   0  0  0  0  0  0  0  0  0  0  0  0
   -1.8836    1.3251   -0.6196 C   0  0  0  0  0  0  0  0  0  0  0  0
   -0.4514    1.4193   -0.2355 C   0  0  0  0  0  0  0  0  0  0  0  0
    0.0503    2.6955   -0.2530 C   0  0  0  0  0  0  0  0  0  0  0  0
    1.3724    2.9022    0.0746 C   0  0  0  0  0  0  0  0  0  0  0  0
    2.2075    1.8515    0.4212 C   0  0  0  0  0  0  0  0  0  0  0  0
    1.7277    0.5408    0.4487 C   0  0  0  0  0  0  0  0  0  0  0  0
    0.4078    0.3722    0.1176 C   0  0  0  0  0  0  0  0  0  0  0  0
    3.7884   -2.1531    0.1112 H   0  0  0  0  0  0  0  0  0  0  0  0
    4.3507   -0.4772    0.2323 H   0  0  0  0  0  0  0  0  0  0  0  0
    3.2218   -0.9341   -1.1618 H   0  0  0  0  0  0  0  0  0  0  0  0
    2.6125   -0.8259    1.8401 H   0  0  0  0  0  0  0  0  0  0  0  0
   -0.5491   -3.7139   -0.3893 H   0  0  0  0  0  0  0  0  0  0  0  0
   -4.3487   -1.8977   -0.4431 H   0  0  0  0  0  0  0  0  0  0  0  0
   -2.4614    0.6329    1.2804 H   0  0  0  0  0  0  0  0  0  0  0  0
   -3.7693    0.5916    0.1033 H   0  0  0  0  0  0  0  0  0  0  0  0
   -2.3279    2.3379   -0.4319 H   0  0  0  0  0  0  0  0  0  0  0  0
   -2.0035    1.0411   -1.6888 H   0  0  0  0  0  0  0  0  0  0  0  0
   -0.6065    3.5000   -0.5230 H   0  0  0  0  0  0  0  0  0  0  0  0
    1.7809    3.9096    0.0642 H   0  0  0  0  0  0  0  0  0  0  0  0
    3.2464    1.9955    0.6806 H   0  0  0  0  0  0  0  0  0  0  0  0
  1  2  1  0
  2  3  1  0
  3  4  2  0
  4  5  1  0
  5  6  1  0
  6  7  2  0
  7  8  1  0
  8  9  1  0
  9 10  1  0
 10 11  1  0
 11 12  1  0
 12 13  2  0
 13 14  1  0
 14 15  2  0
 15 16  1  0
 16 17  2  0
 16  2  1  0
 17  4  1  0
  9  5  2  0
 17 12  1  0
  1 18  1  0
  1 19  1  0
  1 20  1  0
  2 21  1  1
  6 22  1  0
  8 23  1  0
 10 24  1  0
 10 25  1  0
 11 26  1  0
 11 27  1  0
 13 28  1  0
 14 29  1  0
 15 30  1  0
M  END
$$$$
[H]Oc1c([H])c([H])c(C([H])([H])C(=O)N([H])[C@]([H])(C(=O)N([H])[C@@]([H])(C(=O)N2C([H])([H])C([H])([H])C([H])(C([H])([H])C([H])([H])C([H])([H])N([H])[H])C([H])([H])C2([H])[H])C([H])([H])c2c([H])c([H])c(O[H])c([H])c2[H])C([H])([H])S[H])c([H])c1[H]
     RDKit          3D

 76 78  0  0  0  0  0  0  0  0999 V2000
   -9.7525    0.2878   -1.3108 N   0  0  0  0  0  0  0  0  0  0  0  0
   -8.6616    0.6876   -0.4473 C   0  0  0  0  0  0  0  0  0  0  0  0
   -7.3941    0.9081   -1.2875 C   0  0  0  0  0  0  0  0  0  0  0  0
   -6.3093    1.3370   -0.3401 C   0  0  0  0  0  0  0  0  0  0  0  0
   -4.9945    1.5743   -1.0526 C   0  0  0  0  0  0  0  0  0  0  0  0
   -4.4912    0.3451   -1.7311 C   0  0  0  0  0  0  0  0  0  0  0  0
   -2.9925    0.3036   -1.8144 C   0  0  0  0  0  0  0  0  0  0  0  0
   -2.3742    0.4071   -0.5032 N   0  0  0  0  0  0  0  0  0  0  0  0
   -3.1014    1.1251    0.5126 C   0  0  0  0  0  0  0  0  0  0  0  0
   -3.9985    2.1844   -0.1051 C   0  0  0  0  0  0  0  0  0  0  0  0
   -1.0912   -0.1740   -0.2694 C   0  0  0  0  0  0  0  0  0  0  0  0
   -0.5508   -0.7783   -1.2498 O   0  0  0  0  0  0  0  0  0  0  0  0
   -0.3657   -0.1162    1.0009 C   0  0  1  0  0  0  0  0  0  0  0  0
   -1.0112   -0.7622    2.1720 C   0  0  0  0  0  0  0  0  0  0  0  0
   -1.2923   -2.2067    2.0420 C   0  0  0  0  0  0  0  0  0  0  0  0
   -0.3844   -3.1675    2.3968 C   0  0  0  0  0  0  0  0  0  0  0  0
   -0.6342   -4.5131    2.2979 C   0  0  0  0  0  0  0  0  0  0  0  0
   -1.8592   -4.8922    1.8192 C   0  0  0  0  0  0  0  0  0  0  0  0
   -2.2020   -6.2224    1.6853 O   0  0  0  0  0  0  0  0  0  0  0  0
   -2.8001   -3.9468    1.4529 C   0  0  0  0  0  0  0  0  0  0  0  0
   -2.5321   -2.5956    1.5576 C   0  0  0  0  0  0  0  0  0  0  0  0
    0.9705   -0.6749    0.8553 N   0  0  0  0  0  0  0  0  0  0  0  0
    2.0925    0.1916    0.6960 C   0  0  0  0  0  0  0  0  0  0  0  0
    1.8498    1.4373    0.6662 O   0  0  0  0  0  0  0  0  0  0  0  0
    3.4838   -0.2397    0.5627 C   0  0  2  0  0  0  0  0  0  0  0  0
    3.9819   -0.4967    1.9958 C   0  0  0  0  0  0  0  0  0  0  0  0
    3.8501    1.0468    2.9442 S   0  0  0  0  0  0  0  0  0  0  0  0
    4.2610    0.8572   -0.0102 N   0  0  0  0  0  0  0  0  0  0  0  0
    5.1087    0.6751   -1.1227 C   0  0  0  0  0  0  0  0  0  0  0  0
    5.1948   -0.4932   -1.6224 O   0  0  0  0  0  0  0  0  0  0  0  0
    5.8993    1.7623   -1.7389 C   0  0  0  0  0  0  0  0  0  0  0  0
    7.3465    1.6291   -1.6201 C   0  0  0  0  0  0  0  0  0  0  0  0
    8.0089    2.3146   -0.5899 C   0  0  0  0  0  0  0  0  0  0  0  0
    9.3596    2.2488   -0.3974 C   0  0  0  0  0  0  0  0  0  0  0  0
   10.1337    1.4711   -1.2517 C   0  0  0  0  0  0  0  0  0  0  0  0
   11.5174    1.4023   -1.0584 O   0  0  0  0  0  0  0  0  0  0  0  0
    9.5061    0.7984   -2.2574 C   0  0  0  0  0  0  0  0  0  0  0  0
    8.1208    0.8660   -2.4554 C   0  0  0  0  0  0  0  0  0  0  0  0
   -9.4060   -0.2433   -2.1172 H   0  0  0  0  0  0  0  0  0  0  0  0
  -10.3966   -0.3091   -0.7286 H   0  0  0  0  0  0  0  0  0  0  0  0
   -8.4583   -0.1445    0.2705 H   0  0  0  0  0  0  0  0  0  0  0  0
   -8.9238    1.5900    0.1252 H   0  0  0  0  0  0  0  0  0  0  0  0
   -7.1622    0.0200   -1.8732 H   0  0  0  0  0  0  0  0  0  0  0  0
   -7.6644    1.7346   -1.9877 H   0  0  0  0  0  0  0  0  0  0  0  0
   -6.1104    0.5661    0.4317 H   0  0  0  0  0  0  0  0  0  0  0  0
   -6.6370    2.2373    0.2100 H   0  0  0  0  0  0  0  0  0  0  0  0
   -5.1928    2.3493   -1.8397 H   0  0  0  0  0  0  0  0  0  0  0  0
   -4.8692    0.2757   -2.7898 H   0  0  0  0  0  0  0  0  0  0  0  0
   -4.7949   -0.5776   -1.1619 H   0  0  0  0  0  0  0  0  0  0  0  0
   -2.6319    1.1475   -2.4668 H   0  0  0  0  0  0  0  0  0  0  0  0
   -2.7405   -0.6849   -2.2976 H   0  0  0  0  0  0  0  0  0  0  0  0
   -3.6849    0.4670    1.1945 H   0  0  0  0  0  0  0  0  0  0  0  0
   -2.3731    1.6789    1.1325 H   0  0  0  0  0  0  0  0  0  0  0  0
   -4.5332    2.6592    0.7349 H   0  0  0  0  0  0  0  0  0  0  0  0
   -3.3227    2.9290   -0.5738 H   0  0  0  0  0  0  0  0  0  0  0  0
   -0.2298    0.9803    1.2382 H   0  0  0  0  0  0  0  0  0  0  0  0
   -0.2637   -0.6936    3.0280 H   0  0  0  0  0  0  0  0  0  0  0  0
   -1.8888   -0.1948    2.5485 H   0  0  0  0  0  0  0  0  0  0  0  0
    0.6114   -2.9013    2.7951 H   0  0  0  0  0  0  0  0  0  0  0  0
    0.0757   -5.2668    2.5729 H   0  0  0  0  0  0  0  0  0  0  0  0
   -2.6470   -6.6708    2.4789 H   0  0  0  0  0  0  0  0  0  0  0  0
   -3.7494   -4.2495    1.0816 H   0  0  0  0  0  0  0  0  0  0  0  0
   -3.2858   -1.8843    1.2690 H   0  0  0  0  0  0  0  0  0  0  0  0
    1.1372   -1.6863    0.8487 H   0  0  0  0  0  0  0  0  0  0  0  0
    3.5771   -1.1524   -0.0061 H   0  0  0  0  0  0  0  0  0  0  0  0
    3.3406   -1.2532    2.4814 H   0  0  0  0  0  0  0  0  0  0  0  0
    5.0438   -0.7991    1.9581 H   0  0  0  0  0  0  0  0  0  0  0  0
    3.0076    0.8974    4.0650 H   0  0  0  0  0  0  0  0  0  0  0  0
    4.1818    1.8120    0.4320 H   0  0  0  0  0  0  0  0  0  0  0  0
    5.5718    2.7173   -1.2236 H   0  0  0  0  0  0  0  0  0  0  0  0
    5.5720    1.9351   -2.8107 H   0  0  0  0  0  0  0  0  0  0  0  0
    7.4299    2.9281    0.0887 H   0  0  0  0  0  0  0  0  0  0  0  0
    9.8641    2.7815    0.4057 H   0  0  0  0  0  0  0  0  0  0  0  0
   11.9312    1.9357   -0.2841 H   0  0  0  0  0  0  0  0  0  0  0  0
   10.0669    0.1748   -2.9500 H   0  0  0  0  0  0  0  0  0  0  0  0
    7.6630    0.3137   -3.2705 H   0  0  0  0  0  0  0  0  0  0  0  0
  1  2  1  0
  2  3  1  0
  3  4  1  0
  4  5  1  0
  5  6  1  0
  6  7  1  0
  7  8  1  0
  8  9  1  0
  9 10  1  0
  8 11  1  0
 11 12  2  0
 11 13  1  0
 13 14  1  0
 14 15  1  0
 15 16  2  0
 16 17  1  0
 17 18  2  0
 18 19  1  0
 18 20  1  0
 20 21  2  0
 13 22  1  0
 22 23  1  0
 23 24  2  0
 23 25  1  0
 25 26  1  0
 26 27  1  0
 25 28  1  0
 28 29  1  0
 29 30  2  0
 29 31  1  0
 31 32  1  0
 32 33  2  0
 33 34  1  0
 34 35  2  0
 35 36  1  0
 35 37  1  0
 37 38  2  0
 10  5  1  0
 21 15  1  0
 38 32  1  0
  1 39  1  0
  1 40  1  0
  2 41  1  0
  2 42  1  0
  3 43  1  0
  3 44  1  0
  4 45  1  0
  4 46  1  0
  5 47  1  0
  6 48  1  0
  6 49  1  0
  7 50  1  0
  7 51  1  0
  9 52  1  0
  9 53  1  0
 10 54  1  0
 10 55  1  0
 13 56  1  1
 14 57  1  0
 14 58  1  0
 16 59  1  0
 17 60  1  0
 19 61  1  0
 20 62  1  0
 21 63  1  0
 22 64  1  0
 25 65  1  6
 26 66  1  0
 26 67  1  0
 27 68  1  0
 28 69  1  0
 31 70  1  0
 31 71  1  0
 33 72  1  0
 34 73  1  0
 36 74  1  0
 37 75  1  0
 38 76  1  0
M  END
$$$$
[H]OC([H])(C(=O)N([H])[C@]([H])(c1c([H])c([H])c([H])c(-c2c([H])c([H])c([H])c([H])c2[H])c1[H])C([H])([H])[H])c1c([H])nc(N([H])C2([H])C([H])([H])C([H])([H])C([H])([H])C([H])([H])C2([H])[H])nc1[H]
     RDKit          3D

 62 65  0  0  0  0  0  0  0  0999 V2000
    4.0495   -2.3350    1.6577 C   0  0  0  0  0  0  0  0  0  0  0  0
    2.8571   -1.4143    1.4459 C   0  0  2  0  0  0  0  0  0  0  0  0
    1.7440   -2.1378    0.9081 N   0  0  0  0  0  0  0  0  0  0  0  0
    0.5414   -2.2185    1.6322 C   0  0  0  0  0  0  0  0  0  0  0  0
    0.4401   -1.6555    2.7509 O   0  0  0  0  0  0  0  0  0  0  0  0
   -0.6597   -2.9493    1.1500 C   0  0  0  0  0  0  0  0  0  0  0  0
   -0.3726   -3.5041   -0.0943 O   0  0  0  0  0  0  0  0  0  0  0  0
   -1.8875   -2.1295    1.1501 C   0  0  0  0  0  0  0  0  0  0  0  0
   -2.1298   -1.2352    0.1312 C   0  0  0  0  0  0  0  0  0  0  0  0
   -3.2405   -0.4935    0.1252 N   0  0  0  0  0  0  0  0  0  0  0  0
   -4.1590   -0.5787    1.0908 C   0  0  0  0  0  0  0  0  0  0  0  0
   -5.3542    0.1936    1.1090 N   0  0  0  0  0  0  0  0  0  0  0  0
   -5.6136    1.1205    0.0297 C   0  0  0  0  0  0  0  0  0  0  0  0
   -5.7727    0.3746   -1.2500 C   0  0  0  0  0  0  0  0  0  0  0  0
   -7.2449    0.3158   -1.6222 C   0  0  0  0  0  0  0  0  0  0  0  0
   -7.7402    1.6920   -1.9693 C   0  0  0  0  0  0  0  0  0  0  0  0
   -7.2602    2.6776   -0.9142 C   0  0  0  0  0  0  0  0  0  0  0  0
   -6.8640    1.9168    0.3406 C   0  0  0  0  0  0  0  0  0  0  0  0
   -3.9632   -1.4397    2.1069 N   0  0  0  0  0  0  0  0  0  0  0  0
   -2.8545   -2.1949    2.1334 C   0  0  0  0  0  0  0  0  0  0  0  0
    3.2862   -0.2864    0.6056 C   0  0  0  0  0  0  0  0  0  0  0  0
    2.3713    0.5880    0.0659 C   0  0  0  0  0  0  0  0  0  0  0  0
    2.8012    1.6473   -0.7253 C   0  0  0  0  0  0  0  0  0  0  0  0
    4.1495    1.8205   -0.9690 C   0  0  0  0  0  0  0  0  0  0  0  0
    5.0819    0.9547   -0.4371 C   0  0  0  0  0  0  0  0  0  0  0  0
    4.6224   -0.0976    0.3520 C   0  0  0  0  0  0  0  0  0  0  0  0
    6.5120    1.1180   -0.6830 C   0  0  0  0  0  0  0  0  0  0  0  0
    7.4186    0.7187    0.2862 C   0  0  0  0  0  0  0  0  0  0  0  0
    8.7652    0.8611    0.0774 C   0  0  0  0  0  0  0  0  0  0  0  0
    9.2413    1.4017   -1.0958 C   0  0  0  0  0  0  0  0  0  0  0  0
    8.3345    1.7965   -2.0547 C   0  0  0  0  0  0  0  0  0  0  0  0
    6.9969    1.6593   -1.8568 C   0  0  0  0  0  0  0  0  0  0  0  0
    4.7943   -1.8769    2.3280 H   0  0  0  0  0  0  0  0  0  0  0  0
    4.5517   -2.6011    0.7063 H   0  0  0  0  0  0  0  0  0  0  0  0
    3.7420   -3.2962    2.1180 H   0  0  0  0  0  0  0  0  0  0  0  0
    2.6031   -0.9638    2.4535 H   0  0  0  0  0  0  0  0  0  0  0  0
    1.8393   -2.5981   -0.0186 H   0  0  0  0  0  0  0  0  0  0  0  0
   -0.8718   -3.8399    1.8142 H   0  0  0  0  0  0  0  0  0  0  0  0
   -0.2212   -2.8321   -0.7821 H   0  0  0  0  0  0  0  0  0  0  0  0
   -1.3854   -1.1586   -0.6617 H   0  0  0  0  0  0  0  0  0  0  0  0
   -6.0352    0.0790    1.9104 H   0  0  0  0  0  0  0  0  0  0  0  0
   -4.7570    1.8437   -0.0313 H   0  0  0  0  0  0  0  0  0  0  0  0
   -5.4180   -0.6657   -1.1849 H   0  0  0  0  0  0  0  0  0  0  0  0
   -5.2716    0.9419   -2.0635 H   0  0  0  0  0  0  0  0  0  0  0  0
   -7.8333   -0.1099   -0.7958 H   0  0  0  0  0  0  0  0  0  0  0  0
   -7.3247   -0.3199   -2.5290 H   0  0  0  0  0  0  0  0  0  0  0  0
   -7.3762    2.0098   -2.9523 H   0  0  0  0  0  0  0  0  0  0  0  0
   -8.8535    1.7249   -2.0102 H   0  0  0  0  0  0  0  0  0  0  0  0
   -6.3436    3.1875   -1.3012 H   0  0  0  0  0  0  0  0  0  0  0  0
   -8.0341    3.4189   -0.6421 H   0  0  0  0  0  0  0  0  0  0  0  0
   -6.6309    2.6630    1.1293 H   0  0  0  0  0  0  0  0  0  0  0  0
   -7.6946    1.2884    0.6734 H   0  0  0  0  0  0  0  0  0  0  0  0
   -2.6902   -2.8878    2.9451 H   0  0  0  0  0  0  0  0  0  0  0  0
    1.3067    0.5022    0.2222 H   0  0  0  0  0  0  0  0  0  0  0  0
    2.0788    2.3319   -1.1470 H   0  0  0  0  0  0  0  0  0  0  0  0
    4.5410    2.6341   -1.5819 H   0  0  0  0  0  0  0  0  0  0  0  0
    5.3985   -0.7502    0.7462 H   0  0  0  0  0  0  0  0  0  0  0  0
    7.0873    0.2848    1.2296 H   0  0  0  0  0  0  0  0  0  0  0  0
    9.4893    0.5500    0.8332 H   0  0  0  0  0  0  0  0  0  0  0  0
   10.2947    1.5291   -1.2976 H   0  0  0  0  0  0  0  0  0  0  0  0
    8.6682    2.2270   -2.9920 H   0  0  0  0  0  0  0  0  0  0  0  0
    6.2502    1.9621   -2.5951 H   0  0  0  0  0  0  0  0  0  0  0  0
  1  2  1  0
  2  3  1  0
  3  4  1  0
  4  5  2  0
  4  6  1  0
  6  7  1  0
  6  8  1  0
  8  9  2  0
  9 10  1  0
 10 11  2  0
 11 12  1  0
 12 13  1  0
 13 14  1  0
 14 15  1  0
 15 16  1  0
 16 17  1  0
 17 18  1  0
 11 19  1  0
 19 20  2  0
  2 21  1  0
 21 22  2  0
 22 23  1  0
 23 24  2  0
 24 25  1  0
 25 26  2  0
 25 27  1  0
 27 28  2  0
 28 29  1  0
 29 30  2  0
 30 31  1  0
 31 32  2  0
 20  8  1  0
 26 21  1  0
 32 27  1  0
 18 13  1  0
  1 33  1  0
  1 34  1  0
  1 35  1  0
  2 36  1  1
  3 37  1  0
  6 38  1  0
  7 39  1  0
  9 40  1  0
 12 41  1  0
 13 42  1  0
 14 43  1  0
 14 44  1  0
 15 45  1  0
 15 46  1  0
 16 47  1  0
 16 48  1  0
 17 49  1  0
 17 50  1  0
 18 51  1  0
 18 52  1  0
 20 53  1  0
 22 54  1  0
 23 55  1  0
 24 56  1  0
 26 57  1  0
 28 58  1  0
 29 59  1  0
 30 60  1  0
 31 61  1  0
 32 62  1  0
M  END
$$$$
[H]N=C(N([H])[H])N([H])C([H])([H])C([H])([H])C([H])([H])[C@@]([H])(C(=O)c1nc2c([H])c([H])c([H])c([H])c2s1)N([H])C(=O)[C@@]1([H])N(C(=O)[C@]([H])(OC([H])([H])[H])C([H])([H])C([H])(C([H])([H])[H])C([H])([H])[H])C([H])([H])C([H])([H])C1([H])[H]
     RDKit          3D

 72 74  0  0  0  0  0  0  0  0999 V2000
   -5.8339    0.8000    0.7383 C   0  0  0  0  0  0  0  0  0  0  0  0
   -4.5230    0.5849    0.5198 O   0  0  0  0  0  0  0  0  0  0  0  0
   -4.0665   -0.1772   -0.4790 C   0  0  2  0  0  0  0  0  0  0  0  0
   -3.4254   -1.4424    0.1182 C   0  0  0  0  0  0  0  0  0  0  0  0
   -4.3898   -2.2839    0.8949 C   0  0  0  0  0  0  0  0  0  0  0  0
   -5.5266   -2.7910    0.0341 C   0  0  0  0  0  0  0  0  0  0  0  0
   -3.6713   -3.4001    1.6031 C   0  0  0  0  0  0  0  0  0  0  0  0
   -3.1473    0.4063   -1.4696 C   0  0  0  0  0  0  0  0  0  0  0  0
   -2.8581   -0.4365   -2.4241 O   0  0  0  0  0  0  0  0  0  0  0  0
   -2.5735    1.6840   -1.5117 N   0  0  0  0  0  0  0  0  0  0  0  0
   -2.7282    2.7636   -0.5991 C   0  0  0  0  0  0  0  0  0  0  0  0
   -2.6778    3.9918   -1.4968 C   0  0  0  0  0  0  0  0  0  0  0  0
   -2.1430    3.5448   -2.8090 C   0  0  0  0  0  0  0  0  0  0  0  0
   -1.6554    2.1461   -2.5448 C   0  0  1  0  0  0  0  0  0  0  0  0
   -0.2553    2.0639   -2.1463 C   0  0  0  0  0  0  0  0  0  0  0  0
    0.6341    2.6063   -2.8354 O   0  0  0  0  0  0  0  0  0  0  0  0
    0.1267    1.3737   -0.9832 N   0  0  0  0  0  0  0  0  0  0  0  0
    1.5466    1.2684   -0.5372 C   0  0  1  0  0  0  0  0  0  0  0  0
    1.8249    1.8366    0.7655 C   0  0  0  0  0  0  0  0  0  0  0  0
    3.2711    1.8940    1.1209 C   0  0  0  0  0  0  0  0  0  0  0  0
    4.0182    2.8237    0.1151 C   0  0  0  0  0  0  0  0  0  0  0  0
    5.4277    2.8756    0.5045 N   0  0  0  0  0  0  0  0  0  0  0  0
    6.2240    1.7325    0.3718 C   0  0  0  0  0  0  0  0  0  0  0  0
    6.1939    0.8904   -0.7857 N   0  0  0  0  0  0  0  0  0  0  0  0
    7.0404    1.3767    1.3056 N   0  0  0  0  0  0  0  0  0  0  0  0
    1.9083   -0.0882   -0.8935 C   0  0  0  0  0  0  0  0  0  0  0  0
    1.7467   -0.4348   -2.1403 O   0  0  0  0  0  0  0  0  0  0  0  0
    2.4228   -1.1557   -0.0592 C   0  0  0  0  0  0  0  0  0  0  0  0
    2.8753   -2.3413   -0.4575 N   0  0  0  0  0  0  0  0  0  0  0  0
    3.2044   -3.2472    0.4028 C   0  0  0  0  0  0  0  0  0  0  0  0
    3.6946   -4.5314    0.0897 C   0  0  0  0  0  0  0  0  0  0  0  0
    4.0170   -5.4196    1.0749 C   0  0  0  0  0  0  0  0  0  0  0  0
    3.8871   -5.1250    2.4095 C   0  0  0  0  0  0  0  0  0  0  0  0
    3.4104   -3.8773    2.7349 C   0  0  0  0  0  0  0  0  0  0  0  0
    3.0751   -2.9545    1.7301 C   0  0  0  0  0  0  0  0  0  0  0  0
    2.4771   -1.3649    1.6613 S   0  0  0  0  0  0  0  0  0  0  0  0
   -6.4776   -0.0616    0.9595 H   0  0  0  0  0  0  0  0  0  0  0  0
   -6.3397    1.4479   -0.0138 H   0  0  0  0  0  0  0  0  0  0  0  0
   -5.8952    1.4285    1.6839 H   0  0  0  0  0  0  0  0  0  0  0  0
   -4.9804   -0.5804   -1.0294 H   0  0  0  0  0  0  0  0  0  0  0  0
   -3.0286   -2.0900   -0.7039 H   0  0  0  0  0  0  0  0  0  0  0  0
   -2.5572   -1.1738    0.7360 H   0  0  0  0  0  0  0  0  0  0  0  0
   -4.8253   -1.6299    1.6956 H   0  0  0  0  0  0  0  0  0  0  0  0
   -5.6254   -3.9095    0.1140 H   0  0  0  0  0  0  0  0  0  0  0  0
   -6.5045   -2.3806    0.3452 H   0  0  0  0  0  0  0  0  0  0  0  0
   -5.3781   -2.5796   -1.0447 H   0  0  0  0  0  0  0  0  0  0  0  0
   -3.5682   -4.2735    0.9027 H   0  0  0  0  0  0  0  0  0  0  0  0
   -4.2787   -3.6748    2.4980 H   0  0  0  0  0  0  0  0  0  0  0  0
   -2.6782   -3.0506    1.9445 H   0  0  0  0  0  0  0  0  0  0  0  0
   -3.6166    2.7667    0.0334 H   0  0  0  0  0  0  0  0  0  0  0  0
   -1.8690    2.8092    0.1454 H   0  0  0  0  0  0  0  0  0  0  0  0
   -3.6712    4.4598   -1.5724 H   0  0  0  0  0  0  0  0  0  0  0  0
   -1.9790    4.7354   -1.0481 H   0  0  0  0  0  0  0  0  0  0  0  0
   -1.3461    4.2007   -3.2181 H   0  0  0  0  0  0  0  0  0  0  0  0
   -2.9928    3.4731   -3.5425 H   0  0  0  0  0  0  0  0  0  0  0  0
   -1.8565    1.5279   -3.4668 H   0  0  0  0  0  0  0  0  0  0  0  0
   -0.5786    0.9005   -0.3871 H   0  0  0  0  0  0  0  0  0  0  0  0
    2.0598    1.9444   -1.3135 H   0  0  0  0  0  0  0  0  0  0  0  0
    1.2695    1.3487    1.6179 H   0  0  0  0  0  0  0  0  0  0  0  0
    1.4712    2.9244    0.7498 H   0  0  0  0  0  0  0  0  0  0  0  0
    3.4235    2.4328    2.1113 H   0  0  0  0  0  0  0  0  0  0  0  0
    3.8552    0.9978    1.1902 H   0  0  0  0  0  0  0  0  0  0  0  0
    3.9302    2.3896   -0.8961 H   0  0  0  0  0  0  0  0  0  0  0  0
    3.5416    3.8167    0.1176 H   0  0  0  0  0  0  0  0  0  0  0  0
    5.8035    3.7679    0.8724 H   0  0  0  0  0  0  0  0  0  0  0  0
    7.0515    0.6998   -1.3380 H   0  0  0  0  0  0  0  0  0  0  0  0
    5.3117    0.4612   -1.0845 H   0  0  0  0  0  0  0  0  0  0  0  0
    7.1326    1.9265    2.1844 H   0  0  0  0  0  0  0  0  0  0  0  0
    3.8270   -4.8422   -0.9533 H   0  0  0  0  0  0  0  0  0  0  0  0
    4.4001   -6.4218    0.7937 H   0  0  0  0  0  0  0  0  0  0  0  0
    4.1504   -5.8466    3.1473 H   0  0  0  0  0  0  0  0  0  0  0  0
    3.2677   -3.5373    3.7465 H   0  0  0  0  0  0  0  0  0  0  0  0
  1  2  1  0
  2  3  1  0
  3  4  1  0
  4  5  1  0
  5  6  1  0
  5  7  1  0
  3  8  1  0
  8  9  2  0
  8 10  1  0
 10 11  1  0
 11 12  1  0
 12 13  1  0
 13 14  1  0
 14 15  1  0
 15 16  2  0
 15 17  1  0
 17 18  1  0
 18 19  1  0
 19 20  1  0
 20 21  1  0
 21 22  1  0
 22 23  1  0
 23 24  1  0
 23 25  2  3
 18 26  1  0
 26 27  2  0
 26 28  1  0
 28 29  2  0
 29 30  1  0
 30 31  2  0
 31 32  1  0
 32 33  2  0
 33 34  1  0
 34 35  2  0
 35 36  1  0
 14 10  1  0
 36 28  1  0
 35 30  1  0
  1 37  1  0
  1 38  1  0
  1 39  1  0
  3 40  1  6
  4 41  1  0
  4 42  1  0
  5 43  1  0
  6 44  1  0
  6 45  1  0
  6 46  1  0
  7 47  1  0
  7 48  1  0
  7 49  1  0
 11 50  1  0
 11 51  1  0
 12 52  1  0
 12 53  1  0
 13 54  1  0
 13 55  1  0
 14 56  1  6
 17 57  1  0
 18 58  1  6
 19 59  1  0
 19 60  1  0
 20 61  1  0
 20 62  1  0
 21 63  1  0
 21 64  1  0
 22 65  1  0
 24 66  1  0
 24 67  1  0
 25 68  1  0
 31 69  1  0
 32 70  1  0
 33 71  1  0
 34 72  1  0
M  END
$$$$
[H]c1nc(N2C([H])([H])C([H])(c3c([H])c([H])c(C(F)(F)F)c([H])c3[H])C2([H])[H])c2c([H])c([H])n([H])c2n1
     RDKit          3D

 36 39  0  0  0  0  0  0  0  0999 V2000
   -6.6062    0.3445   -1.2252 F   0  0  0  0  0  0  0  0  0  0  0  0
   -6.1204   -0.2442   -0.0517 C   0  0  0  0  0  0  0  0  0  0  0  0
   -6.5592   -1.5570   -0.0597 F   0  0  0  0  0  0  0  0  0  0  0  0
   -6.6888    0.3625    1.0165 F   0  0  0  0  0  0  0  0  0  0  0  0
   -4.6453   -0.2189   -0.1284 C   0  0  0  0  0  0  0  0  0  0  0  0
   -4.0564    1.0162   -0.3672 C   0  0  0  0  0  0  0  0  0  0  0  0
   -2.6899    1.1021   -0.4214 C   0  0  0  0  0  0  0  0  0  0  0  0
   -1.8549    0.0135   -0.2554 C   0  0  0  0  0  0  0  0  0  0  0  0
   -2.4579   -1.2027   -0.0203 C   0  0  0  0  0  0  0  0  0  0  0  0
   -3.8510   -1.3224    0.0455 C   0  0  0  0  0  0  0  0  0  0  0  0
   -0.4238    0.1951   -0.3437 C   0  0  0  0  0  0  0  0  0  0  0  0
    0.4296   -0.9226   -0.9074 C   0  0  0  0  0  0  0  0  0  0  0  0
    1.4371   -0.7327    0.0833 N   0  0  0  0  0  0  0  0  0  0  0  0
    0.3439   -0.1656    0.9294 C   0  0  0  0  0  0  0  0  0  0  0  0
    2.7986   -0.8269    0.4201 C   0  0  0  0  0  0  0  0  0  0  0  0
    3.3957   -1.8910    0.9324 N   0  0  0  0  0  0  0  0  0  0  0  0
    4.7349   -1.8553    1.2290 C   0  0  0  0  0  0  0  0  0  0  0  0
    5.4029   -0.7391    0.9957 N   0  0  0  0  0  0  0  0  0  0  0  0
    4.8528    0.3635    0.4826 C   0  0  0  0  0  0  0  0  0  0  0  0
    5.3377    1.5977    0.1576 N   0  0  0  0  0  0  0  0  0  0  0  0
    4.3575    2.3555   -0.3425 C   0  0  0  0  0  0  0  0  0  0  0  0
    3.2147    1.5983   -0.3355 C   0  0  0  0  0  0  0  0  0  0  0  0
    3.5233    0.3522    0.1742 C   0  0  0  0  0  0  0  0  0  0  0  0
   -4.6706    1.8769   -0.4839 H   0  0  0  0  0  0  0  0  0  0  0  0
   -2.2438    2.0681   -0.5968 H   0  0  0  0  0  0  0  0  0  0  0  0
   -1.8670   -2.1196    0.1430 H   0  0  0  0  0  0  0  0  0  0  0  0
   -4.3298   -2.2705    0.2583 H   0  0  0  0  0  0  0  0  0  0  0  0
   -0.1643    1.1885   -0.7483 H   0  0  0  0  0  0  0  0  0  0  0  0
    0.7828   -0.7251   -1.9361 H   0  0  0  0  0  0  0  0  0  0  0  0
   -0.0347   -1.9349   -0.7861 H   0  0  0  0  0  0  0  0  0  0  0  0
    0.6487    0.8055    1.4037 H   0  0  0  0  0  0  0  0  0  0  0  0
   -0.1948   -0.8786    1.5401 H   0  0  0  0  0  0  0  0  0  0  0  0
    5.1689   -2.7635    1.6492 H   0  0  0  0  0  0  0  0  0  0  0  0
    6.3253    1.8607    0.3055 H   0  0  0  0  0  0  0  0  0  0  0  0
    4.4770    3.3818   -0.6871 H   0  0  0  0  0  0  0  0  0  0  0  0
    2.2276    1.8881   -0.6700 H   0  0  0  0  0  0  0  0  0  0  0  0
  1  2  1  0
  2  3  1  0
  2  4  1  0
  2  5  1  0
  5  6  2  0
  6  7  1  0
  7  8  2  0
  8  9  1  0
  9 10  2  0
  8 11  1  0
 11 12  1  0
 12 13  1  0
 13 14  1  0
 13 15  1  0
 15 16  2  0
 16 17  1  0
 17 18  2  0
 18 19  1  0
 19 20  1  0
 20 21  1  0
 21 22  2  0
 22 23  1  0
 10  5  1  0
 14 11  1  0
 23 15  1  0
 23 19  2  0
  6 24  1  0
  7 25  1  0
  9 26  1  0
 10 27  1  0
 11 28  1  0
 12 29  1  0
 12 30  1  0
 14 31  1  0
 14 32  1  0
 17 33  1  0
 20 34  1  0
 21 35  1  0
 22 36  1  0
M  END
$$$$
[H]c1nc(C([H])([H])OC(=O)C2([H])C([H])(c3c([H])c([H])c(C(C([H])([H])[H])(C([H])([H])[H])C([H])([H])[H])c([H])c3[H])C(=O)OC(C([H])([H])[H])(C([H])([H])[H])C2([H])c2c([H])nc([H])c(-c3c([H])c(OC([H])([H])[H])c([H])c(C([H])([H])[H])c3[H])c2[H])c([H])c([H])c1[H]
     RDKit          3D

 84 88  0  0  0  0  0  0  0  0999 V2000
    9.1617   -0.3407   -0.7454 C   0  0  0  0  0  0  0  0  0  0  0  0
    7.7681   -0.0832   -0.7032 O   0  0  0  0  0  0  0  0  0  0  0  0
    6.9838   -0.7136    0.2858 C   0  0  0  0  0  0  0  0  0  0  0  0
    7.5879   -1.5581    1.1970 C   0  0  0  0  0  0  0  0  0  0  0  0
    6.8283   -2.2013    2.1861 C   0  0  0  0  0  0  0  0  0  0  0  0
    7.5314   -3.0838    3.1692 C   0  0  0  0  0  0  0  0  0  0  0  0
    5.4884   -1.9580    2.2073 C   0  0  0  0  0  0  0  0  0  0  0  0
    4.8301   -1.1087    1.3056 C   0  0  0  0  0  0  0  0  0  0  0  0
    5.6288   -0.4990    0.3485 C   0  0  0  0  0  0  0  0  0  0  0  0
    3.3924   -0.9058    1.3609 C   0  0  0  0  0  0  0  0  0  0  0  0
    2.7090   -1.0096    2.5623 C   0  0  0  0  0  0  0  0  0  0  0  0
    1.3794   -0.8171    2.6253 N   0  0  0  0  0  0  0  0  0  0  0  0
    0.6279   -0.5103    1.5272 C   0  0  0  0  0  0  0  0  0  0  0  0
    1.2427   -0.3918    0.3158 C   0  0  0  0  0  0  0  0  0  0  0  0
    2.6361   -0.5960    0.2519 C   0  0  0  0  0  0  0  0  0  0  0  0
    0.5540   -0.0234   -0.9768 C   0  0  0  0  0  0  0  0  0  0  0  0
   -0.8004    0.5129   -0.8598 C   0  0  0  0  0  0  0  0  0  0  0  0
   -1.8486    0.0809   -1.7807 C   0  0  0  0  0  0  0  0  0  0  0  0
   -1.4659   -1.1070   -2.5865 C   0  0  0  0  0  0  0  0  0  0  0  0
   -2.2816   -1.9949   -2.9568 O   0  0  0  0  0  0  0  0  0  0  0  0
   -0.1686   -1.2382   -2.9416 O   0  0  0  0  0  0  0  0  0  0  0  0
    0.9073   -0.9857   -2.0385 C   0  0  0  0  0  0  0  0  0  0  0  0
    1.3814   -2.3449   -1.5958 C   0  0  0  0  0  0  0  0  0  0  0  0
    2.0018   -0.4254   -2.9678 C   0  0  0  0  0  0  0  0  0  0  0  0
   -3.1326   -0.3511   -1.1336 C   0  0  0  0  0  0  0  0  0  0  0  0
   -4.3276   -0.0465   -1.7397 C   0  0  0  0  0  0  0  0  0  0  0  0
   -5.5513   -0.4687   -1.1783 C   0  0  0  0  0  0  0  0  0  0  0  0
   -5.5820   -1.1963   -0.0140 C   0  0  0  0  0  0  0  0  0  0  0  0
   -4.3708   -1.4960    0.5904 C   0  0  0  0  0  0  0  0  0  0  0  0
   -3.1647   -1.0744    0.0301 C   0  0  0  0  0  0  0  0  0  0  0  0
   -6.8165   -1.7155    0.6330 C   0  0  0  0  0  0  0  0  0  0  0  0
   -6.6754   -3.2362    0.8238 C   0  0  0  0  0  0  0  0  0  0  0  0
   -8.0783   -1.4374   -0.0880 C   0  0  0  0  0  0  0  0  0  0  0  0
   -6.9223   -1.1438    2.0266 C   0  0  0  0  0  0  0  0  0  0  0  0
   -0.6426    2.0362   -1.0800 C   0  0  0  0  0  0  0  0  0  0  0  0
   -1.2313    2.5987   -2.0114 O   0  0  0  0  0  0  0  0  0  0  0  0
    0.1563    2.7378   -0.2382 O   0  0  0  0  0  0  0  0  0  0  0  0
    0.4605    4.0856   -0.2601 C   0  0  0  0  0  0  0  0  0  0  0  0
   -0.6420    5.0306   -0.1148 C   0  0  0  0  0  0  0  0  0  0  0  0
   -1.8956    4.6686    0.2488 C   0  0  0  0  0  0  0  0  0  0  0  0
   -2.9397    5.5922    0.3828 C   0  0  0  0  0  0  0  0  0  0  0  0
   -2.6408    6.9253    0.1248 C   0  0  0  0  0  0  0  0  0  0  0  0
   -1.3566    7.2707   -0.2458 C   0  0  0  0  0  0  0  0  0  0  0  0
   -0.3629    6.3396   -0.3656 N   0  0  0  0  0  0  0  0  0  0  0  0
    9.5862    0.4022   -1.4847 H   0  0  0  0  0  0  0  0  0  0  0  0
    9.3633   -1.3496   -1.1656 H   0  0  0  0  0  0  0  0  0  0  0  0
    9.6324   -0.2504    0.2523 H   0  0  0  0  0  0  0  0  0  0  0  0
    8.6504   -1.7699    1.1983 H   0  0  0  0  0  0  0  0  0  0  0  0
    7.7854   -2.5362    4.1018 H   0  0  0  0  0  0  0  0  0  0  0  0
    8.4512   -3.4648    2.6440 H   0  0  0  0  0  0  0  0  0  0  0  0
    6.9311   -3.9649    3.4481 H   0  0  0  0  0  0  0  0  0  0  0  0
    4.8861   -2.4401    2.9653 H   0  0  0  0  0  0  0  0  0  0  0  0
    5.1139    0.1680   -0.3522 H   0  0  0  0  0  0  0  0  0  0  0  0
    3.2950   -1.2546    3.4423 H   0  0  0  0  0  0  0  0  0  0  0  0
   -0.4285   -0.3585    1.6113 H   0  0  0  0  0  0  0  0  0  0  0  0
    3.1968   -0.5191   -0.6689 H   0  0  0  0  0  0  0  0  0  0  0  0
    1.2244    0.9105   -1.2587 H   0  0  0  0  0  0  0  0  0  0  0  0
   -1.2426    0.4093    0.1747 H   0  0  0  0  0  0  0  0  0  0  0  0
   -2.1299    0.8563   -2.5608 H   0  0  0  0  0  0  0  0  0  0  0  0
    1.1072   -2.5944   -0.5630 H   0  0  0  0  0  0  0  0  0  0  0  0
    2.4862   -2.4833   -1.8060 H   0  0  0  0  0  0  0  0  0  0  0  0
    0.9331   -3.1740   -2.2144 H   0  0  0  0  0  0  0  0  0  0  0  0
    1.6352   -0.2194   -3.9840 H   0  0  0  0  0  0  0  0  0  0  0  0
    2.2910    0.5815   -2.5564 H   0  0  0  0  0  0  0  0  0  0  0  0
    2.8887   -1.0454   -2.9823 H   0  0  0  0  0  0  0  0  0  0  0  0
   -4.3644    0.5299   -2.6678 H   0  0  0  0  0  0  0  0  0  0  0  0
   -6.4937   -0.2397   -1.6425 H   0  0  0  0  0  0  0  0  0  0  0  0
   -4.3579   -2.0744    1.5322 H   0  0  0  0  0  0  0  0  0  0  0  0
   -2.2303   -1.3200    0.4989 H   0  0  0  0  0  0  0  0  0  0  0  0
   -6.4746   -3.7588   -0.1083 H   0  0  0  0  0  0  0  0  0  0  0  0
   -5.8799   -3.4578    1.5934 H   0  0  0  0  0  0  0  0  0  0  0  0
   -7.6245   -3.6349    1.2575 H   0  0  0  0  0  0  0  0  0  0  0  0
   -8.2181   -2.2002   -0.8768 H   0  0  0  0  0  0  0  0  0  0  0  0
   -8.9193   -1.5849    0.6576 H   0  0  0  0  0  0  0  0  0  0  0  0
   -8.1276   -0.4109   -0.4573 H   0  0  0  0  0  0  0  0  0  0  0  0
   -7.8727   -1.5661    2.4531 H   0  0  0  0  0  0  0  0  0  0  0  0
   -6.0989   -1.5328    2.6481 H   0  0  0  0  0  0  0  0  0  0  0  0
   -7.0021   -0.0520    2.0245 H   0  0  0  0  0  0  0  0  0  0  0  0
    1.2572    4.2703    0.5447 H   0  0  0  0  0  0  0  0  0  0  0  0
    1.0483    4.3705   -1.1939 H   0  0  0  0  0  0  0  0  0  0  0  0
   -2.1735    3.6385    0.4722 H   0  0  0  0  0  0  0  0  0  0  0  0
   -3.9286    5.2678    0.6803 H   0  0  0  0  0  0  0  0  0  0  0  0
   -3.3940    7.6983    0.2108 H   0  0  0  0  0  0  0  0  0  0  0  0
   -1.1609    8.3374   -0.4380 H   0  0  0  0  0  0  0  0  0  0  0  0
  1  2  1  0
  2  3  1  0
  3  4  2  0
  4  5  1  0
  5  6  1  0
  5  7  2  0
  7  8  1  0
  8  9  2  0
  8 10  1  0
 10 11  2  0
 11 12  1  0
 12 13  2  0
 13 14  1  0
 14 15  2  0
 14 16  1  0
 16 17  1  0
 17 18  1  0
 18 19  1  0
 19 20  2  0
 19 21  1  0
 21 22  1  0
 22 23  1  0
 22 24  1  0
 18 25  1  0
 25 26  2  0
 26 27  1  0
 27 28  2  0
 28 29  1  0
 29 30  2  0
 28 31  1  0
 31 32  1  0
 31 33  1  0
 31 34  1  0
 17 35  1  0
 35 36  2  0
 35 37  1  0
 37 38  1  0
 38 39  1  0
 39 40  2  0
 40 41  1  0
 41 42  2  0
 42 43  1  0
 43 44  2  0
  9  3  1  0
 15 10  1  0
 22 16  1  0
 30 25  1  0
 44 39  1  0
  1 45  1  0
  1 46  1  0
  1 47  1  0
  4 48  1  0
  6 49  1  0
  6 50  1  0
  6 51  1  0
  7 52  1  0
  9 53  1  0
 11 54  1  0
 13 55  1  0
 15 56  1  0
 16 57  1  0
 17 58  1  0
 18 59  1  0
 23 60  1  0
 23 61  1  0
 23 62  1  0
 24 63  1  0
 24 64  1  0
 24 65  1  0
 26 66  1  0
 27 67  1  0
 29 68  1  0
 30 69  1  0
 32 70  1  0
 32 71  1  0
 32 72  1  0
 33 73  1  0
 33 74  1  0
 33 75  1  0
 34 76  1  0
 34 77  1  0
 34 78  1  0
 38 79  1  0
 38 80  1  0
 40 81  1  0
 41 82  1  0
 42 83  1  0
 43 84  1  0
M  END
$$$$
[H]c1nc2nc(N([H])[H])nc(N([H])[H])c2c([H])c1C([H])([H])N([H])c1c([H])c([H])c2nc(N([H])[H])nc(N([H])[H])c2c1[H]
     RDKit          3D

 42 45  0  0  0  0  0  0  0  0999 V2000
   -5.1887   -3.2316   -1.6056 N   0  0  0  0  0  0  0  0  0  0  0  0
   -4.4045   -2.0527   -1.4634 C   0  0  0  0  0  0  0  0  0  0  0  0
   -4.3456   -1.0995   -2.4075 N   0  0  0  0  0  0  0  0  0  0  0  0
   -3.5977   -0.0049   -2.2289 C   0  0  0  0  0  0  0  0  0  0  0  0
   -3.5150    1.0186   -3.2058 N   0  0  0  0  0  0  0  0  0  0  0  0
   -2.8628    0.1831   -1.0705 C   0  0  0  0  0  0  0  0  0  0  0  0
   -2.0853    1.2862   -0.8370 C   0  0  0  0  0  0  0  0  0  0  0  0
   -1.3925    1.3875    0.3431 C   0  0  0  0  0  0  0  0  0  0  0  0
   -0.5889    2.5260    0.6237 N   0  0  0  0  0  0  0  0  0  0  0  0
    0.2365    2.6434    1.7816 C   0  0  0  0  0  0  0  0  0  0  0  0
    1.3585    1.6638    1.8247 C   0  0  0  0  0  0  0  0  0  0  0  0
    1.9865    1.3057    2.9974 C   0  0  0  0  0  0  0  0  0  0  0  0
    3.0149    0.4127    3.0256 N   0  0  0  0  0  0  0  0  0  0  0  0
    3.4876   -0.1795    1.9101 C   0  0  0  0  0  0  0  0  0  0  0  0
    4.5134   -1.0675    1.9446 N   0  0  0  0  0  0  0  0  0  0  0  0
    4.9843   -1.6536    0.8319 C   0  0  0  0  0  0  0  0  0  0  0  0
    6.0689   -2.5942    0.8840 N   0  0  0  0  0  0  0  0  0  0  0  0
    4.4110   -1.3407   -0.3375 N   0  0  0  0  0  0  0  0  0  0  0  0
    3.3777   -0.4558   -0.4201 C   0  0  0  0  0  0  0  0  0  0  0  0
    2.7719   -0.1126   -1.6600 N   0  0  0  0  0  0  0  0  0  0  0  0
    2.8882    0.1508    0.7166 C   0  0  0  0  0  0  0  0  0  0  0  0
    1.8398    1.0587    0.6745 C   0  0  0  0  0  0  0  0  0  0  0  0
   -1.4705    0.4048    1.2815 C   0  0  0  0  0  0  0  0  0  0  0  0
   -2.2426   -0.7213    1.0842 C   0  0  0  0  0  0  0  0  0  0  0  0
   -2.9380   -0.8238   -0.0996 C   0  0  0  0  0  0  0  0  0  0  0  0
   -3.7049   -1.8982   -0.3367 N   0  0  0  0  0  0  0  0  0  0  0  0
   -5.1908   -3.7777   -2.4811 H   0  0  0  0  0  0  0  0  0  0  0  0
   -5.7674   -3.5286   -0.7916 H   0  0  0  0  0  0  0  0  0  0  0  0
   -2.6417    1.5291   -3.4651 H   0  0  0  0  0  0  0  0  0  0  0  0
   -4.3759    1.3133   -3.7277 H   0  0  0  0  0  0  0  0  0  0  0  0
   -2.0348    2.0660   -1.6017 H   0  0  0  0  0  0  0  0  0  0  0  0
   -0.6016    3.3189   -0.0525 H   0  0  0  0  0  0  0  0  0  0  0  0
   -0.3655    2.4329    2.7155 H   0  0  0  0  0  0  0  0  0  0  0  0
    0.6068    3.6853    1.9272 H   0  0  0  0  0  0  0  0  0  0  0  0
    1.6267    1.7704    3.9257 H   0  0  0  0  0  0  0  0  0  0  0  0
    7.0262   -2.3798    0.5659 H   0  0  0  0  0  0  0  0  0  0  0  0
    5.8786   -3.5440    1.2625 H   0  0  0  0  0  0  0  0  0  0  0  0
    1.8978   -0.5801   -1.9724 H   0  0  0  0  0  0  0  0  0  0  0  0
    3.2033    0.6266   -2.2854 H   0  0  0  0  0  0  0  0  0  0  0  0
    1.3723    1.3107   -0.2813 H   0  0  0  0  0  0  0  0  0  0  0  0
   -0.9406    0.4403    2.2412 H   0  0  0  0  0  0  0  0  0  0  0  0
   -2.2957   -1.4888    1.8283 H   0  0  0  0  0  0  0  0  0  0  0  0
  1  2  1  0
  2  3  2  0
  3  4  1  0
  4  5  1  0
  4  6  2  0
  6  7  1  0
  7  8  2  0
  8  9  1  0
  9 10  1  0
 10 11  1  0
 11 12  2  0
 12 13  1  0
 13 14  2  0
 14 15  1  0
 15 16  2  0
 16 17  1  0
 16 18  1  0
 18 19  2  0
 19 20  1  0
 19 21  1  0
 21 22  2  0
  8 23  1  0
 23 24  2  0
 24 25  1  0
 25 26  2  0
 26  2  1  0
 25  6  1  0
 22 11  1  0
 21 14  1  0
  1 27  1  0
  1 28  1  0
  5 29  1  0
  5 30  1  0
  7 31  1  0
  9 32  1  0
 10 33  1  0
 10 34  1  0
 12 35  1  0
 17 36  1  0
 17 37  1  0
 20 38  1  0
 20 39  1  0
 22 40  1  0
 23 41  1  0
 24 42  1  0
M  END
$$$$
[H]N=C(N([H])[H])N([H])C([H])([H])C([H])([H])C([H])([H])[C@@]([H])(C(=O)c1nc2c([H])c([H])c([H])c([H])c2s1)N([H])C(=O)[C@@]([H])(N([H])C(=O)[C@@]([H])(N([H])C(=O)C([H])([H])[H])C([H])([H])C([H])([H])C([H])([H])C([H])([H])N([H])[H])C([H])([H])C([H])(C([H])([H])[H])C([H])([H])[H]
     RDKit          3D

 82 83  0  0  0  0  0  0  0  0999 V2000
    1.1865    4.8953   -3.5402 C   0  0  0  0  0  0  0  0  0  0  0  0
    1.7643    4.2078   -2.2872 C   0  0  0  0  0  0  0  0  0  0  0  0
    1.8532    5.2975   -1.2515 C   0  0  0  0  0  0  0  0  0  0  0  0
    0.8186    3.1052   -1.9588 C   0  0  0  0  0  0  0  0  0  0  0  0
    1.1763    2.2661   -0.7757 C   0  0  2  0  0  0  0  0  0  0  0  0
    2.4770    1.6154   -0.9618 N   0  0  0  0  0  0  0  0  0  0  0  0
    3.4489    1.5938    0.0359 C   0  0  0  0  0  0  0  0  0  0  0  0
    3.2447    2.1518    1.1276 O   0  0  0  0  0  0  0  0  0  0  0  0
    4.7731    0.8956   -0.1644 C   0  0  2  0  0  0  0  0  0  0  0  0
    4.7698    0.1862   -1.4606 C   0  0  0  0  0  0  0  0  0  0  0  0
    5.9293   -0.6361   -1.8616 C   0  0  0  0  0  0  0  0  0  0  0  0
    6.2464   -1.8778   -1.1229 C   0  0  0  0  0  0  0  0  0  0  0  0
    5.1843   -2.9312   -1.1975 C   0  0  0  0  0  0  0  0  0  0  0  0
    3.8931   -2.6121   -0.6913 N   0  0  0  0  0  0  0  0  0  0  0  0
    5.3120    0.2666    0.9627 N   0  0  0  0  0  0  0  0  0  0  0  0
    4.7004   -0.2604    2.1263 C   0  0  0  0  0  0  0  0  0  0  0  0
    5.5303   -0.8890    3.2160 C   0  0  0  0  0  0  0  0  0  0  0  0
    3.4723   -0.2527    2.3455 O   0  0  0  0  0  0  0  0  0  0  0  0
    0.1592    1.1551   -0.7447 C   0  0  0  0  0  0  0  0  0  0  0  0
    0.2848    0.1679   -1.5485 O   0  0  0  0  0  0  0  0  0  0  0  0
   -0.8940    1.2238    0.1586 N   0  0  0  0  0  0  0  0  0  0  0  0
   -1.9431    0.2014    0.2688 C   0  0  1  0  0  0  0  0  0  0  0  0
   -1.4886   -0.8246    1.3115 C   0  0  0  0  0  0  0  0  0  0  0  0
   -2.5463   -1.8852    1.4381 C   0  0  0  0  0  0  0  0  0  0  0  0
   -2.1400   -2.9397    2.4605 C   0  0  0  0  0  0  0  0  0  0  0  0
   -3.1602   -3.9480    2.5764 N   0  0  0  0  0  0  0  0  0  0  0  0
   -4.4403   -3.7529    3.1431 C   0  0  0  0  0  0  0  0  0  0  0  0
   -5.4305   -2.9845    2.5076 N   0  0  0  0  0  0  0  0  0  0  0  0
   -4.7044   -4.3086    4.2723 N   0  0  0  0  0  0  0  0  0  0  0  0
   -3.2283    0.7800    0.6265 C   0  0  0  0  0  0  0  0  0  0  0  0
   -3.2383    1.7518    1.4501 O   0  0  0  0  0  0  0  0  0  0  0  0
   -4.4788    0.2890    0.0785 C   0  0  0  0  0  0  0  0  0  0  0  0
   -5.6799    0.7454    0.4090 N   0  0  0  0  0  0  0  0  0  0  0  0
   -6.7473    0.2497   -0.1475 C   0  0  0  0  0  0  0  0  0  0  0  0
   -8.0781    0.6401    0.1197 C   0  0  0  0  0  0  0  0  0  0  0  0
   -9.0940    0.0204   -0.5415 C   0  0  0  0  0  0  0  0  0  0  0  0
   -8.9393   -0.9747   -1.4688 C   0  0  0  0  0  0  0  0  0  0  0  0
   -7.6481   -1.3655   -1.7400 C   0  0  0  0  0  0  0  0  0  0  0  0
   -6.5761   -0.7446   -1.0730 C   0  0  0  0  0  0  0  0  0  0  0  0
   -4.8719   -0.9034   -1.0809 S   0  0  0  0  0  0  0  0  0  0  0  0
    0.0836    4.9132   -3.4354 H   0  0  0  0  0  0  0  0  0  0  0  0
    1.5439    5.9185   -3.6635 H   0  0  0  0  0  0  0  0  0  0  0  0
    1.4087    4.2305   -4.4039 H   0  0  0  0  0  0  0  0  0  0  0  0
    2.7837    3.8837   -2.5662 H   0  0  0  0  0  0  0  0  0  0  0  0
    0.8334    5.6279   -0.9983 H   0  0  0  0  0  0  0  0  0  0  0  0
    2.3195    6.1759   -1.7925 H   0  0  0  0  0  0  0  0  0  0  0  0
    2.5093    5.0845   -0.4068 H   0  0  0  0  0  0  0  0  0  0  0  0
   -0.1795    3.5675   -1.7923 H   0  0  0  0  0  0  0  0  0  0  0  0
    0.7153    2.4640   -2.8556 H   0  0  0  0  0  0  0  0  0  0  0  0
    1.1704    2.7419    0.1949 H   0  0  0  0  0  0  0  0  0  0  0  0
    2.6229    1.1871   -1.8813 H   0  0  0  0  0  0  0  0  0  0  0  0
    5.4591    1.8623   -0.3759 H   0  0  0  0  0  0  0  0  0  0  0  0
    3.7870   -0.3502   -1.6435 H   0  0  0  0  0  0  0  0  0  0  0  0
    4.6925    0.9890   -2.3075 H   0  0  0  0  0  0  0  0  0  0  0  0
    5.8244   -0.9245   -2.9442 H   0  0  0  0  0  0  0  0  0  0  0  0
    6.8325    0.0398   -1.8343 H   0  0  0  0  0  0  0  0  0  0  0  0
    6.5977   -1.7582   -0.0824 H   0  0  0  0  0  0  0  0  0  0  0  0
    7.1704   -2.3484   -1.6263 H   0  0  0  0  0  0  0  0  0  0  0  0
    5.5446   -3.8281   -0.6304 H   0  0  0  0  0  0  0  0  0  0  0  0
    5.0586   -3.2124   -2.2774 H   0  0  0  0  0  0  0  0  0  0  0  0
    3.7612   -2.9055    0.3223 H   0  0  0  0  0  0  0  0  0  0  0  0
    3.1291   -3.0477   -1.2969 H   0  0  0  0  0  0  0  0  0  0  0  0
    6.3927    0.1904    0.9867 H   0  0  0  0  0  0  0  0  0  0  0  0
    6.5092   -0.3567    3.2889 H   0  0  0  0  0  0  0  0  0  0  0  0
    5.7567   -1.9479    2.9840 H   0  0  0  0  0  0  0  0  0  0  0  0
    5.0541   -0.8011    4.1915 H   0  0  0  0  0  0  0  0  0  0  0  0
   -0.9952    2.0209    0.8184 H   0  0  0  0  0  0  0  0  0  0  0  0
   -1.9717   -0.3507   -0.6737 H   0  0  0  0  0  0  0  0  0  0  0  0
   -0.6047   -1.3405    0.8397 H   0  0  0  0  0  0  0  0  0  0  0  0
   -1.2145   -0.3825    2.2667 H   0  0  0  0  0  0  0  0  0  0  0  0
   -3.5157   -1.4989    1.7459 H   0  0  0  0  0  0  0  0  0  0  0  0
   -2.6642   -2.4666    0.4836 H   0  0  0  0  0  0  0  0  0  0  0  0
   -1.2022   -3.4514    2.1081 H   0  0  0  0  0  0  0  0  0  0  0  0
   -1.9425   -2.4938    3.4500 H   0  0  0  0  0  0  0  0  0  0  0  0
   -2.9807   -4.9382    2.2172 H   0  0  0  0  0  0  0  0  0  0  0  0
   -5.8623   -3.3194    1.6119 H   0  0  0  0  0  0  0  0  0  0  0  0
   -5.7373   -2.0856    2.9190 H   0  0  0  0  0  0  0  0  0  0  0  0
   -4.0358   -4.9048    4.8149 H   0  0  0  0  0  0  0  0  0  0  0  0
   -8.3110    1.4148    0.8318 H   0  0  0  0  0  0  0  0  0  0  0  0
  -10.1237    0.3418   -0.3149 H   0  0  0  0  0  0  0  0  0  0  0  0
   -9.7514   -1.4268   -1.9591 H   0  0  0  0  0  0  0  0  0  0  0  0
   -7.3650   -2.1290   -2.4393 H   0  0  0  0  0  0  0  0  0  0  0  0
  1  2  1  0
  2  3  1  0
  2  4  1  0
  4  5  1  0
  5  6  1  0
  6  7  1  0
  7  8  2  0
  7  9  1  0
  9 10  1  0
 10 11  1  0
 11 12  1  0
 12 13  1  0
 13 14  1  0
  9 15  1  0
 15 16  1  0
 16 17  1  0
 16 18  2  0
  5 19  1  0
 19 20  2  0
 19 21  1  0
 21 22  1  0
 22 23  1  0
 23 24  1  0
 24 25  1  0
 25 26  1  0
 26 27  1  0
 27 28  1  0
 27 29  2  3
 22 30  1  0
 30 31  2  0
 30 32  1  0
 32 33  2  0
 33 34  1  0
 34 35  2  0
 35 36  1  0
 36 37  2  0
 37 38  1  0
 38 39  2  0
 39 40  1  0
 40 32  1  0
 39 34  1  0
  1 41  1  0
  1 42  1  0
  1 43  1  0
  2 44  1  0
  3 45  1  0
  3 46  1  0
  3 47  1  0
  4 48  1  0
  4 49  1  0
  5 50  1  1
  6 51  1  0
  9 52  1  6
 10 53  1  0
 10 54  1  0
 11 55  1  0
 11 56  1  0
 12 57  1  0
 12 58  1  0
 13 59  1  0
 13 60  1  0
 14 61  1  0
 14 62  1  0
 15 63  1  0
 17 64  1  0
 17 65  1  0
 17 66  1  0
 21 67  1  0
 22 68  1  6
 23 69  1  0
 23 70  1  0
 24 71  1  0
 24 72  1  0
 25 73  1  0
 25 74  1  0
 26 75  1  0
 28 76  1  0
 28 77  1  0
 29 78  1  0
 35 79  1  0
 36 80  1  0
 37 81  1  0
 38 82  1  0
M  END
$$$$
[H]c1nc(SC([H])(C([H])([H])[H])C([H])([H])[H])c(C([H])([H])N([H])C(=O)N([H])c2c([H])c([H])c(C3([H])OC([H])([H])C([H])([H])O3)c([H])c2[H])c([H])c1[H]
     RDKit          3D

 49 51  0  0  0  0  0  0  0  0999 V2000
   -7.1713    2.1191    0.1202 C   0  0  0  0  0  0  0  0  0  0  0  0
   -6.3728    0.8593   -0.1648 C   0  0  0  0  0  0  0  0  0  0  0  0
   -7.3326   -0.3004   -0.1161 C   0  0  0  0  0  0  0  0  0  0  0  0
   -5.0733    0.7434    1.0707 S   0  0  0  0  0  0  0  0  0  0  0  0
   -4.0488   -0.6820    0.8736 C   0  0  0  0  0  0  0  0  0  0  0  0
   -4.4039   -1.8255    1.5013 N   0  0  0  0  0  0  0  0  0  0  0  0
   -3.6787   -2.9487    1.4012 C   0  0  0  0  0  0  0  0  0  0  0  0
   -2.5391   -2.9072    0.6260 C   0  0  0  0  0  0  0  0  0  0  0  0
   -2.1554   -1.7301   -0.0327 C   0  0  0  0  0  0  0  0  0  0  0  0
   -2.9186   -0.5973    0.0903 C   0  0  0  0  0  0  0  0  0  0  0  0
   -2.6124    0.6575   -0.5750 C   0  0  0  0  0  0  0  0  0  0  0  0
   -1.4074    0.6988   -1.3359 N   0  0  0  0  0  0  0  0  0  0  0  0
   -0.1008    0.5950   -0.7495 C   0  0  0  0  0  0  0  0  0  0  0  0
   -0.0324    0.4722    0.4848 O   0  0  0  0  0  0  0  0  0  0  0  0
    1.0227    0.6347   -1.5672 N   0  0  0  0  0  0  0  0  0  0  0  0
    2.3847    0.5391   -1.1766 C   0  0  0  0  0  0  0  0  0  0  0  0
    2.8305    0.1616    0.0617 C   0  0  0  0  0  0  0  0  0  0  0  0
    4.1974    0.1152    0.3525 C   0  0  0  0  0  0  0  0  0  0  0  0
    5.1585    0.4404   -0.5734 C   0  0  0  0  0  0  0  0  0  0  0  0
    4.7120    0.8191   -1.8171 C   0  0  0  0  0  0  0  0  0  0  0  0
    3.3752    0.8706   -2.1201 C   0  0  0  0  0  0  0  0  0  0  0  0
    6.6078    0.3898   -0.2595 C   0  0  0  0  0  0  0  0  0  0  0  0
    6.8294    0.9817    0.9831 O   0  0  0  0  0  0  0  0  0  0  0  0
    7.9774    0.3107    1.4559 C   0  0  0  0  0  0  0  0  0  0  0  0
    7.6640   -1.1084    1.0246 C   0  0  0  0  0  0  0  0  0  0  0  0
    7.0054   -0.9215   -0.1655 O   0  0  0  0  0  0  0  0  0  0  0  0
   -6.4807    2.9661    0.0331 H   0  0  0  0  0  0  0  0  0  0  0  0
   -8.0267    2.2281   -0.5692 H   0  0  0  0  0  0  0  0  0  0  0  0
   -7.5219    2.0257    1.1787 H   0  0  0  0  0  0  0  0  0  0  0  0
   -5.9818    0.9223   -1.1950 H   0  0  0  0  0  0  0  0  0  0  0  0
   -6.8970   -1.1224   -0.7280 H   0  0  0  0  0  0  0  0  0  0  0  0
   -8.2606    0.0218   -0.6631 H   0  0  0  0  0  0  0  0  0  0  0  0
   -7.5710   -0.6273    0.9042 H   0  0  0  0  0  0  0  0  0  0  0  0
   -4.0086   -3.8450    1.9279 H   0  0  0  0  0  0  0  0  0  0  0  0
   -1.9620   -3.8171    0.5518 H   0  0  0  0  0  0  0  0  0  0  0  0
   -1.2673   -1.8003   -0.6194 H   0  0  0  0  0  0  0  0  0  0  0  0
   -3.4678    0.9027   -1.2526 H   0  0  0  0  0  0  0  0  0  0  0  0
   -2.5327    1.4656    0.2064 H   0  0  0  0  0  0  0  0  0  0  0  0
   -1.4544    0.8082   -2.3649 H   0  0  0  0  0  0  0  0  0  0  0  0
    0.8212    0.7478   -2.6224 H   0  0  0  0  0  0  0  0  0  0  0  0
    2.1321   -0.1169    0.8359 H   0  0  0  0  0  0  0  0  0  0  0  0
    4.5056   -0.1856    1.3354 H   0  0  0  0  0  0  0  0  0  0  0  0
    5.4431    1.0832   -2.5752 H   0  0  0  0  0  0  0  0  0  0  0  0
    3.0216    1.1751   -3.1167 H   0  0  0  0  0  0  0  0  0  0  0  0
    7.1405    0.9689   -1.0439 H   0  0  0  0  0  0  0  0  0  0  0  0
    8.8137    0.6788    0.8348 H   0  0  0  0  0  0  0  0  0  0  0  0
    8.1170    0.4242    2.5299 H   0  0  0  0  0  0  0  0  0  0  0  0
    6.9330   -1.5752    1.7459 H   0  0  0  0  0  0  0  0  0  0  0  0
    8.5871   -1.7154    0.9323 H   0  0  0  0  0  0  0  0  0  0  0  0
  1  2  1  0
  2  3  1  0
  2  4  1  0
  4  5  1  0
  5  6  2  0
  6  7  1  0
  7  8  2  0
  8  9  1  0
  9 10  2  0
 10 11  1  0
 11 12  1  0
 12 13  1  0
 13 14  2  0
 13 15  1  0
 15 16  1  0
 16 17  2  0
 17 18  1  0
 18 19  2  0
 19 20  1  0
 20 21  2  0
 19 22  1  0
 22 23  1  0
 23 24  1  0
 24 25  1  0
 25 26  1  0
 10  5  1  0
 21 16  1  0
 26 22  1  0
  1 27  1  0
  1 28  1  0
  1 29  1  0
  2 30  1  0
  3 31  1  0
  3 32  1  0
  3 33  1  0
  7 34  1  0
  8 35  1  0
  9 36  1  0
 11 37  1  0
 11 38  1  0
 12 39  1  0
 15 40  1  0
 17 41  1  0
 18 42  1  0
 20 43  1  0
 21 44  1  0
 22 45  1  0
 24 46  1  0
 24 47  1  0
 25 48  1  0
 25 49  1  0
M  END
$$$$
[H]c1nc(N([H])c2c([H])c(N([H])C(=O)c3c([H])c([H])c([H])c(-c4c([H])c([H])c([H])c([H])c4[H])c3[H])c([H])c([H])c2C([H])([H])[H])c2c(C([H])([H])[H])c(C#CC([H])([H])C([H])([H])C([H])([H])N(C([H])([H])C([H])([H])[H])C([H])([H])C([H])([H])[H])c([H])n2n1
     RDKit          3D

 81 85  0  0  0  0  0  0  0  0999 V2000
  -10.4321   -0.8345   -1.1629 C   0  0  0  0  0  0  0  0  0  0  0  0
  -10.3117   -1.0154    0.3447 C   0  0  0  0  0  0  0  0  0  0  0  0
  -10.3092    0.2798    0.9796 N   0  0  0  0  0  0  0  0  0  0  0  0
  -10.2073    0.1821    2.3970 C   0  0  0  0  0  0  0  0  0  0  0  0
  -11.4622   -0.4187    3.0242 C   0  0  0  0  0  0  0  0  0  0  0  0
   -9.3500    1.1243    0.3436 C   0  0  0  0  0  0  0  0  0  0  0  0
   -7.9538    0.6137    0.6372 C   0  0  0  0  0  0  0  0  0  0  0  0
   -6.9174    1.5047   -0.0316 C   0  0  0  0  0  0  0  0  0  0  0  0
   -5.5485    1.0772    0.2080 C   0  0  0  0  0  0  0  0  0  0  0  0
   -4.3905    0.7480    0.3942 C   0  0  0  0  0  0  0  0  0  0  0  0
   -3.0150    0.3998    0.6005 C   0  0  0  0  0  0  0  0  0  0  0  0
   -2.3179    0.2326    1.7607 C   0  0  0  0  0  0  0  0  0  0  0  0
   -1.0162   -0.0710    1.4622 N   0  0  0  0  0  0  0  0  0  0  0  0
   -0.0399   -0.2749    2.3067 N   0  0  0  0  0  0  0  0  0  0  0  0
    1.1847   -0.5315    1.8178 C   0  0  0  0  0  0  0  0  0  0  0  0
    1.4072   -0.5797    0.4960 N   0  0  0  0  0  0  0  0  0  0  0  0
    0.4039   -0.3722   -0.3708 C   0  0  0  0  0  0  0  0  0  0  0  0
    0.6562   -0.5407   -1.7198 N   0  0  0  0  0  0  0  0  0  0  0  0
    1.8735   -0.6814   -2.4227 C   0  0  0  0  0  0  0  0  0  0  0  0
    3.1023   -0.3367   -1.9217 C   0  0  0  0  0  0  0  0  0  0  0  0
    4.2993   -0.4115   -2.6486 C   0  0  0  0  0  0  0  0  0  0  0  0
    5.5620   -0.0573   -2.1306 N   0  0  0  0  0  0  0  0  0  0  0  0
    5.8993    0.1534   -0.8048 C   0  0  0  0  0  0  0  0  0  0  0  0
    5.1288    0.0549    0.1805 O   0  0  0  0  0  0  0  0  0  0  0  0
    7.3107    0.5321   -0.5122 C   0  0  0  0  0  0  0  0  0  0  0  0
    7.9848    1.2476   -1.4643 C   0  0  0  0  0  0  0  0  0  0  0  0
    9.3208    1.6240   -1.2571 C   0  0  0  0  0  0  0  0  0  0  0  0
    9.9385    1.2605   -0.0808 C   0  0  0  0  0  0  0  0  0  0  0  0
    9.2497    0.5417    0.8685 C   0  0  0  0  0  0  0  0  0  0  0  0
    7.9178    0.1647    0.6655 C   0  0  0  0  0  0  0  0  0  0  0  0
    9.9373    0.1757    2.0929 C   0  0  0  0  0  0  0  0  0  0  0  0
   10.8997    1.0309    2.5798 C   0  0  0  0  0  0  0  0  0  0  0  0
   11.5848    0.7155    3.7388 C   0  0  0  0  0  0  0  0  0  0  0  0
   11.2821   -0.4797    4.3998 C   0  0  0  0  0  0  0  0  0  0  0  0
   10.3184   -1.3158    3.8947 C   0  0  0  0  0  0  0  0  0  0  0  0
    9.6332   -1.0126    2.7461 C   0  0  0  0  0  0  0  0  0  0  0  0
    4.2147   -0.8699   -3.9737 C   0  0  0  0  0  0  0  0  0  0  0  0
    3.0140   -1.2138   -4.4859 C   0  0  0  0  0  0  0  0  0  0  0  0
    1.8537   -1.1263   -3.7345 C   0  0  0  0  0  0  0  0  0  0  0  0
    0.5355   -1.5176   -4.3047 C   0  0  0  0  0  0  0  0  0  0  0  0
   -0.8361   -0.1103    0.1326 C   0  0  0  0  0  0  0  0  0  0  0  0
   -2.0686    0.1806   -0.4142 C   0  0  0  0  0  0  0  0  0  0  0  0
   -2.4251    0.2872   -1.8383 C   0  0  0  0  0  0  0  0  0  0  0  0
   -9.4569   -0.6550   -1.6502 H   0  0  0  0  0  0  0  0  0  0  0  0
  -11.0927    0.0316   -1.4293 H   0  0  0  0  0  0  0  0  0  0  0  0
  -10.8963   -1.7511   -1.6183 H   0  0  0  0  0  0  0  0  0  0  0  0
  -11.1807   -1.6406    0.6836 H   0  0  0  0  0  0  0  0  0  0  0  0
   -9.3945   -1.6044    0.5417 H   0  0  0  0  0  0  0  0  0  0  0  0
   -9.3768   -0.5040    2.7277 H   0  0  0  0  0  0  0  0  0  0  0  0
  -10.0436    1.1538    2.9021 H   0  0  0  0  0  0  0  0  0  0  0  0
  -11.3412   -0.2711    4.1195 H   0  0  0  0  0  0  0  0  0  0  0  0
  -12.3476    0.1920    2.7458 H   0  0  0  0  0  0  0  0  0  0  0  0
  -11.5707   -1.4783    2.7812 H   0  0  0  0  0  0  0  0  0  0  0  0
   -9.4032    2.1490    0.8083 H   0  0  0  0  0  0  0  0  0  0  0  0
   -9.5509    1.1665   -0.7414 H   0  0  0  0  0  0  0  0  0  0  0  0
   -7.7356    0.5748    1.7052 H   0  0  0  0  0  0  0  0  0  0  0  0
   -7.8000   -0.3952    0.2043 H   0  0  0  0  0  0  0  0  0  0  0  0
   -7.1323    1.5567   -1.1210 H   0  0  0  0  0  0  0  0  0  0  0  0
   -7.0331    2.5356    0.3997 H   0  0  0  0  0  0  0  0  0  0  0  0
   -2.7509    0.3306    2.7468 H   0  0  0  0  0  0  0  0  0  0  0  0
    2.0140   -0.7052    2.5187 H   0  0  0  0  0  0  0  0  0  0  0  0
   -0.2073   -0.6042   -2.3421 H   0  0  0  0  0  0  0  0  0  0  0  0
    3.1621    0.0459   -0.9171 H   0  0  0  0  0  0  0  0  0  0  0  0
    6.3208    0.0507   -2.8717 H   0  0  0  0  0  0  0  0  0  0  0  0
    7.5337    1.5451   -2.3730 H   0  0  0  0  0  0  0  0  0  0  0  0
    9.8422    2.1829   -2.0038 H   0  0  0  0  0  0  0  0  0  0  0  0
   10.9824    1.5644    0.0571 H   0  0  0  0  0  0  0  0  0  0  0  0
    7.3703   -0.3933    1.3926 H   0  0  0  0  0  0  0  0  0  0  0  0
   11.1161    1.9677    2.0397 H   0  0  0  0  0  0  0  0  0  0  0  0
   12.3357    1.3750    4.1257 H   0  0  0  0  0  0  0  0  0  0  0  0
   11.8230   -0.7171    5.3033 H   0  0  0  0  0  0  0  0  0  0  0  0
   10.0957   -2.2280    4.4088 H   0  0  0  0  0  0  0  0  0  0  0  0
    8.8689   -1.6591    2.3310 H   0  0  0  0  0  0  0  0  0  0  0  0
    5.0964   -0.9489   -4.5733 H   0  0  0  0  0  0  0  0  0  0  0  0
    2.8785   -1.5828   -5.5185 H   0  0  0  0  0  0  0  0  0  0  0  0
    0.0741   -2.3597   -3.7448 H   0  0  0  0  0  0  0  0  0  0  0  0
    0.7134   -1.9070   -5.3275 H   0  0  0  0  0  0  0  0  0  0  0  0
   -0.1437   -0.6522   -4.4222 H   0  0  0  0  0  0  0  0  0  0  0  0
   -1.7754    0.9977   -2.3906 H   0  0  0  0  0  0  0  0  0  0  0  0
   -3.4495    0.7394   -1.9490 H   0  0  0  0  0  0  0  0  0  0  0  0
   -2.4559   -0.6772   -2.3415 H   0  0  0  0  0  0  0  0  0  0  0  0
  1  2  1  0
  2  3  1  0
  3  4  1  0
  4  5  1  0
  3  6  1  0
  6  7  1  0
  7  8  1  0
  8  9  1  0
  9 10  3  0
 10 11  1  0
 11 12  2  0
 12 13  1  0
 13 14  1  0
 14 15  2  0
 15 16  1  0
 16 17  2  0
 17 18  1  0
 18 19  1  0
 19 20  2  0
 20 21  1  0
 21 22  1  0
 22 23  1  0
 23 24  2  0
 23 25  1  0
 25 26  2  0
 26 27  1  0
 27 28  2  0
 28 29  1  0
 29 30  2  0
 29 31  1  0
 31 32  2  0
 32 33  1  0
 33 34  2  0
 34 35  1  0
 35 36  2  0
 21 37  2  0
 37 38  1  0
 38 39  2  0
 39 40  1  0
 17 41  1  0
 41 42  2  0
 42 43  1  0
 42 11  1  0
 41 13  1  0
 39 19  1  0
 30 25  1  0
 36 31  1  0
  1 44  1  0
  1 45  1  0
  1 46  1  0
  2 47  1  0
  2 48  1  0
  4 49  1  0
  4 50  1  0
  5 51  1  0
  5 52  1  0
  5 53  1  0
  6 54  1  0
  6 55  1  0
  7 56  1  0
  7 57  1  0
  8 58  1  0
  8 59  1  0
 12 60  1  0
 15 61  1  0
 18 62  1  0
 20 63  1  0
 22 64  1  0
 26 65  1  0
 27 66  1  0
 28 67  1  0
 30 68  1  0
 32 69  1  0
 33 70  1  0
 34 71  1  0
 35 72  1  0
 36 73  1  0
 37 74  1  0
 38 75  1  0
 40 76  1  0
 40 77  1  0
 40 78  1  0
 43 79  1  0
 43 80  1  0
 43 81  1  0
M  END
$$$$
[H]c1nc(C(=O)N([H])c2nn([H])c3c([H])c(-c4c(C([H])([H])[H])c([H])c([H])n(-c5c([H])c([H])c(F)c([H])c5[H])c4=O)c([H])c([H])c23)c2c([H])c([H])c(-c3c([H])c([H])c([H])c(N4C([H])([H])C([H])([H])OC([H])([H])C4([H])[H])c3[H])c([H])c2c1[H]
     RDKit          3D

 80 87  0  0  0  0  0  0  0  0999 V2000
    7.1983    1.5892   -2.3759 C   0  0  0  0  0  0  0  0  0  0  0  0
    8.0713    1.0950   -1.2801 C   0  0  0  0  0  0  0  0  0  0  0  0
    9.4156    1.3960   -1.2363 C   0  0  0  0  0  0  0  0  0  0  0  0
   10.1787    0.8981   -0.1797 C   0  0  0  0  0  0  0  0  0  0  0  0
    9.6517    0.1307    0.8052 N   0  0  0  0  0  0  0  0  0  0  0  0
   10.4605   -0.3576    1.8936 C   0  0  0  0  0  0  0  0  0  0  0  0
   10.4080   -1.6719    2.2865 C   0  0  0  0  0  0  0  0  0  0  0  0
   11.1982   -2.0971    3.3473 C   0  0  0  0  0  0  0  0  0  0  0  0
   12.0135   -1.2009    3.9805 C   0  0  0  0  0  0  0  0  0  0  0  0
   12.7833   -1.6472    5.0244 F   0  0  0  0  0  0  0  0  0  0  0  0
   12.0978    0.1350    3.6163 C   0  0  0  0  0  0  0  0  0  0  0  0
   11.3072    0.5262    2.5671 C   0  0  0  0  0  0  0  0  0  0  0  0
    8.3400   -0.1520    0.7451 C   0  0  0  0  0  0  0  0  0  0  0  0
    7.8327   -0.8638    1.6524 O   0  0  0  0  0  0  0  0  0  0  0  0
    7.5177    0.3120   -0.2818 C   0  0  0  0  0  0  0  0  0  0  0  0
    6.1089    0.0402   -0.3532 C   0  0  0  0  0  0  0  0  0  0  0  0
    5.2564    0.7288    0.4834 C   0  0  0  0  0  0  0  0  0  0  0  0
    3.8902    0.5057    0.4124 C   0  0  0  0  0  0  0  0  0  0  0  0
    3.3689   -0.4064   -0.4949 C   0  0  0  0  0  0  0  0  0  0  0  0
    2.0791   -0.8212   -0.7989 C   0  0  0  0  0  0  0  0  0  0  0  0
    0.9464   -0.3402   -0.1338 N   0  0  0  0  0  0  0  0  0  0  0  0
   -0.3598   -0.7949   -0.5357 C   0  0  0  0  0  0  0  0  0  0  0  0
   -0.4121   -1.5892   -1.4678 O   0  0  0  0  0  0  0  0  0  0  0  0
   -1.5071   -0.2796    0.1842 C   0  0  0  0  0  0  0  0  0  0  0  0
   -1.3104    0.2661    1.4244 N   0  0  0  0  0  0  0  0  0  0  0  0
   -2.2538    0.8028    2.1784 C   0  0  0  0  0  0  0  0  0  0  0  0
   -3.5410    0.8294    1.7086 C   0  0  0  0  0  0  0  0  0  0  0  0
   -3.8063    0.2956    0.4633 C   0  0  0  0  0  0  0  0  0  0  0  0
   -5.1036    0.3343   -0.0477 C   0  0  0  0  0  0  0  0  0  0  0  0
   -5.4428   -0.1542   -1.2905 C   0  0  0  0  0  0  0  0  0  0  0  0
   -4.4264   -0.6970   -2.0272 C   0  0  0  0  0  0  0  0  0  0  0  0
   -3.1110   -0.7544   -1.5485 C   0  0  0  0  0  0  0  0  0  0  0  0
   -2.7874   -0.2626   -0.3063 C   0  0  0  0  0  0  0  0  0  0  0  0
   -6.8243   -0.0527   -1.7446 C   0  0  0  0  0  0  0  0  0  0  0  0
   -7.1570    0.1014   -3.0798 C   0  0  0  0  0  0  0  0  0  0  0  0
   -8.4846    0.2134   -3.4727 C   0  0  0  0  0  0  0  0  0  0  0  0
   -9.5059    0.1708   -2.5214 C   0  0  0  0  0  0  0  0  0  0  0  0
   -9.1852    0.0168   -1.1910 C   0  0  0  0  0  0  0  0  0  0  0  0
   -7.8715   -0.0908   -0.8290 C   0  0  0  0  0  0  0  0  0  0  0  0
  -10.2538   -0.0117   -0.2445 N   0  0  0  0  0  0  0  0  0  0  0  0
  -11.5856    0.4037   -0.6265 C   0  0  0  0  0  0  0  0  0  0  0  0
  -12.2259    1.1396    0.5520 C   0  0  0  0  0  0  0  0  0  0  0  0
  -12.3760    0.1506    1.5466 O   0  0  0  0  0  0  0  0  0  0  0  0
  -11.1288   -0.0314    2.0873 C   0  0  0  0  0  0  0  0  0  0  0  0
  -10.0730   -0.4623    1.1122 C   0  0  0  0  0  0  0  0  0  0  0  0
    2.1721   -1.7361   -1.7954 N   0  0  0  0  0  0  0  0  0  0  0  0
    3.4508   -1.8950   -2.1081 N   0  0  0  0  0  0  0  0  0  0  0  0
    4.2035   -1.0970   -1.3316 C   0  0  0  0  0  0  0  0  0  0  0  0
    5.5779   -0.8768   -1.2637 C   0  0  0  0  0  0  0  0  0  0  0  0
    7.6282    2.4764   -2.8718 H   0  0  0  0  0  0  0  0  0  0  0  0
    7.1470    0.7709   -3.1380 H   0  0  0  0  0  0  0  0  0  0  0  0
    6.1840    1.8670   -2.0186 H   0  0  0  0  0  0  0  0  0  0  0  0
    9.8824    2.0024   -1.9984 H   0  0  0  0  0  0  0  0  0  0  0  0
   11.2360    1.1390   -0.1518 H   0  0  0  0  0  0  0  0  0  0  0  0
    9.7517   -2.3812    1.7663 H   0  0  0  0  0  0  0  0  0  0  0  0
   11.1492   -3.1416    3.6513 H   0  0  0  0  0  0  0  0  0  0  0  0
   12.7619    0.8293    4.1425 H   0  0  0  0  0  0  0  0  0  0  0  0
   11.3135    1.5652    2.2096 H   0  0  0  0  0  0  0  0  0  0  0  0
    5.6634    1.4349    1.1880 H   0  0  0  0  0  0  0  0  0  0  0  0
    3.2162    1.0227    1.0481 H   0  0  0  0  0  0  0  0  0  0  0  0
    1.0419    0.3433    0.6599 H   0  0  0  0  0  0  0  0  0  0  0  0
   -2.0136    1.2170    3.1544 H   0  0  0  0  0  0  0  0  0  0  0  0
   -4.3691    1.2517    2.2692 H   0  0  0  0  0  0  0  0  0  0  0  0
   -5.8479    0.7680    0.5737 H   0  0  0  0  0  0  0  0  0  0  0  0
   -4.6195   -1.0980   -3.0038 H   0  0  0  0  0  0  0  0  0  0  0  0
   -2.3518   -1.1759   -2.1629 H   0  0  0  0  0  0  0  0  0  0  0  0
   -6.3427    0.1305   -3.7877 H   0  0  0  0  0  0  0  0  0  0  0  0
   -8.6943    0.3332   -4.5346 H   0  0  0  0  0  0  0  0  0  0  0  0
  -10.5261    0.2587   -2.8771 H   0  0  0  0  0  0  0  0  0  0  0  0
   -7.6205   -0.2093    0.1956 H   0  0  0  0  0  0  0  0  0  0  0  0
  -11.5956    1.1545   -1.4467 H   0  0  0  0  0  0  0  0  0  0  0  0
  -12.2390   -0.4588   -0.9127 H   0  0  0  0  0  0  0  0  0  0  0  0
  -13.1598    1.6365    0.2909 H   0  0  0  0  0  0  0  0  0  0  0  0
  -11.4293    1.8483    0.9250 H   0  0  0  0  0  0  0  0  0  0  0  0
  -10.7909    0.9527    2.5371 H   0  0  0  0  0  0  0  0  0  0  0  0
  -11.1240   -0.7910    2.9107 H   0  0  0  0  0  0  0  0  0  0  0  0
   -9.9967   -1.5937    1.1077 H   0  0  0  0  0  0  0  0  0  0  0  0
   -9.1049   -0.1375    1.5497 H   0  0  0  0  0  0  0  0  0  0  0  0
    3.8517   -2.5361   -2.8434 H   0  0  0  0  0  0  0  0  0  0  0  0
    6.2032   -1.4390   -1.9367 H   0  0  0  0  0  0  0  0  0  0  0  0
  1  2  1  0
  2  3  1  0
  3  4  2  0
  4  5  1  0
  5  6  1  0
  6  7  2  0
  7  8  1  0
  8  9  2  0
  9 10  1  0
  9 11  1  0
 11 12  2  0
  5 13  1  0
 13 14  2  0
 13 15  1  0
 15 16  1  0
 16 17  2  0
 17 18  1  0
 18 19  2  0
 19 20  1  0
 20 21  1  0
 21 22  1  0
 22 23  2  0
 22 24  1  0
 24 25  2  0
 25 26  1  0
 26 27  2  0
 27 28  1  0
 28 29  2  0
 29 30  1  0
 30 31  2  0
 31 32  1  0
 32 33  2  0
 30 34  1  0
 34 35  2  0
 35 36  1  0
 36 37  2  0
 37 38  1  0
 38 39  2  0
 38 40  1  0
 40 41  1  0
 41 42  1  0
 42 43  1  0
 43 44  1  0
 44 45  1  0
 20 46  2  0
 46 47  1  0
 47 48  1  0
 48 49  2  0
 15  2  2  0
 49 16  1  0
 12  6  1  0
 48 19  1  0
 33 24  1  0
 39 34  1  0
 45 40  1  0
 33 28  1  0
  1 50  1  0
  1 51  1  0
  1 52  1  0
  3 53  1  0
  4 54  1  0
  7 55  1  0
  8 56  1  0
 11 57  1  0
 12 58  1  0
 17 59  1  0
 18 60  1  0
 21 61  1  0
 26 62  1  0
 27 63  1  0
 29 64  1  0
 31 65  1  0
 32 66  1  0
 35 67  1  0
 36 68  1  0
 37 69  1  0
 39 70  1  0
 41 71  1  0
 41 72  1  0
 42 73  1  0
 42 74  1  0
 44 75  1  0
 44 76  1  0
 45 77  1  0
 45 78  1  0
 47 79  1  0
 49 80  1  0
M  END
$$$$
[H]c1nc(N(C([H])([H])[H])C([H])(c2c([H])c3c(c([H])c2C([H])([H])[H])OC([H])([H])O3)C([H])([H])C([H])([H])[H])c2c([H])c([H])n([H])c2n1
     RDKit          3D

 44 47  0  0  0  0  0  0  0  0999 V2000
    0.9275   -2.8196    1.5647 C   0  0  0  0  0  0  0  0  0  0  0  0
   -0.1281   -1.7665    1.5485 C   0  0  0  0  0  0  0  0  0  0  0  0
   -0.2450   -1.3146    0.0863 C   0  0  0  0  0  0  0  0  0  0  0  0
    1.0112   -0.6790   -0.3161 N   0  0  0  0  0  0  0  0  0  0  0  0
    1.4514   -0.9538   -1.6822 C   0  0  0  0  0  0  0  0  0  0  0  0
    1.8486    0.1154    0.5015 C   0  0  0  0  0  0  0  0  0  0  0  0
    1.8954   -0.0249    1.8535 N   0  0  0  0  0  0  0  0  0  0  0  0
    2.7144    0.6141    2.6840 C   0  0  0  0  0  0  0  0  0  0  0  0
    3.5856    1.4785    2.1712 N   0  0  0  0  0  0  0  0  0  0  0  0
    3.6344    1.7083    0.8565 C   0  0  0  0  0  0  0  0  0  0  0  0
    4.4103    2.5586    0.1907 N   0  0  0  0  0  0  0  0  0  0  0  0
    4.0721    2.4611   -1.0939 C   0  0  0  0  0  0  0  0  0  0  0  0
    3.0543    1.5291   -1.2476 C   0  0  0  0  0  0  0  0  0  0  0  0
    2.7569    1.0223   -0.0007 C   0  0  0  0  0  0  0  0  0  0  0  0
   -1.4512   -0.4950   -0.1155 C   0  0  0  0  0  0  0  0  0  0  0  0
   -1.7896    0.6164    0.6391 C   0  0  0  0  0  0  0  0  0  0  0  0
   -2.8651    1.4267    0.3619 C   0  0  0  0  0  0  0  0  0  0  0  0
   -3.3892    2.5883    0.9697 O   0  0  0  0  0  0  0  0  0  0  0  0
   -4.7762    2.6459    0.6010 C   0  0  0  0  0  0  0  0  0  0  0  0
   -4.6605    2.1391   -0.7453 O   0  0  0  0  0  0  0  0  0  0  0  0
   -3.6751    1.1439   -0.7241 C   0  0  0  0  0  0  0  0  0  0  0  0
   -3.3919    0.0617   -1.5057 C   0  0  0  0  0  0  0  0  0  0  0  0
   -2.3183   -0.7188   -1.1992 C   0  0  0  0  0  0  0  0  0  0  0  0
   -2.1016   -1.9711   -1.9981 C   0  0  0  0  0  0  0  0  0  0  0  0
    0.4756   -3.8418    1.3425 H   0  0  0  0  0  0  0  0  0  0  0  0
    1.6568   -2.7106    0.7167 H   0  0  0  0  0  0  0  0  0  0  0  0
    1.4972   -2.9326    2.4937 H   0  0  0  0  0  0  0  0  0  0  0  0
   -0.1916   -1.0211    2.2935 H   0  0  0  0  0  0  0  0  0  0  0  0
   -1.1080   -2.3636    1.6692 H   0  0  0  0  0  0  0  0  0  0  0  0
   -0.3617   -2.2539   -0.4740 H   0  0  0  0  0  0  0  0  0  0  0  0
    1.1667   -2.0486   -1.8318 H   0  0  0  0  0  0  0  0  0  0  0  0
    2.5660   -1.0048   -1.7229 H   0  0  0  0  0  0  0  0  0  0  0  0
    0.9454   -0.4138   -2.4549 H   0  0  0  0  0  0  0  0  0  0  0  0
    2.6774    0.4235    3.7635 H   0  0  0  0  0  0  0  0  0  0  0  0
    5.1747    3.1988    0.5591 H   0  0  0  0  0  0  0  0  0  0  0  0
    4.5137    3.0135   -1.9054 H   0  0  0  0  0  0  0  0  0  0  0  0
    2.5492    1.2587   -2.1488 H   0  0  0  0  0  0  0  0  0  0  0  0
   -1.1667    0.8619    1.5094 H   0  0  0  0  0  0  0  0  0  0  0  0
   -5.3746    1.9481    1.1924 H   0  0  0  0  0  0  0  0  0  0  0  0
   -5.1638    3.6592    0.5596 H   0  0  0  0  0  0  0  0  0  0  0  0
   -4.0354   -0.1760   -2.3651 H   0  0  0  0  0  0  0  0  0  0  0  0
   -3.0323   -2.1914   -2.6035 H   0  0  0  0  0  0  0  0  0  0  0  0
   -1.2911   -1.9124   -2.6956 H   0  0  0  0  0  0  0  0  0  0  0  0
   -2.0679   -2.8592   -1.2976 H   0  0  0  0  0  0  0  0  0  0  0  0
  1  2  1  0
  2  3  1  0
  3  4  1  0
  4  5  1  0
  4  6  1  0
  6  7  2  0
  7  8  1  0
  8  9  2  0
  9 10  1  0
 10 11  1  0
 11 12  1  0
 12 13  2  0
 13 14  1  0
  3 15  1  0
 15 16  2  0
 16 17  1  0
 17 18  1  0
 18 19  1  0
 19 20  1  0
 20 21  1  0
 21 22  1  0
 22 23  2  0
 23 24  1  0
 14  6  1  0
 23 15  1  0
 14 10  2  0
 21 17  2  0
  1 25  1  0
  1 26  1  0
  1 27  1  0
  2 28  1  0
  2 29  1  0
  3 30  1  0
  5 31  1  0
  5 32  1  0
  5 33  1  0
  8 34  1  0
 11 35  1  0
 12 36  1  0
 13 37  1  0
 16 38  1  0
 19 39  1  0
 19 40  1  0
 22 41  1  0
 24 42  1  0
 24 43  1  0
 24 44  1  0
M  END
$$$$
[H]OC(=O)C([H])([H])C([H])([H])N(C(=O)C([H])([H])C([H])([H])C(=O)N(C([H])([H])[H])C([H])([H])C([H])([H])c1c([H])n([H])c2c([H])c([H])c([H])c([H])c12)C([H])([H])C([H])([H])C(=O)O[H]
     RDKit          3D

 57 58  0  0  0  0  0  0  0  0999 V2000
    1.4849   -2.0493   -3.3196 C   0  0  0  0  0  0  0  0  0  0  0  0
    1.5067   -1.3348   -2.0560 N   0  0  0  0  0  0  0  0  0  0  0  0
    2.6518   -0.5991   -1.5917 C   0  0  0  0  0  0  0  0  0  0  0  0
    3.5877   -1.4585   -0.7661 C   0  0  0  0  0  0  0  0  0  0  0  0
    4.7303   -0.5864   -0.3523 C   0  0  0  0  0  0  0  0  0  0  0  0
    6.0025   -0.5744   -0.8751 C   0  0  0  0  0  0  0  0  0  0  0  0
    6.7031    0.3562   -0.2146 N   0  0  0  0  0  0  0  0  0  0  0  0
    5.9278    0.9446    0.7156 C   0  0  0  0  0  0  0  0  0  0  0  0
    6.2000    1.9492    1.6330 C   0  0  0  0  0  0  0  0  0  0  0  0
    5.1861    2.3546    2.4762 C   0  0  0  0  0  0  0  0  0  0  0  0
    3.9278    1.7682    2.4039 C   0  0  0  0  0  0  0  0  0  0  0  0
    3.6587    0.7774    1.4993 C   0  0  0  0  0  0  0  0  0  0  0  0
    4.6949    0.3703    0.6447 C   0  0  0  0  0  0  0  0  0  0  0  0
    0.3298   -1.3836   -1.2602 C   0  0  0  0  0  0  0  0  0  0  0  0
    0.2956   -0.7800   -0.1585 O   0  0  0  0  0  0  0  0  0  0  0  0
   -0.8811   -2.1315   -1.6808 C   0  0  0  0  0  0  0  0  0  0  0  0
   -2.0557   -1.9137   -0.7894 C   0  0  0  0  0  0  0  0  0  0  0  0
   -2.4372   -0.4856   -0.8055 C   0  0  0  0  0  0  0  0  0  0  0  0
   -1.8746    0.2546   -1.6537 O   0  0  0  0  0  0  0  0  0  0  0  0
   -3.4184    0.0640    0.1085 N   0  0  0  0  0  0  0  0  0  0  0  0
   -3.6870    1.4822   -0.0142 C   0  0  0  0  0  0  0  0  0  0  0  0
   -2.7558    2.3506    0.7913 C   0  0  0  0  0  0  0  0  0  0  0  0
   -2.8378    2.0211    2.2120 C   0  0  0  0  0  0  0  0  0  0  0  0
   -3.8067    2.5928    2.9948 O   0  0  0  0  0  0  0  0  0  0  0  0
   -1.9802    1.1972    2.6587 O   0  0  0  0  0  0  0  0  0  0  0  0
   -4.0660   -0.7906    1.0541 C   0  0  0  0  0  0  0  0  0  0  0  0
   -5.3205   -1.4572    0.5666 C   0  0  0  0  0  0  0  0  0  0  0  0
   -6.3884   -0.5302    0.1397 C   0  0  0  0  0  0  0  0  0  0  0  0
   -7.3720   -0.0384    1.0098 O   0  0  0  0  0  0  0  0  0  0  0  0
   -6.3668   -0.1938   -1.0929 O   0  0  0  0  0  0  0  0  0  0  0  0
    2.4759   -2.2049   -3.7528 H   0  0  0  0  0  0  0  0  0  0  0  0
    0.8768   -1.4946   -4.0909 H   0  0  0  0  0  0  0  0  0  0  0  0
    0.9426   -3.0022   -3.1388 H   0  0  0  0  0  0  0  0  0  0  0  0
    3.1721   -0.1693   -2.4721 H   0  0  0  0  0  0  0  0  0  0  0  0
    2.3194    0.2486   -0.9635 H   0  0  0  0  0  0  0  0  0  0  0  0
    3.9397   -2.3445   -1.3275 H   0  0  0  0  0  0  0  0  0  0  0  0
    3.0511   -1.8505    0.1217 H   0  0  0  0  0  0  0  0  0  0  0  0
    6.3643   -1.2160   -1.6860 H   0  0  0  0  0  0  0  0  0  0  0  0
    7.7085    0.6157   -0.3717 H   0  0  0  0  0  0  0  0  0  0  0  0
    7.1743    2.4167    1.7028 H   0  0  0  0  0  0  0  0  0  0  0  0
    5.3784    3.1260    3.1882 H   0  0  0  0  0  0  0  0  0  0  0  0
    3.1116    2.0769    3.0646 H   0  0  0  0  0  0  0  0  0  0  0  0
    2.6800    0.2956    1.4167 H   0  0  0  0  0  0  0  0  0  0  0  0
   -0.6419   -3.2187   -1.6556 H   0  0  0  0  0  0  0  0  0  0  0  0
   -1.1036   -1.8951   -2.7494 H   0  0  0  0  0  0  0  0  0  0  0  0
   -2.8956   -2.6057   -1.0022 H   0  0  0  0  0  0  0  0  0  0  0  0
   -1.7559   -2.1774    0.2695 H   0  0  0  0  0  0  0  0  0  0  0  0
   -4.7410    1.7254    0.2501 H   0  0  0  0  0  0  0  0  0  0  0  0
   -3.5358    1.7539   -1.0824 H   0  0  0  0  0  0  0  0  0  0  0  0
   -1.7173    2.2694    0.4012 H   0  0  0  0  0  0  0  0  0  0  0  0
   -3.0556    3.4042    0.6144 H   0  0  0  0  0  0  0  0  0  0  0  0
   -4.7777    2.3268    2.9893 H   0  0  0  0  0  0  0  0  0  0  0  0
   -4.3170   -0.2829    2.0283 H   0  0  0  0  0  0  0  0  0  0  0  0
   -3.3809   -1.6202    1.3584 H   0  0  0  0  0  0  0  0  0  0  0  0
   -5.0779   -2.2139   -0.1877 H   0  0  0  0  0  0  0  0  0  0  0  0
   -5.7738   -2.0440    1.4236 H   0  0  0  0  0  0  0  0  0  0  0  0
   -8.0603   -0.6952    1.3744 H   0  0  0  0  0  0  0  0  0  0  0  0
  1  2  1  0
  2  3  1  0
  3  4  1  0
  4  5  1  0
  5  6  2  0
  6  7  1  0
  7  8  1  0
  8  9  2  0
  9 10  1  0
 10 11  2  0
 11 12  1  0
 12 13  2  0
  2 14  1  0
 14 15  2  0
 14 16  1  0
 16 17  1  0
 17 18  1  0
 18 19  2  0
 18 20  1  0
 20 21  1  0
 21 22  1  0
 22 23  1  0
 23 24  1  0
 23 25  2  0
 20 26  1  0
 26 27  1  0
 27 28  1  0
 28 29  1  0
 28 30  2  0
 13  5  1  0
 13  8  1  0
  1 31  1  0
  1 32  1  0
  1 33  1  0
  3 34  1  0
  3 35  1  0
  4 36  1  0
  4 37  1  0
  6 38  1  0
  7 39  1  0
  9 40  1  0
 10 41  1  0
 11 42  1  0
 12 43  1  0
 16 44  1  0
 16 45  1  0
 17 46  1  0
 17 47  1  0
 21 48  1  0
 21 49  1  0
 22 50  1  0
 22 51  1  0
 24 52  1  0
 26 53  1  0
 26 54  1  0
 27 55  1  0
 27 56  1  0
 29 57  1  0
M  END
$$$$
[H]c1c([H])c(S(=O)(=O)C2([H])C([H])([H])C([H])([H])N(C([H])([H])C([H])([H])n3c(C([H])([H])[H])nc4c([H])c(Cl)c([H])c([H])c43)C([H])([H])C2([H])[H])c([H])c([H])c1Cl
     RDKit          3D

 52 55  0  0  0  0  0  0  0  0999 V2000
   -4.0223    0.7920   -2.7854 C   0  0  0  0  0  0  0  0  0  0  0  0
   -4.4943    0.0632   -1.5686 C   0  0  0  0  0  0  0  0  0  0  0  0
   -5.7656   -0.2029   -1.2250 N   0  0  0  0  0  0  0  0  0  0  0  0
   -5.7495   -0.8821   -0.0490 C   0  0  0  0  0  0  0  0  0  0  0  0
   -6.7077   -1.4080    0.7721 C   0  0  0  0  0  0  0  0  0  0  0  0
   -6.4503   -2.0752    1.9483 C   0  0  0  0  0  0  0  0  0  0  0  0
   -7.7082   -2.7297    2.9650 Cl  0  0  0  0  0  0  0  0  0  0  0  0
   -5.1140   -2.2043    2.2935 C   0  0  0  0  0  0  0  0  0  0  0  0
   -4.1049   -1.6891    1.4956 C   0  0  0  0  0  0  0  0  0  0  0  0
   -4.4189   -1.0206    0.3120 C   0  0  0  0  0  0  0  0  0  0  0  0
   -3.6594   -0.4401   -0.6222 N   0  0  0  0  0  0  0  0  0  0  0  0
   -2.2087   -0.3383   -0.6644 C   0  0  0  0  0  0  0  0  0  0  0  0
   -1.7806    0.9249    0.0316 C   0  0  0  0  0  0  0  0  0  0  0  0
   -0.3808    1.1547    0.0439 N   0  0  0  0  0  0  0  0  0  0  0  0
    0.1713    1.4460   -1.2587 C   0  0  0  0  0  0  0  0  0  0  0  0
    1.5312    2.0822   -0.9719 C   0  0  0  0  0  0  0  0  0  0  0  0
    2.4109    0.9392   -0.5157 C   0  0  0  0  0  0  0  0  0  0  0  0
    1.7586   -0.0345    0.3789 C   0  0  0  0  0  0  0  0  0  0  0  0
    0.3757    0.2623    0.8262 C   0  0  0  0  0  0  0  0  0  0  0  0
    3.8508    1.6519    0.2058 S   0  0  0  0  0  0  0  0  0  0  0  0
    3.4116    2.3711    1.4591 O   0  0  0  0  0  0  0  0  0  0  0  0
    4.3759    2.6837   -0.7754 O   0  0  0  0  0  0  0  0  0  0  0  0
    5.0988    0.5099    0.5575 C   0  0  0  0  0  0  0  0  0  0  0  0
    6.0258    0.2062   -0.4132 C   0  0  0  0  0  0  0  0  0  0  0  0
    7.0538   -0.7008   -0.1884 C   0  0  0  0  0  0  0  0  0  0  0  0
    7.1628   -1.3223    1.0343 C   0  0  0  0  0  0  0  0  0  0  0  0
    8.4611   -2.4791    1.3459 Cl  0  0  0  0  0  0  0  0  0  0  0  0
    6.2441   -1.0278    2.0110 C   0  0  0  0  0  0  0  0  0  0  0  0
    5.2269   -0.1252    1.7768 C   0  0  0  0  0  0  0  0  0  0  0  0
   -3.2278    0.1753   -3.2595 H   0  0  0  0  0  0  0  0  0  0  0  0
   -3.6617    1.8070   -2.5475 H   0  0  0  0  0  0  0  0  0  0  0  0
   -4.8542    0.8895   -3.5153 H   0  0  0  0  0  0  0  0  0  0  0  0
   -7.7488   -1.2917    0.4775 H   0  0  0  0  0  0  0  0  0  0  0  0
   -4.8658   -2.7238    3.2137 H   0  0  0  0  0  0  0  0  0  0  0  0
   -3.0877   -1.7977    1.7755 H   0  0  0  0  0  0  0  0  0  0  0  0
   -1.8094   -1.2575   -0.1630 H   0  0  0  0  0  0  0  0  0  0  0  0
   -1.9165   -0.3644   -1.7333 H   0  0  0  0  0  0  0  0  0  0  0  0
   -2.3003    1.7651   -0.4902 H   0  0  0  0  0  0  0  0  0  0  0  0
   -2.1501    0.8753    1.0747 H   0  0  0  0  0  0  0  0  0  0  0  0
   -0.4490    2.2178   -1.7299 H   0  0  0  0  0  0  0  0  0  0  0  0
    0.3006    0.5277   -1.8641 H   0  0  0  0  0  0  0  0  0  0  0  0
    1.9734    2.5358   -1.8664 H   0  0  0  0  0  0  0  0  0  0  0  0
    1.4166    2.7723   -0.1184 H   0  0  0  0  0  0  0  0  0  0  0  0
    2.7554    0.4548   -1.4784 H   0  0  0  0  0  0  0  0  0  0  0  0
    1.7755   -1.0411   -0.1340 H   0  0  0  0  0  0  0  0  0  0  0  0
    2.3977   -0.1792    1.2773 H   0  0  0  0  0  0  0  0  0  0  0  0
    0.4017    0.6674    1.8824 H   0  0  0  0  0  0  0  0  0  0  0  0
   -0.1793   -0.7054    0.9290 H   0  0  0  0  0  0  0  0  0  0  0  0
    6.0034    0.6543   -1.3970 H   0  0  0  0  0  0  0  0  0  0  0  0
    7.7869   -0.9435   -0.9505 H   0  0  0  0  0  0  0  0  0  0  0  0
    6.3075   -1.5048    2.9883 H   0  0  0  0  0  0  0  0  0  0  0  0
    4.5378    0.0591    2.5930 H   0  0  0  0  0  0  0  0  0  0  0  0
  1  2  1  0
  2  3  2  0
  3  4  1  0
  4  5  2  0
  5  6  1  0
  6  7  1  0
  6  8  2  0
  8  9  1  0
  9 10  2  0
 10 11  1  0
 11 12  1  0
 12 13  1  0
 13 14  1  0
 14 15  1  0
 15 16  1  0
 16 17  1  0
 17 18  1  0
 18 19  1  0
 17 20  1  0
 20 21  2  0
 20 22  2  0
 20 23  1  0
 23 24  2  0
 24 25  1  0
 25 26  2  0
 26 27  1  0
 26 28  1  0
 28 29  2  0
 11  2  1  0
 19 14  1  0
 29 23  1  0
 10  4  1  0
  1 30  1  0
  1 31  1  0
  1 32  1  0
  5 33  1  0
  8 34  1  0
  9 35  1  0
 12 36  1  0
 12 37  1  0
 13 38  1  0
 13 39  1  0
 15 40  1  0
 15 41  1  0
 16 42  1  0
 16 43  1  0
 17 44  1  0
 18 45  1  0
 18 46  1  0
 19 47  1  0
 19 48  1  0
 24 49  1  0
 25 50  1  0
 28 51  1  0
 29 52  1  0
M  END
$$$$
[H]ON([H])C(=O)/C([H])=C(\[H])c1c([H])c([H])c([H])c(S(=O)(=O)N2C([H])([H])C([H])([H])SC([H])([H])C2([H])[H])c1[H]
     RDKit          3D

 37 38  0  0  0  0  0  0  0  0999 V2000
    5.4101   -0.7357   -4.2559 O   0  0  0  0  0  0  0  0  0  0  0  0
    4.5687   -0.4231   -3.2478 N   0  0  0  0  0  0  0  0  0  0  0  0
    4.6034    0.8481   -2.6817 C   0  0  0  0  0  0  0  0  0  0  0  0
    5.4192    1.7001   -3.1081 O   0  0  0  0  0  0  0  0  0  0  0  0
    3.7148    1.2294   -1.5989 C   0  0  0  0  0  0  0  0  0  0  0  0
    2.8105    0.4595   -1.0462 C   0  0  0  0  0  0  0  0  0  0  0  0
    1.9267    0.8636    0.0416 C   0  0  0  0  0  0  0  0  0  0  0  0
    1.9164    2.0977    0.6339 C   0  0  0  0  0  0  0  0  0  0  0  0
    1.0332    2.4132    1.6736 C   0  0  0  0  0  0  0  0  0  0  0  0
    0.1543    1.4448    2.1037 C   0  0  0  0  0  0  0  0  0  0  0  0
    0.1253    0.1817    1.5374 C   0  0  0  0  0  0  0  0  0  0  0  0
    1.0139   -0.0818    0.5167 C   0  0  0  0  0  0  0  0  0  0  0  0
   -1.0148   -1.0032    2.1266 S   0  0  0  0  0  0  0  0  0  0  0  0
   -0.4058   -2.3582    2.1725 O   0  0  0  0  0  0  0  0  0  0  0  0
   -1.3251   -0.6309    3.5695 O   0  0  0  0  0  0  0  0  0  0  0  0
   -2.4611   -0.9225    1.2601 N   0  0  0  0  0  0  0  0  0  0  0  0
   -3.1672    0.2899    1.3290 C   0  0  0  0  0  0  0  0  0  0  0  0
   -4.5745    0.2743    0.8695 C   0  0  0  0  0  0  0  0  0  0  0  0
   -5.2008   -1.3730    0.4825 S   0  0  0  0  0  0  0  0  0  0  0  0
   -3.8692   -2.4640   -0.0285 C   0  0  0  0  0  0  0  0  0  0  0  0
   -2.5650   -1.7013    0.0887 C   0  0  0  0  0  0  0  0  0  0  0  0
    4.9890   -1.1388   -5.0357 H   0  0  0  0  0  0  0  0  0  0  0  0
    3.9150   -1.1522   -2.9155 H   0  0  0  0  0  0  0  0  0  0  0  0
    3.7730    2.2542   -1.1726 H   0  0  0  0  0  0  0  0  0  0  0  0
    2.7395   -0.5602   -1.4566 H   0  0  0  0  0  0  0  0  0  0  0  0
    2.6205    2.8561    0.2813 H   0  0  0  0  0  0  0  0  0  0  0  0
    1.0564    3.4061    2.1185 H   0  0  0  0  0  0  0  0  0  0  0  0
   -0.5345    1.6850    2.9114 H   0  0  0  0  0  0  0  0  0  0  0  0
    1.0117   -1.0614    0.0571 H   0  0  0  0  0  0  0  0  0  0  0  0
   -2.6039    1.0631    0.7342 H   0  0  0  0  0  0  0  0  0  0  0  0
   -3.1112    0.6638    2.3891 H   0  0  0  0  0  0  0  0  0  0  0  0
   -4.7261    0.9067   -0.0535 H   0  0  0  0  0  0  0  0  0  0  0  0
   -5.2554    0.7208    1.6367 H   0  0  0  0  0  0  0  0  0  0  0  0
   -3.8364   -3.4062    0.5905 H   0  0  0  0  0  0  0  0  0  0  0  0
   -3.9513   -2.8044   -1.0817 H   0  0  0  0  0  0  0  0  0  0  0  0
   -1.7584   -2.4744    0.0977 H   0  0  0  0  0  0  0  0  0  0  0  0
   -2.4409   -1.0668   -0.8096 H   0  0  0  0  0  0  0  0  0  0  0  0
  1  2  1  0
  2  3  1  0
  3  4  2  0
  3  5  1  0
  5  6  2  0
  6  7  1  0
  7  8  2  0
  8  9  1  0
  9 10  2  0
 10 11  1  0
 11 12  2  0
 11 13  1  0
 13 14  2  0
 13 15  2  0
 13 16  1  0
 16 17  1  0
 17 18  1  0
 18 19  1  0
 19 20  1  0
 20 21  1  0
 12  7  1  0
 21 16  1  0
  1 22  1  0
  2 23  1  0
  5 24  1  0
  6 25  1  0
  8 26  1  0
  9 27  1  0
 10 28  1  0
 12 29  1  0
 17 30  1  0
 17 31  1  0
 18 32  1  0
 18 33  1  0
 20 34  1  0
 20 35  1  0
 21 36  1  0
 21 37  1  0
M  END
$$$$
[H]c1nc(N([H])c2c([H])c([H])c(N3C([H])([H])C([H])([H])N(C([H])([H])[H])C([H])([H])C3([H])[H])c([H])c2[H])nc(-c2c([H])nc(N([H])c3c([H])c([H])c([H])c(C(F)(F)F)c3[H])nc2N([H])C([H])(C([H])([H])[H])C([H])([H])[H])c1[H]
     RDKit          3D

 73 77  0  0  0  0  0  0  0  0999 V2000
   -4.6693    2.2919   -0.0228 C   0  0  0  0  0  0  0  0  0  0  0  0
   -4.2051    1.5445   -1.2315 C   0  0  0  0  0  0  0  0  0  0  0  0
   -3.5981    2.5762   -2.1728 C   0  0  0  0  0  0  0  0  0  0  0  0
   -3.2748    0.4871   -0.9876 N   0  0  0  0  0  0  0  0  0  0  0  0
   -3.5577   -0.7283   -0.3059 C   0  0  0  0  0  0  0  0  0  0  0  0
   -4.8129   -1.0215    0.1572 N   0  0  0  0  0  0  0  0  0  0  0  0
   -5.1604   -2.1408    0.7798 C   0  0  0  0  0  0  0  0  0  0  0  0
   -6.4496   -2.4821    1.2274 N   0  0  0  0  0  0  0  0  0  0  0  0
   -7.6097   -1.7619    1.1049 C   0  0  0  0  0  0  0  0  0  0  0  0
   -8.8196   -2.4516    1.3142 C   0  0  0  0  0  0  0  0  0  0  0  0
  -10.0608   -1.8156    1.2366 C   0  0  0  0  0  0  0  0  0  0  0  0
  -10.1226   -0.4725    0.9483 C   0  0  0  0  0  0  0  0  0  0  0  0
   -8.9759    0.2134    0.7436 C   0  0  0  0  0  0  0  0  0  0  0  0
   -7.7473   -0.4312    0.8233 C   0  0  0  0  0  0  0  0  0  0  0  0
   -8.9789    1.6578    0.4524 C   0  0  0  0  0  0  0  0  0  0  0  0
   -8.1223    2.2306    1.3968 F   0  0  0  0  0  0  0  0  0  0  0  0
  -10.2387    2.2084    0.5248 F   0  0  0  0  0  0  0  0  0  0  0  0
   -8.3699    1.8559   -0.7692 F   0  0  0  0  0  0  0  0  0  0  0  0
   -4.1442   -3.0491    0.9549 N   0  0  0  0  0  0  0  0  0  0  0  0
   -2.9207   -2.8193    0.5313 C   0  0  0  0  0  0  0  0  0  0  0  0
   -2.5581   -1.6342   -0.1292 C   0  0  0  0  0  0  0  0  0  0  0  0
   -1.1945   -1.4689   -0.5939 C   0  0  0  0  0  0  0  0  0  0  0  0
   -0.7712   -2.0396   -1.7975 C   0  0  0  0  0  0  0  0  0  0  0  0
    0.5304   -1.9117   -2.1635 C   0  0  0  0  0  0  0  0  0  0  0  0
    1.4121   -1.2407   -1.3748 N   0  0  0  0  0  0  0  0  0  0  0  0
    1.0353   -0.6857   -0.2210 C   0  0  0  0  0  0  0  0  0  0  0  0
    1.8889   -0.0321    0.6886 N   0  0  0  0  0  0  0  0  0  0  0  0
    3.2959    0.0211    0.4565 C   0  0  0  0  0  0  0  0  0  0  0  0
    4.0226    1.1617    0.7260 C   0  0  0  0  0  0  0  0  0  0  0  0
    5.4127    1.1826    0.5609 C   0  0  0  0  0  0  0  0  0  0  0  0
    6.0360    0.0400    0.1233 C   0  0  0  0  0  0  0  0  0  0  0  0
    5.3562   -1.1155   -0.1566 C   0  0  0  0  0  0  0  0  0  0  0  0
    3.9769   -1.1103    0.0158 C   0  0  0  0  0  0  0  0  0  0  0  0
    7.4429    0.0339   -0.0408 N   0  0  0  0  0  0  0  0  0  0  0  0
    7.9940    0.2623   -1.3423 C   0  0  0  0  0  0  0  0  0  0  0  0
    9.4796    0.2671   -1.2513 C   0  0  0  0  0  0  0  0  0  0  0  0
   10.0099    1.0021   -0.1299 N   0  0  0  0  0  0  0  0  0  0  0  0
    9.6553    2.4190   -0.2109 C   0  0  0  0  0  0  0  0  0  0  0  0
    9.5778    0.4641    1.1381 C   0  0  0  0  0  0  0  0  0  0  0  0
    8.2600   -0.2205    1.1083 C   0  0  0  0  0  0  0  0  0  0  0  0
   -0.2792   -0.8213    0.1343 N   0  0  0  0  0  0  0  0  0  0  0  0
   -5.4803    2.9962   -0.3806 H   0  0  0  0  0  0  0  0  0  0  0  0
   -3.8257    2.9567    0.2902 H   0  0  0  0  0  0  0  0  0  0  0  0
   -5.0999    1.6960    0.7814 H   0  0  0  0  0  0  0  0  0  0  0  0
   -5.0718    1.1183   -1.8160 H   0  0  0  0  0  0  0  0  0  0  0  0
   -2.6032    2.9439   -1.7846 H   0  0  0  0  0  0  0  0  0  0  0  0
   -4.2747    3.4552   -2.3166 H   0  0  0  0  0  0  0  0  0  0  0  0
   -3.3651    2.1218   -3.1597 H   0  0  0  0  0  0  0  0  0  0  0  0
   -2.2935    0.6166   -1.3414 H   0  0  0  0  0  0  0  0  0  0  0  0
   -6.5017   -3.4275    1.7493 H   0  0  0  0  0  0  0  0  0  0  0  0
   -8.7595   -3.4942    1.5394 H   0  0  0  0  0  0  0  0  0  0  0  0
  -10.9800   -2.3888    1.4032 H   0  0  0  0  0  0  0  0  0  0  0  0
  -11.1171   -0.0332    0.8972 H   0  0  0  0  0  0  0  0  0  0  0  0
   -6.8611    0.1498    0.6616 H   0  0  0  0  0  0  0  0  0  0  0  0
   -2.1127   -3.5422    0.6720 H   0  0  0  0  0  0  0  0  0  0  0  0
   -1.4772   -2.5642   -2.4159 H   0  0  0  0  0  0  0  0  0  0  0  0
    0.9431   -2.3289   -3.0843 H   0  0  0  0  0  0  0  0  0  0  0  0
    1.5404    0.4330    1.5631 H   0  0  0  0  0  0  0  0  0  0  0  0
    3.4835    2.0482    1.0747 H   0  0  0  0  0  0  0  0  0  0  0  0
    5.9760    2.0871    0.7735 H   0  0  0  0  0  0  0  0  0  0  0  0
    5.8934   -1.9761   -0.4942 H   0  0  0  0  0  0  0  0  0  0  0  0
    3.4297   -1.9995   -0.1790 H   0  0  0  0  0  0  0  0  0  0  0  0
    7.6972   -0.5893   -2.0021 H   0  0  0  0  0  0  0  0  0  0  0  0
    7.6259    1.2310   -1.7235 H   0  0  0  0  0  0  0  0  0  0  0  0
    9.8751    0.7440   -2.1734 H   0  0  0  0  0  0  0  0  0  0  0  0
    9.8959   -0.7614   -1.2284 H   0  0  0  0  0  0  0  0  0  0  0  0
    9.8491    2.9075    0.7521 H   0  0  0  0  0  0  0  0  0  0  0  0
   10.2618    2.9266   -0.9663 H   0  0  0  0  0  0  0  0  0  0  0  0
    8.5697    2.4840   -0.4449 H   0  0  0  0  0  0  0  0  0  0  0  0
   10.3597   -0.2641    1.5141 H   0  0  0  0  0  0  0  0  0  0  0  0
    9.5155    1.3180    1.8756 H   0  0  0  0  0  0  0  0  0  0  0  0
    7.7241    0.0086    2.0789 H   0  0  0  0  0  0  0  0  0  0  0  0
    8.4386   -1.3381    1.1563 H   0  0  0  0  0  0  0  0  0  0  0  0
  1  2  1  0
  2  3  1  0
  2  4  1  0
  4  5  1  0
  5  6  2  0
  6  7  1  0
  7  8  1  0
  8  9  1  0
  9 10  2  0
 10 11  1  0
 11 12  2  0
 12 13  1  0
 13 14  2  0
 13 15  1  0
 15 16  1  0
 15 17  1  0
 15 18  1  0
  7 19  2  0
 19 20  1  0
 20 21  2  0
 21 22  1  0
 22 23  2  0
 23 24  1  0
 24 25  2  0
 25 26  1  0
 26 27  1  0
 27 28  1  0
 28 29  2  0
 29 30  1  0
 30 31  2  0
 31 32  1  0
 32 33  2  0
 31 34  1  0
 34 35  1  0
 35 36  1  0
 36 37  1  0
 37 38  1  0
 37 39  1  0
 39 40  1  0
 26 41  2  0
 21  5  1  0
 41 22  1  0
 14  9  1  0
 33 28  1  0
 40 34  1  0
  1 42  1  0
  1 43  1  0
  1 44  1  0
  2 45  1  0
  3 46  1  0
  3 47  1  0
  3 48  1  0
  4 49  1  0
  8 50  1  0
 10 51  1  0
 11 52  1  0
 12 53  1  0
 14 54  1  0
 20 55  1  0
 23 56  1  0
 24 57  1  0
 27 58  1  0
 29 59  1  0
 30 60  1  0
 32 61  1  0
 33 62  1  0
 35 63  1  0
 35 64  1  0
 36 65  1  0
 36 66  1  0
 38 67  1  0
 38 68  1  0
 38 69  1  0
 39 70  1  0
 39 71  1  0
 40 72  1  0
 40 73  1  0
M  END
$$$$
[H]OC(=O)C(=O)N([H])C([H])([H])C([H])([H])S(=O)(=O)N([H])O[H]
     RDKit          3D

 21 20  0  0  0  0  0  0  0  0999 V2000
   -2.3489    1.2714    1.6035 O   0  0  0  0  0  0  0  0  0  0  0  0
   -1.9749    1.0987    0.3377 N   0  0  0  0  0  0  0  0  0  0  0  0
   -2.3058   -0.3810   -0.3757 S   0  0  0  0  0  0  0  0  0  0  0  0
   -2.5798   -0.1089   -1.8557 O   0  0  0  0  0  0  0  0  0  0  0  0
   -3.6490   -0.8865    0.1494 O   0  0  0  0  0  0  0  0  0  0  0  0
   -1.1475   -1.6564   -0.2276 C   0  0  0  0  0  0  0  0  0  0  0  0
    0.2115   -1.4355   -0.7724 C   0  0  0  0  0  0  0  0  0  0  0  0
    0.8607   -0.3364   -0.1091 N   0  0  0  0  0  0  0  0  0  0  0  0
    2.1673    0.1066   -0.4395 C   0  0  0  0  0  0  0  0  0  0  0  0
    2.7667   -0.5121   -1.3647 O   0  0  0  0  0  0  0  0  0  0  0  0
    2.7999    1.2235    0.2499 C   0  0  0  0  0  0  0  0  0  0  0  0
    4.0705    1.6066   -0.1162 O   0  0  0  0  0  0  0  0  0  0  0  0
    2.1939    1.8210    1.1588 O   0  0  0  0  0  0  0  0  0  0  0  0
   -3.0742    1.9673    1.6011 H   0  0  0  0  0  0  0  0  0  0  0  0
   -1.2881    1.7207   -0.0579 H   0  0  0  0  0  0  0  0  0  0  0  0
   -1.5681   -2.5534   -0.7770 H   0  0  0  0  0  0  0  0  0  0  0  0
   -1.1117   -2.0293    0.8392 H   0  0  0  0  0  0  0  0  0  0  0  0
    0.2369   -1.2103   -1.8570 H   0  0  0  0  0  0  0  0  0  0  0  0
    0.8798   -2.3323   -0.6522 H   0  0  0  0  0  0  0  0  0  0  0  0
    0.3672    0.1597    0.6538 H   0  0  0  0  0  0  0  0  0  0  0  0
    4.4933    2.4664    0.2469 H   0  0  0  0  0  0  0  0  0  0  0  0
  1  2  1  0
  2  3  1  0
  3  4  2  0
  3  5  2  0
  3  6  1  0
  6  7  1  0
  7  8  1  0
  8  9  1  0
  9 10  2  0
  9 11  1  0
 11 12  1  0
 11 13  2  0
  1 14  1  0
  2 15  1  0
  6 16  1  0
  6 17  1  0
  7 18  1  0
  7 19  1  0
  8 20  1  0
 12 21  1  0
M  END
$$$$
[H]OC([H])([H])C([H])([H])C1(N([H])[H])C([H])([H])C([H])([H])N(c2c(N([H])C(=O)c3nc(-c4nc([H])c([H])c([H])c4C(F)(F)F)c([H])nc3N([H])[H])nc([H])c([H])c2[H])C([H])([H])C1([H])[H]
     RDKit          3D

 61 64  0  0  0  0  0  0  0  0999 V2000
   -4.1668    2.2981   -3.5674 N   0  0  0  0  0  0  0  0  0  0  0  0
   -4.2090    2.0638   -2.1783 C   0  0  0  0  0  0  0  0  0  0  0  0
   -5.2847    2.3115   -1.4203 N   0  0  0  0  0  0  0  0  0  0  0  0
   -5.2636    2.0680   -0.1038 C   0  0  0  0  0  0  0  0  0  0  0  0
   -4.1497    1.5468    0.5864 C   0  0  0  0  0  0  0  0  0  0  0  0
   -3.1529    1.3370   -0.2255 N   0  0  0  0  0  0  0  0  0  0  0  0
   -3.0829    1.5479   -1.5388 C   0  0  0  0  0  0  0  0  0  0  0  0
   -1.9082    1.2829   -2.3551 C   0  0  0  0  0  0  0  0  0  0  0  0
   -1.9581    1.5168   -3.6142 O   0  0  0  0  0  0  0  0  0  0  0  0
   -0.6868    0.7778   -1.8585 N   0  0  0  0  0  0  0  0  0  0  0  0
    0.4185    0.5508   -2.7127 C   0  0  0  0  0  0  0  0  0  0  0  0
    0.3265    0.8153   -4.0539 N   0  0  0  0  0  0  0  0  0  0  0  0
    1.3074    0.6360   -4.9169 C   0  0  0  0  0  0  0  0  0  0  0  0
    2.5345    0.1526   -4.5085 C   0  0  0  0  0  0  0  0  0  0  0  0
    2.7020   -0.1330   -3.1916 C   0  0  0  0  0  0  0  0  0  0  0  0
    1.6396    0.0689   -2.3017 C   0  0  0  0  0  0  0  0  0  0  0  0
    1.8617   -0.2479   -0.9394 N   0  0  0  0  0  0  0  0  0  0  0  0
    1.1707   -1.2929   -0.2416 C   0  0  0  0  0  0  0  0  0  0  0  0
    2.1505   -2.2991    0.3672 C   0  0  0  0  0  0  0  0  0  0  0  0
    3.1168   -1.4761    1.1905 C   0  0  0  0  0  0  0  0  0  0  0  0
    2.2692   -0.6639    2.0816 N   0  0  0  0  0  0  0  0  0  0  0  0
    4.0081   -2.2755    2.0739 C   0  0  0  0  0  0  0  0  0  0  0  0
    4.8941   -3.2611    1.3907 C   0  0  0  0  0  0  0  0  0  0  0  0
    5.7777   -2.6916    0.4807 O   0  0  0  0  0  0  0  0  0  0  0  0
    3.8578   -0.4925    0.3326 C   0  0  0  0  0  0  0  0  0  0  0  0
    2.8558    0.5235   -0.1882 C   0  0  0  0  0  0  0  0  0  0  0  0
   -4.3005    1.3379    1.9921 C   0  0  0  0  0  0  0  0  0  0  0  0
   -5.5024    1.6716    2.5639 N   0  0  0  0  0  0  0  0  0  0  0  0
   -5.8026    1.5350    3.8508 C   0  0  0  0  0  0  0  0  0  0  0  0
   -4.8692    1.0250    4.7122 C   0  0  0  0  0  0  0  0  0  0  0  0
   -3.6567    0.6812    4.1718 C   0  0  0  0  0  0  0  0  0  0  0  0
   -3.3455    0.8296    2.8005 C   0  0  0  0  0  0  0  0  0  0  0  0
   -2.0453    0.4345    2.2933 C   0  0  0  0  0  0  0  0  0  0  0  0
   -1.3282   -0.0571    3.4314 F   0  0  0  0  0  0  0  0  0  0  0  0
   -1.1888    1.4052    1.8842 F   0  0  0  0  0  0  0  0  0  0  0  0
   -2.0612   -0.7210    1.5281 F   0  0  0  0  0  0  0  0  0  0  0  0
   -4.5138    1.6446   -4.3015 H   0  0  0  0  0  0  0  0  0  0  0  0
   -3.7561    3.1997   -3.9173 H   0  0  0  0  0  0  0  0  0  0  0  0
   -6.2000    2.3071    0.4259 H   0  0  0  0  0  0  0  0  0  0  0  0
   -0.5998    0.5742   -0.8528 H   0  0  0  0  0  0  0  0  0  0  0  0
    1.1255    0.8801   -5.9649 H   0  0  0  0  0  0  0  0  0  0  0  0
    3.3418    0.0038   -5.2116 H   0  0  0  0  0  0  0  0  0  0  0  0
    3.6371   -0.5168   -2.7921 H   0  0  0  0  0  0  0  0  0  0  0  0
    0.6810   -0.8169    0.6580 H   0  0  0  0  0  0  0  0  0  0  0  0
    0.3797   -1.7624   -0.8240 H   0  0  0  0  0  0  0  0  0  0  0  0
    1.5644   -2.9411    1.0493 H   0  0  0  0  0  0  0  0  0  0  0  0
    2.6391   -2.9239   -0.3799 H   0  0  0  0  0  0  0  0  0  0  0  0
    2.8893    0.0244    2.5776 H   0  0  0  0  0  0  0  0  0  0  0  0
    1.9606   -1.3321    2.8343 H   0  0  0  0  0  0  0  0  0  0  0  0
    3.4135   -2.7319    2.8814 H   0  0  0  0  0  0  0  0  0  0  0  0
    4.6868   -1.5307    2.5865 H   0  0  0  0  0  0  0  0  0  0  0  0
    4.3376   -4.0500    0.8445 H   0  0  0  0  0  0  0  0  0  0  0  0
    5.5128   -3.7504    2.1811 H   0  0  0  0  0  0  0  0  0  0  0  0
    6.0109   -3.2789   -0.2653 H   0  0  0  0  0  0  0  0  0  0  0  0
    4.6191    0.0254    0.9272 H   0  0  0  0  0  0  0  0  0  0  0  0
    4.2934   -1.0365   -0.5333 H   0  0  0  0  0  0  0  0  0  0  0  0
    3.3820    1.2512   -0.8340 H   0  0  0  0  0  0  0  0  0  0  0  0
    2.3670    0.9797    0.6939 H   0  0  0  0  0  0  0  0  0  0  0  0
   -6.7744    1.8211    4.2285 H   0  0  0  0  0  0  0  0  0  0  0  0
   -5.0424    0.8855    5.7718 H   0  0  0  0  0  0  0  0  0  0  0  0
   -2.8830    0.2687    4.8337 H   0  0  0  0  0  0  0  0  0  0  0  0
  1  2  1  0
  2  3  2  0
  3  4  1  0
  4  5  2  0
  5  6  1  0
  6  7  2  0
  7  8  1  0
  8  9  2  0
  8 10  1  0
 10 11  1  0
 11 12  2  0
 12 13  1  0
 13 14  2  0
 14 15  1  0
 15 16  2  0
 16 17  1  0
 17 18  1  0
 18 19  1  0
 19 20  1  0
 20 21  1  0
 20 22  1  0
 22 23  1  0
 23 24  1  0
 20 25  1  0
 25 26  1  0
  5 27  1  0
 27 28  2  0
 28 29  1  0
 29 30  2  0
 30 31  1  0
 31 32  2  0
 32 33  1  0
 33 34  1  0
 33 35  1  0
 33 36  1  0
  7  2  1  0
 16 11  1  0
 26 17  1  0
 32 27  1  0
  1 37  1  0
  1 38  1  0
  4 39  1  0
 10 40  1  0
 13 41  1  0
 14 42  1  0
 15 43  1  0
 18 44  1  0
 18 45  1  0
 19 46  1  0
 19 47  1  0
 21 48  1  0
 21 49  1  0
 22 50  1  0
 22 51  1  0
 23 52  1  0
 23 53  1  0
 24 54  1  0
 25 55  1  0
 25 56  1  0
 26 57  1  0
 26 58  1  0
 29 59  1  0
 30 60  1  0
 31 61  1  0
M  END
$$$$
[H]OC([H])(c1c([H])c([H])c([H])c([H])c1[H])c1c(C([H])=C([H])[H])c([H])c2c([H])c(C(=O)OC([H])([H])C([H])([H])[H])c([H])c([H])c2c1[H]
     RDKit          3D

 45 47  0  0  0  0  0  0  0  0999 V2000
   -7.3274    1.6171   -1.8714 C   0  0  0  0  0  0  0  0  0  0  0  0
   -6.6536    0.3432   -1.4553 C   0  0  0  0  0  0  0  0  0  0  0  0
   -5.2622    0.5823   -1.3350 O   0  0  0  0  0  0  0  0  0  0  0  0
   -4.3723   -0.4244   -0.9661 C   0  0  0  0  0  0  0  0  0  0  0  0
   -4.8490   -1.5449   -0.7427 O   0  0  0  0  0  0  0  0  0  0  0  0
   -2.9472   -0.1852   -0.8453 C   0  0  0  0  0  0  0  0  0  0  0  0
   -2.4128    1.0579   -1.1015 C   0  0  0  0  0  0  0  0  0  0  0  0
   -1.0402    1.2420   -0.9769 C   0  0  0  0  0  0  0  0  0  0  0  0
   -0.2173    0.1892   -0.5996 C   0  0  0  0  0  0  0  0  0  0  0  0
    1.1453    0.3459   -0.4717 C   0  0  0  0  0  0  0  0  0  0  0  0
    1.9915   -0.6965   -0.0969 C   0  0  0  0  0  0  0  0  0  0  0  0
    3.4367   -0.5112    0.0197 C   0  0  0  0  0  0  0  0  0  0  0  0
    3.9966   -0.3150   -1.2736 O   0  0  0  0  0  0  0  0  0  0  0  0
    3.8654    0.6702    0.8043 C   0  0  0  0  0  0  0  0  0  0  0  0
    4.1640    0.4890    2.1343 C   0  0  0  0  0  0  0  0  0  0  0  0
    4.5955    1.5580    2.9367 C   0  0  0  0  0  0  0  0  0  0  0  0
    4.7267    2.8234    2.3878 C   0  0  0  0  0  0  0  0  0  0  0  0
    4.4196    2.9674    1.0549 C   0  0  0  0  0  0  0  0  0  0  0  0
    3.9951    1.9266    0.2565 C   0  0  0  0  0  0  0  0  0  0  0  0
    1.4461   -1.9594    0.1639 C   0  0  0  0  0  0  0  0  0  0  0  0
    2.2341   -3.1032    0.5877 C   0  0  0  0  0  0  0  0  0  0  0  0
    1.7904   -4.3272    0.4346 C   0  0  0  0  0  0  0  0  0  0  0  0
    0.0610   -2.0772    0.0234 C   0  0  0  0  0  0  0  0  0  0  0  0
   -0.7342   -1.0361   -0.3457 C   0  0  0  0  0  0  0  0  0  0  0  0
   -2.1119   -1.2085   -0.4741 C   0  0  0  0  0  0  0  0  0  0  0  0
   -8.3466    1.7230   -1.4171 H   0  0  0  0  0  0  0  0  0  0  0  0
   -6.7609    2.5222   -1.5699 H   0  0  0  0  0  0  0  0  0  0  0  0
   -7.4738    1.6720   -2.9834 H   0  0  0  0  0  0  0  0  0  0  0  0
   -6.8885   -0.4388   -2.2158 H   0  0  0  0  0  0  0  0  0  0  0  0
   -7.0477   -0.0465   -0.4833 H   0  0  0  0  0  0  0  0  0  0  0  0
   -3.0774    1.8684   -1.3954 H   0  0  0  0  0  0  0  0  0  0  0  0
   -0.6166    2.1945   -1.1717 H   0  0  0  0  0  0  0  0  0  0  0  0
    1.5759    1.3334   -0.6749 H   0  0  0  0  0  0  0  0  0  0  0  0
    3.9521   -1.3872    0.4940 H   0  0  0  0  0  0  0  0  0  0  0  0
    4.9564   -0.5547   -1.2207 H   0  0  0  0  0  0  0  0  0  0  0  0
    4.0916   -0.4587    2.6503 H   0  0  0  0  0  0  0  0  0  0  0  0
    4.8308    1.4194    3.9815 H   0  0  0  0  0  0  0  0  0  0  0  0
    5.0618    3.6557    3.0067 H   0  0  0  0  0  0  0  0  0  0  0  0
    4.5127    3.9512    0.5943 H   0  0  0  0  0  0  0  0  0  0  0  0
    3.7788    2.1218   -0.8009 H   0  0  0  0  0  0  0  0  0  0  0  0
    3.1998   -3.0119    1.0523 H   0  0  0  0  0  0  0  0  0  0  0  0
    0.8342   -4.5070   -0.0091 H   0  0  0  0  0  0  0  0  0  0  0  0
    2.3525   -5.2093    0.7439 H   0  0  0  0  0  0  0  0  0  0  0  0
   -0.3917   -3.0576    0.2331 H   0  0  0  0  0  0  0  0  0  0  0  0
   -2.4831   -2.2131   -0.2595 H   0  0  0  0  0  0  0  0  0  0  0  0
  1  2  1  0
  2  3  1  0
  3  4  1  0
  4  5  2  0
  4  6  1  0
  6  7  2  0
  7  8  1  0
  8  9  2  0
  9 10  1  0
 10 11  2  0
 11 12  1  0
 12 13  1  0
 12 14  1  0
 14 15  2  0
 15 16  1  0
 16 17  2  0
 17 18  1  0
 18 19  2  0
 11 20  1  0
 20 21  1  0
 21 22  2  3
 20 23  2  0
 23 24  1  0
 24 25  2  0
 25  6  1  0
 24  9  1  0
 19 14  1  0
  1 26  1  0
  1 27  1  0
  1 28  1  0
  2 29  1  0
  2 30  1  0
  7 31  1  0
  8 32  1  0
 10 33  1  0
 12 34  1  0
 13 35  1  0
 15 36  1  0
 16 37  1  0
 17 38  1  0
 18 39  1  0
 19 40  1  0
 21 41  1  0
 22 42  1  0
 22 43  1  0
 23 44  1  0
 25 45  1  0
M  END
$$$$
[H]c1nn2c([H])c([H])c(N3C([H])([H])C([H])([H])OC([H])([H])C3([H])[H])nc2c1C(=O)N([H])N=C1C(=O)N([H])c2c([H])c([H])c(C(=O)N([H])[H])c(F)c21
     RDKit          3D

 50 54  0  0  0  0  0  0  0  0999 V2000
    7.1339    2.3186    3.5468 N   0  0  0  0  0  0  0  0  0  0  0  0
    7.6095    1.4641    2.5726 C   0  0  0  0  0  0  0  0  0  0  0  0
    8.8966    1.3832    2.3661 O   0  0  0  0  0  0  0  0  0  0  0  0
    6.8076    0.6118    1.7344 C   0  0  0  0  0  0  0  0  0  0  0  0
    7.3850   -0.3926    1.0265 C   0  0  0  0  0  0  0  0  0  0  0  0
    6.7019   -1.2374    0.1666 C   0  0  0  0  0  0  0  0  0  0  0  0
    5.3269   -1.0526    0.0150 C   0  0  0  0  0  0  0  0  0  0  0  0
    4.3878   -1.7144   -0.7112 N   0  0  0  0  0  0  0  0  0  0  0  0
    3.0734   -1.1218   -0.5008 C   0  0  0  0  0  0  0  0  0  0  0  0
    2.0440   -1.5825   -1.0851 O   0  0  0  0  0  0  0  0  0  0  0  0
    3.2795   -0.0514    0.4131 C   0  0  0  0  0  0  0  0  0  0  0  0
    2.4552    0.8061    0.9316 N   0  0  0  0  0  0  0  0  0  0  0  0
    1.1590    0.7840    0.6184 N   0  0  0  0  0  0  0  0  0  0  0  0
   -0.1476    0.7618    0.3032 C   0  0  0  0  0  0  0  0  0  0  0  0
   -1.1082    0.7443    1.1361 O   0  0  0  0  0  0  0  0  0  0  0  0
   -0.5513    0.7413   -1.1485 C   0  0  0  0  0  0  0  0  0  0  0  0
    0.1959    1.0628   -2.2293 C   0  0  0  0  0  0  0  0  0  0  0  0
   -0.6342    0.9211   -3.3442 N   0  0  0  0  0  0  0  0  0  0  0  0
   -1.7968    0.5402   -2.9311 N   0  0  0  0  0  0  0  0  0  0  0  0
   -2.9446    0.3050   -3.6325 C   0  0  0  0  0  0  0  0  0  0  0  0
   -4.0719   -0.0631   -2.8976 C   0  0  0  0  0  0  0  0  0  0  0  0
   -4.0953   -0.2047   -1.5358 C   0  0  0  0  0  0  0  0  0  0  0  0
   -2.8950    0.0488   -0.8939 N   0  0  0  0  0  0  0  0  0  0  0  0
   -1.8279    0.4040   -1.6109 C   0  0  0  0  0  0  0  0  0  0  0  0
   -5.2173   -0.5696   -0.7820 N   0  0  0  0  0  0  0  0  0  0  0  0
   -6.3785   -1.1835   -1.2851 C   0  0  0  0  0  0  0  0  0  0  0  0
   -7.6414   -0.5896   -0.6800 C   0  0  0  0  0  0  0  0  0  0  0  0
   -7.5494   -0.3863    0.6840 O   0  0  0  0  0  0  0  0  0  0  0  0
   -6.3880   -0.8783    1.2765 C   0  0  0  0  0  0  0  0  0  0  0  0
   -5.1512   -0.2749    0.6485 C   0  0  0  0  0  0  0  0  0  0  0  0
    4.7340   -0.0055    0.7576 C   0  0  0  0  0  0  0  0  0  0  0  0
    5.4262    0.8161    1.5977 C   0  0  0  0  0  0  0  0  0  0  0  0
    4.8500    1.8066    2.2743 F   0  0  0  0  0  0  0  0  0  0  0  0
    7.3857    2.0802    4.5678 H   0  0  0  0  0  0  0  0  0  0  0  0
    6.5561    3.1750    3.4374 H   0  0  0  0  0  0  0  0  0  0  0  0
    8.4711   -0.5829    1.1181 H   0  0  0  0  0  0  0  0  0  0  0  0
    7.2179   -2.0013   -0.3458 H   0  0  0  0  0  0  0  0  0  0  0  0
    4.5024   -2.5487   -1.3773 H   0  0  0  0  0  0  0  0  0  0  0  0
    0.9365    0.6225    1.9859 H   0  0  0  0  0  0  0  0  0  0  0  0
    1.2300    1.3671   -2.2930 H   0  0  0  0  0  0  0  0  0  0  0  0
   -2.9440    0.3927   -4.6928 H   0  0  0  0  0  0  0  0  0  0  0  0
   -5.0114   -0.2339   -3.4419 H   0  0  0  0  0  0  0  0  0  0  0  0
   -6.4754   -0.9896   -2.3761 H   0  0  0  0  0  0  0  0  0  0  0  0
   -6.3632   -2.3093   -1.1801 H   0  0  0  0  0  0  0  0  0  0  0  0
   -7.9049    0.3468   -1.1742 H   0  0  0  0  0  0  0  0  0  0  0  0
   -8.4558   -1.3112   -0.8257 H   0  0  0  0  0  0  0  0  0  0  0  0
   -6.3321   -1.9571    1.3801 H   0  0  0  0  0  0  0  0  0  0  0  0
   -6.3891   -0.4497    2.3316 H   0  0  0  0  0  0  0  0  0  0  0  0
   -5.2483    0.8272    0.8047 H   0  0  0  0  0  0  0  0  0  0  0  0
   -4.2431   -0.6393    1.1441 H   0  0  0  0  0  0  0  0  0  0  0  0
  1  2  1  0
  2  3  2  0
  2  4  1  0
  4  5  2  0
  5  6  1  0
  6  7  2  0
  7  8  1  0
  8  9  1  0
  9 10  2  0
  9 11  1  0
 11 12  2  3
 12 13  1  0
 13 14  1  0
 14 15  2  0
 14 16  1  0
 16 17  1  0
 17 18  2  0
 18 19  1  0
 19 20  1  0
 20 21  2  0
 21 22  1  0
 22 23  2  0
 23 24  1  0
 22 25  1  0
 25 26  1  0
 26 27  1  0
 27 28  1  0
 28 29  1  0
 29 30  1  0
 11 31  1  0
 31 32  2  0
 32 33  1  0
 32  4  1  0
 31  7  1  0
 24 16  2  0
 30 25  1  0
 24 19  1  0
  1 34  1  0
  1 35  1  0
  5 36  1  0
  6 37  1  0
  8 38  1  0
 13 39  1  0
 17 40  1  0
 20 41  1  0
 21 42  1  0
 26 43  1  0
 26 44  1  0
 27 45  1  0
 27 46  1  0
 29 47  1  0
 29 48  1  0
 30 49  1  0
 30 50  1  0
M  END
$$$$
[H]c1nc([H])c2c([H])c([H])c([H])c(N([H])C(=O)N([H])c3c([H])c([H])c([H])c(C([H])([H])[H])c3[H])c2c1[H]
     RDKit          3D

 36 38  0  0  0  0  0  0  0  0999 V2000
    5.3017    1.9031   -0.3955 C   0  0  0  0  0  0  0  0  0  0  0  0
    4.6898    0.6102   -0.0272 C   0  0  0  0  0  0  0  0  0  0  0  0
    5.5108   -0.4597    0.1985 C   0  0  0  0  0  0  0  0  0  0  0  0
    4.9215   -1.6489    0.5387 C   0  0  0  0  0  0  0  0  0  0  0  0
    3.5695   -1.8014    0.6580 C   0  0  0  0  0  0  0  0  0  0  0  0
    2.6905   -0.7225    0.4331 C   0  0  0  0  0  0  0  0  0  0  0  0
    1.3210   -0.9346    0.5908 N   0  0  0  0  0  0  0  0  0  0  0  0
    0.2723   -0.1218    0.0980 C   0  0  0  0  0  0  0  0  0  0  0  0
    0.5679    0.8788   -0.5451 O   0  0  0  0  0  0  0  0  0  0  0  0
   -1.0784   -0.4715    0.3516 N   0  0  0  0  0  0  0  0  0  0  0  0
   -2.2005    0.2569   -0.0788 C   0  0  0  0  0  0  0  0  0  0  0  0
   -2.1634    1.4924   -0.6686 C   0  0  0  0  0  0  0  0  0  0  0  0
   -3.3042    2.2064   -1.0604 C   0  0  0  0  0  0  0  0  0  0  0  0
   -4.5096    1.6165   -0.8306 C   0  0  0  0  0  0  0  0  0  0  0  0
   -4.6383    0.3778   -0.2432 C   0  0  0  0  0  0  0  0  0  0  0  0
   -5.9067   -0.1692   -0.0415 C   0  0  0  0  0  0  0  0  0  0  0  0
   -6.0283   -1.3732    0.5243 N   0  0  0  0  0  0  0  0  0  0  0  0
   -4.9404   -2.0265    0.8836 C   0  0  0  0  0  0  0  0  0  0  0  0
   -3.6490   -1.5191    0.7018 C   0  0  0  0  0  0  0  0  0  0  0  0
   -3.4932   -0.2908    0.1267 C   0  0  0  0  0  0  0  0  0  0  0  0
    3.3083    0.4511    0.0958 C   0  0  0  0  0  0  0  0  0  0  0  0
    4.5220    2.6682   -0.6010 H   0  0  0  0  0  0  0  0  0  0  0  0
    5.9576    1.7467   -1.2936 H   0  0  0  0  0  0  0  0  0  0  0  0
    5.9538    2.2754    0.4175 H   0  0  0  0  0  0  0  0  0  0  0  0
    6.5912   -0.4084    0.1210 H   0  0  0  0  0  0  0  0  0  0  0  0
    5.5649   -2.5192    0.7240 H   0  0  0  0  0  0  0  0  0  0  0  0
    3.1012   -2.7497    0.9280 H   0  0  0  0  0  0  0  0  0  0  0  0
    1.0127   -1.7932    1.1419 H   0  0  0  0  0  0  0  0  0  0  0  0
   -1.2479   -1.3578    0.9288 H   0  0  0  0  0  0  0  0  0  0  0  0
   -1.2136    1.9788   -0.8486 H   0  0  0  0  0  0  0  0  0  0  0  0
   -3.1573    3.1636   -1.5125 H   0  0  0  0  0  0  0  0  0  0  0  0
   -5.4065    2.1476   -1.1240 H   0  0  0  0  0  0  0  0  0  0  0  0
   -6.7738    0.3961   -0.3492 H   0  0  0  0  0  0  0  0  0  0  0  0
   -5.0369   -3.0169    1.3489 H   0  0  0  0  0  0  0  0  0  0  0  0
   -2.8391   -2.1257    1.0205 H   0  0  0  0  0  0  0  0  0  0  0  0
    2.7302    1.3405   -0.0833 H   0  0  0  0  0  0  0  0  0  0  0  0
  1  2  1  0
  2  3  2  0
  3  4  1  0
  4  5  2  0
  5  6  1  0
  6  7  1  0
  7  8  1  0
  8  9  2  0
  8 10  1  0
 10 11  1  0
 11 12  2  0
 12 13  1  0
 13 14  2  0
 14 15  1  0
 15 16  2  0
 16 17  1  0
 17 18  2  0
 18 19  1  0
 19 20  2  0
  6 21  2  0
 21  2  1  0
 20 11  1  0
 20 15  1  0
  1 22  1  0
  1 23  1  0
  1 24  1  0
  3 25  1  0
  4 26  1  0
  5 27  1  0
  7 28  1  0
 10 29  1  0
 12 30  1  0
 13 31  1  0
 14 32  1  0
 16 33  1  0
 18 34  1  0
 19 35  1  0
 21 36  1  0
M  END
$$$$
[H]Oc1c([H])c([H])c(/C(=C(\c2c([H])c([H])c(OC([H])([H])C([H])([H])N([H])[H])c([H])c2[H])c2c([H])c([H])c(O[H])c(F)c2[H])C([H])([H])[H])c([H])c1[H]
     RDKit          3D

 50 52  0  0  0  0  0  0  0  0999 V2000
   -3.9977    0.0223    0.3307 C   0  0  0  0  0  0  0  0  0  0  0  0
   -2.5538   -0.3676    0.2434 C   0  0  0  0  0  0  0  0  0  0  0  0
   -1.6020    0.5303    0.2217 C   0  0  0  0  0  0  0  0  0  0  0  0
   -1.9350    1.9789    0.2706 C   0  0  0  0  0  0  0  0  0  0  0  0
   -1.2862    2.7806    1.1967 C   0  0  0  0  0  0  0  0  0  0  0  0
   -1.5077    4.1315    1.2676 C   0  0  0  0  0  0  0  0  0  0  0  0
   -2.4118    4.7261    0.3854 C   0  0  0  0  0  0  0  0  0  0  0  0
   -2.6147    6.0880    0.4799 O   0  0  0  0  0  0  0  0  0  0  0  0
   -3.0568    3.9590   -0.5287 C   0  0  0  0  0  0  0  0  0  0  0  0
   -3.9532    4.5028   -1.4134 F   0  0  0  0  0  0  0  0  0  0  0  0
   -2.8092    2.5791   -0.5777 C   0  0  0  0  0  0  0  0  0  0  0  0
   -0.1609    0.2102    0.2319 C   0  0  0  0  0  0  0  0  0  0  0  0
    0.6506    0.8237   -0.6768 C   0  0  0  0  0  0  0  0  0  0  0  0
    2.0023    0.5604   -0.6325 C   0  0  0  0  0  0  0  0  0  0  0  0
    2.5752   -0.2896    0.2811 C   0  0  0  0  0  0  0  0  0  0  0  0
    3.9303   -0.5777    0.3539 O   0  0  0  0  0  0  0  0  0  0  0  0
    4.9302   -0.0726   -0.4697 C   0  0  0  0  0  0  0  0  0  0  0  0
    6.2819   -0.6405   -0.0553 C   0  0  0  0  0  0  0  0  0  0  0  0
    7.3669   -0.1657   -0.8572 N   0  0  0  0  0  0  0  0  0  0  0  0
    1.7288   -0.9120    1.2075 C   0  0  0  0  0  0  0  0  0  0  0  0
    0.3501   -0.6464    1.1664 C   0  0  0  0  0  0  0  0  0  0  0  0
   -2.2245   -1.8000    0.1128 C   0  0  0  0  0  0  0  0  0  0  0  0
   -2.7579   -2.7095    1.0047 C   0  0  0  0  0  0  0  0  0  0  0  0
   -2.5300   -4.0765    0.9296 C   0  0  0  0  0  0  0  0  0  0  0  0
   -1.7239   -4.5023   -0.1038 C   0  0  0  0  0  0  0  0  0  0  0  0
   -1.4426   -5.8692   -0.2494 O   0  0  0  0  0  0  0  0  0  0  0  0
   -1.1769   -3.6290   -1.0090 C   0  0  0  0  0  0  0  0  0  0  0  0
   -1.4289   -2.2750   -0.8999 C   0  0  0  0  0  0  0  0  0  0  0  0
   -4.5475   -0.7559    0.9667 H   0  0  0  0  0  0  0  0  0  0  0  0
   -4.4666    0.0849   -0.6612 H   0  0  0  0  0  0  0  0  0  0  0  0
   -4.1808    0.9534    0.8823 H   0  0  0  0  0  0  0  0  0  0  0  0
   -0.5926    2.2849    1.8631 H   0  0  0  0  0  0  0  0  0  0  0  0
   -0.9932    4.7192    1.9887 H   0  0  0  0  0  0  0  0  0  0  0  0
   -3.2450    6.5951   -0.1149 H   0  0  0  0  0  0  0  0  0  0  0  0
   -3.3273    1.9860   -1.3274 H   0  0  0  0  0  0  0  0  0  0  0  0
    0.2054    1.4926   -1.3993 H   0  0  0  0  0  0  0  0  0  0  0  0
    2.6781    1.0272   -1.3374 H   0  0  0  0  0  0  0  0  0  0  0  0
    4.9172    1.0338   -0.3787 H   0  0  0  0  0  0  0  0  0  0  0  0
    4.7799   -0.3158   -1.5336 H   0  0  0  0  0  0  0  0  0  0  0  0
    6.4564   -0.2725    0.9974 H   0  0  0  0  0  0  0  0  0  0  0  0
    6.2283   -1.7385   -0.0377 H   0  0  0  0  0  0  0  0  0  0  0  0
    8.1071    0.3374   -0.3434 H   0  0  0  0  0  0  0  0  0  0  0  0
    7.1278    0.2060   -1.7836 H   0  0  0  0  0  0  0  0  0  0  0  0
    2.1559   -1.5840    1.9353 H   0  0  0  0  0  0  0  0  0  0  0  0
   -0.2541   -1.1500    1.9132 H   0  0  0  0  0  0  0  0  0  0  0  0
   -3.3981   -2.3893    1.8285 H   0  0  0  0  0  0  0  0  0  0  0  0
   -2.9616   -4.7669    1.6435 H   0  0  0  0  0  0  0  0  0  0  0  0
   -1.8089   -6.5611    0.3761 H   0  0  0  0  0  0  0  0  0  0  0  0
   -0.5358   -3.9539   -1.8349 H   0  0  0  0  0  0  0  0  0  0  0  0
   -0.9871   -1.5917   -1.6455 H   0  0  0  0  0  0  0  0  0  0  0  0
  1  2  1  0
  2  3  2  0
  3  4  1  0
  4  5  2  0
  5  6  1  0
  6  7  2  0
  7  8  1  0
  7  9  1  0
  9 10  1  0
  9 11  2  0
  3 12  1  0
 12 13  2  0
 13 14  1  0
 14 15  2  0
 15 16  1  0
 16 17  1  0
 17 18  1  0
 18 19  1  0
 15 20  1  0
 20 21  2  0
  2 22  1  0
 22 23  2  0
 23 24  1  0
 24 25  2  0
 25 26  1  0
 25 27  1  0
 27 28  2  0
 11  4  1  0
 21 12  1  0
 28 22  1  0
  1 29  1  0
  1 30  1  0
  1 31  1  0
  5 32  1  0
  6 33  1  0
  8 34  1  0
 11 35  1  0
 13 36  1  0
 14 37  1  0
 17 38  1  0
 17 39  1  0
 18 40  1  0
 18 41  1  0
 19 42  1  0
 19 43  1  0
 20 44  1  0
 21 45  1  0
 23 46  1  0
 24 47  1  0
 26 48  1  0
 27 49  1  0
 28 50  1  0
M  END
$$$$
[H]/C(C(=O)OC([H])([H])C1([H])C2(C([H])([H])[H])[C@@]1([H])C([H])([H])C([H])([H])[C@]2([H])[C@]([H])(C([H])([H])C(=O)OC(C([H])([H])[H])(C([H])([H])[H])C([H])([H])[H])C([H])([H])C([H])(C([H])([H])[H])C([H])([H])[H])=C(/[H])c1c([H])c([H])c(Cl)c([H])c1[H]
     RDKit          3D

 72 74  0  0  0  0  0  0  0  0999 V2000
   -2.7273   -2.3667   -1.8771 C   0  0  0  0  0  0  0  0  0  0  0  0
   -2.3643   -2.1112   -0.4443 C   0  0  0  0  0  0  0  0  0  0  0  0
   -3.4380   -2.5460    0.5132 C   0  0  0  0  0  0  0  0  0  0  0  0
   -1.6238   -0.8989   -0.1352 C   0  0  0  0  0  0  0  0  0  0  0  0
   -1.9724    0.4812   -0.3385 C   0  0  1  0  0  0  0  0  0  0  0  0
   -3.1507    1.0603    0.3245 C   0  0  0  0  0  0  0  0  0  0  0  0
   -4.5082    0.6673    0.0458 C   0  0  0  0  0  0  0  0  0  0  0  0
   -5.0120    0.1324   -0.9550 O   0  0  0  0  0  0  0  0  0  0  0  0
   -5.4471    0.9311    1.0832 O   0  0  0  0  0  0  0  0  0  0  0  0
   -6.7976    0.6041    0.9442 C   0  0  0  0  0  0  0  0  0  0  0  0
   -7.4424    1.3020   -0.2237 C   0  0  0  0  0  0  0  0  0  0  0  0
   -7.5427    1.0684    2.2010 C   0  0  0  0  0  0  0  0  0  0  0  0
   -6.9473   -0.8871    0.8919 C   0  0  0  0  0  0  0  0  0  0  0  0
   -0.7977    1.4375   -0.0633 C   0  0  1  0  0  0  0  0  0  0  0  0
   -0.2759    1.3619    1.3220 C   0  0  0  0  0  0  0  0  0  0  0  0
    0.9770    2.2044    1.2000 C   0  0  0  0  0  0  0  0  0  0  0  0
    1.4998    1.9552   -0.2065 C   0  0  1  0  0  0  0  0  0  0  0  0
    1.5738    0.5230   -0.5800 C   0  0  0  0  0  0  0  0  0  0  0  0
    2.6125    0.0248   -1.4856 C   0  0  0  0  0  0  0  0  0  0  0  0
    3.8979    0.1301   -1.0737 O   0  0  0  0  0  0  0  0  0  0  0  0
    4.8120    1.0426   -0.7789 C   0  0  0  0  0  0  0  0  0  0  0  0
    4.5287    2.2554   -0.8773 O   0  0  0  0  0  0  0  0  0  0  0  0
    6.1923    0.7235   -0.3258 C   0  0  0  0  0  0  0  0  0  0  0  0
    6.5866   -0.5256   -0.1907 C   0  0  0  0  0  0  0  0  0  0  0  0
    7.9149   -0.9346    0.2458 C   0  0  0  0  0  0  0  0  0  0  0  0
    8.1897   -2.2822    0.3428 C   0  0  0  0  0  0  0  0  0  0  0  0
    9.4181   -2.7599    0.7469 C   0  0  0  0  0  0  0  0  0  0  0  0
   10.4317   -1.8822    1.0731 C   0  0  0  0  0  0  0  0  0  0  0  0
   12.0195   -2.4411    1.5938 Cl  0  0  0  0  0  0  0  0  0  0  0  0
   10.1635   -0.5333    0.9781 C   0  0  0  0  0  0  0  0  0  0  0  0
    8.9148   -0.0569    0.5676 C   0  0  0  0  0  0  0  0  0  0  0  0
    0.3631    1.2319   -0.9592 C   0  0  0  0  0  0  0  0  0  0  0  0
    0.1158    1.7084   -2.3773 C   0  0  0  0  0  0  0  0  0  0  0  0
   -2.7189   -3.4869   -2.0337 H   0  0  0  0  0  0  0  0  0  0  0  0
   -1.8863   -2.0001   -2.5154 H   0  0  0  0  0  0  0  0  0  0  0  0
   -3.7078   -2.0417   -2.1995 H   0  0  0  0  0  0  0  0  0  0  0  0
   -1.5515   -2.9654   -0.2669 H   0  0  0  0  0  0  0  0  0  0  0  0
   -3.4605   -1.9517    1.4464 H   0  0  0  0  0  0  0  0  0  0  0  0
   -4.4399   -2.5428   -0.0103 H   0  0  0  0  0  0  0  0  0  0  0  0
   -3.3046   -3.6001    0.8177 H   0  0  0  0  0  0  0  0  0  0  0  0
   -0.6040   -1.0339   -0.7135 H   0  0  0  0  0  0  0  0  0  0  0  0
   -1.2907   -1.0287    0.9767 H   0  0  0  0  0  0  0  0  0  0  0  0
   -2.1566    0.6460   -1.4737 H   0  0  0  0  0  0  0  0  0  0  0  0
   -2.9870    1.0666    1.4668 H   0  0  0  0  0  0  0  0  0  0  0  0
   -3.1517    2.2139    0.1594 H   0  0  0  0  0  0  0  0  0  0  0  0
   -8.3546    1.8647    0.0637 H   0  0  0  0  0  0  0  0  0  0  0  0
   -6.7544    2.0739   -0.6645 H   0  0  0  0  0  0  0  0  0  0  0  0
   -7.6405    0.5519   -1.0174 H   0  0  0  0  0  0  0  0  0  0  0  0
   -8.5879    1.2572    1.8991 H   0  0  0  0  0  0  0  0  0  0  0  0
   -7.0873    2.0124    2.5221 H   0  0  0  0  0  0  0  0  0  0  0  0
   -7.5271    0.2728    2.9841 H   0  0  0  0  0  0  0  0  0  0  0  0
   -6.8453   -1.3054   -0.1344 H   0  0  0  0  0  0  0  0  0  0  0  0
   -6.1912   -1.3987    1.5196 H   0  0  0  0  0  0  0  0  0  0  0  0
   -7.9391   -1.2234    1.2977 H   0  0  0  0  0  0  0  0  0  0  0  0
   -1.1992    2.4565   -0.2354 H   0  0  0  0  0  0  0  0  0  0  0  0
    0.0306    0.3715    1.6624 H   0  0  0  0  0  0  0  0  0  0  0  0
   -0.9662    1.7699    2.0891 H   0  0  0  0  0  0  0  0  0  0  0  0
    0.6376    3.2756    1.2086 H   0  0  0  0  0  0  0  0  0  0  0  0
    1.7268    1.9853    1.9672 H   0  0  0  0  0  0  0  0  0  0  0  0
    1.9378    2.7972   -0.7434 H   0  0  0  0  0  0  0  0  0  0  0  0
    1.4086   -0.2348    0.2906 H   0  0  0  0  0  0  0  0  0  0  0  0
    2.4123   -1.0896   -1.6545 H   0  0  0  0  0  0  0  0  0  0  0  0
    2.5566    0.5103   -2.5165 H   0  0  0  0  0  0  0  0  0  0  0  0
    6.8864    1.5163   -0.1024 H   0  0  0  0  0  0  0  0  0  0  0  0
    5.8164   -1.2730   -0.4388 H   0  0  0  0  0  0  0  0  0  0  0  0
    7.3992   -2.9989    0.0886 H   0  0  0  0  0  0  0  0  0  0  0  0
    9.6398   -3.8138    0.8253 H   0  0  0  0  0  0  0  0  0  0  0  0
   10.9711    0.1434    1.2385 H   0  0  0  0  0  0  0  0  0  0  0  0
    8.7463    1.0003    0.5067 H   0  0  0  0  0  0  0  0  0  0  0  0
   -0.3803    2.7002   -2.2905 H   0  0  0  0  0  0  0  0  0  0  0  0
   -0.6282    1.0310   -2.8288 H   0  0  0  0  0  0  0  0  0  0  0  0
    1.0275    1.8521   -2.9535 H   0  0  0  0  0  0  0  0  0  0  0  0
  1  2  1  0
  2  3  1  0
  2  4  1  0
  4  5  1  0
  5  6  1  0
  6  7  1  0
  7  8  2  0
  7  9  1  0
  9 10  1  0
 10 11  1  0
 10 12  1  0
 10 13  1  0
  5 14  1  0
 14 15  1  0
 15 16  1  0
 16 17  1  0
 17 18  1  0
 18 19  1  0
 19 20  1  0
 20 21  1  0
 21 22  2  0
 21 23  1  0
 23 24  2  0
 24 25  1  0
 25 26  2  0
 26 27  1  0
 27 28  2  0
 28 29  1  0
 28 30  1  0
 30 31  2  0
 18 32  1  0
 32 33  1  0
 32 14  1  0
 32 17  1  0
 31 25  1  0
  1 34  1  0
  1 35  1  0
  1 36  1  0
  2 37  1  0
  3 38  1  0
  3 39  1  0
  3 40  1  0
  4 41  1  0
  4 42  1  0
  5 43  1  6
  6 44  1  0
  6 45  1  0
 11 46  1  0
 11 47  1  0
 11 48  1  0
 12 49  1  0
 12 50  1  0
 12 51  1  0
 13 52  1  0
 13 53  1  0
 13 54  1  0
 14 55  1  6
 15 56  1  0
 15 57  1  0
 16 58  1  0
 16 59  1  0
 17 60  1  6
 18 61  1  0
 19 62  1  0
 19 63  1  0
 23 64  1  0
 24 65  1  0
 26 66  1  0
 27 67  1  0
 30 68  1  0
 31 69  1  0
 33 70  1  0
 33 71  1  0
 33 72  1  0
M  END
$$$$
[H]N=C(N([H])[H])N([H])C([H])([H])C([H])([H])C([H])([H])[C@@]([H])(C(=O)N([H])C([H])([H])C([H])([H])C(=O)N([H])[H])N([H])C(=O)[C@@]([H])(N([H])C(=O)[C@@]1([H])N(C(=O)C([H])([H])[H])C([H])([H])C([H])([H])C1([H])[H])C([H])([H])C1([H])C([H])([H])C([H])([H])C([H])([H])C([H])([H])C1([H])[H]
     RDKit          3D

 82 83  0  0  0  0  0  0  0  0999 V2000
    6.1750    4.1044   -0.5918 C   0  0  0  0  0  0  0  0  0  0  0  0
    5.5472    2.8782   -0.0222 C   0  0  0  0  0  0  0  0  0  0  0  0
    5.8025    1.7800   -0.5663 O   0  0  0  0  0  0  0  0  0  0  0  0
    4.6975    3.0122    1.0933 N   0  0  0  0  0  0  0  0  0  0  0  0
    4.3736    4.2486    1.7740 C   0  0  0  0  0  0  0  0  0  0  0  0
    4.0754    3.7623    3.2022 C   0  0  0  0  0  0  0  0  0  0  0  0
    3.2361    2.5390    2.9130 C   0  0  0  0  0  0  0  0  0  0  0  0
    4.0008    1.9193    1.7354 C   0  0  1  0  0  0  0  0  0  0  0  0
    3.0362    1.2714    0.7964 C   0  0  0  0  0  0  0  0  0  0  0  0
    2.9418    1.7567   -0.3762 O   0  0  0  0  0  0  0  0  0  0  0  0
    2.2607    0.1629    1.2066 N   0  0  0  0  0  0  0  0  0  0  0  0
    1.3176   -0.4172    0.2251 C   0  0  1  0  0  0  0  0  0  0  0  0
    1.6200   -1.8927    0.1029 C   0  0  0  0  0  0  0  0  0  0  0  0
    3.0001   -2.2049   -0.3511 C   0  0  0  0  0  0  0  0  0  0  0  0
    3.4004   -1.6973   -1.6787 C   0  0  0  0  0  0  0  0  0  0  0  0
    4.3903   -2.6545   -2.3088 C   0  0  0  0  0  0  0  0  0  0  0  0
    3.8516   -4.0107   -2.5958 C   0  0  0  0  0  0  0  0  0  0  0  0
    2.9151   -4.4397   -1.5217 C   0  0  0  0  0  0  0  0  0  0  0  0
    3.2377   -3.6895   -0.2550 C   0  0  0  0  0  0  0  0  0  0  0  0
   -0.0711   -0.2694    0.7361 C   0  0  0  0  0  0  0  0  0  0  0  0
   -0.1692    0.0822    1.9674 O   0  0  0  0  0  0  0  0  0  0  0  0
   -1.2250   -0.4806   -0.0233 N   0  0  0  0  0  0  0  0  0  0  0  0
   -2.5694   -0.3231    0.5659 C   0  0  1  0  0  0  0  0  0  0  0  0
   -2.9891    1.1080    0.2888 C   0  0  0  0  0  0  0  0  0  0  0  0
   -4.3324    1.4547    0.8042 C   0  0  0  0  0  0  0  0  0  0  0  0
   -4.6277    2.9461    0.5421 C   0  0  0  0  0  0  0  0  0  0  0  0
   -4.5934    3.2561   -0.8717 N   0  0  0  0  0  0  0  0  0  0  0  0
   -4.8305    4.5682   -1.3066 C   0  0  0  0  0  0  0  0  0  0  0  0
   -5.6381    5.5018   -0.5876 N   0  0  0  0  0  0  0  0  0  0  0  0
   -4.3139    5.0176   -2.4130 N   0  0  0  0  0  0  0  0  0  0  0  0
   -3.4867   -1.3215   -0.0006 C   0  0  0  0  0  0  0  0  0  0  0  0
   -3.1033   -2.0228   -1.0213 O   0  0  0  0  0  0  0  0  0  0  0  0
   -4.7701   -1.5838    0.4888 N   0  0  0  0  0  0  0  0  0  0  0  0
   -5.6366   -2.5771   -0.1012 C   0  0  0  0  0  0  0  0  0  0  0  0
   -5.0938   -3.9810   -0.0476 C   0  0  0  0  0  0  0  0  0  0  0  0
   -6.1119   -4.8717   -0.6654 C   0  0  0  0  0  0  0  0  0  0  0  0
   -5.8406   -6.2460   -0.8383 N   0  0  0  0  0  0  0  0  0  0  0  0
   -7.2288   -4.4377   -1.0478 O   0  0  0  0  0  0  0  0  0  0  0  0
    6.2336    4.0742   -1.6802 H   0  0  0  0  0  0  0  0  0  0  0  0
    7.2041    4.1579   -0.1439 H   0  0  0  0  0  0  0  0  0  0  0  0
    5.6095    5.0223   -0.2553 H   0  0  0  0  0  0  0  0  0  0  0  0
    5.2209    4.9260    1.8734 H   0  0  0  0  0  0  0  0  0  0  0  0
    3.4599    4.7380    1.4130 H   0  0  0  0  0  0  0  0  0  0  0  0
    3.5660    4.5031    3.8102 H   0  0  0  0  0  0  0  0  0  0  0  0
    5.0242    3.3904    3.6572 H   0  0  0  0  0  0  0  0  0  0  0  0
    2.2146    2.8547    2.6045 H   0  0  0  0  0  0  0  0  0  0  0  0
    3.2366    1.8077    3.7505 H   0  0  0  0  0  0  0  0  0  0  0  0
    4.7058    1.2057    2.1476 H   0  0  0  0  0  0  0  0  0  0  0  0
    2.3713   -0.2014    2.1642 H   0  0  0  0  0  0  0  0  0  0  0  0
    1.4051    0.1626   -0.6818 H   0  0  0  0  0  0  0  0  0  0  0  0
    1.5017   -2.3295    1.1183 H   0  0  0  0  0  0  0  0  0  0  0  0
    0.8665   -2.3919   -0.5346 H   0  0  0  0  0  0  0  0  0  0  0  0
    3.7449   -1.7534    0.3863 H   0  0  0  0  0  0  0  0  0  0  0  0
    3.9641   -0.7163   -1.6248 H   0  0  0  0  0  0  0  0  0  0  0  0
    2.5736   -1.5911   -2.4114 H   0  0  0  0  0  0  0  0  0  0  0  0
    4.7960   -2.1751   -3.2349 H   0  0  0  0  0  0  0  0  0  0  0  0
    5.2698   -2.7189   -1.6066 H   0  0  0  0  0  0  0  0  0  0  0  0
    3.3925   -4.0444   -3.6132 H   0  0  0  0  0  0  0  0  0  0  0  0
    4.7236   -4.7295   -2.6031 H   0  0  0  0  0  0  0  0  0  0  0  0
    3.1152   -5.5201   -1.2766 H   0  0  0  0  0  0  0  0  0  0  0  0
    1.8466   -4.3862   -1.8160 H   0  0  0  0  0  0  0  0  0  0  0  0
    4.2978   -3.9288   -0.0111 H   0  0  0  0  0  0  0  0  0  0  0  0
    2.6419   -4.1582    0.5624 H   0  0  0  0  0  0  0  0  0  0  0  0
   -1.1843   -0.7497   -1.0100 H   0  0  0  0  0  0  0  0  0  0  0  0
   -2.5324   -0.4091    1.6658 H   0  0  0  0  0  0  0  0  0  0  0  0
   -2.2526    1.7635    0.8349 H   0  0  0  0  0  0  0  0  0  0  0  0
   -2.9028    1.3677   -0.7814 H   0  0  0  0  0  0  0  0  0  0  0  0
   -4.5162    1.3037    1.8601 H   0  0  0  0  0  0  0  0  0  0  0  0
   -5.1527    0.9482    0.2014 H   0  0  0  0  0  0  0  0  0  0  0  0
   -5.6527    3.1281    0.9093 H   0  0  0  0  0  0  0  0  0  0  0  0
   -3.8874    3.5364    1.1213 H   0  0  0  0  0  0  0  0  0  0  0  0
   -4.3929    2.5106   -1.5671 H   0  0  0  0  0  0  0  0  0  0  0  0
   -5.2537    6.4459   -0.3982 H   0  0  0  0  0  0  0  0  0  0  0  0
   -6.5876    5.2661   -0.2520 H   0  0  0  0  0  0  0  0  0  0  0  0
   -3.7036    4.3813   -2.9935 H   0  0  0  0  0  0  0  0  0  0  0  0
   -5.1331   -1.0704    1.3173 H   0  0  0  0  0  0  0  0  0  0  0  0
   -6.6322   -2.5870    0.4074 H   0  0  0  0  0  0  0  0  0  0  0  0
   -5.8341   -2.3317   -1.1812 H   0  0  0  0  0  0  0  0  0  0  0  0
   -4.9685   -4.3093    1.0177 H   0  0  0  0  0  0  0  0  0  0  0  0
   -4.1505   -4.1322   -0.6034 H   0  0  0  0  0  0  0  0  0  0  0  0
   -5.0608   -6.5656   -1.4434 H   0  0  0  0  0  0  0  0  0  0  0  0
   -6.4355   -6.9426   -0.3494 H   0  0  0  0  0  0  0  0  0  0  0  0
  1  2  1  0
  2  3  2  0
  2  4  1  0
  4  5  1  0
  5  6  1  0
  6  7  1  0
  7  8  1  0
  8  9  1  0
  9 10  2  0
  9 11  1  0
 11 12  1  0
 12 13  1  0
 13 14  1  0
 14 15  1  0
 15 16  1  0
 16 17  1  0
 17 18  1  0
 18 19  1  0
 12 20  1  0
 20 21  2  0
 20 22  1  0
 22 23  1  0
 23 24  1  0
 24 25  1  0
 25 26  1  0
 26 27  1  0
 27 28  1  0
 28 29  1  0
 28 30  2  3
 23 31  1  0
 31 32  2  0
 31 33  1  0
 33 34  1  0
 34 35  1  0
 35 36  1  0
 36 37  1  0
 36 38  2  0
  8  4  1  0
 19 14  1  0
  1 39  1  0
  1 40  1  0
  1 41  1  0
  5 42  1  0
  5 43  1  0
  6 44  1  0
  6 45  1  0
  7 46  1  0
  7 47  1  0
  8 48  1  1
 11 49  1  0
 12 50  1  6
 13 51  1  0
 13 52  1  0
 14 53  1  0
 15 54  1  0
 15 55  1  0
 16 56  1  0
 16 57  1  0
 17 58  1  0
 17 59  1  0
 18 60  1  0
 18 61  1  0
 19 62  1  0
 19 63  1  0
 22 64  1  0
 23 65  1  1
 24 66  1  0
 24 67  1  0
 25 68  1  0
 25 69  1  0
 26 70  1  0
 26 71  1  0
 27 72  1  0
 29 73  1  0
 29 74  1  0
 30 75  1  0
 33 76  1  0
 34 77  1  0
 34 78  1  0
 35 79  1  0
 35 80  1  0
 37 81  1  0
 37 82  1  0
M  END
$$$$
[H]OC1(C(=O)N2C([H])([H])C([H])([H])C([H])(N([H])C(=O)N([H])C34C([H])([H])C5([H])C([H])([H])C([H])(C([H])([H])C([H])(C5([H])[H])C3([H])[H])C4([H])[H])C([H])([H])C2([H])[H])C([H])([H])C([H])=C([H])C1([H])[H]
     RDKit          3D

 61 65  0  0  0  0  0  0  0  0999 V2000
    5.7326    1.4628   -0.5609 O   0  0  0  0  0  0  0  0  0  0  0  0
    6.1844    0.2742   -0.0796 C   0  0  0  0  0  0  0  0  0  0  0  0
    7.2665   -0.2134   -1.0611 C   0  0  0  0  0  0  0  0  0  0  0  0
    8.5054    0.3361   -0.5091 C   0  0  0  0  0  0  0  0  0  0  0  0
    8.3152    0.6796    0.7515 C   0  0  0  0  0  0  0  0  0  0  0  0
    6.9445    0.4191    1.2324 C   0  0  0  0  0  0  0  0  0  0  0  0
    5.2198   -0.8187    0.0271 C   0  0  0  0  0  0  0  0  0  0  0  0
    5.6765   -1.9184    0.5315 O   0  0  0  0  0  0  0  0  0  0  0  0
    3.8853   -0.7194   -0.3780 N   0  0  0  0  0  0  0  0  0  0  0  0
    3.3161    0.4400   -0.9442 C   0  0  0  0  0  0  0  0  0  0  0  0
    1.8823    0.2679   -1.3966 C   0  0  0  0  0  0  0  0  0  0  0  0
    1.0456   -0.5957   -0.5287 C   0  0  0  0  0  0  0  0  0  0  0  0
    1.7952   -1.3674    0.5205 C   0  0  0  0  0  0  0  0  0  0  0  0
    3.0438   -1.9198   -0.1857 C   0  0  0  0  0  0  0  0  0  0  0  0
   -0.0061    0.1454    0.1620 N   0  0  0  0  0  0  0  0  0  0  0  0
   -1.3649   -0.1706   -0.0768 C   0  0  0  0  0  0  0  0  0  0  0  0
   -1.6524   -1.0816   -0.8766 O   0  0  0  0  0  0  0  0  0  0  0  0
   -2.3737    0.5451    0.5893 N   0  0  0  0  0  0  0  0  0  0  0  0
   -3.7837    0.3424    0.4436 C   0  0  0  0  0  0  0  0  0  0  0  0
   -4.1953    0.6058   -0.9762 C   0  0  0  0  0  0  0  0  0  0  0  0
   -5.7015    0.4777   -1.0797 C   0  0  0  0  0  0  0  0  0  0  0  0
   -6.3324    1.5068   -0.1986 C   0  0  0  0  0  0  0  0  0  0  0  0
   -6.0018    1.1599    1.2426 C   0  0  0  0  0  0  0  0  0  0  0  0
   -6.4497   -0.2299    1.5847 C   0  0  0  0  0  0  0  0  0  0  0  0
   -5.6839   -1.1899    0.7069 C   0  0  0  0  0  0  0  0  0  0  0  0
   -6.0865   -0.9351   -0.7175 C   0  0  0  0  0  0  0  0  0  0  0  0
   -4.1998   -1.0586    0.8471 C   0  0  0  0  0  0  0  0  0  0  0  0
   -4.5044    1.2901    1.3846 C   0  0  0  0  0  0  0  0  0  0  0  0
    6.0094    2.2633   -0.0458 H   0  0  0  0  0  0  0  0  0  0  0  0
    7.0383    0.0607   -2.0903 H   0  0  0  0  0  0  0  0  0  0  0  0
    7.3103   -1.3428   -1.0491 H   0  0  0  0  0  0  0  0  0  0  0  0
    9.4326    0.4289   -1.0986 H   0  0  0  0  0  0  0  0  0  0  0  0
    9.1042    1.1125    1.3639 H   0  0  0  0  0  0  0  0  0  0  0  0
    6.5390    1.2184    1.8687 H   0  0  0  0  0  0  0  0  0  0  0  0
    6.8638   -0.5678    1.7647 H   0  0  0  0  0  0  0  0  0  0  0  0
    3.8891    0.7145   -1.8665 H   0  0  0  0  0  0  0  0  0  0  0  0
    3.3564    1.3309   -0.2798 H   0  0  0  0  0  0  0  0  0  0  0  0
    1.8889   -0.0828   -2.4700 H   0  0  0  0  0  0  0  0  0  0  0  0
    1.4285    1.2801   -1.4414 H   0  0  0  0  0  0  0  0  0  0  0  0
    0.5669   -1.3749   -1.1957 H   0  0  0  0  0  0  0  0  0  0  0  0
    2.1863   -0.6771    1.3123 H   0  0  0  0  0  0  0  0  0  0  0  0
    1.1569   -2.1575    0.9114 H   0  0  0  0  0  0  0  0  0  0  0  0
    2.7186   -2.2452   -1.1726 H   0  0  0  0  0  0  0  0  0  0  0  0
    3.5420   -2.6823    0.4075 H   0  0  0  0  0  0  0  0  0  0  0  0
    0.3119    0.8904    0.8134 H   0  0  0  0  0  0  0  0  0  0  0  0
   -2.0516    1.3015    1.2575 H   0  0  0  0  0  0  0  0  0  0  0  0
   -3.9348    1.6781   -1.2153 H   0  0  0  0  0  0  0  0  0  0  0  0
   -3.6693   -0.0593   -1.6611 H   0  0  0  0  0  0  0  0  0  0  0  0
   -6.0098    0.6597   -2.1301 H   0  0  0  0  0  0  0  0  0  0  0  0
   -5.8342    2.4803   -0.3995 H   0  0  0  0  0  0  0  0  0  0  0  0
   -7.4144    1.5421   -0.3893 H   0  0  0  0  0  0  0  0  0  0  0  0
   -6.4543    1.9311    1.8976 H   0  0  0  0  0  0  0  0  0  0  0  0
   -6.3354   -0.4064    2.6538 H   0  0  0  0  0  0  0  0  0  0  0  0
   -7.5262   -0.3257    1.3061 H   0  0  0  0  0  0  0  0  0  0  0  0
   -5.9556   -2.2292    1.0011 H   0  0  0  0  0  0  0  0  0  0  0  0
   -5.4479   -1.6105   -1.3587 H   0  0  0  0  0  0  0  0  0  0  0  0
   -7.1614   -1.1166   -0.9037 H   0  0  0  0  0  0  0  0  0  0  0  0
   -3.7426   -1.7903    0.1590 H   0  0  0  0  0  0  0  0  0  0  0  0
   -3.8389   -1.2772    1.8610 H   0  0  0  0  0  0  0  0  0  0  0  0
   -4.2584    0.9880    2.4311 H   0  0  0  0  0  0  0  0  0  0  0  0
   -4.1856    2.3309    1.2631 H   0  0  0  0  0  0  0  0  0  0  0  0
  1  2  1  0
  2  3  1  0
  3  4  1  0
  4  5  2  0
  5  6  1  0
  2  7  1  0
  7  8  2  0
  7  9  1  0
  9 10  1  0
 10 11  1  0
 11 12  1  0
 12 13  1  0
 13 14  1  0
 12 15  1  0
 15 16  1  0
 16 17  2  0
 16 18  1  0
 18 19  1  0
 19 20  1  0
 20 21  1  0
 21 22  1  0
 22 23  1  0
 23 24  1  0
 24 25  1  0
 25 26  1  0
 25 27  1  0
 23 28  1  0
  6  2  1  0
 14  9  1  0
 27 19  1  0
 28 19  1  0
 26 21  1  0
  1 29  1  0
  3 30  1  0
  3 31  1  0
  4 32  1  0
  5 33  1  0
  6 34  1  0
  6 35  1  0
 10 36  1  0
 10 37  1  0
 11 38  1  0
 11 39  1  0
 12 40  1  0
 13 41  1  0
 13 42  1  0
 14 43  1  0
 14 44  1  0
 15 45  1  0
 18 46  1  0
 20 47  1  0
 20 48  1  0
 21 49  1  0
 22 50  1  0
 22 51  1  0
 23 52  1  0
 24 53  1  0
 24 54  1  0
 25 55  1  0
 26 56  1  0
 26 57  1  0
 27 58  1  0
 27 59  1  0
 28 60  1  0
 28 61  1  0
M  END
$$$$
[H]c1nc2c(c([H])c1[H])N(C([H])([H])[H])c1c([H])c([H])c(N([H])C(=O)c3c([H])c([H])c(Br)c([H])c3[H])c([H])c1C(=O)N2C([H])([H])c1c([H])c([H])c([H])c([H])c1[H]
     RDKit          3D

 55 59  0  0  0  0  0  0  0  0999 V2000
   -0.5102   -3.5629   -2.2785 C   0  0  0  0  0  0  0  0  0  0  0  0
   -0.9673   -2.4392   -1.5255 N   0  0  0  0  0  0  0  0  0  0  0  0
    0.0703   -1.5976   -1.0224 C   0  0  0  0  0  0  0  0  0  0  0  0
    1.2087   -1.6819   -1.7794 C   0  0  0  0  0  0  0  0  0  0  0  0
    2.3359   -0.9206   -1.4274 C   0  0  0  0  0  0  0  0  0  0  0  0
    2.2832   -0.1036   -0.3314 C   0  0  0  0  0  0  0  0  0  0  0  0
    3.3885    0.6615    0.0838 N   0  0  0  0  0  0  0  0  0  0  0  0
    4.7449    0.4762   -0.1960 C   0  0  0  0  0  0  0  0  0  0  0  0
    5.0859   -0.5137   -0.9160 O   0  0  0  0  0  0  0  0  0  0  0  0
    5.7908    1.3733    0.3048 C   0  0  0  0  0  0  0  0  0  0  0  0
    5.4991    2.5306    0.9714 C   0  0  0  0  0  0  0  0  0  0  0  0
    6.5617    3.3114    1.4093 C   0  0  0  0  0  0  0  0  0  0  0  0
    7.8658    2.9599    1.1953 C   0  0  0  0  0  0  0  0  0  0  0  0
    9.2940    4.0752    1.8217 Br  0  0  0  0  0  0  0  0  0  0  0  0
    8.1571    1.7940    0.5237 C   0  0  0  0  0  0  0  0  0  0  0  0
    7.0994    1.0192    0.0892 C   0  0  0  0  0  0  0  0  0  0  0  0
    1.0913   -0.0408    0.4266 C   0  0  0  0  0  0  0  0  0  0  0  0
   -0.0009   -0.7689    0.0973 C   0  0  0  0  0  0  0  0  0  0  0  0
   -1.1439   -0.5660    0.9969 C   0  0  0  0  0  0  0  0  0  0  0  0
   -0.8652    0.0047    2.0816 O   0  0  0  0  0  0  0  0  0  0  0  0
   -2.5248   -0.9320    0.7980 N   0  0  0  0  0  0  0  0  0  0  0  0
   -3.4696   -0.5790    1.8085 C   0  0  0  0  0  0  0  0  0  0  0  0
   -4.0788    0.7521    1.5947 C   0  0  0  0  0  0  0  0  0  0  0  0
   -3.7641    1.5655    0.5279 C   0  0  0  0  0  0  0  0  0  0  0  0
   -4.3369    2.8091    0.3332 C   0  0  0  0  0  0  0  0  0  0  0  0
   -5.2690    3.2572    1.2519 C   0  0  0  0  0  0  0  0  0  0  0  0
   -5.6067    2.4715    2.3284 C   0  0  0  0  0  0  0  0  0  0  0  0
   -5.0207    1.2469    2.4903 C   0  0  0  0  0  0  0  0  0  0  0  0
   -3.0561   -1.6325   -0.3432 C   0  0  0  0  0  0  0  0  0  0  0  0
   -4.3944   -1.6328   -0.4093 N   0  0  0  0  0  0  0  0  0  0  0  0
   -5.0699   -2.2332   -1.4012 C   0  0  0  0  0  0  0  0  0  0  0  0
   -4.4295   -2.9076   -2.4469 C   0  0  0  0  0  0  0  0  0  0  0  0
   -3.0533   -2.9130   -2.3880 C   0  0  0  0  0  0  0  0  0  0  0  0
   -2.3903   -2.2890   -1.3587 C   0  0  0  0  0  0  0  0  0  0  0  0
    0.4559   -4.0012   -1.8724 H   0  0  0  0  0  0  0  0  0  0  0  0
   -1.2165   -4.4167   -2.0229 H   0  0  0  0  0  0  0  0  0  0  0  0
   -0.3934   -3.4114   -3.3454 H   0  0  0  0  0  0  0  0  0  0  0  0
    1.2207   -2.3326   -2.6431 H   0  0  0  0  0  0  0  0  0  0  0  0
    3.2016   -1.0090   -2.0629 H   0  0  0  0  0  0  0  0  0  0  0  0
    3.1446    1.5035    0.6986 H   0  0  0  0  0  0  0  0  0  0  0  0
    4.4911    2.8705    1.1739 H   0  0  0  0  0  0  0  0  0  0  0  0
    6.3319    4.2321    1.9397 H   0  0  0  0  0  0  0  0  0  0  0  0
    9.1937    1.5242    0.3591 H   0  0  0  0  0  0  0  0  0  0  0  0
    7.3660    0.1067   -0.4368 H   0  0  0  0  0  0  0  0  0  0  0  0
    1.0748    0.6099    1.2856 H   0  0  0  0  0  0  0  0  0  0  0  0
   -4.2846   -1.3320    1.8283 H   0  0  0  0  0  0  0  0  0  0  0  0
   -3.0248   -0.5927    2.8336 H   0  0  0  0  0  0  0  0  0  0  0  0
   -3.0395    1.2371   -0.2021 H   0  0  0  0  0  0  0  0  0  0  0  0
   -4.0673    3.4225   -0.5155 H   0  0  0  0  0  0  0  0  0  0  0  0
   -5.7306    4.2070    1.1361 H   0  0  0  0  0  0  0  0  0  0  0  0
   -6.3289    2.8185    3.0405 H   0  0  0  0  0  0  0  0  0  0  0  0
   -5.2571    0.5877    3.3295 H   0  0  0  0  0  0  0  0  0  0  0  0
   -6.1576   -2.2243   -1.4403 H   0  0  0  0  0  0  0  0  0  0  0  0
   -4.9987   -3.3837   -3.2352 H   0  0  0  0  0  0  0  0  0  0  0  0
   -2.5063   -3.4100   -3.1590 H   0  0  0  0  0  0  0  0  0  0  0  0
  1  2  1  0
  2  3  1  0
  3  4  2  0
  4  5  1  0
  5  6  2  0
  6  7  1  0
  7  8  1  0
  8  9  2  0
  8 10  1  0
 10 11  2  0
 11 12  1  0
 12 13  2  0
 13 14  1  0
 13 15  1  0
 15 16  2  0
  6 17  1  0
 17 18  2  0
 18 19  1  0
 19 20  2  0
 19 21  1  0
 21 22  1  0
 22 23  1  0
 23 24  2  0
 24 25  1  0
 25 26  2  0
 26 27  1  0
 27 28  2  0
 21 29  1  0
 29 30  2  0
 30 31  1  0
 31 32  2  0
 32 33  1  0
 33 34  2  0
 34  2  1  0
 18  3  1  0
 28 23  1  0
 34 29  1  0
 16 10  1  0
  1 35  1  0
  1 36  1  0
  1 37  1  0
  4 38  1  0
  5 39  1  0
  7 40  1  0
 11 41  1  0
 12 42  1  0
 15 43  1  0
 16 44  1  0
 17 45  1  0
 22 46  1  0
 22 47  1  0
 24 48  1  0
 25 49  1  0
 26 50  1  0
 27 51  1  0
 28 52  1  0
 31 53  1  0
 32 54  1  0
 33 55  1  0
M  END
$$$$
[H]/C(=C(/[H])c1c([H])c(F)c(C2([H])C(=O)N(C([H])([H])[H])C([H])([H])C([H])([H])C2([H])C([H])([H])[H])c([H])c1OC([H])([H])[H])c1c([H])c([H])c2c(c1[H])C([H])([H])C([H])([H])C2([H])[H]
     RDKit          3D

 57 60  0  0  0  0  0  0  0  0999 V2000
   -0.3032   -2.6925   -1.0445 C   0  0  0  0  0  0  0  0  0  0  0  0
    0.3356   -1.5269   -0.6017 O   0  0  0  0  0  0  0  0  0  0  0  0
   -0.3792   -0.5507    0.0583 C   0  0  0  0  0  0  0  0  0  0  0  0
   -1.7453   -0.7233    0.2734 C   0  0  0  0  0  0  0  0  0  0  0  0
   -2.5478    0.2177    0.9355 C   0  0  0  0  0  0  0  0  0  0  0  0
   -3.9208   -0.2009    1.1636 C   0  0  0  0  0  0  0  0  0  0  0  0
   -4.4086   -1.0177   -0.0112 C   0  0  0  0  0  0  0  0  0  0  0  0
   -4.8023   -2.4231    0.3476 C   0  0  0  0  0  0  0  0  0  0  0  0
   -5.6254   -0.3990   -0.6876 C   0  0  0  0  0  0  0  0  0  0  0  0
   -5.7309    1.0983   -0.4720 C   0  0  0  0  0  0  0  0  0  0  0  0
   -5.9695    1.2436    0.9529 N   0  0  0  0  0  0  0  0  0  0  0  0
   -7.1415    1.8592    1.4882 C   0  0  0  0  0  0  0  0  0  0  0  0
   -4.8983    0.6750    1.7470 C   0  0  0  0  0  0  0  0  0  0  0  0
   -4.9250    1.0186    2.9593 O   0  0  0  0  0  0  0  0  0  0  0  0
   -1.9215    1.3430    1.3756 C   0  0  0  0  0  0  0  0  0  0  0  0
   -2.6624    2.2829    2.0006 F   0  0  0  0  0  0  0  0  0  0  0  0
   -0.5811    1.5249    1.1702 C   0  0  0  0  0  0  0  0  0  0  0  0
    0.2222    0.5896    0.5100 C   0  0  0  0  0  0  0  0  0  0  0  0
    1.6423    0.8647    0.3578 C   0  0  0  0  0  0  0  0  0  0  0  0
    2.5607    0.1391   -0.2016 C   0  0  0  0  0  0  0  0  0  0  0  0
    3.9946    0.4821   -0.3203 C   0  0  0  0  0  0  0  0  0  0  0  0
    4.4873    1.6477    0.1976 C   0  0  0  0  0  0  0  0  0  0  0  0
    5.8504    1.8991    0.0736 C   0  0  0  0  0  0  0  0  0  0  0  0
    6.7334    1.0580   -0.5324 C   0  0  0  0  0  0  0  0  0  0  0  0
    8.1909    1.0889   -0.7809 C   0  0  0  0  0  0  0  0  0  0  0  0
    8.5399   -0.3279   -1.1414 C   0  0  0  0  0  0  0  0  0  0  0  0
    7.2770   -0.9340   -1.6836 C   0  0  0  0  0  0  0  0  0  0  0  0
    6.1863   -0.1162   -1.0460 C   0  0  0  0  0  0  0  0  0  0  0  0
    4.8471   -0.3977   -0.9424 C   0  0  0  0  0  0  0  0  0  0  0  0
    0.4225   -3.4413   -1.4281 H   0  0  0  0  0  0  0  0  0  0  0  0
   -0.8455   -3.1675   -0.1665 H   0  0  0  0  0  0  0  0  0  0  0  0
   -1.0928   -2.4385   -1.7691 H   0  0  0  0  0  0  0  0  0  0  0  0
   -2.1316   -1.6639   -0.0872 H   0  0  0  0  0  0  0  0  0  0  0  0
   -3.7793   -1.0372    1.9838 H   0  0  0  0  0  0  0  0  0  0  0  0
   -3.6667   -1.0748   -0.8347 H   0  0  0  0  0  0  0  0  0  0  0  0
   -4.1472   -2.8221    1.1611 H   0  0  0  0  0  0  0  0  0  0  0  0
   -5.8851   -2.4944    0.6419 H   0  0  0  0  0  0  0  0  0  0  0  0
   -4.6646   -3.1289   -0.5052 H   0  0  0  0  0  0  0  0  0  0  0  0
   -5.5783   -0.5425   -1.7851 H   0  0  0  0  0  0  0  0  0  0  0  0
   -6.5574   -0.8625   -0.3477 H   0  0  0  0  0  0  0  0  0  0  0  0
   -6.5929    1.4515   -1.0585 H   0  0  0  0  0  0  0  0  0  0  0  0
   -4.7915    1.6404   -0.7365 H   0  0  0  0  0  0  0  0  0  0  0  0
   -7.3073    2.8835    1.0826 H   0  0  0  0  0  0  0  0  0  0  0  0
   -7.1254    1.9412    2.5969 H   0  0  0  0  0  0  0  0  0  0  0  0
   -8.0748    1.2843    1.2560 H   0  0  0  0  0  0  0  0  0  0  0  0
   -0.1150    2.4307    1.5307 H   0  0  0  0  0  0  0  0  0  0  0  0
    2.0305    1.8307    0.7711 H   0  0  0  0  0  0  0  0  0  0  0  0
    2.2950   -0.7931   -0.6207 H   0  0  0  0  0  0  0  0  0  0  0  0
    3.8620    2.3981    0.7109 H   0  0  0  0  0  0  0  0  0  0  0  0
    6.2245    2.8289    0.4887 H   0  0  0  0  0  0  0  0  0  0  0  0
    8.4218    1.8111   -1.5932 H   0  0  0  0  0  0  0  0  0  0  0  0
    8.7500    1.3799    0.1495 H   0  0  0  0  0  0  0  0  0  0  0  0
    8.8240   -0.8825   -0.2238 H   0  0  0  0  0  0  0  0  0  0  0  0
    9.3940   -0.3946   -1.8487 H   0  0  0  0  0  0  0  0  0  0  0  0
    7.1849   -1.9900   -1.3689 H   0  0  0  0  0  0  0  0  0  0  0  0
    7.1783   -0.7932   -2.7794 H   0  0  0  0  0  0  0  0  0  0  0  0
    4.4630   -1.3380   -1.3658 H   0  0  0  0  0  0  0  0  0  0  0  0
  1  2  1  0
  2  3  1  0
  3  4  2  0
  4  5  1  0
  5  6  1  0
  6  7  1  0
  7  8  1  0
  7  9  1  0
  9 10  1  0
 10 11  1  0
 11 12  1  0
 11 13  1  0
 13 14  2  0
  5 15  2  0
 15 16  1  0
 15 17  1  0
 17 18  2  0
 18 19  1  0
 19 20  2  0
 20 21  1  0
 21 22  2  0
 22 23  1  0
 23 24  2  0
 24 25  1  0
 25 26  1  0
 26 27  1  0
 27 28  1  0
 28 29  2  0
 18  3  1  0
 29 21  1  0
 13  6  1  0
 28 24  1  0
  1 30  1  0
  1 31  1  0
  1 32  1  0
  4 33  1  0
  6 34  1  0
  7 35  1  0
  8 36  1  0
  8 37  1  0
  8 38  1  0
  9 39  1  0
  9 40  1  0
 10 41  1  0
 10 42  1  0
 12 43  1  0
 12 44  1  0
 12 45  1  0
 17 46  1  0
 19 47  1  0
 20 48  1  0
 22 49  1  0
 23 50  1  0
 25 51  1  0
 25 52  1  0
 26 53  1  0
 26 54  1  0
 27 55  1  0
 27 56  1  0
 29 57  1  0
M  END
$$$$
[H]c1c([H])c([H])c2c(c1[H])C([H])([H])C([H])([H])C([H])(C([H])([H])C([H])([H])N1C([H])([H])C([H])([H])C([H])([H])C([H])([H])C1([H])[H])C2([H])[H]
     RDKit          3D

 43 45  0  0  0  0  0  0  0  0999 V2000
    0.3743   -0.4707    0.6691 C   0  0  0  0  0  0  0  0  0  0  0  0
    1.1454   -0.3164   -0.6203 C   0  0  0  0  0  0  0  0  0  0  0  0
    2.4479    0.1290   -0.3363 N   0  0  0  0  0  0  0  0  0  0  0  0
    3.3550   -0.7220    0.3146 C   0  0  0  0  0  0  0  0  0  0  0  0
    4.7483   -0.7096   -0.2880 C   0  0  0  0  0  0  0  0  0  0  0  0
    5.1789    0.7509   -0.4324 C   0  0  0  0  0  0  0  0  0  0  0  0
    4.2291    1.3704   -1.4347 C   0  0  0  0  0  0  0  0  0  0  0  0
    2.8568    1.3968   -0.7695 C   0  0  0  0  0  0  0  0  0  0  0  0
   -1.0416   -0.9667    0.3559 C   0  0  0  0  0  0  0  0  0  0  0  0
   -1.8130   -1.1130    1.6209 C   0  0  0  0  0  0  0  0  0  0  0  0
   -2.6952    0.1155    1.8854 C   0  0  0  0  0  0  0  0  0  0  0  0
   -3.6704    0.1380    0.7632 C   0  0  0  0  0  0  0  0  0  0  0  0
   -5.0328    0.2423    0.9124 C   0  0  0  0  0  0  0  0  0  0  0  0
   -5.8838    0.2498   -0.2000 C   0  0  0  0  0  0  0  0  0  0  0  0
   -5.3772    0.1531   -1.4793 C   0  0  0  0  0  0  0  0  0  0  0  0
   -4.0063    0.0489   -1.6144 C   0  0  0  0  0  0  0  0  0  0  0  0
   -3.1574    0.0407   -0.5217 C   0  0  0  0  0  0  0  0  0  0  0  0
   -1.6675   -0.0641   -0.6482 C   0  0  0  0  0  0  0  0  0  0  0  0
    0.3715    0.4506    1.2412 H   0  0  0  0  0  0  0  0  0  0  0  0
    0.8650   -1.2476    1.3056 H   0  0  0  0  0  0  0  0  0  0  0  0
    1.2154   -1.3089   -1.1477 H   0  0  0  0  0  0  0  0  0  0  0  0
    0.6423    0.4087   -1.2899 H   0  0  0  0  0  0  0  0  0  0  0  0
    3.4286   -0.5612    1.4340 H   0  0  0  0  0  0  0  0  0  0  0  0
    2.9919   -1.7761    0.2263 H   0  0  0  0  0  0  0  0  0  0  0  0
    4.6741   -1.1958   -1.2985 H   0  0  0  0  0  0  0  0  0  0  0  0
    5.4351   -1.2118    0.3866 H   0  0  0  0  0  0  0  0  0  0  0  0
    4.9776    1.2574    0.5444 H   0  0  0  0  0  0  0  0  0  0  0  0
    6.2375    0.8265   -0.7260 H   0  0  0  0  0  0  0  0  0  0  0  0
    4.5239    2.3983   -1.7292 H   0  0  0  0  0  0  0  0  0  0  0  0
    4.1275    0.6944   -2.3145 H   0  0  0  0  0  0  0  0  0  0  0  0
    2.9001    2.1841    0.0106 H   0  0  0  0  0  0  0  0  0  0  0  0
    2.1569    1.7550   -1.5731 H   0  0  0  0  0  0  0  0  0  0  0  0
   -0.9470   -2.0085   -0.0851 H   0  0  0  0  0  0  0  0  0  0  0  0
   -1.1422   -1.2618    2.4740 H   0  0  0  0  0  0  0  0  0  0  0  0
   -2.4896   -1.9906    1.5448 H   0  0  0  0  0  0  0  0  0  0  0  0
   -3.1618    0.0112    2.8807 H   0  0  0  0  0  0  0  0  0  0  0  0
   -2.0871    1.0365    1.9132 H   0  0  0  0  0  0  0  0  0  0  0  0
   -5.4183    0.3155    1.9215 H   0  0  0  0  0  0  0  0  0  0  0  0
   -6.9586    0.3340   -0.0380 H   0  0  0  0  0  0  0  0  0  0  0  0
   -6.0409    0.1581   -2.3512 H   0  0  0  0  0  0  0  0  0  0  0  0
   -3.5937   -0.0287   -2.6213 H   0  0  0  0  0  0  0  0  0  0  0  0
   -1.4848   -0.4826   -1.6754 H   0  0  0  0  0  0  0  0  0  0  0  0
   -1.2140    0.9706   -0.6757 H   0  0  0  0  0  0  0  0  0  0  0  0
  1  2  1  0
  2  3  1  0
  3  4  1  0
  4  5  1  0
  5  6  1  0
  6  7  1  0
  7  8  1  0
  1  9  1  0
  9 10  1  0
 10 11  1  0
 11 12  1  0
 12 13  2  0
 13 14  1  0
 14 15  2  0
 15 16  1  0
 16 17  2  0
 17 18  1  0
  8  3  1  0
 18  9  1  0
 17 12  1  0
  1 19  1  0
  1 20  1  0
  2 21  1  0
  2 22  1  0
  4 23  1  0
  4 24  1  0
  5 25  1  0
  5 26  1  0
  6 27  1  0
  6 28  1  0
  7 29  1  0
  7 30  1  0
  8 31  1  0
  8 32  1  0
  9 33  1  0
 10 34  1  0
 10 35  1  0
 11 36  1  0
 11 37  1  0
 13 38  1  0
 14 39  1  0
 15 40  1  0
 16 41  1  0
 18 42  1  0
 18 43  1  0
M  END
$$$$
[H]Oc1c([H])c([H])c(-c2c([H])n([H])c3nc([H])nc(N([H])C([H])([H])[C@@]4([H])OC([H])([H])C([H])([H])C4([H])[H])c23)c([H])c1[H]
     RDKit          3D

 41 44  0  0  0  0  0  0  0  0999 V2000
   -2.7580    4.2002    0.8546 O   0  0  0  0  0  0  0  0  0  0  0  0
   -2.6730    2.8227    0.6058 C   0  0  0  0  0  0  0  0  0  0  0  0
   -2.7209    1.9076    1.6470 C   0  0  0  0  0  0  0  0  0  0  0  0
   -2.6304    0.5655    1.3160 C   0  0  0  0  0  0  0  0  0  0  0  0
   -2.4981    0.1179    0.0257 C   0  0  0  0  0  0  0  0  0  0  0  0
   -2.4534    1.0498   -0.9880 C   0  0  0  0  0  0  0  0  0  0  0  0
   -2.5407    2.3880   -0.6913 C   0  0  0  0  0  0  0  0  0  0  0  0
   -2.4857   -1.3029   -0.2450 C   0  0  0  0  0  0  0  0  0  0  0  0
   -3.6448   -2.1098   -0.3073 C   0  0  0  0  0  0  0  0  0  0  0  0
   -3.2987   -3.3473   -0.6393 N   0  0  0  0  0  0  0  0  0  0  0  0
   -1.9536   -3.4247   -0.8063 C   0  0  0  0  0  0  0  0  0  0  0  0
   -1.1139   -4.3896   -1.1288 N   0  0  0  0  0  0  0  0  0  0  0  0
    0.2073   -4.1932   -1.2263 C   0  0  0  0  0  0  0  0  0  0  0  0
    0.6828   -2.9752   -0.9858 N   0  0  0  0  0  0  0  0  0  0  0  0
   -0.0922   -1.8981   -0.6430 C   0  0  0  0  0  0  0  0  0  0  0  0
    0.5279   -0.6655   -0.3487 N   0  0  0  0  0  0  0  0  0  0  0  0
    1.9875   -0.5972   -0.5392 C   0  0  0  0  0  0  0  0  0  0  0  0
    2.5455    0.7464   -0.2040 C   0  0  2  0  0  0  0  0  0  0  0  0
    4.0241    0.7844   -0.4839 C   0  0  0  0  0  0  0  0  0  0  0  0
    4.4718    1.8703    0.5047 C   0  0  0  0  0  0  0  0  0  0  0  0
    3.5024    1.5884    1.6353 C   0  0  0  0  0  0  0  0  0  0  0  0
    2.3347    1.1405    1.0893 O   0  0  0  0  0  0  0  0  0  0  0  0
   -1.4520   -2.1364   -0.5548 C   0  0  0  0  0  0  0  0  0  0  0  0
   -2.8545    4.5869    1.7645 H   0  0  0  0  0  0  0  0  0  0  0  0
   -2.8249    2.2629    2.6605 H   0  0  0  0  0  0  0  0  0  0  0  0
   -2.6721   -0.1235    2.1652 H   0  0  0  0  0  0  0  0  0  0  0  0
   -2.3481    0.7395   -2.0398 H   0  0  0  0  0  0  0  0  0  0  0  0
   -2.5020    3.1071   -1.5222 H   0  0  0  0  0  0  0  0  0  0  0  0
   -4.6225   -1.7049   -0.1024 H   0  0  0  0  0  0  0  0  0  0  0  0
   -3.9152   -4.1829   -0.7695 H   0  0  0  0  0  0  0  0  0  0  0  0
    0.8875   -5.0209   -1.4997 H   0  0  0  0  0  0  0  0  0  0  0  0
    0.1292    0.1902   -0.0028 H   0  0  0  0  0  0  0  0  0  0  0  0
    2.4515   -1.3355    0.1564 H   0  0  0  0  0  0  0  0  0  0  0  0
    2.2683   -0.8652   -1.5656 H   0  0  0  0  0  0  0  0  0  0  0  0
    2.0786    1.4768   -0.9291 H   0  0  0  0  0  0  0  0  0  0  0  0
    4.5149   -0.1533   -0.1325 H   0  0  0  0  0  0  0  0  0  0  0  0
    4.2737    1.0445   -1.5193 H   0  0  0  0  0  0  0  0  0  0  0  0
    5.5224    1.7481    0.7965 H   0  0  0  0  0  0  0  0  0  0  0  0
    4.2807    2.8799    0.0819 H   0  0  0  0  0  0  0  0  0  0  0  0
    3.3935    2.4424    2.3219 H   0  0  0  0  0  0  0  0  0  0  0  0
    3.9707    0.7662    2.2490 H   0  0  0  0  0  0  0  0  0  0  0  0
  1  2  1  0
  2  3  2  0
  3  4  1  0
  4  5  2  0
  5  6  1  0
  6  7  2  0
  5  8  1  0
  8  9  2  0
  9 10  1  0
 10 11  1  0
 11 12  2  0
 12 13  1  0
 13 14  2  0
 14 15  1  0
 15 16  1  0
 16 17  1  0
 17 18  1  0
 18 19  1  0
 19 20  1  0
 20 21  1  0
 21 22  1  0
 15 23  2  0
  7  2  1  0
 23  8  1  0
 23 11  1  0
 22 18  1  0
  1 24  1  0
  3 25  1  0
  4 26  1  0
  6 27  1  0
  7 28  1  0
  9 29  1  0
 10 30  1  0
 13 31  1  0
 16 32  1  0
 17 33  1  0
 17 34  1  0
 18 35  1  6
 19 36  1  0
 19 37  1  0
 20 38  1  0
 20 39  1  0
 21 40  1  0
 21 41  1  0
M  END
$$$$
[H]N=C(N([H])[H])C([H])([H])C([H])([H])C([H])([H])C([H])([H])C(=O)N1C([H])([H])C([H])([H])N(C(=O)C([H])([H])C([H])([H])[C@@]([H])(C(=O)O[H])N([H])C(=O)C([H])(N([H])S(=O)(=O)c2c([H])c(Cl)c3c([H])c(O[H])c([H])c([H])c3c2[H])C([H])([H])C([H])([H])c2c([H])c([H])c([H])c([H])c2[H])C([H])([H])C1([H])[H]
     RDKit          3D

 94 97  0  0  0  0  0  0  0  0999 V2000
   -5.8710    6.5487    2.9242 O   0  0  0  0  0  0  0  0  0  0  0  0
   -6.0219    5.3488    2.2140 C   0  0  0  0  0  0  0  0  0  0  0  0
   -6.1152    4.1471    2.8780 C   0  0  0  0  0  0  0  0  0  0  0  0
   -6.2622    2.9538    2.1905 C   0  0  0  0  0  0  0  0  0  0  0  0
   -6.3204    2.9368    0.8022 C   0  0  0  0  0  0  0  0  0  0  0  0
   -6.4661    1.7426    0.0863 C   0  0  0  0  0  0  0  0  0  0  0  0
   -6.5195    1.7356   -1.2794 C   0  0  0  0  0  0  0  0  0  0  0  0
   -6.4288    2.9272   -1.9535 C   0  0  0  0  0  0  0  0  0  0  0  0
   -6.2830    4.1338   -1.2614 C   0  0  0  0  0  0  0  0  0  0  0  0
   -6.1623    5.6580   -2.0797 Cl  0  0  0  0  0  0  0  0  0  0  0  0
   -6.2285    4.1356    0.1350 C   0  0  0  0  0  0  0  0  0  0  0  0
   -6.0813    5.3230    0.8346 C   0  0  0  0  0  0  0  0  0  0  0  0
   -6.6822    0.2555   -2.1825 S   0  0  0  0  0  0  0  0  0  0  0  0
   -7.3903   -0.7147   -1.2789 O   0  0  0  0  0  0  0  0  0  0  0  0
   -7.6973    0.5667   -3.2830 O   0  0  0  0  0  0  0  0  0  0  0  0
   -5.2202   -0.2412   -2.7762 N   0  0  0  0  0  0  0  0  0  0  0  0
   -4.1352   -0.5692   -1.9476 C   0  0  0  0  0  0  0  0  0  0  0  0
   -3.6980   -2.0232   -2.0610 C   0  0  0  0  0  0  0  0  0  0  0  0
   -4.8287   -2.9239   -1.6942 C   0  0  0  0  0  0  0  0  0  0  0  0
   -4.3674   -4.3400   -1.7820 C   0  0  0  0  0  0  0  0  0  0  0  0
   -4.4662   -5.1203   -2.9036 C   0  0  0  0  0  0  0  0  0  0  0  0
   -4.0160   -6.4219   -2.8830 C   0  0  0  0  0  0  0  0  0  0  0  0
   -3.4583   -6.9543   -1.7276 C   0  0  0  0  0  0  0  0  0  0  0  0
   -3.3505   -6.1679   -0.5739 C   0  0  0  0  0  0  0  0  0  0  0  0
   -3.8140   -4.8664   -0.6340 C   0  0  0  0  0  0  0  0  0  0  0  0
   -2.9548    0.3079   -2.1470 C   0  0  0  0  0  0  0  0  0  0  0  0
   -3.0037    1.2530   -2.9515 O   0  0  0  0  0  0  0  0  0  0  0  0
   -1.7736    0.0620   -1.4247 N   0  0  0  0  0  0  0  0  0  0  0  0
   -0.5528    0.8092   -1.5301 C   0  0  1  0  0  0  0  0  0  0  0  0
   -0.1120    1.3579   -0.2447 C   0  0  0  0  0  0  0  0  0  0  0  0
    0.1361    0.5178    0.9348 C   0  0  0  0  0  0  0  0  0  0  0  0
    1.1092   -0.5592    0.8043 C   0  0  0  0  0  0  0  0  0  0  0  0
    0.9520   -1.5201   -0.0218 O   0  0  0  0  0  0  0  0  0  0  0  0
    2.2858   -0.5628    1.6341 N   0  0  0  0  0  0  0  0  0  0  0  0
    2.5357    0.5215    2.5182 C   0  0  0  0  0  0  0  0  0  0  0  0
    3.7921    0.2605    3.3129 C   0  0  0  0  0  0  0  0  0  0  0  0
    4.8871   -0.2243    2.5119 N   0  0  0  0  0  0  0  0  0  0  0  0
    4.5796   -1.0721    1.3638 C   0  0  0  0  0  0  0  0  0  0  0  0
    3.1864   -1.6834    1.5542 C   0  0  0  0  0  0  0  0  0  0  0  0
    6.2504    0.1045    2.8075 C   0  0  0  0  0  0  0  0  0  0  0  0
    6.5186    0.8518    3.7493 O   0  0  0  0  0  0  0  0  0  0  0  0
    7.3210   -0.4851    1.9470 C   0  0  0  0  0  0  0  0  0  0  0  0
    8.6413    0.1489    2.3690 C   0  0  0  0  0  0  0  0  0  0  0  0
    9.7833   -0.4056    1.5978 C   0  0  0  0  0  0  0  0  0  0  0  0
    9.6582   -0.1947    0.1317 C   0  0  0  0  0  0  0  0  0  0  0  0
    9.6623    1.2143   -0.3141 C   0  0  0  0  0  0  0  0  0  0  0  0
    9.2303    1.4355   -1.6625 N   0  0  0  0  0  0  0  0  0  0  0  0
   10.0489    2.1475    0.4258 N   0  0  0  0  0  0  0  0  0  0  0  0
    0.4582    0.1911   -2.4152 C   0  0  0  0  0  0  0  0  0  0  0  0
    1.7175    0.7556   -2.5006 O   0  0  0  0  0  0  0  0  0  0  0  0
    0.2144   -0.8374   -3.0986 O   0  0  0  0  0  0  0  0  0  0  0  0
   -6.7096    7.0673    3.2158 H   0  0  0  0  0  0  0  0  0  0  0  0
   -6.0724    4.1666    3.9654 H   0  0  0  0  0  0  0  0  0  0  0  0
   -6.3363    2.0047    2.6978 H   0  0  0  0  0  0  0  0  0  0  0  0
   -6.5366    0.8348    0.6784 H   0  0  0  0  0  0  0  0  0  0  0  0
   -6.4633    3.0081   -3.0230 H   0  0  0  0  0  0  0  0  0  0  0  0
   -6.0095    6.2515    0.3046 H   0  0  0  0  0  0  0  0  0  0  0  0
   -5.0681   -0.2736   -3.8015 H   0  0  0  0  0  0  0  0  0  0  0  0
   -4.4450   -0.4372   -0.8896 H   0  0  0  0  0  0  0  0  0  0  0  0
   -3.2522   -2.2432   -3.0439 H   0  0  0  0  0  0  0  0  0  0  0  0
   -2.9116   -2.1768   -1.2986 H   0  0  0  0  0  0  0  0  0  0  0  0
   -5.6997   -2.7526   -2.3705 H   0  0  0  0  0  0  0  0  0  0  0  0
   -5.1487   -2.7150   -0.6575 H   0  0  0  0  0  0  0  0  0  0  0  0
   -4.9129   -4.6606   -3.7957 H   0  0  0  0  0  0  0  0  0  0  0  0
   -4.0971   -7.0438   -3.7844 H   0  0  0  0  0  0  0  0  0  0  0  0
   -3.0940   -7.9668   -1.6676 H   0  0  0  0  0  0  0  0  0  0  0  0
   -2.9235   -6.5409    0.3425 H   0  0  0  0  0  0  0  0  0  0  0  0
   -3.7316   -4.2454    0.2718 H   0  0  0  0  0  0  0  0  0  0  0  0
   -1.7469   -0.7381   -0.7160 H   0  0  0  0  0  0  0  0  0  0  0  0
   -0.9087    1.7627   -2.1365 H   0  0  0  0  0  0  0  0  0  0  0  0
    0.7309    2.1228   -0.3781 H   0  0  0  0  0  0  0  0  0  0  0  0
   -0.9722    2.0749    0.0760 H   0  0  0  0  0  0  0  0  0  0  0  0
    0.4509    1.2136    1.7921 H   0  0  0  0  0  0  0  0  0  0  0  0
   -0.8451    0.1141    1.3471 H   0  0  0  0  0  0  0  0  0  0  0  0
    1.6930    0.5765    3.2688 H   0  0  0  0  0  0  0  0  0  0  0  0
    2.5905    1.5051    1.9871 H   0  0  0  0  0  0  0  0  0  0  0  0
    4.1175    1.2560    3.7152 H   0  0  0  0  0  0  0  0  0  0  0  0
    3.5999   -0.3817    4.2004 H   0  0  0  0  0  0  0  0  0  0  0  0
    5.2922   -1.9147    1.3404 H   0  0  0  0  0  0  0  0  0  0  0  0
    4.5585   -0.4753    0.4512 H   0  0  0  0  0  0  0  0  0  0  0  0
    3.1426   -2.2480    2.5142 H   0  0  0  0  0  0  0  0  0  0  0  0
    2.9215   -2.3433    0.7282 H   0  0  0  0  0  0  0  0  0  0  0  0
    7.1026   -0.1950    0.8922 H   0  0  0  0  0  0  0  0  0  0  0  0
    7.3236   -1.5890    2.0269 H   0  0  0  0  0  0  0  0  0  0  0  0
    8.7734   -0.0047    3.4687 H   0  0  0  0  0  0  0  0  0  0  0  0
    8.5043    1.2280    2.2268 H   0  0  0  0  0  0  0  0  0  0  0  0
   10.7260    0.0522    2.0111 H   0  0  0  0  0  0  0  0  0  0  0  0
    9.8544   -1.5074    1.8403 H   0  0  0  0  0  0  0  0  0  0  0  0
    8.6906   -0.6401   -0.2536 H   0  0  0  0  0  0  0  0  0  0  0  0
   10.4726   -0.7694   -0.4122 H   0  0  0  0  0  0  0  0  0  0  0  0
    9.8162    1.1105   -2.4343 H   0  0  0  0  0  0  0  0  0  0  0  0
    8.3396    1.9155   -1.8244 H   0  0  0  0  0  0  0  0  0  0  0  0
   10.4010    2.2377    1.3506 H   0  0  0  0  0  0  0  0  0  0  0  0
    2.0961    0.8955   -3.4446 H   0  0  0  0  0  0  0  0  0  0  0  0
  1  2  1  0
  2  3  2  0
  3  4  1  0
  4  5  2  0
  5  6  1  0
  6  7  2  0
  7  8  1  0
  8  9  2  0
  9 10  1  0
  9 11  1  0
 11 12  2  0
  7 13  1  0
 13 14  2  0
 13 15  2  0
 13 16  1  0
 16 17  1  0
 17 18  1  0
 18 19  1  0
 19 20  1  0
 20 21  2  0
 21 22  1  0
 22 23  2  0
 23 24  1  0
 24 25  2  0
 17 26  1  0
 26 27  2  0
 26 28  1  0
 28 29  1  0
 29 30  1  0
 30 31  1  0
 31 32  1  0
 32 33  2  0
 32 34  1  0
 34 35  1  0
 35 36  1  0
 36 37  1  0
 37 38  1  0
 38 39  1  0
 37 40  1  0
 40 41  2  0
 40 42  1  0
 42 43  1  0
 43 44  1  0
 44 45  1  0
 45 46  1  0
 46 47  1  0
 46 48  2  3
 29 49  1  0
 49 50  1  0
 49 51  2  0
 12  2  1  0
 25 20  1  0
 39 34  1  0
 11  5  1  0
  1 52  1  0
  3 53  1  0
  4 54  1  0
  6 55  1  0
  8 56  1  0
 12 57  1  0
 16 58  1  0
 17 59  1  0
 18 60  1  0
 18 61  1  0
 19 62  1  0
 19 63  1  0
 21 64  1  0
 22 65  1  0
 23 66  1  0
 24 67  1  0
 25 68  1  0
 28 69  1  0
 29 70  1  6
 30 71  1  0
 30 72  1  0
 31 73  1  0
 31 74  1  0
 35 75  1  0
 35 76  1  0
 36 77  1  0
 36 78  1  0
 38 79  1  0
 38 80  1  0
 39 81  1  0
 39 82  1  0
 42 83  1  0
 42 84  1  0
 43 85  1  0
 43 86  1  0
 44 87  1  0
 44 88  1  0
 45 89  1  0
 45 90  1  0
 47 91  1  0
 47 92  1  0
 48 93  1  0
 50 94  1  0
M  END
$$$$
[H]c1nc(N2C([H])([H])C([H])([H])OC([H])([H])C2([H])[H])c2c(-c3sc(-c4nc(N([H])[H])n5nc([H])c([H])c([H])c45)nc3C([H])([H])[H])nc(N3C([H])(C([H])([H])[H])C([H])([H])N(C([H])([H])[H])[C@@]([H])(C([H])([H])[H])C3([H])[H])n2n1
     RDKit          3D

 72 78  0  0  0  0  0  0  0  0999 V2000
   -7.1580   -0.4564   -1.1737 C   0  0  0  0  0  0  0  0  0  0  0  0
   -5.8621   -1.0969   -1.6216 C   0  0  1  0  0  0  0  0  0  0  0  0
   -4.7290   -0.1760   -1.2501 C   0  0  0  0  0  0  0  0  0  0  0  0
   -3.4978   -0.8962   -1.0885 N   0  0  0  0  0  0  0  0  0  0  0  0
   -3.3441   -2.3156   -1.3240 C   0  0  0  0  0  0  0  0  0  0  0  0
   -2.6628   -2.9063   -0.0894 C   0  0  0  0  0  0  0  0  0  0  0  0
   -4.6184   -3.0371   -1.5707 C   0  0  0  0  0  0  0  0  0  0  0  0
   -5.6838   -2.3437   -0.8699 N   0  0  0  0  0  0  0  0  0  0  0  0
   -6.8874   -3.1255   -0.8262 C   0  0  0  0  0  0  0  0  0  0  0  0
   -2.3119   -0.1872   -0.6635 C   0  0  0  0  0  0  0  0  0  0  0  0
   -1.1064   -0.6547   -0.4626 N   0  0  0  0  0  0  0  0  0  0  0  0
   -0.2190    0.3319   -0.0591 C   0  0  0  0  0  0  0  0  0  0  0  0
    1.2079    0.0690    0.0315 C   0  0  0  0  0  0  0  0  0  0  0  0
    1.9835   -1.0760    1.0827 S   0  0  0  0  0  0  0  0  0  0  0  0
    3.5767   -0.9548    0.4766 C   0  0  0  0  0  0  0  0  0  0  0  0
    3.4318   -0.0714   -0.4713 N   0  0  0  0  0  0  0  0  0  0  0  0
    2.2675    0.4595   -0.7237 C   0  0  0  0  0  0  0  0  0  0  0  0
    2.1280    1.4112   -1.9039 C   0  0  0  0  0  0  0  0  0  0  0  0
    4.7982   -1.6756    0.9238 C   0  0  0  0  0  0  0  0  0  0  0  0
    4.8254   -2.5739    1.9225 N   0  0  0  0  0  0  0  0  0  0  0  0
    6.0815   -3.0240    2.0560 C   0  0  0  0  0  0  0  0  0  0  0  0
    6.5290   -3.9868    3.0028 N   0  0  0  0  0  0  0  0  0  0  0  0
    6.8670   -2.4068    1.1322 N   0  0  0  0  0  0  0  0  0  0  0  0
    8.1595   -2.5227    0.8804 N   0  0  0  0  0  0  0  0  0  0  0  0
    8.7400   -1.8044   -0.0963 C   0  0  0  0  0  0  0  0  0  0  0  0
    7.9402   -0.9462   -0.8219 C   0  0  0  0  0  0  0  0  0  0  0  0
    6.5894   -0.8101   -0.5754 C   0  0  0  0  0  0  0  0  0  0  0  0
    6.0589   -1.5759    0.4396 C   0  0  0  0  0  0  0  0  0  0  0  0
   -0.9690    1.4732   -0.0124 C   0  0  0  0  0  0  0  0  0  0  0  0
   -0.6864    2.7584    0.3417 C   0  0  0  0  0  0  0  0  0  0  0  0
   -1.7210    3.6775    0.2877 N   0  0  0  0  0  0  0  0  0  0  0  0
   -2.9475    3.3103   -0.0924 C   0  0  0  0  0  0  0  0  0  0  0  0
   -3.1964    2.0530   -0.4235 N   0  0  0  0  0  0  0  0  0  0  0  0
   -2.2463    1.1335   -0.3903 N   0  0  0  0  0  0  0  0  0  0  0  0
    0.5278    3.1817    0.8802 N   0  0  0  0  0  0  0  0  0  0  0  0
    1.2528    4.2900    0.3069 C   0  0  0  0  0  0  0  0  0  0  0  0
    1.4166    5.3687    1.3912 C   0  0  0  0  0  0  0  0  0  0  0  0
    1.9685    4.7865    2.5034 O   0  0  0  0  0  0  0  0  0  0  0  0
    1.1676    3.8019    3.0829 C   0  0  0  0  0  0  0  0  0  0  0  0
    1.0665    2.6146    2.0886 C   0  0  0  0  0  0  0  0  0  0  0  0
   -7.3156    0.4983   -1.6749 H   0  0  0  0  0  0  0  0  0  0  0  0
   -8.0220   -1.1333   -1.2929 H   0  0  0  0  0  0  0  0  0  0  0  0
   -7.0214   -0.2431   -0.0735 H   0  0  0  0  0  0  0  0  0  0  0  0
   -5.8684   -1.3825   -2.6882 H   0  0  0  0  0  0  0  0  0  0  0  0
   -4.5742    0.6064   -2.0284 H   0  0  0  0  0  0  0  0  0  0  0  0
   -5.0217    0.2639   -0.2612 H   0  0  0  0  0  0  0  0  0  0  0  0
   -2.6548   -2.4339   -2.2064 H   0  0  0  0  0  0  0  0  0  0  0  0
   -2.7241   -2.2462    0.7838 H   0  0  0  0  0  0  0  0  0  0  0  0
   -3.1852   -3.8616    0.1988 H   0  0  0  0  0  0  0  0  0  0  0  0
   -1.6207   -3.1850   -0.2750 H   0  0  0  0  0  0  0  0  0  0  0  0
   -4.8499   -2.9518   -2.6688 H   0  0  0  0  0  0  0  0  0  0  0  0
   -4.5111   -4.0876   -1.2598 H   0  0  0  0  0  0  0  0  0  0  0  0
   -6.5803   -4.1941   -0.6480 H   0  0  0  0  0  0  0  0  0  0  0  0
   -7.4772   -2.8440    0.0792 H   0  0  0  0  0  0  0  0  0  0  0  0
   -7.4919   -3.0714   -1.7474 H   0  0  0  0  0  0  0  0  0  0  0  0
    2.5432    0.8986   -2.8194 H   0  0  0  0  0  0  0  0  0  0  0  0
    2.7071    2.3015   -1.6457 H   0  0  0  0  0  0  0  0  0  0  0  0
    1.0843    1.6240   -2.1051 H   0  0  0  0  0  0  0  0  0  0  0  0
    6.8265   -4.9292    2.6724 H   0  0  0  0  0  0  0  0  0  0  0  0
    6.5784   -3.8028    4.0283 H   0  0  0  0  0  0  0  0  0  0  0  0
    9.8089   -1.9188   -0.2838 H   0  0  0  0  0  0  0  0  0  0  0  0
    8.4149   -0.3733   -1.6042 H   0  0  0  0  0  0  0  0  0  0  0  0
    5.9515   -0.1510   -1.1257 H   0  0  0  0  0  0  0  0  0  0  0  0
   -3.7796    4.0190   -0.1447 H   0  0  0  0  0  0  0  0  0  0  0  0
    0.7389    4.7455   -0.5561 H   0  0  0  0  0  0  0  0  0  0  0  0
    2.2754    3.9330    0.0746 H   0  0  0  0  0  0  0  0  0  0  0  0
    0.4526    5.8741    1.5891 H   0  0  0  0  0  0  0  0  0  0  0  0
    2.1193    6.1242    1.0101 H   0  0  0  0  0  0  0  0  0  0  0  0
    0.1886    4.1964    3.3444 H   0  0  0  0  0  0  0  0  0  0  0  0
    1.6795    3.4458    3.9920 H   0  0  0  0  0  0  0  0  0  0  0  0
    0.4631    1.8372    2.5482 H   0  0  0  0  0  0  0  0  0  0  0  0
    2.1288    2.3451    1.8875 H   0  0  0  0  0  0  0  0  0  0  0  0
  1  2  1  0
  2  3  1  0
  3  4  1  0
  4  5  1  0
  5  6  1  0
  5  7  1  0
  7  8  1  0
  8  9  1  0
  4 10  1  0
 10 11  2  0
 11 12  1  0
 12 13  1  0
 13 14  1  0
 14 15  1  0
 15 16  2  0
 16 17  1  0
 17 18  1  0
 15 19  1  0
 19 20  1  0
 20 21  2  0
 21 22  1  0
 21 23  1  0
 23 24  1  0
 24 25  2  0
 25 26  1  0
 26 27  2  0
 27 28  1  0
 12 29  2  0
 29 30  1  0
 30 31  2  0
 31 32  1  0
 32 33  2  0
 33 34  1  0
 30 35  1  0
 35 36  1  0
 36 37  1  0
 37 38  1  0
 38 39  1  0
 39 40  1  0
  8  2  1  0
 34 10  1  0
 40 35  1  0
 17 13  2  0
 28 19  2  0
 34 29  1  0
 28 23  1  0
  1 41  1  0
  1 42  1  0
  1 43  1  0
  2 44  1  6
  3 45  1  0
  3 46  1  0
  5 47  1  0
  6 48  1  0
  6 49  1  0
  6 50  1  0
  7 51  1  0
  7 52  1  0
  9 53  1  0
  9 54  1  0
  9 55  1  0
 18 56  1  0
 18 57  1  0
 18 58  1  0
 22 59  1  0
 22 60  1  0
 25 61  1  0
 26 62  1  0
 27 63  1  0
 32 64  1  0
 36 65  1  0
 36 66  1  0
 37 67  1  0
 37 68  1  0
 39 69  1  0
 39 70  1  0
 40 71  1  0
 40 72  1  0
M  END
$$$$
[H]OC(=O)[C@@]([H])(N([H])C(=O)[C@@]([H])(N([H])C(=O)[C@@]([H])(N([H])C(=O)[C@@]([H])(N([H])C(=O)[C@@]([H])(N([H])C(=O)C([H])([H])[H])[C@@]([H])(O[H])C([H])([H])[H])C([H])([H])c1c([H])c([H])c([H])c([H])c1[H])C([H])([H])C([H])(C([H])([H])[H])C([H])([H])[H])[C@]([H])(O[H])C([H])([H])[H])C([H])([H])C([H])(C([H])([H])[H])C([H])([H])[H]
     RDKit          3D

 94 94  0  0  0  0  0  0  0  0999 V2000
    2.2474   -4.7537   -0.4677 C   0  0  0  0  0  0  0  0  0  0  0  0
    1.4321   -3.4830   -0.8454 C   0  0  0  0  0  0  0  0  0  0  0  0
    0.5522   -3.9152   -1.9395 C   0  0  0  0  0  0  0  0  0  0  0  0
    0.9116   -2.9730    0.4102 C   0  0  0  0  0  0  0  0  0  0  0  0
    0.0782   -1.7975    0.5411 C   0  0  2  0  0  0  0  0  0  0  0  0
   -1.1784   -1.8746   -0.1283 N   0  0  0  0  0  0  0  0  0  0  0  0
   -2.3046   -1.1858    0.4091 C   0  0  0  0  0  0  0  0  0  0  0  0
   -2.1777   -0.4909    1.4214 O   0  0  0  0  0  0  0  0  0  0  0  0
   -3.6539   -1.2862   -0.2309 C   0  0  2  0  0  0  0  0  0  0  0  0
   -3.6154   -1.9223   -1.5615 C   0  0  0  0  0  0  0  0  0  0  0  0
   -4.9579   -2.0238   -2.1717 C   0  0  0  0  0  0  0  0  0  0  0  0
   -5.7375   -3.1428   -1.8932 C   0  0  0  0  0  0  0  0  0  0  0  0
   -6.9842   -3.2860   -2.4457 C   0  0  0  0  0  0  0  0  0  0  0  0
   -7.5213   -2.3352   -3.2965 C   0  0  0  0  0  0  0  0  0  0  0  0
   -6.7286   -1.2401   -3.5535 C   0  0  0  0  0  0  0  0  0  0  0  0
   -5.4743   -1.0725   -3.0134 C   0  0  0  0  0  0  0  0  0  0  0  0
   -4.3107   -0.0247   -0.2476 N   0  0  0  0  0  0  0  0  0  0  0  0
   -4.9991    0.4834    0.8708 C   0  0  0  0  0  0  0  0  0  0  0  0
   -4.9942   -0.2097    1.9416 O   0  0  0  0  0  0  0  0  0  0  0  0
   -5.7071    1.7561    0.8498 C   0  0  1  0  0  0  0  0  0  0  0  0
   -5.5502    2.5931    1.9796 N   0  0  0  0  0  0  0  0  0  0  0  0
   -6.5612    2.8831    2.9367 C   0  0  0  0  0  0  0  0  0  0  0  0
   -6.3542    3.7686    4.0988 C   0  0  0  0  0  0  0  0  0  0  0  0
   -7.6805    2.3406    2.7581 O   0  0  0  0  0  0  0  0  0  0  0  0
   -5.7367    2.4134   -0.4887 C   0  0  2  0  0  0  0  0  0  0  0  0
   -4.5079    3.1566   -0.8865 C   0  0  0  0  0  0  0  0  0  0  0  0
   -6.8483    3.3036   -0.5617 O   0  0  0  0  0  0  0  0  0  0  0  0
    0.7896   -0.4886    0.3116 C   0  0  0  0  0  0  0  0  0  0  0  0
    0.2056    0.3354   -0.4277 O   0  0  0  0  0  0  0  0  0  0  0  0
    2.0122   -0.2012    0.8784 N   0  0  0  0  0  0  0  0  0  0  0  0
    2.8437    0.9659    0.8063 C   0  0  1  0  0  0  0  0  0  0  0  0
    3.3383    1.2157    2.2163 C   0  0  1  0  0  0  0  0  0  0  0  0
    4.0335   -0.0216    2.7370 C   0  0  0  0  0  0  0  0  0  0  0  0
    4.1544    2.2935    2.3642 O   0  0  0  0  0  0  0  0  0  0  0  0
    4.0327    0.6522   -0.1169 C   0  0  0  0  0  0  0  0  0  0  0  0
    3.8917   -0.4792   -0.7300 O   0  0  0  0  0  0  0  0  0  0  0  0
    5.0758    1.5080   -0.2171 N   0  0  0  0  0  0  0  0  0  0  0  0
    6.1375    2.3712   -0.3239 C   0  0  1  0  0  0  0  0  0  0  0  0
    7.4617    1.8257   -0.8504 C   0  0  0  0  0  0  0  0  0  0  0  0
    8.1002    0.7709   -0.0451 C   0  0  0  0  0  0  0  0  0  0  0  0
    7.3676   -0.5068    0.1789 C   0  0  0  0  0  0  0  0  0  0  0  0
    8.6202    1.2816    1.2949 C   0  0  0  0  0  0  0  0  0  0  0  0
    5.8162    3.5331   -1.1878 C   0  0  0  0  0  0  0  0  0  0  0  0
    6.7476    4.5210   -1.4344 O   0  0  0  0  0  0  0  0  0  0  0  0
    4.6632    3.6525   -1.7333 O   0  0  0  0  0  0  0  0  0  0  0  0
    1.5034   -5.4918   -0.0806 H   0  0  0  0  0  0  0  0  0  0  0  0
    2.8944   -4.4582    0.3684 H   0  0  0  0  0  0  0  0  0  0  0  0
    2.7972   -5.1421   -1.3348 H   0  0  0  0  0  0  0  0  0  0  0  0
    2.2634   -2.8131   -1.2373 H   0  0  0  0  0  0  0  0  0  0  0  0
    0.2000   -3.1410   -2.6470 H   0  0  0  0  0  0  0  0  0  0  0  0
   -0.3458   -4.4840   -1.6244 H   0  0  0  0  0  0  0  0  0  0  0  0
    1.1152   -4.6496   -2.5930 H   0  0  0  0  0  0  0  0  0  0  0  0
    1.8045   -2.8630    1.1139 H   0  0  0  0  0  0  0  0  0  0  0  0
    0.3626   -3.8446    0.9212 H   0  0  0  0  0  0  0  0  0  0  0  0
   -0.2096   -1.6710    1.6448 H   0  0  0  0  0  0  0  0  0  0  0  0
   -1.3329   -2.3972   -0.9910 H   0  0  0  0  0  0  0  0  0  0  0  0
   -4.2008   -1.9898    0.4990 H   0  0  0  0  0  0  0  0  0  0  0  0
   -2.9050   -1.4187   -2.2508 H   0  0  0  0  0  0  0  0  0  0  0  0
   -3.2306   -2.9786   -1.4631 H   0  0  0  0  0  0  0  0  0  0  0  0
   -5.3513   -3.9179   -1.2179 H   0  0  0  0  0  0  0  0  0  0  0  0
   -7.6174   -4.1657   -2.2298 H   0  0  0  0  0  0  0  0  0  0  0  0
   -8.5122   -2.4251   -3.7474 H   0  0  0  0  0  0  0  0  0  0  0  0
   -7.1678   -0.4955   -4.2258 H   0  0  0  0  0  0  0  0  0  0  0  0
   -4.8896   -0.1932   -3.2616 H   0  0  0  0  0  0  0  0  0  0  0  0
   -4.2734    0.5432   -1.1249 H   0  0  0  0  0  0  0  0  0  0  0  0
   -6.8488    1.3924    0.9509 H   0  0  0  0  0  0  0  0  0  0  0  0
   -4.6068    3.0572    2.1570 H   0  0  0  0  0  0  0  0  0  0  0  0
   -5.7268    4.6230    3.7334 H   0  0  0  0  0  0  0  0  0  0  0  0
   -7.3291    4.2345    4.4206 H   0  0  0  0  0  0  0  0  0  0  0  0
   -5.8483    3.2496    4.9204 H   0  0  0  0  0  0  0  0  0  0  0  0
   -5.9547    1.6514   -1.2571 H   0  0  0  0  0  0  0  0  0  0  0  0
   -4.8080    4.2168   -1.1090 H   0  0  0  0  0  0  0  0  0  0  0  0
   -4.0417    2.7878   -1.8455 H   0  0  0  0  0  0  0  0  0  0  0  0
   -3.7001    3.1742   -0.1303 H   0  0  0  0  0  0  0  0  0  0  0  0
   -7.6110    2.8699   -0.0908 H   0  0  0  0  0  0  0  0  0  0  0  0
    2.4331   -0.9786    1.4971 H   0  0  0  0  0  0  0  0  0  0  0  0
    2.3826    1.8539    0.3852 H   0  0  0  0  0  0  0  0  0  0  0  0
    2.4194    1.3664    2.8279 H   0  0  0  0  0  0  0  0  0  0  0  0
    4.8855    0.3075    3.3559 H   0  0  0  0  0  0  0  0  0  0  0  0
    3.3578   -0.6099    3.4006 H   0  0  0  0  0  0  0  0  0  0  0  0
    4.4376   -0.6347    1.9052 H   0  0  0  0  0  0  0  0  0  0  0  0
    5.0286    2.0183    2.7106 H   0  0  0  0  0  0  0  0  0  0  0  0
    5.5568    0.7964   -1.2681 H   0  0  0  0  0  0  0  0  0  0  0  0
    6.4174    2.8422    0.7023 H   0  0  0  0  0  0  0  0  0  0  0  0
    7.2375    1.4161   -1.8604 H   0  0  0  0  0  0  0  0  0  0  0  0
    8.1533    2.6700   -0.9503 H   0  0  0  0  0  0  0  0  0  0  0  0
    9.0439    0.4849   -0.6026 H   0  0  0  0  0  0  0  0  0  0  0  0
    6.6963   -0.4362    1.0641 H   0  0  0  0  0  0  0  0  0  0  0  0
    6.9466   -0.9683   -0.7105 H   0  0  0  0  0  0  0  0  0  0  0  0
    8.1595   -1.2537    0.5266 H   0  0  0  0  0  0  0  0  0  0  0  0
    9.6070    1.7988    1.1690 H   0  0  0  0  0  0  0  0  0  0  0  0
    8.7965    0.4012    1.9448 H   0  0  0  0  0  0  0  0  0  0  0  0
    7.9626    2.0016    1.7786 H   0  0  0  0  0  0  0  0  0  0  0  0
    7.1196    4.7535   -2.3497 H   0  0  0  0  0  0  0  0  0  0  0  0
  1  2  1  0
  2  3  1  0
  2  4  1  0
  4  5  1  0
  5  6  1  0
  6  7  1  0
  7  8  2  0
  7  9  1  0
  9 10  1  0
 10 11  1  0
 11 12  2  0
 12 13  1  0
 13 14  2  0
 14 15  1  0
 15 16  2  0
  9 17  1  0
 17 18  1  0
 18 19  2  0
 18 20  1  0
 20 21  1  0
 21 22  1  0
 22 23  1  0
 22 24  2  0
 20 25  1  0
 25 26  1  0
 25 27  1  0
  5 28  1  0
 28 29  2  0
 28 30  1  0
 30 31  1  0
 31 32  1  0
 32 33  1  0
 32 34  1  0
 31 35  1  0
 35 36  2  0
 35 37  1  0
 37 38  1  0
 38 39  1  0
 39 40  1  0
 40 41  1  0
 40 42  1  0
 38 43  1  0
 43 44  1  0
 43 45  2  0
 16 11  1  0
  1 46  1  0
  1 47  1  0
  1 48  1  0
  2 49  1  0
  3 50  1  0
  3 51  1  0
  3 52  1  0
  4 53  1  0
  4 54  1  0
  5 55  1  1
  6 56  1  0
  9 57  1  1
 10 58  1  0
 10 59  1  0
 12 60  1  0
 13 61  1  0
 14 62  1  0
 15 63  1  0
 16 64  1  0
 17 65  1  0
 20 66  1  1
 21 67  1  0
 23 68  1  0
 23 69  1  0
 23 70  1  0
 25 71  1  6
 26 72  1  0
 26 73  1  0
 26 74  1  0
 27 75  1  0
 30 76  1  0
 31 77  1  6
 32 78  1  1
 33 79  1  0
 33 80  1  0
 33 81  1  0
 34 82  1  0
 37 83  1  0
 38 84  1  1
 39 85  1  0
 39 86  1  0
 40 87  1  0
 41 88  1  0
 41 89  1  0
 41 90  1  0
 42 91  1  0
 42 92  1  0
 42 93  1  0
 44 94  1  0
M  END
$$$$
[H]c1c(S(=O)(=O)N([H])[H])c([H])c2c(nc(C([H])([H])N3C(=O)c4sc(N5C([H])([H])C([H])([H])OC([H])([H])C5([H])[H])nc4C3([H])[H])n2[H])c1[H]
     RDKit          3D

 47 51  0  0  0  0  0  0  0  0999 V2000
   -0.2447   -3.6507   -0.6295 O   0  0  0  0  0  0  0  0  0  0  0  0
   -0.6119   -2.6249    0.0068 C   0  0  0  0  0  0  0  0  0  0  0  0
    0.0040   -2.0500    1.1456 N   0  0  0  0  0  0  0  0  0  0  0  0
    1.2071   -2.5180    1.8407 C   0  0  0  0  0  0  0  0  0  0  0  0
    2.4256   -1.8703    1.2390 C   0  0  0  0  0  0  0  0  0  0  0  0
    3.1760   -2.3138    0.2274 N   0  0  0  0  0  0  0  0  0  0  0  0
    4.1888   -1.4604   -0.0330 C   0  0  0  0  0  0  0  0  0  0  0  0
    5.2214   -1.4366   -0.9425 C   0  0  0  0  0  0  0  0  0  0  0  0
    6.1148   -0.3881   -0.9474 C   0  0  0  0  0  0  0  0  0  0  0  0
    6.0079    0.6553   -0.0575 C   0  0  0  0  0  0  0  0  0  0  0  0
    4.9747    0.6309    0.8521 C   0  0  0  0  0  0  0  0  0  0  0  0
    4.0541   -0.4175    0.8814 C   0  0  0  0  0  0  0  0  0  0  0  0
    2.9754   -0.7040    1.6325 N   0  0  0  0  0  0  0  0  0  0  0  0
    7.1168    1.9904   -0.0376 S   0  0  0  0  0  0  0  0  0  0  0  0
    6.4915    3.2162   -1.1056 N   0  0  0  0  0  0  0  0  0  0  0  0
    8.4949    1.6142   -0.4609 O   0  0  0  0  0  0  0  0  0  0  0  0
    7.1332    2.6074    1.3400 O   0  0  0  0  0  0  0  0  0  0  0  0
   -0.7705   -0.8977    1.5161 C   0  0  0  0  0  0  0  0  0  0  0  0
   -1.9063   -0.7815    0.5460 C   0  0  0  0  0  0  0  0  0  0  0  0
   -2.9018    0.0377    0.3856 N   0  0  0  0  0  0  0  0  0  0  0  0
   -3.7553   -0.1447   -0.6024 C   0  0  0  0  0  0  0  0  0  0  0  0
   -4.9125    0.6465   -0.9439 N   0  0  0  0  0  0  0  0  0  0  0  0
   -5.2134    1.7805   -0.1405 C   0  0  0  0  0  0  0  0  0  0  0  0
   -6.7273    1.8928    0.0077 C   0  0  0  0  0  0  0  0  0  0  0  0
   -7.3542    1.8257   -1.2305 O   0  0  0  0  0  0  0  0  0  0  0  0
   -7.1709    0.5329   -1.7179 C   0  0  0  0  0  0  0  0  0  0  0  0
   -5.7198    0.2790   -2.0661 C   0  0  0  0  0  0  0  0  0  0  0  0
   -3.1319   -1.5444   -1.3541 S   0  0  0  0  0  0  0  0  0  0  0  0
   -1.7848   -1.8196   -0.3359 C   0  0  0  0  0  0  0  0  0  0  0  0
    1.1104   -2.2513    2.9178 H   0  0  0  0  0  0  0  0  0  0  0  0
    1.2917   -3.6250    1.8052 H   0  0  0  0  0  0  0  0  0  0  0  0
    5.3518   -2.2235   -1.6584 H   0  0  0  0  0  0  0  0  0  0  0  0
    6.9167   -0.3863   -1.6664 H   0  0  0  0  0  0  0  0  0  0  0  0
    4.8887    1.4403    1.5451 H   0  0  0  0  0  0  0  0  0  0  0  0
    2.6505   -0.0742    2.4034 H   0  0  0  0  0  0  0  0  0  0  0  0
    5.8641    3.8767   -0.5596 H   0  0  0  0  0  0  0  0  0  0  0  0
    5.8506    2.7752   -1.8134 H   0  0  0  0  0  0  0  0  0  0  0  0
   -0.1179   -0.0022    1.4295 H   0  0  0  0  0  0  0  0  0  0  0  0
   -1.1690   -0.9818    2.5562 H   0  0  0  0  0  0  0  0  0  0  0  0
   -4.8289    1.6000    0.8935 H   0  0  0  0  0  0  0  0  0  0  0  0
   -4.7711    2.7190   -0.4786 H   0  0  0  0  0  0  0  0  0  0  0  0
   -6.9193    2.8950    0.4397 H   0  0  0  0  0  0  0  0  0  0  0  0
   -7.1218    1.0890    0.6552 H   0  0  0  0  0  0  0  0  0  0  0  0
   -7.5296   -0.1649   -0.9342 H   0  0  0  0  0  0  0  0  0  0  0  0
   -7.7936    0.3357   -2.6132 H   0  0  0  0  0  0  0  0  0  0  0  0
   -5.6175   -0.8332   -2.1938 H   0  0  0  0  0  0  0  0  0  0  0  0
   -5.4367    0.7245   -3.0178 H   0  0  0  0  0  0  0  0  0  0  0  0
  1  2  2  0
  2  3  1  0
  3  4  1  0
  4  5  1  0
  5  6  2  0
  6  7  1  0
  7  8  2  0
  8  9  1  0
  9 10  2  0
 10 11  1  0
 11 12  2  0
 12 13  1  0
 10 14  1  0
 14 15  1  0
 14 16  2  0
 14 17  2  0
  3 18  1  0
 18 19  1  0
 19 20  1  0
 20 21  2  0
 21 22  1  0
 22 23  1  0
 23 24  1  0
 24 25  1  0
 25 26  1  0
 26 27  1  0
 21 28  1  0
 28 29  1  0
 29  2  1  0
 13  5  1  0
 29 19  2  0
 12  7  1  0
 27 22  1  0
  4 30  1  0
  4 31  1  0
  8 32  1  0
  9 33  1  0
 11 34  1  0
 13 35  1  0
 15 36  1  0
 15 37  1  0
 18 38  1  0
 18 39  1  0
 23 40  1  0
 23 41  1  0
 24 42  1  0
 24 43  1  0
 26 44  1  0
 26 45  1  0
 27 46  1  0
 27 47  1  0
M  END
$$$$
[H]c1nc(C(=O)OC([H])([H])[H])c([H])c([H])c1-c1c([H])c([H])c2c([H])nc(N([H])C(=O)C3([H])C([H])([H])C([H])([H])N([H])C([H])([H])C3([H])[H])c([H])c2c1[H]
     RDKit          3D

 51 54  0  0  0  0  0  0  0  0999 V2000
   10.4622    0.0073   -1.4915 C   0  0  0  0  0  0  0  0  0  0  0  0
    9.1876   -0.0817   -0.8846 O   0  0  0  0  0  0  0  0  0  0  0  0
    8.0362    0.4062   -1.4639 C   0  0  0  0  0  0  0  0  0  0  0  0
    8.1339    0.9556   -2.5876 O   0  0  0  0  0  0  0  0  0  0  0  0
    6.7162    0.3229   -0.8525 C   0  0  0  0  0  0  0  0  0  0  0  0
    6.5136   -0.2650    0.3818 C   0  0  0  0  0  0  0  0  0  0  0  0
    5.2729   -0.3555    0.9819 C   0  0  0  0  0  0  0  0  0  0  0  0
    4.1689    0.1595    0.3346 C   0  0  0  0  0  0  0  0  0  0  0  0
    4.3987    0.7409   -0.8960 C   0  0  0  0  0  0  0  0  0  0  0  0
    5.6244    0.8173   -1.4627 N   0  0  0  0  0  0  0  0  0  0  0  0
    2.8142    0.1191    0.8777 C   0  0  0  0  0  0  0  0  0  0  0  0
    2.6392    0.1874    2.2635 C   0  0  0  0  0  0  0  0  0  0  0  0
    1.4033    0.1533    2.8506 C   0  0  0  0  0  0  0  0  0  0  0  0
    0.2992    0.0479    2.0387 C   0  0  0  0  0  0  0  0  0  0  0  0
   -0.9500    0.0101    2.5857 C   0  0  0  0  0  0  0  0  0  0  0  0
   -2.0362   -0.0935    1.8002 N   0  0  0  0  0  0  0  0  0  0  0  0
   -1.9535   -0.1645    0.4547 C   0  0  0  0  0  0  0  0  0  0  0  0
   -3.1185   -0.2739   -0.3551 N   0  0  0  0  0  0  0  0  0  0  0  0
   -4.4169   -0.3088    0.2236 C   0  0  0  0  0  0  0  0  0  0  0  0
   -4.4952   -0.2375    1.4768 O   0  0  0  0  0  0  0  0  0  0  0  0
   -5.6412   -0.4248   -0.6038 C   0  0  0  0  0  0  0  0  0  0  0  0
   -6.8515   -0.4211    0.3057 C   0  0  0  0  0  0  0  0  0  0  0  0
   -8.1080   -0.5116   -0.4973 C   0  0  0  0  0  0  0  0  0  0  0  0
   -7.8614   -0.6386   -1.9199 N   0  0  0  0  0  0  0  0  0  0  0  0
   -7.0210    0.4153   -2.4319 C   0  0  0  0  0  0  0  0  0  0  0  0
   -5.8011    0.6745   -1.6019 C   0  0  0  0  0  0  0  0  0  0  0  0
   -0.6944   -0.1264   -0.0958 C   0  0  0  0  0  0  0  0  0  0  0  0
    0.4476   -0.0208    0.6699 C   0  0  0  0  0  0  0  0  0  0  0  0
    1.6974    0.0147    0.0938 C   0  0  0  0  0  0  0  0  0  0  0  0
   10.8059    1.0553   -1.5213 H   0  0  0  0  0  0  0  0  0  0  0  0
   10.3675   -0.4242   -2.5221 H   0  0  0  0  0  0  0  0  0  0  0  0
   11.1807   -0.6373   -0.9614 H   0  0  0  0  0  0  0  0  0  0  0  0
    7.4061   -0.6658    0.8749 H   0  0  0  0  0  0  0  0  0  0  0  0
    5.1415   -0.8208    1.9499 H   0  0  0  0  0  0  0  0  0  0  0  0
    3.5172    1.1528   -1.4133 H   0  0  0  0  0  0  0  0  0  0  0  0
    3.5194    0.2689    2.8685 H   0  0  0  0  0  0  0  0  0  0  0  0
    1.3313    0.2088    3.9097 H   0  0  0  0  0  0  0  0  0  0  0  0
   -1.0401    0.0656    3.6601 H   0  0  0  0  0  0  0  0  0  0  0  0
   -3.0487   -0.3322   -1.3921 H   0  0  0  0  0  0  0  0  0  0  0  0
   -5.5556   -1.3901   -1.1508 H   0  0  0  0  0  0  0  0  0  0  0  0
   -6.8230    0.5598    0.8490 H   0  0  0  0  0  0  0  0  0  0  0  0
   -6.7229   -1.1937    1.0654 H   0  0  0  0  0  0  0  0  0  0  0  0
   -8.6537   -1.4336   -0.1906 H   0  0  0  0  0  0  0  0  0  0  0  0
   -8.7604    0.3359   -0.2870 H   0  0  0  0  0  0  0  0  0  0  0  0
   -7.5445   -1.5959   -2.1834 H   0  0  0  0  0  0  0  0  0  0  0  0
   -7.6767    1.3281   -2.5277 H   0  0  0  0  0  0  0  0  0  0  0  0
   -6.7398    0.1507   -3.4661 H   0  0  0  0  0  0  0  0  0  0  0  0
   -5.9574    1.6309   -1.0281 H   0  0  0  0  0  0  0  0  0  0  0  0
   -4.8790    0.8459   -2.2082 H   0  0  0  0  0  0  0  0  0  0  0  0
   -0.5729   -0.1796   -1.1684 H   0  0  0  0  0  0  0  0  0  0  0  0
    1.8381   -0.0376   -0.9745 H   0  0  0  0  0  0  0  0  0  0  0  0
  1  2  1  0
  2  3  1  0
  3  4  2  0
  3  5  1  0
  5  6  2  0
  6  7  1  0
  7  8  2  0
  8  9  1  0
  9 10  2  0
  8 11  1  0
 11 12  2  0
 12 13  1  0
 13 14  2  0
 14 15  1  0
 15 16  2  0
 16 17  1  0
 17 18  1  0
 18 19  1  0
 19 20  2  0
 19 21  1  0
 21 22  1  0
 22 23  1  0
 23 24  1  0
 24 25  1  0
 25 26  1  0
 17 27  2  0
 27 28  1  0
 28 29  2  0
 10  5  1  0
 29 11  1  0
 28 14  1  0
 26 21  1  0
  1 30  1  0
  1 31  1  0
  1 32  1  0
  6 33  1  0
  7 34  1  0
  9 35  1  0
 12 36  1  0
 13 37  1  0
 15 38  1  0
 18 39  1  0
 21 40  1  0
 22 41  1  0
 22 42  1  0
 23 43  1  0
 23 44  1  0
 24 45  1  0
 25 46  1  0
 25 47  1  0
 26 48  1  0
 26 49  1  0
 27 50  1  0
 29 51  1  0
M  END
$$$$
[H]OC(=O)c1c([H])c([H])c(C2([H])Sc3c([H])c(F)c(F)c([H])c3-c3c([H])c(N([H])S(=O)(=O)c4c([H])c([H])c([H])c([H])c4[H])c([H])c([H])c32)c([H])c1[H]
     RDKit          3D

 52 56  0  0  0  0  0  0  0  0999 V2000
    4.7832   -3.1588    3.2785 O   0  0  0  0  0  0  0  0  0  0  0  0
    3.6527   -2.6204    3.8614 C   0  0  0  0  0  0  0  0  0  0  0  0
    3.2123   -3.1330    4.9148 O   0  0  0  0  0  0  0  0  0  0  0  0
    3.0112   -1.4774    3.2337 C   0  0  0  0  0  0  0  0  0  0  0  0
    1.8710   -0.8959    3.7748 C   0  0  0  0  0  0  0  0  0  0  0  0
    1.2384    0.1799    3.2155 C   0  0  0  0  0  0  0  0  0  0  0  0
    1.7499    0.7140    2.0654 C   0  0  0  0  0  0  0  0  0  0  0  0
    2.8777    0.1579    1.5086 C   0  0  0  0  0  0  0  0  0  0  0  0
    3.5096   -0.9195    2.0705 C   0  0  0  0  0  0  0  0  0  0  0  0
    1.1491    1.8883    1.3536 C   0  0  0  0  0  0  0  0  0  0  0  0
    2.4124    3.0286    0.8613 S   0  0  0  0  0  0  0  0  0  0  0  0
    2.5114    3.0430   -0.9142 C   0  0  0  0  0  0  0  0  0  0  0  0
    3.5596    3.7200   -1.5123 C   0  0  0  0  0  0  0  0  0  0  0  0
    3.6453    3.7860   -2.8676 C   0  0  0  0  0  0  0  0  0  0  0  0
    4.6898    4.4602   -3.4361 F   0  0  0  0  0  0  0  0  0  0  0  0
    2.7091    3.1925   -3.6810 C   0  0  0  0  0  0  0  0  0  0  0  0
    2.7600    3.2373   -5.0399 F   0  0  0  0  0  0  0  0  0  0  0  0
    1.6680    2.5188   -3.0485 C   0  0  0  0  0  0  0  0  0  0  0  0
    1.5619    2.4387   -1.6786 C   0  0  0  0  0  0  0  0  0  0  0  0
    0.4410    1.6524   -1.0977 C   0  0  0  0  0  0  0  0  0  0  0  0
   -0.5027    1.1240   -1.9740 C   0  0  0  0  0  0  0  0  0  0  0  0
   -1.6311    0.4016   -1.5465 C   0  0  0  0  0  0  0  0  0  0  0  0
   -2.5337   -0.1291   -2.5100 N   0  0  0  0  0  0  0  0  0  0  0  0
   -3.0422   -1.7336   -2.6991 S   0  0  0  0  0  0  0  0  0  0  0  0
   -3.9451   -1.8230   -3.9128 O   0  0  0  0  0  0  0  0  0  0  0  0
   -1.8381   -2.6074   -2.9986 O   0  0  0  0  0  0  0  0  0  0  0  0
   -3.8750   -2.2962   -1.2814 C   0  0  0  0  0  0  0  0  0  0  0  0
   -3.2771   -3.1775   -0.4043 C   0  0  0  0  0  0  0  0  0  0  0  0
   -3.9323   -3.6401    0.7407 C   0  0  0  0  0  0  0  0  0  0  0  0
   -5.2009   -3.2114    1.0047 C   0  0  0  0  0  0  0  0  0  0  0  0
   -5.8130   -2.3248    0.1296 C   0  0  0  0  0  0  0  0  0  0  0  0
   -5.1551   -1.8755   -0.9975 C   0  0  0  0  0  0  0  0  0  0  0  0
   -1.7729    0.2328   -0.1983 C   0  0  0  0  0  0  0  0  0  0  0  0
   -0.8316    0.7593    0.6619 C   0  0  0  0  0  0  0  0  0  0  0  0
    0.2846    1.4714    0.2507 C   0  0  0  0  0  0  0  0  0  0  0  0
    5.6976   -2.9341    3.6244 H   0  0  0  0  0  0  0  0  0  0  0  0
    1.4432   -1.3099    4.6997 H   0  0  0  0  0  0  0  0  0  0  0  0
    0.3596    0.5878    3.6840 H   0  0  0  0  0  0  0  0  0  0  0  0
    3.2920    0.5819    0.5877 H   0  0  0  0  0  0  0  0  0  0  0  0
    4.3953   -1.3460    1.6211 H   0  0  0  0  0  0  0  0  0  0  0  0
    0.5501    2.4029    2.1748 H   0  0  0  0  0  0  0  0  0  0  0  0
    4.2914    4.1838   -0.8595 H   0  0  0  0  0  0  0  0  0  0  0  0
    0.9386    2.0539   -3.6833 H   0  0  0  0  0  0  0  0  0  0  0  0
   -0.4658    1.2152   -3.0467 H   0  0  0  0  0  0  0  0  0  0  0  0
   -2.9424    0.5883   -3.2046 H   0  0  0  0  0  0  0  0  0  0  0  0
   -2.2721   -3.5055   -0.6301 H   0  0  0  0  0  0  0  0  0  0  0  0
   -3.3871   -4.3309    1.3736 H   0  0  0  0  0  0  0  0  0  0  0  0
   -5.7186   -3.5691    1.8974 H   0  0  0  0  0  0  0  0  0  0  0  0
   -6.8013   -2.0054    0.3566 H   0  0  0  0  0  0  0  0  0  0  0  0
   -5.6877   -1.1840   -1.6416 H   0  0  0  0  0  0  0  0  0  0  0  0
   -2.6433   -0.3015    0.1918 H   0  0  0  0  0  0  0  0  0  0  0  0
   -0.9966    0.5943    1.7276 H   0  0  0  0  0  0  0  0  0  0  0  0
  1  2  1  0
  2  3  2  0
  2  4  1  0
  4  5  2  0
  5  6  1  0
  6  7  2  0
  7  8  1  0
  8  9  2  0
  7 10  1  0
 10 11  1  0
 11 12  1  0
 12 13  2  0
 13 14  1  0
 14 15  1  0
 14 16  2  0
 16 17  1  0
 16 18  1  0
 18 19  2  0
 19 20  1  0
 20 21  2  0
 21 22  1  0
 22 23  1  0
 23 24  1  0
 24 25  2  0
 24 26  2  0
 24 27  1  0
 27 28  2  0
 28 29  1  0
 29 30  2  0
 30 31  1  0
 31 32  2  0
 22 33  2  0
 33 34  1  0
 34 35  2  0
  9  4  1  0
 35 10  1  0
 19 12  1  0
 35 20  1  0
 32 27  1  0
  1 36  1  0
  5 37  1  0
  6 38  1  0
  8 39  1  0
  9 40  1  0
 10 41  1  0
 13 42  1  0
 18 43  1  0
 21 44  1  0
 23 45  1  0
 28 46  1  0
 29 47  1  0
 30 48  1  0
 31 49  1  0
 32 50  1  0
 33 51  1  0
 34 52  1  0
M  END
$$$$
[H]c1nc([H])c([H])c(-c2nc(-c3c([H])nn([H])c3[H])n([H])c2-c2sc(C#N)c([H])c2[H])c1[H]
     RDKit          3D

 33 36  0  0  0  0  0  0  0  0999 V2000
    6.4111    2.3875   -1.1534 N   0  0  0  0  0  0  0  0  0  0  0  0
    5.3584    2.1078   -0.7647 C   0  0  0  0  0  0  0  0  0  0  0  0
    4.0258    1.7422   -0.2972 C   0  0  0  0  0  0  0  0  0  0  0  0
    3.5623    1.7192    0.9907 C   0  0  0  0  0  0  0  0  0  0  0  0
    2.2919    1.3474    1.1833 C   0  0  0  0  0  0  0  0  0  0  0  0
    1.5525    1.0190    0.0772 C   0  0  0  0  0  0  0  0  0  0  0  0
    2.6591    1.2402   -1.1964 S   0  0  0  0  0  0  0  0  0  0  0  0
    0.1535    0.5985    0.0362 C   0  0  0  0  0  0  0  0  0  0  0  0
   -0.9173    1.4107    0.2049 N   0  0  0  0  0  0  0  0  0  0  0  0
   -2.0686    0.7292    0.1032 C   0  0  0  0  0  0  0  0  0  0  0  0
   -1.7113   -0.5306   -0.1335 N   0  0  0  0  0  0  0  0  0  0  0  0
   -0.3633   -0.6609   -0.1830 C   0  0  0  0  0  0  0  0  0  0  0  0
    0.3789   -1.8885   -0.4120 C   0  0  0  0  0  0  0  0  0  0  0  0
    1.1605   -2.1113   -1.5220 C   0  0  0  0  0  0  0  0  0  0  0  0
    1.8376   -3.3134   -1.6433 C   0  0  0  0  0  0  0  0  0  0  0  0
    1.7638   -4.2730   -0.7219 N   0  0  0  0  0  0  0  0  0  0  0  0
    1.0101   -4.0913    0.3743 C   0  0  0  0  0  0  0  0  0  0  0  0
    0.3192   -2.9005    0.5280 C   0  0  0  0  0  0  0  0  0  0  0  0
   -3.4116    1.2721    0.2329 C   0  0  0  0  0  0  0  0  0  0  0  0
   -3.8266    2.5571    0.4997 C   0  0  0  0  0  0  0  0  0  0  0  0
   -5.1686    2.5743    0.5185 N   0  0  0  0  0  0  0  0  0  0  0  0
   -5.6141    1.3647    0.2769 N   0  0  0  0  0  0  0  0  0  0  0  0
   -4.5616    0.5244    0.0935 C   0  0  0  0  0  0  0  0  0  0  0  0
    4.2551    2.0066    1.8088 H   0  0  0  0  0  0  0  0  0  0  0  0
    1.8288    1.2973    2.1990 H   0  0  0  0  0  0  0  0  0  0  0  0
   -0.8377    2.4310    0.3891 H   0  0  0  0  0  0  0  0  0  0  0  0
    1.2557   -1.3705   -2.3095 H   0  0  0  0  0  0  0  0  0  0  0  0
    2.4537   -3.4889   -2.5150 H   0  0  0  0  0  0  0  0  0  0  0  0
    0.9396   -4.8732    1.1413 H   0  0  0  0  0  0  0  0  0  0  0  0
   -0.2872   -2.7688    1.4246 H   0  0  0  0  0  0  0  0  0  0  0  0
   -3.1875    3.4121    0.6664 H   0  0  0  0  0  0  0  0  0  0  0  0
   -6.6029    1.0657    0.2275 H   0  0  0  0  0  0  0  0  0  0  0  0
   -4.6591   -0.5363   -0.1240 H   0  0  0  0  0  0  0  0  0  0  0  0
  1  2  3  0
  2  3  1  0
  3  4  2  0
  4  5  1  0
  5  6  2  0
  6  7  1  0
  6  8  1  0
  8  9  1  0
  9 10  1  0
 10 11  2  0
 11 12  1  0
 12 13  1  0
 13 14  2  0
 14 15  1  0
 15 16  2  0
 16 17  1  0
 17 18  2  0
 10 19  1  0
 19 20  1  0
 20 21  2  0
 21 22  1  0
 22 23  1  0
  7  3  1  0
 12  8  2  0
 18 13  1  0
 23 19  2  0
  4 24  1  0
  5 25  1  0
  9 26  1  0
 14 27  1  0
 15 28  1  0
 17 29  1  0
 18 30  1  0
 20 31  1  0
 22 32  1  0
 23 33  1  0
M  END
$$$$
[H]c1c(C(=O)C([H])([H])[H])c([H])c2sc(S(=O)(=O)C([H])([H])[H])c(N(C(=O)C3(C([H])([H])[H])C([H])([H])C3(Cl)Cl)C([H])([H])[H])c2c1[H]
     RDKit          3D

 43 45  0  0  0  0  0  0  0  0999 V2000
    6.3057   -1.0867    0.3021 C   0  0  0  0  0  0  0  0  0  0  0  0
    5.0984   -1.6952   -0.3118 C   0  0  0  0  0  0  0  0  0  0  0  0
    5.2291   -2.7652   -0.9402 O   0  0  0  0  0  0  0  0  0  0  0  0
    3.7817   -1.1143   -0.2197 C   0  0  0  0  0  0  0  0  0  0  0  0
    2.6557   -1.6584   -0.7758 C   0  0  0  0  0  0  0  0  0  0  0  0
    1.4181   -1.0754   -0.6649 C   0  0  0  0  0  0  0  0  0  0  0  0
    1.2271    0.1363    0.0383 C   0  0  0  0  0  0  0  0  0  0  0  0
    0.0735    0.8333    0.2387 C   0  0  0  0  0  0  0  0  0  0  0  0
   -1.2169    0.3601   -0.3031 N   0  0  0  0  0  0  0  0  0  0  0  0
   -1.7559    1.1648   -1.3440 C   0  0  0  0  0  0  0  0  0  0  0  0
   -1.7719   -0.8092    0.2393 C   0  0  0  0  0  0  0  0  0  0  0  0
   -1.1030   -1.3776    1.1879 O   0  0  0  0  0  0  0  0  0  0  0  0
   -3.0101   -1.4664   -0.1326 C   0  0  0  0  0  0  0  0  0  0  0  0
   -3.9182   -0.9631   -1.2284 C   0  0  0  0  0  0  0  0  0  0  0  0
   -3.0841   -2.9968   -0.0183 C   0  0  0  0  0  0  0  0  0  0  0  0
   -3.7377   -2.1877    1.0098 C   0  0  0  0  0  0  0  0  0  0  0  0
   -3.0258   -2.2239    2.6158 Cl  0  0  0  0  0  0  0  0  0  0  0  0
   -5.5164   -1.9975    1.0060 Cl  0  0  0  0  0  0  0  0  0  0  0  0
    0.1609    1.9820    0.9610 C   0  0  0  0  0  0  0  0  0  0  0  0
   -1.0892    3.1238    1.4219 S   0  0  0  0  0  0  0  0  0  0  0  0
   -1.2885    4.3884    0.2105 C   0  0  0  0  0  0  0  0  0  0  0  0
   -2.3763    2.4841    1.7703 O   0  0  0  0  0  0  0  0  0  0  0  0
   -0.6027    3.8027    2.6995 O   0  0  0  0  0  0  0  0  0  0  0  0
    1.8146    2.0843    1.3497 S   0  0  0  0  0  0  0  0  0  0  0  0
    2.3644    0.6646    0.5869 C   0  0  0  0  0  0  0  0  0  0  0  0
    3.6285    0.0673    0.4725 C   0  0  0  0  0  0  0  0  0  0  0  0
    6.3722    0.0112    0.1030 H   0  0  0  0  0  0  0  0  0  0  0  0
    6.3468   -1.2330    1.3943 H   0  0  0  0  0  0  0  0  0  0  0  0
    7.2256   -1.5377   -0.1192 H   0  0  0  0  0  0  0  0  0  0  0  0
    2.7844   -2.6049   -1.3283 H   0  0  0  0  0  0  0  0  0  0  0  0
    0.6071   -1.5986   -1.1464 H   0  0  0  0  0  0  0  0  0  0  0  0
   -2.0384    0.6198   -2.2621 H   0  0  0  0  0  0  0  0  0  0  0  0
   -2.5985    1.8224   -1.0293 H   0  0  0  0  0  0  0  0  0  0  0  0
   -0.9855    1.9141   -1.7152 H   0  0  0  0  0  0  0  0  0  0  0  0
   -4.1689    0.0820   -1.0452 H   0  0  0  0  0  0  0  0  0  0  0  0
   -4.9085   -1.5239   -1.1605 H   0  0  0  0  0  0  0  0  0  0  0  0
   -3.5432   -1.1773   -2.2361 H   0  0  0  0  0  0  0  0  0  0  0  0
   -3.7086   -3.5691   -0.7038 H   0  0  0  0  0  0  0  0  0  0  0  0
   -2.1075   -3.4786    0.1966 H   0  0  0  0  0  0  0  0  0  0  0  0
   -0.3545    4.4655   -0.3614 H   0  0  0  0  0  0  0  0  0  0  0  0
   -2.1753    4.1664   -0.4005 H   0  0  0  0  0  0  0  0  0  0  0  0
   -1.4454    5.3799    0.6916 H   0  0  0  0  0  0  0  0  0  0  0  0
    4.4371    0.5873    0.9510 H   0  0  0  0  0  0  0  0  0  0  0  0
  1  2  1  0
  2  3  2  0
  2  4  1  0
  4  5  2  0
  5  6  1  0
  6  7  2  0
  7  8  1  0
  8  9  1  0
  9 10  1  0
  9 11  1  0
 11 12  2  0
 11 13  1  0
 13 14  1  0
 13 15  1  0
 15 16  1  0
 16 17  1  0
 16 18  1  0
  8 19  2  0
 19 20  1  0
 20 21  1  0
 20 22  2  0
 20 23  2  0
 19 24  1  0
 24 25  1  0
 25 26  2  0
 26  4  1  0
 25  7  1  0
 16 13  1  0
  1 27  1  0
  1 28  1  0
  1 29  1  0
  5 30  1  0
  6 31  1  0
 10 32  1  0
 10 33  1  0
 10 34  1  0
 14 35  1  0
 14 36  1  0
 14 37  1  0
 15 38  1  0
 15 39  1  0
 21 40  1  0
 21 41  1  0
 21 42  1  0
 26 43  1  0
M  END
$$$$
[H]N=C(c1c([H])c([H])c([H])c(N([H])C(=O)[C@@]([H])(N([H])C(=O)[C@@]([H])(N([H])C(=O)[C@]([H])(N([H])C(=O)[C@@]([H])(N([H])S(=O)(=O)C([H])([H])[H])C([H])([H])c2c([H])c([H])c(Br)c([H])c2[H])C([H])([H])C([H])([H])C(=O)N([H])[H])C([H])([H])C([H])([H])C(=O)N([H])[H])C([H])([H])C([H])([H])C(=O)N([H])[H])c1[H])N([H])[H]
     RDKit          3D

 96 97  0  0  0  0  0  0  0  0999 V2000
   -5.5804   -4.1053   -1.1613 C   0  0  0  0  0  0  0  0  0  0  0  0
   -7.1362   -3.8972   -0.3239 S   0  0  0  0  0  0  0  0  0  0  0  0
   -8.2411   -3.4770   -1.2646 O   0  0  0  0  0  0  0  0  0  0  0  0
   -7.5422   -5.2580    0.1799 O   0  0  0  0  0  0  0  0  0  0  0  0
   -6.9971   -2.8795    1.0243 N   0  0  0  0  0  0  0  0  0  0  0  0
   -6.5727   -1.5293    0.7448 C   0  0  1  0  0  0  0  0  0  0  0  0
   -7.5246   -0.4983    1.1721 C   0  0  0  0  0  0  0  0  0  0  0  0
   -7.2271    0.9094    0.9844 C   0  0  0  0  0  0  0  0  0  0  0  0
   -7.4966    1.6360   -0.1451 C   0  0  0  0  0  0  0  0  0  0  0  0
   -7.2059    2.9613   -0.1971 C   0  0  0  0  0  0  0  0  0  0  0  0
   -6.6364    3.5974    0.8803 C   0  0  0  0  0  0  0  0  0  0  0  0
   -6.2259    5.4622    0.8149 Br  0  0  0  0  0  0  0  0  0  0  0  0
   -6.3440    2.9103    2.0420 C   0  0  0  0  0  0  0  0  0  0  0  0
   -6.6412    1.5674    2.0880 C   0  0  0  0  0  0  0  0  0  0  0  0
   -5.2430   -1.3452    1.3586 C   0  0  0  0  0  0  0  0  0  0  0  0
   -4.8116   -2.0762    2.3170 O   0  0  0  0  0  0  0  0  0  0  0  0
   -4.3245   -0.3483    0.9370 N   0  0  0  0  0  0  0  0  0  0  0  0
   -3.0277   -0.1080    1.4801 C   0  0  2  0  0  0  0  0  0  0  0  0
   -2.6753    1.3221    1.6934 C   0  0  0  0  0  0  0  0  0  0  0  0
   -2.6905    2.1393    0.4373 C   0  0  0  0  0  0  0  0  0  0  0  0
   -2.3071    3.5306    0.7915 C   0  0  0  0  0  0  0  0  0  0  0  0
   -2.2212    4.5016   -0.2378 N   0  0  0  0  0  0  0  0  0  0  0  0
   -2.0547    3.8836    1.9668 O   0  0  0  0  0  0  0  0  0  0  0  0
   -1.9955   -0.8248    0.6509 C   0  0  0  0  0  0  0  0  0  0  0  0
   -2.3392   -1.8791    0.0787 O   0  0  0  0  0  0  0  0  0  0  0  0
   -0.6926   -0.3384    0.5180 N   0  0  0  0  0  0  0  0  0  0  0  0
    0.3859   -0.9529   -0.2329 C   0  0  1  0  0  0  0  0  0  0  0  0
    0.7858   -0.1807   -1.4625 C   0  0  0  0  0  0  0  0  0  0  0  0
   -0.2620    0.0040   -2.4948 C   0  0  0  0  0  0  0  0  0  0  0  0
   -0.7760   -1.2402   -3.1001 C   0  0  0  0  0  0  0  0  0  0  0  0
   -1.8534   -1.2661   -4.0172 N   0  0  0  0  0  0  0  0  0  0  0  0
   -0.2596   -2.3528   -2.8146 O   0  0  0  0  0  0  0  0  0  0  0  0
    1.5789   -0.9170    0.6884 C   0  0  0  0  0  0  0  0  0  0  0  0
    1.5008   -0.4399    1.8554 O   0  0  0  0  0  0  0  0  0  0  0  0
    2.8376   -1.4180    0.2674 N   0  0  0  0  0  0  0  0  0  0  0  0
    3.9847   -1.3668    1.1392 C   0  0  1  0  0  0  0  0  0  0  0  0
    4.7927   -2.6195    1.1940 C   0  0  0  0  0  0  0  0  0  0  0  0
    5.3650   -3.0218   -0.1395 C   0  0  0  0  0  0  0  0  0  0  0  0
    6.1371   -4.2669   -0.0124 C   0  0  0  0  0  0  0  0  0  0  0  0
    6.8984   -4.7606   -1.0955 N   0  0  0  0  0  0  0  0  0  0  0  0
    6.1232   -4.9083    1.0757 O   0  0  0  0  0  0  0  0  0  0  0  0
    4.8874   -0.2389    0.6369 C   0  0  0  0  0  0  0  0  0  0  0  0
    4.4999    0.3754   -0.3689 O   0  0  0  0  0  0  0  0  0  0  0  0
    6.0659    0.0175    1.3371 N   0  0  0  0  0  0  0  0  0  0  0  0
    6.9745    1.0359    0.9707 C   0  0  0  0  0  0  0  0  0  0  0  0
    7.9389    1.4311    1.9176 C   0  0  0  0  0  0  0  0  0  0  0  0
    8.8540    2.4046    1.6580 C   0  0  0  0  0  0  0  0  0  0  0  0
    8.8647    3.0420    0.4422 C   0  0  0  0  0  0  0  0  0  0  0  0
    7.9453    2.7016   -0.5335 C   0  0  0  0  0  0  0  0  0  0  0  0
    7.0290    1.6982   -0.2194 C   0  0  0  0  0  0  0  0  0  0  0  0
    7.9402    3.3779   -1.8115 C   0  0  0  0  0  0  0  0  0  0  0  0
    8.8684    4.4138   -2.0600 N   0  0  0  0  0  0  0  0  0  0  0  0
    7.1205    3.0785   -2.7320 N   0  0  0  0  0  0  0  0  0  0  0  0
   -4.7821   -4.0931   -0.3704 H   0  0  0  0  0  0  0  0  0  0  0  0
   -5.3691   -3.3502   -1.9153 H   0  0  0  0  0  0  0  0  0  0  0  0
   -5.4898   -5.0883   -1.6417 H   0  0  0  0  0  0  0  0  0  0  0  0
   -6.4234   -3.3128    1.7720 H   0  0  0  0  0  0  0  0  0  0  0  0
   -6.4300   -1.4903   -0.3631 H   0  0  0  0  0  0  0  0  0  0  0  0
   -8.5552   -0.6283    0.6983 H   0  0  0  0  0  0  0  0  0  0  0  0
   -7.7736   -0.6587    2.2646 H   0  0  0  0  0  0  0  0  0  0  0  0
   -7.9496    1.0817   -0.9703 H   0  0  0  0  0  0  0  0  0  0  0  0
   -7.4408    3.4967   -1.1216 H   0  0  0  0  0  0  0  0  0  0  0  0
   -5.8948    3.3791    2.9119 H   0  0  0  0  0  0  0  0  0  0  0  0
   -6.4086    1.0257    3.0062 H   0  0  0  0  0  0  0  0  0  0  0  0
   -4.6449    0.2664    0.1286 H   0  0  0  0  0  0  0  0  0  0  0  0
   -2.9785   -0.6529    2.4767 H   0  0  0  0  0  0  0  0  0  0  0  0
   -1.7086    1.4643    2.2026 H   0  0  0  0  0  0  0  0  0  0  0  0
   -3.4204    1.8280    2.3829 H   0  0  0  0  0  0  0  0  0  0  0  0
   -3.7578    2.1759    0.0823 H   0  0  0  0  0  0  0  0  0  0  0  0
   -2.0266    1.7579   -0.3456 H   0  0  0  0  0  0  0  0  0  0  0  0
   -2.5777    4.3392   -1.2231 H   0  0  0  0  0  0  0  0  0  0  0  0
   -1.7954    5.4470   -0.0894 H   0  0  0  0  0  0  0  0  0  0  0  0
   -0.4432    0.5680    1.0074 H   0  0  0  0  0  0  0  0  0  0  0  0
    0.1655   -2.0072   -0.4491 H   0  0  0  0  0  0  0  0  0  0  0  0
    1.6235   -0.7482   -1.9442 H   0  0  0  0  0  0  0  0  0  0  0  0
    1.1545    0.8058   -1.1188 H   0  0  0  0  0  0  0  0  0  0  0  0
   -1.1408    0.5942   -2.1760 H   0  0  0  0  0  0  0  0  0  0  0  0
    0.1994    0.6169   -3.3186 H   0  0  0  0  0  0  0  0  0  0  0  0
   -1.8892   -0.6342   -4.8314 H   0  0  0  0  0  0  0  0  0  0  0  0
   -2.6242   -1.9442   -3.8583 H   0  0  0  0  0  0  0  0  0  0  0  0
    2.9244   -1.8269   -0.6801 H   0  0  0  0  0  0  0  0  0  0  0  0
    3.6988   -1.0287    2.1581 H   0  0  0  0  0  0  0  0  0  0  0  0
    5.6477   -2.4733    1.8946 H   0  0  0  0  0  0  0  0  0  0  0  0
    4.1165   -3.4334    1.5926 H   0  0  0  0  0  0  0  0  0  0  0  0
    6.0071   -2.1791   -0.4796 H   0  0  0  0  0  0  0  0  0  0  0  0
    4.5680   -3.1423   -0.8742 H   0  0  0  0  0  0  0  0  0  0  0  0
    7.8117   -5.2086   -0.9032 H   0  0  0  0  0  0  0  0  0  0  0  0
    6.5530   -4.6778   -2.0635 H   0  0  0  0  0  0  0  0  0  0  0  0
    6.3158   -0.5730    2.1928 H   0  0  0  0  0  0  0  0  0  0  0  0
    7.9438    0.9380    2.8843 H   0  0  0  0  0  0  0  0  0  0  0  0
    9.5771    2.6605    2.4490 H   0  0  0  0  0  0  0  0  0  0  0  0
    9.5953    3.8147    0.2439 H   0  0  0  0  0  0  0  0  0  0  0  0
    6.3479    1.4492   -0.9961 H   0  0  0  0  0  0  0  0  0  0  0  0
    9.5899    4.2914   -2.7853 H   0  0  0  0  0  0  0  0  0  0  0  0
    8.8288    5.2957   -1.5204 H   0  0  0  0  0  0  0  0  0  0  0  0
    6.3823    2.3688   -2.7355 H   0  0  0  0  0  0  0  0  0  0  0  0
  1  2  1  0
  2  3  2  0
  2  4  2  0
  2  5  1  0
  5  6  1  0
  6  7  1  0
  7  8  1  0
  8  9  2  0
  9 10  1  0
 10 11  2  0
 11 12  1  0
 11 13  1  0
 13 14  2  0
  6 15  1  0
 15 16  2  0
 15 17  1  0
 17 18  1  0
 18 19  1  0
 19 20  1  0
 20 21  1  0
 21 22  1  0
 21 23  2  0
 18 24  1  0
 24 25  2  0
 24 26  1  0
 26 27  1  0
 27 28  1  0
 28 29  1  0
 29 30  1  0
 30 31  1  0
 30 32  2  0
 27 33  1  0
 33 34  2  0
 33 35  1  0
 35 36  1  0
 36 37  1  0
 37 38  1  0
 38 39  1  0
 39 40  1  0
 39 41  2  0
 36 42  1  0
 42 43  2  0
 42 44  1  0
 44 45  1  0
 45 46  2  0
 46 47  1  0
 47 48  2  0
 48 49  1  0
 49 50  2  0
 49 51  1  0
 51 52  1  0
 51 53  2  3
 14  8  1  0
 50 45  1  0
  1 54  1  0
  1 55  1  0
  1 56  1  0
  5 57  1  0
  6 58  1  6
  7 59  1  0
  7 60  1  0
  9 61  1  0
 10 62  1  0
 13 63  1  0
 14 64  1  0
 17 65  1  0
 18 66  1  1
 19 67  1  0
 19 68  1  0
 20 69  1  0
 20 70  1  0
 22 71  1  0
 22 72  1  0
 26 73  1  0
 27 74  1  6
 28 75  1  0
 28 76  1  0
 29 77  1  0
 29 78  1  0
 31 79  1  0
 31 80  1  0
 35 81  1  0
 36 82  1  1
 37 83  1  0
 37 84  1  0
 38 85  1  0
 38 86  1  0
 40 87  1  0
 40 88  1  0
 44 89  1  0
 46 90  1  0
 47 91  1  0
 48 92  1  0
 50 93  1  0
 52 94  1  0
 52 95  1  0
 53 96  1  0
M  END
$$$$
[H]c1c([H])c([H])c(C([H])([H])C([H])([H])C([H])([H])N(C(=O)C([H])([H])C([H])(c2c([H])c([H])c(N(C(=O)C([H])([H])[H])C([H])([H])C([H])(C([H])([H])[H])C([H])([H])[H])c([H])c2[H])c2c([H])c([H])c([H])c([H])c2OC([H])(C([H])([H])[H])C([H])([H])[H])C([H])([H])[H])c([H])c1[H]
     RDKit          3D

 83 85  0  0  0  0  0  0  0  0999 V2000
   -7.0355   -1.9287    0.8730 C   0  0  0  0  0  0  0  0  0  0  0  0
   -6.0370   -1.2286    1.7875 C   0  0  0  0  0  0  0  0  0  0  0  0
   -5.9302    0.2257    1.4581 C   0  0  0  0  0  0  0  0  0  0  0  0
   -4.7563   -1.9567    1.9600 C   0  0  0  0  0  0  0  0  0  0  0  0
   -3.9839   -2.2064    0.7923 N   0  0  0  0  0  0  0  0  0  0  0  0
   -4.1623   -3.3740    0.0371 C   0  0  0  0  0  0  0  0  0  0  0  0
   -3.3657   -3.6154   -1.1826 C   0  0  0  0  0  0  0  0  0  0  0  0
   -4.9993   -4.2262    0.3876 O   0  0  0  0  0  0  0  0  0  0  0  0
   -2.9993   -1.2722    0.3726 C   0  0  0  0  0  0  0  0  0  0  0  0
   -3.0488   -0.6230   -0.8352 C   0  0  0  0  0  0  0  0  0  0  0  0
   -2.0569    0.2409   -1.1760 C   0  0  0  0  0  0  0  0  0  0  0  0
   -0.9731    0.5264   -0.3835 C   0  0  0  0  0  0  0  0  0  0  0  0
   -0.9206   -0.1228    0.8306 C   0  0  0  0  0  0  0  0  0  0  0  0
   -1.9159   -1.0144    1.2160 C   0  0  0  0  0  0  0  0  0  0  0  0
    0.0784    1.4765   -0.8078 C   0  0  0  0  0  0  0  0  0  0  0  0
    0.8902    0.9593   -1.9547 C   0  0  0  0  0  0  0  0  0  0  0  0
    1.5711   -0.3236   -1.7562 C   0  0  0  0  0  0  0  0  0  0  0  0
    1.5143   -1.0472   -0.7293 O   0  0  0  0  0  0  0  0  0  0  0  0
    2.3775   -0.8087   -2.8264 N   0  0  0  0  0  0  0  0  0  0  0  0
    2.5017   -0.0374   -4.0589 C   0  0  0  0  0  0  0  0  0  0  0  0
    3.0668   -2.0512   -2.6986 C   0  0  0  0  0  0  0  0  0  0  0  0
    4.4533   -2.0069   -2.1743 C   0  0  0  0  0  0  0  0  0  0  0  0
    4.6232   -1.4349   -0.7999 C   0  0  0  0  0  0  0  0  0  0  0  0
    6.0804   -1.4606   -0.3984 C   0  0  0  0  0  0  0  0  0  0  0  0
    6.5945   -2.5511    0.2587 C   0  0  0  0  0  0  0  0  0  0  0  0
    7.9279   -2.5299    0.5996 C   0  0  0  0  0  0  0  0  0  0  0  0
    8.7535   -1.4603    0.3055 C   0  0  0  0  0  0  0  0  0  0  0  0
    8.2126   -0.3884   -0.3498 C   0  0  0  0  0  0  0  0  0  0  0  0
    6.8832   -0.3838   -0.7021 C   0  0  0  0  0  0  0  0  0  0  0  0
    0.8009    2.1689    0.2532 C   0  0  0  0  0  0  0  0  0  0  0  0
    2.1428    2.0542    0.3999 C   0  0  0  0  0  0  0  0  0  0  0  0
    2.8542    2.7322    1.3950 C   0  0  0  0  0  0  0  0  0  0  0  0
    2.1574    3.5407    2.2484 C   0  0  0  0  0  0  0  0  0  0  0  0
    0.7833    3.6816    2.1264 C   0  0  0  0  0  0  0  0  0  0  0  0
    0.1035    3.0123    1.1491 C   0  0  0  0  0  0  0  0  0  0  0  0
   -1.2569    3.1000    0.9625 O   0  0  0  0  0  0  0  0  0  0  0  0
   -2.1630    3.8513    1.6731 C   0  0  0  0  0  0  0  0  0  0  0  0
   -3.1091    4.6518    0.7946 C   0  0  0  0  0  0  0  0  0  0  0  0
   -3.0855    2.9267    2.4914 C   0  0  0  0  0  0  0  0  0  0  0  0
   -7.9779   -1.2994    0.8714 H   0  0  0  0  0  0  0  0  0  0  0  0
   -6.7255   -1.9792   -0.1692 H   0  0  0  0  0  0  0  0  0  0  0  0
   -7.3707   -2.8864    1.3241 H   0  0  0  0  0  0  0  0  0  0  0  0
   -6.5480   -1.2615    2.8030 H   0  0  0  0  0  0  0  0  0  0  0  0
   -5.2591    0.6818    2.2145 H   0  0  0  0  0  0  0  0  0  0  0  0
   -5.7041    0.4621    0.4191 H   0  0  0  0  0  0  0  0  0  0  0  0
   -6.9513    0.6596    1.6681 H   0  0  0  0  0  0  0  0  0  0  0  0
   -4.1752   -1.4064    2.7465 H   0  0  0  0  0  0  0  0  0  0  0  0
   -5.0071   -2.9374    2.4499 H   0  0  0  0  0  0  0  0  0  0  0  0
   -3.2477   -4.7199   -1.2943 H   0  0  0  0  0  0  0  0  0  0  0  0
   -3.8341   -3.1704   -2.0875 H   0  0  0  0  0  0  0  0  0  0  0  0
   -2.3261   -3.1997   -1.0713 H   0  0  0  0  0  0  0  0  0  0  0  0
   -3.9055   -0.8458   -1.4660 H   0  0  0  0  0  0  0  0  0  0  0  0
   -2.1024    0.7585   -2.1456 H   0  0  0  0  0  0  0  0  0  0  0  0
   -0.1152    0.0223    1.5388 H   0  0  0  0  0  0  0  0  0  0  0  0
   -1.8954   -1.5335    2.1622 H   0  0  0  0  0  0  0  0  0  0  0  0
   -0.5076    2.3700   -1.3127 H   0  0  0  0  0  0  0  0  0  0  0  0
    1.7014    1.6916   -2.2478 H   0  0  0  0  0  0  0  0  0  0  0  0
    0.2606    0.9203   -2.8966 H   0  0  0  0  0  0  0  0  0  0  0  0
    1.5700    0.0080   -4.6306 H   0  0  0  0  0  0  0  0  0  0  0  0
    3.2852   -0.4576   -4.7192 H   0  0  0  0  0  0  0  0  0  0  0  0
    2.8092    0.9973   -3.8124 H   0  0  0  0  0  0  0  0  0  0  0  0
    3.1152   -2.5583   -3.7023 H   0  0  0  0  0  0  0  0  0  0  0  0
    2.4960   -2.7534   -2.0149 H   0  0  0  0  0  0  0  0  0  0  0  0
    4.7866   -3.0874   -2.0897 H   0  0  0  0  0  0  0  0  0  0  0  0
    5.1905   -1.5764   -2.8943 H   0  0  0  0  0  0  0  0  0  0  0  0
    4.1172   -2.0332   -0.0203 H   0  0  0  0  0  0  0  0  0  0  0  0
    4.3110   -0.3936   -0.7842 H   0  0  0  0  0  0  0  0  0  0  0  0
    5.9421   -3.3912    0.4889 H   0  0  0  0  0  0  0  0  0  0  0  0
    8.3348   -3.4074    1.1265 H   0  0  0  0  0  0  0  0  0  0  0  0
    9.8128   -1.4960    0.6012 H   0  0  0  0  0  0  0  0  0  0  0  0
    8.8603    0.4657   -0.5879 H   0  0  0  0  0  0  0  0  0  0  0  0
    6.5101    0.4888   -1.2179 H   0  0  0  0  0  0  0  0  0  0  0  0
    2.7596    1.4378   -0.2565 H   0  0  0  0  0  0  0  0  0  0  0  0
    3.9438    2.6124    1.4824 H   0  0  0  0  0  0  0  0  0  0  0  0
    2.6528    4.1028    3.0542 H   0  0  0  0  0  0  0  0  0  0  0  0
    0.2425    4.3355    2.8234 H   0  0  0  0  0  0  0  0  0  0  0  0
   -1.6615    4.4869    2.4194 H   0  0  0  0  0  0  0  0  0  0  0  0
   -2.7189    4.7501   -0.2452 H   0  0  0  0  0  0  0  0  0  0  0  0
   -3.2724    5.6609    1.2426 H   0  0  0  0  0  0  0  0  0  0  0  0
   -4.1128    4.1874    0.7053 H   0  0  0  0  0  0  0  0  0  0  0  0
   -3.5201    3.5295    3.3122 H   0  0  0  0  0  0  0  0  0  0  0  0
   -2.4720    2.0877    2.8923 H   0  0  0  0  0  0  0  0  0  0  0  0
   -3.8625    2.5805    1.7821 H   0  0  0  0  0  0  0  0  0  0  0  0
  1  2  1  0
  2  3  1  0
  2  4  1  0
  4  5  1  0
  5  6  1  0
  6  7  1  0
  6  8  2  0
  5  9  1  0
  9 10  2  0
 10 11  1  0
 11 12  2  0
 12 13  1  0
 13 14  2  0
 12 15  1  0
 15 16  1  0
 16 17  1  0
 17 18  2  0
 17 19  1  0
 19 20  1  0
 19 21  1  0
 21 22  1  0
 22 23  1  0
 23 24  1  0
 24 25  2  0
 25 26  1  0
 26 27  2  0
 27 28  1  0
 28 29  2  0
 15 30  1  0
 30 31  2  0
 31 32  1  0
 32 33  2  0
 33 34  1  0
 34 35  2  0
 35 36  1  0
 36 37  1  0
 37 38  1  0
 37 39  1  0
 14  9  1  0
 29 24  1  0
 35 30  1  0
  1 40  1  0
  1 41  1  0
  1 42  1  0
  2 43  1  0
  3 44  1  0
  3 45  1  0
  3 46  1  0
  4 47  1  0
  4 48  1  0
  7 49  1  0
  7 50  1  0
  7 51  1  0
 10 52  1  0
 11 53  1  0
 13 54  1  0
 14 55  1  0
 15 56  1  0
 16 57  1  0
 16 58  1  0
 20 59  1  0
 20 60  1  0
 20 61  1  0
 21 62  1  0
 21 63  1  0
 22 64  1  0
 22 65  1  0
 23 66  1  0
 23 67  1  0
 25 68  1  0
 26 69  1  0
 27 70  1  0
 28 71  1  0
 29 72  1  0
 31 73  1  0
 32 74  1  0
 33 75  1  0
 34 76  1  0
 37 77  1  0
 38 78  1  0
 38 79  1  0
 38 80  1  0
 39 81  1  0
 39 82  1  0
 39 83  1  0
M  END
$$$$
[H]c1sc(-c2nc3c(n2C([H])(C([H])([H])[H])C([H])([H])[H])C(c2c([H])c(C([H])([H])[H])c([H])c([H])c2C([H])([H])[H])(C([H])([H])[H])N(C([H])([H])c2c([H])c([H])c([H])c([H])c2C([H])([H])[H])C3=O)c([H])c1C(=O)OC([H])([H])[H]
     RDKit          3D

 71 75  0  0  0  0  0  0  0  0999 V2000
    8.0372    2.5028    3.6490 C   0  0  0  0  0  0  0  0  0  0  0  0
    7.0991    1.7551    2.9342 O   0  0  0  0  0  0  0  0  0  0  0  0
    7.3345    0.5129    2.3858 C   0  0  0  0  0  0  0  0  0  0  0  0
    8.4744    0.0216    2.5417 O   0  0  0  0  0  0  0  0  0  0  0  0
    6.2728   -0.2254    1.6318 C   0  0  0  0  0  0  0  0  0  0  0  0
    6.5509   -1.4574    1.1029 C   0  0  0  0  0  0  0  0  0  0  0  0
    5.0824   -1.8770    0.3673 S   0  0  0  0  0  0  0  0  0  0  0  0
    4.1438   -0.5035    0.7336 C   0  0  0  0  0  0  0  0  0  0  0  0
    5.0396    0.2624    1.4421 C   0  0  0  0  0  0  0  0  0  0  0  0
    2.7500   -0.1226    0.3960 C   0  0  0  0  0  0  0  0  0  0  0  0
    2.2867    1.0753    0.6930 N   0  0  0  0  0  0  0  0  0  0  0  0
    1.0397    1.1248    0.2583 C   0  0  0  0  0  0  0  0  0  0  0  0
   -0.0732    2.0607    0.0876 C   0  0  0  0  0  0  0  0  0  0  0  0
   -0.1027    3.2406    0.5072 O   0  0  0  0  0  0  0  0  0  0  0  0
   -1.1073    1.3945   -0.6347 N   0  0  0  0  0  0  0  0  0  0  0  0
   -2.2126    2.0974   -1.1873 C   0  0  0  0  0  0  0  0  0  0  0  0
   -3.4096    2.3641   -0.4334 C   0  0  0  0  0  0  0  0  0  0  0  0
   -3.5815    2.0839    0.8840 C   0  0  0  0  0  0  0  0  0  0  0  0
   -4.7335    2.3893    1.6016 C   0  0  0  0  0  0  0  0  0  0  0  0
   -5.7655    3.0100    0.9585 C   0  0  0  0  0  0  0  0  0  0  0  0
   -5.6109    3.3041   -0.3792 C   0  0  0  0  0  0  0  0  0  0  0  0
   -4.4773    3.0026   -1.0834 C   0  0  0  0  0  0  0  0  0  0  0  0
   -4.3713    3.3508   -2.5436 C   0  0  0  0  0  0  0  0  0  0  0  0
   -0.7051    0.0107   -0.7569 C   0  0  0  0  0  0  0  0  0  0  0  0
   -0.6307   -0.1102   -2.3423 C   0  0  0  0  0  0  0  0  0  0  0  0
    0.7102   -0.0923   -0.3257 C   0  0  0  0  0  0  0  0  0  0  0  0
    1.8021   -0.8675   -0.2340 N   0  0  0  0  0  0  0  0  0  0  0  0
    2.0771   -2.1859   -0.6838 C   0  0  0  0  0  0  0  0  0  0  0  0
    2.7887   -2.1864   -2.0475 C   0  0  0  0  0  0  0  0  0  0  0  0
    0.9848   -3.2091   -0.6573 C   0  0  0  0  0  0  0  0  0  0  0  0
   -1.6306   -1.0033   -0.3294 C   0  0  0  0  0  0  0  0  0  0  0  0
   -2.4574   -1.6867   -1.2355 C   0  0  0  0  0  0  0  0  0  0  0  0
   -3.4170   -2.5907   -0.9068 C   0  0  0  0  0  0  0  0  0  0  0  0
   -4.2505   -3.2668   -1.9728 C   0  0  0  0  0  0  0  0  0  0  0  0
   -3.6195   -2.8827    0.4147 C   0  0  0  0  0  0  0  0  0  0  0  0
   -2.8594   -2.2648    1.3447 C   0  0  0  0  0  0  0  0  0  0  0  0
   -1.8679   -1.3317    0.9963 C   0  0  0  0  0  0  0  0  0  0  0  0
   -1.0599   -0.7920    2.0840 C   0  0  0  0  0  0  0  0  0  0  0  0
    7.4892    3.3335    4.1750 H   0  0  0  0  0  0  0  0  0  0  0  0
    8.5505    1.9314    4.4324 H   0  0  0  0  0  0  0  0  0  0  0  0
    8.7776    3.0140    2.9684 H   0  0  0  0  0  0  0  0  0  0  0  0
    7.5089   -2.0155    1.1589 H   0  0  0  0  0  0  0  0  0  0  0  0
    4.7222    1.2576    1.8385 H   0  0  0  0  0  0  0  0  0  0  0  0
   -2.4898    1.6609   -2.2068 H   0  0  0  0  0  0  0  0  0  0  0  0
   -1.8506    3.1453   -1.5579 H   0  0  0  0  0  0  0  0  0  0  0  0
   -2.8136    1.6102    1.4842 H   0  0  0  0  0  0  0  0  0  0  0  0
   -4.8303    2.1509    2.6405 H   0  0  0  0  0  0  0  0  0  0  0  0
   -6.6868    3.2627    1.5011 H   0  0  0  0  0  0  0  0  0  0  0  0
   -6.4650    3.8016   -0.8504 H   0  0  0  0  0  0  0  0  0  0  0  0
   -3.3948    3.7941   -2.7854 H   0  0  0  0  0  0  0  0  0  0  0  0
   -5.1472    4.0967   -2.7663 H   0  0  0  0  0  0  0  0  0  0  0  0
   -4.4680    2.4210   -3.1468 H   0  0  0  0  0  0  0  0  0  0  0  0
    0.2113    0.5817   -2.5694 H   0  0  0  0  0  0  0  0  0  0  0  0
   -1.5765    0.1902   -2.7273 H   0  0  0  0  0  0  0  0  0  0  0  0
   -0.3466   -1.1359   -2.5544 H   0  0  0  0  0  0  0  0  0  0  0  0
    2.8513   -2.6709    0.0012 H   0  0  0  0  0  0  0  0  0  0  0  0
    2.0414   -2.2651   -2.8669 H   0  0  0  0  0  0  0  0  0  0  0  0
    3.3521   -1.2763   -2.2375 H   0  0  0  0  0  0  0  0  0  0  0  0
    3.3704   -3.1254   -2.0962 H   0  0  0  0  0  0  0  0  0  0  0  0
    0.5028   -3.1865    0.3391 H   0  0  0  0  0  0  0  0  0  0  0  0
    0.2771   -3.1638   -1.4948 H   0  0  0  0  0  0  0  0  0  0  0  0
    1.4048   -4.2548   -0.7145 H   0  0  0  0  0  0  0  0  0  0  0  0
   -2.3061   -1.4776   -2.2863 H   0  0  0  0  0  0  0  0  0  0  0  0
   -5.3159   -2.9342   -1.8876 H   0  0  0  0  0  0  0  0  0  0  0  0
   -3.8114   -3.0230   -2.9403 H   0  0  0  0  0  0  0  0  0  0  0  0
   -4.1465   -4.3591   -1.8123 H   0  0  0  0  0  0  0  0  0  0  0  0
   -4.3725   -3.5946    0.7223 H   0  0  0  0  0  0  0  0  0  0  0  0
   -3.0212   -2.4963    2.3923 H   0  0  0  0  0  0  0  0  0  0  0  0
   -1.1366    0.2669    2.3037 H   0  0  0  0  0  0  0  0  0  0  0  0
    0.0087   -1.1792    2.0863 H   0  0  0  0  0  0  0  0  0  0  0  0
   -1.4200   -1.2680    3.0623 H   0  0  0  0  0  0  0  0  0  0  0  0
  1  2  1  0
  2  3  1  0
  3  4  2  0
  3  5  1  0
  5  6  2  0
  6  7  1  0
  7  8  1  0
  8  9  2  0
  8 10  1  0
 10 11  2  0
 11 12  1  0
 12 13  1  0
 13 14  2  0
 13 15  1  0
 15 16  1  0
 16 17  1  0
 17 18  2  0
 18 19  1  0
 19 20  2  0
 20 21  1  0
 21 22  2  0
 22 23  1  0
 15 24  1  0
 24 25  1  0
 24 26  1  0
 26 27  1  0
 27 28  1  0
 28 29  1  0
 28 30  1  0
 24 31  1  0
 31 32  2  0
 32 33  1  0
 33 34  1  0
 33 35  2  0
 35 36  1  0
 36 37  2  0
 37 38  1  0
  9  5  1  0
 27 10  1  0
 37 31  1  0
 26 12  2  0
 22 17  1  0
  1 39  1  0
  1 40  1  0
  1 41  1  0
  6 42  1  0
  9 43  1  0
 16 44  1  0
 16 45  1  0
 18 46  1  0
 19 47  1  0
 20 48  1  0
 21 49  1  0
 23 50  1  0
 23 51  1  0
 23 52  1  0
 25 53  1  0
 25 54  1  0
 25 55  1  0
 28 56  1  0
 29 57  1  0
 29 58  1  0
 29 59  1  0
 30 60  1  0
 30 61  1  0
 30 62  1  0
 32 63  1  0
 34 64  1  0
 34 65  1  0
 34 66  1  0
 35 67  1  0
 36 68  1  0
 38 69  1  0
 38 70  1  0
 38 71  1  0
M  END
$$$$
[H]c1nc2c(c([H])c(-c3c([H])c([H])c(C([H])([H])C4([H])C([H])([H])N(C([H])([H])[H])C([H])([H])C4([H])[H])c([H])c3F)n2[H])c(-c2c([H])c([H])n(C([H])([H])[H])c(=O)c2[H])c1[H]
     RDKit          3D

 56 60  0  0  0  0  0  0  0  0999 V2000
    6.3863    1.7855    0.9098 C   0  0  0  0  0  0  0  0  0  0  0  0
    6.2893    0.3578    0.9918 N   0  0  0  0  0  0  0  0  0  0  0  0
    5.6242   -0.1213    2.1635 C   0  0  0  0  0  0  0  0  0  0  0  0
    4.7180   -1.2614    1.7419 C   0  0  0  0  0  0  0  0  0  0  0  0
    5.2257   -1.5822    0.3789 C   0  0  0  0  0  0  0  0  0  0  0  0
    4.2985   -2.3340   -0.5066 C   0  0  0  0  0  0  0  0  0  0  0  0
    3.0146   -1.6543   -0.7913 C   0  0  0  0  0  0  0  0  0  0  0  0
    2.8566   -0.7971   -1.8596 C   0  0  0  0  0  0  0  0  0  0  0  0
    1.6453   -0.1701   -2.1159 C   0  0  0  0  0  0  0  0  0  0  0  0
    0.5330   -0.3686   -1.3179 C   0  0  0  0  0  0  0  0  0  0  0  0
   -0.7376    0.3241   -1.6338 C   0  0  0  0  0  0  0  0  0  0  0  0
   -1.9424    0.2902   -1.0101 C   0  0  0  0  0  0  0  0  0  0  0  0
   -2.8458    1.1111   -1.6741 C   0  0  0  0  0  0  0  0  0  0  0  0
   -4.1731    1.4298   -1.4561 C   0  0  0  0  0  0  0  0  0  0  0  0
   -4.7867    2.3167   -2.3380 C   0  0  0  0  0  0  0  0  0  0  0  0
   -4.0427    2.8248   -3.3737 C   0  0  0  0  0  0  0  0  0  0  0  0
   -2.7577    2.5150   -3.5838 N   0  0  0  0  0  0  0  0  0  0  0  0
   -2.1389    1.6506   -2.7339 C   0  0  0  0  0  0  0  0  0  0  0  0
   -0.8825    1.1610   -2.6827 N   0  0  0  0  0  0  0  0  0  0  0  0
   -4.8839    0.8330   -0.3451 C   0  0  0  0  0  0  0  0  0  0  0  0
   -5.6353    1.5591    0.5670 C   0  0  0  0  0  0  0  0  0  0  0  0
   -6.2997    0.9118    1.5955 C   0  0  0  0  0  0  0  0  0  0  0  0
   -6.2557   -0.4205    1.7643 N   0  0  0  0  0  0  0  0  0  0  0  0
   -6.9761   -1.0530    2.8678 C   0  0  0  0  0  0  0  0  0  0  0  0
   -5.5328   -1.1406    0.8904 C   0  0  0  0  0  0  0  0  0  0  0  0
   -5.5022   -2.3829    1.0622 O   0  0  0  0  0  0  0  0  0  0  0  0
   -4.8484   -0.5290   -0.1597 C   0  0  0  0  0  0  0  0  0  0  0  0
    0.6782   -1.2185   -0.2532 C   0  0  0  0  0  0  0  0  0  0  0  0
   -0.3470   -1.4698    0.5733 F   0  0  0  0  0  0  0  0  0  0  0  0
    1.9070   -1.8493   -0.0003 C   0  0  0  0  0  0  0  0  0  0  0  0
    5.5897   -0.2162   -0.1683 C   0  0  0  0  0  0  0  0  0  0  0  0
    6.4552    2.2345    1.9234 H   0  0  0  0  0  0  0  0  0  0  0  0
    5.4965    2.2113    0.4238 H   0  0  0  0  0  0  0  0  0  0  0  0
    7.2822    2.1346    0.3498 H   0  0  0  0  0  0  0  0  0  0  0  0
    5.0742    0.7019    2.6546 H   0  0  0  0  0  0  0  0  0  0  0  0
    6.3992   -0.4579    2.9024 H   0  0  0  0  0  0  0  0  0  0  0  0
    3.6614   -1.0143    1.8202 H   0  0  0  0  0  0  0  0  0  0  0  0
    4.9670   -2.1297    2.4156 H   0  0  0  0  0  0  0  0  0  0  0  0
    6.1901   -2.1405    0.4527 H   0  0  0  0  0  0  0  0  0  0  0  0
    4.1288   -3.3366   -0.0168 H   0  0  0  0  0  0  0  0  0  0  0  0
    4.8556   -2.5804   -1.4426 H   0  0  0  0  0  0  0  0  0  0  0  0
    3.7025   -0.6250   -2.4946 H   0  0  0  0  0  0  0  0  0  0  0  0
    1.5432    0.5014   -2.9631 H   0  0  0  0  0  0  0  0  0  0  0  0
   -2.2176   -0.2524   -0.1452 H   0  0  0  0  0  0  0  0  0  0  0  0
   -5.8190    2.5557   -2.1559 H   0  0  0  0  0  0  0  0  0  0  0  0
   -4.5642    3.5201   -4.0455 H   0  0  0  0  0  0  0  0  0  0  0  0
   -0.1424    1.4297   -3.3971 H   0  0  0  0  0  0  0  0  0  0  0  0
   -5.6730    2.6384    0.4331 H   0  0  0  0  0  0  0  0  0  0  0  0
   -6.8695    1.5323    2.2750 H   0  0  0  0  0  0  0  0  0  0  0  0
   -7.3017   -2.0553    2.5219 H   0  0  0  0  0  0  0  0  0  0  0  0
   -7.8397   -0.4671    3.1965 H   0  0  0  0  0  0  0  0  0  0  0  0
   -6.2476   -1.2453    3.7023 H   0  0  0  0  0  0  0  0  0  0  0  0
   -4.2925   -1.1994   -0.8188 H   0  0  0  0  0  0  0  0  0  0  0  0
    2.0100   -2.5210    0.8469 H   0  0  0  0  0  0  0  0  0  0  0  0
    6.2932   -0.3532   -1.0112 H   0  0  0  0  0  0  0  0  0  0  0  0
    4.7304    0.4166   -0.3826 H   0  0  0  0  0  0  0  0  0  0  0  0
  1  2  1  0
  2  3  1  0
  3  4  1  0
  4  5  1  0
  5  6  1  0
  6  7  1  0
  7  8  2  0
  8  9  1  0
  9 10  2  0
 10 11  1  0
 11 12  2  0
 12 13  1  0
 13 14  2  0
 14 15  1  0
 15 16  2  0
 16 17  1  0
 17 18  2  0
 18 19  1  0
 14 20  1  0
 20 21  1  0
 21 22  2  0
 22 23  1  0
 23 24  1  0
 23 25  1  0
 25 26  2  0
 25 27  1  0
 10 28  1  0
 28 29  1  0
 28 30  2  0
  5 31  1  0
 31  2  1  0
 30  7  1  0
 19 11  1  0
 27 20  2  0
 18 13  1  0
  1 32  1  0
  1 33  1  0
  1 34  1  0
  3 35  1  0
  3 36  1  0
  4 37  1  0
  4 38  1  0
  5 39  1  0
  6 40  1  0
  6 41  1  0
  8 42  1  0
  9 43  1  0
 12 44  1  0
 15 45  1  0
 16 46  1  0
 19 47  1  0
 21 48  1  0
 22 49  1  0
 24 50  1  0
 24 51  1  0
 24 52  1  0
 27 53  1  0
 30 54  1  0
 31 55  1  0
 31 56  1  0
M  END
$$$$
[H]c1c([H])c([H])c2c(c1[H])N(C(=O)c1c([H])c([H])c(OC([H])([H])C([H])([H])OC(=O)C([H])([H])[H])c(Cl)c1[H])c1c([H])c([H])c([H])c([H])c1[C@@]([H])(C([H])([H])C([H])(C([H])([H])[H])C([H])([H])[H])[C@]2([H])N([H])C(=O)C([H])([H])[H]
     RDKit          3D

 72 75  0  0  0  0  0  0  0  0999 V2000
   -6.2797   -0.6638   -0.1308 C   0  0  0  0  0  0  0  0  0  0  0  0
   -5.2927   -0.2835    0.9474 C   0  0  0  0  0  0  0  0  0  0  0  0
   -5.8074   -1.1262    2.1768 C   0  0  0  0  0  0  0  0  0  0  0  0
   -3.8881   -0.6846    0.6660 C   0  0  0  0  0  0  0  0  0  0  0  0
   -3.1915   -0.1936   -0.5290 C   0  0  1  0  0  0  0  0  0  0  0  0
   -2.9753    1.2619   -0.5457 C   0  0  2  0  0  0  0  0  0  0  0  0
   -4.0439    2.1552   -0.2551 N   0  0  0  0  0  0  0  0  0  0  0  0
   -3.8980    3.2375    0.6946 C   0  0  0  0  0  0  0  0  0  0  0  0
   -5.0316    4.1357    0.9648 C   0  0  0  0  0  0  0  0  0  0  0  0
   -2.8209    3.4280    1.2963 O   0  0  0  0  0  0  0  0  0  0  0  0
   -2.2869    1.8930   -1.7099 C   0  0  0  0  0  0  0  0  0  0  0  0
   -2.9380    2.9580   -2.2995 C   0  0  0  0  0  0  0  0  0  0  0  0
   -2.2711    3.6043   -3.3307 C   0  0  0  0  0  0  0  0  0  0  0  0
   -1.0251    3.2620   -3.8007 C   0  0  0  0  0  0  0  0  0  0  0  0
   -0.3923    2.1802   -3.1888 C   0  0  0  0  0  0  0  0  0  0  0  0
   -1.0292    1.5354   -2.1757 C   0  0  0  0  0  0  0  0  0  0  0  0
   -0.2054    0.4307   -1.6979 N   0  0  0  0  0  0  0  0  0  0  0  0
    1.0738    0.6102   -1.4791 C   0  0  0  0  0  0  0  0  0  0  0  0
    1.4150    1.8178   -1.8572 O   0  0  0  0  0  0  0  0  0  0  0  0
    2.3511    0.1479   -1.0090 C   0  0  0  0  0  0  0  0  0  0  0  0
    2.4336   -0.8540   -0.0972 C   0  0  0  0  0  0  0  0  0  0  0  0
    3.5896   -1.4048    0.3661 C   0  0  0  0  0  0  0  0  0  0  0  0
    4.7810   -0.9167   -0.1178 C   0  0  0  0  0  0  0  0  0  0  0  0
    5.9974   -1.4504    0.3335 O   0  0  0  0  0  0  0  0  0  0  0  0
    6.0076   -2.4904    1.2621 C   0  0  0  0  0  0  0  0  0  0  0  0
    7.3517   -2.9412    1.6743 C   0  0  0  0  0  0  0  0  0  0  0  0
    8.2070   -2.0651    2.2919 O   0  0  0  0  0  0  0  0  0  0  0  0
    8.8013   -0.9342    1.8289 C   0  0  0  0  0  0  0  0  0  0  0  0
    9.6989   -0.1088    2.6910 C   0  0  0  0  0  0  0  0  0  0  0  0
    8.6132   -0.5466    0.6615 O   0  0  0  0  0  0  0  0  0  0  0  0
    4.7895    0.0895   -1.0350 C   0  0  0  0  0  0  0  0  0  0  0  0
    6.2779    0.7726   -1.7174 Cl  0  0  0  0  0  0  0  0  0  0  0  0
    3.5661    0.5762   -1.4388 C   0  0  0  0  0  0  0  0  0  0  0  0
   -0.8695   -0.8538   -1.5160 C   0  0  0  0  0  0  0  0  0  0  0  0
   -0.0463   -1.8408   -1.9760 C   0  0  0  0  0  0  0  0  0  0  0  0
   -0.4619   -3.1559   -1.9634 C   0  0  0  0  0  0  0  0  0  0  0  0
   -1.7176   -3.4215   -1.4784 C   0  0  0  0  0  0  0  0  0  0  0  0
   -2.5317   -2.3938   -1.0197 C   0  0  0  0  0  0  0  0  0  0  0  0
   -2.1375   -1.0811   -1.0222 C   0  0  0  0  0  0  0  0  0  0  0  0
   -6.3966   -1.7457   -0.1700 H   0  0  0  0  0  0  0  0  0  0  0  0
   -7.2652   -0.2364    0.2112 H   0  0  0  0  0  0  0  0  0  0  0  0
   -6.0825   -0.1658   -1.1003 H   0  0  0  0  0  0  0  0  0  0  0  0
   -5.4394    0.7543    1.2095 H   0  0  0  0  0  0  0  0  0  0  0  0
   -5.3379   -0.6418    3.0452 H   0  0  0  0  0  0  0  0  0  0  0  0
   -5.5252   -2.1669    2.0447 H   0  0  0  0  0  0  0  0  0  0  0  0
   -6.8894   -0.9130    2.2223 H   0  0  0  0  0  0  0  0  0  0  0  0
   -3.6564   -1.7256    0.9983 H   0  0  0  0  0  0  0  0  0  0  0  0
   -3.3514   -0.1782    1.5782 H   0  0  0  0  0  0  0  0  0  0  0  0
   -4.0039   -0.3199   -1.3632 H   0  0  0  0  0  0  0  0  0  0  0  0
   -2.2295    1.4354    0.3554 H   0  0  0  0  0  0  0  0  0  0  0  0
   -4.9695    2.0762   -0.7093 H   0  0  0  0  0  0  0  0  0  0  0  0
   -4.7207    5.1009    1.4152 H   0  0  0  0  0  0  0  0  0  0  0  0
   -5.6659    4.2796    0.0652 H   0  0  0  0  0  0  0  0  0  0  0  0
   -5.7170    3.6781    1.7368 H   0  0  0  0  0  0  0  0  0  0  0  0
   -3.8942    3.2222   -1.9464 H   0  0  0  0  0  0  0  0  0  0  0  0
   -2.7746    4.4413   -3.7929 H   0  0  0  0  0  0  0  0  0  0  0  0
   -0.4922    3.7357   -4.5830 H   0  0  0  0  0  0  0  0  0  0  0  0
    0.5698    1.7915   -3.5149 H   0  0  0  0  0  0  0  0  0  0  0  0
    1.5246   -1.2870    0.3804 H   0  0  0  0  0  0  0  0  0  0  0  0
    3.6150   -2.2073    1.0955 H   0  0  0  0  0  0  0  0  0  0  0  0
    5.4484   -2.1555    2.1759 H   0  0  0  0  0  0  0  0  0  0  0  0
    5.4023   -3.3448    0.8471 H   0  0  0  0  0  0  0  0  0  0  0  0
    7.2690   -3.8576    2.3483 H   0  0  0  0  0  0  0  0  0  0  0  0
    7.9274   -3.3530    0.7721 H   0  0  0  0  0  0  0  0  0  0  0  0
    9.6977   -0.4978    3.7338 H   0  0  0  0  0  0  0  0  0  0  0  0
    9.2639    0.9288    2.7331 H   0  0  0  0  0  0  0  0  0  0  0  0
   10.7092   -0.1124    2.2778 H   0  0  0  0  0  0  0  0  0  0  0  0
    3.6626    1.3921   -2.1928 H   0  0  0  0  0  0  0  0  0  0  0  0
    0.9088   -1.5686   -2.3838 H   0  0  0  0  0  0  0  0  0  0  0  0
    0.1605   -3.9586   -2.3150 H   0  0  0  0  0  0  0  0  0  0  0  0
   -2.0734   -4.4415   -1.4549 H   0  0  0  0  0  0  0  0  0  0  0  0
   -3.4878   -2.6440   -0.6758 H   0  0  0  0  0  0  0  0  0  0  0  0
  1  2  1  0
  2  3  1  0
  2  4  1  0
  4  5  1  0
  5  6  1  0
  6  7  1  0
  7  8  1  0
  8  9  1  0
  8 10  2  0
  6 11  1  0
 11 12  2  0
 12 13  1  0
 13 14  2  0
 14 15  1  0
 15 16  2  0
 16 17  1  0
 17 18  1  0
 18 19  2  0
 18 20  1  0
 20 21  2  0
 21 22  1  0
 22 23  2  0
 23 24  1  0
 24 25  1  0
 25 26  1  0
 26 27  1  0
 27 28  1  0
 28 29  1  0
 28 30  2  0
 23 31  1  0
 31 32  1  0
 31 33  2  0
 17 34  1  0
 34 35  2  0
 35 36  1  0
 36 37  2  0
 37 38  1  0
 38 39  2  0
 39  5  1  0
 16 11  1  0
 33 20  1  0
 39 34  1  0
  1 40  1  0
  1 41  1  0
  1 42  1  0
  2 43  1  0
  3 44  1  0
  3 45  1  0
  3 46  1  0
  4 47  1  0
  4 48  1  0
  5 49  1  6
  6 50  1  1
  7 51  1  0
  9 52  1  0
  9 53  1  0
  9 54  1  0
 12 55  1  0
 13 56  1  0
 14 57  1  0
 15 58  1  0
 21 59  1  0
 22 60  1  0
 25 61  1  0
 25 62  1  0
 26 63  1  0
 26 64  1  0
 29 65  1  0
 29 66  1  0
 29 67  1  0
 33 68  1  0
 35 69  1  0
 36 70  1  0
 37 71  1  0
 38 72  1  0
M  END
$$$$
[H]c1c([H])c([H])c2c(c1[H])c1c3c(c4c5c([H])c([H])c([H])c([H])c5n5c4c1n2[C@@]1(C([H])([H])[H])O[C@]5([H])C([H])([H])[C@@]([H])(N([H])C([H])([H])[H])[C@@]1([H])OC([H])([H])[H])C(=O)N([H])C3([H])[H]
     RDKit          3D

 61 68  0  0  0  0  0  0  0  0999 V2000
   -3.3415   -2.0929    0.8927 C   0  0  0  0  0  0  0  0  0  0  0  0
   -2.7520   -0.8244    0.5060 N   0  0  0  0  0  0  0  0  0  0  0  0
   -2.5947   -0.7699   -0.9652 C   0  0  2  0  0  0  0  0  0  0  0  0
   -1.6635   -1.8336   -1.3456 C   0  0  0  0  0  0  0  0  0  0  0  0
   -0.4098   -1.3263   -1.9401 C   0  0  1  0  0  0  0  0  0  0  0  0
   -0.2904   -0.0961   -2.3609 O   0  0  0  0  0  0  0  0  0  0  0  0
   -0.9141    0.9817   -1.7381 C   0  0  1  0  0  0  0  0  0  0  0  0
   -0.8729    2.0231   -2.8643 C   0  0  0  0  0  0  0  0  0  0  0  0
   -2.2914    0.6326   -1.4119 C   0  0  2  0  0  0  0  0  0  0  0  0
   -2.9229    1.4324   -0.4622 O   0  0  0  0  0  0  0  0  0  0  0  0
   -4.0664    2.0564   -0.9455 C   0  0  0  0  0  0  0  0  0  0  0  0
   -0.0747    1.3904   -0.5981 N   0  0  0  0  0  0  0  0  0  0  0  0
    0.0066    2.5943   -0.0347 C   0  0  0  0  0  0  0  0  0  0  0  0
   -0.6403    3.7755   -0.2701 C   0  0  0  0  0  0  0  0  0  0  0  0
   -0.3753    4.9057    0.4704 C   0  0  0  0  0  0  0  0  0  0  0  0
    0.5715    4.8915    1.4994 C   0  0  0  0  0  0  0  0  0  0  0  0
    1.2169    3.7192    1.7374 C   0  0  0  0  0  0  0  0  0  0  0  0
    0.9447    2.6014    0.9941 C   0  0  0  0  0  0  0  0  0  0  0  0
    1.4533    1.3308    1.0530 C   0  0  0  0  0  0  0  0  0  0  0  0
    2.4134    0.7192    1.8621 C   0  0  0  0  0  0  0  0  0  0  0  0
    3.2252    1.2814    2.9656 C   0  0  0  0  0  0  0  0  0  0  0  0
    4.0513    0.2282    3.4563 N   0  0  0  0  0  0  0  0  0  0  0  0
    3.7725   -0.9500    2.6928 C   0  0  0  0  0  0  0  0  0  0  0  0
    4.3602   -2.0093    2.9202 O   0  0  0  0  0  0  0  0  0  0  0  0
    2.7553   -0.6238    1.7110 C   0  0  0  0  0  0  0  0  0  0  0  0
    2.1006   -1.3257    0.7242 C   0  0  0  0  0  0  0  0  0  0  0  0
    2.1422   -2.6347    0.2794 C   0  0  0  0  0  0  0  0  0  0  0  0
    2.8759   -3.7217    0.6638 C   0  0  0  0  0  0  0  0  0  0  0  0
    2.6892   -4.9254    0.0128 C   0  0  0  0  0  0  0  0  0  0  0  0
    1.7808   -5.0386   -1.0084 C   0  0  0  0  0  0  0  0  0  0  0  0
    1.0343   -3.9515   -1.4066 C   0  0  0  0  0  0  0  0  0  0  0  0
    1.2263   -2.7646   -0.7562 C   0  0  0  0  0  0  0  0  0  0  0  0
    0.6469   -1.5975   -0.9447 N   0  0  0  0  0  0  0  0  0  0  0  0
    1.1358   -0.7009   -0.0851 C   0  0  0  0  0  0  0  0  0  0  0  0
    0.8119    0.6350    0.0794 C   0  0  0  0  0  0  0  0  0  0  0  0
   -3.9345   -1.8764    1.8249 H   0  0  0  0  0  0  0  0  0  0  0  0
   -2.5804   -2.8202    1.1896 H   0  0  0  0  0  0  0  0  0  0  0  0
   -4.0376   -2.4413    0.1071 H   0  0  0  0  0  0  0  0  0  0  0  0
   -1.8252   -0.7857    0.9817 H   0  0  0  0  0  0  0  0  0  0  0  0
   -3.6418   -1.0758   -1.3069 H   0  0  0  0  0  0  0  0  0  0  0  0
   -1.4743   -2.5407   -0.4944 H   0  0  0  0  0  0  0  0  0  0  0  0
   -2.1827   -2.5069   -2.1019 H   0  0  0  0  0  0  0  0  0  0  0  0
   -0.1764   -2.0147   -2.8352 H   0  0  0  0  0  0  0  0  0  0  0  0
   -1.8561    2.5173   -2.9808 H   0  0  0  0  0  0  0  0  0  0  0  0
   -0.0367    2.7359   -2.7018 H   0  0  0  0  0  0  0  0  0  0  0  0
   -0.6761    1.5932   -3.8662 H   0  0  0  0  0  0  0  0  0  0  0  0
   -2.9127    0.7625   -2.3525 H   0  0  0  0  0  0  0  0  0  0  0  0
   -4.5472    2.6842   -0.1440 H   0  0  0  0  0  0  0  0  0  0  0  0
   -3.8494    2.7776   -1.7563 H   0  0  0  0  0  0  0  0  0  0  0  0
   -4.7942    1.3294   -1.3803 H   0  0  0  0  0  0  0  0  0  0  0  0
   -1.3647    3.8112   -1.0348 H   0  0  0  0  0  0  0  0  0  0  0  0
   -0.8845    5.8355    0.2847 H   0  0  0  0  0  0  0  0  0  0  0  0
    0.7949    5.7654    2.0918 H   0  0  0  0  0  0  0  0  0  0  0  0
    1.9682    3.6487    2.5304 H   0  0  0  0  0  0  0  0  0  0  0  0
    3.8868    2.0907    2.5395 H   0  0  0  0  0  0  0  0  0  0  0  0
    2.5967    1.6993    3.7873 H   0  0  0  0  0  0  0  0  0  0  0  0
    4.7363    0.3270    4.2421 H   0  0  0  0  0  0  0  0  0  0  0  0
    3.5871   -3.7061    1.4353 H   0  0  0  0  0  0  0  0  0  0  0  0
    3.2659   -5.8106    0.3031 H   0  0  0  0  0  0  0  0  0  0  0  0
    1.6292   -5.9934   -1.5280 H   0  0  0  0  0  0  0  0  0  0  0  0
    0.3048   -4.0175   -2.2172 H   0  0  0  0  0  0  0  0  0  0  0  0
  1  2  1  0
  2  3  1  0
  3  4  1  0
  4  5  1  0
  5  6  1  0
  6  7  1  0
  7  8  1  6
  7  9  1  0
  9 10  1  0
 10 11  1  0
  7 12  1  0
 12 13  1  0
 13 14  2  0
 14 15  1  0
 15 16  2  0
 16 17  1  0
 17 18  2  0
 18 19  1  0
 19 20  2  0
 20 21  1  0
 21 22  1  0
 22 23  1  0
 23 24  2  0
 23 25  1  0
 25 26  2  0
 26 27  1  0
 27 28  2  0
 28 29  1  0
 29 30  2  0
 30 31  1  0
 31 32  2  0
 32 33  1  0
 33 34  1  0
 34 35  2  0
  9  3  1  0
 35 12  1  0
 33  5  1  0
 18 13  1  0
 35 19  1  0
 25 20  1  0
 34 26  1  0
 32 27  1  0
  1 36  1  0
  1 37  1  0
  1 38  1  0
  2 39  1  0
  3 40  1  6
  4 41  1  0
  4 42  1  0
  5 43  1  6
  8 44  1  0
  8 45  1  0
  8 46  1  0
  9 47  1  6
 11 48  1  0
 11 49  1  0
 11 50  1  0
 14 51  1  0
 15 52  1  0
 16 53  1  0
 17 54  1  0
 21 55  1  0
 21 56  1  0
 22 57  1  0
 28 58  1  0
 29 59  1  0
 30 60  1  0
 31 61  1  0
M  END
$$$$
[H]c1c([H])c(C([H])([H])n2c([N+](=O)[O-])nnc2C([H])([H])N2C([H])([H])C([H])([H])C([H])(C(=O)N3C([H])([H])C([H])([H])C([H])(N4C([H])([H])C([H])([H])C([H])([H])C([H])([H])C4([H])[H])C([H])([H])C3([H])[H])C([H])([H])C2([H])[H])c([H])c([H])c1Cl
     RDKit          3D

 73 77  0  0  0  0  0  0  0  0999 V2000
    6.9263   -4.1374    0.0321 O   0  0  0  0  0  0  0  0  0  0  0  0
    6.8861   -2.8591   -0.4937 N   0  0  0  0  0  0  0  0  0  0  0  0
    7.8238   -2.4781   -1.2030 O   0  0  0  0  0  0  0  0  0  0  0  0
    5.7943   -1.9859   -0.2515 C   0  0  0  0  0  0  0  0  0  0  0  0
    4.7440   -2.3864    0.4977 N   0  0  0  0  0  0  0  0  0  0  0  0
    3.8902   -1.4005    0.5459 N   0  0  0  0  0  0  0  0  0  0  0  0
    4.3352   -0.3448   -0.1508 C   0  0  0  0  0  0  0  0  0  0  0  0
    3.7014    0.9528   -0.4124 C   0  0  0  0  0  0  0  0  0  0  0  0
    2.2882    0.9596   -0.1280 N   0  0  0  0  0  0  0  0  0  0  0  0
    1.5187    0.0267   -0.8849 C   0  0  0  0  0  0  0  0  0  0  0  0
    0.0637    0.5165   -0.8390 C   0  0  0  0  0  0  0  0  0  0  0  0
   -0.3684    0.3587    0.6076 C   0  0  0  0  0  0  0  0  0  0  0  0
    0.7698    0.1831    1.5595 C   0  0  0  0  0  0  0  0  0  0  0  0
    1.9323    1.0811    1.2421 C   0  0  0  0  0  0  0  0  0  0  0  0
   -1.2937   -0.7935    0.6762 C   0  0  0  0  0  0  0  0  0  0  0  0
   -0.8288   -1.8733    1.1702 O   0  0  0  0  0  0  0  0  0  0  0  0
   -2.6245   -0.7222    0.2219 N   0  0  0  0  0  0  0  0  0  0  0  0
   -3.4012   -1.9447    0.3220 C   0  0  0  0  0  0  0  0  0  0  0  0
   -4.6617   -1.9349   -0.4953 C   0  0  0  0  0  0  0  0  0  0  0  0
   -5.2965   -0.5691   -0.6210 C   0  0  0  0  0  0  0  0  0  0  0  0
   -4.2795    0.3081   -1.2916 C   0  0  0  0  0  0  0  0  0  0  0  0
   -3.1410    0.5062   -0.2782 C   0  0  0  0  0  0  0  0  0  0  0  0
   -6.5220   -0.6908   -1.3210 N   0  0  0  0  0  0  0  0  0  0  0  0
   -7.5015   -1.4857   -0.6586 C   0  0  0  0  0  0  0  0  0  0  0  0
   -7.9002   -0.9231    0.6901 C   0  0  0  0  0  0  0  0  0  0  0  0
   -8.5137    0.4353    0.4235 C   0  0  0  0  0  0  0  0  0  0  0  0
   -7.7113    1.2942   -0.5025 C   0  0  0  0  0  0  0  0  0  0  0  0
   -7.1317    0.5694   -1.6839 C   0  0  0  0  0  0  0  0  0  0  0  0
    5.5469   -0.7310   -0.6501 N   0  0  0  0  0  0  0  0  0  0  0  0
    6.3718    0.0825   -1.4784 C   0  0  0  0  0  0  0  0  0  0  0  0
    7.4335    0.8468   -0.8394 C   0  0  0  0  0  0  0  0  0  0  0  0
    8.6530    0.9343   -1.5220 C   0  0  0  0  0  0  0  0  0  0  0  0
    9.6810    1.6266   -0.9512 C   0  0  0  0  0  0  0  0  0  0  0  0
    9.5760    2.2499    0.2765 C   0  0  0  0  0  0  0  0  0  0  0  0
   10.9512    3.1046    0.9089 Cl  0  0  0  0  0  0  0  0  0  0  0  0
    8.3670    2.1422    0.9154 C   0  0  0  0  0  0  0  0  0  0  0  0
    7.2997    1.4485    0.3696 C   0  0  0  0  0  0  0  0  0  0  0  0
    3.8104    1.3128   -1.4584 H   0  0  0  0  0  0  0  0  0  0  0  0
    4.1781    1.7183    0.2304 H   0  0  0  0  0  0  0  0  0  0  0  0
    1.5663   -1.0128   -0.5357 H   0  0  0  0  0  0  0  0  0  0  0  0
    1.8310    0.0982   -1.9456 H   0  0  0  0  0  0  0  0  0  0  0  0
    0.0994    1.5937   -1.0991 H   0  0  0  0  0  0  0  0  0  0  0  0
   -0.5638   -0.0511   -1.5404 H   0  0  0  0  0  0  0  0  0  0  0  0
   -0.9597    1.2580    0.9146 H   0  0  0  0  0  0  0  0  0  0  0  0
    0.3736    0.4174    2.5832 H   0  0  0  0  0  0  0  0  0  0  0  0
    1.0935   -0.8801    1.6237 H   0  0  0  0  0  0  0  0  0  0  0  0
    2.7488    0.9247    1.9571 H   0  0  0  0  0  0  0  0  0  0  0  0
    1.5695    2.1332    1.3995 H   0  0  0  0  0  0  0  0  0  0  0  0
   -2.7317   -2.7658   -0.0525 H   0  0  0  0  0  0  0  0  0  0  0  0
   -3.6514   -2.2109    1.3702 H   0  0  0  0  0  0  0  0  0  0  0  0
   -5.3416   -2.7308   -0.1891 H   0  0  0  0  0  0  0  0  0  0  0  0
   -4.3428   -2.2057   -1.5462 H   0  0  0  0  0  0  0  0  0  0  0  0
   -5.4095   -0.1894    0.4244 H   0  0  0  0  0  0  0  0  0  0  0  0
   -3.8187   -0.1609   -2.1930 H   0  0  0  0  0  0  0  0  0  0  0  0
   -4.6253    1.3200   -1.5301 H   0  0  0  0  0  0  0  0  0  0  0  0
   -3.6482    1.0747    0.5616 H   0  0  0  0  0  0  0  0  0  0  0  0
   -2.4454    1.1933   -0.7362 H   0  0  0  0  0  0  0  0  0  0  0  0
   -7.2869   -2.5472   -0.5731 H   0  0  0  0  0  0  0  0  0  0  0  0
   -8.4490   -1.4220   -1.2776 H   0  0  0  0  0  0  0  0  0  0  0  0
   -7.0760   -0.8392    1.3989 H   0  0  0  0  0  0  0  0  0  0  0  0
   -8.7054   -1.5768    1.0830 H   0  0  0  0  0  0  0  0  0  0  0  0
   -9.5682    0.2955    0.0483 H   0  0  0  0  0  0  0  0  0  0  0  0
   -8.6034    0.9586    1.3957 H   0  0  0  0  0  0  0  0  0  0  0  0
   -8.4268    2.0549   -0.9338 H   0  0  0  0  0  0  0  0  0  0  0  0
   -6.9865    1.8738    0.0785 H   0  0  0  0  0  0  0  0  0  0  0  0
   -8.0091    0.2989   -2.3446 H   0  0  0  0  0  0  0  0  0  0  0  0
   -6.5129    1.2416   -2.2677 H   0  0  0  0  0  0  0  0  0  0  0  0
    6.7479   -0.5635   -2.3082 H   0  0  0  0  0  0  0  0  0  0  0  0
    5.7065    0.8313   -2.0065 H   0  0  0  0  0  0  0  0  0  0  0  0
    8.7747    0.4569   -2.4910 H   0  0  0  0  0  0  0  0  0  0  0  0
   10.6188    1.6936   -1.4792 H   0  0  0  0  0  0  0  0  0  0  0  0
    8.2626    2.6270    1.8866 H   0  0  0  0  0  0  0  0  0  0  0  0
    6.4029    1.4129    0.9497 H   0  0  0  0  0  0  0  0  0  0  0  0
  1  2  1  0
  2  3  2  0
  2  4  1  0
  4  5  2  0
  5  6  1  0
  6  7  2  0
  7  8  1  0
  8  9  1  0
  9 10  1  0
 10 11  1  0
 11 12  1  0
 12 13  1  0
 13 14  1  0
 12 15  1  0
 15 16  2  0
 15 17  1  0
 17 18  1  0
 18 19  1  0
 19 20  1  0
 20 21  1  0
 21 22  1  0
 20 23  1  0
 23 24  1  0
 24 25  1  0
 25 26  1  0
 26 27  1  0
 27 28  1  0
  7 29  1  0
 29 30  1  0
 30 31  1  0
 31 32  2  0
 32 33  1  0
 33 34  2  0
 34 35  1  0
 34 36  1  0
 36 37  2  0
 29  4  1  0
 37 31  1  0
 14  9  1  0
 22 17  1  0
 28 23  1  0
  8 38  1  0
  8 39  1  0
 10 40  1  0
 10 41  1  0
 11 42  1  0
 11 43  1  0
 12 44  1  0
 13 45  1  0
 13 46  1  0
 14 47  1  0
 14 48  1  0
 18 49  1  0
 18 50  1  0
 19 51  1  0
 19 52  1  0
 20 53  1  0
 21 54  1  0
 21 55  1  0
 22 56  1  0
 22 57  1  0
 24 58  1  0
 24 59  1  0
 25 60  1  0
 25 61  1  0
 26 62  1  0
 26 63  1  0
 27 64  1  0
 27 65  1  0
 28 66  1  0
 28 67  1  0
 30 68  1  0
 30 69  1  0
 32 70  1  0
 33 71  1  0
 36 72  1  0
 37 73  1  0
M  CHG  2   1  -1   2   1
M  END
$$$$
[H]Oc1c([H])c(O[H])c2c3c(c(=O)oc2c1[H])C([H])([H])N(C([H])(C([H])([H])[H])C([H])([H])[H])C3=O
     RDKit          3D

 33 35  0  0  0  0  0  0  0  0999 V2000
    3.5283    1.1891    0.9363 C   0  0  0  0  0  0  0  0  0  0  0  0
    3.3128    0.3598   -0.3303 C   0  0  0  0  0  0  0  0  0  0  0  0
    3.3975    1.2983   -1.4944 C   0  0  0  0  0  0  0  0  0  0  0  0
    1.9855   -0.2370   -0.1965 N   0  0  0  0  0  0  0  0  0  0  0  0
    1.6887   -1.6446   -0.1640 C   0  0  0  0  0  0  0  0  0  0  0  0
    0.2219   -1.7173   -0.0171 C   0  0  0  0  0  0  0  0  0  0  0  0
   -0.3060   -0.4139    0.0330 C   0  0  0  0  0  0  0  0  0  0  0  0
    0.7841    0.5255   -0.0780 C   0  0  0  0  0  0  0  0  0  0  0  0
    0.7792    1.7535   -0.0801 O   0  0  0  0  0  0  0  0  0  0  0  0
   -1.6552   -0.2829    0.1677 C   0  0  0  0  0  0  0  0  0  0  0  0
   -2.2470    0.9512    0.2242 C   0  0  0  0  0  0  0  0  0  0  0  0
   -1.5880    2.1510    0.1557 O   0  0  0  0  0  0  0  0  0  0  0  0
   -3.6227    0.9883    0.3618 C   0  0  0  0  0  0  0  0  0  0  0  0
   -4.3903   -0.1508    0.4410 C   0  0  0  0  0  0  0  0  0  0  0  0
   -5.7718   -0.1078    0.5792 O   0  0  0  0  0  0  0  0  0  0  0  0
   -3.7944   -1.3872    0.3841 C   0  0  0  0  0  0  0  0  0  0  0  0
   -2.4254   -1.4496    0.2472 C   0  0  0  0  0  0  0  0  0  0  0  0
   -1.8997   -2.6506    0.1972 O   0  0  0  0  0  0  0  0  0  0  0  0
   -0.6090   -2.7992    0.0684 C   0  0  0  0  0  0  0  0  0  0  0  0
   -0.1164   -3.9681    0.0216 O   0  0  0  0  0  0  0  0  0  0  0  0
    3.0660    2.1775    0.7352 H   0  0  0  0  0  0  0  0  0  0  0  0
    4.6217    1.3075    1.0874 H   0  0  0  0  0  0  0  0  0  0  0  0
    3.0302    0.6639    1.7545 H   0  0  0  0  0  0  0  0  0  0  0  0
    4.0853   -0.4051   -0.4061 H   0  0  0  0  0  0  0  0  0  0  0  0
    3.1636    2.3396   -1.2664 H   0  0  0  0  0  0  0  0  0  0  0  0
    4.4696    1.2899   -1.8439 H   0  0  0  0  0  0  0  0  0  0  0  0
    2.8047    0.9403   -2.3643 H   0  0  0  0  0  0  0  0  0  0  0  0
    1.9620   -2.0638   -1.1523 H   0  0  0  0  0  0  0  0  0  0  0  0
    2.2234   -2.1683    0.6571 H   0  0  0  0  0  0  0  0  0  0  0  0
   -1.9901    3.0498    0.1940 H   0  0  0  0  0  0  0  0  0  0  0  0
   -4.1189    1.9644    0.4094 H   0  0  0  0  0  0  0  0  0  0  0  0
   -6.1979    0.8088    0.6198 H   0  0  0  0  0  0  0  0  0  0  0  0
   -4.3914   -2.3122    0.4458 H   0  0  0  0  0  0  0  0  0  0  0  0
  1  2  1  0
  2  3  1  0
  2  4  1  0
  4  5  1  0
  5  6  1  0
  6  7  2  0
  7  8  1  0
  8  9  2  0
  7 10  1  0
 10 11  2  0
 11 12  1  0
 11 13  1  0
 13 14  2  0
 14 15  1  0
 14 16  1  0
 16 17  2  0
 17 18  1  0
 18 19  1  0
 19 20  2  0
  8  4  1  0
 17 10  1  0
 19  6  1  0
  1 21  1  0
  1 22  1  0
  1 23  1  0
  2 24  1  0
  3 25  1  0
  3 26  1  0
  3 27  1  0
  5 28  1  0
  5 29  1  0
 12 30  1  0
 13 31  1  0
 15 32  1  0
 16 33  1  0
M  END
$$$$
[H]OC(=O)C([H])([H])[C@@]([H])(C(=O)C([H])([H])Oc1c([H])c([H])c([H])c([H])c1[H])N([H])C(=O)c1c([H])c([H])c([H])c(C([H])(OC([H])([H])c2c([H])c([H])c([H])c([H])c2[H])c2c([H])c([H])c([H])c([H])c2[H])c1[H]
     RDKit          3D

 68 71  0  0  0  0  0  0  0  0999 V2000
    5.4009    3.2033   -0.4621 O   0  0  0  0  0  0  0  0  0  0  0  0
    4.9273    2.9620    0.8287 C   0  0  0  0  0  0  0  0  0  0  0  0
    5.6313    3.3205    1.8024 O   0  0  0  0  0  0  0  0  0  0  0  0
    3.6562    2.3177    1.0856 C   0  0  0  0  0  0  0  0  0  0  0  0
    3.6475    0.8103    1.2801 C   0  0  2  0  0  0  0  0  0  0  0  0
    2.1960    0.5567    1.5304 N   0  0  0  0  0  0  0  0  0  0  0  0
    1.3526   -0.0875    0.6286 C   0  0  0  0  0  0  0  0  0  0  0  0
    1.8279   -0.4882   -0.4619 O   0  0  0  0  0  0  0  0  0  0  0  0
   -0.0679   -0.2968    0.9341 C   0  0  0  0  0  0  0  0  0  0  0  0
   -0.4959   -0.2560    2.2377 C   0  0  0  0  0  0  0  0  0  0  0  0
   -1.8513   -0.4276    2.4981 C   0  0  0  0  0  0  0  0  0  0  0  0
   -2.7385   -0.6345    1.4651 C   0  0  0  0  0  0  0  0  0  0  0  0
   -2.3184   -0.6798    0.1356 C   0  0  0  0  0  0  0  0  0  0  0  0
   -0.9684   -0.5062   -0.0962 C   0  0  0  0  0  0  0  0  0  0  0  0
   -3.3073   -0.9057   -0.9552 C   0  0  0  0  0  0  0  0  0  0  0  0
   -4.3828   -0.0171   -0.7266 O   0  0  0  0  0  0  0  0  0  0  0  0
   -4.5459    0.8201   -1.8246 C   0  0  0  0  0  0  0  0  0  0  0  0
   -5.6951    1.7289   -1.5910 C   0  0  0  0  0  0  0  0  0  0  0  0
   -6.1621    2.5626   -2.5905 C   0  0  0  0  0  0  0  0  0  0  0  0
   -7.2375    3.4203   -2.4242 C   0  0  0  0  0  0  0  0  0  0  0  0
   -7.9012    3.4692   -1.2025 C   0  0  0  0  0  0  0  0  0  0  0  0
   -7.4469    2.6458   -0.2041 C   0  0  0  0  0  0  0  0  0  0  0  0
   -6.3707    1.7976   -0.3938 C   0  0  0  0  0  0  0  0  0  0  0  0
   -3.8252   -2.3062   -0.7735 C   0  0  0  0  0  0  0  0  0  0  0  0
   -5.0507   -2.6009   -1.3368 C   0  0  0  0  0  0  0  0  0  0  0  0
   -5.5962   -3.8646   -1.2025 C   0  0  0  0  0  0  0  0  0  0  0  0
   -4.8743   -4.8197   -0.4873 C   0  0  0  0  0  0  0  0  0  0  0  0
   -3.6437   -4.5019    0.0711 C   0  0  0  0  0  0  0  0  0  0  0  0
   -3.1129   -3.2514   -0.0667 C   0  0  0  0  0  0  0  0  0  0  0  0
    4.3445    0.3263    2.4560 C   0  0  0  0  0  0  0  0  0  0  0  0
    3.6634    0.0136    3.4591 O   0  0  0  0  0  0  0  0  0  0  0  0
    5.8056    0.1341    2.6655 C   0  0  0  0  0  0  0  0  0  0  0  0
    6.6391    0.2029    1.6462 O   0  0  0  0  0  0  0  0  0  0  0  0
    7.1302   -0.1883    0.5032 C   0  0  0  0  0  0  0  0  0  0  0  0
    8.2182    0.4481   -0.1330 C   0  0  0  0  0  0  0  0  0  0  0  0
    8.7312    0.0344   -1.3277 C   0  0  0  0  0  0  0  0  0  0  0  0
    8.1835   -1.0663   -1.9901 C   0  0  0  0  0  0  0  0  0  0  0  0
    7.1237   -1.7093   -1.4008 C   0  0  0  0  0  0  0  0  0  0  0  0
    6.6126   -1.2866   -0.1958 C   0  0  0  0  0  0  0  0  0  0  0  0
    5.5409    2.4264   -1.1064 H   0  0  0  0  0  0  0  0  0  0  0  0
    3.0713    2.8290    1.8846 H   0  0  0  0  0  0  0  0  0  0  0  0
    3.0216    2.4742    0.1589 H   0  0  0  0  0  0  0  0  0  0  0  0
    3.8815    0.3240    0.3237 H   0  0  0  0  0  0  0  0  0  0  0  0
    1.8350    0.9017    2.4355 H   0  0  0  0  0  0  0  0  0  0  0  0
    0.2078   -0.0966    3.0676 H   0  0  0  0  0  0  0  0  0  0  0  0
   -2.1486   -0.3891    3.5350 H   0  0  0  0  0  0  0  0  0  0  0  0
   -3.7745   -0.7714    1.6532 H   0  0  0  0  0  0  0  0  0  0  0  0
   -0.6247   -0.5355   -1.1292 H   0  0  0  0  0  0  0  0  0  0  0  0
   -2.8295   -0.7670   -1.9243 H   0  0  0  0  0  0  0  0  0  0  0  0
   -3.6398    1.4621   -1.9014 H   0  0  0  0  0  0  0  0  0  0  0  0
   -4.6936    0.3132   -2.7793 H   0  0  0  0  0  0  0  0  0  0  0  0
   -5.6871    2.5747   -3.5693 H   0  0  0  0  0  0  0  0  0  0  0  0
   -7.6164    4.0798   -3.1971 H   0  0  0  0  0  0  0  0  0  0  0  0
   -8.7457    4.1354   -1.0631 H   0  0  0  0  0  0  0  0  0  0  0  0
   -7.9546    2.6720    0.7503 H   0  0  0  0  0  0  0  0  0  0  0  0
   -6.0256    1.1581    0.4026 H   0  0  0  0  0  0  0  0  0  0  0  0
   -5.5890   -1.8209   -1.8966 H   0  0  0  0  0  0  0  0  0  0  0  0
   -6.5703   -4.0988   -1.6495 H   0  0  0  0  0  0  0  0  0  0  0  0
   -5.2785   -5.8114   -0.3706 H   0  0  0  0  0  0  0  0  0  0  0  0
   -3.0793   -5.2530    0.6344 H   0  0  0  0  0  0  0  0  0  0  0  0
   -2.1516   -2.9593    0.3496 H   0  0  0  0  0  0  0  0  0  0  0  0
    5.9837   -0.7760    3.3180 H   0  0  0  0  0  0  0  0  0  0  0  0
    6.0822    0.9768    3.4097 H   0  0  0  0  0  0  0  0  0  0  0  0
    8.6381    1.2945    0.3816 H   0  0  0  0  0  0  0  0  0  0  0  0
    9.5715    0.5150   -1.8282 H   0  0  0  0  0  0  0  0  0  0  0  0
    8.6041   -1.3818   -2.9386 H   0  0  0  0  0  0  0  0  0  0  0  0
    6.7061   -2.5671   -1.9265 H   0  0  0  0  0  0  0  0  0  0  0  0
    5.7661   -1.7889    0.2798 H   0  0  0  0  0  0  0  0  0  0  0  0
  1  2  1  0
  2  3  2  0
  2  4  1  0
  4  5  1  0
  5  6  1  0
  6  7  1  0
  7  8  2  0
  7  9  1  0
  9 10  2  0
 10 11  1  0
 11 12  2  0
 12 13  1  0
 13 14  2  0
 13 15  1  0
 15 16  1  0
 16 17  1  0
 17 18  1  0
 18 19  2  0
 19 20  1  0
 20 21  2  0
 21 22  1  0
 22 23  2  0
 15 24  1  0
 24 25  2  0
 25 26  1  0
 26 27  2  0
 27 28  1  0
 28 29  2  0
  5 30  1  0
 30 31  2  0
 30 32  1  0
 32 33  1  0
 33 34  1  0
 34 35  2  0
 35 36  1  0
 36 37  2  0
 37 38  1  0
 38 39  2  0
 14  9  1  0
 23 18  1  0
 29 24  1  0
 39 34  1  0
  1 40  1  0
  4 41  1  0
  4 42  1  0
  5 43  1  6
  6 44  1  0
 10 45  1  0
 11 46  1  0
 12 47  1  0
 14 48  1  0
 15 49  1  0
 17 50  1  0
 17 51  1  0
 19 52  1  0
 20 53  1  0
 21 54  1  0
 22 55  1  0
 23 56  1  0
 25 57  1  0
 26 58  1  0
 27 59  1  0
 28 60  1  0
 29 61  1  0
 32 62  1  0
 32 63  1  0
 35 64  1  0
 36 65  1  0
 37 66  1  0
 38 67  1  0
 39 68  1  0
M  END
$$$$
[H]c1c([H])c(C#N)c(OC([H])([H])[H])c([H])c1F
     RDKit          3D

 17 17  0  0  0  0  0  0  0  0999 V2000
    2.6130   -0.6816    0.5433 C   0  0  0  0  0  0  0  0  0  0  0  0
    1.6845    0.3274    0.2050 O   0  0  0  0  0  0  0  0  0  0  0  0
    0.3280    0.0977    0.0317 C   0  0  0  0  0  0  0  0  0  0  0  0
   -0.2465   -1.1476    0.1745 C   0  0  0  0  0  0  0  0  0  0  0  0
   -1.6056   -1.2863   -0.0164 C   0  0  0  0  0  0  0  0  0  0  0  0
   -2.2171   -2.5057    0.1157 F   0  0  0  0  0  0  0  0  0  0  0  0
   -2.3757   -0.1785   -0.3480 C   0  0  0  0  0  0  0  0  0  0  0  0
   -1.7962    1.0681   -0.4903 C   0  0  0  0  0  0  0  0  0  0  0  0
   -0.4317    1.2247   -0.3019 C   0  0  0  0  0  0  0  0  0  0  0  0
    0.1761    2.5233   -0.4494 C   0  0  0  0  0  0  0  0  0  0  0  0
    0.6826    3.5663   -0.5680 N   0  0  0  0  0  0  0  0  0  0  0  0
    2.8527   -1.2509   -0.3688 H   0  0  0  0  0  0  0  0  0  0  0  0
    2.2766   -1.3142    1.3901 H   0  0  0  0  0  0  0  0  0  0  0  0
    3.5264   -0.1543    0.9079 H   0  0  0  0  0  0  0  0  0  0  0  0
    0.3643   -2.0023    0.4330 H   0  0  0  0  0  0  0  0  0  0  0  0
   -3.4394   -0.2369   -0.5068 H   0  0  0  0  0  0  0  0  0  0  0  0
   -2.3919    1.9510   -0.7517 H   0  0  0  0  0  0  0  0  0  0  0  0
  1  2  1  0
  2  3  1  0
  3  4  2  0
  4  5  1  0
  5  6  1  0
  5  7  2  0
  7  8  1  0
  8  9  2  0
  9 10  1  0
 10 11  3  0
  9  3  1  0
  1 12  1  0
  1 13  1  0
  1 14  1  0
  4 15  1  0
  7 16  1  0
  8 17  1  0
M  END
$$$$
[H]OC([H])([H])c1sc(C2=NC(=O)/C(=C(/[H])c3nn([H])c(C([H])([H])[H])c3[H])C(=O)N2c2nc([H])c([H])c(C([H])([H])[H])c2[H])c([H])c1[H]
     RDKit          3D

 46 49  0  0  0  0  0  0  0  0999 V2000
    4.4706   -1.1533   -2.6711 C   0  0  0  0  0  0  0  0  0  0  0  0
    3.4442   -1.7305   -1.7852 C   0  0  0  0  0  0  0  0  0  0  0  0
    3.5689   -3.0382   -1.3573 C   0  0  0  0  0  0  0  0  0  0  0  0
    2.5977   -3.5623   -0.5319 C   0  0  0  0  0  0  0  0  0  0  0  0
    1.5708   -2.8137   -0.1649 N   0  0  0  0  0  0  0  0  0  0  0  0
    1.3929   -1.5130   -0.5558 C   0  0  0  0  0  0  0  0  0  0  0  0
    2.3646   -1.0094   -1.3735 C   0  0  0  0  0  0  0  0  0  0  0  0
    0.2470   -0.8234   -0.1149 N   0  0  0  0  0  0  0  0  0  0  0  0
   -1.0590   -1.2825   -0.5573 C   0  0  0  0  0  0  0  0  0  0  0  0
   -1.1542   -2.2718   -1.2957 O   0  0  0  0  0  0  0  0  0  0  0  0
   -2.2544   -0.5585   -0.1161 C   0  0  0  0  0  0  0  0  0  0  0  0
   -3.4626   -0.8856   -0.5081 C   0  0  0  0  0  0  0  0  0  0  0  0
   -4.7062   -0.2551   -0.1364 C   0  0  0  0  0  0  0  0  0  0  0  0
   -5.6569    0.3349   -0.9617 C   0  0  0  0  0  0  0  0  0  0  0  0
   -6.6961    0.7120   -0.1765 C   0  0  0  0  0  0  0  0  0  0  0  0
   -7.9547    1.3899   -0.5977 C   0  0  0  0  0  0  0  0  0  0  0  0
   -6.4312    0.3829    1.0895 N   0  0  0  0  0  0  0  0  0  0  0  0
   -5.2538   -0.1851    1.0867 N   0  0  0  0  0  0  0  0  0  0  0  0
   -2.0457    0.5783    0.7393 C   0  0  0  0  0  0  0  0  0  0  0  0
   -2.9783    1.2745    1.1741 O   0  0  0  0  0  0  0  0  0  0  0  0
   -0.7299    0.9473    1.1170 N   0  0  0  0  0  0  0  0  0  0  0  0
    0.3408    0.2920    0.7176 C   0  0  0  0  0  0  0  0  0  0  0  0
    1.6478    0.7769    1.1624 C   0  0  0  0  0  0  0  0  0  0  0  0
    2.7515    0.1758    1.6585 C   0  0  0  0  0  0  0  0  0  0  0  0
    3.8105    0.9331    1.9752 C   0  0  0  0  0  0  0  0  0  0  0  0
    3.7014    2.2838    1.7725 C   0  0  0  0  0  0  0  0  0  0  0  0
    4.7156    3.3617    2.0391 C   0  0  0  0  0  0  0  0  0  0  0  0
    5.7348    2.7907    2.7681 O   0  0  0  0  0  0  0  0  0  0  0  0
    2.1277    2.4486    1.1468 S   0  0  0  0  0  0  0  0  0  0  0  0
    4.6042   -1.7884   -3.5776 H   0  0  0  0  0  0  0  0  0  0  0  0
    4.2218   -0.1176   -2.9510 H   0  0  0  0  0  0  0  0  0  0  0  0
    5.4541   -1.1511   -2.1452 H   0  0  0  0  0  0  0  0  0  0  0  0
    4.4270   -3.6420   -1.6722 H   0  0  0  0  0  0  0  0  0  0  0  0
    2.7426   -4.5995   -0.2213 H   0  0  0  0  0  0  0  0  0  0  0  0
    2.2689    0.0157   -1.7113 H   0  0  0  0  0  0  0  0  0  0  0  0
   -3.4631   -1.7600   -1.2091 H   0  0  0  0  0  0  0  0  0  0  0  0
   -5.5401    0.4469   -2.0225 H   0  0  0  0  0  0  0  0  0  0  0  0
   -7.8867    1.7919   -1.6243 H   0  0  0  0  0  0  0  0  0  0  0  0
   -8.1398    2.1823    0.1696 H   0  0  0  0  0  0  0  0  0  0  0  0
   -8.8364    0.7203   -0.5486 H   0  0  0  0  0  0  0  0  0  0  0  0
   -7.0300    0.5385    1.9205 H   0  0  0  0  0  0  0  0  0  0  0  0
    2.7653   -0.9288    1.8044 H   0  0  0  0  0  0  0  0  0  0  0  0
    4.7648    0.5403    2.3890 H   0  0  0  0  0  0  0  0  0  0  0  0
    4.2193    4.1896    2.5810 H   0  0  0  0  0  0  0  0  0  0  0  0
    5.0468    3.7607    1.0543 H   0  0  0  0  0  0  0  0  0  0  0  0
    6.2776    2.2010    2.2216 H   0  0  0  0  0  0  0  0  0  0  0  0
  1  2  1  0
  2  3  2  0
  3  4  1  0
  4  5  2  0
  5  6  1  0
  6  7  2  0
  6  8  1  0
  8  9  1  0
  9 10  2  0
  9 11  1  0
 11 12  2  0
 12 13  1  0
 13 14  1  0
 14 15  2  0
 15 16  1  0
 15 17  1  0
 17 18  1  0
 11 19  1  0
 19 20  2  0
 19 21  1  0
 21 22  2  0
 22 23  1  0
 23 24  2  0
 24 25  1  0
 25 26  2  0
 26 27  1  0
 27 28  1  0
 26 29  1  0
  7  2  1  0
 22  8  1  0
 29 23  1  0
 18 13  2  0
  1 30  1  0
  1 31  1  0
  1 32  1  0
  3 33  1  0
  4 34  1  0
  7 35  1  0
 12 36  1  0
 14 37  1  0
 16 38  1  0
 16 39  1  0
 16 40  1  0
 17 41  1  0
 24 42  1  0
 25 43  1  0
 27 44  1  0
 27 45  1  0
 28 46  1  0
M  END
$$$$
[H]c1nc(N([H])[H])c(C(=O)N([H])c2nc([H])c([H])c([H])c2N2C([H])([H])C([H])([H])C(N([H])[H])(C([H])([H])[H])C([H])([H])C2([H])[H])nc1-c1nc(N2C([H])([H])C([H])([H])OC([H])([H])C2([H])[H])c([H])c([H])c1C(F)(F)F
     RDKit          3D

 70 74  0  0  0  0  0  0  0  0999 V2000
   -6.0684    2.8322    1.7177 C   0  0  0  0  0  0  0  0  0  0  0  0
   -5.1763    2.5712    0.5068 C   0  0  0  0  0  0  0  0  0  0  0  0
   -5.4636    3.6286   -0.4406 N   0  0  0  0  0  0  0  0  0  0  0  0
   -3.7633    2.6440    0.9646 C   0  0  0  0  0  0  0  0  0  0  0  0
   -2.7320    2.1043    0.0569 C   0  0  0  0  0  0  0  0  0  0  0  0
   -3.1451    0.9243   -0.6218 N   0  0  0  0  0  0  0  0  0  0  0  0
   -4.5103    0.6089   -0.8923 C   0  0  0  0  0  0  0  0  0  0  0  0
   -5.5433    1.2025   -0.0141 C   0  0  0  0  0  0  0  0  0  0  0  0
   -2.1364    0.0213   -1.0756 C   0  0  0  0  0  0  0  0  0  0  0  0
   -1.9176   -0.0826   -2.4321 C   0  0  0  0  0  0  0  0  0  0  0  0
   -0.9239   -0.9197   -2.8855 C   0  0  0  0  0  0  0  0  0  0  0  0
   -0.1948   -1.6165   -1.9190 C   0  0  0  0  0  0  0  0  0  0  0  0
   -0.4504   -1.4774   -0.6154 N   0  0  0  0  0  0  0  0  0  0  0  0
   -1.4008   -0.6826   -0.1201 C   0  0  0  0  0  0  0  0  0  0  0  0
   -1.7533   -0.6234    1.2458 N   0  0  0  0  0  0  0  0  0  0  0  0
   -1.1544   -1.1343    2.3750 C   0  0  0  0  0  0  0  0  0  0  0  0
   -1.9460   -1.0276    3.4440 O   0  0  0  0  0  0  0  0  0  0  0  0
    0.1209   -1.7489    2.6431 C   0  0  0  0  0  0  0  0  0  0  0  0
    1.1417   -1.7227    1.8180 N   0  0  0  0  0  0  0  0  0  0  0  0
    2.4018   -2.2283    2.0716 C   0  0  0  0  0  0  0  0  0  0  0  0
    2.5162   -2.7783    3.2895 C   0  0  0  0  0  0  0  0  0  0  0  0
    1.4720   -2.8343    4.2010 N   0  0  0  0  0  0  0  0  0  0  0  0
    0.2863   -2.3351    3.9074 C   0  0  0  0  0  0  0  0  0  0  0  0
   -0.8095   -2.3901    4.8435 N   0  0  0  0  0  0  0  0  0  0  0  0
    3.4367   -1.9438    1.1076 C   0  0  0  0  0  0  0  0  0  0  0  0
    3.0532   -1.1161    0.0564 N   0  0  0  0  0  0  0  0  0  0  0  0
    3.8129   -0.7807   -0.9629 C   0  0  0  0  0  0  0  0  0  0  0  0
    5.0883   -1.3013   -0.9755 C   0  0  0  0  0  0  0  0  0  0  0  0
    5.5377   -2.1251    0.0205 C   0  0  0  0  0  0  0  0  0  0  0  0
    4.6873   -2.4628    1.0991 C   0  0  0  0  0  0  0  0  0  0  0  0
    5.2353   -3.4329    2.0451 C   0  0  0  0  0  0  0  0  0  0  0  0
    4.5531   -4.6310    2.1436 F   0  0  0  0  0  0  0  0  0  0  0  0
    5.7416   -2.8741    3.1595 F   0  0  0  0  0  0  0  0  0  0  0  0
    6.4315   -3.9683    1.3820 F   0  0  0  0  0  0  0  0  0  0  0  0
    3.3887    0.1053   -1.9825 N   0  0  0  0  0  0  0  0  0  0  0  0
    3.9373   -0.0202   -3.3091 C   0  0  0  0  0  0  0  0  0  0  0  0
    4.5850    1.3159   -3.6228 C   0  0  0  0  0  0  0  0  0  0  0  0
    4.4417    2.2201   -2.5710 O   0  0  0  0  0  0  0  0  0  0  0  0
    3.1176    2.4515   -2.2167 C   0  0  0  0  0  0  0  0  0  0  0  0
    2.4371    1.1726   -1.7548 C   0  0  0  0  0  0  0  0  0  0  0  0
   -5.5230    2.4161    2.6130 H   0  0  0  0  0  0  0  0  0  0  0  0
   -6.0984    3.9435    1.8777 H   0  0  0  0  0  0  0  0  0  0  0  0
   -7.0560    2.3829    1.6068 H   0  0  0  0  0  0  0  0  0  0  0  0
   -6.4301    4.0098   -0.3328 H   0  0  0  0  0  0  0  0  0  0  0  0
   -5.2328    3.3646   -1.4215 H   0  0  0  0  0  0  0  0  0  0  0  0
   -3.5294    3.7136    1.1580 H   0  0  0  0  0  0  0  0  0  0  0  0
   -3.6864    2.0962    1.9406 H   0  0  0  0  0  0  0  0  0  0  0  0
   -2.4219    2.8824   -0.7125 H   0  0  0  0  0  0  0  0  0  0  0  0
   -1.8157    1.8891    0.6668 H   0  0  0  0  0  0  0  0  0  0  0  0
   -4.5906   -0.5169   -0.7507 H   0  0  0  0  0  0  0  0  0  0  0  0
   -4.7389    0.8038   -1.9763 H   0  0  0  0  0  0  0  0  0  0  0  0
   -5.7880    0.5351    0.8437 H   0  0  0  0  0  0  0  0  0  0  0  0
   -6.4876    1.3141   -0.5902 H   0  0  0  0  0  0  0  0  0  0  0  0
   -2.5040    0.4748   -3.1548 H   0  0  0  0  0  0  0  0  0  0  0  0
   -0.6939   -1.0535   -3.9250 H   0  0  0  0  0  0  0  0  0  0  0  0
    0.5890   -2.2739   -2.3064 H   0  0  0  0  0  0  0  0  0  0  0  0
   -2.7430   -0.2008    1.4172 H   0  0  0  0  0  0  0  0  0  0  0  0
    3.4117   -3.1641    3.6846 H   0  0  0  0  0  0  0  0  0  0  0  0
   -0.8757   -1.6696    5.5905 H   0  0  0  0  0  0  0  0  0  0  0  0
   -1.4832   -3.1757    4.7016 H   0  0  0  0  0  0  0  0  0  0  0  0
    5.7510   -1.0456   -1.7919 H   0  0  0  0  0  0  0  0  0  0  0  0
    6.5588   -2.5249    0.0007 H   0  0  0  0  0  0  0  0  0  0  0  0
    4.6791   -0.8055   -3.4418 H   0  0  0  0  0  0  0  0  0  0  0  0
    3.1014   -0.1514   -4.0574 H   0  0  0  0  0  0  0  0  0  0  0  0
    5.6625    1.1285   -3.7934 H   0  0  0  0  0  0  0  0  0  0  0  0
    4.2013    1.7352   -4.5786 H   0  0  0  0  0  0  0  0  0  0  0  0
    3.1417    3.1529   -1.3612 H   0  0  0  0  0  0  0  0  0  0  0  0
    2.5375    2.9185   -3.0322 H   0  0  0  0  0  0  0  0  0  0  0  0
    1.5687    0.9883   -2.4238 H   0  0  0  0  0  0  0  0  0  0  0  0
    2.1614    1.2877   -0.7075 H   0  0  0  0  0  0  0  0  0  0  0  0
  1  2  1  0
  2  3  1  0
  2  4  1  0
  4  5  1  0
  5  6  1  0
  6  7  1  0
  7  8  1  0
  6  9  1  0
  9 10  2  0
 10 11  1  0
 11 12  2  0
 12 13  1  0
 13 14  2  0
 14 15  1  0
 15 16  1  0
 16 17  2  0
 16 18  1  0
 18 19  2  0
 19 20  1  0
 20 21  2  0
 21 22  1  0
 22 23  2  0
 23 24  1  0
 20 25  1  0
 25 26  2  0
 26 27  1  0
 27 28  2  0
 28 29  1  0
 29 30  2  0
 30 31  1  0
 31 32  1  0
 31 33  1  0
 31 34  1  0
 27 35  1  0
 35 36  1  0
 36 37  1  0
 37 38  1  0
 38 39  1  0
 39 40  1  0
  8  2  1  0
 14  9  1  0
 23 18  1  0
 30 25  1  0
 40 35  1  0
  1 41  1  0
  1 42  1  0
  1 43  1  0
  3 44  1  0
  3 45  1  0
  4 46  1  0
  4 47  1  0
  5 48  1  0
  5 49  1  0
  7 50  1  0
  7 51  1  0
  8 52  1  0
  8 53  1  0
 10 54  1  0
 11 55  1  0
 12 56  1  0
 15 57  1  0
 21 58  1  0
 24 59  1  0
 24 60  1  0
 28 61  1  0
 29 62  1  0
 36 63  1  0
 36 64  1  0
 37 65  1  0
 37 66  1  0
 39 67  1  0
 39 68  1  0
 40 69  1  0
 40 70  1  0
M  END
$$$$
[H]c1c([H])c([H])c2c(C(=O)N3C([H])([H])C([H])([H])C([H])([H])[C@]3([H])C([H])([H])N(C(=O)[C@@]([H])(N([H])[H])C([H])([H])[H])C([H])([H])[H])c([H])c([H])c([H])c2c1[H]
     RDKit          3D

 50 52  0  0  0  0  0  0  0  0999 V2000
    5.4926   -1.2053    2.0371 C   0  0  0  0  0  0  0  0  0  0  0  0
    4.9384   -0.9255    0.6362 C   0  0  2  0  0  0  0  0  0  0  0  0
    5.8304   -0.0293   -0.0046 N   0  0  0  0  0  0  0  0  0  0  0  0
    3.5367   -0.5287    0.7277 C   0  0  0  0  0  0  0  0  0  0  0  0
    2.7709   -1.3804    1.3165 O   0  0  0  0  0  0  0  0  0  0  0  0
    2.9150    0.6333    0.2710 N   0  0  0  0  0  0  0  0  0  0  0  0
    3.6850    1.6742   -0.3865 C   0  0  0  0  0  0  0  0  0  0  0  0
    1.4671    0.8670    0.4066 C   0  0  0  0  0  0  0  0  0  0  0  0
    0.7864    0.3920   -0.8007 C   0  0  1  0  0  0  0  0  0  0  0  0
    0.9241   -1.0591   -1.1495 C   0  0  0  0  0  0  0  0  0  0  0  0
    0.0094   -1.1065   -2.3919 C   0  0  0  0  0  0  0  0  0  0  0  0
   -1.0590   -0.0616   -2.0669 C   0  0  0  0  0  0  0  0  0  0  0  0
   -0.6440    0.5572   -0.8238 N   0  0  0  0  0  0  0  0  0  0  0  0
   -1.5278    1.1668    0.1031 C   0  0  0  0  0  0  0  0  0  0  0  0
   -1.0279    1.6676    1.1471 O   0  0  0  0  0  0  0  0  0  0  0  0
   -2.9633    1.2130   -0.1421 C   0  0  0  0  0  0  0  0  0  0  0  0
   -3.5710    2.2526   -0.8152 C   0  0  0  0  0  0  0  0  0  0  0  0
   -4.9228    2.2776   -1.0357 C   0  0  0  0  0  0  0  0  0  0  0  0
   -5.6840    1.2209   -0.5623 C   0  0  0  0  0  0  0  0  0  0  0  0
   -5.0813    0.1737    0.1143 C   0  0  0  0  0  0  0  0  0  0  0  0
   -5.8776   -0.8687    0.5743 C   0  0  0  0  0  0  0  0  0  0  0  0
   -5.2995   -1.9219    1.2504 C   0  0  0  0  0  0  0  0  0  0  0  0
   -3.9355   -1.9176    1.4565 C   0  0  0  0  0  0  0  0  0  0  0  0
   -3.1217   -0.9112    1.0191 C   0  0  0  0  0  0  0  0  0  0  0  0
   -3.7124    0.1365    0.3442 C   0  0  0  0  0  0  0  0  0  0  0  0
    5.4049   -2.2630    2.3130 H   0  0  0  0  0  0  0  0  0  0  0  0
    4.9647   -0.6104    2.8083 H   0  0  0  0  0  0  0  0  0  0  0  0
    6.5690   -0.9295    2.0916 H   0  0  0  0  0  0  0  0  0  0  0  0
    5.0376   -1.9270    0.1141 H   0  0  0  0  0  0  0  0  0  0  0  0
    6.1478   -0.3816   -0.9351 H   0  0  0  0  0  0  0  0  0  0  0  0
    6.5916    0.3181    0.5888 H   0  0  0  0  0  0  0  0  0  0  0  0
    4.0664    1.2440   -1.3344 H   0  0  0  0  0  0  0  0  0  0  0  0
    3.0079    2.5178   -0.6968 H   0  0  0  0  0  0  0  0  0  0  0  0
    4.4674    2.1063    0.2629 H   0  0  0  0  0  0  0  0  0  0  0  0
    1.3631    1.9474    0.6172 H   0  0  0  0  0  0  0  0  0  0  0  0
    1.1909    0.2935    1.3328 H   0  0  0  0  0  0  0  0  0  0  0  0
    1.1630    0.9497   -1.7123 H   0  0  0  0  0  0  0  0  0  0  0  0
    0.5101   -1.7602   -0.4112 H   0  0  0  0  0  0  0  0  0  0  0  0
    1.9447   -1.3733   -1.4341 H   0  0  0  0  0  0  0  0  0  0  0  0
    0.6532   -0.7655   -3.2288 H   0  0  0  0  0  0  0  0  0  0  0  0
   -0.4046   -2.1013   -2.5449 H   0  0  0  0  0  0  0  0  0  0  0  0
   -2.0584   -0.5270   -1.9950 H   0  0  0  0  0  0  0  0  0  0  0  0
   -1.0082    0.7135   -2.8563 H   0  0  0  0  0  0  0  0  0  0  0  0
   -2.9541    3.0572   -1.1700 H   0  0  0  0  0  0  0  0  0  0  0  0
   -5.3767    3.1111   -1.5702 H   0  0  0  0  0  0  0  0  0  0  0  0
   -6.7514    1.2475   -0.7402 H   0  0  0  0  0  0  0  0  0  0  0  0
   -6.9522   -0.8511    0.4003 H   0  0  0  0  0  0  0  0  0  0  0  0
   -5.9507   -2.7189    1.5957 H   0  0  0  0  0  0  0  0  0  0  0  0
   -3.5030   -2.7509    1.9876 H   0  0  0  0  0  0  0  0  0  0  0  0
   -2.0509   -0.8632    1.1560 H   0  0  0  0  0  0  0  0  0  0  0  0
  1  2  1  0
  2  3  1  0
  2  4  1  0
  4  5  2  0
  4  6  1  0
  6  7  1  0
  6  8  1  0
  8  9  1  0
  9 10  1  0
 10 11  1  0
 11 12  1  0
 12 13  1  0
 13 14  1  0
 14 15  2  0
 14 16  1  0
 16 17  2  0
 17 18  1  0
 18 19  2  0
 19 20  1  0
 20 21  2  0
 21 22  1  0
 22 23  2  0
 23 24  1  0
 24 25  2  0
 13  9  1  0
 25 16  1  0
 25 20  1  0
  1 26  1  0
  1 27  1  0
  1 28  1  0
  2 29  1  6
  3 30  1  0
  3 31  1  0
  7 32  1  0
  7 33  1  0
  7 34  1  0
  8 35  1  0
  8 36  1  0
  9 37  1  6
 10 38  1  0
 10 39  1  0
 11 40  1  0
 11 41  1  0
 12 42  1  0
 12 43  1  0
 17 44  1  0
 18 45  1  0
 19 46  1  0
 21 47  1  0
 22 48  1  0
 23 49  1  0
 24 50  1  0
M  END
$$$$
[H]c1nc(C(=O)N([H])C([H])([H])[H])c([H])c(N([H])c2nc(OC3([H])C([H])([H])C([H])([H])OC([H])([H])C3([H])[H])c3c([H])c(OC([H])([H])[H])c(OC([H])([H])[H])c([H])c3n2)n1
     RDKit          3D

 56 59  0  0  0  0  0  0  0  0999 V2000
    8.4988    1.6447    1.4264 C   0  0  0  0  0  0  0  0  0  0  0  0
    7.1465    1.1762    1.2085 N   0  0  0  0  0  0  0  0  0  0  0  0
    6.8500   -0.1986    1.2386 C   0  0  0  0  0  0  0  0  0  0  0  0
    7.7707   -1.0160    1.4567 O   0  0  0  0  0  0  0  0  0  0  0  0
    5.5083   -0.6836    1.0236 C   0  0  0  0  0  0  0  0  0  0  0  0
    4.4245    0.1284    0.7761 C   0  0  0  0  0  0  0  0  0  0  0  0
    3.1487   -0.3622    0.5734 C   0  0  0  0  0  0  0  0  0  0  0  0
    2.0525    0.5160    0.3195 N   0  0  0  0  0  0  0  0  0  0  0  0
    0.7300    0.0078    0.1094 C   0  0  0  0  0  0  0  0  0  0  0  0
   -0.2976    0.8385   -0.1291 N   0  0  0  0  0  0  0  0  0  0  0  0
   -1.5565    0.3947   -0.3316 C   0  0  0  0  0  0  0  0  0  0  0  0
   -2.6148    1.2612   -0.5778 O   0  0  0  0  0  0  0  0  0  0  0  0
   -2.4336    2.6672   -0.6310 C   0  0  0  0  0  0  0  0  0  0  0  0
   -2.7882    3.2196   -1.9800 C   0  0  0  0  0  0  0  0  0  0  0  0
   -2.7758    4.7462   -1.8581 C   0  0  0  0  0  0  0  0  0  0  0  0
   -3.8229    5.0756   -0.9964 O   0  0  0  0  0  0  0  0  0  0  0  0
   -3.5436    4.7176    0.3035 C   0  0  0  0  0  0  0  0  0  0  0  0
   -3.2449    3.2616    0.4896 C   0  0  0  0  0  0  0  0  0  0  0  0
   -1.8353   -0.9570   -0.2996 C   0  0  0  0  0  0  0  0  0  0  0  0
   -3.1204   -1.4417   -0.5044 C   0  0  0  0  0  0  0  0  0  0  0  0
   -3.3851   -2.7949   -0.4698 C   0  0  0  0  0  0  0  0  0  0  0  0
   -4.6484   -3.3345   -0.6673 O   0  0  0  0  0  0  0  0  0  0  0  0
   -5.7937   -2.5835   -0.9224 C   0  0  0  0  0  0  0  0  0  0  0  0
   -2.3278   -3.6469   -0.2247 C   0  0  0  0  0  0  0  0  0  0  0  0
   -2.5678   -4.9982   -0.1857 O   0  0  0  0  0  0  0  0  0  0  0  0
   -1.6053   -5.9841    0.0504 C   0  0  0  0  0  0  0  0  0  0  0  0
   -1.0367   -3.1563   -0.0191 C   0  0  0  0  0  0  0  0  0  0  0  0
   -0.7744   -1.8031   -0.0542 C   0  0  0  0  0  0  0  0  0  0  0  0
    0.4710   -1.3090    0.1428 N   0  0  0  0  0  0  0  0  0  0  0  0
    2.9829   -1.7039    0.6254 N   0  0  0  0  0  0  0  0  0  0  0  0
    4.0278   -2.5164    0.8659 C   0  0  0  0  0  0  0  0  0  0  0  0
    5.2670   -2.0058    1.0607 N   0  0  0  0  0  0  0  0  0  0  0  0
    9.0724    0.9585    2.0967 H   0  0  0  0  0  0  0  0  0  0  0  0
    8.4846    2.6769    1.8310 H   0  0  0  0  0  0  0  0  0  0  0  0
    9.0515    1.6661    0.4527 H   0  0  0  0  0  0  0  0  0  0  0  0
    6.4204    1.8981    1.0318 H   0  0  0  0  0  0  0  0  0  0  0  0
    4.5563    1.1934    0.7348 H   0  0  0  0  0  0  0  0  0  0  0  0
    2.2597    1.5370    0.2948 H   0  0  0  0  0  0  0  0  0  0  0  0
   -1.3663    2.8759   -0.4489 H   0  0  0  0  0  0  0  0  0  0  0  0
   -3.8082    2.9219   -2.2881 H   0  0  0  0  0  0  0  0  0  0  0  0
   -2.0357    2.9141   -2.7081 H   0  0  0  0  0  0  0  0  0  0  0  0
   -1.7938    5.0370   -1.3969 H   0  0  0  0  0  0  0  0  0  0  0  0
   -2.9089    5.2223   -2.8374 H   0  0  0  0  0  0  0  0  0  0  0  0
   -2.7406    5.3455    0.7676 H   0  0  0  0  0  0  0  0  0  0  0  0
   -4.4770    4.9309    0.9001 H   0  0  0  0  0  0  0  0  0  0  0  0
   -4.1524    2.6382    0.6366 H   0  0  0  0  0  0  0  0  0  0  0  0
   -2.6281    3.1656    1.4222 H   0  0  0  0  0  0  0  0  0  0  0  0
   -3.9386   -0.7597   -0.6956 H   0  0  0  0  0  0  0  0  0  0  0  0
   -5.8964   -1.7311   -0.2235 H   0  0  0  0  0  0  0  0  0  0  0  0
   -5.7411   -2.1870   -1.9707 H   0  0  0  0  0  0  0  0  0  0  0  0
   -6.6824   -3.2257   -0.8541 H   0  0  0  0  0  0  0  0  0  0  0  0
   -1.0719   -5.7871    1.0111 H   0  0  0  0  0  0  0  0  0  0  0  0
   -2.1455   -6.9575    0.1375 H   0  0  0  0  0  0  0  0  0  0  0  0
   -0.9031   -6.0801   -0.8028 H   0  0  0  0  0  0  0  0  0  0  0  0
   -0.2001   -3.8197    0.1742 H   0  0  0  0  0  0  0  0  0  0  0  0
    3.9393   -3.5933    0.9158 H   0  0  0  0  0  0  0  0  0  0  0  0
  1  2  1  0
  2  3  1  0
  3  4  2  0
  3  5  1  0
  5  6  2  0
  6  7  1  0
  7  8  1  0
  8  9  1  0
  9 10  2  0
 10 11  1  0
 11 12  1  0
 12 13  1  0
 13 14  1  0
 14 15  1  0
 15 16  1  0
 16 17  1  0
 17 18  1  0
 11 19  2  0
 19 20  1  0
 20 21  2  0
 21 22  1  0
 22 23  1  0
 21 24  1  0
 24 25  1  0
 25 26  1  0
 24 27  2  0
 27 28  1  0
 28 29  2  0
  7 30  2  0
 30 31  1  0
 31 32  2  0
 32  5  1  0
 29  9  1  0
 18 13  1  0
 28 19  1  0
  1 33  1  0
  1 34  1  0
  1 35  1  0
  2 36  1  0
  6 37  1  0
  8 38  1  0
 13 39  1  0
 14 40  1  0
 14 41  1  0
 15 42  1  0
 15 43  1  0
 17 44  1  0
 17 45  1  0
 18 46  1  0
 18 47  1  0
 20 48  1  0
 23 49  1  0
 23 50  1  0
 23 51  1  0
 26 52  1  0
 26 53  1  0
 26 54  1  0
 27 55  1  0
 31 56  1  0
M  END
$$$$
[H]OC(=O)/C([H])=C(\[H])c1c([H])nc2c(c1[H])c(-c1c([H])c([H])c(N([H])[H])c([H])c1[H])c([H])n2[H]
     RDKit          3D

 34 36  0  0  0  0  0  0  0  0999 V2000
    4.5850    2.3027   -2.1406 O   0  0  0  0  0  0  0  0  0  0  0  0
    4.7009    1.2774   -1.2045 C   0  0  0  0  0  0  0  0  0  0  0  0
    5.8258    0.8648   -0.8238 O   0  0  0  0  0  0  0  0  0  0  0  0
    3.4754    0.6602   -0.6460 C   0  0  0  0  0  0  0  0  0  0  0  0
    3.5799   -0.3026    0.2330 C   0  0  0  0  0  0  0  0  0  0  0  0
    2.4418   -0.9598    0.8285 C   0  0  0  0  0  0  0  0  0  0  0  0
    2.6252   -1.9851    1.7646 C   0  0  0  0  0  0  0  0  0  0  0  0
    1.5927   -2.6222    2.3422 N   0  0  0  0  0  0  0  0  0  0  0  0
    0.3139   -2.3237    2.0651 C   0  0  0  0  0  0  0  0  0  0  0  0
   -0.8885   -2.7699    2.4702 N   0  0  0  0  0  0  0  0  0  0  0  0
   -1.8680   -2.0914    1.8486 C   0  0  0  0  0  0  0  0  0  0  0  0
   -1.2973   -1.1547    0.9943 C   0  0  0  0  0  0  0  0  0  0  0  0
   -1.9699   -0.2074    0.1193 C   0  0  0  0  0  0  0  0  0  0  0  0
   -1.6475    0.0025   -1.2037 C   0  0  0  0  0  0  0  0  0  0  0  0
   -2.3261    0.9232   -1.9778 C   0  0  0  0  0  0  0  0  0  0  0  0
   -3.3638    1.6837   -1.4706 C   0  0  0  0  0  0  0  0  0  0  0  0
   -4.0523    2.6269   -2.2799 N   0  0  0  0  0  0  0  0  0  0  0  0
   -3.6955    1.4796   -0.1411 C   0  0  0  0  0  0  0  0  0  0  0  0
   -3.0144    0.5589    0.6272 C   0  0  0  0  0  0  0  0  0  0  0  0
    0.0630   -1.3177    1.1462 C   0  0  0  0  0  0  0  0  0  0  0  0
    1.1361   -0.6473    0.5386 C   0  0  0  0  0  0  0  0  0  0  0  0
    5.3964    2.4612   -2.7547 H   0  0  0  0  0  0  0  0  0  0  0  0
    2.4988    0.9905   -0.9510 H   0  0  0  0  0  0  0  0  0  0  0  0
    4.5775   -0.6081    0.5156 H   0  0  0  0  0  0  0  0  0  0  0  0
    3.6635   -2.2291    1.9910 H   0  0  0  0  0  0  0  0  0  0  0  0
   -1.0069   -3.5302    3.1642 H   0  0  0  0  0  0  0  0  0  0  0  0
   -2.9442   -2.1990    1.9449 H   0  0  0  0  0  0  0  0  0  0  0  0
   -0.8460   -0.5748   -1.6344 H   0  0  0  0  0  0  0  0  0  0  0  0
   -2.0689    1.0879   -3.0257 H   0  0  0  0  0  0  0  0  0  0  0  0
   -4.6980    2.3665   -3.0511 H   0  0  0  0  0  0  0  0  0  0  0  0
   -3.8976    3.6364   -2.0852 H   0  0  0  0  0  0  0  0  0  0  0  0
   -4.5053    2.0736    0.2529 H   0  0  0  0  0  0  0  0  0  0  0  0
   -3.2765    0.3987    1.6752 H   0  0  0  0  0  0  0  0  0  0  0  0
    0.8908    0.1284   -0.1664 H   0  0  0  0  0  0  0  0  0  0  0  0
  1  2  1  0
  2  3  2  0
  2  4  1  0
  4  5  2  0
  5  6  1  0
  6  7  2  0
  7  8  1  0
  8  9  2  0
  9 10  1  0
 10 11  1  0
 11 12  2  0
 12 13  1  0
 13 14  2  0
 14 15  1  0
 15 16  2  0
 16 17  1  0
 16 18  1  0
 18 19  2  0
 12 20  1  0
 20 21  2  0
 21  6  1  0
 20  9  1  0
 19 13  1  0
  1 22  1  0
  4 23  1  0
  5 24  1  0
  7 25  1  0
 10 26  1  0
 11 27  1  0
 14 28  1  0
 15 29  1  0
 17 30  1  0
 17 31  1  0
 18 32  1  0
 19 33  1  0
 21 34  1  0
M  END
$$$$
[H]ON([H])C(=O)[C@@]1([H])C([H])([H])[C@@]1([H])C([H])([H])N1C([H])([H])C([H])([H])C([H])(S(=O)(=O)c2c([H])c([H])c(Oc3c([H])c([H])c(C([H])([H])[H])c([H])c3[H])c([H])c2[H])C([H])([H])C1([H])[H]
     RDKit          3D

 59 62  0  0  0  0  0  0  0  0999 V2000
   -9.6941   -0.8758    0.9076 C   0  0  0  0  0  0  0  0  0  0  0  0
   -8.4453   -0.2380    0.4082 C   0  0  0  0  0  0  0  0  0  0  0  0
   -7.6276    0.4897    1.2469 C   0  0  0  0  0  0  0  0  0  0  0  0
   -6.4725    1.0765    0.7554 C   0  0  0  0  0  0  0  0  0  0  0  0
   -6.0996    0.9557   -0.5825 C   0  0  0  0  0  0  0  0  0  0  0  0
   -4.9385    1.5665   -0.9992 O   0  0  0  0  0  0  0  0  0  0  0  0
   -3.7338    0.8885   -0.9883 C   0  0  0  0  0  0  0  0  0  0  0  0
   -3.3041    0.2453   -2.1296 C   0  0  0  0  0  0  0  0  0  0  0  0
   -2.1030   -0.4240   -2.0983 C   0  0  0  0  0  0  0  0  0  0  0  0
   -1.3188   -0.4689   -0.9591 C   0  0  0  0  0  0  0  0  0  0  0  0
   -1.7322    0.1664    0.1858 C   0  0  0  0  0  0  0  0  0  0  0  0
   -2.9389    0.8350    0.1440 C   0  0  0  0  0  0  0  0  0  0  0  0
    0.1958   -1.3441   -1.0589 S   0  0  0  0  0  0  0  0  0  0  0  0
    0.4347   -2.1375    0.1773 O   0  0  0  0  0  0  0  0  0  0  0  0
    0.0789   -2.3092   -2.2085 O   0  0  0  0  0  0  0  0  0  0  0  0
    1.4555   -0.1376   -1.3844 C   0  0  0  0  0  0  0  0  0  0  0  0
    2.7660   -0.8421   -1.6454 C   0  0  0  0  0  0  0  0  0  0  0  0
    3.3768   -1.4664   -0.4550 C   0  0  0  0  0  0  0  0  0  0  0  0
    3.5880   -0.4905    0.6053 N   0  0  0  0  0  0  0  0  0  0  0  0
    4.7651    0.3258    0.3179 C   0  0  0  0  0  0  0  0  0  0  0  0
    5.1525    1.1040    1.5204 C   0  0  2  0  0  0  0  0  0  0  0  0
    6.3074    2.0386    1.4557 C   0  0  0  0  0  0  0  0  0  0  0  0
    6.4586    0.8402    2.2725 C   0  0  2  0  0  0  0  0  0  0  0  0
    7.2828   -0.2902    1.8727 C   0  0  0  0  0  0  0  0  0  0  0  0
    7.5077   -1.2477    2.6821 O   0  0  0  0  0  0  0  0  0  0  0  0
    7.8759   -0.3668    0.5754 N   0  0  0  0  0  0  0  0  0  0  0  0
    8.6291   -1.4075    0.2553 O   0  0  0  0  0  0  0  0  0  0  0  0
    2.4083    0.2398    0.9029 C   0  0  0  0  0  0  0  0  0  0  0  0
    1.6757    0.8265   -0.2782 C   0  0  0  0  0  0  0  0  0  0  0  0
   -6.9178    0.2315   -1.4068 C   0  0  0  0  0  0  0  0  0  0  0  0
   -8.0810   -0.3606   -0.9173 C   0  0  0  0  0  0  0  0  0  0  0  0
   -9.5197   -1.3647    1.8956 H   0  0  0  0  0  0  0  0  0  0  0  0
  -10.0263   -1.6740    0.2204 H   0  0  0  0  0  0  0  0  0  0  0  0
  -10.4478   -0.0630    1.0481 H   0  0  0  0  0  0  0  0  0  0  0  0
   -7.9170    0.5855    2.3030 H   0  0  0  0  0  0  0  0  0  0  0  0
   -5.8344    1.6446    1.4106 H   0  0  0  0  0  0  0  0  0  0  0  0
   -3.8740    0.2465   -3.0466 H   0  0  0  0  0  0  0  0  0  0  0  0
   -1.7816   -0.9254   -3.0144 H   0  0  0  0  0  0  0  0  0  0  0  0
   -1.1182    0.1230    1.0565 H   0  0  0  0  0  0  0  0  0  0  0  0
   -3.2980    1.3488    1.0249 H   0  0  0  0  0  0  0  0  0  0  0  0
    1.2316    0.4209   -2.3220 H   0  0  0  0  0  0  0  0  0  0  0  0
    2.5790   -1.5494   -2.4688 H   0  0  0  0  0  0  0  0  0  0  0  0
    3.4842   -0.0470   -2.0020 H   0  0  0  0  0  0  0  0  0  0  0  0
    4.3906   -1.8385   -0.7415 H   0  0  0  0  0  0  0  0  0  0  0  0
    2.8402   -2.3186   -0.0127 H   0  0  0  0  0  0  0  0  0  0  0  0
    4.5936    0.9637   -0.5816 H   0  0  0  0  0  0  0  0  0  0  0  0
    5.5345   -0.4069    0.0398 H   0  0  0  0  0  0  0  0  0  0  0  0
    4.3289    1.3593    2.2554 H   0  0  0  0  0  0  0  0  0  0  0  0
    6.8709    2.2072    0.5167 H   0  0  0  0  0  0  0  0  0  0  0  0
    6.1618    3.0003    2.0172 H   0  0  0  0  0  0  0  0  0  0  0  0
    6.3225    0.8924    3.3930 H   0  0  0  0  0  0  0  0  0  0  0  0
    7.7039    0.4214   -0.0998 H   0  0  0  0  0  0  0  0  0  0  0  0
    9.2701   -1.2124   -0.4812 H   0  0  0  0  0  0  0  0  0  0  0  0
    1.7086   -0.4849    1.4210 H   0  0  0  0  0  0  0  0  0  0  0  0
    2.5655    1.0389    1.6142 H   0  0  0  0  0  0  0  0  0  0  0  0
    0.7603    1.3164    0.0987 H   0  0  0  0  0  0  0  0  0  0  0  0
    2.3194    1.6527   -0.6812 H   0  0  0  0  0  0  0  0  0  0  0  0
   -6.6783    0.1046   -2.4575 H   0  0  0  0  0  0  0  0  0  0  0  0
   -8.7221   -0.9308   -1.5797 H   0  0  0  0  0  0  0  0  0  0  0  0
  1  2  1  0
  2  3  2  0
  3  4  1  0
  4  5  2  0
  5  6  1  0
  6  7  1  0
  7  8  2  0
  8  9  1  0
  9 10  2  0
 10 11  1  0
 11 12  2  0
 10 13  1  0
 13 14  2  0
 13 15  2  0
 13 16  1  0
 16 17  1  0
 17 18  1  0
 18 19  1  0
 19 20  1  0
 20 21  1  0
 21 22  1  0
 22 23  1  0
 23 24  1  0
 24 25  2  0
 24 26  1  0
 26 27  1  0
 19 28  1  0
 28 29  1  0
  5 30  1  0
 30 31  2  0
 31  2  1  0
 12  7  1  0
 29 16  1  0
 23 21  1  0
  1 32  1  0
  1 33  1  0
  1 34  1  0
  3 35  1  0
  4 36  1  0
  8 37  1  0
  9 38  1  0
 11 39  1  0
 12 40  1  0
 16 41  1  0
 17 42  1  0
 17 43  1  0
 18 44  1  0
 18 45  1  0
 20 46  1  0
 20 47  1  0
 21 48  1  1
 22 49  1  0
 22 50  1  0
 23 51  1  1
 26 52  1  0
 27 53  1  0
 28 54  1  0
 28 55  1  0
 29 56  1  0
 29 57  1  0
 30 58  1  0
 31 59  1  0
M  END
$$$$
[H]c1nc(N([H])C([H])([H])C([H])([H])N2C([H])([H])C([H])([H])OC([H])([H])C2([H])[H])c2oc3nc(N(C([H])([H])[H])C([H])([H])C([H])([H])[H])c4c(c3c2n1)C([H])([H])C(C([H])([H])[H])(C([H])([H])[H])C([H])([H])C4([H])[H]
     RDKit          3D

 66 70  0  0  0  0  0  0  0  0999 V2000
   -5.4741   -4.1711    0.8319 C   0  0  0  0  0  0  0  0  0  0  0  0
   -5.5886   -2.6806    0.5375 C   0  0  0  0  0  0  0  0  0  0  0  0
   -4.6517   -2.2925   -0.4803 N   0  0  0  0  0  0  0  0  0  0  0  0
   -4.9237   -2.8222   -1.8258 C   0  0  0  0  0  0  0  0  0  0  0  0
   -3.5195   -1.4595   -0.2939 C   0  0  0  0  0  0  0  0  0  0  0  0
   -2.2641   -2.0098   -0.3062 N   0  0  0  0  0  0  0  0  0  0  0  0
   -1.1587   -1.2673   -0.1077 C   0  0  0  0  0  0  0  0  0  0  0  0
    0.1254   -1.5288   -0.0667 O   0  0  0  0  0  0  0  0  0  0  0  0
    0.8454   -0.4567    0.1648 C   0  0  0  0  0  0  0  0  0  0  0  0
    2.1921   -0.1960    0.2999 C   0  0  0  0  0  0  0  0  0  0  0  0
    3.1139   -1.2852    0.1855 N   0  0  0  0  0  0  0  0  0  0  0  0
    4.5278   -1.1364    0.3016 C   0  0  0  0  0  0  0  0  0  0  0  0
    5.0972   -0.3423   -0.8156 C   0  0  0  0  0  0  0  0  0  0  0  0
    6.5323   -0.1514   -0.7082 N   0  0  0  0  0  0  0  0  0  0  0  0
    6.8429    0.7159    0.4181 C   0  0  0  0  0  0  0  0  0  0  0  0
    8.2979    1.0522    0.3751 C   0  0  0  0  0  0  0  0  0  0  0  0
    9.0002   -0.1382    0.5276 O   0  0  0  0  0  0  0  0  0  0  0  0
    8.7533   -0.9795   -0.5547 C   0  0  0  0  0  0  0  0  0  0  0  0
    7.2892   -1.3619   -0.6785 C   0  0  0  0  0  0  0  0  0  0  0  0
    2.6007    1.0511    0.5418 N   0  0  0  0  0  0  0  0  0  0  0  0
    1.7518    2.0753    0.6607 C   0  0  0  0  0  0  0  0  0  0  0  0
    0.4295    1.8680    0.5359 N   0  0  0  0  0  0  0  0  0  0  0  0
   -0.0135    0.6126    0.2904 C   0  0  0  0  0  0  0  0  0  0  0  0
   -1.2853    0.0850    0.1147 C   0  0  0  0  0  0  0  0  0  0  0  0
   -2.5379    0.6792    0.1340 C   0  0  0  0  0  0  0  0  0  0  0  0
   -2.5781    2.1381    0.3754 C   0  0  0  0  0  0  0  0  0  0  0  0
   -3.9520    2.7131    0.3348 C   0  0  0  0  0  0  0  0  0  0  0  0
   -4.2886    3.2837   -1.0311 C   0  0  0  0  0  0  0  0  0  0  0  0
   -3.9890    3.8833    1.3063 C   0  0  0  0  0  0  0  0  0  0  0  0
   -4.9955    1.7349    0.7871 C   0  0  0  0  0  0  0  0  0  0  0  0
   -5.0118    0.4863   -0.0848 C   0  0  0  0  0  0  0  0  0  0  0  0
   -3.6749   -0.1121   -0.0752 C   0  0  0  0  0  0  0  0  0  0  0  0
   -4.6000   -4.4147    1.4434 H   0  0  0  0  0  0  0  0  0  0  0  0
   -5.4553   -4.6695   -0.1666 H   0  0  0  0  0  0  0  0  0  0  0  0
   -6.4357   -4.5085    1.3095 H   0  0  0  0  0  0  0  0  0  0  0  0
   -6.6497   -2.5088    0.2456 H   0  0  0  0  0  0  0  0  0  0  0  0
   -5.3613   -2.1660    1.4929 H   0  0  0  0  0  0  0  0  0  0  0  0
   -5.9727   -2.6138   -2.1276 H   0  0  0  0  0  0  0  0  0  0  0  0
   -4.2910   -2.2837   -2.5722 H   0  0  0  0  0  0  0  0  0  0  0  0
   -4.6446   -3.8823   -1.8594 H   0  0  0  0  0  0  0  0  0  0  0  0
    2.7194   -2.2505    0.0038 H   0  0  0  0  0  0  0  0  0  0  0  0
    4.8041   -0.7348    1.3076 H   0  0  0  0  0  0  0  0  0  0  0  0
    5.0104   -2.1541    0.2500 H   0  0  0  0  0  0  0  0  0  0  0  0
    4.9312   -0.9043   -1.7576 H   0  0  0  0  0  0  0  0  0  0  0  0
    4.6637    0.6690   -0.8374 H   0  0  0  0  0  0  0  0  0  0  0  0
    6.2520    1.6572    0.2294 H   0  0  0  0  0  0  0  0  0  0  0  0
    6.5473    0.3181    1.3861 H   0  0  0  0  0  0  0  0  0  0  0  0
    8.5726    1.5300   -0.5758 H   0  0  0  0  0  0  0  0  0  0  0  0
    8.5621    1.6895    1.2473 H   0  0  0  0  0  0  0  0  0  0  0  0
    9.0290   -0.4032   -1.4676 H   0  0  0  0  0  0  0  0  0  0  0  0
    9.4234   -1.8490   -0.4758 H   0  0  0  0  0  0  0  0  0  0  0  0
    7.1866   -1.8856   -1.6483 H   0  0  0  0  0  0  0  0  0  0  0  0
    7.0383   -2.0369    0.1614 H   0  0  0  0  0  0  0  0  0  0  0  0
    2.1413    3.0642    0.8573 H   0  0  0  0  0  0  0  0  0  0  0  0
   -2.0747    2.3696    1.3519 H   0  0  0  0  0  0  0  0  0  0  0  0
   -1.9813    2.6064   -0.4580 H   0  0  0  0  0  0  0  0  0  0  0  0
   -3.4079    3.8904   -1.3809 H   0  0  0  0  0  0  0  0  0  0  0  0
   -5.1974    3.8869   -0.9208 H   0  0  0  0  0  0  0  0  0  0  0  0
   -4.4535    2.5279   -1.8014 H   0  0  0  0  0  0  0  0  0  0  0  0
   -4.5302    3.6541    2.2349 H   0  0  0  0  0  0  0  0  0  0  0  0
   -2.9459    4.1832    1.6166 H   0  0  0  0  0  0  0  0  0  0  0  0
   -4.4285    4.7919    0.8589 H   0  0  0  0  0  0  0  0  0  0  0  0
   -4.8138    1.5039    1.8515 H   0  0  0  0  0  0  0  0  0  0  0  0
   -5.9774    2.2398    0.7396 H   0  0  0  0  0  0  0  0  0  0  0  0
   -5.3262    0.8290   -1.0971 H   0  0  0  0  0  0  0  0  0  0  0  0
   -5.8274   -0.1325    0.3113 H   0  0  0  0  0  0  0  0  0  0  0  0
  1  2  1  0
  2  3  1  0
  3  4  1  0
  3  5  1  0
  5  6  2  0
  6  7  1  0
  7  8  1  0
  8  9  1  0
  9 10  2  0
 10 11  1  0
 11 12  1  0
 12 13  1  0
 13 14  1  0
 14 15  1  0
 15 16  1  0
 16 17  1  0
 17 18  1  0
 18 19  1  0
 10 20  1  0
 20 21  2  0
 21 22  1  0
 22 23  2  0
 23 24  1  0
 24 25  1  0
 25 26  1  0
 26 27  1  0
 27 28  1  0
 27 29  1  0
 27 30  1  0
 30 31  1  0
 31 32  1  0
 32  5  1  0
 24  7  2  0
 32 25  2  0
 23  9  1  0
 19 14  1  0
  1 33  1  0
  1 34  1  0
  1 35  1  0
  2 36  1  0
  2 37  1  0
  4 38  1  0
  4 39  1  0
  4 40  1  0
 11 41  1  0
 12 42  1  0
 12 43  1  0
 13 44  1  0
 13 45  1  0
 15 46  1  0
 15 47  1  0
 16 48  1  0
 16 49  1  0
 18 50  1  0
 18 51  1  0
 19 52  1  0
 19 53  1  0
 21 54  1  0
 26 55  1  0
 26 56  1  0
 28 57  1  0
 28 58  1  0
 28 59  1  0
 29 60  1  0
 29 61  1  0
 29 62  1  0
 30 63  1  0
 30 64  1  0
 31 65  1  0
 31 66  1  0
M  END
$$$$
[H]OC(c1c([H])c(/C(=C(\[H])OC([H])([H])C([H])([H])C([H])([H])C([H])([H])Br)C([H])([H])C([H])([H])[H])c([H])c(C([H])(C([H])([H])[H])C([H])([H])[H])c1[H])(C([H])(C([H])([H])[H])C([H])([H])[H])C([H])(C([H])([H])[H])C([H])([H])[H]
     RDKit          3D

 66 66  0  0  0  0  0  0  0  0999 V2000
    2.9254   -2.2215    0.3959 C   0  0  0  0  0  0  0  0  0  0  0  0
    2.7309   -1.7242   -1.0096 C   0  0  0  0  0  0  0  0  0  0  0  0
    1.8285   -0.5429   -0.9956 C   0  0  0  0  0  0  0  0  0  0  0  0
    2.3334    0.6028   -1.3400 C   0  0  0  0  0  0  0  0  0  0  0  0
    3.6507    0.7718   -1.7127 O   0  0  0  0  0  0  0  0  0  0  0  0
    4.7544    0.8801   -0.8724 C   0  0  0  0  0  0  0  0  0  0  0  0
    4.6207    2.0544    0.0764 C   0  0  0  0  0  0  0  0  0  0  0  0
    5.8197    2.1735    0.9818 C   0  0  0  0  0  0  0  0  0  0  0  0
    7.0993    2.3939    0.2085 C   0  0  0  0  0  0  0  0  0  0  0  0
    7.0268    4.0222   -0.8353 Br  0  0  0  0  0  0  0  0  0  0  0  0
    0.4341   -0.7425   -0.6003 C   0  0  0  0  0  0  0  0  0  0  0  0
   -0.0995   -1.9860   -0.2999 C   0  0  0  0  0  0  0  0  0  0  0  0
   -1.4099   -2.1908    0.0934 C   0  0  0  0  0  0  0  0  0  0  0  0
   -2.2464   -1.0695    0.1918 C   0  0  0  0  0  0  0  0  0  0  0  0
   -1.7681    0.1805   -0.0953 C   0  0  0  0  0  0  0  0  0  0  0  0
   -0.4563    0.3168   -0.4801 C   0  0  0  0  0  0  0  0  0  0  0  0
   -2.7092    1.3753    0.0194 C   0  0  0  0  0  0  0  0  0  0  0  0
   -1.8377    2.4888    0.0995 O   0  0  0  0  0  0  0  0  0  0  0  0
   -3.4421    1.4867   -1.2472 C   0  0  0  0  0  0  0  0  0  0  0  0
   -4.4132    2.6155   -1.3924 C   0  0  0  0  0  0  0  0  0  0  0  0
   -4.1533    0.2470   -1.7143 C   0  0  0  0  0  0  0  0  0  0  0  0
   -3.4229    1.3003    1.3076 C   0  0  0  0  0  0  0  0  0  0  0  0
   -4.3647    2.4236    1.5854 C   0  0  0  0  0  0  0  0  0  0  0  0
   -2.3359    1.4205    2.4016 C   0  0  0  0  0  0  0  0  0  0  0  0
   -1.8940   -3.5578    0.3974 C   0  0  0  0  0  0  0  0  0  0  0  0
   -0.9941   -4.3001    1.3551 C   0  0  0  0  0  0  0  0  0  0  0  0
   -1.8519   -4.3350   -0.9253 C   0  0  0  0  0  0  0  0  0  0  0  0
    3.9692   -1.9795    0.7623 H   0  0  0  0  0  0  0  0  0  0  0  0
    2.8803   -3.3319    0.4394 H   0  0  0  0  0  0  0  0  0  0  0  0
    2.1657   -1.8400    1.1110 H   0  0  0  0  0  0  0  0  0  0  0  0
    2.2528   -2.5780   -1.5804 H   0  0  0  0  0  0  0  0  0  0  0  0
    3.6740   -1.5360   -1.5557 H   0  0  0  0  0  0  0  0  0  0  0  0
    1.7253    1.5009   -1.3506 H   0  0  0  0  0  0  0  0  0  0  0  0
    5.0268   -0.0135   -0.2989 H   0  0  0  0  0  0  0  0  0  0  0  0
    5.6507    1.0790   -1.5360 H   0  0  0  0  0  0  0  0  0  0  0  0
    4.3701    2.9532   -0.4801 H   0  0  0  0  0  0  0  0  0  0  0  0
    3.7516    1.8104    0.7482 H   0  0  0  0  0  0  0  0  0  0  0  0
    5.9321    1.1682    1.4801 H   0  0  0  0  0  0  0  0  0  0  0  0
    5.6709    2.9080    1.7914 H   0  0  0  0  0  0  0  0  0  0  0  0
    7.3155    1.5238   -0.4435 H   0  0  0  0  0  0  0  0  0  0  0  0
    7.9180    2.5100    0.9485 H   0  0  0  0  0  0  0  0  0  0  0  0
    0.5698   -2.8567   -0.3944 H   0  0  0  0  0  0  0  0  0  0  0  0
   -3.2525   -1.3032    0.5046 H   0  0  0  0  0  0  0  0  0  0  0  0
   -0.0809    1.3021   -0.7027 H   0  0  0  0  0  0  0  0  0  0  0  0
   -1.1050    2.3509    0.7248 H   0  0  0  0  0  0  0  0  0  0  0  0
   -2.6529    1.6813   -2.0504 H   0  0  0  0  0  0  0  0  0  0  0  0
   -4.0426    3.5839   -1.0109 H   0  0  0  0  0  0  0  0  0  0  0  0
   -4.5506    2.7178   -2.5346 H   0  0  0  0  0  0  0  0  0  0  0  0
   -5.4399    2.3747   -1.0368 H   0  0  0  0  0  0  0  0  0  0  0  0
   -4.7759   -0.2588   -0.9896 H   0  0  0  0  0  0  0  0  0  0  0  0
   -4.7910    0.5291   -2.6073 H   0  0  0  0  0  0  0  0  0  0  0  0
   -3.4268   -0.4856   -2.1212 H   0  0  0  0  0  0  0  0  0  0  0  0
   -3.8692    0.3035    1.5295 H   0  0  0  0  0  0  0  0  0  0  0  0
   -3.8738    3.3725    1.2785 H   0  0  0  0  0  0  0  0  0  0  0  0
   -4.4728    2.5649    2.7237 H   0  0  0  0  0  0  0  0  0  0  0  0
   -5.3924    2.2928    1.2587 H   0  0  0  0  0  0  0  0  0  0  0  0
   -2.0320    2.4721    2.5373 H   0  0  0  0  0  0  0  0  0  0  0  0
   -2.8368    1.1161    3.3471 H   0  0  0  0  0  0  0  0  0  0  0  0
   -1.5170    0.7214    2.2171 H   0  0  0  0  0  0  0  0  0  0  0  0
   -2.9527   -3.5303    0.7157 H   0  0  0  0  0  0  0  0  0  0  0  0
   -1.5958   -5.0375    1.9198 H   0  0  0  0  0  0  0  0  0  0  0  0
   -0.4198   -3.6545    2.0272 H   0  0  0  0  0  0  0  0  0  0  0  0
   -0.2307   -4.9243    0.8031 H   0  0  0  0  0  0  0  0  0  0  0  0
   -1.0275   -3.9085   -1.5547 H   0  0  0  0  0  0  0  0  0  0  0  0
   -2.7965   -4.2782   -1.4682 H   0  0  0  0  0  0  0  0  0  0  0  0
   -1.5621   -5.4037   -0.7459 H   0  0  0  0  0  0  0  0  0  0  0  0
  1  2  1  0
  2  3  1  0
  3  4  2  0
  4  5  1  0
  5  6  1  0
  6  7  1  0
  7  8  1  0
  8  9  1  0
  9 10  1  0
  3 11  1  0
 11 12  2  0
 12 13  1  0
 13 14  2  0
 14 15  1  0
 15 16  2  0
 15 17  1  0
 17 18  1  0
 17 19  1  0
 19 20  1  0
 19 21  1  0
 17 22  1  0
 22 23  1  0
 22 24  1  0
 13 25  1  0
 25 26  1  0
 25 27  1  0
 16 11  1  0
  1 28  1  0
  1 29  1  0
  1 30  1  0
  2 31  1  0
  2 32  1  0
  4 33  1  0
  6 34  1  0
  6 35  1  0
  7 36  1  0
  7 37  1  0
  8 38  1  0
  8 39  1  0
  9 40  1  0
  9 41  1  0
 12 42  1  0
 14 43  1  0
 16 44  1  0
 18 45  1  0
 19 46  1  0
 20 47  1  0
 20 48  1  0
 20 49  1  0
 21 50  1  0
 21 51  1  0
 21 52  1  0
 22 53  1  0
 23 54  1  0
 23 55  1  0
 23 56  1  0
 24 57  1  0
 24 58  1  0
 24 59  1  0
 25 60  1  0
 26 61  1  0
 26 62  1  0
 26 63  1  0
 27 64  1  0
 27 65  1  0
 27 66  1  0
M  END
$$$$
[H]N=C(N([H])[H])N([H])C([H])([H])C([H])([H])C([H])([H])[C@@]([H])(C(=O)N([H])[C@]([H])(C(=O)N([H])[C@]([H])(C(=O)N([H])[H])C([H])([H])c1c([H])n([H])c2c([H])c([H])c([H])c([H])c12)C([H])([H])C([H])([H])C(=O)O[H])N([H])C(=O)N([H])S(=O)(=O)c1c([H])c([H])c(Cl)c([H])c1[H]
     RDKit          3D

 84 86  0  0  0  0  0  0  0  0999 V2000
   -4.4116    6.8240   -0.2563 N   0  0  0  0  0  0  0  0  0  0  0  0
   -5.0941    5.6033   -0.3517 C   0  0  0  0  0  0  0  0  0  0  0  0
   -6.4624    5.7301   -0.5122 N   0  0  0  0  0  0  0  0  0  0  0  0
   -4.5426    4.3385   -0.3854 N   0  0  0  0  0  0  0  0  0  0  0  0
   -3.1781    4.0880   -0.0447 C   0  0  0  0  0  0  0  0  0  0  0  0
   -2.7484    2.7036   -0.4433 C   0  0  0  0  0  0  0  0  0  0  0  0
   -3.4253    1.5510    0.2115 C   0  0  0  0  0  0  0  0  0  0  0  0
   -2.9706    0.2394   -0.2901 C   0  0  2  0  0  0  0  0  0  0  0  0
   -3.8021   -0.8291    0.3448 N   0  0  0  0  0  0  0  0  0  0  0  0
   -3.9294   -2.1559   -0.2326 C   0  0  0  0  0  0  0  0  0  0  0  0
   -3.3592   -2.4478   -1.3405 O   0  0  0  0  0  0  0  0  0  0  0  0
   -4.6465   -3.1045    0.4317 N   0  0  0  0  0  0  0  0  0  0  0  0
   -5.0670   -4.7191    0.3631 S   0  0  0  0  0  0  0  0  0  0  0  0
   -4.9134   -5.3563    1.7533 O   0  0  0  0  0  0  0  0  0  0  0  0
   -4.3278   -5.5836   -0.5917 O   0  0  0  0  0  0  0  0  0  0  0  0
   -6.8197   -4.8070    0.0776 C   0  0  0  0  0  0  0  0  0  0  0  0
   -7.6690   -4.2892    1.0240 C   0  0  0  0  0  0  0  0  0  0  0  0
   -9.0088   -4.3971    0.8560 C   0  0  0  0  0  0  0  0  0  0  0  0
   -9.5009   -5.0222   -0.2750 C   0  0  0  0  0  0  0  0  0  0  0  0
  -11.2540   -5.1669   -0.4641 Cl  0  0  0  0  0  0  0  0  0  0  0  0
   -8.6498   -5.5233   -1.2090 C   0  0  0  0  0  0  0  0  0  0  0  0
   -7.2925   -5.4209   -1.0405 C   0  0  0  0  0  0  0  0  0  0  0  0
   -1.6335   -0.1308    0.4012 C   0  0  0  0  0  0  0  0  0  0  0  0
   -1.8692   -0.9041    1.4399 O   0  0  0  0  0  0  0  0  0  0  0  0
   -0.3718    0.2222    0.0539 N   0  0  0  0  0  0  0  0  0  0  0  0
    0.8966    0.5705   -0.2860 C   0  0  1  0  0  0  0  0  0  0  0  0
    1.2044    1.9777   -0.5111 C   0  0  0  0  0  0  0  0  0  0  0  0
    1.0980    2.9026    0.6562 C   0  0  0  0  0  0  0  0  0  0  0  0
    1.4313    4.2890    0.2131 C   0  0  0  0  0  0  0  0  0  0  0  0
    1.0272    4.5229   -1.1393 O   0  0  0  0  0  0  0  0  0  0  0  0
    1.9478    5.1209    0.8558 O   0  0  0  0  0  0  0  0  0  0  0  0
    1.9894    0.0959    0.7281 C   0  0  0  0  0  0  0  0  0  0  0  0
    1.6310   -0.4220    1.7952 O   0  0  0  0  0  0  0  0  0  0  0  0
    3.2779    0.2946    0.3693 N   0  0  0  0  0  0  0  0  0  0  0  0
    4.6011    0.1487    0.8253 C   0  0  1  0  0  0  0  0  0  0  0  0
    5.3200   -1.0066    0.1766 C   0  0  0  0  0  0  0  0  0  0  0  0
    6.7276   -1.1542    0.6723 C   0  0  0  0  0  0  0  0  0  0  0  0
    7.3276   -0.6331    1.7958 C   0  0  0  0  0  0  0  0  0  0  0  0
    8.6236   -1.0162    1.7797 N   0  0  0  0  0  0  0  0  0  0  0  0
    8.8993   -1.7645    0.7165 C   0  0  0  0  0  0  0  0  0  0  0  0
   10.0587   -2.4005    0.2650 C   0  0  0  0  0  0  0  0  0  0  0  0
   10.0672   -3.1472   -0.8810 C   0  0  0  0  0  0  0  0  0  0  0  0
    8.8769   -3.2416   -1.5765 C   0  0  0  0  0  0  0  0  0  0  0  0
    7.7206   -2.6104   -1.1383 C   0  0  0  0  0  0  0  0  0  0  0  0
    7.6946   -1.8488    0.0236 C   0  0  0  0  0  0  0  0  0  0  0  0
    5.2896    1.4228    0.5062 C   0  0  0  0  0  0  0  0  0  0  0  0
    6.4107    1.6640   -0.2326 N   0  0  0  0  0  0  0  0  0  0  0  0
    4.6906    2.4842    0.9933 O   0  0  0  0  0  0  0  0  0  0  0  0
   -4.9341    7.7809   -0.2871 H   0  0  0  0  0  0  0  0  0  0  0  0
   -3.3915    6.9757   -0.1753 H   0  0  0  0  0  0  0  0  0  0  0  0
   -6.6926    6.7811   -0.5075 H   0  0  0  0  0  0  0  0  0  0  0  0
   -5.1759    3.5301   -0.7054 H   0  0  0  0  0  0  0  0  0  0  0  0
   -2.5142    4.8420   -0.5176 H   0  0  0  0  0  0  0  0  0  0  0  0
   -3.0560    4.2672    1.0857 H   0  0  0  0  0  0  0  0  0  0  0  0
   -1.6833    2.6613   -0.3671 H   0  0  0  0  0  0  0  0  0  0  0  0
   -3.0270    2.6199   -1.5742 H   0  0  0  0  0  0  0  0  0  0  0  0
   -3.1233    1.6693    1.3364 H   0  0  0  0  0  0  0  0  0  0  0  0
   -4.5098    1.7256    0.2812 H   0  0  0  0  0  0  0  0  0  0  0  0
   -2.8206    0.1061   -1.3595 H   0  0  0  0  0  0  0  0  0  0  0  0
   -4.3206   -0.6678    1.2745 H   0  0  0  0  0  0  0  0  0  0  0  0
   -5.1636   -2.6155    1.3457 H   0  0  0  0  0  0  0  0  0  0  0  0
   -7.1597   -3.8150    1.8878 H   0  0  0  0  0  0  0  0  0  0  0  0
   -9.6850   -4.0070    1.5683 H   0  0  0  0  0  0  0  0  0  0  0  0
   -9.0374   -6.0301   -2.1186 H   0  0  0  0  0  0  0  0  0  0  0  0
   -6.6218   -5.8136   -1.7828 H   0  0  0  0  0  0  0  0  0  0  0  0
    0.0128   -0.0615    1.2977 H   0  0  0  0  0  0  0  0  0  0  0  0
    1.2872   -0.0319   -1.1957 H   0  0  0  0  0  0  0  0  0  0  0  0
    2.1948    2.1355   -0.9680 H   0  0  0  0  0  0  0  0  0  0  0  0
    0.5000    2.3396   -1.3391 H   0  0  0  0  0  0  0  0  0  0  0  0
    1.8614    2.5949    1.3866 H   0  0  0  0  0  0  0  0  0  0  0  0
    0.1128    2.9047    1.1691 H   0  0  0  0  0  0  0  0  0  0  0  0
    1.4660    4.0110   -1.9028 H   0  0  0  0  0  0  0  0  0  0  0  0
    3.3267    0.7169   -0.7130 H   0  0  0  0  0  0  0  0  0  0  0  0
    4.6604   -0.0502    1.9631 H   0  0  0  0  0  0  0  0  0  0  0  0
    4.8234   -1.9800    0.2530 H   0  0  0  0  0  0  0  0  0  0  0  0
    5.4146   -0.7268   -0.9105 H   0  0  0  0  0  0  0  0  0  0  0  0
    6.8114   -0.0403    2.5144 H   0  0  0  0  0  0  0  0  0  0  0  0
    9.3408   -0.7408    2.5267 H   0  0  0  0  0  0  0  0  0  0  0  0
   10.9731   -2.3167    0.8042 H   0  0  0  0  0  0  0  0  0  0  0  0
   10.9267   -3.6472   -1.2340 H   0  0  0  0  0  0  0  0  0  0  0  0
    8.8750   -3.8298   -2.4864 H   0  0  0  0  0  0  0  0  0  0  0  0
    6.8086   -2.6844   -1.6765 H   0  0  0  0  0  0  0  0  0  0  0  0
    6.2771    2.3562   -1.0940 H   0  0  0  0  0  0  0  0  0  0  0  0
    7.3797    1.3492   -0.1865 H   0  0  0  0  0  0  0  0  0  0  0  0
  1  2  1  0
  2  3  2  3
  2  4  1  0
  4  5  1  0
  5  6  1  0
  6  7  1  0
  7  8  1  0
  8  9  1  0
  9 10  1  0
 10 11  2  0
 10 12  1  0
 12 13  1  0
 13 14  2  0
 13 15  2  0
 13 16  1  0
 16 17  2  0
 17 18  1  0
 18 19  2  0
 19 20  1  0
 19 21  1  0
 21 22  2  0
  8 23  1  0
 23 24  2  0
 23 25  1  0
 25 26  1  0
 26 27  1  0
 27 28  1  0
 28 29  1  0
 29 30  1  0
 29 31  2  0
 26 32  1  0
 32 33  2  0
 32 34  1  0
 34 35  1  0
 35 36  1  0
 36 37  1  0
 37 38  2  0
 38 39  1  0
 39 40  1  0
 40 41  2  0
 41 42  1  0
 42 43  2  0
 43 44  1  0
 44 45  2  0
 35 46  1  0
 46 47  1  0
 46 48  2  0
 22 16  1  0
 45 37  1  0
 45 40  1  0
  1 49  1  0
  1 50  1  0
  3 51  1  0
  4 52  1  0
  5 53  1  0
  5 54  1  0
  6 55  1  0
  6 56  1  0
  7 57  1  0
  7 58  1  0
  8 59  1  6
  9 60  1  0
 12 61  1  0
 17 62  1  0
 18 63  1  0
 21 64  1  0
 22 65  1  0
 25 66  1  0
 26 67  1  6
 27 68  1  0
 27 69  1  0
 28 70  1  0
 28 71  1  0
 30 72  1  0
 34 73  1  0
 35 74  1  1
 36 75  1  0
 36 76  1  0
 38 77  1  0
 39 78  1  0
 41 79  1  0
 42 80  1  0
 43 81  1  0
 44 82  1  0
 47 83  1  0
 47 84  1  0
M  END
$$$$
[H]OC([H])([H])[C@@]1(O[H])C([H])([H])[C@@]2([H])O[C@]1(C([H])([H])[H])n1c3c([H])c([H])c([H])c([H])c3c3c4c(c5c6c([H])c([H])c([H])c([H])c6n2c5c31)C(=O)N([H])C4([H])[H]
     RDKit          3D

 54 61  0  0  0  0  0  0  0  0999 V2000
    3.1800    0.8838    1.3878 C   0  0  0  0  0  0  0  0  0  0  0  0
    2.1176    0.2237    0.5774 C   0  0  2  0  0  0  0  0  0  0  0  0
    1.6968   -0.7870    1.4854 O   0  0  0  0  0  0  0  0  0  0  0  0
    1.2511   -1.8639    0.7986 C   0  0  2  0  0  0  0  0  0  0  0  0
    2.0328   -1.9517   -0.4419 C   0  0  0  0  0  0  0  0  0  0  0  0
    2.6347   -0.5714   -0.5849 C   0  0  1  0  0  0  0  0  0  0  0  0
    2.2138   -0.0799   -1.8115 O   0  0  0  0  0  0  0  0  0  0  0  0
    4.1191   -0.7109   -0.6110 C   0  0  0  0  0  0  0  0  0  0  0  0
    4.4589   -1.5975   -1.6334 O   0  0  0  0  0  0  0  0  0  0  0  0
   -0.2014   -1.7853    0.5955 N   0  0  0  0  0  0  0  0  0  0  0  0
   -1.1044   -2.7499    0.6347 C   0  0  0  0  0  0  0  0  0  0  0  0
   -0.9179   -4.0868    0.8734 C   0  0  0  0  0  0  0  0  0  0  0  0
   -2.0299   -4.9199    0.8648 C   0  0  0  0  0  0  0  0  0  0  0  0
   -3.2823   -4.4161    0.6235 C   0  0  0  0  0  0  0  0  0  0  0  0
   -3.4758   -3.0511    0.3794 C   0  0  0  0  0  0  0  0  0  0  0  0
   -2.3768   -2.2421    0.3902 C   0  0  0  0  0  0  0  0  0  0  0  0
   -2.2053   -0.8905    0.1945 C   0  0  0  0  0  0  0  0  0  0  0  0
   -3.0670    0.1511   -0.0975 C   0  0  0  0  0  0  0  0  0  0  0  0
   -4.5001    0.2660   -0.2996 C   0  0  0  0  0  0  0  0  0  0  0  0
   -5.3884   -0.5871   -0.2658 O   0  0  0  0  0  0  0  0  0  0  0  0
   -4.7851    1.6416   -0.5724 N   0  0  0  0  0  0  0  0  0  0  0  0
   -3.5735    2.4248   -0.5610 C   0  0  0  0  0  0  0  0  0  0  0  0
   -2.5314    1.4168   -0.2472 C   0  0  0  0  0  0  0  0  0  0  0  0
   -1.1701    1.6669   -0.1133 C   0  0  0  0  0  0  0  0  0  0  0  0
   -0.3770    2.7657   -0.2198 C   0  0  0  0  0  0  0  0  0  0  0  0
   -0.7006    4.0705   -0.5126 C   0  0  0  0  0  0  0  0  0  0  0  0
    0.3203    5.0230   -0.5829 C   0  0  0  0  0  0  0  0  0  0  0  0
    1.6233    4.6180   -0.3553 C   0  0  0  0  0  0  0  0  0  0  0  0
    1.9232    3.2989   -0.0625 C   0  0  0  0  0  0  0  0  0  0  0  0
    0.9354    2.3466    0.0129 C   0  0  0  0  0  0  0  0  0  0  0  0
    0.9590    1.0103    0.2643 N   0  0  0  0  0  0  0  0  0  0  0  0
   -0.3578    0.6223    0.1746 C   0  0  0  0  0  0  0  0  0  0  0  0
   -0.8544   -0.6533    0.3299 C   0  0  0  0  0  0  0  0  0  0  0  0
    4.0624    1.2462    0.8471 H   0  0  0  0  0  0  0  0  0  0  0  0
    3.5596    0.1949    2.1815 H   0  0  0  0  0  0  0  0  0  0  0  0
    2.7312    1.7230    1.9466 H   0  0  0  0  0  0  0  0  0  0  0  0
    1.4219   -2.7643    1.4120 H   0  0  0  0  0  0  0  0  0  0  0  0
    1.4720   -2.2700   -1.3403 H   0  0  0  0  0  0  0  0  0  0  0  0
    2.8377   -2.7359   -0.3258 H   0  0  0  0  0  0  0  0  0  0  0  0
    2.8799   -0.3390   -2.4928 H   0  0  0  0  0  0  0  0  0  0  0  0
    4.5238   -1.1579    0.3296 H   0  0  0  0  0  0  0  0  0  0  0  0
    4.6358    0.2581   -0.8438 H   0  0  0  0  0  0  0  0  0  0  0  0
    4.7979   -2.4633   -1.2908 H   0  0  0  0  0  0  0  0  0  0  0  0
    0.0592   -4.4684    1.0598 H   0  0  0  0  0  0  0  0  0  0  0  0
   -1.8569   -5.9719    1.0560 H   0  0  0  0  0  0  0  0  0  0  0  0
   -4.1224   -5.0759    0.6219 H   0  0  0  0  0  0  0  0  0  0  0  0
   -4.4721   -2.7398    0.2018 H   0  0  0  0  0  0  0  0  0  0  0  0
   -5.7336    2.0654   -0.7610 H   0  0  0  0  0  0  0  0  0  0  0  0
   -3.6366    3.2333    0.1993 H   0  0  0  0  0  0  0  0  0  0  0  0
   -3.3846    2.8954   -1.5673 H   0  0  0  0  0  0  0  0  0  0  0  0
   -1.7294    4.3700   -0.6881 H   0  0  0  0  0  0  0  0  0  0  0  0
    0.0587    6.0490   -0.8135 H   0  0  0  0  0  0  0  0  0  0  0  0
    2.3774    5.3965   -0.4223 H   0  0  0  0  0  0  0  0  0  0  0  0
    2.9510    3.0689    0.0761 H   0  0  0  0  0  0  0  0  0  0  0  0
  2  1  1  1
  2  3  1  0
  3  4  1  0
  4  5  1  0
  5  6  1  0
  6  7  1  6
  6  8  1  0
  8  9  1  0
  4 10  1  0
 10 11  1  0
 11 12  2  0
 12 13  1  0
 13 14  2  0
 14 15  1  0
 15 16  2  0
 16 17  1  0
 17 18  2  0
 18 19  1  0
 19 20  2  0
 19 21  1  0
 21 22  1  0
 22 23  1  0
 23 24  2  0
 24 25  1  0
 25 26  2  0
 26 27  1  0
 27 28  2  0
 28 29  1  0
 29 30  2  0
 30 31  1  0
 31 32  1  0
 32 33  2  0
  6  2  1  0
 33 10  1  0
 31  2  1  0
 16 11  1  0
 33 17  1  0
 23 18  1  0
 32 24  1  0
 30 25  1  0
  1 34  1  0
  1 35  1  0
  1 36  1  0
  4 37  1  1
  5 38  1  0
  5 39  1  0
  7 40  1  0
  8 41  1  0
  8 42  1  0
  9 43  1  0
 12 44  1  0
 13 45  1  0
 14 46  1  0
 15 47  1  0
 21 48  1  0
 22 49  1  0
 22 50  1  0
 26 51  1  0
 27 52  1  0
 28 53  1  0
 29 54  1  0
M  END
$$$$
