[H]Oc1c([H])c([H])c2c(=O)n([H])c(C3=C([H])C([H])([H])C(C([H])([H])[H])(C([H])([H])[H])C([H])([H])C3([H])[H])c([H])c2c1[H]
     RDKit          3D

 39 41  0  0  0  0  0  0  0  0999 V2000
   -4.8561    0.0636    0.6764 C   0  0  0  0  0  0  0  0  0  0  0  0
   -3.4792   -0.2973    0.1239 C   0  0  0  0  0  0  0  0  0  0  0  0
   -3.6337   -1.6051   -0.6236 C   0  0  0  0  0  0  0  0  0  0  0  0
   -2.4633   -0.4554    1.2332 C   0  0  0  0  0  0  0  0  0  0  0  0
   -1.3663    0.5936    1.1314 C   0  0  0  0  0  0  0  0  0  0  0  0
   -0.7631    0.5649   -0.2429 C   0  0  0  0  0  0  0  0  0  0  0  0
   -1.6662    0.6825   -1.2034 C   0  0  0  0  0  0  0  0  0  0  0  0
   -3.0918    0.8214   -0.8235 C   0  0  0  0  0  0  0  0  0  0  0  0
    0.6584    0.4230   -0.4813 C   0  0  0  0  0  0  0  0  0  0  0  0
    1.5705    0.3088    0.5569 C   0  0  0  0  0  0  0  0  0  0  0  0
    2.9437    0.1701    0.3316 C   0  0  0  0  0  0  0  0  0  0  0  0
    3.8218    0.0590    1.3964 C   0  0  0  0  0  0  0  0  0  0  0  0
    5.1782   -0.0782    1.1847 C   0  0  0  0  0  0  0  0  0  0  0  0
    6.0777   -0.1916    2.2450 O   0  0  0  0  0  0  0  0  0  0  0  0
    5.6171   -0.0996   -0.1229 C   0  0  0  0  0  0  0  0  0  0  0  0
    4.7385    0.0115   -1.1809 C   0  0  0  0  0  0  0  0  0  0  0  0
    3.3742    0.1496   -0.9717 C   0  0  0  0  0  0  0  0  0  0  0  0
    2.4752    0.2623   -2.0045 C   0  0  0  0  0  0  0  0  0  0  0  0
    2.8825    0.2420   -3.1904 O   0  0  0  0  0  0  0  0  0  0  0  0
    1.1408    0.3960   -1.7311 N   0  0  0  0  0  0  0  0  0  0  0  0
   -5.2528   -0.7004    1.3496 H   0  0  0  0  0  0  0  0  0  0  0  0
   -4.7134    1.0550    1.1858 H   0  0  0  0  0  0  0  0  0  0  0  0
   -5.5101    0.2386   -0.2028 H   0  0  0  0  0  0  0  0  0  0  0  0
   -4.4081   -2.2475   -0.1313 H   0  0  0  0  0  0  0  0  0  0  0  0
   -2.6796   -2.1263   -0.7841 H   0  0  0  0  0  0  0  0  0  0  0  0
   -4.0498   -1.3504   -1.6357 H   0  0  0  0  0  0  0  0  0  0  0  0
   -2.9937   -0.2479    2.1912 H   0  0  0  0  0  0  0  0  0  0  0  0
   -1.9925   -1.4379    1.2646 H   0  0  0  0  0  0  0  0  0  0  0  0
   -0.6781    0.4221    1.9413 H   0  0  0  0  0  0  0  0  0  0  0  0
   -1.8605    1.5847    1.2378 H   0  0  0  0  0  0  0  0  0  0  0  0
   -1.3626    0.6766   -2.2239 H   0  0  0  0  0  0  0  0  0  0  0  0
   -3.6915    0.7639   -1.7482 H   0  0  0  0  0  0  0  0  0  0  0  0
   -3.2551    1.7731   -0.2796 H   0  0  0  0  0  0  0  0  0  0  0  0
    1.2319    0.3263    1.5610 H   0  0  0  0  0  0  0  0  0  0  0  0
    3.4508    0.0786    2.4171 H   0  0  0  0  0  0  0  0  0  0  0  0
    6.3339   -1.0956    2.6365 H   0  0  0  0  0  0  0  0  0  0  0  0
    6.6929   -0.2077   -0.3249 H   0  0  0  0  0  0  0  0  0  0  0  0
    5.0566   -0.0021   -2.2235 H   0  0  0  0  0  0  0  0  0  0  0  0
    0.5228    0.4756   -2.5602 H   0  0  0  0  0  0  0  0  0  0  0  0
  1  2  1  0
  2  3  1  0
  2  4  1  0
  4  5  1  0
  5  6  1  0
  6  7  2  0
  7  8  1  0
  6  9  1  0
  9 10  2  0
 10 11  1  0
 11 12  2  0
 12 13  1  0
 13 14  1  0
 13 15  2  0
 15 16  1  0
 16 17  2  0
 17 18  1  0
 18 19  2  0
 18 20  1  0
  8  2  1  0
 20  9  1  0
 17 11  1  0
  1 21  1  0
  1 22  1  0
  1 23  1  0
  3 24  1  0
  3 25  1  0
  3 26  1  0
  4 27  1  0
  4 28  1  0
  5 29  1  0
  5 30  1  0
  7 31  1  0
  8 32  1  0
  8 33  1  0
 10 34  1  0
 12 35  1  0
 14 36  1  0
 15 37  1  0
 16 38  1  0
 20 39  1  0
M  END
$$$$
[H]OC(=O)c1c([H])c(OC([H])([H])c2c([H])c([H])c3c(c2[H])C([H])([H])C([H])([H])N3C(=O)C2([H])C([H])([H])C2([H])[H])c([H])c(Cl)c1Cl
     RDKit          3D

 44 47  0  0  0  0  0  0  0  0999 V2000
    7.9677    1.8888    1.0629 O   0  0  0  0  0  0  0  0  0  0  0  0
    6.8313    1.2279    1.4646 C   0  0  0  0  0  0  0  0  0  0  0  0
    6.4026    1.3677    2.6339 O   0  0  0  0  0  0  0  0  0  0  0  0
    6.0901    0.3455    0.5526 C   0  0  0  0  0  0  0  0  0  0  0  0
    4.7317    0.3575    0.4940 C   0  0  0  0  0  0  0  0  0  0  0  0
    4.0589   -0.4798   -0.3668 C   0  0  0  0  0  0  0  0  0  0  0  0
    2.6818   -0.4793   -0.4374 O   0  0  0  0  0  0  0  0  0  0  0  0
    1.9619    0.4100    0.3930 C   0  0  0  0  0  0  0  0  0  0  0  0
    0.4965    0.3039    0.2253 C   0  0  0  0  0  0  0  0  0  0  0  0
   -0.2942    1.3782    0.5711 C   0  0  0  0  0  0  0  0  0  0  0  0
   -1.6576    1.2911    0.4307 C   0  0  0  0  0  0  0  0  0  0  0  0
   -2.3000    0.1685   -0.0462 C   0  0  0  0  0  0  0  0  0  0  0  0
   -3.6730   -0.1229   -0.2665 N   0  0  0  0  0  0  0  0  0  0  0  0
   -3.6800   -1.2391   -1.2032 C   0  0  0  0  0  0  0  0  0  0  0  0
   -2.4236   -1.9704   -0.8568 C   0  0  0  0  0  0  0  0  0  0  0  0
   -1.5154   -0.8964   -0.3885 C   0  0  0  0  0  0  0  0  0  0  0  0
   -0.1381   -0.8334   -0.2562 C   0  0  0  0  0  0  0  0  0  0  0  0
   -4.7986    0.5356    0.2949 C   0  0  0  0  0  0  0  0  0  0  0  0
   -4.5797    1.4905    1.0742 O   0  0  0  0  0  0  0  0  0  0  0  0
   -6.1957    0.1639    0.0147 C   0  0  0  0  0  0  0  0  0  0  0  0
   -7.1267    0.2548    1.2097 C   0  0  0  0  0  0  0  0  0  0  0  0
   -7.2830    1.1758    0.0785 C   0  0  0  0  0  0  0  0  0  0  0  0
    4.7517   -1.3480   -1.1860 C   0  0  0  0  0  0  0  0  0  0  0  0
    6.1297   -1.3503   -1.1156 C   0  0  0  0  0  0  0  0  0  0  0  0
    6.9716   -2.4611   -2.1671 Cl  0  0  0  0  0  0  0  0  0  0  0  0
    6.7983   -0.5050   -0.2478 C   0  0  0  0  0  0  0  0  0  0  0  0
    8.5591   -0.5753   -0.2217 Cl  0  0  0  0  0  0  0  0  0  0  0  0
    8.9029    1.7060    1.4436 H   0  0  0  0  0  0  0  0  0  0  0  0
    4.1971    1.0486    1.1487 H   0  0  0  0  0  0  0  0  0  0  0  0
    2.2514    1.4745    0.2635 H   0  0  0  0  0  0  0  0  0  0  0  0
    2.1695    0.1638    1.4694 H   0  0  0  0  0  0  0  0  0  0  0  0
    0.1957    2.2798    0.9524 H   0  0  0  0  0  0  0  0  0  0  0  0
   -2.2405    2.1387    0.7065 H   0  0  0  0  0  0  0  0  0  0  0  0
   -4.5520   -1.9032   -1.0404 H   0  0  0  0  0  0  0  0  0  0  0  0
   -3.6484   -0.8938   -2.2576 H   0  0  0  0  0  0  0  0  0  0  0  0
   -2.6081   -2.7268   -0.0746 H   0  0  0  0  0  0  0  0  0  0  0  0
   -1.9513   -2.4767   -1.7180 H   0  0  0  0  0  0  0  0  0  0  0  0
    0.4740   -1.6913   -0.5311 H   0  0  0  0  0  0  0  0  0  0  0  0
   -6.3874   -0.7059   -0.6574 H   0  0  0  0  0  0  0  0  0  0  0  0
   -7.9194   -0.4996    1.3580 H   0  0  0  0  0  0  0  0  0  0  0  0
   -6.7460    0.7263    2.1407 H   0  0  0  0  0  0  0  0  0  0  0  0
   -6.9558    2.2335    0.1401 H   0  0  0  0  0  0  0  0  0  0  0  0
   -8.1617    1.0254   -0.5906 H   0  0  0  0  0  0  0  0  0  0  0  0
    4.2127   -1.9980   -1.8568 H   0  0  0  0  0  0  0  0  0  0  0  0
  1  2  1  0
  2  3  2  0
  2  4  1  0
  4  5  2  0
  5  6  1  0
  6  7  1  0
  7  8  1  0
  8  9  1  0
  9 10  2  0
 10 11  1  0
 11 12  2  0
 12 13  1  0
 13 14  1  0
 14 15  1  0
 15 16  1  0
 16 17  2  0
 13 18  1  0
 18 19  2  0
 18 20  1  0
 20 21  1  0
 21 22  1  0
  6 23  2  0
 23 24  1  0
 24 25  1  0
 24 26  2  0
 26 27  1  0
 26  4  1  0
 17  9  1  0
 22 20  1  0
 16 12  1  0
  1 28  1  0
  5 29  1  0
  8 30  1  0
  8 31  1  0
 10 32  1  0
 11 33  1  0
 14 34  1  0
 14 35  1  0
 15 36  1  0
 15 37  1  0
 17 38  1  0
 20 39  1  0
 21 40  1  0
 21 41  1  0
 22 42  1  0
 22 43  1  0
 23 44  1  0
M  END
$$$$
[H]c1c([H])c([H])c(-c2c([H])c([H])c3oc(C(=O)C([H])([H])C([H])([H])SC([H])([H])c4c([H])c([H])c([H])c([H])c4[H])nc3c2[H])c([H])c1[H]
     RDKit          3D

 46 49  0  0  0  0  0  0  0  0999 V2000
   -1.8025   -2.5404   -0.4166 O   0  0  0  0  0  0  0  0  0  0  0  0
   -1.1889   -1.4527   -0.4735 C   0  0  0  0  0  0  0  0  0  0  0  0
   -1.8842   -0.1448   -0.6528 C   0  0  0  0  0  0  0  0  0  0  0  0
   -3.3685   -0.2967   -0.7408 C   0  0  0  0  0  0  0  0  0  0  0  0
   -3.9216   -1.0603    0.8259 S   0  0  0  0  0  0  0  0  0  0  0  0
   -5.7300   -1.2414    0.7196 C   0  0  0  0  0  0  0  0  0  0  0  0
   -6.3100    0.1302    0.6848 C   0  0  0  0  0  0  0  0  0  0  0  0
   -6.6332    0.7576    1.8759 C   0  0  0  0  0  0  0  0  0  0  0  0
   -7.1750    2.0420    1.8141 C   0  0  0  0  0  0  0  0  0  0  0  0
   -7.3854    2.6743    0.6071 C   0  0  0  0  0  0  0  0  0  0  0  0
   -7.0515    2.0166   -0.5444 C   0  0  0  0  0  0  0  0  0  0  0  0
   -6.5142    0.7490   -0.5378 C   0  0  0  0  0  0  0  0  0  0  0  0
    0.2635   -1.4469   -0.3616 C   0  0  0  0  0  0  0  0  0  0  0  0
    1.0840   -0.3632   -0.3971 N   0  0  0  0  0  0  0  0  0  0  0  0
    2.3663   -0.7497   -0.2632 C   0  0  0  0  0  0  0  0  0  0  0  0
    3.5535   -0.0411   -0.2361 C   0  0  0  0  0  0  0  0  0  0  0  0
    4.7454   -0.7115   -0.0828 C   0  0  0  0  0  0  0  0  0  0  0  0
    4.7172   -2.0910    0.0405 C   0  0  0  0  0  0  0  0  0  0  0  0
    3.5149   -2.7833    0.0106 C   0  0  0  0  0  0  0  0  0  0  0  0
    2.3061   -2.1250   -0.1427 C   0  0  0  0  0  0  0  0  0  0  0  0
    1.0422   -2.5110   -0.2047 O   0  0  0  0  0  0  0  0  0  0  0  0
    5.9777    0.0636   -0.0555 C   0  0  0  0  0  0  0  0  0  0  0  0
    5.9484    1.3306    0.4690 C   0  0  0  0  0  0  0  0  0  0  0  0
    7.1107    2.0834    0.5046 C   0  0  0  0  0  0  0  0  0  0  0  0
    8.2725    1.5582    0.0183 C   0  0  0  0  0  0  0  0  0  0  0  0
    8.2874    0.2779   -0.5083 C   0  0  0  0  0  0  0  0  0  0  0  0
    7.1333   -0.4716   -0.5446 C   0  0  0  0  0  0  0  0  0  0  0  0
   -1.4676    0.3969   -1.5504 H   0  0  0  0  0  0  0  0  0  0  0  0
   -1.6778    0.5083    0.2333 H   0  0  0  0  0  0  0  0  0  0  0  0
   -3.7939    0.7269   -0.8447 H   0  0  0  0  0  0  0  0  0  0  0  0
   -3.6912   -0.9166   -1.6046 H   0  0  0  0  0  0  0  0  0  0  0  0
   -5.9542   -1.7985   -0.1904 H   0  0  0  0  0  0  0  0  0  0  0  0
   -6.0419   -1.7773    1.6546 H   0  0  0  0  0  0  0  0  0  0  0  0
   -6.4726    0.2734    2.8089 H   0  0  0  0  0  0  0  0  0  0  0  0
   -7.4228    2.5241    2.7448 H   0  0  0  0  0  0  0  0  0  0  0  0
   -7.8041    3.6679    0.5323 H   0  0  0  0  0  0  0  0  0  0  0  0
   -7.2159    2.5101   -1.4842 H   0  0  0  0  0  0  0  0  0  0  0  0
   -6.2583    0.2514   -1.4644 H   0  0  0  0  0  0  0  0  0  0  0  0
    3.5824    1.0419   -0.3332 H   0  0  0  0  0  0  0  0  0  0  0  0
    5.6608   -2.6342    0.1630 H   0  0  0  0  0  0  0  0  0  0  0  0
    3.5301   -3.8532    0.1084 H   0  0  0  0  0  0  0  0  0  0  0  0
    5.0501    1.7890    0.8668 H   0  0  0  0  0  0  0  0  0  0  0  0
    7.0830    3.0835    0.9188 H   0  0  0  0  0  0  0  0  0  0  0  0
    9.1763    2.1199    0.0358 H   0  0  0  0  0  0  0  0  0  0  0  0
    9.2366   -0.1002   -0.8854 H   0  0  0  0  0  0  0  0  0  0  0  0
    7.1230   -1.4658   -0.9480 H   0  0  0  0  0  0  0  0  0  0  0  0
  1  2  2  0
  2  3  1  0
  3  4  1  0
  4  5  1  0
  5  6  1  0
  6  7  1  0
  7  8  2  0
  8  9  1  0
  9 10  2  0
 10 11  1  0
 11 12  2  0
  2 13  1  0
 13 14  2  0
 14 15  1  0
 15 16  2  0
 16 17  1  0
 17 18  2  0
 18 19  1  0
 19 20  2  0
 20 21  1  0
 17 22  1  0
 22 23  2  0
 23 24  1  0
 24 25  2  0
 25 26  1  0
 26 27  2  0
 12  7  1  0
 21 13  1  0
 27 22  1  0
 20 15  1  0
  3 28  1  0
  3 29  1  0
  4 30  1  0
  4 31  1  0
  6 32  1  0
  6 33  1  0
  8 34  1  0
  9 35  1  0
 10 36  1  0
 11 37  1  0
 12 38  1  0
 16 39  1  0
 18 40  1  0
 19 41  1  0
 23 42  1  0
 24 43  1  0
 25 44  1  0
 26 45  1  0
 27 46  1  0
M  END
$$$$
[H]c1c([H])c(C([H])([H])Oc2c([H])c([H])c(C(=O)N([H])[H])c([H])c2[H])c([H])c(C([H])(C([H])([H])[H])C([H])([H])[H])c1[H]
     RDKit          3D

 39 40  0  0  0  0  0  0  0  0999 V2000
   -5.5197    0.1669   -1.3230 C   0  0  0  0  0  0  0  0  0  0  0  0
   -4.6701    1.0585   -0.4218 C   0  0  0  0  0  0  0  0  0  0  0  0
   -5.4603    1.4467    0.8065 C   0  0  0  0  0  0  0  0  0  0  0  0
   -3.5134    0.2345    0.0232 C   0  0  0  0  0  0  0  0  0  0  0  0
   -3.7054   -0.9309    0.7347 C   0  0  0  0  0  0  0  0  0  0  0  0
   -2.6168   -1.7049    1.1524 C   0  0  0  0  0  0  0  0  0  0  0  0
   -1.3415   -1.2851    0.8418 C   0  0  0  0  0  0  0  0  0  0  0  0
   -1.1234   -0.1413    0.1422 C   0  0  0  0  0  0  0  0  0  0  0  0
    0.2618    0.3308   -0.2048 C   0  0  0  0  0  0  0  0  0  0  0  0
    1.1758   -0.5890    0.3090 O   0  0  0  0  0  0  0  0  0  0  0  0
    2.5407   -0.5056    0.1974 C   0  0  0  0  0  0  0  0  0  0  0  0
    3.3187   -1.4970    0.7605 C   0  0  0  0  0  0  0  0  0  0  0  0
    4.6938   -1.4291    0.6578 C   0  0  0  0  0  0  0  0  0  0  0  0
    5.3454   -0.4012    0.0085 C   0  0  0  0  0  0  0  0  0  0  0  0
    4.5621    0.6072   -0.5646 C   0  0  0  0  0  0  0  0  0  0  0  0
    3.1995    0.5260   -0.4545 C   0  0  0  0  0  0  0  0  0  0  0  0
    6.7908   -0.3295   -0.0997 C   0  0  0  0  0  0  0  0  0  0  0  0
    7.4255    0.7280   -0.7659 N   0  0  0  0  0  0  0  0  0  0  0  0
    7.4794   -1.2368    0.4166 O   0  0  0  0  0  0  0  0  0  0  0  0
   -2.2170    0.6099   -0.2615 C   0  0  0  0  0  0  0  0  0  0  0  0
   -5.6144   -0.8029   -0.8289 H   0  0  0  0  0  0  0  0  0  0  0  0
   -6.5321    0.5926   -1.4756 H   0  0  0  0  0  0  0  0  0  0  0  0
   -4.9496    0.0438   -2.2656 H   0  0  0  0  0  0  0  0  0  0  0  0
   -4.3034    1.9472   -0.9691 H   0  0  0  0  0  0  0  0  0  0  0  0
   -5.9244    2.4455    0.7179 H   0  0  0  0  0  0  0  0  0  0  0  0
   -6.2513    0.6852    0.9343 H   0  0  0  0  0  0  0  0  0  0  0  0
   -4.7846    1.4292    1.6948 H   0  0  0  0  0  0  0  0  0  0  0  0
   -4.7178   -1.2197    0.9545 H   0  0  0  0  0  0  0  0  0  0  0  0
   -2.8379   -2.6042    1.7046 H   0  0  0  0  0  0  0  0  0  0  0  0
   -0.5006   -1.8841    1.1651 H   0  0  0  0  0  0  0  0  0  0  0  0
    0.3491    0.3911   -1.3289 H   0  0  0  0  0  0  0  0  0  0  0  0
    0.3995    1.3618    0.1567 H   0  0  0  0  0  0  0  0  0  0  0  0
    2.8805   -2.3391    1.2881 H   0  0  0  0  0  0  0  0  0  0  0  0
    5.3431   -2.2017    1.0947 H   0  0  0  0  0  0  0  0  0  0  0  0
    5.0256    1.4444   -1.0904 H   0  0  0  0  0  0  0  0  0  0  0  0
    2.5412    1.2880   -0.8845 H   0  0  0  0  0  0  0  0  0  0  0  0
    7.7476    1.5561   -0.2411 H   0  0  0  0  0  0  0  0  0  0  0  0
    7.5738    0.6828   -1.7861 H   0  0  0  0  0  0  0  0  0  0  0  0
   -2.0699    1.5261   -0.8206 H   0  0  0  0  0  0  0  0  0  0  0  0
  1  2  1  0
  2  3  1  0
  2  4  1  0
  4  5  2  0
  5  6  1  0
  6  7  2  0
  7  8  1  0
  8  9  1  0
  9 10  1  0
 10 11  1  0
 11 12  2  0
 12 13  1  0
 13 14  2  0
 14 15  1  0
 15 16  2  0
 14 17  1  0
 17 18  1  0
 17 19  2  0
  8 20  2  0
 20  4  1  0
 16 11  1  0
  1 21  1  0
  1 22  1  0
  1 23  1  0
  2 24  1  0
  3 25  1  0
  3 26  1  0
  3 27  1  0
  5 28  1  0
  6 29  1  0
  7 30  1  0
  9 31  1  0
  9 32  1  0
 12 33  1  0
 13 34  1  0
 15 35  1  0
 16 36  1  0
 18 37  1  0
 18 38  1  0
 20 39  1  0
M  END
$$$$
[H]c1c([H])c([H])c([C@@]2([H])C(=O)C(C(=O)N3C([H])([H])C([H])([H])C([H])(C4([H])C([H])([H])C4([H])[H])C([H])([H])C3([H])[H])=N[C@]2([H])C([H])(C([H])([H])[H])C([H])([H])[H])c([H])c1[H]
     RDKit          3D

 54 57  0  0  0  0  0  0  0  0999 V2000
   -4.0943   -2.0899   -2.5077 C   0  0  0  0  0  0  0  0  0  0  0  0
   -3.0674   -2.2692   -1.4503 C   0  0  0  0  0  0  0  0  0  0  0  0
   -3.3888   -3.5785   -0.7154 C   0  0  0  0  0  0  0  0  0  0  0  0
   -3.0322   -1.1859   -0.4151 C   0  0  1  0  0  0  0  0  0  0  0  0
   -2.0190   -1.4686    0.5307 N   0  0  0  0  0  0  0  0  0  0  0  0
   -0.9199   -0.7899    0.2733 C   0  0  0  0  0  0  0  0  0  0  0  0
   -1.1553   -0.0029   -0.8962 C   0  0  0  0  0  0  0  0  0  0  0  0
   -0.3852    0.4842   -1.7521 O   0  0  0  0  0  0  0  0  0  0  0  0
   -2.6701    0.1556   -0.9329 C   0  0  2  0  0  0  0  0  0  0  0  0
   -3.0200    1.3139   -0.1331 C   0  0  0  0  0  0  0  0  0  0  0  0
   -3.5281    2.4243   -0.8287 C   0  0  0  0  0  0  0  0  0  0  0  0
   -3.8969    3.5781   -0.1894 C   0  0  0  0  0  0  0  0  0  0  0  0
   -3.7750    3.6784    1.1833 C   0  0  0  0  0  0  0  0  0  0  0  0
   -3.2855    2.6223    1.8982 C   0  0  0  0  0  0  0  0  0  0  0  0
   -2.9187    1.4596    1.2127 C   0  0  0  0  0  0  0  0  0  0  0  0
    0.2493   -0.9517    1.1021 C   0  0  0  0  0  0  0  0  0  0  0  0
    0.1356   -1.8605    2.0691 O   0  0  0  0  0  0  0  0  0  0  0  0
    1.4671   -0.2892    1.0271 N   0  0  0  0  0  0  0  0  0  0  0  0
    2.5090   -0.7684    1.9901 C   0  0  0  0  0  0  0  0  0  0  0  0
    3.7920   -0.8377    1.1928 C   0  0  0  0  0  0  0  0  0  0  0  0
    4.2638    0.5967    1.0441 C   0  0  0  0  0  0  0  0  0  0  0  0
    3.0739    1.4904    0.9495 C   0  0  0  0  0  0  0  0  0  0  0  0
    1.8916    0.8000    0.2200 C   0  0  0  0  0  0  0  0  0  0  0  0
    5.1783    0.8079   -0.1238 C   0  0  0  0  0  0  0  0  0  0  0  0
    6.4465   -0.0004   -0.0801 C   0  0  0  0  0  0  0  0  0  0  0  0
    5.3998   -0.1711   -1.1875 C   0  0  0  0  0  0  0  0  0  0  0  0
   -4.3745   -3.1041   -2.8858 H   0  0  0  0  0  0  0  0  0  0  0  0
   -5.0435   -1.6506   -2.1136 H   0  0  0  0  0  0  0  0  0  0  0  0
   -3.7316   -1.5351   -3.3991 H   0  0  0  0  0  0  0  0  0  0  0  0
   -2.0718   -2.4287   -1.9069 H   0  0  0  0  0  0  0  0  0  0  0  0
   -4.3848   -3.4818   -0.2599 H   0  0  0  0  0  0  0  0  0  0  0  0
   -3.2901   -4.4406   -1.4047 H   0  0  0  0  0  0  0  0  0  0  0  0
   -2.6499   -3.6779    0.0959 H   0  0  0  0  0  0  0  0  0  0  0  0
   -3.9979   -1.1054    0.1430 H   0  0  0  0  0  0  0  0  0  0  0  0
   -2.9061    0.3042   -2.0066 H   0  0  0  0  0  0  0  0  0  0  0  0
   -3.6385    2.3816   -1.9126 H   0  0  0  0  0  0  0  0  0  0  0  0
   -4.2879    4.4296   -0.7336 H   0  0  0  0  0  0  0  0  0  0  0  0
   -4.0591    4.5813    1.7223 H   0  0  0  0  0  0  0  0  0  0  0  0
   -3.1682    2.6439    2.9728 H   0  0  0  0  0  0  0  0  0  0  0  0
   -2.5436    0.6590    1.7995 H   0  0  0  0  0  0  0  0  0  0  0  0
    2.6150    0.0149    2.7554 H   0  0  0  0  0  0  0  0  0  0  0  0
    2.2307   -1.7291    2.4307 H   0  0  0  0  0  0  0  0  0  0  0  0
    4.5247   -1.4270    1.7953 H   0  0  0  0  0  0  0  0  0  0  0  0
    3.5921   -1.3456    0.2495 H   0  0  0  0  0  0  0  0  0  0  0  0
    4.7783    0.8291    2.0145 H   0  0  0  0  0  0  0  0  0  0  0  0
    3.3059    2.4203    0.3801 H   0  0  0  0  0  0  0  0  0  0  0  0
    2.6884    1.8227    1.9182 H   0  0  0  0  0  0  0  0  0  0  0  0
    1.0936    1.5741    0.2338 H   0  0  0  0  0  0  0  0  0  0  0  0
    2.1981    0.5474   -0.7964 H   0  0  0  0  0  0  0  0  0  0  0  0
    5.3573    1.8839   -0.3874 H   0  0  0  0  0  0  0  0  0  0  0  0
    7.4033    0.4683   -0.3280 H   0  0  0  0  0  0  0  0  0  0  0  0
    6.5019   -0.8652    0.6150 H   0  0  0  0  0  0  0  0  0  0  0  0
    5.7011    0.2286   -2.1992 H   0  0  0  0  0  0  0  0  0  0  0  0
    4.9065   -1.1457   -1.2740 H   0  0  0  0  0  0  0  0  0  0  0  0
  1  2  1  0
  2  3  1  0
  2  4  1  0
  4  5  1  0
  5  6  2  0
  6  7  1  0
  7  8  2  0
  7  9  1  0
  9 10  1  0
 10 11  2  0
 11 12  1  0
 12 13  2  0
 13 14  1  0
 14 15  2  0
  6 16  1  0
 16 17  2  0
 16 18  1  0
 18 19  1  0
 19 20  1  0
 20 21  1  0
 21 22  1  0
 22 23  1  0
 21 24  1  0
 24 25  1  0
 25 26  1  0
  9  4  1  0
 15 10  1  0
 23 18  1  0
 26 24  1  0
  1 27  1  0
  1 28  1  0
  1 29  1  0
  2 30  1  0
  3 31  1  0
  3 32  1  0
  3 33  1  0
  4 34  1  1
  9 35  1  6
 11 36  1  0
 12 37  1  0
 13 38  1  0
 14 39  1  0
 15 40  1  0
 19 41  1  0
 19 42  1  0
 20 43  1  0
 20 44  1  0
 21 45  1  0
 22 46  1  0
 22 47  1  0
 23 48  1  0
 23 49  1  0
 24 50  1  0
 25 51  1  0
 25 52  1  0
 26 53  1  0
 26 54  1  0
M  END
$$$$
[H]c1c([H])c(C2([H])N(C(=O)N([H])C([H])([H])C([H])([H])C([H])([H])N(C([H])([H])[H])C([H])([H])[H])C(S(=O)(=O)C([H])(C([H])([H])[H])C([H])([H])[H])=NC2(C([H])([H])[H])C([H])([H])[H])c(F)c([H])c1C(F)(F)F
     RDKit          3D

 63 64  0  0  0  0  0  0  0  0999 V2000
   -4.4667    0.5870    0.2390 C   0  0  0  0  0  0  0  0  0  0  0  0
   -3.2074    0.3682   -0.5663 C   0  0  0  0  0  0  0  0  0  0  0  0
   -3.5623   -0.3007   -1.8639 C   0  0  0  0  0  0  0  0  0  0  0  0
   -2.6230    1.6559   -0.8587 N   0  0  0  0  0  0  0  0  0  0  0  0
   -1.3522    1.7246   -0.5130 C   0  0  0  0  0  0  0  0  0  0  0  0
   -0.5599    3.2742   -0.7967 S   0  0  0  0  0  0  0  0  0  0  0  0
    0.5551    3.5755    0.1698 O   0  0  0  0  0  0  0  0  0  0  0  0
   -0.2904    3.5745   -2.2092 O   0  0  0  0  0  0  0  0  0  0  0  0
   -1.7647    4.5687   -0.2573 C   0  0  0  0  0  0  0  0  0  0  0  0
   -1.0831    5.8627   -0.0645 C   0  0  0  0  0  0  0  0  0  0  0  0
   -2.3992    4.1045    1.0553 C   0  0  0  0  0  0  0  0  0  0  0  0
   -0.9873    0.5276    0.1507 N   0  0  0  0  0  0  0  0  0  0  0  0
   -2.1191   -0.2901    0.1934 C   0  0  0  0  0  0  0  0  0  0  0  0
   -2.1246   -1.7427    0.1170 C   0  0  0  0  0  0  0  0  0  0  0  0
   -3.2766   -2.3665    0.6799 C   0  0  0  0  0  0  0  0  0  0  0  0
   -3.3916   -3.7120    0.8679 C   0  0  0  0  0  0  0  0  0  0  0  0
   -2.3733   -4.5717    0.5184 C   0  0  0  0  0  0  0  0  0  0  0  0
   -1.2611   -4.0179   -0.0252 C   0  0  0  0  0  0  0  0  0  0  0  0
   -1.1583   -2.6382   -0.2159 C   0  0  0  0  0  0  0  0  0  0  0  0
   -0.0730   -2.1943   -0.9195 F   0  0  0  0  0  0  0  0  0  0  0  0
   -2.5866   -6.0393    0.7406 C   0  0  0  0  0  0  0  0  0  0  0  0
   -2.9257   -6.2679    2.0618 F   0  0  0  0  0  0  0  0  0  0  0  0
   -3.6342   -6.3975   -0.0324 F   0  0  0  0  0  0  0  0  0  0  0  0
   -1.4323   -6.7777    0.5108 F   0  0  0  0  0  0  0  0  0  0  0  0
    0.4036    0.2911    0.5317 C   0  0  0  0  0  0  0  0  0  0  0  0
    0.5686   -0.5106    1.5182 O   0  0  0  0  0  0  0  0  0  0  0  0
    1.4815    0.8835   -0.1303 N   0  0  0  0  0  0  0  0  0  0  0  0
    2.8713    0.8690    0.0313 C   0  0  0  0  0  0  0  0  0  0  0  0
    3.6811   -0.3629   -0.1541 C   0  0  0  0  0  0  0  0  0  0  0  0
    5.1350    0.1074    0.1208 C   0  0  0  0  0  0  0  0  0  0  0  0
    6.1307   -0.8006   -0.0576 N   0  0  0  0  0  0  0  0  0  0  0  0
    6.5105   -1.2333   -1.3291 C   0  0  0  0  0  0  0  0  0  0  0  0
    6.4768   -1.6124    1.0485 C   0  0  0  0  0  0  0  0  0  0  0  0
   -4.8664    1.6214   -0.0272 H   0  0  0  0  0  0  0  0  0  0  0  0
   -4.3062    0.5229    1.3074 H   0  0  0  0  0  0  0  0  0  0  0  0
   -5.2362   -0.1216   -0.1136 H   0  0  0  0  0  0  0  0  0  0  0  0
   -4.4252    0.2962   -2.2825 H   0  0  0  0  0  0  0  0  0  0  0  0
   -3.9403   -1.3144   -1.7122 H   0  0  0  0  0  0  0  0  0  0  0  0
   -2.7718   -0.2306   -2.6377 H   0  0  0  0  0  0  0  0  0  0  0  0
   -2.5862    4.5781   -0.9831 H   0  0  0  0  0  0  0  0  0  0  0  0
   -0.8504    6.4207   -1.0071 H   0  0  0  0  0  0  0  0  0  0  0  0
   -1.6052    6.5567    0.6392 H   0  0  0  0  0  0  0  0  0  0  0  0
   -0.0684    5.7111    0.4232 H   0  0  0  0  0  0  0  0  0  0  0  0
   -2.5754    4.9756    1.6939 H   0  0  0  0  0  0  0  0  0  0  0  0
   -1.7557    3.4090    1.5801 H   0  0  0  0  0  0  0  0  0  0  0  0
   -3.4240    3.6588    0.8634 H   0  0  0  0  0  0  0  0  0  0  0  0
   -2.4737   -0.1049    1.3101 H   0  0  0  0  0  0  0  0  0  0  0  0
   -4.0930   -1.7445    0.9912 H   0  0  0  0  0  0  0  0  0  0  0  0
   -4.3220   -4.0908    1.3126 H   0  0  0  0  0  0  0  0  0  0  0  0
   -0.4379   -4.6571   -0.3105 H   0  0  0  0  0  0  0  0  0  0  0  0
    1.1612    1.3916   -1.0663 H   0  0  0  0  0  0  0  0  0  0  0  0
    3.1453    1.3242    1.0449 H   0  0  0  0  0  0  0  0  0  0  0  0
    3.3248    1.6605   -0.6683 H   0  0  0  0  0  0  0  0  0  0  0  0
    3.3728   -1.1218    0.5875 H   0  0  0  0  0  0  0  0  0  0  0  0
    3.5866   -0.7494   -1.1713 H   0  0  0  0  0  0  0  0  0  0  0  0
    5.2130    1.0588   -0.5104 H   0  0  0  0  0  0  0  0  0  0  0  0
    5.0951    0.5114    1.1705 H   0  0  0  0  0  0  0  0  0  0  0  0
    6.1798   -0.5077   -2.1285 H   0  0  0  0  0  0  0  0  0  0  0  0
    6.1479   -2.2616   -1.5192 H   0  0  0  0  0  0  0  0  0  0  0  0
    7.6326   -1.3158   -1.3842 H   0  0  0  0  0  0  0  0  0  0  0  0
    5.5820   -2.1093    1.4817 H   0  0  0  0  0  0  0  0  0  0  0  0
    7.1237   -2.4444    0.6964 H   0  0  0  0  0  0  0  0  0  0  0  0
    7.0117   -1.0612    1.8586 H   0  0  0  0  0  0  0  0  0  0  0  0
  1  2  1  0
  2  3  1  0
  2  4  1  0
  4  5  2  0
  5  6  1  0
  6  7  2  0
  6  8  2  0
  6  9  1  0
  9 10  1  0
  9 11  1  0
  5 12  1  0
 12 13  1  0
 13 14  1  0
 14 15  2  0
 15 16  1  0
 16 17  2  0
 17 18  1  0
 18 19  2  0
 19 20  1  0
 17 21  1  0
 21 22  1  0
 21 23  1  0
 21 24  1  0
 12 25  1  0
 25 26  2  0
 25 27  1  0
 27 28  1  0
 28 29  1  0
 29 30  1  0
 30 31  1  0
 31 32  1  0
 31 33  1  0
 13  2  1  0
 19 14  1  0
  1 34  1  0
  1 35  1  0
  1 36  1  0
  3 37  1  0
  3 38  1  0
  3 39  1  0
  9 40  1  0
 10 41  1  0
 10 42  1  0
 10 43  1  0
 11 44  1  0
 11 45  1  0
 11 46  1  0
 13 47  1  0
 15 48  1  0
 16 49  1  0
 18 50  1  0
 27 51  1  0
 28 52  1  0
 28 53  1  0
 29 54  1  0
 29 55  1  0
 30 56  1  0
 30 57  1  0
 32 58  1  0
 32 59  1  0
 32 60  1  0
 33 61  1  0
 33 62  1  0
 33 63  1  0
M  END
$$$$
[H]C1=C(C([H])([H])N([H])C(=O)N(c2c(F)c([H])c3nc(C([H])(C([H])([H])[H])C([H])([H])[H])c([H])c(N4C([H])([H])C([H])([H])N(C([H])([H])[H])C([H])([H])C4([H])[H])c3c2[H])C([H])([H])[H])C([H])([H])C([H])([H])S(=O)(=O)c2c([H])c([H])c([H])c([H])c2C(C([H])([H])[H])=C1F
     RDKit          3D

 83 87  0  0  0  0  0  0  0  0999 V2000
   -7.5781    3.3387    2.7233 C   0  0  0  0  0  0  0  0  0  0  0  0
   -6.3318    2.7230    2.3332 N   0  0  0  0  0  0  0  0  0  0  0  0
   -6.1543    2.8753    0.8951 C   0  0  0  0  0  0  0  0  0  0  0  0
   -4.8140    2.2676    0.4906 C   0  0  0  0  0  0  0  0  0  0  0  0
   -4.7567    0.8666    0.9262 N   0  0  0  0  0  0  0  0  0  0  0  0
   -5.0715    0.6473    2.3233 C   0  0  0  0  0  0  0  0  0  0  0  0
   -6.3913    1.3218    2.6477 C   0  0  0  0  0  0  0  0  0  0  0  0
   -4.4312   -0.1988    0.0481 C   0  0  0  0  0  0  0  0  0  0  0  0
   -5.3678   -1.1615   -0.2961 C   0  0  0  0  0  0  0  0  0  0  0  0
   -5.0961   -2.1858   -1.1644 C   0  0  0  0  0  0  0  0  0  0  0  0
   -3.8703   -2.2487   -1.6966 N   0  0  0  0  0  0  0  0  0  0  0  0
   -2.9068   -1.3541   -1.4133 C   0  0  0  0  0  0  0  0  0  0  0  0
   -1.6659   -1.4785   -2.0033 C   0  0  0  0  0  0  0  0  0  0  0  0
   -0.6582   -0.5705   -1.7318 C   0  0  0  0  0  0  0  0  0  0  0  0
    0.5471   -0.7030   -2.3309 F   0  0  0  0  0  0  0  0  0  0  0  0
   -0.9235    0.4583   -0.8587 C   0  0  0  0  0  0  0  0  0  0  0  0
   -2.1751    0.5666   -0.2769 C   0  0  0  0  0  0  0  0  0  0  0  0
   -3.1812   -0.3189   -0.5349 C   0  0  0  0  0  0  0  0  0  0  0  0
    0.0723    1.4372   -0.5425 N   0  0  0  0  0  0  0  0  0  0  0  0
   -0.1884    2.7842   -1.0785 C   0  0  0  0  0  0  0  0  0  0  0  0
    1.2215    1.1691    0.2211 C   0  0  0  0  0  0  0  0  0  0  0  0
    1.9929    2.1597    0.4336 O   0  0  0  0  0  0  0  0  0  0  0  0
    1.6077   -0.0650    0.7717 N   0  0  0  0  0  0  0  0  0  0  0  0
    2.8007   -0.2738    1.5555 C   0  0  0  0  0  0  0  0  0  0  0  0
    3.9812    0.0961    0.6667 C   0  0  0  0  0  0  0  0  0  0  0  0
    4.7586    1.0518    1.0702 C   0  0  0  0  0  0  0  0  0  0  0  0
    5.9275    1.7065    0.5930 C   0  0  0  0  0  0  0  0  0  0  0  0
    5.7657    3.0979    0.3487 F   0  0  0  0  0  0  0  0  0  0  0  0
    7.1548    1.2930    0.3084 C   0  0  0  0  0  0  0  0  0  0  0  0
    8.1811    2.3320   -0.1831 C   0  0  0  0  0  0  0  0  0  0  0  0
    7.7265   -0.0481    0.3905 C   0  0  0  0  0  0  0  0  0  0  0  0
    8.7303   -0.1743    1.3921 C   0  0  0  0  0  0  0  0  0  0  0  0
    9.3792   -1.3276    1.6866 C   0  0  0  0  0  0  0  0  0  0  0  0
    9.0436   -2.4486    0.9650 C   0  0  0  0  0  0  0  0  0  0  0  0
    8.0857   -2.3645   -0.0100 C   0  0  0  0  0  0  0  0  0  0  0  0
    7.4006   -1.1714   -0.3316 C   0  0  0  0  0  0  0  0  0  0  0  0
    6.3379   -1.2347   -1.7177 S   0  0  0  0  0  0  0  0  0  0  0  0
    7.0856   -0.8882   -2.9862 O   0  0  0  0  0  0  0  0  0  0  0  0
    5.8976   -2.6791   -1.9243 O   0  0  0  0  0  0  0  0  0  0  0  0
    4.9066   -0.2541   -1.6280 C   0  0  0  0  0  0  0  0  0  0  0  0
    4.0350   -0.7325   -0.5397 C   0  0  0  0  0  0  0  0  0  0  0  0
   -6.1401   -3.2024   -1.5133 C   0  0  0  0  0  0  0  0  0  0  0  0
   -5.7217   -4.5768   -1.0012 C   0  0  0  0  0  0  0  0  0  0  0  0
   -6.2816   -3.2354   -3.0069 C   0  0  0  0  0  0  0  0  0  0  0  0
   -7.4087    3.7238    3.7715 H   0  0  0  0  0  0  0  0  0  0  0  0
   -8.3916    2.6041    2.7722 H   0  0  0  0  0  0  0  0  0  0  0  0
   -7.8839    4.1685    2.0714 H   0  0  0  0  0  0  0  0  0  0  0  0
   -6.9932    2.4552    0.3391 H   0  0  0  0  0  0  0  0  0  0  0  0
   -6.0886    3.9553    0.6861 H   0  0  0  0  0  0  0  0  0  0  0  0
   -4.7234    2.3579   -0.5962 H   0  0  0  0  0  0  0  0  0  0  0  0
   -4.0559    2.8839    1.0140 H   0  0  0  0  0  0  0  0  0  0  0  0
   -4.3107    1.1264    2.9540 H   0  0  0  0  0  0  0  0  0  0  0  0
   -5.1483   -0.4281    2.5746 H   0  0  0  0  0  0  0  0  0  0  0  0
   -6.6237    1.2118    3.7148 H   0  0  0  0  0  0  0  0  0  0  0  0
   -7.2262    0.8898    2.0448 H   0  0  0  0  0  0  0  0  0  0  0  0
   -6.3423   -1.0813    0.1486 H   0  0  0  0  0  0  0  0  0  0  0  0
   -1.4516   -2.2891   -2.6910 H   0  0  0  0  0  0  0  0  0  0  0  0
   -2.3477    1.3798    0.4102 H   0  0  0  0  0  0  0  0  0  0  0  0
   -0.6752    2.6921   -2.0515 H   0  0  0  0  0  0  0  0  0  0  0  0
    0.8081    3.2774   -1.1702 H   0  0  0  0  0  0  0  0  0  0  0  0
   -0.7800    3.3630   -0.3337 H   0  0  0  0  0  0  0  0  0  0  0  0
    0.9592   -0.8832    0.5840 H   0  0  0  0  0  0  0  0  0  0  0  0
    2.9266   -1.3668    1.7332 H   0  0  0  0  0  0  0  0  0  0  0  0
    2.7817    0.2682    2.4922 H   0  0  0  0  0  0  0  0  0  0  0  0
    4.4166    1.5084    2.0866 H   0  0  0  0  0  0  0  0  0  0  0  0
    9.1243    2.1244    0.3230 H   0  0  0  0  0  0  0  0  0  0  0  0
    7.8363    3.3251    0.2376 H   0  0  0  0  0  0  0  0  0  0  0  0
    8.1811    2.4387   -1.2540 H   0  0  0  0  0  0  0  0  0  0  0  0
    9.0628    0.7137    1.9535 H   0  0  0  0  0  0  0  0  0  0  0  0
   10.1273   -1.3675    2.4539 H   0  0  0  0  0  0  0  0  0  0  0  0
    9.5671   -3.3673    1.2107 H   0  0  0  0  0  0  0  0  0  0  0  0
    7.8412   -3.2451   -0.5590 H   0  0  0  0  0  0  0  0  0  0  0  0
    4.3390   -0.4706   -2.5989 H   0  0  0  0  0  0  0  0  0  0  0  0
    5.0725    0.8344   -1.7071 H   0  0  0  0  0  0  0  0  0  0  0  0
    3.0203   -1.0068   -0.9211 H   0  0  0  0  0  0  0  0  0  0  0  0
    4.4388   -1.7410   -0.2028 H   0  0  0  0  0  0  0  0  0  0  0  0
   -7.0747   -2.9197   -0.9899 H   0  0  0  0  0  0  0  0  0  0  0  0
   -4.9746   -5.0225   -1.6700 H   0  0  0  0  0  0  0  0  0  0  0  0
   -6.6623   -5.1863   -0.9864 H   0  0  0  0  0  0  0  0  0  0  0  0
   -5.3922   -4.5066    0.0474 H   0  0  0  0  0  0  0  0  0  0  0  0
   -5.6784   -4.0875   -3.4248 H   0  0  0  0  0  0  0  0  0  0  0  0
   -5.8667   -2.3256   -3.4524 H   0  0  0  0  0  0  0  0  0  0  0  0
   -7.3373   -3.3032   -3.3427 H   0  0  0  0  0  0  0  0  0  0  0  0
  1  2  1  0
  2  3  1  0
  3  4  1  0
  4  5  1  0
  5  6  1  0
  6  7  1  0
  5  8  1  0
  8  9  2  0
  9 10  1  0
 10 11  2  0
 11 12  1  0
 12 13  2  0
 13 14  1  0
 14 15  1  0
 14 16  2  0
 16 17  1  0
 17 18  2  0
 16 19  1  0
 19 20  1  0
 19 21  1  0
 21 22  2  0
 21 23  1  0
 23 24  1  0
 24 25  1  0
 25 26  2  0
 26 27  1  0
 27 28  1  0
 27 29  2  0
 29 30  1  0
 29 31  1  0
 31 32  2  0
 32 33  1  0
 33 34  2  0
 34 35  1  0
 35 36  2  0
 36 37  1  0
 37 38  2  0
 37 39  2  0
 37 40  1  0
 40 41  1  0
 10 42  1  0
 42 43  1  0
 42 44  1  0
  7  2  1  0
 18  8  1  0
 41 25  1  0
 18 12  1  0
 36 31  1  0
  1 45  1  0
  1 46  1  0
  1 47  1  0
  3 48  1  0
  3 49  1  0
  4 50  1  0
  4 51  1  0
  6 52  1  0
  6 53  1  0
  7 54  1  0
  7 55  1  0
  9 56  1  0
 13 57  1  0
 17 58  1  0
 20 59  1  0
 20 60  1  0
 20 61  1  0
 23 62  1  0
 24 63  1  0
 24 64  1  0
 26 65  1  0
 30 66  1  0
 30 67  1  0
 30 68  1  0
 32 69  1  0
 33 70  1  0
 34 71  1  0
 35 72  1  0
 40 73  1  0
 40 74  1  0
 41 75  1  0
 41 76  1  0
 42 77  1  0
 43 78  1  0
 43 79  1  0
 43 80  1  0
 44 81  1  0
 44 82  1  0
 44 83  1  0
M  END
$$$$
[H]OC1([H])C([H])([H])N([H])N(S(=O)(=O)c2c([H])c([H])c(-c3c([H])sc4nc(C([H])([H])[H])n(C([H])([H])C([H])([H])F)c34)c([H])c2[H])C([H])([H])C1([H])[H]
     RDKit          3D

 49 52  0  0  0  0  0  0  0  0999 V2000
   -5.8550    1.2363    1.7412 C   0  0  0  0  0  0  0  0  0  0  0  0
   -5.2865    1.0419    0.3872 C   0  0  0  0  0  0  0  0  0  0  0  0
   -5.9525    1.2015   -0.7516 N   0  0  0  0  0  0  0  0  0  0  0  0
   -5.0613    0.9332   -1.7552 C   0  0  0  0  0  0  0  0  0  0  0  0
   -4.8850    0.8394   -3.4438 S   0  0  0  0  0  0  0  0  0  0  0  0
   -3.2686    0.3927   -3.5318 C   0  0  0  0  0  0  0  0  0  0  0  0
   -2.8700    0.3198   -2.1884 C   0  0  0  0  0  0  0  0  0  0  0  0
   -1.4196    0.0296   -1.9497 C   0  0  0  0  0  0  0  0  0  0  0  0
   -0.5376    0.9912   -1.5140 C   0  0  0  0  0  0  0  0  0  0  0  0
    0.8012    0.7282   -1.3131 C   0  0  0  0  0  0  0  0  0  0  0  0
    1.3138   -0.5306   -1.5457 C   0  0  0  0  0  0  0  0  0  0  0  0
    0.4394   -1.5020   -1.9825 C   0  0  0  0  0  0  0  0  0  0  0  0
   -0.9003   -1.2262   -2.1802 C   0  0  0  0  0  0  0  0  0  0  0  0
    3.0188   -0.8564   -1.2871 S   0  0  0  0  0  0  0  0  0  0  0  0
    3.5182   -1.9154   -2.2292 O   0  0  0  0  0  0  0  0  0  0  0  0
    3.7590    0.4132   -1.6314 O   0  0  0  0  0  0  0  0  0  0  0  0
    3.3347   -1.3766    0.3085 N   0  0  0  0  0  0  0  0  0  0  0  0
    3.0071   -0.4394    1.3254 C   0  0  0  0  0  0  0  0  0  0  0  0
    3.9893    0.6828    1.4868 C   0  0  0  0  0  0  0  0  0  0  0  0
    5.4149    0.2689    1.3407 C   0  0  0  0  0  0  0  0  0  0  0  0
    6.1367    1.3658    0.8495 O   0  0  0  0  0  0  0  0  0  0  0  0
    5.6344   -0.8755    0.4124 C   0  0  0  0  0  0  0  0  0  0  0  0
    4.6068   -1.8631    0.4944 N   0  0  0  0  0  0  0  0  0  0  0  0
   -3.8213    0.6024   -1.2626 C   0  0  0  0  0  0  0  0  0  0  0  0
   -3.9916    0.6758    0.0997 N   0  0  0  0  0  0  0  0  0  0  0  0
   -3.0566    0.4181    1.1666 C   0  0  0  0  0  0  0  0  0  0  0  0
   -3.2555   -1.0382    1.6081 C   0  0  0  0  0  0  0  0  0  0  0  0
   -3.0544   -1.9481    0.6205 F   0  0  0  0  0  0  0  0  0  0  0  0
   -6.0056    2.3307    1.9656 H   0  0  0  0  0  0  0  0  0  0  0  0
   -6.8639    0.7831    1.8402 H   0  0  0  0  0  0  0  0  0  0  0  0
   -5.2225    0.8642    2.5614 H   0  0  0  0  0  0  0  0  0  0  0  0
   -2.6063    0.1863   -4.3999 H   0  0  0  0  0  0  0  0  0  0  0  0
   -0.9257    1.9992   -1.3232 H   0  0  0  0  0  0  0  0  0  0  0  0
    1.5008    1.4805   -0.9702 H   0  0  0  0  0  0  0  0  0  0  0  0
    0.7944   -2.5004   -2.1775 H   0  0  0  0  0  0  0  0  0  0  0  0
   -1.6012   -1.9887   -2.5261 H   0  0  0  0  0  0  0  0  0  0  0  0
    1.9992    0.0081    1.2267 H   0  0  0  0  0  0  0  0  0  0  0  0
    2.9850   -0.9975    2.3024 H   0  0  0  0  0  0  0  0  0  0  0  0
    3.7161    1.5469    0.8172 H   0  0  0  0  0  0  0  0  0  0  0  0
    3.8580    1.0853    2.5270 H   0  0  0  0  0  0  0  0  0  0  0  0
    5.9007    0.0213    2.3270 H   0  0  0  0  0  0  0  0  0  0  0  0
    5.5506    2.1476    0.6916 H   0  0  0  0  0  0  0  0  0  0  0  0
    6.6005   -1.3892    0.6926 H   0  0  0  0  0  0  0  0  0  0  0  0
    5.8141   -0.4807   -0.6079 H   0  0  0  0  0  0  0  0  0  0  0  0
    4.8369   -2.7312    0.0000 H   0  0  0  0  0  0  0  0  0  0  0  0
   -3.2951    1.0407    2.0714 H   0  0  0  0  0  0  0  0  0  0  0  0
   -2.0284    0.5010    0.8760 H   0  0  0  0  0  0  0  0  0  0  0  0
   -4.2417   -1.2239    2.0459 H   0  0  0  0  0  0  0  0  0  0  0  0
   -2.5243   -1.2525    2.4433 H   0  0  0  0  0  0  0  0  0  0  0  0
  1  2  1  0
  2  3  2  0
  3  4  1  0
  4  5  1  0
  5  6  1  0
  6  7  2  0
  7  8  1  0
  8  9  2  0
  9 10  1  0
 10 11  2  0
 11 12  1  0
 12 13  2  0
 11 14  1  0
 14 15  2  0
 14 16  2  0
 14 17  1  0
 17 18  1  0
 18 19  1  0
 19 20  1  0
 20 21  1  0
 20 22  1  0
 22 23  1  0
  7 24  1  0
 24 25  1  0
 25 26  1  0
 26 27  1  0
 27 28  1  0
 25  2  1  0
 24  4  2  0
 13  8  1  0
 23 17  1  0
  1 29  1  0
  1 30  1  0
  1 31  1  0
  6 32  1  0
  9 33  1  0
 10 34  1  0
 12 35  1  0
 13 36  1  0
 18 37  1  0
 18 38  1  0
 19 39  1  0
 19 40  1  0
 20 41  1  0
 21 42  1  0
 22 43  1  0
 22 44  1  0
 23 45  1  0
 26 46  1  0
 26 47  1  0
 27 48  1  0
 27 49  1  0
M  END
$$$$
[H]OC(=O)C([H])([H])[H].[H]OC(=O)c1c([H])c([H])c([H])c(C([H])([H])N([H])C(=O)[C@]2([H])C(=O)[C@@]([H])(C(=O)N(C([H])([H])[H])C([H])([H])[H])O[C@]3([H])c4c([H])c([H])c(C(=O)N([H])[H])c([H])c4C([H])([H])C([H])([H])[C@]23[H])c1[H]
     RDKit          3D

 71 73  0  0  0  0  0  0  0  0999 V2000
    0.8487   -0.3203    0.1440 C   0  0  0  0  0  0  0  0  0  0  0  0
   -0.3560    0.4720   -0.1432 C   0  0  0  0  0  0  0  0  0  0  0  0
   -1.5548   -0.1601   -0.3693 O   0  0  0  0  0  0  0  0  0  0  0  0
   -0.2764    1.7130   -0.1785 O   0  0  0  0  0  0  0  0  0  0  0  0
   -1.8415    3.6609   -2.0891 C   0  0  0  0  0  0  0  0  0  0  0  0
   -1.7672    4.1424   -0.7455 N   0  0  0  0  0  0  0  0  0  0  0  0
   -1.4625    5.5591   -0.5621 C   0  0  0  0  0  0  0  0  0  0  0  0
   -1.9686    3.3273    0.3710 C   0  0  0  0  0  0  0  0  0  0  0  0
   -1.8717    3.8971    1.5410 O   0  0  0  0  0  0  0  0  0  0  0  0
   -2.2806    1.8827    0.3571 C   0  0  1  0  0  0  0  0  0  0  0  0
   -2.3633    1.3946   -0.9104 O   0  0  0  0  0  0  0  0  0  0  0  0
   -2.1308    0.0109   -0.9928 C   0  0  1  0  0  0  0  0  0  0  0  0
   -0.6923   -0.3250   -0.7898 C   0  0  2  0  0  0  0  0  0  0  0  0
   -0.5410   -1.7421   -0.3441 C   0  0  0  0  0  0  0  0  0  0  0  0
   -1.3461   -2.1014    0.8585 C   0  0  0  0  0  0  0  0  0  0  0  0
   -2.7460   -1.7343    0.6559 C   0  0  0  0  0  0  0  0  0  0  0  0
   -3.6861   -2.4521    1.3973 C   0  0  0  0  0  0  0  0  0  0  0  0
   -5.0205   -2.1676    1.2630 C   0  0  0  0  0  0  0  0  0  0  0  0
   -5.3922   -1.1668    0.3861 C   0  0  0  0  0  0  0  0  0  0  0  0
   -4.4387   -0.4692   -0.3383 C   0  0  0  0  0  0  0  0  0  0  0  0
   -3.0969   -0.7497   -0.2080 C   0  0  0  0  0  0  0  0  0  0  0  0
   -6.0351   -2.8899    2.0149 C   0  0  0  0  0  0  0  0  0  0  0  0
   -7.3936   -2.5501    1.8283 N   0  0  0  0  0  0  0  0  0  0  0  0
   -5.7583   -3.8047    2.8247 O   0  0  0  0  0  0  0  0  0  0  0  0
   -0.0659    0.6914    0.1114 C   0  0  2  0  0  0  0  0  0  0  0  0
    1.1724    0.2863    0.7568 C   0  0  0  0  0  0  0  0  0  0  0  0
    1.2250    0.2000    1.9998 O   0  0  0  0  0  0  0  0  0  0  0  0
    2.3537   -0.0248    0.0425 N   0  0  0  0  0  0  0  0  0  0  0  0
    3.5401   -0.4173    0.7243 C   0  0  0  0  0  0  0  0  0  0  0  0
    4.7282   -0.6072   -0.0939 C   0  0  0  0  0  0  0  0  0  0  0  0
    4.8785   -0.1586   -1.3720 C   0  0  0  0  0  0  0  0  0  0  0  0
    6.0634   -0.4017   -2.0688 C   0  0  0  0  0  0  0  0  0  0  0  0
    7.1162   -1.0910   -1.5125 C   0  0  0  0  0  0  0  0  0  0  0  0
    6.9687   -1.5460   -0.2207 C   0  0  0  0  0  0  0  0  0  0  0  0
    5.7986   -1.3049    0.4643 C   0  0  0  0  0  0  0  0  0  0  0  0
    8.0873   -2.2764    0.3703 C   0  0  0  0  0  0  0  0  0  0  0  0
    9.2606   -2.5109   -0.3278 O   0  0  0  0  0  0  0  0  0  0  0  0
    7.9481   -2.6906    1.5485 O   0  0  0  0  0  0  0  0  0  0  0  0
   -1.1118    1.2088    1.0142 C   0  0  0  0  0  0  0  0  0  0  0  0
   -1.0986    1.1324    2.2114 O   0  0  0  0  0  0  0  0  0  0  0  0
    0.5344   -1.1300    0.8626 H   0  0  0  0  0  0  0  0  0  0  0  0
    1.2723   -0.8137   -0.7640 H   0  0  0  0  0  0  0  0  0  0  0  0
    1.6498    0.2721    0.6194 H   0  0  0  0  0  0  0  0  0  0  0  0
   -2.1181   -0.0331   -1.2069 H   0  0  0  0  0  0  0  0  0  0  0  0
   -2.8682    3.2784   -2.2656 H   0  0  0  0  0  0  0  0  0  0  0  0
   -1.6413    4.5134   -2.8151 H   0  0  0  0  0  0  0  0  0  0  0  0
   -1.0769    2.8665   -2.2706 H   0  0  0  0  0  0  0  0  0  0  0  0
   -0.8546    5.9433   -1.3918 H   0  0  0  0  0  0  0  0  0  0  0  0
   -2.3965    6.1619   -0.5255 H   0  0  0  0  0  0  0  0  0  0  0  0
   -0.9102    5.7476    0.3699 H   0  0  0  0  0  0  0  0  0  0  0  0
   -3.2080    1.7220    0.9597 H   0  0  0  0  0  0  0  0  0  0  0  0
   -2.3737   -0.2223   -2.0796 H   0  0  0  0  0  0  0  0  0  0  0  0
   -0.1810   -0.2402   -1.7724 H   0  0  0  0  0  0  0  0  0  0  0  0
    0.5028   -2.0401   -0.1634 H   0  0  0  0  0  0  0  0  0  0  0  0
   -0.9023   -2.3866   -1.1857 H   0  0  0  0  0  0  0  0  0  0  0  0
   -1.3005   -3.2283    0.9500 H   0  0  0  0  0  0  0  0  0  0  0  0
   -0.9324   -1.7299    1.8172 H   0  0  0  0  0  0  0  0  0  0  0  0
   -3.3783   -3.2289    2.0760 H   0  0  0  0  0  0  0  0  0  0  0  0
   -6.4553   -0.9540    0.2908 H   0  0  0  0  0  0  0  0  0  0  0  0
   -4.8192    0.2997   -1.0020 H   0  0  0  0  0  0  0  0  0  0  0  0
   -8.1321   -3.2787    1.7181 H   0  0  0  0  0  0  0  0  0  0  0  0
   -7.6772   -1.5659    1.7980 H   0  0  0  0  0  0  0  0  0  0  0  0
    0.2014    1.5923   -0.5302 H   0  0  0  0  0  0  0  0  0  0  0  0
    2.3060    0.0479   -1.0223 H   0  0  0  0  0  0  0  0  0  0  0  0
    3.7835    0.2360    1.6008 H   0  0  0  0  0  0  0  0  0  0  0  0
    3.3121   -1.4189    1.2006 H   0  0  0  0  0  0  0  0  0  0  0  0
    4.0948    0.3836   -1.8475 H   0  0  0  0  0  0  0  0  0  0  0  0
    6.1978   -0.0482   -3.0927 H   0  0  0  0  0  0  0  0  0  0  0  0
    8.0259   -1.2564   -2.0980 H   0  0  0  0  0  0  0  0  0  0  0  0
    5.7196   -1.6766    1.4727 H   0  0  0  0  0  0  0  0  0  0  0  0
    9.9322   -1.7290   -0.3567 H   0  0  0  0  0  0  0  0  0  0  0  0
  1  2  1  0
  2  3  1  0
  2  4  2  0
  5  6  1  0
  6  7  1  0
  6  8  1  0
  8  9  2  0
  8 10  1  0
 10 11  1  0
 11 12  1  0
 12 13  1  0
 13 14  1  0
 14 15  1  0
 15 16  1  0
 16 17  2  0
 17 18  1  0
 18 19  2  0
 19 20  1  0
 20 21  2  0
 18 22  1  0
 22 23  1  0
 22 24  2  0
 13 25  1  0
 25 26  1  0
 26 27  2  0
 26 28  1  0
 28 29  1  0
 29 30  1  0
 30 31  2  0
 31 32  1  0
 32 33  2  0
 33 34  1  0
 34 35  2  0
 34 36  1  0
 36 37  1  0
 36 38  2  0
 25 39  1  0
 39 40  2  0
 39 10  1  0
 21 12  1  0
 35 30  1  0
 21 16  1  0
  1 41  1  0
  1 42  1  0
  1 43  1  0
  3 44  1  0
  5 45  1  0
  5 46  1  0
  5 47  1  0
  7 48  1  0
  7 49  1  0
  7 50  1  0
 10 51  1  1
 12 52  1  6
 13 53  1  6
 14 54  1  0
 14 55  1  0
 15 56  1  0
 15 57  1  0
 17 58  1  0
 19 59  1  0
 20 60  1  0
 23 61  1  0
 23 62  1  0
 25 63  1  6
 28 64  1  0
 29 65  1  0
 29 66  1  0
 31 67  1  0
 32 68  1  0
 33 69  1  0
 35 70  1  0
 37 71  1  0
M  END
$$$$
[H]c1nc(C(N([H])C(=O)c2nc3c([H])c([H])c(N4C([H])([H])C([H])(C(=O)N([H])c5c(C([H])([H])[H])nc([H])c([H])c5[H])C4([H])[H])c([H])c3o2)(C([H])([H])[H])C([H])([H])[H])c([H])c([H])c1[H]
     RDKit          3D

 61 65  0  0  0  0  0  0  0  0999 V2000
   -6.5180    2.1038   -0.6774 C   0  0  0  0  0  0  0  0  0  0  0  0
   -7.7007    1.2737   -0.2125 C   0  0  0  0  0  0  0  0  0  0  0  0
   -8.7924    1.8421    0.3158 N   0  0  0  0  0  0  0  0  0  0  0  0
   -9.8597    1.1578    0.6571 C   0  0  0  0  0  0  0  0  0  0  0  0
   -9.8277   -0.2410    0.4469 C   0  0  0  0  0  0  0  0  0  0  0  0
   -8.7432   -0.8319   -0.0768 C   0  0  0  0  0  0  0  0  0  0  0  0
   -7.5981   -0.1181   -0.4501 C   0  0  0  0  0  0  0  0  0  0  0  0
   -6.4230   -0.6258   -0.8016 N   0  0  0  0  0  0  0  0  0  0  0  0
   -5.2017   -1.1660   -1.1805 C   0  0  0  0  0  0  0  0  0  0  0  0
   -5.0225   -1.9102   -2.0890 O   0  0  0  0  0  0  0  0  0  0  0  0
   -3.9615   -0.8328   -0.3900 C   0  0  0  0  0  0  0  0  0  0  0  0
   -3.1597   -1.9382    0.2559 C   0  0  0  0  0  0  0  0  0  0  0  0
   -2.6978   -0.7903    1.0791 N   0  0  0  0  0  0  0  0  0  0  0  0
   -4.0837   -0.4506    1.0382 C   0  0  0  0  0  0  0  0  0  0  0  0
   -1.4620   -0.4077    1.5641 C   0  0  0  0  0  0  0  0  0  0  0  0
   -1.1864    0.1384    2.8281 C   0  0  0  0  0  0  0  0  0  0  0  0
    0.1002    0.4815    3.2193 C   0  0  0  0  0  0  0  0  0  0  0  0
    1.1904    0.2989    2.3934 C   0  0  0  0  0  0  0  0  0  0  0  0
    2.5059    0.5162    2.4934 N   0  0  0  0  0  0  0  0  0  0  0  0
    3.0726    0.1316    1.3552 C   0  0  0  0  0  0  0  0  0  0  0  0
    2.1144   -0.3021    0.5856 O   0  0  0  0  0  0  0  0  0  0  0  0
    0.9501   -0.2346    1.1442 C   0  0  0  0  0  0  0  0  0  0  0  0
   -0.3231   -0.5609    0.7977 C   0  0  0  0  0  0  0  0  0  0  0  0
    4.4751    0.1366    0.9760 C   0  0  0  0  0  0  0  0  0  0  0  0
    5.4368    0.0790    1.7477 O   0  0  0  0  0  0  0  0  0  0  0  0
    4.7502    0.2041   -0.4449 N   0  0  0  0  0  0  0  0  0  0  0  0
    5.9997    0.1430   -1.1116 C   0  0  0  0  0  0  0  0  0  0  0  0
    5.9238    0.9080   -2.4253 C   0  0  0  0  0  0  0  0  0  0  0  0
    5.9790   -1.3664   -1.6940 C   0  0  0  0  0  0  0  0  0  0  0  0
    7.1951    0.1992   -0.3255 C   0  0  0  0  0  0  0  0  0  0  0  0
    7.8397    1.3979   -0.0329 C   0  0  0  0  0  0  0  0  0  0  0  0
    8.9908    1.3794    0.7059 C   0  0  0  0  0  0  0  0  0  0  0  0
    9.5195    0.2105    1.1529 C   0  0  0  0  0  0  0  0  0  0  0  0
    8.8753   -0.9986    0.8499 C   0  0  0  0  0  0  0  0  0  0  0  0
    7.7651   -0.9729    0.1470 N   0  0  0  0  0  0  0  0  0  0  0  0
   -6.8918    3.1855   -0.6359 H   0  0  0  0  0  0  0  0  0  0  0  0
   -5.6603    2.0567   -0.0083 H   0  0  0  0  0  0  0  0  0  0  0  0
   -6.2429    1.9667   -1.7662 H   0  0  0  0  0  0  0  0  0  0  0  0
  -10.7128    1.6233    1.0818 H   0  0  0  0  0  0  0  0  0  0  0  0
  -10.7208   -0.7574    0.7398 H   0  0  0  0  0  0  0  0  0  0  0  0
   -8.7412   -1.9424   -0.2444 H   0  0  0  0  0  0  0  0  0  0  0  0
   -7.0192   -1.4714   -1.6921 H   0  0  0  0  0  0  0  0  0  0  0  0
   -3.2695   -0.0798   -0.8921 H   0  0  0  0  0  0  0  0  0  0  0  0
   -2.3359   -2.2914   -0.3931 H   0  0  0  0  0  0  0  0  0  0  0  0
   -3.6657   -2.6703    0.8776 H   0  0  0  0  0  0  0  0  0  0  0  0
   -4.3331    0.5909    1.2494 H   0  0  0  0  0  0  0  0  0  0  0  0
   -4.6389   -1.1746    1.6811 H   0  0  0  0  0  0  0  0  0  0  0  0
   -1.9553    0.3304    3.5467 H   0  0  0  0  0  0  0  0  0  0  0  0
    0.2324    0.9259    4.1760 H   0  0  0  0  0  0  0  0  0  0  0  0
   -0.4569   -1.0548   -0.2173 H   0  0  0  0  0  0  0  0  0  0  0  0
    3.8791    0.3185   -1.1037 H   0  0  0  0  0  0  0  0  0  0  0  0
    6.1818    1.9674   -2.2017 H   0  0  0  0  0  0  0  0  0  0  0  0
    6.5888    0.5228   -3.1907 H   0  0  0  0  0  0  0  0  0  0  0  0
    4.8766    0.9240   -2.7352 H   0  0  0  0  0  0  0  0  0  0  0  0
    5.9354   -2.0152   -0.8237 H   0  0  0  0  0  0  0  0  0  0  0  0
    6.9562   -1.3735   -2.2350 H   0  0  0  0  0  0  0  0  0  0  0  0
    5.1639   -1.3827   -2.3928 H   0  0  0  0  0  0  0  0  0  0  0  0
    7.4584    2.3419   -0.3714 H   0  0  0  0  0  0  0  0  0  0  0  0
    9.4911    2.3199    0.9300 H   0  0  0  0  0  0  0  0  0  0  0  0
   10.4373    0.1965    1.7264 H   0  0  0  0  0  0  0  0  0  0  0  0
    9.3208   -1.9107    1.2240 H   0  0  0  0  0  0  0  0  0  0  0  0
  1  2  1  0
  2  3  2  0
  3  4  1  0
  4  5  2  0
  5  6  1  0
  6  7  2  0
  7  8  1  0
  8  9  1  0
  9 10  2  0
  9 11  1  0
 11 12  1  0
 12 13  1  0
 13 14  1  0
 13 15  1  0
 15 16  2  0
 16 17  1  0
 17 18  2  0
 18 19  1  0
 19 20  2  0
 20 21  1  0
 21 22  1  0
 22 23  2  0
 20 24  1  0
 24 25  2  0
 24 26  1  0
 26 27  1  0
 27 28  1  0
 27 29  1  0
 27 30  1  0
 30 31  2  0
 31 32  1  0
 32 33  2  0
 33 34  1  0
 34 35  2  0
  7  2  1  0
 14 11  1  0
 23 15  1  0
 35 30  1  0
 22 18  1  0
  1 36  1  0
  1 37  1  0
  1 38  1  0
  4 39  1  0
  5 40  1  0
  6 41  1  0
  8 42  1  0
 11 43  1  0
 12 44  1  0
 12 45  1  0
 14 46  1  0
 14 47  1  0
 16 48  1  0
 17 49  1  0
 23 50  1  0
 26 51  1  0
 28 52  1  0
 28 53  1  0
 28 54  1  0
 29 55  1  0
 29 56  1  0
 29 57  1  0
 31 58  1  0
 32 59  1  0
 33 60  1  0
 34 61  1  0
M  END
$$$$
[H]c1c([H])c(N(C([H])([H])C([H])([H])C([H])([H])[H])C([H])([H])C([H])([H])C([H])([H])[H])c(Cl)c([H])c1-c1c([H])c([N+](=O)[O-])nc2c1c(C(=O)N([H])[H])nn2C([H])([H])[H]
     RDKit          3D

 53 55  0  0  0  0  0  0  0  0999 V2000
   -5.5150    1.4795    1.3227 C   0  0  0  0  0  0  0  0  0  0  0  0
   -4.4617    2.2666    0.6109 C   0  0  0  0  0  0  0  0  0  0  0  0
   -3.7213    1.5813   -0.4820 C   0  0  0  0  0  0  0  0  0  0  0  0
   -2.9393    0.4338   -0.1476 N   0  0  0  0  0  0  0  0  0  0  0  0
   -3.5439   -0.8111    0.2355 C   0  0  0  0  0  0  0  0  0  0  0  0
   -4.2714   -1.3791   -0.9857 C   0  0  0  0  0  0  0  0  0  0  0  0
   -4.9214   -2.7008   -0.5958 C   0  0  0  0  0  0  0  0  0  0  0  0
   -1.4906    0.4906   -0.1839 C   0  0  0  0  0  0  0  0  0  0  0  0
   -0.7420    0.3055    0.9720 C   0  0  0  0  0  0  0  0  0  0  0  0
    0.6412    0.3775    0.8820 C   0  0  0  0  0  0  0  0  0  0  0  0
    1.2615    0.6262   -0.3220 C   0  0  0  0  0  0  0  0  0  0  0  0
    0.4816    0.8025   -1.4377 C   0  0  0  0  0  0  0  0  0  0  0  0
   -0.9089    0.7403   -1.4032 C   0  0  0  0  0  0  0  0  0  0  0  0
   -1.8489    0.9686   -2.8808 Cl  0  0  0  0  0  0  0  0  0  0  0  0
    2.6973    0.7406   -0.3648 C   0  0  0  0  0  0  0  0  0  0  0  0
    3.2425    2.0308   -0.5582 C   0  0  0  0  0  0  0  0  0  0  0  0
    4.5824    2.2053   -0.4809 C   0  0  0  0  0  0  0  0  0  0  0  0
    5.4213    1.1790   -0.2231 N   0  0  0  0  0  0  0  0  0  0  0  0
    4.9373   -0.0357   -0.0411 C   0  0  0  0  0  0  0  0  0  0  0  0
    5.5257   -1.2037    0.2229 N   0  0  0  0  0  0  0  0  0  0  0  0
    6.9591   -1.3977    0.3820 C   0  0  0  0  0  0  0  0  0  0  0  0
    4.6402   -2.1250    0.3139 N   0  0  0  0  0  0  0  0  0  0  0  0
    3.3660   -1.6128    0.1086 C   0  0  0  0  0  0  0  0  0  0  0  0
    2.2182   -2.4826    0.1538 C   0  0  0  0  0  0  0  0  0  0  0  0
    2.1663   -3.4481    1.1992 N   0  0  0  0  0  0  0  0  0  0  0  0
    1.2817   -2.4662   -0.6250 O   0  0  0  0  0  0  0  0  0  0  0  0
    3.5546   -0.2745   -0.1125 C   0  0  0  0  0  0  0  0  0  0  0  0
    5.1572    3.4904   -0.6691 N   0  0  0  0  0  0  0  0  0  0  0  0
    6.5043    3.7237   -0.6000 O   0  0  0  0  0  0  0  0  0  0  0  0
    4.4066    4.4503   -0.9072 O   0  0  0  0  0  0  0  0  0  0  0  0
   -5.1043    0.9936    2.2271 H   0  0  0  0  0  0  0  0  0  0  0  0
   -5.9279    0.7305    0.6497 H   0  0  0  0  0  0  0  0  0  0  0  0
   -6.3748    2.1492    1.5970 H   0  0  0  0  0  0  0  0  0  0  0  0
   -4.9813    3.2020    0.2299 H   0  0  0  0  0  0  0  0  0  0  0  0
   -3.7018    2.6778    1.3306 H   0  0  0  0  0  0  0  0  0  0  0  0
   -3.1164    2.3732   -0.9961 H   0  0  0  0  0  0  0  0  0  0  0  0
   -4.5004    1.2842   -1.2622 H   0  0  0  0  0  0  0  0  0  0  0  0
   -4.2251   -0.8117    1.0661 H   0  0  0  0  0  0  0  0  0  0  0  0
   -2.7442   -1.5779    0.4939 H   0  0  0  0  0  0  0  0  0  0  0  0
   -3.5349   -1.5064   -1.7957 H   0  0  0  0  0  0  0  0  0  0  0  0
   -5.0761   -0.6986   -1.3160 H   0  0  0  0  0  0  0  0  0  0  0  0
   -5.5024   -3.0943   -1.4394 H   0  0  0  0  0  0  0  0  0  0  0  0
   -5.5690   -2.4520    0.2952 H   0  0  0  0  0  0  0  0  0  0  0  0
   -4.1753   -3.4617   -0.3086 H   0  0  0  0  0  0  0  0  0  0  0  0
   -1.2410    0.1117    1.9095 H   0  0  0  0  0  0  0  0  0  0  0  0
    1.2326    0.2367    1.7672 H   0  0  0  0  0  0  0  0  0  0  0  0
    0.9626    0.9974   -2.3807 H   0  0  0  0  0  0  0  0  0  0  0  0
    2.5371    2.8440   -0.7655 H   0  0  0  0  0  0  0  0  0  0  0  0
    7.2181   -2.4624    0.2683 H   0  0  0  0  0  0  0  0  0  0  0  0
    7.4734   -0.7798   -0.3624 H   0  0  0  0  0  0  0  0  0  0  0  0
    7.3024   -1.0569    1.3802 H   0  0  0  0  0  0  0  0  0  0  0  0
    2.8808   -4.1960    1.1553 H   0  0  0  0  0  0  0  0  0  0  0  0
    1.4873   -3.4575    1.9779 H   0  0  0  0  0  0  0  0  0  0  0  0
  1  2  1  0
  2  3  1  0
  3  4  1  0
  4  5  1  0
  5  6  1  0
  6  7  1  0
  4  8  1  0
  8  9  2  0
  9 10  1  0
 10 11  2  0
 11 12  1  0
 12 13  2  0
 13 14  1  0
 11 15  1  0
 15 16  2  0
 16 17  1  0
 17 18  2  0
 18 19  1  0
 19 20  1  0
 20 21  1  0
 20 22  1  0
 22 23  2  0
 23 24  1  0
 24 25  1  0
 24 26  2  0
 23 27  1  0
 17 28  1  0
 28 29  1  0
 28 30  2  0
 13  8  1  0
 27 15  1  0
 27 19  2  0
  1 31  1  0
  1 32  1  0
  1 33  1  0
  2 34  1  0
  2 35  1  0
  3 36  1  0
  3 37  1  0
  5 38  1  0
  5 39  1  0
  6 40  1  0
  6 41  1  0
  7 42  1  0
  7 43  1  0
  7 44  1  0
  9 45  1  0
 10 46  1  0
 12 47  1  0
 16 48  1  0
 21 49  1  0
 21 50  1  0
 21 51  1  0
 25 52  1  0
 25 53  1  0
M  CHG  2  28   1  29  -1
M  END
$$$$
[H]OC([H])([H])[C@]1([H])C(=O)N([H])C([H])([H])c2c([H])c([H])c([H])c(Oc3c([H])c([H])c(C#N)c([H])c3[H])c2C(=O)N(c2nc(N(C([H])([H])[H])C([H])([H])[H])c([H])c(C([H])([H])[H])n2)C1([H])[H]
     RDKit          3D

 62 65  0  0  0  0  0  0  0  0999 V2000
   -2.8092    3.4905    2.3108 C   0  0  0  0  0  0  0  0  0  0  0  0
   -3.3053    2.1677    2.0305 N   0  0  0  0  0  0  0  0  0  0  0  0
   -4.3822    1.6241    2.8210 C   0  0  0  0  0  0  0  0  0  0  0  0
   -2.7537    1.3980    0.9848 C   0  0  0  0  0  0  0  0  0  0  0  0
   -3.2444    1.5034   -0.3078 C   0  0  0  0  0  0  0  0  0  0  0  0
   -2.7348    0.7627   -1.3567 C   0  0  0  0  0  0  0  0  0  0  0  0
   -3.2538    0.8808   -2.7396 C   0  0  0  0  0  0  0  0  0  0  0  0
   -1.7231   -0.0787   -1.0545 N   0  0  0  0  0  0  0  0  0  0  0  0
   -1.2424   -0.1932    0.1699 C   0  0  0  0  0  0  0  0  0  0  0  0
   -1.7401    0.5274    1.1826 N   0  0  0  0  0  0  0  0  0  0  0  0
   -0.1365   -1.1039    0.5039 N   0  0  0  0  0  0  0  0  0  0  0  0
   -0.6563   -2.2721    1.1823 C   0  0  0  0  0  0  0  0  0  0  0  0
   -1.4317   -3.2101    0.2940 C   0  0  2  0  0  0  0  0  0  0  0  0
   -2.5009   -3.9543    1.1324 C   0  0  0  0  0  0  0  0  0  0  0  0
   -3.3878   -3.0976    1.7188 O   0  0  0  0  0  0  0  0  0  0  0  0
   -0.6183   -4.2179   -0.4094 C   0  0  0  0  0  0  0  0  0  0  0  0
   -1.1841   -5.3541   -0.6591 O   0  0  0  0  0  0  0  0  0  0  0  0
    0.7020   -4.1138   -0.8523 N   0  0  0  0  0  0  0  0  0  0  0  0
    1.8736   -3.7060   -0.1229 C   0  0  0  0  0  0  0  0  0  0  0  0
    2.4615   -2.5676   -0.9220 C   0  0  0  0  0  0  0  0  0  0  0  0
    3.3595   -3.0055   -1.8728 C   0  0  0  0  0  0  0  0  0  0  0  0
    4.0269   -2.1293   -2.7022 C   0  0  0  0  0  0  0  0  0  0  0  0
    3.7839   -0.8059   -2.5657 C   0  0  0  0  0  0  0  0  0  0  0  0
    2.8676   -0.3335   -1.5973 C   0  0  0  0  0  0  0  0  0  0  0  0
    2.7314    0.9923   -1.5859 O   0  0  0  0  0  0  0  0  0  0  0  0
    2.9714    2.1270   -0.9503 C   0  0  0  0  0  0  0  0  0  0  0  0
    4.1580    2.2494   -0.1975 C   0  0  0  0  0  0  0  0  0  0  0  0
    4.4802    3.3930    0.4846 C   0  0  0  0  0  0  0  0  0  0  0  0
    3.6319    4.4752    0.4507 C   0  0  0  0  0  0  0  0  0  0  0  0
    2.4517    4.3755   -0.2876 C   0  0  0  0  0  0  0  0  0  0  0  0
    2.1199    3.2445   -0.9703 C   0  0  0  0  0  0  0  0  0  0  0  0
    3.9367    5.6938    1.1516 C   0  0  0  0  0  0  0  0  0  0  0  0
    4.1694    6.6852    1.7229 N   0  0  0  0  0  0  0  0  0  0  0  0
    2.1800   -1.2421   -0.7471 C   0  0  0  0  0  0  0  0  0  0  0  0
    1.1814   -0.7358    0.1891 C   0  0  0  0  0  0  0  0  0  0  0  0
    1.5985    0.2759    0.8805 O   0  0  0  0  0  0  0  0  0  0  0  0
   -1.8140    3.5145    2.7678 H   0  0  0  0  0  0  0  0  0  0  0  0
   -3.4984    4.0162    3.0358 H   0  0  0  0  0  0  0  0  0  0  0  0
   -2.8618    4.1256    1.3885 H   0  0  0  0  0  0  0  0  0  0  0  0
   -5.1169    2.3882    3.1105 H   0  0  0  0  0  0  0  0  0  0  0  0
   -3.9816    1.1318    3.7308 H   0  0  0  0  0  0  0  0  0  0  0  0
   -4.9432    0.8864    2.1860 H   0  0  0  0  0  0  0  0  0  0  0  0
   -4.0683    2.1997   -0.5120 H   0  0  0  0  0  0  0  0  0  0  0  0
   -4.2773    1.3046   -2.6966 H   0  0  0  0  0  0  0  0  0  0  0  0
   -3.3343   -0.1062   -3.2379 H   0  0  0  0  0  0  0  0  0  0  0  0
   -2.5532    1.5772   -3.2730 H   0  0  0  0  0  0  0  0  0  0  0  0
   -1.4979   -1.9020    1.9199 H   0  0  0  0  0  0  0  0  0  0  0  0
   -0.0180   -2.7711    1.9025 H   0  0  0  0  0  0  0  0  0  0  0  0
   -2.0475   -2.5797   -0.3871 H   0  0  0  0  0  0  0  0  0  0  0  0
   -1.9343   -4.4791    1.9286 H   0  0  0  0  0  0  0  0  0  0  0  0
   -2.9714   -4.7148    0.4739 H   0  0  0  0  0  0  0  0  0  0  0  0
   -3.7601   -2.4013    1.1310 H   0  0  0  0  0  0  0  0  0  0  0  0
    0.8768   -4.3778   -1.8829 H   0  0  0  0  0  0  0  0  0  0  0  0
    1.7848   -3.4881    0.9189 H   0  0  0  0  0  0  0  0  0  0  0  0
    2.6015   -4.5932   -0.1354 H   0  0  0  0  0  0  0  0  0  0  0  0
    3.5886   -4.0770   -2.0189 H   0  0  0  0  0  0  0  0  0  0  0  0
    4.7272   -2.4760   -3.4484 H   0  0  0  0  0  0  0  0  0  0  0  0
    4.3114   -0.1282   -3.2241 H   0  0  0  0  0  0  0  0  0  0  0  0
    4.8207    1.4036   -0.1670 H   0  0  0  0  0  0  0  0  0  0  0  0
    5.4181    3.4425    1.0592 H   0  0  0  0  0  0  0  0  0  0  0  0
    1.7702    5.2215   -0.3215 H   0  0  0  0  0  0  0  0  0  0  0  0
    1.1974    3.1376   -1.5583 H   0  0  0  0  0  0  0  0  0  0  0  0
  1  2  1  0
  2  3  1  0
  2  4  1  0
  4  5  2  0
  5  6  1  0
  6  7  1  0
  6  8  2  0
  8  9  1  0
  9 10  2  0
  9 11  1  0
 11 12  1  0
 12 13  1  0
 13 14  1  0
 14 15  1  0
 13 16  1  0
 16 17  2  0
 16 18  1  0
 18 19  1  0
 19 20  1  0
 20 21  2  0
 21 22  1  0
 22 23  2  0
 23 24  1  0
 24 25  1  0
 25 26  1  0
 26 27  2  0
 27 28  1  0
 28 29  2  0
 29 30  1  0
 30 31  2  0
 29 32  1  0
 32 33  3  0
 24 34  2  0
 34 35  1  0
 35 36  2  0
 10  4  1  0
 35 11  1  0
 34 20  1  0
 31 26  1  0
  1 37  1  0
  1 38  1  0
  1 39  1  0
  3 40  1  0
  3 41  1  0
  3 42  1  0
  5 43  1  0
  7 44  1  0
  7 45  1  0
  7 46  1  0
 12 47  1  0
 12 48  1  0
 13 49  1  6
 14 50  1  0
 14 51  1  0
 15 52  1  0
 18 53  1  0
 19 54  1  0
 19 55  1  0
 21 56  1  0
 22 57  1  0
 23 58  1  0
 27 59  1  0
 28 60  1  0
 30 61  1  0
 31 62  1  0
M  END
$$$$
[H]c1nc(OC([H])([H])[H])c([H])c([H])c1C1=NN(C(=O)N(C([H])([H])[H])C([H])([H])[H])C([H])(c2c([H])c([H])c([H])c([H])c2[H])C1([H])c1c([H])c([H])c([H])c([H])c1[H]
     RDKit          3D

 54 57  0  0  0  0  0  0  0  0999 V2000
    6.9925   -0.4822   -1.2799 C   0  0  0  0  0  0  0  0  0  0  0  0
    6.2986    0.5771   -0.6657 O   0  0  0  0  0  0  0  0  0  0  0  0
    4.9145    0.5987   -0.6470 C   0  0  0  0  0  0  0  0  0  0  0  0
    4.2841    1.6385   -0.0444 C   0  0  0  0  0  0  0  0  0  0  0  0
    2.8869    1.6374   -0.0386 C   0  0  0  0  0  0  0  0  0  0  0  0
    2.1639    0.6291   -0.6170 C   0  0  0  0  0  0  0  0  0  0  0  0
    2.8379   -0.3975   -1.2123 C   0  0  0  0  0  0  0  0  0  0  0  0
    4.1959   -0.3843   -1.2108 N   0  0  0  0  0  0  0  0  0  0  0  0
    0.7001    0.6608   -0.5981 C   0  0  0  0  0  0  0  0  0  0  0  0
    0.0667    1.6371   -0.0581 N   0  0  0  0  0  0  0  0  0  0  0  0
   -1.3054    1.4981   -0.1349 N   0  0  0  0  0  0  0  0  0  0  0  0
   -1.5974    0.2892   -0.8817 C   0  0  0  0  0  0  0  0  0  0  0  0
   -0.2639   -0.2916   -1.1144 C   0  0  0  0  0  0  0  0  0  0  0  0
   -0.0936   -1.6821   -0.6614 C   0  0  0  0  0  0  0  0  0  0  0  0
   -0.3707   -2.7163   -1.5646 C   0  0  0  0  0  0  0  0  0  0  0  0
   -0.2205   -4.0455   -1.2268 C   0  0  0  0  0  0  0  0  0  0  0  0
    0.2147   -4.3780    0.0348 C   0  0  0  0  0  0  0  0  0  0  0  0
    0.4809   -3.3424    0.9059 C   0  0  0  0  0  0  0  0  0  0  0  0
    0.3356   -2.0093    0.5826 C   0  0  0  0  0  0  0  0  0  0  0  0
   -2.5844   -0.5433   -0.1916 C   0  0  0  0  0  0  0  0  0  0  0  0
   -2.5981   -0.6836    1.1651 C   0  0  0  0  0  0  0  0  0  0  0  0
   -3.5226   -1.4746    1.8232 C   0  0  0  0  0  0  0  0  0  0  0  0
   -4.4658   -2.1472    1.0905 C   0  0  0  0  0  0  0  0  0  0  0  0
   -4.4825   -2.0308   -0.2640 C   0  0  0  0  0  0  0  0  0  0  0  0
   -3.5352   -1.2226   -0.9165 C   0  0  0  0  0  0  0  0  0  0  0  0
   -2.2641    2.3952    0.4244 C   0  0  0  0  0  0  0  0  0  0  0  0
   -3.5031    2.1289    0.2637 O   0  0  0  0  0  0  0  0  0  0  0  0
   -1.9086    3.5585    1.1443 N   0  0  0  0  0  0  0  0  0  0  0  0
   -0.5430    3.9494    1.3818 C   0  0  0  0  0  0  0  0  0  0  0  0
   -2.9500    4.4158    1.6795 C   0  0  0  0  0  0  0  0  0  0  0  0
    7.0835   -1.3769   -0.6477 H   0  0  0  0  0  0  0  0  0  0  0  0
    8.0138   -0.1541   -1.5384 H   0  0  0  0  0  0  0  0  0  0  0  0
    6.4372   -0.7152   -2.2277 H   0  0  0  0  0  0  0  0  0  0  0  0
    4.7683    2.4667    0.4312 H   0  0  0  0  0  0  0  0  0  0  0  0
    2.3661    2.4661    0.4418 H   0  0  0  0  0  0  0  0  0  0  0  0
    2.3602   -1.2279   -1.6925 H   0  0  0  0  0  0  0  0  0  0  0  0
   -2.0144    0.6094   -1.9055 H   0  0  0  0  0  0  0  0  0  0  0  0
   -0.1154   -0.2943   -2.2496 H   0  0  0  0  0  0  0  0  0  0  0  0
   -0.7164   -2.5139   -2.5717 H   0  0  0  0  0  0  0  0  0  0  0  0
   -0.4447   -4.8313   -1.9534 H   0  0  0  0  0  0  0  0  0  0  0  0
    0.3409   -5.4287    0.3241 H   0  0  0  0  0  0  0  0  0  0  0  0
    0.8295   -3.5841    1.9184 H   0  0  0  0  0  0  0  0  0  0  0  0
    0.5614   -1.2170    1.3146 H   0  0  0  0  0  0  0  0  0  0  0  0
   -1.8775   -0.1662    1.7752 H   0  0  0  0  0  0  0  0  0  0  0  0
   -3.4870   -1.5514    2.9194 H   0  0  0  0  0  0  0  0  0  0  0  0
   -5.1764   -2.7607    1.6532 H   0  0  0  0  0  0  0  0  0  0  0  0
   -5.2378   -2.5713   -0.8304 H   0  0  0  0  0  0  0  0  0  0  0  0
   -3.6225   -1.1882   -1.9938 H   0  0  0  0  0  0  0  0  0  0  0  0
    0.0327    3.2226    1.9770 H   0  0  0  0  0  0  0  0  0  0  0  0
   -0.0497    4.1710    0.4159 H   0  0  0  0  0  0  0  0  0  0  0  0
   -0.4844    4.9064    1.9558 H   0  0  0  0  0  0  0  0  0  0  0  0
   -3.3386    5.0053    0.8131 H   0  0  0  0  0  0  0  0  0  0  0  0
   -3.8080    3.8302    2.0744 H   0  0  0  0  0  0  0  0  0  0  0  0
   -2.5840    5.1207    2.4285 H   0  0  0  0  0  0  0  0  0  0  0  0
  1  2  1  0
  2  3  1  0
  3  4  2  0
  4  5  1  0
  5  6  2  0
  6  7  1  0
  7  8  2  0
  6  9  1  0
  9 10  2  0
 10 11  1  0
 11 12  1  0
 12 13  1  0
 13 14  1  0
 14 15  2  0
 15 16  1  0
 16 17  2  0
 17 18  1  0
 18 19  2  0
 12 20  1  0
 20 21  2  0
 21 22  1  0
 22 23  2  0
 23 24  1  0
 24 25  2  0
 11 26  1  0
 26 27  2  0
 26 28  1  0
 28 29  1  0
 28 30  1  0
  8  3  1  0
 13  9  1  0
 19 14  1  0
 25 20  1  0
  1 31  1  0
  1 32  1  0
  1 33  1  0
  4 34  1  0
  5 35  1  0
  7 36  1  0
 12 37  1  0
 13 38  1  0
 15 39  1  0
 16 40  1  0
 17 41  1  0
 18 42  1  0
 19 43  1  0
 21 44  1  0
 22 45  1  0
 23 46  1  0
 24 47  1  0
 25 48  1  0
 29 49  1  0
 29 50  1  0
 29 51  1  0
 30 52  1  0
 30 53  1  0
 30 54  1  0
M  END
$$$$
[H]c1nc(C(=O)N([H])[H])c([H])c([H])c1-c1c([H])c([H])c2c(nc3n2C([H])([H])C([H])(N([H])C(=O)N([H])c2c([H])c([H])c([H])c([H])c2C([H])([H])[H])C([H])([H])C3([H])[H])c1[H]
     RDKit          3D

 57 61  0  0  0  0  0  0  0  0999 V2000
   -5.5178   -1.4674   -2.6384 C   0  0  0  0  0  0  0  0  0  0  0  0
   -6.4165   -0.4618   -2.0761 C   0  0  0  0  0  0  0  0  0  0  0  0
   -7.5433   -0.1301   -2.8016 C   0  0  0  0  0  0  0  0  0  0  0  0
   -8.4686    0.7790   -2.3736 C   0  0  0  0  0  0  0  0  0  0  0  0
   -8.2301    1.3796   -1.1453 C   0  0  0  0  0  0  0  0  0  0  0  0
   -7.0962    1.0484   -0.4142 C   0  0  0  0  0  0  0  0  0  0  0  0
   -6.1671    0.1405   -0.8395 C   0  0  0  0  0  0  0  0  0  0  0  0
   -4.9758   -0.1370   -0.1883 N   0  0  0  0  0  0  0  0  0  0  0  0
   -4.6406    0.0740    1.2048 C   0  0  0  0  0  0  0  0  0  0  0  0
   -5.5481    0.4920    1.9780 O   0  0  0  0  0  0  0  0  0  0  0  0
   -3.3416   -0.2087    1.6040 N   0  0  0  0  0  0  0  0  0  0  0  0
   -2.0562   -0.4884    1.9993 C   0  0  0  0  0  0  0  0  0  0  0  0
   -1.5715    0.3833    3.1769 C   0  0  0  0  0  0  0  0  0  0  0  0
   -0.8631    1.6016    2.7077 C   0  0  0  0  0  0  0  0  0  0  0  0
    0.3813    1.0861    2.0173 C   0  0  0  0  0  0  0  0  0  0  0  0
    1.6662    1.3927    2.0956 N   0  0  0  0  0  0  0  0  0  0  0  0
    2.3694    0.5826    1.2454 C   0  0  0  0  0  0  0  0  0  0  0  0
    3.7125    0.5199    0.9764 C   0  0  0  0  0  0  0  0  0  0  0  0
    4.1558   -0.4216    0.0453 C   0  0  0  0  0  0  0  0  0  0  0  0
    3.2332   -1.2306   -0.5547 C   0  0  0  0  0  0  0  0  0  0  0  0
    1.8940   -1.1411   -0.2641 C   0  0  0  0  0  0  0  0  0  0  0  0
    1.4132   -0.2157    0.6635 C   0  0  0  0  0  0  0  0  0  0  0  0
    0.1748    0.0816    1.1315 N   0  0  0  0  0  0  0  0  0  0  0  0
   -1.1123   -0.4609    0.8477 C   0  0  0  0  0  0  0  0  0  0  0  0
    5.5477   -0.5560   -0.2834 C   0  0  0  0  0  0  0  0  0  0  0  0
    6.1112   -1.7386   -0.6655 C   0  0  0  0  0  0  0  0  0  0  0  0
    7.4757   -1.8144   -0.9461 C   0  0  0  0  0  0  0  0  0  0  0  0
    8.2458   -0.6946   -0.8360 C   0  0  0  0  0  0  0  0  0  0  0  0
    7.6374    0.4570   -0.4531 N   0  0  0  0  0  0  0  0  0  0  0  0
    6.3411    0.5617   -0.1782 C   0  0  0  0  0  0  0  0  0  0  0  0
    9.7049   -0.6875   -1.0926 C   0  0  0  0  0  0  0  0  0  0  0  0
   10.3880    0.5312   -0.9718 N   0  0  0  0  0  0  0  0  0  0  0  0
   10.2939   -1.7283   -1.4006 O   0  0  0  0  0  0  0  0  0  0  0  0
   -5.1800   -1.0700   -3.6314 H   0  0  0  0  0  0  0  0  0  0  0  0
   -6.1923   -2.3361   -2.9512 H   0  0  0  0  0  0  0  0  0  0  0  0
   -4.7060   -1.8289   -2.0208 H   0  0  0  0  0  0  0  0  0  0  0  0
   -7.7420   -0.5977   -3.7765 H   0  0  0  0  0  0  0  0  0  0  0  0
   -9.3485    1.0361   -2.9416 H   0  0  0  0  0  0  0  0  0  0  0  0
   -8.8954    2.0863   -0.7573 H   0  0  0  0  0  0  0  0  0  0  0  0
   -6.9540    1.5643    0.5460 H   0  0  0  0  0  0  0  0  0  0  0  0
   -4.1643   -0.5690   -0.7394 H   0  0  0  0  0  0  0  0  0  0  0  0
   -3.7090    0.0895    2.8875 H   0  0  0  0  0  0  0  0  0  0  0  0
   -2.0882   -1.5371    2.4989 H   0  0  0  0  0  0  0  0  0  0  0  0
   -0.9005   -0.2423    3.8595 H   0  0  0  0  0  0  0  0  0  0  0  0
   -2.4609    0.5740    3.8112 H   0  0  0  0  0  0  0  0  0  0  0  0
   -0.5099    2.1861    3.6019 H   0  0  0  0  0  0  0  0  0  0  0  0
   -1.4931    2.2066    2.0523 H   0  0  0  0  0  0  0  0  0  0  0  0
    4.4222    1.1453    1.4458 H   0  0  0  0  0  0  0  0  0  0  0  0
    3.5691   -1.9819   -1.2921 H   0  0  0  0  0  0  0  0  0  0  0  0
    1.1728   -1.7770   -0.7542 H   0  0  0  0  0  0  0  0  0  0  0  0
   -1.0956   -1.4117    0.2606 H   0  0  0  0  0  0  0  0  0  0  0  0
   -1.5839    0.2732    0.1121 H   0  0  0  0  0  0  0  0  0  0  0  0
    5.5390   -2.6652   -0.7729 H   0  0  0  0  0  0  0  0  0  0  0  0
    7.9238   -2.7509   -1.2528 H   0  0  0  0  0  0  0  0  0  0  0  0
    5.9227    1.5048    0.1177 H   0  0  0  0  0  0  0  0  0  0  0  0
   11.0643    0.6838   -0.2136 H   0  0  0  0  0  0  0  0  0  0  0  0
   10.2121    1.2895   -1.6602 H   0  0  0  0  0  0  0  0  0  0  0  0
  1  2  1  0
  2  3  2  0
  3  4  1  0
  4  5  2  0
  5  6  1  0
  6  7  2  0
  7  8  1  0
  8  9  1  0
  9 10  2  0
  9 11  1  0
 11 12  1  0
 12 13  1  0
 13 14  1  0
 14 15  1  0
 15 16  2  0
 16 17  1  0
 17 18  2  0
 18 19  1  0
 19 20  2  0
 20 21  1  0
 21 22  2  0
 22 23  1  0
 23 24  1  0
 19 25  1  0
 25 26  2  0
 26 27  1  0
 27 28  2  0
 28 29  1  0
 29 30  2  0
 28 31  1  0
 31 32  1  0
 31 33  2  0
  7  2  1  0
 24 12  1  0
 30 25  1  0
 23 15  1  0
 22 17  1  0
  1 34  1  0
  1 35  1  0
  1 36  1  0
  3 37  1  0
  4 38  1  0
  5 39  1  0
  6 40  1  0
  8 41  1  0
 11 42  1  0
 12 43  1  0
 13 44  1  0
 13 45  1  0
 14 46  1  0
 14 47  1  0
 18 48  1  0
 20 49  1  0
 21 50  1  0
 24 51  1  0
 24 52  1  0
 26 53  1  0
 27 54  1  0
 30 55  1  0
 32 56  1  0
 32 57  1  0
M  END
$$$$
