[H]c1nc(-c2nnn(C([H])([H])[H])c2[H])c([H])c([H])c1C([H])([H])C([H])([H])C([H])([H])C(=O)N([H])[H]
     RDKit          3D

 33 34  0  0  0  0  0  0  0  0999 V2000
    6.5981    1.5537    0.4354 C   0  0  0  0  0  0  0  0  0  0  0  0
    5.4786    0.6441    0.2382 N   0  0  0  0  0  0  0  0  0  0  0  0
    4.2055    1.0202   -0.0029 C   0  0  0  0  0  0  0  0  0  0  0  0
    3.4169   -0.1049   -0.1361 C   0  0  0  0  0  0  0  0  0  0  0  0
    4.2624   -1.1431    0.0334 N   0  0  0  0  0  0  0  0  0  0  0  0
    5.4857   -0.6701    0.2552 N   0  0  0  0  0  0  0  0  0  0  0  0
    1.9830   -0.1679   -0.4018 C   0  0  0  0  0  0  0  0  0  0  0  0
    1.3782   -1.3874   -0.4998 C   0  0  0  0  0  0  0  0  0  0  0  0
    0.0098   -1.4882   -0.7529 C   0  0  0  0  0  0  0  0  0  0  0  0
   -0.7131   -0.3230   -0.9011 C   0  0  0  0  0  0  0  0  0  0  0  0
   -2.1742   -0.3194   -1.1728 C   0  0  0  0  0  0  0  0  0  0  0  0
   -2.9091   -0.3014    0.1473 C   0  0  0  0  0  0  0  0  0  0  0  0
   -4.3924   -0.2966   -0.0138 C   0  0  0  0  0  0  0  0  0  0  0  0
   -5.0165   -0.2788    1.3199 C   0  0  0  0  0  0  0  0  0  0  0  0
   -6.4355   -0.2717    1.4084 N   0  0  0  0  0  0  0  0  0  0  0  0
   -4.3357   -0.2697    2.3773 O   0  0  0  0  0  0  0  0  0  0  0  0
   -0.0476    0.8822   -0.7918 C   0  0  0  0  0  0  0  0  0  0  0  0
    1.2807    0.9504   -0.5456 N   0  0  0  0  0  0  0  0  0  0  0  0
    7.1484    1.7638   -0.4818 H   0  0  0  0  0  0  0  0  0  0  0  0
    7.2875    1.0315    1.1469 H   0  0  0  0  0  0  0  0  0  0  0  0
    6.2521    2.4644    0.9777 H   0  0  0  0  0  0  0  0  0  0  0  0
    3.8338    2.0297   -0.0839 H   0  0  0  0  0  0  0  0  0  0  0  0
    1.9390   -2.3004   -0.3847 H   0  0  0  0  0  0  0  0  0  0  0  0
   -0.4773   -2.4494   -0.8321 H   0  0  0  0  0  0  0  0  0  0  0  0
   -2.4589   -1.1863   -1.7870 H   0  0  0  0  0  0  0  0  0  0  0  0
   -2.4895    0.5845   -1.7326 H   0  0  0  0  0  0  0  0  0  0  0  0
   -2.6093    0.6533    0.6576 H   0  0  0  0  0  0  0  0  0  0  0  0
   -2.5499   -1.1791    0.7342 H   0  0  0  0  0  0  0  0  0  0  0  0
   -4.6997   -1.2403   -0.5412 H   0  0  0  0  0  0  0  0  0  0  0  0
   -4.6776    0.5525   -0.6552 H   0  0  0  0  0  0  0  0  0  0  0  0
   -7.0393   -0.1526    0.5662 H   0  0  0  0  0  0  0  0  0  0  0  0
   -6.9147   -0.3868    2.3279 H   0  0  0  0  0  0  0  0  0  0  0  0
   -0.6193    1.7866   -0.9087 H   0  0  0  0  0  0  0  0  0  0  0  0
  1  2  1  0
  2  3  1  0
  3  4  2  0
  4  5  1  0
  5  6  2  0
  4  7  1  0
  7  8  2  0
  8  9  1  0
  9 10  2  0
 10 11  1  0
 11 12  1  0
 12 13  1  0
 13 14  1  0
 14 15  1  0
 14 16  2  0
 10 17  1  0
 17 18  2  0
  6  2  1  0
 18  7  1  0
  1 19  1  0
  1 20  1  0
  1 21  1  0
  3 22  1  0
  8 23  1  0
  9 24  1  0
 11 25  1  0
 11 26  1  0
 12 27  1  0
 12 28  1  0
 13 29  1  0
 13 30  1  0
 15 31  1  0
 15 32  1  0
 17 33  1  0
M  END
$$$$
[H]c1nc([H])c(C(=O)N([H])c2c([H])c([H])c(Br)c([H])c2C(=O)N([H])c2c([H])c([H])c([H])c([H])c2[H])c([H])c1[H]
     RDKit          3D

 39 41  0  0  0  0  0  0  0  0999 V2000
   -3.7832   -1.1415    0.9650 O   0  0  0  0  0  0  0  0  0  0  0  0
   -3.0921   -0.2975    0.3610 C   0  0  0  0  0  0  0  0  0  0  0  0
   -1.8046   -0.5775   -0.1044 N   0  0  0  0  0  0  0  0  0  0  0  0
   -1.1537   -1.8125    0.0320 C   0  0  0  0  0  0  0  0  0  0  0  0
   -1.9345   -2.9771    0.0843 C   0  0  0  0  0  0  0  0  0  0  0  0
   -1.3148   -4.2058    0.0861 C   0  0  0  0  0  0  0  0  0  0  0  0
    0.0420   -4.3306    0.0373 C   0  0  0  0  0  0  0  0  0  0  0  0
    0.8262   -6.0600    0.0414 Br  0  0  0  0  0  0  0  0  0  0  0  0
    0.7905   -3.1598   -0.0134 C   0  0  0  0  0  0  0  0  0  0  0  0
    0.2272   -1.8988   -0.0158 C   0  0  0  0  0  0  0  0  0  0  0  0
    1.0496   -0.6978    0.0267 C   0  0  0  0  0  0  0  0  0  0  0  0
    0.6012    0.4498    0.1648 O   0  0  0  0  0  0  0  0  0  0  0  0
    2.4837   -0.8420   -0.1005 N   0  0  0  0  0  0  0  0  0  0  0  0
    3.3795    0.2581   -0.0829 C   0  0  0  0  0  0  0  0  0  0  0  0
    3.0805    1.5287   -0.4810 C   0  0  0  0  0  0  0  0  0  0  0  0
    4.0547    2.5213   -0.3721 C   0  0  0  0  0  0  0  0  0  0  0  0
    5.3085    2.2550    0.1244 C   0  0  0  0  0  0  0  0  0  0  0  0
    5.5991    0.9675    0.5224 C   0  0  0  0  0  0  0  0  0  0  0  0
    4.6586   -0.0187    0.4242 C   0  0  0  0  0  0  0  0  0  0  0  0
   -3.6636    1.0491    0.1308 C   0  0  0  0  0  0  0  0  0  0  0  0
   -2.8678    2.1279   -0.1292 C   0  0  0  0  0  0  0  0  0  0  0  0
   -3.4624    3.3757   -0.3472 C   0  0  0  0  0  0  0  0  0  0  0  0
   -4.8280    3.5177   -0.3010 C   0  0  0  0  0  0  0  0  0  0  0  0
   -5.5582    2.4283   -0.0422 N   0  0  0  0  0  0  0  0  0  0  0  0
   -5.0316    1.2170    0.1721 C   0  0  0  0  0  0  0  0  0  0  0  0
   -1.3428    0.2111   -0.6404 H   0  0  0  0  0  0  0  0  0  0  0  0
   -3.0262   -2.9564    0.0987 H   0  0  0  0  0  0  0  0  0  0  0  0
   -1.9349   -5.0897    0.1278 H   0  0  0  0  0  0  0  0  0  0  0  0
    1.8409   -3.2703   -0.0493 H   0  0  0  0  0  0  0  0  0  0  0  0
    2.9281   -1.7764   -0.2232 H   0  0  0  0  0  0  0  0  0  0  0  0
    2.1282    1.7648   -0.8866 H   0  0  0  0  0  0  0  0  0  0  0  0
    3.7794    3.5247   -0.6992 H   0  0  0  0  0  0  0  0  0  0  0  0
    6.0698    3.0141    0.2134 H   0  0  0  0  0  0  0  0  0  0  0  0
    6.6099    0.7829    0.9154 H   0  0  0  0  0  0  0  0  0  0  0  0
    4.9236   -1.0364    0.7512 H   0  0  0  0  0  0  0  0  0  0  0  0
   -1.7673    2.0687   -0.1710 H   0  0  0  0  0  0  0  0  0  0  0  0
   -2.8129    4.2173   -0.5518 H   0  0  0  0  0  0  0  0  0  0  0  0
   -5.3133    4.4935   -0.4704 H   0  0  0  0  0  0  0  0  0  0  0  0
   -5.6895    0.3758    0.3771 H   0  0  0  0  0  0  0  0  0  0  0  0
  1  2  2  0
  2  3  1  0
  3  4  1  0
  4  5  2  0
  5  6  1  0
  6  7  2  0
  7  8  1  0
  7  9  1  0
  9 10  2  0
 10 11  1  0
 11 12  2  0
 11 13  1  0
 13 14  1  0
 14 15  2  0
 15 16  1  0
 16 17  2  0
 17 18  1  0
 18 19  2  0
  2 20  1  0
 20 21  2  0
 21 22  1  0
 22 23  2  0
 23 24  1  0
 24 25  2  0
 10  4  1  0
 19 14  1  0
 25 20  1  0
  3 26  1  0
  5 27  1  0
  6 28  1  0
  9 29  1  0
 13 30  1  0
 15 31  1  0
 16 32  1  0
 17 33  1  0
 18 34  1  0
 19 35  1  0
 21 36  1  0
 22 37  1  0
 23 38  1  0
 25 39  1  0
M  END
$$$$
[H]OC([H])([H])C([H])([H])Oc1c([H])nc([H])c(N([H])c2nc([H])c(Cl)c(Sc3c([H])c([H])c(Cl)c([H])c3[H])n2)c1[H]
     RDKit          3D

 40 42  0  0  0  0  0  0  0  0999 V2000
    5.0319   -0.1575   -2.4935 O   0  0  0  0  0  0  0  0  0  0  0  0
    4.6978    0.8323   -1.5554 C   0  0  0  0  0  0  0  0  0  0  0  0
    5.4364    0.6462   -0.2646 C   0  0  0  0  0  0  0  0  0  0  0  0
    5.2380   -0.5251    0.4039 O   0  0  0  0  0  0  0  0  0  0  0  0
    4.2095   -1.1559    0.9899 C   0  0  0  0  0  0  0  0  0  0  0  0
    4.4384   -2.3957    1.5631 C   0  0  0  0  0  0  0  0  0  0  0  0
    3.4269   -3.0340    2.1506 N   0  0  0  0  0  0  0  0  0  0  0  0
    2.1937   -2.5136    2.2042 C   0  0  0  0  0  0  0  0  0  0  0  0
    1.8747   -1.2636    1.6490 C   0  0  0  0  0  0  0  0  0  0  0  0
    0.5630   -0.8032    1.7729 N   0  0  0  0  0  0  0  0  0  0  0  0
   -0.0938    0.2033    1.0237 C   0  0  0  0  0  0  0  0  0  0  0  0
    0.4566    0.8901    0.0339 N   0  0  0  0  0  0  0  0  0  0  0  0
   -0.1856    1.8527   -0.6758 C   0  0  0  0  0  0  0  0  0  0  0  0
   -1.4979    2.1634   -0.3753 C   0  0  0  0  0  0  0  0  0  0  0  0
   -2.3919    3.3901   -1.2439 Cl  0  0  0  0  0  0  0  0  0  0  0  0
   -2.0797    1.4582    0.6489 C   0  0  0  0  0  0  0  0  0  0  0  0
   -3.7802    1.8537    1.0466 S   0  0  0  0  0  0  0  0  0  0  0  0
   -4.8741    0.8278    0.0678 C   0  0  0  0  0  0  0  0  0  0  0  0
   -4.4084   -0.1044   -0.8358 C   0  0  0  0  0  0  0  0  0  0  0  0
   -5.2840   -0.8878   -1.5831 C   0  0  0  0  0  0  0  0  0  0  0  0
   -6.6508   -0.7623   -1.4493 C   0  0  0  0  0  0  0  0  0  0  0  0
   -7.7623   -1.7499   -2.3918 Cl  0  0  0  0  0  0  0  0  0  0  0  0
   -7.1098    0.1715   -0.5443 C   0  0  0  0  0  0  0  0  0  0  0  0
   -6.2440    0.9493    0.1978 C   0  0  0  0  0  0  0  0  0  0  0  0
   -1.3940    0.5205    1.3114 N   0  0  0  0  0  0  0  0  0  0  0  0
    2.9368   -0.6259    1.0498 C   0  0  0  0  0  0  0  0  0  0  0  0
    6.0149   -0.2975   -2.3830 H   0  0  0  0  0  0  0  0  0  0  0  0
    3.6163    0.7661   -1.4242 H   0  0  0  0  0  0  0  0  0  0  0  0
    4.9951    1.8313   -1.9784 H   0  0  0  0  0  0  0  0  0  0  0  0
    6.5466    0.7385   -0.5070 H   0  0  0  0  0  0  0  0  0  0  0  0
    5.2647    1.5352    0.3954 H   0  0  0  0  0  0  0  0  0  0  0  0
    5.4407   -2.8489    1.5346 H   0  0  0  0  0  0  0  0  0  0  0  0
    1.4311   -3.0973    2.6981 H   0  0  0  0  0  0  0  0  0  0  0  0
   -0.0095   -1.2918    2.5589 H   0  0  0  0  0  0  0  0  0  0  0  0
    0.2911    2.3934   -1.4758 H   0  0  0  0  0  0  0  0  0  0  0  0
   -3.3320   -0.1994   -0.9375 H   0  0  0  0  0  0  0  0  0  0  0  0
   -4.8979   -1.6075   -2.2811 H   0  0  0  0  0  0  0  0  0  0  0  0
   -8.1921    0.2597   -0.4491 H   0  0  0  0  0  0  0  0  0  0  0  0
   -6.6356    1.6825    0.9087 H   0  0  0  0  0  0  0  0  0  0  0  0
    2.7195    0.3552    0.6398 H   0  0  0  0  0  0  0  0  0  0  0  0
  1  2  1  0
  2  3  1  0
  3  4  1  0
  4  5  1  0
  5  6  2  0
  6  7  1  0
  7  8  2  0
  8  9  1  0
  9 10  1  0
 10 11  1  0
 11 12  2  0
 12 13  1  0
 13 14  2  0
 14 15  1  0
 14 16  1  0
 16 17  1  0
 17 18  1  0
 18 19  2  0
 19 20  1  0
 20 21  2  0
 21 22  1  0
 21 23  1  0
 23 24  2  0
 16 25  2  0
  9 26  2  0
 26  5  1  0
 25 11  1  0
 24 18  1  0
  1 27  1  0
  2 28  1  0
  2 29  1  0
  3 30  1  0
  3 31  1  0
  6 32  1  0
  8 33  1  0
 10 34  1  0
 13 35  1  0
 19 36  1  0
 20 37  1  0
 23 38  1  0
 24 39  1  0
 26 40  1  0
M  END
$$$$
[H]c1c(N([H])[H])c([H])c(C([H])([H])C(=O)n2c3c([H])c(=O)n(C([H])([H])[H])c-3c([H])c([H])c(C(F)(F)F)c2=O)c([H])c1C([H])([H])[H]
     RDKit          3D

 44 46  0  0  0  0  0  0  0  0999 V2000
   -5.0439   -2.3890    0.5964 C   0  0  0  0  0  0  0  0  0  0  0  0
   -3.7790   -1.9069    0.0549 N   0  0  0  0  0  0  0  0  0  0  0  0
   -3.3382   -0.6671    0.2473 C   0  0  0  0  0  0  0  0  0  0  0  0
   -3.9777    0.3706    0.9434 C   0  0  0  0  0  0  0  0  0  0  0  0
   -3.7582    1.7157    0.7080 C   0  0  0  0  0  0  0  0  0  0  0  0
   -2.7985    2.3102   -0.1209 C   0  0  0  0  0  0  0  0  0  0  0  0
   -1.6373    1.7393   -0.6331 C   0  0  0  0  0  0  0  0  0  0  0  0
   -0.9075    2.5354   -1.2492 O   0  0  0  0  0  0  0  0  0  0  0  0
   -1.1983    0.4309   -0.5469 N   0  0  0  0  0  0  0  0  0  0  0  0
    0.1853    0.2303   -0.5568 C   0  0  0  0  0  0  0  0  0  0  0  0
    0.8609    1.3419   -0.7029 O   0  0  0  0  0  0  0  0  0  0  0  0
    1.0012   -0.9736   -0.4252 C   0  0  0  0  0  0  0  0  0  0  0  0
    2.4615   -0.6057   -0.2302 C   0  0  0  0  0  0  0  0  0  0  0  0
    2.9243   -0.4196    1.0482 C   0  0  0  0  0  0  0  0  0  0  0  0
    4.2576   -0.0792    1.2776 C   0  0  0  0  0  0  0  0  0  0  0  0
    4.7541    0.1233    2.6638 C   0  0  0  0  0  0  0  0  0  0  0  0
    5.1413    0.0785    0.2353 C   0  0  0  0  0  0  0  0  0  0  0  0
    4.6726   -0.1091   -1.0450 C   0  0  0  0  0  0  0  0  0  0  0  0
    5.5734    0.0505   -2.1232 N   0  0  0  0  0  0  0  0  0  0  0  0
    3.3421   -0.4483   -1.2661 C   0  0  0  0  0  0  0  0  0  0  0  0
   -2.0579   -0.5950   -0.4426 C   0  0  0  0  0  0  0  0  0  0  0  0
   -1.8134   -1.8103   -1.0133 C   0  0  0  0  0  0  0  0  0  0  0  0
   -2.9041   -2.6081   -0.6846 C   0  0  0  0  0  0  0  0  0  0  0  0
   -2.9940   -3.8041   -1.0587 O   0  0  0  0  0  0  0  0  0  0  0  0
   -3.0509    3.7253   -0.4914 C   0  0  0  0  0  0  0  0  0  0  0  0
   -4.2266    4.1313    0.0896 F   0  0  0  0  0  0  0  0  0  0  0  0
   -2.0375    4.4643    0.1361 F   0  0  0  0  0  0  0  0  0  0  0  0
   -3.0174    3.9245   -1.8541 F   0  0  0  0  0  0  0  0  0  0  0  0
   -5.2873   -3.3412    0.0901 H   0  0  0  0  0  0  0  0  0  0  0  0
   -4.8529   -2.6097    1.6730 H   0  0  0  0  0  0  0  0  0  0  0  0
   -5.8574   -1.6669    0.4433 H   0  0  0  0  0  0  0  0  0  0  0  0
   -4.6600    0.0312    1.6769 H   0  0  0  0  0  0  0  0  0  0  0  0
   -4.4264    2.3707    1.2436 H   0  0  0  0  0  0  0  0  0  0  0  0
    1.0458   -1.6039   -1.3728 H   0  0  0  0  0  0  0  0  0  0  0  0
    0.6160   -1.6111    0.3674 H   0  0  0  0  0  0  0  0  0  0  0  0
    2.2448   -0.5386    1.8860 H   0  0  0  0  0  0  0  0  0  0  0  0
    5.6659    0.7355    2.6874 H   0  0  0  0  0  0  0  0  0  0  0  0
    3.9116    0.6357    3.2119 H   0  0  0  0  0  0  0  0  0  0  0  0
    4.9306   -0.8996    3.0889 H   0  0  0  0  0  0  0  0  0  0  0  0
    6.1962    0.3479    0.4193 H   0  0  0  0  0  0  0  0  0  0  0  0
    5.8483   -0.8418   -2.6273 H   0  0  0  0  0  0  0  0  0  0  0  0
    5.9754    0.9391   -2.4519 H   0  0  0  0  0  0  0  0  0  0  0  0
    2.9889   -0.5924   -2.2767 H   0  0  0  0  0  0  0  0  0  0  0  0
   -0.9733   -2.1108   -1.6155 H   0  0  0  0  0  0  0  0  0  0  0  0
  1  2  1  0
  2  3  1  0
  3  4  2  0
  4  5  1  0
  5  6  2  0
  6  7  1  0
  7  8  2  0
  7  9  1  0
  9 10  1  0
 10 11  2  0
 10 12  1  0
 12 13  1  0
 13 14  2  0
 14 15  1  0
 15 16  1  0
 15 17  2  0
 17 18  1  0
 18 19  1  0
 18 20  2  0
  9 21  1  0
 21 22  2  0
 22 23  1  0
 23 24  2  0
  6 25  1  0
 25 26  1  0
 25 27  1  0
 25 28  1  0
 23  2  1  0
 21  3  1  0
 20 13  1  0
  1 29  1  0
  1 30  1  0
  1 31  1  0
  4 32  1  0
  5 33  1  0
 12 34  1  0
 12 35  1  0
 14 36  1  0
 16 37  1  0
 16 38  1  0
 16 39  1  0
 17 40  1  0
 19 41  1  0
 19 42  1  0
 20 43  1  0
 22 44  1  0
M  END
$$$$
[H]c1c([H])c(F)c([H])c(Oc2c([H])c(C3(N(C(=O)C4([H])C([H])([H])C([H])([H])C([H])([H])C4([H])[H])C([H])([H])[H])C([H])([H])C([H])([H])C([H])([H])C3([H])[H])c([H])c([H])c2OC([H])([H])C([H])([H])[H])c1[H]
     RDKit          3D

 63 66  0  0  0  0  0  0  0  0999 V2000
   -3.6640   -1.8041    3.3876 C   0  0  0  0  0  0  0  0  0  0  0  0
   -4.3605   -2.2219    2.1230 C   0  0  0  0  0  0  0  0  0  0  0  0
   -4.0372   -1.4486    1.0097 O   0  0  0  0  0  0  0  0  0  0  0  0
   -2.8003   -1.2837    0.4350 C   0  0  0  0  0  0  0  0  0  0  0  0
   -1.6693   -1.9098    0.9148 C   0  0  0  0  0  0  0  0  0  0  0  0
   -0.4320   -1.7104    0.2968 C   0  0  0  0  0  0  0  0  0  0  0  0
   -0.3015   -0.8809   -0.8146 C   0  0  0  0  0  0  0  0  0  0  0  0
   -1.4160   -0.2648   -1.2866 C   0  0  0  0  0  0  0  0  0  0  0  0
   -2.6592   -0.4637   -0.6661 C   0  0  0  0  0  0  0  0  0  0  0  0
   -3.7037    0.2388   -1.2653 O   0  0  0  0  0  0  0  0  0  0  0  0
   -4.4735    1.1922   -0.6438 C   0  0  0  0  0  0  0  0  0  0  0  0
   -3.9658    2.4680   -0.5437 C   0  0  0  0  0  0  0  0  0  0  0  0
   -4.6521    3.5133    0.0612 C   0  0  0  0  0  0  0  0  0  0  0  0
   -5.8966    3.2134    0.5716 C   0  0  0  0  0  0  0  0  0  0  0  0
   -6.4413    1.9653    0.4964 C   0  0  0  0  0  0  0  0  0  0  0  0
   -7.6632    1.7575    1.0195 F   0  0  0  0  0  0  0  0  0  0  0  0
   -5.7138    0.9412   -0.1226 C   0  0  0  0  0  0  0  0  0  0  0  0
    1.0435   -0.7204   -1.3978 C   0  0  0  0  0  0  0  0  0  0  0  0
    1.6883   -2.0953   -1.3595 C   0  0  0  0  0  0  0  0  0  0  0  0
    2.0692   -2.4686   -2.7514 C   0  0  0  0  0  0  0  0  0  0  0  0
    1.6247   -1.3996   -3.6762 C   0  0  0  0  0  0  0  0  0  0  0  0
    1.1283   -0.2966   -2.8055 C   0  0  0  0  0  0  0  0  0  0  0  0
    1.8451    0.1472   -0.5142 N   0  0  0  0  0  0  0  0  0  0  0  0
    1.1908    0.7967    0.6092 C   0  0  0  0  0  0  0  0  0  0  0  0
    3.2299    0.3775   -0.7318 C   0  0  0  0  0  0  0  0  0  0  0  0
    3.8168   -0.1625   -1.7083 O   0  0  0  0  0  0  0  0  0  0  0  0
    4.0112    1.2432    0.1672 C   0  0  0  0  0  0  0  0  0  0  0  0
    4.0999    0.6174    1.5161 C   0  0  0  0  0  0  0  0  0  0  0  0
    5.5016    0.9107    2.0194 C   0  0  0  0  0  0  0  0  0  0  0  0
    6.1724    1.7246    0.9134 C   0  0  0  0  0  0  0  0  0  0  0  0
    5.4470    1.2924   -0.3429 C   0  0  0  0  0  0  0  0  0  0  0  0
   -3.1670   -2.7194    3.8192 H   0  0  0  0  0  0  0  0  0  0  0  0
   -2.9072   -1.0076    3.2161 H   0  0  0  0  0  0  0  0  0  0  0  0
   -4.4031   -1.4149    4.0993 H   0  0  0  0  0  0  0  0  0  0  0  0
   -4.2225   -3.3210    1.9199 H   0  0  0  0  0  0  0  0  0  0  0  0
   -5.4714   -2.1279    2.2937 H   0  0  0  0  0  0  0  0  0  0  0  0
   -1.7463   -2.5709    1.7848 H   0  0  0  0  0  0  0  0  0  0  0  0
    0.3805   -2.2382    0.7599 H   0  0  0  0  0  0  0  0  0  0  0  0
   -1.3541    0.3795   -2.1303 H   0  0  0  0  0  0  0  0  0  0  0  0
   -2.9903    2.6594   -0.9540 H   0  0  0  0  0  0  0  0  0  0  0  0
   -4.2241    4.5224    0.1281 H   0  0  0  0  0  0  0  0  0  0  0  0
   -6.4352    4.0327    1.0464 H   0  0  0  0  0  0  0  0  0  0  0  0
   -6.1673   -0.0188   -0.1742 H   0  0  0  0  0  0  0  0  0  0  0  0
    2.6090   -2.1110   -0.7399 H   0  0  0  0  0  0  0  0  0  0  0  0
    0.9733   -2.8949   -1.0124 H   0  0  0  0  0  0  0  0  0  0  0  0
    3.1519   -2.7193   -2.8426 H   0  0  0  0  0  0  0  0  0  0  0  0
    1.5591   -3.4198   -3.1003 H   0  0  0  0  0  0  0  0  0  0  0  0
    0.8721   -1.7380   -4.4251 H   0  0  0  0  0  0  0  0  0  0  0  0
    2.5182   -1.1027   -4.2933 H   0  0  0  0  0  0  0  0  0  0  0  0
    0.1974    0.0775   -3.2779 H   0  0  0  0  0  0  0  0  0  0  0  0
    1.8499    0.5712   -2.9594 H   0  0  0  0  0  0  0  0  0  0  0  0
    1.2389    0.2225    1.5456 H   0  0  0  0  0  0  0  0  0  0  0  0
    1.6864    1.7822    0.8104 H   0  0  0  0  0  0  0  0  0  0  0  0
    0.1304    1.0989    0.3632 H   0  0  0  0  0  0  0  0  0  0  0  0
    3.5676    2.2640    0.1861 H   0  0  0  0  0  0  0  0  0  0  0  0
    3.9757   -0.4947    1.4257 H   0  0  0  0  0  0  0  0  0  0  0  0
    3.3682    0.9713    2.2610 H   0  0  0  0  0  0  0  0  0  0  0  0
    6.0508   -0.0266    2.2055 H   0  0  0  0  0  0  0  0  0  0  0  0
    5.4690    1.4672    2.9778 H   0  0  0  0  0  0  0  0  0  0  0  0
    5.9011    2.7807    1.1183 H   0  0  0  0  0  0  0  0  0  0  0  0
    7.2499    1.5683    0.8807 H   0  0  0  0  0  0  0  0  0  0  0  0
    5.5872    1.9743   -1.1838 H   0  0  0  0  0  0  0  0  0  0  0  0
    5.7332    0.2854   -0.6598 H   0  0  0  0  0  0  0  0  0  0  0  0
  1  2  1  0
  2  3  1  0
  3  4  1  0
  4  5  2  0
  5  6  1  0
  6  7  2  0
  7  8  1  0
  8  9  2  0
  9 10  1  0
 10 11  1  0
 11 12  2  0
 12 13  1  0
 13 14  2  0
 14 15  1  0
 15 16  1  0
 15 17  2  0
  7 18  1  0
 18 19  1  0
 19 20  1  0
 20 21  1  0
 21 22  1  0
 18 23  1  0
 23 24  1  0
 23 25  1  0
 25 26  2  0
 25 27  1  0
 27 28  1  0
 28 29  1  0
 29 30  1  0
 30 31  1  0
  9  4  1  0
 17 11  1  0
 22 18  1  0
 31 27  1  0
  1 32  1  0
  1 33  1  0
  1 34  1  0
  2 35  1  0
  2 36  1  0
  5 37  1  0
  6 38  1  0
  8 39  1  0
 12 40  1  0
 13 41  1  0
 14 42  1  0
 17 43  1  0
 19 44  1  0
 19 45  1  0
 20 46  1  0
 20 47  1  0
 21 48  1  0
 21 49  1  0
 22 50  1  0
 22 51  1  0
 24 52  1  0
 24 53  1  0
 24 54  1  0
 27 55  1  0
 28 56  1  0
 28 57  1  0
 29 58  1  0
 29 59  1  0
 30 60  1  0
 30 61  1  0
 31 62  1  0
 31 63  1  0
M  END
$$$$
[H]c1c([H])c(C(=O)N2C([H])([H])C([H])([H])C([H])(c3c([H])c([H])c4c(c3[H])OC([H])([H])O4)C2([H])[H])c([H])c(OC([H])([H])[H])c1OC([H])([H])[H]
     RDKit          3D

 47 50  0  0  0  0  0  0  0  0999 V2000
   -6.7043    2.5420   -0.7200 C   0  0  0  0  0  0  0  0  0  0  0  0
   -6.4354    1.2017   -0.4192 O   0  0  0  0  0  0  0  0  0  0  0  0
   -5.1314    0.7341   -0.2050 C   0  0  0  0  0  0  0  0  0  0  0  0
   -4.1141    1.6526   -0.3022 C   0  0  0  0  0  0  0  0  0  0  0  0
   -2.7981    1.2038   -0.0909 C   0  0  0  0  0  0  0  0  0  0  0  0
   -2.4820   -0.0928    0.2047 C   0  0  0  0  0  0  0  0  0  0  0  0
   -3.5767   -0.9673    0.2860 C   0  0  0  0  0  0  0  0  0  0  0  0
   -4.8756   -0.5795    0.0887 C   0  0  0  0  0  0  0  0  0  0  0  0
   -5.9274   -1.4674    0.1767 O   0  0  0  0  0  0  0  0  0  0  0  0
   -5.6967   -2.8319    0.4786 C   0  0  0  0  0  0  0  0  0  0  0  0
   -1.1616   -0.5768    0.4196 C   0  0  0  0  0  0  0  0  0  0  0  0
   -1.1130   -1.8561    0.7055 O   0  0  0  0  0  0  0  0  0  0  0  0
    0.0902    0.0264    0.3894 N   0  0  0  0  0  0  0  0  0  0  0  0
    0.6677    1.3169    0.1483 C   0  0  0  0  0  0  0  0  0  0  0  0
    1.6489    0.9528   -0.9945 C   0  0  0  0  0  0  0  0  0  0  0  0
    2.0801   -0.4690   -0.6140 C   0  0  0  0  0  0  0  0  0  0  0  0
    1.3579   -0.7595    0.6789 C   0  0  0  0  0  0  0  0  0  0  0  0
    3.5455   -0.4642   -0.4794 C   0  0  0  0  0  0  0  0  0  0  0  0
    4.2754   -1.3321   -1.2657 C   0  0  0  0  0  0  0  0  0  0  0  0
    5.6483   -1.4065   -1.2167 C   0  0  0  0  0  0  0  0  0  0  0  0
    6.3454   -0.5775   -0.3420 C   0  0  0  0  0  0  0  0  0  0  0  0
    7.6885   -0.3932   -0.0421 O   0  0  0  0  0  0  0  0  0  0  0  0
    7.6996    0.2121    1.2467 C   0  0  0  0  0  0  0  0  0  0  0  0
    6.5353    0.9990    1.2208 O   0  0  0  0  0  0  0  0  0  0  0  0
    5.6094    0.2958    0.4490 C   0  0  0  0  0  0  0  0  0  0  0  0
    4.2329    0.3528    0.3828 C   0  0  0  0  0  0  0  0  0  0  0  0
   -6.4992    3.1570    0.1892 H   0  0  0  0  0  0  0  0  0  0  0  0
   -6.0651    2.9190   -1.5709 H   0  0  0  0  0  0  0  0  0  0  0  0
   -7.7433    2.7135   -1.0421 H   0  0  0  0  0  0  0  0  0  0  0  0
   -4.3239    2.6968   -0.5361 H   0  0  0  0  0  0  0  0  0  0  0  0
   -2.0742    1.9903   -0.1848 H   0  0  0  0  0  0  0  0  0  0  0  0
   -3.4282   -2.0293    0.5181 H   0  0  0  0  0  0  0  0  0  0  0  0
   -5.0272   -3.2163   -0.3400 H   0  0  0  0  0  0  0  0  0  0  0  0
   -5.2324   -2.9251    1.4648 H   0  0  0  0  0  0  0  0  0  0  0  0
   -6.6023   -3.4363    0.4407 H   0  0  0  0  0  0  0  0  0  0  0  0
    0.0499    2.1412   -0.1197 H   0  0  0  0  0  0  0  0  0  0  0  0
    1.3487    1.5304    1.0185 H   0  0  0  0  0  0  0  0  0  0  0  0
    1.1003    0.9515   -1.9415 H   0  0  0  0  0  0  0  0  0  0  0  0
    2.4793    1.6580   -0.9369 H   0  0  0  0  0  0  0  0  0  0  0  0
    1.7389   -1.1958   -1.3536 H   0  0  0  0  0  0  0  0  0  0  0  0
    1.1216   -1.8070    0.8439 H   0  0  0  0  0  0  0  0  0  0  0  0
    1.7806   -0.2224    1.5509 H   0  0  0  0  0  0  0  0  0  0  0  0
    3.7694   -1.9937   -1.9593 H   0  0  0  0  0  0  0  0  0  0  0  0
    6.2313   -2.0805   -1.8259 H   0  0  0  0  0  0  0  0  0  0  0  0
    8.5707    0.9040    1.2542 H   0  0  0  0  0  0  0  0  0  0  0  0
    7.6999   -0.5178    2.0569 H   0  0  0  0  0  0  0  0  0  0  0  0
    3.6964    1.0464    1.0153 H   0  0  0  0  0  0  0  0  0  0  0  0
  1  2  1  0
  2  3  1  0
  3  4  2  0
  4  5  1  0
  5  6  2  0
  6  7  1  0
  7  8  2  0
  8  9  1  0
  9 10  1  0
  6 11  1  0
 11 12  2  0
 11 13  1  0
 13 14  1  0
 14 15  1  0
 15 16  1  0
 16 17  1  0
 16 18  1  0
 18 19  2  0
 19 20  1  0
 20 21  2  0
 21 22  1  0
 22 23  1  0
 23 24  1  0
 24 25  1  0
 25 26  2  0
  8  3  1  0
 17 13  1  0
 26 18  1  0
 25 21  1  0
  1 27  1  0
  1 28  1  0
  1 29  1  0
  4 30  1  0
  5 31  1  0
  7 32  1  0
 10 33  1  0
 10 34  1  0
 10 35  1  0
 14 36  1  0
 14 37  1  0
 15 38  1  0
 15 39  1  0
 16 40  1  0
 17 41  1  0
 17 42  1  0
 19 43  1  0
 20 44  1  0
 23 45  1  0
 23 46  1  0
 26 47  1  0
M  END
$$$$
[H]c1c([H])c(Br)c([H])c(N([H])C(=O)C([H])([H])N2C([H])([H])C([H])([H])C([H])(N([H])C(=O)C([H])([H])C3([H])C([H])([H])C([H])([H])C([H])([H])C([H])([H])C3([H])[H])C([H])([H])C2([H])[H])c1[H]
     RDKit          3D

 57 59  0  0  0  0  0  0  0  0999 V2000
   10.8626    1.1697    0.4712 Br  0  0  0  0  0  0  0  0  0  0  0  0
    9.2609    0.1951    0.1663 C   0  0  0  0  0  0  0  0  0  0  0  0
    9.2733   -0.9929   -0.5281 C   0  0  0  0  0  0  0  0  0  0  0  0
    8.1000   -1.6847   -0.7377 C   0  0  0  0  0  0  0  0  0  0  0  0
    6.8833   -1.1760   -0.2409 C   0  0  0  0  0  0  0  0  0  0  0  0
    6.8448   -0.0098    0.4440 C   0  0  0  0  0  0  0  0  0  0  0  0
    5.6917    0.5831    0.9511 N   0  0  0  0  0  0  0  0  0  0  0  0
    4.3926    0.3059    0.4632 C   0  0  0  0  0  0  0  0  0  0  0  0
    4.2193   -0.4880   -0.4642 O   0  0  0  0  0  0  0  0  0  0  0  0
    3.2029    0.9885    1.0838 C   0  0  0  0  0  0  0  0  0  0  0  0
    2.0152    0.5533    0.4712 N   0  0  0  0  0  0  0  0  0  0  0  0
    1.5727   -0.7609    0.7169 C   0  0  0  0  0  0  0  0  0  0  0  0
    0.2780   -1.1371    0.0539 C   0  0  0  0  0  0  0  0  0  0  0  0
   -0.5193    0.0861   -0.3623 C   0  0  0  0  0  0  0  0  0  0  0  0
    0.3249    0.9389   -1.2906 C   0  0  0  0  0  0  0  0  0  0  0  0
    1.7080    1.1446   -0.7842 C   0  0  0  0  0  0  0  0  0  0  0  0
   -1.6943   -0.4180   -1.0201 N   0  0  0  0  0  0  0  0  0  0  0  0
   -2.9698   -0.0647   -0.5066 C   0  0  0  0  0  0  0  0  0  0  0  0
   -3.0053    0.6786    0.5071 O   0  0  0  0  0  0  0  0  0  0  0  0
   -4.2191   -0.5799   -1.1774 C   0  0  0  0  0  0  0  0  0  0  0  0
   -5.3869   -0.1427   -0.3820 C   0  0  0  0  0  0  0  0  0  0  0  0
   -5.4584   -0.6349    1.0304 C   0  0  0  0  0  0  0  0  0  0  0  0
   -6.3173    0.3882    1.7912 C   0  0  0  0  0  0  0  0  0  0  0  0
   -7.2059    1.1646    0.8595 C   0  0  0  0  0  0  0  0  0  0  0  0
   -7.7540    0.3705   -0.2846 C   0  0  0  0  0  0  0  0  0  0  0  0
   -6.7156   -0.4246   -1.0381 C   0  0  0  0  0  0  0  0  0  0  0  0
    8.0551    0.6570    0.6337 C   0  0  0  0  0  0  0  0  0  0  0  0
   10.2285   -1.3694   -0.9047 H   0  0  0  0  0  0  0  0  0  0  0  0
    8.1413   -2.6133   -1.2848 H   0  0  0  0  0  0  0  0  0  0  0  0
    6.0442   -1.8049   -0.4473 H   0  0  0  0  0  0  0  0  0  0  0  0
    5.7703    1.2962    1.7651 H   0  0  0  0  0  0  0  0  0  0  0  0
    3.3260    2.0809    1.0878 H   0  0  0  0  0  0  0  0  0  0  0  0
    3.2003    0.6142    2.1501 H   0  0  0  0  0  0  0  0  0  0  0  0
    1.4109   -0.8978    1.8392 H   0  0  0  0  0  0  0  0  0  0  0  0
    2.3128   -1.5226    0.4170 H   0  0  0  0  0  0  0  0  0  0  0  0
    0.5156   -1.6651   -0.9003 H   0  0  0  0  0  0  0  0  0  0  0  0
   -0.3348   -1.7521    0.7251 H   0  0  0  0  0  0  0  0  0  0  0  0
   -0.7876    0.7138    0.5177 H   0  0  0  0  0  0  0  0  0  0  0  0
   -0.2039    1.8783   -1.5522 H   0  0  0  0  0  0  0  0  0  0  0  0
    0.3740    0.3624   -2.2425 H   0  0  0  0  0  0  0  0  0  0  0  0
    2.4344    0.8096   -1.5448 H   0  0  0  0  0  0  0  0  0  0  0  0
    1.8374    2.2563   -0.6579 H   0  0  0  0  0  0  0  0  0  0  0  0
   -1.5858   -1.0243   -1.8500 H   0  0  0  0  0  0  0  0  0  0  0  0
   -4.3072   -0.2149   -2.1993 H   0  0  0  0  0  0  0  0  0  0  0  0
   -4.1315   -1.6914   -1.1093 H   0  0  0  0  0  0  0  0  0  0  0  0
   -5.3162    0.9802   -0.3064 H   0  0  0  0  0  0  0  0  0  0  0  0
   -4.5158   -0.8549    1.5197 H   0  0  0  0  0  0  0  0  0  0  0  0
   -6.1319   -1.5475    0.9960 H   0  0  0  0  0  0  0  0  0  0  0  0
   -5.6050    1.0650    2.2953 H   0  0  0  0  0  0  0  0  0  0  0  0
   -6.8946   -0.1220    2.5902 H   0  0  0  0  0  0  0  0  0  0  0  0
   -8.0995    1.4716    1.4801 H   0  0  0  0  0  0  0  0  0  0  0  0
   -6.7631    2.1346    0.5381 H   0  0  0  0  0  0  0  0  0  0  0  0
   -8.6192   -0.2606    0.0118 H   0  0  0  0  0  0  0  0  0  0  0  0
   -8.1691    1.1159   -1.0147 H   0  0  0  0  0  0  0  0  0  0  0  0
   -6.9215   -1.5206   -0.9441 H   0  0  0  0  0  0  0  0  0  0  0  0
   -6.6814   -0.2037   -2.1082 H   0  0  0  0  0  0  0  0  0  0  0  0
    8.0330    1.5765    1.1739 H   0  0  0  0  0  0  0  0  0  0  0  0
  1  2  1  0
  2  3  2  0
  3  4  1  0
  4  5  2  0
  5  6  1  0
  6  7  1  0
  7  8  1  0
  8  9  2  0
  8 10  1  0
 10 11  1  0
 11 12  1  0
 12 13  1  0
 13 14  1  0
 14 15  1  0
 15 16  1  0
 14 17  1  0
 17 18  1  0
 18 19  2  0
 18 20  1  0
 20 21  1  0
 21 22  1  0
 22 23  1  0
 23 24  1  0
 24 25  1  0
 25 26  1  0
  6 27  2  0
 27  2  1  0
 16 11  1  0
 26 21  1  0
  3 28  1  0
  4 29  1  0
  5 30  1  0
  7 31  1  0
 10 32  1  0
 10 33  1  0
 12 34  1  0
 12 35  1  0
 13 36  1  0
 13 37  1  0
 14 38  1  0
 15 39  1  0
 15 40  1  0
 16 41  1  0
 16 42  1  0
 17 43  1  0
 20 44  1  0
 20 45  1  0
 21 46  1  0
 22 47  1  0
 22 48  1  0
 23 49  1  0
 23 50  1  0
 24 51  1  0
 24 52  1  0
 25 53  1  0
 25 54  1  0
 26 55  1  0
 26 56  1  0
 27 57  1  0
M  END
$$$$
[H]OC1([C@@]2([H])O[C@@]([H])(C(=O)[O-])[C@@]2([H])O[H])C([H])([H])C([H])([H])N(C(=O)C2([H])C([H])([H])C2([H])[H])C([H])([H])C1([H])[H]
     RDKit          3D

 38 40  0  0  0  0  0  0  0  0999 V2000
   -2.8279   -0.5952   -2.1666 O   0  0  0  0  0  0  0  0  0  0  0  0
   -3.3683   -0.9931   -0.9702 C   0  0  2  0  0  0  0  0  0  0  0  0
   -4.2891   -0.0567   -0.2726 C   0  0  1  0  0  0  0  0  0  0  0  0
   -3.2750    0.1774    0.6842 O   0  0  0  0  0  0  0  0  0  0  0  0
   -2.5223   -0.8994    0.2475 C   0  0  2  0  0  0  0  0  0  0  0  0
   -1.0632   -0.6680    0.0774 C   0  0  0  0  0  0  0  0  0  0  0  0
   -0.4874   -1.8665   -0.3669 O   0  0  0  0  0  0  0  0  0  0  0  0
   -0.7066    0.4881   -0.7836 C   0  0  0  0  0  0  0  0  0  0  0  0
    0.3660    1.3779   -0.1413 C   0  0  0  0  0  0  0  0  0  0  0  0
    1.4370    0.5776    0.4246 N   0  0  0  0  0  0  0  0  0  0  0  0
    1.0486   -0.5288    1.2752 C   0  0  0  0  0  0  0  0  0  0  0  0
   -0.4689   -0.4147    1.4612 C   0  0  0  0  0  0  0  0  0  0  0  0
    2.7915    0.8772    0.1489 C   0  0  0  0  0  0  0  0  0  0  0  0
    3.0673    1.8508   -0.5970 O   0  0  0  0  0  0  0  0  0  0  0  0
    3.8619    0.0498    0.7354 C   0  0  0  0  0  0  0  0  0  0  0  0
    5.0993   -0.1970   -0.0905 C   0  0  0  0  0  0  0  0  0  0  0  0
    5.1268    0.7226    1.1228 C   0  0  0  0  0  0  0  0  0  0  0  0
   -4.6939    1.1535   -0.9855 C   0  0  0  0  0  0  0  0  0  0  0  0
   -4.2149    1.4523   -2.2437 O   0  0  0  0  0  0  0  0  0  0  0  0
   -5.4963    1.9462   -0.4482 O   0  0  0  0  0  0  0  0  0  0  0  0
   -2.6576   -1.3687   -2.7427 H   0  0  0  0  0  0  0  0  0  0  0  0
   -3.8475   -2.0084   -1.0656 H   0  0  0  0  0  0  0  0  0  0  0  0
   -5.1908   -0.5463    0.1818 H   0  0  0  0  0  0  0  0  0  0  0  0
   -2.6863   -1.7575    0.9559 H   0  0  0  0  0  0  0  0  0  0  0  0
   -0.3560   -1.8610   -1.3444 H   0  0  0  0  0  0  0  0  0  0  0  0
   -0.2869    0.1290   -1.7396 H   0  0  0  0  0  0  0  0  0  0  0  0
   -1.5444    1.1702   -1.0225 H   0  0  0  0  0  0  0  0  0  0  0  0
    0.7632    1.9955   -0.9857 H   0  0  0  0  0  0  0  0  0  0  0  0
   -0.1124    2.0392    0.5881 H   0  0  0  0  0  0  0  0  0  0  0  0
    1.2310   -1.4594    0.6666 H   0  0  0  0  0  0  0  0  0  0  0  0
    1.5726   -0.5558    2.2343 H   0  0  0  0  0  0  0  0  0  0  0  0
   -0.7570    0.5690    1.8469 H   0  0  0  0  0  0  0  0  0  0  0  0
   -0.7606   -1.2623    2.1017 H   0  0  0  0  0  0  0  0  0  0  0  0
    3.5527   -0.7912    1.3820 H   0  0  0  0  0  0  0  0  0  0  0  0
    5.6173   -1.1794    0.0069 H   0  0  0  0  0  0  0  0  0  0  0  0
    5.1158    0.2793   -1.0792 H   0  0  0  0  0  0  0  0  0  0  0  0
    5.6962    0.3447    1.9987 H   0  0  0  0  0  0  0  0  0  0  0  0
    5.2661    1.8091    0.9058 H   0  0  0  0  0  0  0  0  0  0  0  0
  1  2  1  0
  2  3  1  0
  3  4  1  0
  4  5  1  0
  5  6  1  0
  6  7  1  0
  6  8  1  0
  8  9  1  0
  9 10  1  0
 10 11  1  0
 11 12  1  0
 10 13  1  0
 13 14  2  0
 13 15  1  0
 15 16  1  0
 16 17  1  0
  3 18  1  0
 18 19  1  0
 18 20  2  0
  5  2  1  0
 12  6  1  0
 17 15  1  0
  1 21  1  0
  2 22  1  6
  3 23  1  1
  5 24  1  1
  7 25  1  0
  8 26  1  0
  8 27  1  0
  9 28  1  0
  9 29  1  0
 11 30  1  0
 11 31  1  0
 12 32  1  0
 12 33  1  0
 15 34  1  0
 16 35  1  0
 16 36  1  0
 17 37  1  0
 17 38  1  0
M  CHG  1  19  -1
M  END
$$$$
[H]c1c([H])c(N2C([H])([H])C([H])([H])N(C(=O)C#N)C([H])([H])C2([H])[H])c(Cl)c([H])c1N([H])C(=O)N([H])c1c([H])c([H])c(N2C([H])([H])C([H])([H])OC([H])([H])C2([H])[H])c([H])c1OC([H])([H])[H]
     RDKit          3D

 62 65  0  0  0  0  0  0  0  0999 V2000
   -4.9611    3.7314   -0.6580 C   0  0  0  0  0  0  0  0  0  0  0  0
   -3.8324    2.8839   -0.5489 O   0  0  0  0  0  0  0  0  0  0  0  0
   -4.0541    1.4999   -0.4638 C   0  0  0  0  0  0  0  0  0  0  0  0
   -5.3154    0.9744   -0.4852 C   0  0  0  0  0  0  0  0  0  0  0  0
   -5.5455   -0.3747   -0.4031 C   0  0  0  0  0  0  0  0  0  0  0  0
   -4.4332   -1.1698   -0.2977 C   0  0  0  0  0  0  0  0  0  0  0  0
   -3.1355   -0.6395   -0.2749 C   0  0  0  0  0  0  0  0  0  0  0  0
   -2.8856    0.7057   -0.3559 C   0  0  0  0  0  0  0  0  0  0  0  0
   -1.6382    1.3353   -0.3423 N   0  0  0  0  0  0  0  0  0  0  0  0
   -0.3905    0.6851   -0.2380 C   0  0  0  0  0  0  0  0  0  0  0  0
   -0.2746   -0.5590   -0.1443 O   0  0  0  0  0  0  0  0  0  0  0  0
    0.8217    1.4186   -0.2335 N   0  0  0  0  0  0  0  0  0  0  0  0
    2.0893    0.8338   -0.1449 C   0  0  0  0  0  0  0  0  0  0  0  0
    2.4620   -0.4164   -0.5316 C   0  0  0  0  0  0  0  0  0  0  0  0
    3.7664   -0.8357   -0.3325 C   0  0  0  0  0  0  0  0  0  0  0  0
    4.7356   -0.0513    0.2446 C   0  0  0  0  0  0  0  0  0  0  0  0
    6.0739   -0.5355    0.4359 N   0  0  0  0  0  0  0  0  0  0  0  0
    6.5913   -0.6925    1.7579 C   0  0  0  0  0  0  0  0  0  0  0  0
    8.0538   -0.2989    1.8240 C   0  0  0  0  0  0  0  0  0  0  0  0
    8.7209   -0.4828    0.5686 N   0  0  0  0  0  0  0  0  0  0  0  0
    8.1388   -1.3807   -0.4270 C   0  0  0  0  0  0  0  0  0  0  0  0
    6.7986   -0.8308   -0.7851 C   0  0  0  0  0  0  0  0  0  0  0  0
    9.9291    0.2057    0.3123 C   0  0  0  0  0  0  0  0  0  0  0  0
   10.4961    0.0305   -0.7917 O   0  0  0  0  0  0  0  0  0  0  0  0
   10.4879    1.0763    1.2839 C   0  0  0  0  0  0  0  0  0  0  0  0
   10.9392    1.7977    2.0650 N   0  0  0  0  0  0  0  0  0  0  0  0
    4.3431    1.2096    0.6286 C   0  0  0  0  0  0  0  0  0  0  0  0
    5.5386    2.2687    1.3642 Cl  0  0  0  0  0  0  0  0  0  0  0  0
    3.0694    1.6477    0.4460 C   0  0  0  0  0  0  0  0  0  0  0  0
   -6.8653   -0.9253   -0.4282 N   0  0  0  0  0  0  0  0  0  0  0  0
   -7.1079   -2.3466   -0.2896 C   0  0  0  0  0  0  0  0  0  0  0  0
   -8.4907   -2.6275    0.2628 C   0  0  0  0  0  0  0  0  0  0  0  0
   -9.4960   -1.9880   -0.4186 O   0  0  0  0  0  0  0  0  0  0  0  0
   -9.1028   -0.9507   -1.2260 C   0  0  0  0  0  0  0  0  0  0  0  0
   -8.0251   -0.0738   -0.5976 C   0  0  0  0  0  0  0  0  0  0  0  0
   -5.5315    3.5441   -1.5957 H   0  0  0  0  0  0  0  0  0  0  0  0
   -4.6412    4.7926   -0.6794 H   0  0  0  0  0  0  0  0  0  0  0  0
   -5.6218    3.5709    0.2150 H   0  0  0  0  0  0  0  0  0  0  0  0
   -6.1750    1.6303   -0.5687 H   0  0  0  0  0  0  0  0  0  0  0  0
   -4.5742   -2.2540   -0.2304 H   0  0  0  0  0  0  0  0  0  0  0  0
   -2.3367   -1.3366   -0.1907 H   0  0  0  0  0  0  0  0  0  0  0  0
   -1.5876    2.3904   -0.4148 H   0  0  0  0  0  0  0  0  0  0  0  0
    0.7408    2.4684   -0.3063 H   0  0  0  0  0  0  0  0  0  0  0  0
    1.7447   -1.0705   -1.0103 H   0  0  0  0  0  0  0  0  0  0  0  0
    4.0199   -1.8365   -0.6537 H   0  0  0  0  0  0  0  0  0  0  0  0
    6.4982   -1.7572    2.0758 H   0  0  0  0  0  0  0  0  0  0  0  0
    6.0241   -0.1054    2.4860 H   0  0  0  0  0  0  0  0  0  0  0  0
    8.5292   -0.9647    2.6039 H   0  0  0  0  0  0  0  0  0  0  0  0
    8.1672    0.7328    2.2004 H   0  0  0  0  0  0  0  0  0  0  0  0
    7.9962   -2.3765    0.0325 H   0  0  0  0  0  0  0  0  0  0  0  0
    8.7704   -1.4091   -1.3287 H   0  0  0  0  0  0  0  0  0  0  0  0
    6.2042   -1.6188   -1.3241 H   0  0  0  0  0  0  0  0  0  0  0  0
    6.8191    0.0489   -1.4440 H   0  0  0  0  0  0  0  0  0  0  0  0
    2.8083    2.6629    0.7709 H   0  0  0  0  0  0  0  0  0  0  0  0
   -6.4051   -2.7334    0.5062 H   0  0  0  0  0  0  0  0  0  0  0  0
   -6.8834   -2.9198   -1.1917 H   0  0  0  0  0  0  0  0  0  0  0  0
   -8.4738   -2.3740    1.3311 H   0  0  0  0  0  0  0  0  0  0  0  0
   -8.6256   -3.7366    0.2078 H   0  0  0  0  0  0  0  0  0  0  0  0
   -9.9975   -0.2725   -1.3400 H   0  0  0  0  0  0  0  0  0  0  0  0
   -8.8106   -1.2366   -2.2390 H   0  0  0  0  0  0  0  0  0  0  0  0
   -7.7887    0.6902   -1.3661 H   0  0  0  0  0  0  0  0  0  0  0  0
   -8.3715    0.3456    0.3466 H   0  0  0  0  0  0  0  0  0  0  0  0
  1  2  1  0
  2  3  1  0
  3  4  2  0
  4  5  1  0
  5  6  2  0
  6  7  1  0
  7  8  2  0
  8  9  1  0
  9 10  1  0
 10 11  2  0
 10 12  1  0
 12 13  1  0
 13 14  2  0
 14 15  1  0
 15 16  2  0
 16 17  1  0
 17 18  1  0
 18 19  1  0
 19 20  1  0
 20 21  1  0
 21 22  1  0
 20 23  1  0
 23 24  2  0
 23 25  1  0
 25 26  3  0
 16 27  1  0
 27 28  1  0
 27 29  2  0
  5 30  1  0
 30 31  1  0
 31 32  1  0
 32 33  1  0
 33 34  1  0
 34 35  1  0
  8  3  1  0
 29 13  1  0
 35 30  1  0
 22 17  1  0
  1 36  1  0
  1 37  1  0
  1 38  1  0
  4 39  1  0
  6 40  1  0
  7 41  1  0
  9 42  1  0
 12 43  1  0
 14 44  1  0
 15 45  1  0
 18 46  1  0
 18 47  1  0
 19 48  1  0
 19 49  1  0
 21 50  1  0
 21 51  1  0
 22 52  1  0
 22 53  1  0
 29 54  1  0
 31 55  1  0
 31 56  1  0
 32 57  1  0
 32 58  1  0
 34 59  1  0
 34 60  1  0
 35 61  1  0
 35 62  1  0
M  END
$$$$
[H]/C(=C(/[H])c1c([H])c(Cl)c([H])c([H])c1Cl)c1c([H])c([H])c(OC2([H])C([H])([H])C([H])([H])N(c3nc(C([H])(C([H])([H])[H])C([H])([H])[H])n([H])c(=O)c3[H])C([H])([H])C2([H])[H])c([H])c1[H]
     RDKit          3D

 60 63  0  0  0  0  0  0  0  0999 V2000
   -7.9736    1.6809    0.2503 C   0  0  0  0  0  0  0  0  0  0  0  0
   -7.5016    0.8449   -0.9195 C   0  0  0  0  0  0  0  0  0  0  0  0
   -6.7640    1.6779   -1.9142 C   0  0  0  0  0  0  0  0  0  0  0  0
   -6.6398   -0.2573   -0.3743 C   0  0  0  0  0  0  0  0  0  0  0  0
   -5.4728    0.0244    0.2248 N   0  0  0  0  0  0  0  0  0  0  0  0
   -4.6742   -0.9618    0.7259 C   0  0  0  0  0  0  0  0  0  0  0  0
   -5.1084   -2.2454    0.5942 C   0  0  0  0  0  0  0  0  0  0  0  0
   -6.3285   -2.5444   -0.0316 C   0  0  0  0  0  0  0  0  0  0  0  0
   -6.7157   -3.7308   -0.1458 O   0  0  0  0  0  0  0  0  0  0  0  0
   -7.0653   -1.5258   -0.5024 N   0  0  0  0  0  0  0  0  0  0  0  0
   -3.4431   -0.6361    1.3515 N   0  0  0  0  0  0  0  0  0  0  0  0
   -2.5363   -1.5998    1.9352 C   0  0  0  0  0  0  0  0  0  0  0  0
   -1.3267   -1.5615    1.0305 C   0  0  0  0  0  0  0  0  0  0  0  0
   -0.6590   -0.2088    0.9691 C   0  0  0  0  0  0  0  0  0  0  0  0
   -1.5876    0.9547    1.0501 C   0  0  0  0  0  0  0  0  0  0  0  0
   -2.9786    0.7380    1.4541 C   0  0  0  0  0  0  0  0  0  0  0  0
    0.0571   -0.1810   -0.2197 O   0  0  0  0  0  0  0  0  0  0  0  0
    1.4177   -0.0990   -0.3258 C   0  0  0  0  0  0  0  0  0  0  0  0
    2.2937   -0.0220    0.7223 C   0  0  0  0  0  0  0  0  0  0  0  0
    3.6711    0.0583    0.4789 C   0  0  0  0  0  0  0  0  0  0  0  0
    4.1876    0.0631   -0.7844 C   0  0  0  0  0  0  0  0  0  0  0  0
    5.6210    0.1475   -1.1038 C   0  0  0  0  0  0  0  0  0  0  0  0
    6.5726    0.2319   -0.2130 C   0  0  0  0  0  0  0  0  0  0  0  0
    7.9991    0.3196   -0.3733 C   0  0  0  0  0  0  0  0  0  0  0  0
    8.7349    0.4169    0.8225 C   0  0  0  0  0  0  0  0  0  0  0  0
   10.1054    0.5051    0.8180 C   0  0  0  0  0  0  0  0  0  0  0  0
   10.9662    0.6243    2.3282 Cl  0  0  0  0  0  0  0  0  0  0  0  0
   10.8279    0.5034   -0.3405 C   0  0  0  0  0  0  0  0  0  0  0  0
   10.1279    0.4095   -1.5087 C   0  0  0  0  0  0  0  0  0  0  0  0
    8.7229    0.3187   -1.5130 C   0  0  0  0  0  0  0  0  0  0  0  0
    7.9756    0.2004   -3.0966 Cl  0  0  0  0  0  0  0  0  0  0  0  0
    3.2963   -0.0156   -1.8585 C   0  0  0  0  0  0  0  0  0  0  0  0
    1.9511   -0.0940   -1.6303 C   0  0  0  0  0  0  0  0  0  0  0  0
   -8.4285    2.6085   -0.1429 H   0  0  0  0  0  0  0  0  0  0  0  0
   -7.1467    1.8972    0.9532 H   0  0  0  0  0  0  0  0  0  0  0  0
   -8.8023    1.1130    0.7604 H   0  0  0  0  0  0  0  0  0  0  0  0
   -8.3968    0.4155   -1.3889 H   0  0  0  0  0  0  0  0  0  0  0  0
   -5.8870    1.1140   -2.2998 H   0  0  0  0  0  0  0  0  0  0  0  0
   -7.4451    1.9159   -2.7551 H   0  0  0  0  0  0  0  0  0  0  0  0
   -6.3708    2.5948   -1.4200 H   0  0  0  0  0  0  0  0  0  0  0  0
   -4.5320   -3.0773    0.9644 H   0  0  0  0  0  0  0  0  0  0  0  0
   -7.9930   -1.6875   -0.9832 H   0  0  0  0  0  0  0  0  0  0  0  0
   -2.8899   -2.6215    1.9816 H   0  0  0  0  0  0  0  0  0  0  0  0
   -2.1835   -1.2063    2.9198 H   0  0  0  0  0  0  0  0  0  0  0  0
   -1.6411   -1.8685    0.0135 H   0  0  0  0  0  0  0  0  0  0  0  0
   -0.6166   -2.3248    1.4026 H   0  0  0  0  0  0  0  0  0  0  0  0
    0.0451   -0.1961    1.8189 H   0  0  0  0  0  0  0  0  0  0  0  0
   -1.5863    1.4914    0.0606 H   0  0  0  0  0  0  0  0  0  0  0  0
   -1.1277    1.7126    1.7521 H   0  0  0  0  0  0  0  0  0  0  0  0
   -3.1533    1.0233    2.5341 H   0  0  0  0  0  0  0  0  0  0  0  0
   -3.6969    1.3545    0.8759 H   0  0  0  0  0  0  0  0  0  0  0  0
    1.9447   -0.0208    1.7485 H   0  0  0  0  0  0  0  0  0  0  0  0
    4.3304    0.1180    1.3482 H   0  0  0  0  0  0  0  0  0  0  0  0
    5.8989    0.1414   -2.1278 H   0  0  0  0  0  0  0  0  0  0  0  0
    6.1780    0.2324    0.8314 H   0  0  0  0  0  0  0  0  0  0  0  0
    8.2475    0.4259    1.7916 H   0  0  0  0  0  0  0  0  0  0  0  0
   11.8921    0.5727   -0.3190 H   0  0  0  0  0  0  0  0  0  0  0  0
   10.6802    0.4061   -2.4374 H   0  0  0  0  0  0  0  0  0  0  0  0
    3.6816   -0.0141   -2.8919 H   0  0  0  0  0  0  0  0  0  0  0  0
    1.2462   -0.1563   -2.4759 H   0  0  0  0  0  0  0  0  0  0  0  0
  1  2  1  0
  2  3  1  0
  2  4  1  0
  4  5  2  0
  5  6  1  0
  6  7  2  0
  7  8  1  0
  8  9  2  0
  8 10  1  0
  6 11  1  0
 11 12  1  0
 12 13  1  0
 13 14  1  0
 14 15  1  0
 15 16  1  0
 14 17  1  0
 17 18  1  0
 18 19  2  0
 19 20  1  0
 20 21  2  0
 21 22  1  0
 22 23  2  0
 23 24  1  0
 24 25  2  0
 25 26  1  0
 26 27  1  0
 26 28  2  0
 28 29  1  0
 29 30  2  0
 30 31  1  0
 21 32  1  0
 32 33  2  0
 10  4  1  0
 16 11  1  0
 33 18  1  0
 30 24  1  0
  1 34  1  0
  1 35  1  0
  1 36  1  0
  2 37  1  0
  3 38  1  0
  3 39  1  0
  3 40  1  0
  7 41  1  0
 10 42  1  0
 12 43  1  0
 12 44  1  0
 13 45  1  0
 13 46  1  0
 14 47  1  0
 15 48  1  0
 15 49  1  0
 16 50  1  0
 16 51  1  0
 19 52  1  0
 20 53  1  0
 22 54  1  0
 23 55  1  0
 25 56  1  0
 28 57  1  0
 29 58  1  0
 32 59  1  0
 33 60  1  0
M  END
$$$$
[H]c1c([H])c(C([H])([H])N([H])C(=O)N2C([H])([H])C([H])([H])C([H])(N([H])C(=O)N([H])c3nnnn3[H])C([H])([H])C2([H])[H])c([H])c([H])c1C(F)(F)F
     RDKit          3D

 48 50  0  0  0  0  0  0  0  0999 V2000
   -8.5946   -1.1625    1.0192 F   0  0  0  0  0  0  0  0  0  0  0  0
   -8.1338   -0.5708   -0.1543 C   0  0  0  0  0  0  0  0  0  0  0  0
   -8.9726    0.5389   -0.3426 F   0  0  0  0  0  0  0  0  0  0  0  0
   -8.3413   -1.3815   -1.1976 F   0  0  0  0  0  0  0  0  0  0  0  0
   -6.7446   -0.0820    0.1145 C   0  0  0  0  0  0  0  0  0  0  0  0
   -6.0198   -0.5604    1.1591 C   0  0  0  0  0  0  0  0  0  0  0  0
   -4.7792   -0.0116    1.5046 C   0  0  0  0  0  0  0  0  0  0  0  0
   -4.2190    1.0326    0.8235 C   0  0  0  0  0  0  0  0  0  0  0  0
   -2.9483    1.6993    1.2252 C   0  0  0  0  0  0  0  0  0  0  0  0
   -1.8099    1.2365    0.4220 N   0  0  0  0  0  0  0  0  0  0  0  0
   -1.1725    0.0337    0.6588 C   0  0  0  0  0  0  0  0  0  0  0  0
   -1.6218   -0.7095    1.6023 O   0  0  0  0  0  0  0  0  0  0  0  0
   -0.0407   -0.4292   -0.0615 N   0  0  0  0  0  0  0  0  0  0  0  0
    0.5531   -1.7242    0.3528 C   0  0  0  0  0  0  0  0  0  0  0  0
    1.9819   -1.7308    0.0150 C   0  0  0  0  0  0  0  0  0  0  0  0
    2.6626   -0.3937    0.0556 C   0  0  0  0  0  0  0  0  0  0  0  0
    1.9829    0.6758   -0.7546 C   0  0  0  0  0  0  0  0  0  0  0  0
    0.5696    0.2655   -1.1166 C   0  0  0  0  0  0  0  0  0  0  0  0
    3.9905   -0.6556   -0.4298 N   0  0  0  0  0  0  0  0  0  0  0  0
    5.2057   -0.0079   -0.1384 C   0  0  0  0  0  0  0  0  0  0  0  0
    5.1497    0.9347    0.6597 O   0  0  0  0  0  0  0  0  0  0  0  0
    6.3348   -0.4912   -0.7507 N   0  0  0  0  0  0  0  0  0  0  0  0
    7.6578   -0.1401   -0.7489 C   0  0  0  0  0  0  0  0  0  0  0  0
    8.6131   -0.8559   -1.5012 N   0  0  0  0  0  0  0  0  0  0  0  0
    9.7731   -0.3896   -1.3659 N   0  0  0  0  0  0  0  0  0  0  0  0
    9.6610    0.6698   -0.5204 N   0  0  0  0  0  0  0  0  0  0  0  0
    8.3858    0.7930   -0.1642 N   0  0  0  0  0  0  0  0  0  0  0  0
   -4.9822    1.5017   -0.2478 C   0  0  0  0  0  0  0  0  0  0  0  0
   -6.1946    0.9765   -0.5990 C   0  0  0  0  0  0  0  0  0  0  0  0
   -6.3754   -1.3984    1.7630 H   0  0  0  0  0  0  0  0  0  0  0  0
   -4.2219   -0.4316    2.3362 H   0  0  0  0  0  0  0  0  0  0  0  0
   -2.7676    1.4181    2.3174 H   0  0  0  0  0  0  0  0  0  0  0  0
   -2.9932    2.7958    1.2323 H   0  0  0  0  0  0  0  0  0  0  0  0
   -1.4943    1.8800   -0.3398 H   0  0  0  0  0  0  0  0  0  0  0  0
   -0.0096   -2.5594   -0.1416 H   0  0  0  0  0  0  0  0  0  0  0  0
    0.4306   -1.8128    1.4720 H   0  0  0  0  0  0  0  0  0  0  0  0
    2.5947   -2.4051    0.7005 H   0  0  0  0  0  0  0  0  0  0  0  0
    2.1069   -2.1557   -1.0339 H   0  0  0  0  0  0  0  0  0  0  0  0
    2.7395   -0.0296    1.0963 H   0  0  0  0  0  0  0  0  0  0  0  0
    1.9417    1.6147   -0.1718 H   0  0  0  0  0  0  0  0  0  0  0  0
    2.5556    0.8764   -1.6595 H   0  0  0  0  0  0  0  0  0  0  0  0
    0.6144   -0.3863   -2.0134 H   0  0  0  0  0  0  0  0  0  0  0  0
    0.0237    1.1511   -1.3869 H   0  0  0  0  0  0  0  0  0  0  0  0
    4.0814   -1.4691   -1.1355 H   0  0  0  0  0  0  0  0  0  0  0  0
    6.1145   -1.3969   -1.3674 H   0  0  0  0  0  0  0  0  0  0  0  0
    8.0188    1.5271    0.4845 H   0  0  0  0  0  0  0  0  0  0  0  0
   -4.5577    2.3559   -0.8334 H   0  0  0  0  0  0  0  0  0  0  0  0
   -6.7485    1.3642   -1.4253 H   0  0  0  0  0  0  0  0  0  0  0  0
  1  2  1  0
  2  3  1  0
  2  4  1  0
  2  5  1  0
  5  6  2  0
  6  7  1  0
  7  8  2  0
  8  9  1  0
  9 10  1  0
 10 11  1  0
 11 12  2  0
 11 13  1  0
 13 14  1  0
 14 15  1  0
 15 16  1  0
 16 17  1  0
 17 18  1  0
 16 19  1  0
 19 20  1  0
 20 21  2  0
 20 22  1  0
 22 23  1  0
 23 24  2  0
 24 25  1  0
 25 26  2  0
 26 27  1  0
  8 28  1  0
 28 29  2  0
 29  5  1  0
 18 13  1  0
 27 23  1  0
  6 30  1  0
  7 31  1  0
  9 32  1  0
  9 33  1  0
 10 34  1  0
 14 35  1  0
 14 36  1  0
 15 37  1  0
 15 38  1  0
 16 39  1  0
 17 40  1  0
 17 41  1  0
 18 42  1  0
 18 43  1  0
 19 44  1  0
 22 45  1  0
 27 46  1  0
 28 47  1  0
 29 48  1  0
M  END
$$$$
[H]OC([H])(c1c([H])c([H])c(Cl)c(N([H])S(=O)(=O)c2c([H])c(Cl)c([H])c(Cl)c2[H])c1[H])C([H])([H])N([H])C(=O)C([H])([H])N1C([H])([H])C([H])([H])C([H])([H])C1([H])[H]
     RDKit          3D

 53 55  0  0  0  0  0  0  0  0999 V2000
    0.0654    1.2875   -1.9388 O   0  0  0  0  0  0  0  0  0  0  0  0
    0.0969    0.0642   -1.3501 C   0  0  0  0  0  0  0  0  0  0  0  0
    1.3083   -0.7806   -1.5558 C   0  0  0  0  0  0  0  0  0  0  0  0
    2.5542   -0.2827   -1.1026 N   0  0  0  0  0  0  0  0  0  0  0  0
    3.2302    0.8653   -1.5664 C   0  0  0  0  0  0  0  0  0  0  0  0
    2.6963    1.5326   -2.5025 O   0  0  0  0  0  0  0  0  0  0  0  0
    4.5215    1.3845   -1.0722 C   0  0  0  0  0  0  0  0  0  0  0  0
    4.9895    0.5695    0.0302 N   0  0  0  0  0  0  0  0  0  0  0  0
    6.3495    0.9183    0.3910 C   0  0  0  0  0  0  0  0  0  0  0  0
    6.3840    1.4355    1.7794 C   0  0  0  0  0  0  0  0  0  0  0  0
    4.9387    1.7727    2.0868 C   0  0  0  0  0  0  0  0  0  0  0  0
    4.1717    0.7951    1.2186 C   0  0  0  0  0  0  0  0  0  0  0  0
   -1.1432   -0.7090   -1.7464 C   0  0  0  0  0  0  0  0  0  0  0  0
   -1.5810   -0.7423   -3.0525 C   0  0  0  0  0  0  0  0  0  0  0  0
   -2.7164   -1.4477   -3.4264 C   0  0  0  0  0  0  0  0  0  0  0  0
   -3.4385   -2.1389   -2.4830 C   0  0  0  0  0  0  0  0  0  0  0  0
   -4.8774   -3.0498   -2.8716 Cl  0  0  0  0  0  0  0  0  0  0  0  0
   -3.0188   -2.1233   -1.1522 C   0  0  0  0  0  0  0  0  0  0  0  0
   -3.7809   -2.8543   -0.2301 N   0  0  0  0  0  0  0  0  0  0  0  0
   -3.8085   -2.4959    1.4356 S   0  0  0  0  0  0  0  0  0  0  0  0
   -4.7034   -3.4535    2.1945 O   0  0  0  0  0  0  0  0  0  0  0  0
   -2.4594   -2.5743    2.0991 O   0  0  0  0  0  0  0  0  0  0  0  0
   -4.4398   -0.8847    1.6630 C   0  0  0  0  0  0  0  0  0  0  0  0
   -5.8235   -0.7465    1.7061 C   0  0  0  0  0  0  0  0  0  0  0  0
   -6.4223    0.4727    1.8895 C   0  0  0  0  0  0  0  0  0  0  0  0
   -8.1831    0.6446    1.9439 Cl  0  0  0  0  0  0  0  0  0  0  0  0
   -5.6126    1.5794    2.0329 C   0  0  0  0  0  0  0  0  0  0  0  0
   -4.2424    1.4888    1.9969 C   0  0  0  0  0  0  0  0  0  0  0  0
   -3.2505    2.9207    2.1824 Cl  0  0  0  0  0  0  0  0  0  0  0  0
   -3.6705    0.2433    1.8105 C   0  0  0  0  0  0  0  0  0  0  0  0
   -1.8724   -1.4045   -0.8075 C   0  0  0  0  0  0  0  0  0  0  0  0
   -0.4470    1.9512   -1.4111 H   0  0  0  0  0  0  0  0  0  0  0  0
   -0.0077    0.2096   -0.2462 H   0  0  0  0  0  0  0  0  0  0  0  0
    1.1333   -1.8382   -1.2227 H   0  0  0  0  0  0  0  0  0  0  0  0
    1.4233   -0.8990   -2.6858 H   0  0  0  0  0  0  0  0  0  0  0  0
    3.0296   -0.8684   -0.3284 H   0  0  0  0  0  0  0  0  0  0  0  0
    5.2490    1.4705   -1.8826 H   0  0  0  0  0  0  0  0  0  0  0  0
    4.3222    2.4121   -0.6656 H   0  0  0  0  0  0  0  0  0  0  0  0
    6.8135    1.6071   -0.3445 H   0  0  0  0  0  0  0  0  0  0  0  0
    6.9626   -0.0248    0.3295 H   0  0  0  0  0  0  0  0  0  0  0  0
    7.0438    2.3299    1.8773 H   0  0  0  0  0  0  0  0  0  0  0  0
    6.6838    0.6284    2.4798 H   0  0  0  0  0  0  0  0  0  0  0  0
    4.6647    2.7931    1.8105 H   0  0  0  0  0  0  0  0  0  0  0  0
    4.7049    1.5795    3.1441 H   0  0  0  0  0  0  0  0  0  0  0  0
    4.0524   -0.1849    1.7200 H   0  0  0  0  0  0  0  0  0  0  0  0
    3.2220    1.2400    0.8707 H   0  0  0  0  0  0  0  0  0  0  0  0
   -1.0026   -0.1923   -3.7916 H   0  0  0  0  0  0  0  0  0  0  0  0
   -3.0435   -1.4600   -4.4644 H   0  0  0  0  0  0  0  0  0  0  0  0
   -4.3657   -3.6616   -0.5620 H   0  0  0  0  0  0  0  0  0  0  0  0
   -6.4682   -1.6066    1.5946 H   0  0  0  0  0  0  0  0  0  0  0  0
   -6.1019    2.5516    2.1793 H   0  0  0  0  0  0  0  0  0  0  0  0
   -2.5988    0.1630    1.7861 H   0  0  0  0  0  0  0  0  0  0  0  0
   -1.5314   -1.3830    0.2107 H   0  0  0  0  0  0  0  0  0  0  0  0
  1  2  1  0
  2  3  1  0
  3  4  1  0
  4  5  1  0
  5  6  2  0
  5  7  1  0
  7  8  1  0
  8  9  1  0
  9 10  1  0
 10 11  1  0
 11 12  1  0
  2 13  1  0
 13 14  2  0
 14 15  1  0
 15 16  2  0
 16 17  1  0
 16 18  1  0
 18 19  1  0
 19 20  1  0
 20 21  2  0
 20 22  2  0
 20 23  1  0
 23 24  2  0
 24 25  1  0
 25 26  1  0
 25 27  2  0
 27 28  1  0
 28 29  1  0
 28 30  2  0
 18 31  2  0
 12  8  1  0
 31 13  1  0
 30 23  1  0
  1 32  1  0
  2 33  1  0
  3 34  1  0
  3 35  1  0
  4 36  1  0
  7 37  1  0
  7 38  1  0
  9 39  1  0
  9 40  1  0
 10 41  1  0
 10 42  1  0
 11 43  1  0
 11 44  1  0
 12 45  1  0
 12 46  1  0
 14 47  1  0
 15 48  1  0
 19 49  1  0
 24 50  1  0
 27 51  1  0
 30 52  1  0
 31 53  1  0
M  END
$$$$
[H]c1nc(N([H])C(=O)C([H])([H])[H])c([H])c(-c2sc(N([H])[C@@]([H])(c3c([H])c(C([H])([H])N([H])[H])c([H])c([H])c3OC([H])([H])[H])C([H])([H])[H])nc2C([H])([H])[H])c1[H]
     RDKit          3D

 54 56  0  0  0  0  0  0  0  0999 V2000
   -4.1078    0.1305   -3.2270 C   0  0  0  0  0  0  0  0  0  0  0  0
   -3.3201    0.2530   -2.0114 O   0  0  0  0  0  0  0  0  0  0  0  0
   -4.0893    0.2756   -0.8098 C   0  0  0  0  0  0  0  0  0  0  0  0
   -5.5013    0.1539   -0.9314 C   0  0  0  0  0  0  0  0  0  0  0  0
   -6.2629    0.1770    0.2070 C   0  0  0  0  0  0  0  0  0  0  0  0
   -5.7824    0.3105    1.4688 C   0  0  0  0  0  0  0  0  0  0  0  0
   -6.6557    0.3385    2.6591 C   0  0  0  0  0  0  0  0  0  0  0  0
   -7.3740    1.6069    2.7332 N   0  0  0  0  0  0  0  0  0  0  0  0
   -4.3714    0.4281    1.5672 C   0  0  0  0  0  0  0  0  0  0  0  0
   -3.5654    0.4100    0.4232 C   0  0  0  0  0  0  0  0  0  0  0  0
   -2.1181    0.5766    0.6135 C   0  0  1  0  0  0  0  0  0  0  0  0
   -1.7008    1.0966    1.9729 C   0  0  0  0  0  0  0  0  0  0  0  0
   -1.3716   -0.6353    0.2530 N   0  0  0  0  0  0  0  0  0  0  0  0
    0.0567   -0.5677    0.1595 C   0  0  0  0  0  0  0  0  0  0  0  0
    0.8473   -1.5387   -0.2606 N   0  0  0  0  0  0  0  0  0  0  0  0
    2.1327   -1.3663   -0.3265 C   0  0  0  0  0  0  0  0  0  0  0  0
    3.0306   -2.4965   -0.8325 C   0  0  0  0  0  0  0  0  0  0  0  0
    2.6419   -0.1499    0.0505 C   0  0  0  0  0  0  0  0  0  0  0  0
    1.1599    0.6675    0.4814 S   0  0  0  0  0  0  0  0  0  0  0  0
    3.9712    0.4357    0.1047 C   0  0  0  0  0  0  0  0  0  0  0  0
    4.1412    1.7149    0.7395 C   0  0  0  0  0  0  0  0  0  0  0  0
    5.2655    2.4010    0.7639 C   0  0  0  0  0  0  0  0  0  0  0  0
    6.3997    1.8557    0.1235 N   0  0  0  0  0  0  0  0  0  0  0  0
    6.2391    0.7242   -0.4356 C   0  0  0  0  0  0  0  0  0  0  0  0
    7.4634    0.1705   -1.4481 N   0  0  0  0  0  0  0  0  0  0  0  0
    7.2684   -1.1670   -1.2729 C   0  0  0  0  0  0  0  0  0  0  0  0
    7.3217   -2.2758   -2.2348 C   0  0  0  0  0  0  0  0  0  0  0  0
    6.9680   -1.5344   -0.0316 O   0  0  0  0  0  0  0  0  0  0  0  0
    5.1103   -0.0034   -0.4814 C   0  0  0  0  0  0  0  0  0  0  0  0
   -4.6781   -0.8321   -3.1051 H   0  0  0  0  0  0  0  0  0  0  0  0
   -4.8718    0.9517   -3.2885 H   0  0  0  0  0  0  0  0  0  0  0  0
   -3.5088    0.0498   -4.1188 H   0  0  0  0  0  0  0  0  0  0  0  0
   -5.9208    0.0345   -1.8800 H   0  0  0  0  0  0  0  0  0  0  0  0
   -7.3510    0.0699    0.0712 H   0  0  0  0  0  0  0  0  0  0  0  0
   -7.4876   -0.4276    2.5831 H   0  0  0  0  0  0  0  0  0  0  0  0
   -6.0859    0.2034    3.5958 H   0  0  0  0  0  0  0  0  0  0  0  0
   -6.7801    2.3288    3.1693 H   0  0  0  0  0  0  0  0  0  0  0  0
   -7.8008    1.8727    1.8248 H   0  0  0  0  0  0  0  0  0  0  0  0
   -4.0183    0.5154    2.5682 H   0  0  0  0  0  0  0  0  0  0  0  0
   -1.7989    1.3775   -0.1185 H   0  0  0  0  0  0  0  0  0  0  0  0
   -0.8251    1.7925    1.8452 H   0  0  0  0  0  0  0  0  0  0  0  0
   -1.4028    0.3473    2.6740 H   0  0  0  0  0  0  0  0  0  0  0  0
   -2.4901    1.7553    2.4511 H   0  0  0  0  0  0  0  0  0  0  0  0
   -1.8363   -1.5316    0.0814 H   0  0  0  0  0  0  0  0  0  0  0  0
    2.3871   -3.3976   -0.9832 H   0  0  0  0  0  0  0  0  0  0  0  0
    3.8591   -2.6613   -0.1396 H   0  0  0  0  0  0  0  0  0  0  0  0
    3.4023   -2.2615   -1.8317 H   0  0  0  0  0  0  0  0  0  0  0  0
    3.2426    2.0700    1.2378 H   0  0  0  0  0  0  0  0  0  0  0  0
    5.4390    3.3678    1.2098 H   0  0  0  0  0  0  0  0  0  0  0  0
    7.6237    1.1085   -1.6629 H   0  0  0  0  0  0  0  0  0  0  0  0
    7.2222   -1.9137   -3.2459 H   0  0  0  0  0  0  0  0  0  0  0  0
    8.3107   -2.8361   -2.1174 H   0  0  0  0  0  0  0  0  0  0  0  0
    6.5186   -3.0423   -1.9700 H   0  0  0  0  0  0  0  0  0  0  0  0
    5.0545   -0.9332   -1.0414 H   0  0  0  0  0  0  0  0  0  0  0  0
  1  2  1  0
  2  3  1  0
  3  4  2  0
  4  5  1  0
  5  6  2  0
  6  7  1  0
  7  8  1  0
  6  9  1  0
  9 10  2  0
 10 11  1  0
 11 12  1  0
 11 13  1  0
 13 14  1  0
 14 15  2  0
 15 16  1  0
 16 17  1  0
 16 18  2  0
 18 19  1  0
 18 20  1  0
 20 21  2  0
 21 22  1  0
 22 23  2  0
 23 24  1  0
 24 25  1  0
 25 26  1  0
 26 27  1  0
 26 28  2  0
 24 29  2  0
 10  3  1  0
 19 14  1  0
 29 20  1  0
  1 30  1  0
  1 31  1  0
  1 32  1  0
  4 33  1  0
  5 34  1  0
  7 35  1  0
  7 36  1  0
  8 37  1  0
  8 38  1  0
  9 39  1  0
 11 40  1  6
 12 41  1  0
 12 42  1  0
 12 43  1  0
 13 44  1  0
 17 45  1  0
 17 46  1  0
 17 47  1  0
 21 48  1  0
 22 49  1  0
 25 50  1  0
 27 51  1  0
 27 52  1  0
 27 53  1  0
 29 54  1  0
M  END
$$$$
[H]OC([H])([H])C([H])([H])C([H])([H])N([H])C(=O)c1c(C([H])([H])[H])nc(N([H])c2c([H])c([H])c3c(c2[H])C([H])([H])C([H])([H])N3C#N)c([H])c1C([H])([H])c1c(Cl)c([H])n([H])c1[H]
     RDKit          3D

 58 61  0  0  0  0  0  0  0  0999 V2000
    0.0106   -2.8404    0.0130 C   0  0  0  0  0  0  0  0  0  0  0  0
    0.0792   -1.3390   -0.1119 C   0  0  0  0  0  0  0  0  0  0  0  0
   -1.0529   -0.6362   -0.1571 N   0  0  0  0  0  0  0  0  0  0  0  0
   -1.0955    0.6802   -0.2281 C   0  0  0  0  0  0  0  0  0  0  0  0
   -2.2886    1.4468   -0.2777 N   0  0  0  0  0  0  0  0  0  0  0  0
   -3.6154    1.0080   -0.2257 C   0  0  0  0  0  0  0  0  0  0  0  0
   -4.5948    1.9093   -0.7038 C   0  0  0  0  0  0  0  0  0  0  0  0
   -5.9150    1.5532   -0.6635 C   0  0  0  0  0  0  0  0  0  0  0  0
   -6.3213    0.3353   -0.1682 C   0  0  0  0  0  0  0  0  0  0  0  0
   -7.6233   -0.2327   -0.0334 N   0  0  0  0  0  0  0  0  0  0  0  0
   -7.4229   -1.6594    0.1833 C   0  0  0  0  0  0  0  0  0  0  0  0
   -6.0198   -1.7899    0.7850 C   0  0  0  0  0  0  0  0  0  0  0  0
   -5.3739   -0.5471    0.2990 C   0  0  0  0  0  0  0  0  0  0  0  0
   -4.0146   -0.2024    0.2675 C   0  0  0  0  0  0  0  0  0  0  0  0
   -8.8412    0.4520   -0.0981 C   0  0  0  0  0  0  0  0  0  0  0  0
   -9.8615    1.0141   -0.1580 N   0  0  0  0  0  0  0  0  0  0  0  0
    0.1160    1.3400   -0.2554 C   0  0  0  0  0  0  0  0  0  0  0  0
    1.3231    0.6316   -0.2094 C   0  0  0  0  0  0  0  0  0  0  0  0
    2.6137    1.3752   -0.2414 C   0  0  0  0  0  0  0  0  0  0  0  0
    2.4466    2.8290   -0.4825 C   0  0  0  0  0  0  0  0  0  0  0  0
    2.1072    3.8174    0.4408 C   0  0  0  0  0  0  0  0  0  0  0  0
    1.7906    3.5650    2.1393 Cl  0  0  0  0  0  0  0  0  0  0  0  0
    2.0595    5.0375   -0.1939 C   0  0  0  0  0  0  0  0  0  0  0  0
    2.3610    4.8203   -1.4807 N   0  0  0  0  0  0  0  0  0  0  0  0
    2.5989    3.4900   -1.6775 C   0  0  0  0  0  0  0  0  0  0  0  0
    1.3508   -0.7447   -0.1371 C   0  0  0  0  0  0  0  0  0  0  0  0
    2.5557   -1.5291   -0.1911 C   0  0  0  0  0  0  0  0  0  0  0  0
    2.3733   -2.6840   -0.8028 O   0  0  0  0  0  0  0  0  0  0  0  0
    3.8329   -1.2943    0.2748 N   0  0  0  0  0  0  0  0  0  0  0  0
    4.8615   -2.3203    0.0454 C   0  0  0  0  0  0  0  0  0  0  0  0
    6.1856   -1.8755    0.6210 C   0  0  0  0  0  0  0  0  0  0  0  0
    7.2671   -2.8792    0.4157 C   0  0  0  0  0  0  0  0  0  0  0  0
    8.4564   -2.4052    0.9669 O   0  0  0  0  0  0  0  0  0  0  0  0
   -1.0524   -3.0899    0.3180 H   0  0  0  0  0  0  0  0  0  0  0  0
    0.7180   -3.1625    0.7705 H   0  0  0  0  0  0  0  0  0  0  0  0
    0.1261   -3.3035   -0.9653 H   0  0  0  0  0  0  0  0  0  0  0  0
   -2.1283    2.5102   -0.3647 H   0  0  0  0  0  0  0  0  0  0  0  0
   -4.3169    2.8808   -1.1029 H   0  0  0  0  0  0  0  0  0  0  0  0
   -6.6623    2.2310   -1.0244 H   0  0  0  0  0  0  0  0  0  0  0  0
   -7.4670   -2.2140   -0.7751 H   0  0  0  0  0  0  0  0  0  0  0  0
   -8.1769   -2.0022    0.9157 H   0  0  0  0  0  0  0  0  0  0  0  0
   -5.5150   -2.7047    0.4655 H   0  0  0  0  0  0  0  0  0  0  0  0
   -6.1274   -1.6928    1.8907 H   0  0  0  0  0  0  0  0  0  0  0  0
   -3.2983   -0.8953    0.6462 H   0  0  0  0  0  0  0  0  0  0  0  0
    0.1604    2.4257   -0.3246 H   0  0  0  0  0  0  0  0  0  0  0  0
    3.0101    1.3468    0.8358 H   0  0  0  0  0  0  0  0  0  0  0  0
    3.3230    0.9241   -0.9244 H   0  0  0  0  0  0  0  0  0  0  0  0
    1.8259    5.9753    0.2601 H   0  0  0  0  0  0  0  0  0  0  0  0
    2.4125    5.5342   -2.2320 H   0  0  0  0  0  0  0  0  0  0  0  0
    2.8626    3.0780   -2.6461 H   0  0  0  0  0  0  0  0  0  0  0  0
    4.1461   -0.4790    0.7876 H   0  0  0  0  0  0  0  0  0  0  0  0
    4.5228   -3.2839    0.5005 H   0  0  0  0  0  0  0  0  0  0  0  0
    4.9980   -2.5221   -1.0359 H   0  0  0  0  0  0  0  0  0  0  0  0
    6.1012   -1.5634    1.6662 H   0  0  0  0  0  0  0  0  0  0  0  0
    6.4767   -0.9584    0.0312 H   0  0  0  0  0  0  0  0  0  0  0  0
    7.4450   -3.0314   -0.6740 H   0  0  0  0  0  0  0  0  0  0  0  0
    7.0519   -3.8557    0.9224 H   0  0  0  0  0  0  0  0  0  0  0  0
    9.2151   -2.4727    0.3175 H   0  0  0  0  0  0  0  0  0  0  0  0
  1  2  1  0
  2  3  2  0
  3  4  1  0
  4  5  1  0
  5  6  1  0
  6  7  2  0
  7  8  1  0
  8  9  2  0
  9 10  1  0
 10 11  1  0
 11 12  1  0
 12 13  1  0
 13 14  2  0
 10 15  1  0
 15 16  3  0
  4 17  2  0
 17 18  1  0
 18 19  1  0
 19 20  1  0
 20 21  1  0
 21 22  1  0
 21 23  2  0
 23 24  1  0
 24 25  1  0
 18 26  2  0
 26 27  1  0
 27 28  2  0
 27 29  1  0
 29 30  1  0
 30 31  1  0
 31 32  1  0
 32 33  1  0
 26  2  1  0
 14  6  1  0
 25 20  2  0
 13  9  1  0
  1 34  1  0
  1 35  1  0
  1 36  1  0
  5 37  1  0
  7 38  1  0
  8 39  1  0
 11 40  1  0
 11 41  1  0
 12 42  1  0
 12 43  1  0
 14 44  1  0
 17 45  1  0
 19 46  1  0
 19 47  1  0
 23 48  1  0
 24 49  1  0
 25 50  1  0
 29 51  1  0
 30 52  1  0
 30 53  1  0
 31 54  1  0
 31 55  1  0
 32 56  1  0
 32 57  1  0
 33 58  1  0
M  END
$$$$
[H]c1c([H])c([H])c(S(=O)(=O)c2c([H])c([H])c(N3C([H])([H])C([H])([H])N(C([H])([H])[H])C([H])([H])C3([H])[H])c(F)c2[H])c(C(=O)N([H])S(=O)(=O)c2sc3c([H])c([H])c([H])c([H])c3c2N([H])[H])c1[H]
     RDKit          3D

 64 68  0  0  0  0  0  0  0  0999 V2000
   -8.9567    2.0825   -0.1681 C   0  0  0  0  0  0  0  0  0  0  0  0
   -7.8282    1.3403   -0.7111 N   0  0  0  0  0  0  0  0  0  0  0  0
   -6.6923    1.7184    0.1468 C   0  0  0  0  0  0  0  0  0  0  0  0
   -6.1605    0.4724    0.8348 C   0  0  0  0  0  0  0  0  0  0  0  0
   -5.8602   -0.5389   -0.1856 N   0  0  0  0  0  0  0  0  0  0  0  0
   -6.9727   -0.9768   -0.9855 C   0  0  0  0  0  0  0  0  0  0  0  0
   -8.1382   -0.0650   -0.5921 C   0  0  0  0  0  0  0  0  0  0  0  0
   -4.5606   -1.0126   -0.3157 C   0  0  0  0  0  0  0  0  0  0  0  0
   -3.6745   -0.3432   -1.1157 C   0  0  0  0  0  0  0  0  0  0  0  0
   -2.3332   -0.6362   -1.2164 C   0  0  0  0  0  0  0  0  0  0  0  0
   -1.8173   -1.6879   -0.4522 C   0  0  0  0  0  0  0  0  0  0  0  0
   -2.7196   -2.3637    0.3464 C   0  0  0  0  0  0  0  0  0  0  0  0
   -4.0476   -2.0669    0.4311 C   0  0  0  0  0  0  0  0  0  0  0  0
   -4.8691   -2.7805    1.1915 F   0  0  0  0  0  0  0  0  0  0  0  0
   -0.0701   -1.9592   -0.4349 S   0  0  0  0  0  0  0  0  0  0  0  0
    0.2013   -3.4456   -0.4629 O   0  0  0  0  0  0  0  0  0  0  0  0
    0.5393   -1.2794   -1.5803 O   0  0  0  0  0  0  0  0  0  0  0  0
    0.5050   -1.3070    1.1294 C   0  0  0  0  0  0  0  0  0  0  0  0
   -0.3866   -0.9192    2.0998 C   0  0  0  0  0  0  0  0  0  0  0  0
    0.0648   -0.5167    3.3705 C   0  0  0  0  0  0  0  0  0  0  0  0
    1.3888   -0.5118    3.6364 C   0  0  0  0  0  0  0  0  0  0  0  0
    2.2768   -0.8921    2.6742 C   0  0  0  0  0  0  0  0  0  0  0  0
    1.8118   -1.2922    1.3997 C   0  0  0  0  0  0  0  0  0  0  0  0
    2.9048   -1.5740    0.3821 C   0  0  0  0  0  0  0  0  0  0  0  0
    3.1988   -2.7903    0.3690 O   0  0  0  0  0  0  0  0  0  0  0  0
    3.3436   -0.4716   -0.2771 N   0  0  0  0  0  0  0  0  0  0  0  0
    3.8746    0.8540   -1.0731 S   0  0  0  0  0  0  0  0  0  0  0  0
    3.6470    0.8133   -2.5700 O   0  0  0  0  0  0  0  0  0  0  0  0
    3.1089    2.1332   -0.6517 O   0  0  0  0  0  0  0  0  0  0  0  0
    5.5892    1.1773   -0.7558 C   0  0  0  0  0  0  0  0  0  0  0  0
    6.2068    2.1866    0.4347 S   0  0  0  0  0  0  0  0  0  0  0  0
    7.8947    1.9275    0.1871 C   0  0  0  0  0  0  0  0  0  0  0  0
    9.0606    2.4128    0.8077 C   0  0  0  0  0  0  0  0  0  0  0  0
   10.3129    1.9861    0.3763 C   0  0  0  0  0  0  0  0  0  0  0  0
   10.2840    1.0908   -0.6617 C   0  0  0  0  0  0  0  0  0  0  0  0
    9.1763    0.6066   -1.2828 C   0  0  0  0  0  0  0  0  0  0  0  0
    7.9029    1.0420   -0.8439 C   0  0  0  0  0  0  0  0  0  0  0  0
    6.6920    0.6514   -1.3351 C   0  0  0  0  0  0  0  0  0  0  0  0
    6.4952   -0.2884   -2.4271 N   0  0  0  0  0  0  0  0  0  0  0  0
   -8.9772    3.1003   -0.6194 H   0  0  0  0  0  0  0  0  0  0  0  0
   -9.8699    1.5036   -0.4069 H   0  0  0  0  0  0  0  0  0  0  0  0
   -8.9052    2.1457    0.9171 H   0  0  0  0  0  0  0  0  0  0  0  0
   -5.9260    2.1255   -0.5352 H   0  0  0  0  0  0  0  0  0  0  0  0
   -6.9360    2.4708    0.9018 H   0  0  0  0  0  0  0  0  0  0  0  0
   -6.8020    0.0785    1.6171 H   0  0  0  0  0  0  0  0  0  0  0  0
   -5.1785    0.7642    1.2991 H   0  0  0  0  0  0  0  0  0  0  0  0
   -6.7640   -0.9660   -2.0371 H   0  0  0  0  0  0  0  0  0  0  0  0
   -7.2889   -2.0003   -0.6248 H   0  0  0  0  0  0  0  0  0  0  0  0
   -8.9593   -0.2734   -1.3442 H   0  0  0  0  0  0  0  0  0  0  0  0
   -8.5192   -0.3024    0.4042 H   0  0  0  0  0  0  0  0  0  0  0  0
   -4.0728    0.4908   -1.7353 H   0  0  0  0  0  0  0  0  0  0  0  0
   -1.6600   -0.0613   -1.8360 H   0  0  0  0  0  0  0  0  0  0  0  0
   -2.2645   -3.1852    0.9257 H   0  0  0  0  0  0  0  0  0  0  0  0
   -1.4478   -0.8887    1.9099 H   0  0  0  0  0  0  0  0  0  0  0  0
   -0.7002   -0.2075    4.1234 H   0  0  0  0  0  0  0  0  0  0  0  0
    1.7550   -0.2204    4.6267 H   0  0  0  0  0  0  0  0  0  0  0  0
    3.3617   -0.8891    2.8309 H   0  0  0  0  0  0  0  0  0  0  0  0
    4.2090   -1.2886   -1.0084 H   0  0  0  0  0  0  0  0  0  0  0  0
    8.9571    3.1029    1.6111 H   0  0  0  0  0  0  0  0  0  0  0  0
   11.1840    2.3435    0.8816 H   0  0  0  0  0  0  0  0  0  0  0  0
   11.2522    0.7165   -1.0141 H   0  0  0  0  0  0  0  0  0  0  0  0
    9.2876   -0.0850   -2.1005 H   0  0  0  0  0  0  0  0  0  0  0  0
    6.5054    0.0435   -3.3931 H   0  0  0  0  0  0  0  0  0  0  0  0
    6.3670   -1.2941   -2.1590 H   0  0  0  0  0  0  0  0  0  0  0  0
  1  2  1  0
  2  3  1  0
  3  4  1  0
  4  5  1  0
  5  6  1  0
  6  7  1  0
  5  8  1  0
  8  9  2  0
  9 10  1  0
 10 11  2  0
 11 12  1  0
 12 13  2  0
 13 14  1  0
 11 15  1  0
 15 16  2  0
 15 17  2  0
 15 18  1  0
 18 19  2  0
 19 20  1  0
 20 21  2  0
 21 22  1  0
 22 23  2  0
 23 24  1  0
 24 25  2  0
 24 26  1  0
 26 27  1  0
 27 28  2  0
 27 29  2  0
 27 30  1  0
 30 31  1  0
 31 32  1  0
 32 33  2  0
 33 34  1  0
 34 35  2  0
 35 36  1  0
 36 37  2  0
 37 38  1  0
 38 39  1  0
  7  2  1  0
 13  8  1  0
 23 18  1  0
 38 30  2  0
 37 32  1  0
  1 40  1  0
  1 41  1  0
  1 42  1  0
  3 43  1  0
  3 44  1  0
  4 45  1  0
  4 46  1  0
  6 47  1  0
  6 48  1  0
  7 49  1  0
  7 50  1  0
  9 51  1  0
 10 52  1  0
 12 53  1  0
 19 54  1  0
 20 55  1  0
 21 56  1  0
 22 57  1  0
 26 58  1  0
 33 59  1  0
 34 60  1  0
 35 61  1  0
 36 62  1  0
 39 63  1  0
 39 64  1  0
M  END
$$$$
[H]c1nc(N([H])[H])nc(-c2c([H])c([H])c(C(=O)N3C([H])([H])C(C([H])([H])[H])(C([H])([H])[H])C([H])([H])[C@@]([H])(N([H])[H])C([H])([H])C3([H])[H])c(F)c2[H])c1SC([H])([H])c1c([H])c([H])c(C(F)(F)F)c([H])c1[H]
     RDKit          3D

 67 70  0  0  0  0  0  0  0  0999 V2000
    3.3451    5.2062    0.7292 N   0  0  0  0  0  0  0  0  0  0  0  0
    3.4471    3.8777    0.2480 C   0  0  0  0  0  0  0  0  0  0  0  0
    4.6486    3.2727    0.1163 N   0  0  0  0  0  0  0  0  0  0  0  0
    4.7092    2.0247   -0.3129 C   0  0  0  0  0  0  0  0  0  0  0  0
    3.5367    1.3128   -0.6333 C   0  0  0  0  0  0  0  0  0  0  0  0
    3.6656   -0.3330   -1.2338 S   0  0  0  0  0  0  0  0  0  0  0  0
    4.0868   -1.5973   -0.0519 C   0  0  0  0  0  0  0  0  0  0  0  0
    5.5091   -1.4860    0.3668 C   0  0  0  0  0  0  0  0  0  0  0  0
    5.8425   -0.8298    1.5230 C   0  0  0  0  0  0  0  0  0  0  0  0
    7.1987   -0.6724    1.8664 C   0  0  0  0  0  0  0  0  0  0  0  0
    8.1468   -1.1856    1.0248 C   0  0  0  0  0  0  0  0  0  0  0  0
    7.7934   -1.8557   -0.1490 C   0  0  0  0  0  0  0  0  0  0  0  0
    6.4602   -2.0138   -0.4919 C   0  0  0  0  0  0  0  0  0  0  0  0
    9.5983   -1.0131    1.3464 C   0  0  0  0  0  0  0  0  0  0  0  0
    9.8270    0.3449    1.5264 F   0  0  0  0  0  0  0  0  0  0  0  0
   10.3331   -1.4646    0.2591 F   0  0  0  0  0  0  0  0  0  0  0  0
    9.8938   -1.6656    2.5049 F   0  0  0  0  0  0  0  0  0  0  0  0
    2.3316    1.9352   -0.4996 C   0  0  0  0  0  0  0  0  0  0  0  0
    2.3458    3.2335   -0.0497 N   0  0  0  0  0  0  0  0  0  0  0  0
    1.0115    1.4015   -0.8896 C   0  0  0  0  0  0  0  0  0  0  0  0
   -0.1122    1.8824   -0.1967 C   0  0  0  0  0  0  0  0  0  0  0  0
   -1.3956    1.4782   -0.4796 C   0  0  0  0  0  0  0  0  0  0  0  0
   -1.6316    0.5488   -1.4910 C   0  0  0  0  0  0  0  0  0  0  0  0
   -2.9440    0.0421   -1.8363 C   0  0  0  0  0  0  0  0  0  0  0  0
   -3.4417    0.5092   -2.9181 O   0  0  0  0  0  0  0  0  0  0  0  0
   -3.7261   -0.8760   -1.1385 N   0  0  0  0  0  0  0  0  0  0  0  0
   -3.2635   -1.4145    0.1187 C   0  0  0  0  0  0  0  0  0  0  0  0
   -4.1929   -1.1406    1.2600 C   0  0  0  0  0  0  0  0  0  0  0  0
   -5.0565    0.0554    1.1553 C   0  0  2  0  0  0  0  0  0  0  0  0
   -6.0043    0.0151    2.2786 N   0  0  0  0  0  0  0  0  0  0  0  0
   -5.7732    0.3284   -0.0832 C   0  0  0  0  0  0  0  0  0  0  0  0
   -6.1725   -0.7682   -0.9759 C   0  0  0  0  0  0  0  0  0  0  0  0
   -6.9470   -1.8898   -0.3456 C   0  0  0  0  0  0  0  0  0  0  0  0
   -7.1457   -0.1413   -2.0092 C   0  0  0  0  0  0  0  0  0  0  0  0
   -4.9777   -1.2548   -1.7580 C   0  0  0  0  0  0  0  0  0  0  0  0
   -0.5404    0.0763   -2.1637 C   0  0  0  0  0  0  0  0  0  0  0  0
   -0.7102   -0.8234   -3.1473 F   0  0  0  0  0  0  0  0  0  0  0  0
    0.7791    0.4926   -1.8784 C   0  0  0  0  0  0  0  0  0  0  0  0
    3.8494    5.4647    1.5926 H   0  0  0  0  0  0  0  0  0  0  0  0
    2.7788    5.9081    0.2285 H   0  0  0  0  0  0  0  0  0  0  0  0
    5.6692    1.5111   -0.4542 H   0  0  0  0  0  0  0  0  0  0  0  0
    3.9478   -2.5932   -0.4997 H   0  0  0  0  0  0  0  0  0  0  0  0
    3.4051   -1.5534    0.8357 H   0  0  0  0  0  0  0  0  0  0  0  0
    5.1306   -0.4080    2.2177 H   0  0  0  0  0  0  0  0  0  0  0  0
    7.4401   -0.1553    2.7764 H   0  0  0  0  0  0  0  0  0  0  0  0
    8.5373   -2.2643   -0.8080 H   0  0  0  0  0  0  0  0  0  0  0  0
    6.2182   -2.5412   -1.3981 H   0  0  0  0  0  0  0  0  0  0  0  0
    0.0854    2.6071    0.5731 H   0  0  0  0  0  0  0  0  0  0  0  0
   -2.2643    1.8503    0.0495 H   0  0  0  0  0  0  0  0  0  0  0  0
   -2.2436   -1.0244    0.3013 H   0  0  0  0  0  0  0  0  0  0  0  0
   -3.1733   -2.5095    0.0136 H   0  0  0  0  0  0  0  0  0  0  0  0
   -3.5618   -1.0171    2.1681 H   0  0  0  0  0  0  0  0  0  0  0  0
   -4.8476   -2.0351    1.5169 H   0  0  0  0  0  0  0  0  0  0  0  0
   -4.4188    0.9645    1.4020 H   0  0  0  0  0  0  0  0  0  0  0  0
   -6.2777   -0.9286    2.5580 H   0  0  0  0  0  0  0  0  0  0  0  0
   -6.7479    0.7074    2.1903 H   0  0  0  0  0  0  0  0  0  0  0  0
   -5.1867    1.0739   -0.7064 H   0  0  0  0  0  0  0  0  0  0  0  0
   -6.7165    0.9120    0.1566 H   0  0  0  0  0  0  0  0  0  0  0  0
   -6.3242   -2.8146   -0.2775 H   0  0  0  0  0  0  0  0  0  0  0  0
   -7.8067   -2.2033   -1.0130 H   0  0  0  0  0  0  0  0  0  0  0  0
   -7.4379   -1.6316    0.6034 H   0  0  0  0  0  0  0  0  0  0  0  0
   -6.5173    0.4856   -2.7089 H   0  0  0  0  0  0  0  0  0  0  0  0
   -7.8641    0.5344   -1.5003 H   0  0  0  0  0  0  0  0  0  0  0  0
   -7.6209   -0.9288   -2.5934 H   0  0  0  0  0  0  0  0  0  0  0  0
   -5.0176   -0.7380   -2.7581 H   0  0  0  0  0  0  0  0  0  0  0  0
   -5.0674   -2.3636   -1.8940 H   0  0  0  0  0  0  0  0  0  0  0  0
    1.5577    0.0788   -2.4875 H   0  0  0  0  0  0  0  0  0  0  0  0
  1  2  1  0
  2  3  2  0
  3  4  1  0
  4  5  2  0
  5  6  1  0
  6  7  1  0
  7  8  1  0
  8  9  2  0
  9 10  1  0
 10 11  2  0
 11 12  1  0
 12 13  2  0
 11 14  1  0
 14 15  1  0
 14 16  1  0
 14 17  1  0
  5 18  1  0
 18 19  2  0
 18 20  1  0
 20 21  2  0
 21 22  1  0
 22 23  2  0
 23 24  1  0
 24 25  2  0
 24 26  1  0
 26 27  1  0
 27 28  1  0
 28 29  1  0
 29 30  1  0
 29 31  1  0
 31 32  1  0
 32 33  1  0
 32 34  1  0
 32 35  1  0
 23 36  1  0
 36 37  1  0
 36 38  2  0
 19  2  1  0
 38 20  1  0
 13  8  1  0
 35 26  1  0
  1 39  1  0
  1 40  1  0
  4 41  1  0
  7 42  1  0
  7 43  1  0
  9 44  1  0
 10 45  1  0
 12 46  1  0
 13 47  1  0
 21 48  1  0
 22 49  1  0
 27 50  1  0
 27 51  1  0
 28 52  1  0
 28 53  1  0
 29 54  1  1
 30 55  1  0
 30 56  1  0
 31 57  1  0
 31 58  1  0
 33 59  1  0
 33 60  1  0
 33 61  1  0
 34 62  1  0
 34 63  1  0
 34 64  1  0
 35 65  1  0
 35 66  1  0
 38 67  1  0
M  END
$$$$
[H]On1nc([H])c(-c2c([H])c(N([H])[H])c3nc(-c4c([H])c([H])c(OC([H])([H])[H])c([H])c4[H])n([H])c3c2[H])c1[H]
     RDKit          3D

 39 42  0  0  0  0  0  0  0  0999 V2000
    7.5699    0.6636    0.5691 C   0  0  0  0  0  0  0  0  0  0  0  0
    6.7780    0.6294   -0.6146 O   0  0  0  0  0  0  0  0  0  0  0  0
    5.3926    0.4903   -0.4578 C   0  0  0  0  0  0  0  0  0  0  0  0
    4.8110    0.3899    0.7939 C   0  0  0  0  0  0  0  0  0  0  0  0
    3.4463    0.2536    0.9321 C   0  0  0  0  0  0  0  0  0  0  0  0
    2.6071    0.2123   -0.1786 C   0  0  0  0  0  0  0  0  0  0  0  0
    3.1766    0.3106   -1.4061 C   0  0  0  0  0  0  0  0  0  0  0  0
    4.5475    0.4476   -1.5471 C   0  0  0  0  0  0  0  0  0  0  0  0
    1.1534    0.0655    0.0088 C   0  0  0  0  0  0  0  0  0  0  0  0
    0.5104   -0.0382    1.1846 N   0  0  0  0  0  0  0  0  0  0  0  0
   -0.8213   -0.1603    1.0004 C   0  0  0  0  0  0  0  0  0  0  0  0
   -1.9071   -0.2949    1.8336 C   0  0  0  0  0  0  0  0  0  0  0  0
   -1.6946   -0.3225    3.2228 N   0  0  0  0  0  0  0  0  0  0  0  0
   -3.1727   -0.3990    1.3116 C   0  0  0  0  0  0  0  0  0  0  0  0
   -3.4128   -0.3738   -0.0594 C   0  0  0  0  0  0  0  0  0  0  0  0
   -2.3065   -0.2378   -0.8743 C   0  0  0  0  0  0  0  0  0  0  0  0
   -1.0133   -0.1306   -0.3652 C   0  0  0  0  0  0  0  0  0  0  0  0
    0.2076    0.0077   -0.9385 N   0  0  0  0  0  0  0  0  0  0  0  0
   -4.7728   -0.4872   -0.5903 C   0  0  0  0  0  0  0  0  0  0  0  0
   -5.7658   -1.2243    0.0353 C   0  0  0  0  0  0  0  0  0  0  0  0
   -6.9079   -1.1330   -0.6982 N   0  0  0  0  0  0  0  0  0  0  0  0
   -6.6367   -0.3606   -1.7527 N   0  0  0  0  0  0  0  0  0  0  0  0
   -7.5739   -0.0455   -2.7260 O   0  0  0  0  0  0  0  0  0  0  0  0
   -5.3429    0.0414   -1.7039 C   0  0  0  0  0  0  0  0  0  0  0  0
    7.2463    1.5300    1.2168 H   0  0  0  0  0  0  0  0  0  0  0  0
    8.6348    0.6997    0.3450 H   0  0  0  0  0  0  0  0  0  0  0  0
    7.3385   -0.2456    1.1864 H   0  0  0  0  0  0  0  0  0  0  0  0
    5.4373    0.4191    1.6694 H   0  0  0  0  0  0  0  0  0  0  0  0
    3.0043    0.1756    1.9329 H   0  0  0  0  0  0  0  0  0  0  0  0
    2.5349    0.2805   -2.2954 H   0  0  0  0  0  0  0  0  0  0  0  0
    4.9836    0.5244   -2.5276 H   0  0  0  0  0  0  0  0  0  0  0  0
   -1.4323   -1.2033    3.6907 H   0  0  0  0  0  0  0  0  0  0  0  0
   -1.8008    0.5399    3.7781 H   0  0  0  0  0  0  0  0  0  0  0  0
   -4.0115   -0.5031    1.9608 H   0  0  0  0  0  0  0  0  0  0  0  0
   -2.4494   -0.2146   -1.9324 H   0  0  0  0  0  0  0  0  0  0  0  0
    0.3869    0.0614   -1.9661 H   0  0  0  0  0  0  0  0  0  0  0  0
   -5.7221   -1.7998    0.9488 H   0  0  0  0  0  0  0  0  0  0  0  0
   -8.1968    0.7522   -2.5893 H   0  0  0  0  0  0  0  0  0  0  0  0
   -4.8259    0.6794   -2.4232 H   0  0  0  0  0  0  0  0  0  0  0  0
  1  2  1  0
  2  3  1  0
  3  4  2  0
  4  5  1  0
  5  6  2  0
  6  7  1  0
  7  8  2  0
  6  9  1  0
  9 10  2  0
 10 11  1  0
 11 12  2  0
 12 13  1  0
 12 14  1  0
 14 15  2  0
 15 16  1  0
 16 17  2  0
 17 18  1  0
 15 19  1  0
 19 20  1  0
 20 21  2  0
 21 22  1  0
 22 23  1  0
 22 24  1  0
  8  3  1  0
 18  9  1  0
 24 19  2  0
 17 11  1  0
  1 25  1  0
  1 26  1  0
  1 27  1  0
  4 28  1  0
  5 29  1  0
  7 30  1  0
  8 31  1  0
 13 32  1  0
 13 33  1  0
 14 34  1  0
 16 35  1  0
 18 36  1  0
 20 37  1  0
 23 38  1  0
 24 39  1  0
M  END
$$$$
[H]OC(=O)c1c([H])c([H])c(N([H])c2nc([H])c(F)c(-c3c(F)nc([H])c([H])c3[H])n2)c(C([H])([H])[H])c1[H]
     RDKit          3D

 37 39  0  0  0  0  0  0  0  0999 V2000
    3.5223    2.3392    1.4357 C   0  0  0  0  0  0  0  0  0  0  0  0
    3.1549    1.0939    0.6935 C   0  0  0  0  0  0  0  0  0  0  0  0
    4.1230    0.3240    0.0983 C   0  0  0  0  0  0  0  0  0  0  0  0
    3.8572   -0.8381   -0.6091 C   0  0  0  0  0  0  0  0  0  0  0  0
    2.5530   -1.2630   -0.7335 C   0  0  0  0  0  0  0  0  0  0  0  0
    1.5656   -0.4743   -0.1249 C   0  0  0  0  0  0  0  0  0  0  0  0
    1.8271    0.6744    0.5745 C   0  0  0  0  0  0  0  0  0  0  0  0
    0.8471    1.4417    1.1936 N   0  0  0  0  0  0  0  0  0  0  0  0
   -0.5588    1.3377    1.1601 C   0  0  0  0  0  0  0  0  0  0  0  0
   -1.2963    2.2346    1.8965 N   0  0  0  0  0  0  0  0  0  0  0  0
   -2.6212    2.2659    1.9362 C   0  0  0  0  0  0  0  0  0  0  0  0
   -3.3114    1.3383    1.1898 C   0  0  0  0  0  0  0  0  0  0  0  0
   -4.6538    1.3131    1.1822 F   0  0  0  0  0  0  0  0  0  0  0  0
   -2.6231    0.3951    0.4153 C   0  0  0  0  0  0  0  0  0  0  0  0
   -1.2916    0.4739    0.4662 N   0  0  0  0  0  0  0  0  0  0  0  0
   -3.3762   -0.5676   -0.3723 C   0  0  0  0  0  0  0  0  0  0  0  0
   -4.3524   -0.1672   -1.2756 C   0  0  0  0  0  0  0  0  0  0  0  0
   -5.0723   -1.0717   -2.0270 C   0  0  0  0  0  0  0  0  0  0  0  0
   -4.8187   -2.4076   -1.8796 C   0  0  0  0  0  0  0  0  0  0  0  0
   -3.8770   -2.8049   -1.0088 N   0  0  0  0  0  0  0  0  0  0  0  0
   -3.1571   -1.9206   -0.2589 C   0  0  0  0  0  0  0  0  0  0  0  0
   -2.2036   -2.3344    0.6230 F   0  0  0  0  0  0  0  0  0  0  0  0
    4.9333   -1.6201   -1.2183 C   0  0  0  0  0  0  0  0  0  0  0  0
    4.6489   -2.7650   -1.9312 O   0  0  0  0  0  0  0  0  0  0  0  0
    6.1042   -1.2116   -1.0669 O   0  0  0  0  0  0  0  0  0  0  0  0
    3.1580    2.3285    2.4815 H   0  0  0  0  0  0  0  0  0  0  0  0
    4.6218    2.4214    1.4596 H   0  0  0  0  0  0  0  0  0  0  0  0
    3.1590    3.2413    0.8646 H   0  0  0  0  0  0  0  0  0  0  0  0
    5.1690    0.6552    0.1898 H   0  0  0  0  0  0  0  0  0  0  0  0
    2.3295   -2.1659   -1.2794 H   0  0  0  0  0  0  0  0  0  0  0  0
    0.5727   -0.8776   -0.2609 H   0  0  0  0  0  0  0  0  0  0  0  0
    1.2162    2.2558    1.8088 H   0  0  0  0  0  0  0  0  0  0  0  0
   -3.1492    3.0095    2.5471 H   0  0  0  0  0  0  0  0  0  0  0  0
   -4.5281    0.9001   -1.3671 H   0  0  0  0  0  0  0  0  0  0  0  0
   -5.8408   -0.7240   -2.7351 H   0  0  0  0  0  0  0  0  0  0  0  0
   -5.3876   -3.1339   -2.4757 H   0  0  0  0  0  0  0  0  0  0  0  0
    4.7564   -3.6960   -1.5916 H   0  0  0  0  0  0  0  0  0  0  0  0
  1  2  1  0
  2  3  2  0
  3  4  1  0
  4  5  2  0
  5  6  1  0
  6  7  2  0
  7  8  1  0
  8  9  1  0
  9 10  2  0
 10 11  1  0
 11 12  2  0
 12 13  1  0
 12 14  1  0
 14 15  2  0
 14 16  1  0
 16 17  2  0
 17 18  1  0
 18 19  2  0
 19 20  1  0
 20 21  2  0
 21 22  1  0
  4 23  1  0
 23 24  1  0
 23 25  2  0
  7  2  1  0
 15  9  1  0
 21 16  1  0
  1 26  1  0
  1 27  1  0
  1 28  1  0
  3 29  1  0
  5 30  1  0
  6 31  1  0
  8 32  1  0
 11 33  1  0
 17 34  1  0
 18 35  1  0
 19 36  1  0
 24 37  1  0
M  END
$$$$
[H]C1=C(N2C([H])([H])C([H])([H])C([H])([H])C([H])(C([H])(C#Cc3nc4c(C(=O)OC([H])([H])[H])c([H])c([H])c([H])c4s3)C([H])([H])[H])C([H])([H])C2([H])[H])C(=O)N1[H]
     RDKit          3D

 52 55  0  0  0  0  0  0  0  0999 V2000
    7.8778   -2.0631    0.1278 C   0  0  0  0  0  0  0  0  0  0  0  0
    7.5025   -0.7209    0.4163 O   0  0  0  0  0  0  0  0  0  0  0  0
    6.2253   -0.3059    0.1781 C   0  0  0  0  0  0  0  0  0  0  0  0
    5.3988   -1.1259   -0.2958 O   0  0  0  0  0  0  0  0  0  0  0  0
    5.7887    1.0565    0.4552 C   0  0  0  0  0  0  0  0  0  0  0  0
    6.6817    1.9402    0.9667 C   0  0  0  0  0  0  0  0  0  0  0  0
    6.4180    3.2477    1.2764 C   0  0  0  0  0  0  0  0  0  0  0  0
    5.1157    3.6664    1.0320 C   0  0  0  0  0  0  0  0  0  0  0  0
    4.1745    2.7714    0.5035 C   0  0  0  0  0  0  0  0  0  0  0  0
    2.5130    2.8535    0.0584 S   0  0  0  0  0  0  0  0  0  0  0  0
    2.3040    1.2452   -0.4732 C   0  0  0  0  0  0  0  0  0  0  0  0
    3.5068    0.7348   -0.2835 N   0  0  0  0  0  0  0  0  0  0  0  0
    4.4637    1.4662    0.2017 C   0  0  0  0  0  0  0  0  0  0  0  0
    1.1128    0.6095   -0.9965 C   0  0  0  0  0  0  0  0  0  0  0  0
    0.1261    0.0820   -1.4529 C   0  0  0  0  0  0  0  0  0  0  0  0
   -1.0584   -0.5742   -2.0166 C   0  0  0  0  0  0  0  0  0  0  0  0
   -0.7967   -2.0369   -2.1643 C   0  0  0  0  0  0  0  0  0  0  0  0
   -2.2277   -0.2146   -1.1705 C   0  0  0  0  0  0  0  0  0  0  0  0
   -3.5250   -0.8244   -1.6364 C   0  0  0  0  0  0  0  0  0  0  0  0
   -3.9015   -2.0738   -0.9197 C   0  0  0  0  0  0  0  0  0  0  0  0
   -4.5282   -1.8443    0.4349 C   0  0  0  0  0  0  0  0  0  0  0  0
   -4.3965   -0.4330    0.7414 N   0  0  0  0  0  0  0  0  0  0  0  0
   -3.1814    0.3285    0.9973 C   0  0  0  0  0  0  0  0  0  0  0  0
   -2.0087   -0.3851    0.3077 C   0  0  0  0  0  0  0  0  0  0  0  0
   -5.6327    0.2676    0.7911 C   0  0  0  0  0  0  0  0  0  0  0  0
   -6.8407    0.2192    0.2527 C   0  0  0  0  0  0  0  0  0  0  0  0
   -7.3544    1.3407    0.9384 N   0  0  0  0  0  0  0  0  0  0  0  0
   -6.0746    1.4383    1.5460 C   0  0  0  0  0  0  0  0  0  0  0  0
   -5.5877    2.2396    2.3892 O   0  0  0  0  0  0  0  0  0  0  0  0
    8.9726   -2.1180    0.3240 H   0  0  0  0  0  0  0  0  0  0  0  0
    7.7328   -2.2965   -0.9507 H   0  0  0  0  0  0  0  0  0  0  0  0
    7.3686   -2.7912    0.7625 H   0  0  0  0  0  0  0  0  0  0  0  0
    7.7168    1.6165    1.1637 H   0  0  0  0  0  0  0  0  0  0  0  0
    7.1148    3.9613    1.6827 H   0  0  0  0  0  0  0  0  0  0  0  0
    4.7725    4.6530    1.2249 H   0  0  0  0  0  0  0  0  0  0  0  0
   -1.2618   -0.1730   -3.0435 H   0  0  0  0  0  0  0  0  0  0  0  0
   -0.6977   -2.5872   -1.2234 H   0  0  0  0  0  0  0  0  0  0  0  0
    0.1554   -2.1694   -2.7185 H   0  0  0  0  0  0  0  0  0  0  0  0
   -1.5811   -2.5437   -2.7643 H   0  0  0  0  0  0  0  0  0  0  0  0
   -2.3806    0.9008   -1.3072 H   0  0  0  0  0  0  0  0  0  0  0  0
   -3.3583   -1.1085   -2.7166 H   0  0  0  0  0  0  0  0  0  0  0  0
   -4.3652   -0.1013   -1.6660 H   0  0  0  0  0  0  0  0  0  0  0  0
   -3.0658   -2.7827   -0.8935 H   0  0  0  0  0  0  0  0  0  0  0  0
   -4.6985   -2.5738   -1.5463 H   0  0  0  0  0  0  0  0  0  0  0  0
   -4.0089   -2.4724    1.2074 H   0  0  0  0  0  0  0  0  0  0  0  0
   -5.5828   -2.1486    0.4783 H   0  0  0  0  0  0  0  0  0  0  0  0
   -2.9565    0.3414    2.0846 H   0  0  0  0  0  0  0  0  0  0  0  0
   -3.2851    1.3623    0.6186 H   0  0  0  0  0  0  0  0  0  0  0  0
   -1.0956    0.1320    0.6236 H   0  0  0  0  0  0  0  0  0  0  0  0
   -2.0234   -1.4084    0.6617 H   0  0  0  0  0  0  0  0  0  0  0  0
   -7.2909   -0.4542   -0.4729 H   0  0  0  0  0  0  0  0  0  0  0  0
   -8.2766    1.8569    0.9704 H   0  0  0  0  0  0  0  0  0  0  0  0
  1  2  1  0
  2  3  1  0
  3  4  2  0
  3  5  1  0
  5  6  2  0
  6  7  1  0
  7  8  2  0
  8  9  1  0
  9 10  1  0
 10 11  1  0
 11 12  2  0
 12 13  1  0
 11 14  1  0
 14 15  3  0
 15 16  1  0
 16 17  1  0
 16 18  1  0
 18 19  1  0
 19 20  1  0
 20 21  1  0
 21 22  1  0
 22 23  1  0
 23 24  1  0
 22 25  1  0
 25 26  2  0
 26 27  1  0
 27 28  1  0
 28 29  2  0
 13  5  1  0
 24 18  1  0
 28 25  1  0
 13  9  2  0
  1 30  1  0
  1 31  1  0
  1 32  1  0
  6 33  1  0
  7 34  1  0
  8 35  1  0
 16 36  1  0
 17 37  1  0
 17 38  1  0
 17 39  1  0
 18 40  1  0
 19 41  1  0
 19 42  1  0
 20 43  1  0
 20 44  1  0
 21 45  1  0
 21 46  1  0
 23 47  1  0
 23 48  1  0
 24 49  1  0
 24 50  1  0
 26 51  1  0
 27 52  1  0
M  END
$$$$
[H]c1c([H])c(N([H])C(=O)Oc2c([H])c(OC([H])([H])C([H])([H])C([H])([H])[H])c([H])c([H])c2C([H])([H])[H])c([H])c([H])c1F
     RDKit          3D

 40 41  0  0  0  0  0  0  0  0999 V2000
   -4.4523    2.3509   -0.1543 C   0  0  0  0  0  0  0  0  0  0  0  0
   -5.1900    1.0001   -0.1176 C   0  0  0  0  0  0  0  0  0  0  0  0
   -4.9295    0.4155    1.2434 C   0  0  0  0  0  0  0  0  0  0  0  0
   -3.6050    0.2126    1.4728 O   0  0  0  0  0  0  0  0  0  0  0  0
   -2.7357   -0.6282    0.8882 C   0  0  0  0  0  0  0  0  0  0  0  0
   -3.0649   -1.5147   -0.0773 C   0  0  0  0  0  0  0  0  0  0  0  0
   -2.0754   -2.3451   -0.6278 C   0  0  0  0  0  0  0  0  0  0  0  0
   -0.7784   -2.2603   -0.1885 C   0  0  0  0  0  0  0  0  0  0  0  0
    0.2190   -3.1624   -0.8078 C   0  0  0  0  0  0  0  0  0  0  0  0
   -0.4402   -1.3547    0.8002 C   0  0  0  0  0  0  0  0  0  0  0  0
    0.8714   -1.2990    1.2157 O   0  0  0  0  0  0  0  0  0  0  0  0
    1.7661   -0.4158    0.5591 C   0  0  0  0  0  0  0  0  0  0  0  0
    1.2520    0.2430   -0.3606 O   0  0  0  0  0  0  0  0  0  0  0  0
    3.0981   -0.3615    0.9835 N   0  0  0  0  0  0  0  0  0  0  0  0
    4.1025    0.4699    0.4303 C   0  0  0  0  0  0  0  0  0  0  0  0
    3.9043    1.4756   -0.4762 C   0  0  0  0  0  0  0  0  0  0  0  0
    4.9602    2.2453   -0.9846 C   0  0  0  0  0  0  0  0  0  0  0  0
    6.2544    2.0216   -0.5905 C   0  0  0  0  0  0  0  0  0  0  0  0
    7.2561    2.7853   -1.1022 F   0  0  0  0  0  0  0  0  0  0  0  0
    6.4836    1.0197    0.3179 C   0  0  0  0  0  0  0  0  0  0  0  0
    5.4452    0.2746    0.8073 C   0  0  0  0  0  0  0  0  0  0  0  0
   -1.4061   -0.5459    1.3349 C   0  0  0  0  0  0  0  0  0  0  0  0
   -4.7881    2.9438   -1.0322 H   0  0  0  0  0  0  0  0  0  0  0  0
   -3.3773    2.1644   -0.2363 H   0  0  0  0  0  0  0  0  0  0  0  0
   -4.6775    2.8549    0.7962 H   0  0  0  0  0  0  0  0  0  0  0  0
   -6.2872    1.1837   -0.1670 H   0  0  0  0  0  0  0  0  0  0  0  0
   -4.8124    0.3704   -0.9081 H   0  0  0  0  0  0  0  0  0  0  0  0
   -5.5599   -0.5287    1.3729 H   0  0  0  0  0  0  0  0  0  0  0  0
   -5.3787    1.1438    1.9992 H   0  0  0  0  0  0  0  0  0  0  0  0
   -4.0810   -1.6498   -0.4468 H   0  0  0  0  0  0  0  0  0  0  0  0
   -2.3863   -3.0396   -1.4003 H   0  0  0  0  0  0  0  0  0  0  0  0
    0.5365   -2.8269   -1.8183 H   0  0  0  0  0  0  0  0  0  0  0  0
   -0.2252   -4.1752   -0.8889 H   0  0  0  0  0  0  0  0  0  0  0  0
    1.1241   -3.2637   -0.1757 H   0  0  0  0  0  0  0  0  0  0  0  0
    3.3672   -1.0042    1.7958 H   0  0  0  0  0  0  0  0  0  0  0  0
    2.9124    1.7108   -0.8228 H   0  0  0  0  0  0  0  0  0  0  0  0
    4.7783    3.0322   -1.6984 H   0  0  0  0  0  0  0  0  0  0  0  0
    7.5048    0.8205    0.6488 H   0  0  0  0  0  0  0  0  0  0  0  0
    5.6095   -0.5336    1.5362 H   0  0  0  0  0  0  0  0  0  0  0  0
   -1.1947    0.1706    2.1018 H   0  0  0  0  0  0  0  0  0  0  0  0
  1  2  1  0
  2  3  1  0
  3  4  1  0
  4  5  1  0
  5  6  2  0
  6  7  1  0
  7  8  2  0
  8  9  1  0
  8 10  1  0
 10 11  1  0
 11 12  1  0
 12 13  2  0
 12 14  1  0
 14 15  1  0
 15 16  2  0
 16 17  1  0
 17 18  2  0
 18 19  1  0
 18 20  1  0
 20 21  2  0
 10 22  2  0
 22  5  1  0
 21 15  1  0
  1 23  1  0
  1 24  1  0
  1 25  1  0
  2 26  1  0
  2 27  1  0
  3 28  1  0
  3 29  1  0
  6 30  1  0
  7 31  1  0
  9 32  1  0
  9 33  1  0
  9 34  1  0
 14 35  1  0
 16 36  1  0
 17 37  1  0
 20 38  1  0
 21 39  1  0
 22 40  1  0
M  END
$$$$
[H]OC(=O)[C@@]([H])(N([H])C(=O)c1c([H])c(F)c([H])c(-c2noc(C([H])([H])C([H])([H])C([H])([H])C([H])([H])[H])n2)c1[H])C([H])([H])c1c([H])c([H])c([H])c([H])c1[H]
     RDKit          3D

 52 54  0  0  0  0  0  0  0  0999 V2000
    7.6832   -0.8060   -2.4159 C   0  0  0  0  0  0  0  0  0  0  0  0
    7.1484    0.5009   -1.9303 C   0  0  0  0  0  0  0  0  0  0  0  0
    7.5108    0.7828   -0.4883 C   0  0  0  0  0  0  0  0  0  0  0  0
    6.9848   -0.2534    0.4556 C   0  0  0  0  0  0  0  0  0  0  0  0
    5.5041   -0.3162    0.3761 C   0  0  0  0  0  0  0  0  0  0  0  0
    4.5695    0.3648    1.0776 N   0  0  0  0  0  0  0  0  0  0  0  0
    3.3477   -0.0068    0.6785 C   0  0  0  0  0  0  0  0  0  0  0  0
    3.5421   -0.9236   -0.2759 N   0  0  0  0  0  0  0  0  0  0  0  0
    4.8406   -1.0954   -0.4428 O   0  0  0  0  0  0  0  0  0  0  0  0
    2.0845    0.5134    1.2089 C   0  0  0  0  0  0  0  0  0  0  0  0
    2.0522    1.4650    2.1999 C   0  0  0  0  0  0  0  0  0  0  0  0
    0.8880    1.9753    2.7208 C   0  0  0  0  0  0  0  0  0  0  0  0
    0.8601    2.9064    3.6905 F   0  0  0  0  0  0  0  0  0  0  0  0
   -0.3389    1.5054    2.2203 C   0  0  0  0  0  0  0  0  0  0  0  0
   -0.3306    0.5554    1.2310 C   0  0  0  0  0  0  0  0  0  0  0  0
    0.8770    0.0712    0.7376 C   0  0  0  0  0  0  0  0  0  0  0  0
   -1.5993    0.0277    0.6806 C   0  0  0  0  0  0  0  0  0  0  0  0
   -1.5350   -0.6110   -0.4086 O   0  0  0  0  0  0  0  0  0  0  0  0
   -2.8127    0.2394    1.3583 N   0  0  0  0  0  0  0  0  0  0  0  0
   -4.1250   -0.2287    0.9196 C   0  0  1  0  0  0  0  0  0  0  0  0
   -4.4500    0.3981   -0.3807 C   0  0  0  0  0  0  0  0  0  0  0  0
   -5.7418    0.0583   -0.9952 C   0  0  0  0  0  0  0  0  0  0  0  0
   -5.9264   -0.9336   -1.9299 C   0  0  0  0  0  0  0  0  0  0  0  0
   -7.1534   -1.2219   -2.4828 C   0  0  0  0  0  0  0  0  0  0  0  0
   -8.2769   -0.5140   -2.1165 C   0  0  0  0  0  0  0  0  0  0  0  0
   -8.1224    0.4868   -1.1810 C   0  0  0  0  0  0  0  0  0  0  0  0
   -6.8908    0.7717   -0.6301 C   0  0  0  0  0  0  0  0  0  0  0  0
   -4.0754   -1.7013    0.9138 C   0  0  0  0  0  0  0  0  0  0  0  0
   -5.2432   -2.3998    0.5691 O   0  0  0  0  0  0  0  0  0  0  0  0
   -3.0229   -2.3593    1.2105 O   0  0  0  0  0  0  0  0  0  0  0  0
    6.9346   -1.6352   -2.3740 H   0  0  0  0  0  0  0  0  0  0  0  0
    8.5884   -1.0617   -1.7924 H   0  0  0  0  0  0  0  0  0  0  0  0
    7.9478   -0.7023   -3.4877 H   0  0  0  0  0  0  0  0  0  0  0  0
    6.0791    0.5946   -2.1265 H   0  0  0  0  0  0  0  0  0  0  0  0
    7.6472    1.3126   -2.5296 H   0  0  0  0  0  0  0  0  0  0  0  0
    8.5986    0.9323   -0.3622 H   0  0  0  0  0  0  0  0  0  0  0  0
    7.0027    1.7467   -0.2275 H   0  0  0  0  0  0  0  0  0  0  0  0
    7.4399   -1.2532    0.3022 H   0  0  0  0  0  0  0  0  0  0  0  0
    7.2708    0.0568    1.4814 H   0  0  0  0  0  0  0  0  0  0  0  0
    2.9859    1.8307    2.5893 H   0  0  0  0  0  0  0  0  0  0  0  0
   -1.2549    1.9168    2.6340 H   0  0  0  0  0  0  0  0  0  0  0  0
    0.8605   -0.6838   -0.0490 H   0  0  0  0  0  0  0  0  0  0  0  0
   -2.8091    0.7739    2.2647 H   0  0  0  0  0  0  0  0  0  0  0  0
   -4.8980    0.0528    1.7006 H   0  0  0  0  0  0  0  0  0  0  0  0
   -3.6305    0.2604   -1.1258 H   0  0  0  0  0  0  0  0  0  0  0  0
   -4.4863    1.5196   -0.1888 H   0  0  0  0  0  0  0  0  0  0  0  0
   -5.0528   -1.4940   -2.2236 H   0  0  0  0  0  0  0  0  0  0  0  0
   -7.2935   -2.0053   -3.2196 H   0  0  0  0  0  0  0  0  0  0  0  0
   -9.2375   -0.7549   -2.5629 H   0  0  0  0  0  0  0  0  0  0  0  0
   -9.0255    1.0299   -0.9099 H   0  0  0  0  0  0  0  0  0  0  0  0
   -6.8400    1.5680    0.0970 H   0  0  0  0  0  0  0  0  0  0  0  0
   -5.0757   -3.2566    0.0242 H   0  0  0  0  0  0  0  0  0  0  0  0
  1  2  1  0
  2  3  1  0
  3  4  1  0
  4  5  1  0
  5  6  2  0
  6  7  1  0
  7  8  2  0
  8  9  1  0
  7 10  1  0
 10 11  2  0
 11 12  1  0
 12 13  1  0
 12 14  2  0
 14 15  1  0
 15 16  2  0
 15 17  1  0
 17 18  2  0
 17 19  1  0
 19 20  1  0
 20 21  1  0
 21 22  1  0
 22 23  2  0
 23 24  1  0
 24 25  2  0
 25 26  1  0
 26 27  2  0
 20 28  1  0
 28 29  1  0
 28 30  2  0
  9  5  1  0
 16 10  1  0
 27 22  1  0
  1 31  1  0
  1 32  1  0
  1 33  1  0
  2 34  1  0
  2 35  1  0
  3 36  1  0
  3 37  1  0
  4 38  1  0
  4 39  1  0
 11 40  1  0
 14 41  1  0
 16 42  1  0
 19 43  1  0
 20 44  1  1
 21 45  1  0
 21 46  1  0
 23 47  1  0
 24 48  1  0
 25 49  1  0
 26 50  1  0
 27 51  1  0
 29 52  1  0
M  END
$$$$
[H]Oc1c([H])c([H])c(C(=O)N([H])[C@]([H])(C(F)(F)F)C([H])([H])C(C([H])([H])[H])(C([H])([H])[H])C([H])([H])[H])c([H])c1O[H]
     RDKit          3D

 39 39  0  0  0  0  0  0  0  0999 V2000
   -4.2215    0.5713   -0.8365 C   0  0  0  0  0  0  0  0  0  0  0  0
   -3.3004    0.3672    0.3053 C   0  0  0  0  0  0  0  0  0  0  0  0
   -3.5745    1.5646    1.2589 C   0  0  0  0  0  0  0  0  0  0  0  0
   -3.8208   -0.8296    1.1214 C   0  0  0  0  0  0  0  0  0  0  0  0
   -1.8602    0.3607    0.1115 C   0  0  0  0  0  0  0  0  0  0  0  0
   -1.0673   -0.5176   -0.7019 C   0  0  2  0  0  0  0  0  0  0  0  0
    0.3571   -0.1443   -0.5857 N   0  0  0  0  0  0  0  0  0  0  0  0
    1.3262   -0.9648    0.0175 C   0  0  0  0  0  0  0  0  0  0  0  0
    0.9572   -2.0695    0.4792 O   0  0  0  0  0  0  0  0  0  0  0  0
    2.7271   -0.6018    0.1338 C   0  0  0  0  0  0  0  0  0  0  0  0
    3.6277   -1.4771    0.7490 C   0  0  0  0  0  0  0  0  0  0  0  0
    4.9584   -1.1610    0.8735 C   0  0  0  0  0  0  0  0  0  0  0  0
    5.4693    0.0276    0.4009 C   0  0  0  0  0  0  0  0  0  0  0  0
    6.8355    0.3209    0.5439 O   0  0  0  0  0  0  0  0  0  0  0  0
    4.6087    0.9060   -0.2075 C   0  0  0  0  0  0  0  0  0  0  0  0
    5.0996    2.1038   -0.6887 O   0  0  0  0  0  0  0  0  0  0  0  0
    3.2729    0.5778   -0.3271 C   0  0  0  0  0  0  0  0  0  0  0  0
   -1.2603   -0.7772   -2.1264 C   0  0  0  0  0  0  0  0  0  0  0  0
   -2.4229   -1.3053   -2.5636 F   0  0  0  0  0  0  0  0  0  0  0  0
   -0.8244    0.2835   -2.9476 F   0  0  0  0  0  0  0  0  0  0  0  0
   -0.3025   -1.7615   -2.4813 F   0  0  0  0  0  0  0  0  0  0  0  0
   -4.7607   -0.3864   -1.1073 H   0  0  0  0  0  0  0  0  0  0  0  0
   -5.1064    1.2124   -0.5251 H   0  0  0  0  0  0  0  0  0  0  0  0
   -3.8118    1.1060   -1.7017 H   0  0  0  0  0  0  0  0  0  0  0  0
   -3.1260    1.3253    2.2586 H   0  0  0  0  0  0  0  0  0  0  0  0
   -3.0741    2.4492    0.8342 H   0  0  0  0  0  0  0  0  0  0  0  0
   -4.6521    1.7263    1.3120 H   0  0  0  0  0  0  0  0  0  0  0  0
   -4.6891   -0.5286    1.7525 H   0  0  0  0  0  0  0  0  0  0  0  0
   -3.0519   -1.1950    1.8190 H   0  0  0  0  0  0  0  0  0  0  0  0
   -4.2165   -1.6214    0.4465 H   0  0  0  0  0  0  0  0  0  0  0  0
   -1.4397    0.3432    1.1744 H   0  0  0  0  0  0  0  0  0  0  0  0
   -1.5799    1.4297   -0.1840 H   0  0  0  0  0  0  0  0  0  0  0  0
   -1.0817   -1.5432   -0.2044 H   0  0  0  0  0  0  0  0  0  0  0  0
    0.6513    0.7742   -0.9723 H   0  0  0  0  0  0  0  0  0  0  0  0
    3.2163   -2.4205    1.1229 H   0  0  0  0  0  0  0  0  0  0  0  0
    5.6285   -1.8667    1.3578 H   0  0  0  0  0  0  0  0  0  0  0  0
    7.4515   -0.3374    0.9937 H   0  0  0  0  0  0  0  0  0  0  0  0
    4.4861    2.7816   -1.1476 H   0  0  0  0  0  0  0  0  0  0  0  0
    2.5712    1.2774   -0.8151 H   0  0  0  0  0  0  0  0  0  0  0  0
  1  2  1  0
  2  3  1  0
  2  4  1  0
  2  5  1  0
  5  6  1  0
  6  7  1  0
  7  8  1  0
  8  9  2  0
  8 10  1  0
 10 11  2  0
 11 12  1  0
 12 13  2  0
 13 14  1  0
 13 15  1  0
 15 16  1  0
 15 17  2  0
  6 18  1  0
 18 19  1  0
 18 20  1  0
 18 21  1  0
 17 10  1  0
  1 22  1  0
  1 23  1  0
  1 24  1  0
  3 25  1  0
  3 26  1  0
  3 27  1  0
  4 28  1  0
  4 29  1  0
  4 30  1  0
  5 31  1  0
  5 32  1  0
  6 33  1  1
  7 34  1  0
 11 35  1  0
 12 36  1  0
 14 37  1  0
 16 38  1  0
 17 39  1  0
M  END
$$$$
[H]c1c([H])c(-c2nc(-c3c([H])c([H])c(F)c([H])c3[H])n([H])c2[H])c([H])c(C(F)(F)F)c1[H]
     RDKit          3D

 32 34  0  0  0  0  0  0  0  0999 V2000
   -6.6579    2.2181   -0.0007 F   0  0  0  0  0  0  0  0  0  0  0  0
   -5.4490    1.6449   -0.0922 C   0  0  0  0  0  0  0  0  0  0  0  0
   -4.2740    2.3859   -0.1566 C   0  0  0  0  0  0  0  0  0  0  0  0
   -3.0604    1.7427   -0.2543 C   0  0  0  0  0  0  0  0  0  0  0  0
   -2.9552    0.3944   -0.2950 C   0  0  0  0  0  0  0  0  0  0  0  0
   -4.1396   -0.3598   -0.2318 C   0  0  0  0  0  0  0  0  0  0  0  0
   -5.3597    0.2659   -0.1312 C   0  0  0  0  0  0  0  0  0  0  0  0
   -1.6674   -0.2996   -0.3363 C   0  0  0  0  0  0  0  0  0  0  0  0
   -0.4216    0.1853   -0.1467 N   0  0  0  0  0  0  0  0  0  0  0  0
    0.4692   -0.8340   -0.1557 C   0  0  0  0  0  0  0  0  0  0  0  0
   -0.2363   -1.9972   -0.3612 C   0  0  0  0  0  0  0  0  0  0  0  0
   -1.5194   -1.6267   -0.4643 N   0  0  0  0  0  0  0  0  0  0  0  0
    1.9142   -0.7987    0.0338 C   0  0  0  0  0  0  0  0  0  0  0  0
    2.6232   -1.9679    0.2449 C   0  0  0  0  0  0  0  0  0  0  0  0
    3.9846   -2.0085    0.4323 C   0  0  0  0  0  0  0  0  0  0  0  0
    4.6958   -0.8328    0.4135 C   0  0  0  0  0  0  0  0  0  0  0  0
    4.0131    0.3515    0.2020 C   0  0  0  0  0  0  0  0  0  0  0  0
    2.6330    0.3720    0.0127 C   0  0  0  0  0  0  0  0  0  0  0  0
    4.7745    1.6484    0.1592 C   0  0  0  0  0  0  0  0  0  0  0  0
    5.0651    1.9066   -1.1686 F   0  0  0  0  0  0  0  0  0  0  0  0
    5.9469    1.5375    0.8724 F   0  0  0  0  0  0  0  0  0  0  0  0
    4.0408    2.6744    0.6982 F   0  0  0  0  0  0  0  0  0  0  0  0
   -4.4002    3.4750   -0.1181 H   0  0  0  0  0  0  0  0  0  0  0  0
   -2.1742    2.3524   -0.3016 H   0  0  0  0  0  0  0  0  0  0  0  0
   -4.0681   -1.4383   -0.2671 H   0  0  0  0  0  0  0  0  0  0  0  0
   -6.2296   -0.3737   -0.0807 H   0  0  0  0  0  0  0  0  0  0  0  0
    0.1941   -2.9970   -0.4199 H   0  0  0  0  0  0  0  0  0  0  0  0
   -2.2911   -2.2929   -0.6366 H   0  0  0  0  0  0  0  0  0  0  0  0
    2.1135   -2.9285    0.2691 H   0  0  0  0  0  0  0  0  0  0  0  0
    4.5112   -2.9550    0.6086 H   0  0  0  0  0  0  0  0  0  0  0  0
    5.7666   -0.7758    0.5628 H   0  0  0  0  0  0  0  0  0  0  0  0
    2.1578    1.3312   -0.1469 H   0  0  0  0  0  0  0  0  0  0  0  0
  1  2  1  0
  2  3  2  0
  3  4  1  0
  4  5  2  0
  5  6  1  0
  6  7  2  0
  5  8  1  0
  8  9  2  0
  9 10  1  0
 10 11  2  0
 11 12  1  0
 10 13  1  0
 13 14  2  0
 14 15  1  0
 15 16  2  0
 16 17  1  0
 17 18  2  0
 17 19  1  0
 19 20  1  0
 19 21  1  0
 19 22  1  0
  7  2  1  0
 12  8  1  0
 18 13  1  0
  3 23  1  0
  4 24  1  0
  6 25  1  0
  7 26  1  0
 11 27  1  0
 12 28  1  0
 14 29  1  0
 15 30  1  0
 16 31  1  0
 18 32  1  0
M  END
$$$$
[H]c1c([H])c(-c2nc(C([H])([H])[H])c3c([H])c([H])c(C(=O)N([H])C([H])([H])C([H])([H])C([H])([H])C([H])([H])C([H])([H])C([H])([H])C(=O)N([H])[C@]4([H])C([H])([H])C([H])([H])[C@]([H])(N5C([H])([H])C([H])([H])C([H])([H])C5([H])[H])C4([H])[H])c([H])c3n2)c([H])c([H])c1OC([H])([H])[H]
     RDKit          3D

 84 88  0  0  0  0  0  0  0  0999 V2000
   12.9756   -3.8052   -2.8521 C   0  0  0  0  0  0  0  0  0  0  0  0
   11.6979   -3.3607   -3.2031 O   0  0  0  0  0  0  0  0  0  0  0  0
   10.8697   -2.6376   -2.3588 C   0  0  0  0  0  0  0  0  0  0  0  0
   11.2256   -2.2786   -1.0702 C   0  0  0  0  0  0  0  0  0  0  0  0
   10.3570   -1.5546   -0.2703 C   0  0  0  0  0  0  0  0  0  0  0  0
    9.1147   -1.1636   -0.7147 C   0  0  0  0  0  0  0  0  0  0  0  0
    8.7487   -1.5148   -1.9953 C   0  0  0  0  0  0  0  0  0  0  0  0
    9.6250   -2.2452   -2.8023 C   0  0  0  0  0  0  0  0  0  0  0  0
    8.2086   -0.3975    0.1455 C   0  0  0  0  0  0  0  0  0  0  0  0
    8.5907   -0.0653    1.3902 N   0  0  0  0  0  0  0  0  0  0  0  0
    7.8073    0.6341    2.2310 C   0  0  0  0  0  0  0  0  0  0  0  0
    8.2785    0.9739    3.5931 C   0  0  0  0  0  0  0  0  0  0  0  0
    6.5679    1.0211    1.7931 C   0  0  0  0  0  0  0  0  0  0  0  0
    5.6975    1.7434    2.5913 C   0  0  0  0  0  0  0  0  0  0  0  0
    4.4493    2.1352    2.1537 C   0  0  0  0  0  0  0  0  0  0  0  0
    4.0345    1.8069    0.8814 C   0  0  0  0  0  0  0  0  0  0  0  0
    4.9036    1.0856    0.0843 C   0  0  0  0  0  0  0  0  0  0  0  0
    6.1422    0.6969    0.5190 C   0  0  0  0  0  0  0  0  0  0  0  0
    6.9929   -0.0114   -0.2683 N   0  0  0  0  0  0  0  0  0  0  0  0
    2.7081    2.2015    0.3607 C   0  0  0  0  0  0  0  0  0  0  0  0
    2.4601    1.8940   -0.8285 O   0  0  0  0  0  0  0  0  0  0  0  0
    1.7444    2.8883    1.1268 N   0  0  0  0  0  0  0  0  0  0  0  0
    0.4548    3.2788    0.6416 C   0  0  0  0  0  0  0  0  0  0  0  0
   -0.4168    2.1503    0.2067 C   0  0  0  0  0  0  0  0  0  0  0  0
   -1.7337    2.6429   -0.2958 C   0  0  0  0  0  0  0  0  0  0  0  0
   -2.5571    3.4085    0.6798 C   0  0  0  0  0  0  0  0  0  0  0  0
   -2.9298    2.6604    1.9087 C   0  0  0  0  0  0  0  0  0  0  0  0
   -3.7253    1.4188    1.7191 C   0  0  0  0  0  0  0  0  0  0  0  0
   -5.0385    1.5928    1.0793 C   0  0  0  0  0  0  0  0  0  0  0  0
   -5.4662    2.7229    0.7631 O   0  0  0  0  0  0  0  0  0  0  0  0
   -5.8495    0.4659    0.8081 N   0  0  0  0  0  0  0  0  0  0  0  0
   -7.1439    0.5459    0.1841 C   0  0  2  0  0  0  0  0  0  0  0  0
   -8.2719    0.0298    1.0459 C   0  0  0  0  0  0  0  0  0  0  0  0
   -9.3282   -0.4392    0.0515 C   0  0  0  0  0  0  0  0  0  0  0  0
   -8.6898   -0.6050   -1.2690 C   0  0  1  0  0  0  0  0  0  0  0  0
   -7.2312   -0.2175   -1.1190 C   0  0  0  0  0  0  0  0  0  0  0  0
   -8.7875   -1.8656   -1.8850 N   0  0  0  0  0  0  0  0  0  0  0  0
   -8.2129   -2.9899   -1.2634 C   0  0  0  0  0  0  0  0  0  0  0  0
   -9.3431   -3.8948   -0.8756 C   0  0  0  0  0  0  0  0  0  0  0  0
  -10.3406   -3.6668   -1.9903 C   0  0  0  0  0  0  0  0  0  0  0  0
  -10.1130   -2.2159   -2.3363 C   0  0  0  0  0  0  0  0  0  0  0  0
   12.9044   -4.2612   -1.8313 H   0  0  0  0  0  0  0  0  0  0  0  0
   13.2379   -4.6585   -3.5267 H   0  0  0  0  0  0  0  0  0  0  0  0
   13.7586   -3.0218   -2.9093 H   0  0  0  0  0  0  0  0  0  0  0  0
   12.1853   -2.5753   -0.7140 H   0  0  0  0  0  0  0  0  0  0  0  0
   10.6160   -1.2601    0.7503 H   0  0  0  0  0  0  0  0  0  0  0  0
    7.7779   -1.2134   -2.3541 H   0  0  0  0  0  0  0  0  0  0  0  0
    9.3129   -2.5103   -3.8109 H   0  0  0  0  0  0  0  0  0  0  0  0
    8.3584    2.0867    3.6842 H   0  0  0  0  0  0  0  0  0  0  0  0
    9.3005    0.5682    3.7554 H   0  0  0  0  0  0  0  0  0  0  0  0
    7.6194    0.6154    4.3937 H   0  0  0  0  0  0  0  0  0  0  0  0
    6.0692    1.9828    3.5967 H   0  0  0  0  0  0  0  0  0  0  0  0
    3.8096    2.6964    2.8123 H   0  0  0  0  0  0  0  0  0  0  0  0
    4.5887    0.8194   -0.9246 H   0  0  0  0  0  0  0  0  0  0  0  0
    1.9886    3.1287    2.1200 H   0  0  0  0  0  0  0  0  0  0  0  0
   -0.0576    3.9011    1.4019 H   0  0  0  0  0  0  0  0  0  0  0  0
    0.6370    3.9806   -0.2255 H   0  0  0  0  0  0  0  0  0  0  0  0
    0.0661    1.5894   -0.6329 H   0  0  0  0  0  0  0  0  0  0  0  0
   -0.5388    1.4560    1.0709 H   0  0  0  0  0  0  0  0  0  0  0  0
   -2.3128    1.8024   -0.7777 H   0  0  0  0  0  0  0  0  0  0  0  0
   -1.5310    3.3396   -1.1619 H   0  0  0  0  0  0  0  0  0  0  0  0
   -3.4295    3.8173    0.1327 H   0  0  0  0  0  0  0  0  0  0  0  0
   -1.9737    4.3022    1.0020 H   0  0  0  0  0  0  0  0  0  0  0  0
   -3.5727    3.3579    2.5239 H   0  0  0  0  0  0  0  0  0  0  0  0
   -2.0476    2.4671    2.5505 H   0  0  0  0  0  0  0  0  0  0  0  0
   -3.1704    0.6277    1.1508 H   0  0  0  0  0  0  0  0  0  0  0  0
   -3.8271    0.9579    2.7498 H   0  0  0  0  0  0  0  0  0  0  0  0
   -5.5089   -0.4957    1.0682 H   0  0  0  0  0  0  0  0  0  0  0  0
   -7.3427    1.6132   -0.0416 H   0  0  0  0  0  0  0  0  0  0  0  0
   -7.9341   -0.7541    1.7217 H   0  0  0  0  0  0  0  0  0  0  0  0
   -8.6552    0.8624    1.6822 H   0  0  0  0  0  0  0  0  0  0  0  0
  -10.0795    0.3893    0.0023 H   0  0  0  0  0  0  0  0  0  0  0  0
   -9.8849   -1.3156    0.4322 H   0  0  0  0  0  0  0  0  0  0  0  0
   -9.1030    0.1479   -2.0070 H   0  0  0  0  0  0  0  0  0  0  0  0
   -6.5666   -1.1018   -1.0569 H   0  0  0  0  0  0  0  0  0  0  0  0
   -6.8587    0.3779   -1.9782 H   0  0  0  0  0  0  0  0  0  0  0  0
   -7.6199   -3.5515   -2.0475 H   0  0  0  0  0  0  0  0  0  0  0  0
   -7.4955   -2.8021   -0.4499 H   0  0  0  0  0  0  0  0  0  0  0  0
   -9.7732   -3.6904    0.1175 H   0  0  0  0  0  0  0  0  0  0  0  0
   -9.0141   -4.9511   -0.9622 H   0  0  0  0  0  0  0  0  0  0  0  0
  -11.3844   -3.8613   -1.6709 H   0  0  0  0  0  0  0  0  0  0  0  0
  -10.0415   -4.2894   -2.8578 H   0  0  0  0  0  0  0  0  0  0  0  0
  -10.1280   -2.1047   -3.4517 H   0  0  0  0  0  0  0  0  0  0  0  0
  -10.8546   -1.5379   -1.8656 H   0  0  0  0  0  0  0  0  0  0  0  0
  1  2  1  0
  2  3  1  0
  3  4  2  0
  4  5  1  0
  5  6  2  0
  6  7  1  0
  7  8  2  0
  6  9  1  0
  9 10  2  0
 10 11  1  0
 11 12  1  0
 11 13  2  0
 13 14  1  0
 14 15  2  0
 15 16  1  0
 16 17  2  0
 17 18  1  0
 18 19  2  0
 16 20  1  0
 20 21  2  0
 20 22  1  0
 22 23  1  0
 23 24  1  0
 24 25  1  0
 25 26  1  0
 26 27  1  0
 27 28  1  0
 28 29  1  0
 29 30  2  0
 29 31  1  0
 31 32  1  0
 32 33  1  0
 33 34  1  0
 34 35  1  0
 35 36  1  0
 35 37  1  0
 37 38  1  0
 38 39  1  0
 39 40  1  0
 40 41  1  0
  8  3  1  0
 19  9  1  0
 36 32  1  0
 41 37  1  0
 18 13  1  0
  1 42  1  0
  1 43  1  0
  1 44  1  0
  4 45  1  0
  5 46  1  0
  7 47  1  0
  8 48  1  0
 12 49  1  0
 12 50  1  0
 12 51  1  0
 14 52  1  0
 15 53  1  0
 17 54  1  0
 22 55  1  0
 23 56  1  0
 23 57  1  0
 24 58  1  0
 24 59  1  0
 25 60  1  0
 25 61  1  0
 26 62  1  0
 26 63  1  0
 27 64  1  0
 27 65  1  0
 28 66  1  0
 28 67  1  0
 31 68  1  0
 32 69  1  6
 33 70  1  0
 33 71  1  0
 34 72  1  0
 34 73  1  0
 35 74  1  6
 36 75  1  0
 36 76  1  0
 38 77  1  0
 38 78  1  0
 39 79  1  0
 39 80  1  0
 40 81  1  0
 40 82  1  0
 41 83  1  0
 41 84  1  0
M  END
$$$$
[H]/C(C(=O)N([H])c1c([H])c([H])c([H])c([H])c1Cl)=C(/[H])c1c([H])c([H])c(Cl)c([H])c1[H]
     RDKit          3D

 30 31  0  0  0  0  0  0  0  0999 V2000
    7.3668   -0.5479   -0.7888 Cl  0  0  0  0  0  0  0  0  0  0  0  0
    5.6266   -0.3531   -0.5761 C   0  0  0  0  0  0  0  0  0  0  0  0
    5.0856    0.8037   -0.0772 C   0  0  0  0  0  0  0  0  0  0  0  0
    3.7104    0.9134    0.0735 C   0  0  0  0  0  0  0  0  0  0  0  0
    2.8510   -0.1001   -0.2596 C   0  0  0  0  0  0  0  0  0  0  0  0
    1.4043   -0.0279   -0.1183 C   0  0  0  0  0  0  0  0  0  0  0  0
    0.8026    1.0371    0.3492 C   0  0  0  0  0  0  0  0  0  0  0  0
   -0.6505    1.1507    0.5074 C   0  0  0  0  0  0  0  0  0  0  0  0
   -1.0729    2.2360    0.9688 O   0  0  0  0  0  0  0  0  0  0  0  0
   -1.5070    0.0981    0.1586 N   0  0  0  0  0  0  0  0  0  0  0  0
   -2.9177    0.0425    0.2467 C   0  0  0  0  0  0  0  0  0  0  0  0
   -3.7323    1.0466    0.7069 C   0  0  0  0  0  0  0  0  0  0  0  0
   -5.1263    0.9193    0.7654 C   0  0  0  0  0  0  0  0  0  0  0  0
   -5.7466   -0.2274    0.3608 C   0  0  0  0  0  0  0  0  0  0  0  0
   -4.9588   -1.2537   -0.1060 C   0  0  0  0  0  0  0  0  0  0  0  0
   -3.5975   -1.1200   -0.1595 C   0  0  0  0  0  0  0  0  0  0  0  0
   -2.6865   -2.4797   -0.7676 Cl  0  0  0  0  0  0  0  0  0  0  0  0
    3.4318   -1.2545   -0.7607 C   0  0  0  0  0  0  0  0  0  0  0  0
    4.7916   -1.3992   -0.9240 C   0  0  0  0  0  0  0  0  0  0  0  0
    5.7550    1.6105    0.1891 H   0  0  0  0  0  0  0  0  0  0  0  0
    3.3135    1.8371    0.4691 H   0  0  0  0  0  0  0  0  0  0  0  0
    0.8242   -0.9131   -0.4226 H   0  0  0  0  0  0  0  0  0  0  0  0
    1.3779    1.9304    0.6571 H   0  0  0  0  0  0  0  0  0  0  0  0
   -1.0717   -0.8046   -0.2318 H   0  0  0  0  0  0  0  0  0  0  0  0
   -3.2894    1.9681    1.0363 H   0  0  0  0  0  0  0  0  0  0  0  0
   -5.6823    1.7572    1.1398 H   0  0  0  0  0  0  0  0  0  0  0  0
   -6.8379   -0.3321    0.4047 H   0  0  0  0  0  0  0  0  0  0  0  0
   -5.4789   -2.1500   -0.4195 H   0  0  0  0  0  0  0  0  0  0  0  0
    2.7888   -2.0758   -1.0348 H   0  0  0  0  0  0  0  0  0  0  0  0
    5.2260   -2.3115   -1.3181 H   0  0  0  0  0  0  0  0  0  0  0  0
  1  2  1  0
  2  3  2  0
  3  4  1  0
  4  5  2  0
  5  6  1  0
  6  7  2  0
  7  8  1  0
  8  9  2  0
  8 10  1  0
 10 11  1  0
 11 12  2  0
 12 13  1  0
 13 14  2  0
 14 15  1  0
 15 16  2  0
 16 17  1  0
  5 18  1  0
 18 19  2  0
 19  2  1  0
 16 11  1  0
  3 20  1  0
  4 21  1  0
  6 22  1  0
  7 23  1  0
 10 24  1  0
 12 25  1  0
 13 26  1  0
 14 27  1  0
 15 28  1  0
 18 29  1  0
 19 30  1  0
M  END
$$$$
[H]OC(=O)C([H])([H])Oc1c([H])c([H])c(S(=O)(=O)N([H])c2c([H])c([H])c([H])c([H])c2C([H])([H])C([H])([H])/C(=N/S[H])C([H])([H])[H])c([H])c1OC([H])([H])[H]
     RDKit          3D

 51 52  0  0  0  0  0  0  0  0999 V2000
   -5.6195   -0.1638   -0.7759 C   0  0  0  0  0  0  0  0  0  0  0  0
   -5.4711    0.7321    0.3861 C   0  0  0  0  0  0  0  0  0  0  0  0
   -6.4809    1.5343    0.5929 N   0  0  0  0  0  0  0  0  0  0  0  0
   -7.8779    1.5197   -0.4424 S   0  0  0  0  0  0  0  0  0  0  0  0
   -4.3493    0.8336    1.3228 C   0  0  0  0  0  0  0  0  0  0  0  0
   -3.0718    1.3919    0.7995 C   0  0  0  0  0  0  0  0  0  0  0  0
   -2.4812    0.6395   -0.3013 C   0  0  0  0  0  0  0  0  0  0  0  0
   -2.7266    1.1312   -1.5944 C   0  0  0  0  0  0  0  0  0  0  0  0
   -2.2382    0.4881   -2.7070 C   0  0  0  0  0  0  0  0  0  0  0  0
   -1.4916   -0.6626   -2.5666 C   0  0  0  0  0  0  0  0  0  0  0  0
   -1.2303   -1.1720   -1.3209 C   0  0  0  0  0  0  0  0  0  0  0  0
   -1.7269   -0.5127   -0.2096 C   0  0  0  0  0  0  0  0  0  0  0  0
   -1.4302   -0.9792    1.1125 N   0  0  0  0  0  0  0  0  0  0  0  0
   -0.0772   -1.9592    1.4581 S   0  0  0  0  0  0  0  0  0  0  0  0
   -0.1065   -2.2938    2.9484 O   0  0  0  0  0  0  0  0  0  0  0  0
   -0.1891   -3.3052    0.7649 O   0  0  0  0  0  0  0  0  0  0  0  0
    1.4558   -1.1996    1.1097 C   0  0  0  0  0  0  0  0  0  0  0  0
    2.1124   -1.4473   -0.0695 C   0  0  0  0  0  0  0  0  0  0  0  0
    3.3200   -0.8644   -0.3780 C   0  0  0  0  0  0  0  0  0  0  0  0
    3.9347   -0.0054    0.4731 C   0  0  0  0  0  0  0  0  0  0  0  0
    5.1556    0.6089    0.2117 O   0  0  0  0  0  0  0  0  0  0  0  0
    5.9545    0.4468   -0.9049 C   0  0  0  0  0  0  0  0  0  0  0  0
    6.4792   -0.9185   -1.0921 C   0  0  0  0  0  0  0  0  0  0  0  0
    7.2073   -1.2347   -2.2166 O   0  0  0  0  0  0  0  0  0  0  0  0
    6.2631   -1.7940   -0.2276 O   0  0  0  0  0  0  0  0  0  0  0  0
    3.3085    0.2935    1.7097 C   0  0  0  0  0  0  0  0  0  0  0  0
    3.8713    1.1112    2.5456 O   0  0  0  0  0  0  0  0  0  0  0  0
    4.4007    1.9121    3.3888 C   0  0  0  0  0  0  0  0  0  0  0  0
    2.0685   -0.3352    1.9720 C   0  0  0  0  0  0  0  0  0  0  0  0
   -6.6003   -0.7507   -0.6972 H   0  0  0  0  0  0  0  0  0  0  0  0
   -5.7079    0.3685   -1.7402 H   0  0  0  0  0  0  0  0  0  0  0  0
   -4.8607   -0.9648   -0.8490 H   0  0  0  0  0  0  0  0  0  0  0  0
   -8.4887    0.2640   -0.3207 H   0  0  0  0  0  0  0  0  0  0  0  0
   -4.2207   -0.2167    1.7341 H   0  0  0  0  0  0  0  0  0  0  0  0
   -4.6534    1.3977    2.2597 H   0  0  0  0  0  0  0  0  0  0  0  0
   -3.2842    2.4482    0.4489 H   0  0  0  0  0  0  0  0  0  0  0  0
   -2.3304    1.5695    1.6325 H   0  0  0  0  0  0  0  0  0  0  0  0
   -3.3023    2.0214   -1.7375 H   0  0  0  0  0  0  0  0  0  0  0  0
   -2.4417    0.8899   -3.7114 H   0  0  0  0  0  0  0  0  0  0  0  0
   -1.1001   -1.1829   -3.4295 H   0  0  0  0  0  0  0  0  0  0  0  0
   -0.6610   -2.0678   -1.2464 H   0  0  0  0  0  0  0  0  0  0  0  0
   -2.0718   -0.6930    1.9110 H   0  0  0  0  0  0  0  0  0  0  0  0
    1.7021   -2.1170   -0.8009 H   0  0  0  0  0  0  0  0  0  0  0  0
    3.7767   -1.1070   -1.3557 H   0  0  0  0  0  0  0  0  0  0  0  0
    6.7911    1.1981   -0.8101 H   0  0  0  0  0  0  0  0  0  0  0  0
    5.4156    0.7086   -1.8600 H   0  0  0  0  0  0  0  0  0  0  0  0
    7.7259   -2.1193   -2.2774 H   0  0  0  0  0  0  0  0  0  0  0  0
    3.6311    2.2690    4.1685 H   0  0  0  0  0  0  0  0  0  0  0  0
    4.8705    2.8829    2.9856 H   0  0  0  0  0  0  0  0  0  0  0  0
    5.2450    1.4973    4.0610 H   0  0  0  0  0  0  0  0  0  0  0  0
    1.6020   -0.0911    2.9309 H   0  0  0  0  0  0  0  0  0  0  0  0
  1  2  1  0
  2  3  2  0
  3  4  1  0
  2  5  1  0
  5  6  1  0
  6  7  1  0
  7  8  2  0
  8  9  1  0
  9 10  2  0
 10 11  1  0
 11 12  2  0
 12 13  1  0
 13 14  1  0
 14 15  2  0
 14 16  2  0
 14 17  1  0
 17 18  2  0
 18 19  1  0
 19 20  2  0
 20 21  1  0
 21 22  1  0
 22 23  1  0
 23 24  1  0
 23 25  2  0
 20 26  1  0
 26 27  1  0
 27 28  1  0
 26 29  2  0
 12  7  1  0
 29 17  1  0
  1 30  1  0
  1 31  1  0
  1 32  1  0
  4 33  1  0
  5 34  1  0
  5 35  1  0
  6 36  1  0
  6 37  1  0
  8 38  1  0
  9 39  1  0
 10 40  1  0
 11 41  1  0
 13 42  1  0
 18 43  1  0
 19 44  1  0
 22 45  1  0
 22 46  1  0
 24 47  1  0
 28 48  1  0
 28 49  1  0
 28 50  1  0
 29 51  1  0
M  END
$$$$
[H]OC([H])([H])C([H])([H])S(=O)(=O)c1c([H])c([H])c(C([H])(N([H])C(=O)N([H])S(=O)(=O)c2c([H])c([H])c(-c3nnnn3[H])c([H])c2[H])C([H])(C([H])([H])[H])C([H])([H])[H])c([H])c1[H]
     RDKit          3D

 58 60  0  0  0  0  0  0  0  0999 V2000
   -6.4480    1.1998   -0.1095 O   0  0  0  0  0  0  0  0  0  0  0  0
   -7.6188    0.5362   -0.3562 C   0  0  0  0  0  0  0  0  0  0  0  0
   -7.7483   -0.8066    0.3046 C   0  0  0  0  0  0  0  0  0  0  0  0
   -6.5003   -1.9313   -0.2093 S   0  0  0  0  0  0  0  0  0  0  0  0
   -6.6235   -2.0699   -1.7211 O   0  0  0  0  0  0  0  0  0  0  0  0
   -6.7728   -3.2636    0.4425 O   0  0  0  0  0  0  0  0  0  0  0  0
   -4.9067   -1.3527    0.1611 C   0  0  0  0  0  0  0  0  0  0  0  0
   -4.1417   -0.6830   -0.7827 C   0  0  0  0  0  0  0  0  0  0  0  0
   -2.8739   -0.2179   -0.4926 C   0  0  0  0  0  0  0  0  0  0  0  0
   -2.3035   -0.3950    0.7490 C   0  0  0  0  0  0  0  0  0  0  0  0
   -3.0613   -1.0596    1.6869 C   0  0  0  0  0  0  0  0  0  0  0  0
   -4.3264   -1.5303    1.4162 C   0  0  0  0  0  0  0  0  0  0  0  0
   -0.9634    0.1266    0.9639 C   0  0  0  0  0  0  0  0  0  0  0  0
   -0.8458    1.5799    1.2348 C   0  0  0  0  0  0  0  0  0  0  0  0
   -1.6016    2.0142    2.4826 C   0  0  0  0  0  0  0  0  0  0  0  0
   -1.1730    2.4702    0.0590 C   0  0  0  0  0  0  0  0  0  0  0  0
   -0.0915   -0.2170   -0.1362 N   0  0  0  0  0  0  0  0  0  0  0  0
    1.0274   -1.0653    0.0777 C   0  0  0  0  0  0  0  0  0  0  0  0
    1.2433   -1.5101    1.2356 O   0  0  0  0  0  0  0  0  0  0  0  0
    1.9164   -1.4340   -0.9638 N   0  0  0  0  0  0  0  0  0  0  0  0
    3.2522   -2.4651   -0.6429 S   0  0  0  0  0  0  0  0  0  0  0  0
    3.3551   -3.5305   -1.6804 O   0  0  0  0  0  0  0  0  0  0  0  0
    3.0814   -3.0909    0.7231 O   0  0  0  0  0  0  0  0  0  0  0  0
    4.7504   -1.5616   -0.6475 C   0  0  0  0  0  0  0  0  0  0  0  0
    5.2428   -0.9783    0.5035 C   0  0  0  0  0  0  0  0  0  0  0  0
    6.4221   -0.2739    0.4746 C   0  0  0  0  0  0  0  0  0  0  0  0
    7.1484   -0.1235   -0.6825 C   0  0  0  0  0  0  0  0  0  0  0  0
    6.6425   -0.7134   -1.8270 C   0  0  0  0  0  0  0  0  0  0  0  0
    5.4629   -1.4193   -1.8039 C   0  0  0  0  0  0  0  0  0  0  0  0
    8.3980    0.6174   -0.7299 C   0  0  0  0  0  0  0  0  0  0  0  0
    9.0135    1.2353    0.2745 N   0  0  0  0  0  0  0  0  0  0  0  0
   10.1097    1.7813   -0.1856 N   0  0  0  0  0  0  0  0  0  0  0  0
   10.2232    1.5293   -1.4868 N   0  0  0  0  0  0  0  0  0  0  0  0
    9.1600    0.8077   -1.8192 N   0  0  0  0  0  0  0  0  0  0  0  0
   -6.1379    1.7710   -0.8295 H   0  0  0  0  0  0  0  0  0  0  0  0
   -7.7257    0.4277   -1.4617 H   0  0  0  0  0  0  0  0  0  0  0  0
   -8.4587    1.2012   -0.0014 H   0  0  0  0  0  0  0  0  0  0  0  0
   -7.8197   -0.7247    1.4110 H   0  0  0  0  0  0  0  0  0  0  0  0
   -8.7340   -1.2666   -0.0006 H   0  0  0  0  0  0  0  0  0  0  0  0
   -4.5938   -0.5445   -1.7596 H   0  0  0  0  0  0  0  0  0  0  0  0
   -2.3088    0.3075   -1.2788 H   0  0  0  0  0  0  0  0  0  0  0  0
   -2.6248   -1.2007    2.6537 H   0  0  0  0  0  0  0  0  0  0  0  0
   -4.9224   -2.0560    2.1615 H   0  0  0  0  0  0  0  0  0  0  0  0
   -0.5507   -0.3947    1.8753 H   0  0  0  0  0  0  0  0  0  0  0  0
    0.2348    1.7707    1.4646 H   0  0  0  0  0  0  0  0  0  0  0  0
   -2.4234    2.7286    2.1812 H   0  0  0  0  0  0  0  0  0  0  0  0
   -0.9592    2.6165    3.1737 H   0  0  0  0  0  0  0  0  0  0  0  0
   -1.9722    1.1666    3.0694 H   0  0  0  0  0  0  0  0  0  0  0  0
   -0.7795    3.4966    0.1838 H   0  0  0  0  0  0  0  0  0  0  0  0
   -0.7457    2.0751   -0.8743 H   0  0  0  0  0  0  0  0  0  0  0  0
   -2.2798    2.5268    0.0010 H   0  0  0  0  0  0  0  0  0  0  0  0
   -0.2334    0.1264   -1.1108 H   0  0  0  0  0  0  0  0  0  0  0  0
    1.7804   -1.0910   -1.9365 H   0  0  0  0  0  0  0  0  0  0  0  0
    4.6902   -1.0804    1.4315 H   0  0  0  0  0  0  0  0  0  0  0  0
    6.8381    0.1995    1.3683 H   0  0  0  0  0  0  0  0  0  0  0  0
    7.2157   -0.5922   -2.7291 H   0  0  0  0  0  0  0  0  0  0  0  0
    5.0650   -1.8862   -2.7170 H   0  0  0  0  0  0  0  0  0  0  0  0
    8.9968    0.4703   -2.7879 H   0  0  0  0  0  0  0  0  0  0  0  0
  1  2  1  0
  2  3  1  0
  3  4  1  0
  4  5  2  0
  4  6  2  0
  4  7  1  0
  7  8  2  0
  8  9  1  0
  9 10  2  0
 10 11  1  0
 11 12  2  0
 10 13  1  0
 13 14  1  0
 14 15  1  0
 14 16  1  0
 13 17  1  0
 17 18  1  0
 18 19  2  0
 18 20  1  0
 20 21  1  0
 21 22  2  0
 21 23  2  0
 21 24  1  0
 24 25  2  0
 25 26  1  0
 26 27  2  0
 27 28  1  0
 28 29  2  0
 27 30  1  0
 30 31  2  0
 31 32  1  0
 32 33  2  0
 33 34  1  0
 12  7  1  0
 29 24  1  0
 34 30  1  0
  1 35  1  0
  2 36  1  0
  2 37  1  0
  3 38  1  0
  3 39  1  0
  8 40  1  0
  9 41  1  0
 11 42  1  0
 12 43  1  0
 13 44  1  0
 14 45  1  0
 15 46  1  0
 15 47  1  0
 15 48  1  0
 16 49  1  0
 16 50  1  0
 16 51  1  0
 17 52  1  0
 20 53  1  0
 25 54  1  0
 26 55  1  0
 28 56  1  0
 29 57  1  0
 34 58  1  0
M  END
$$$$
[H]c1c([H])c(F)c([H])c(Sc2c([H])c([H])c(C([H])([H])[H])n(C([H])([H])N([H])C(=O)N([H])c3c([H])c([H])c([H])c(Cl)c3[H])c2=O)c1[H]
     RDKit          3D

 45 47  0  0  0  0  0  0  0  0999 V2000
    0.2023   -3.4723    1.3021 C   0  0  0  0  0  0  0  0  0  0  0  0
   -0.4226   -2.1429    1.0159 C   0  0  0  0  0  0  0  0  0  0  0  0
   -0.9240   -1.3754    2.0566 C   0  0  0  0  0  0  0  0  0  0  0  0
   -1.5058   -0.1386    1.8563 C   0  0  0  0  0  0  0  0  0  0  0  0
   -1.5910    0.3510    0.5794 C   0  0  0  0  0  0  0  0  0  0  0  0
   -2.3033    1.9300    0.3247 S   0  0  0  0  0  0  0  0  0  0  0  0
   -4.0247    1.9502   -0.0131 C   0  0  0  0  0  0  0  0  0  0  0  0
   -4.6283    3.1800   -0.1523 C   0  0  0  0  0  0  0  0  0  0  0  0
   -5.9917    3.3092   -0.4393 C   0  0  0  0  0  0  0  0  0  0  0  0
   -6.7612    2.2060   -0.5892 C   0  0  0  0  0  0  0  0  0  0  0  0
   -6.1605    0.9480   -0.4490 C   0  0  0  0  0  0  0  0  0  0  0  0
   -6.9225   -0.1306   -0.5981 F   0  0  0  0  0  0  0  0  0  0  0  0
   -4.8256    0.8323   -0.1679 C   0  0  0  0  0  0  0  0  0  0  0  0
   -1.0749   -0.4550   -0.4444 C   0  0  0  0  0  0  0  0  0  0  0  0
   -1.1663    0.0103   -1.6086 O   0  0  0  0  0  0  0  0  0  0  0  0
   -0.5241   -1.6371   -0.2016 N   0  0  0  0  0  0  0  0  0  0  0  0
    0.0382   -2.3780   -1.3599 C   0  0  0  0  0  0  0  0  0  0  0  0
    1.3776   -1.9642   -1.5807 N   0  0  0  0  0  0  0  0  0  0  0  0
    2.6419   -1.5738   -1.7893 C   0  0  0  0  0  0  0  0  0  0  0  0
    3.3629   -2.1277   -2.7967 O   0  0  0  0  0  0  0  0  0  0  0  0
    3.3791   -0.6735   -1.1364 N   0  0  0  0  0  0  0  0  0  0  0  0
    4.2367    0.2091   -0.5571 C   0  0  0  0  0  0  0  0  0  0  0  0
    5.6138   -0.0887   -0.4692 C   0  0  0  0  0  0  0  0  0  0  0  0
    6.5502    0.7738    0.0088 C   0  0  0  0  0  0  0  0  0  0  0  0
    6.1587    2.0199    0.4404 C   0  0  0  0  0  0  0  0  0  0  0  0
    4.8351    2.3437    0.3710 C   0  0  0  0  0  0  0  0  0  0  0  0
    4.2963    3.9340    0.9010 Cl  0  0  0  0  0  0  0  0  0  0  0  0
    3.8780    1.4786   -0.1109 C   0  0  0  0  0  0  0  0  0  0  0  0
    1.2364   -3.5423    0.9076 H   0  0  0  0  0  0  0  0  0  0  0  0
   -0.4602   -4.2466    0.8584 H   0  0  0  0  0  0  0  0  0  0  0  0
    0.2528   -3.6225    2.3757 H   0  0  0  0  0  0  0  0  0  0  0  0
   -0.8449   -1.7725    3.0584 H   0  0  0  0  0  0  0  0  0  0  0  0
   -1.8853    0.4351    2.7206 H   0  0  0  0  0  0  0  0  0  0  0  0
   -4.0539    4.0836   -0.0404 H   0  0  0  0  0  0  0  0  0  0  0  0
   -6.4705    4.2734   -0.5569 H   0  0  0  0  0  0  0  0  0  0  0  0
   -7.8034    2.2878   -0.8108 H   0  0  0  0  0  0  0  0  0  0  0  0
   -4.3069   -0.1278   -0.0500 H   0  0  0  0  0  0  0  0  0  0  0  0
    0.0129   -3.4529   -0.9931 H   0  0  0  0  0  0  0  0  0  0  0  0
   -0.6124   -2.2970   -2.2154 H   0  0  0  0  0  0  0  0  0  0  0  0
    1.4364   -2.8343   -2.6056 H   0  0  0  0  0  0  0  0  0  0  0  0
    2.4665   -0.5004   -0.1902 H   0  0  0  0  0  0  0  0  0  0  0  0
    5.9452   -1.0610   -0.8026 H   0  0  0  0  0  0  0  0  0  0  0  0
    7.6132    0.5684    0.0889 H   0  0  0  0  0  0  0  0  0  0  0  0
    6.8900    2.7307    0.8231 H   0  0  0  0  0  0  0  0  0  0  0  0
    2.8400    1.7600   -0.1579 H   0  0  0  0  0  0  0  0  0  0  0  0
  1  2  1  0
  2  3  2  0
  3  4  1  0
  4  5  2  0
  5  6  1  0
  6  7  1  0
  7  8  2  0
  8  9  1  0
  9 10  2  0
 10 11  1  0
 11 12  1  0
 11 13  2  0
  5 14  1  0
 14 15  2  0
 14 16  1  0
 16 17  1  0
 17 18  1  0
 18 19  1  0
 19 20  2  0
 19 21  1  0
 21 22  1  0
 22 23  2  0
 23 24  1  0
 24 25  2  0
 25 26  1  0
 26 27  1  0
 26 28  2  0
 16  2  1  0
 28 22  1  0
 13  7  1  0
  1 29  1  0
  1 30  1  0
  1 31  1  0
  3 32  1  0
  4 33  1  0
  8 34  1  0
  9 35  1  0
 10 36  1  0
 13 37  1  0
 17 38  1  0
 17 39  1  0
 18 40  1  0
 21 41  1  0
 23 42  1  0
 24 43  1  0
 25 44  1  0
 28 45  1  0
M  END
$$$$
[H]OC(=O)C([H])([H])Oc1c([H])c([H])c2c(N([H])c3c([H])c([H])c(F)c([H])c3[H])nc([H])c([H])c2c1[H]
     RDKit          3D

 36 38  0  0  0  0  0  0  0  0999 V2000
    6.6113   -0.5107   -2.2287 O   0  0  0  0  0  0  0  0  0  0  0  0
    6.5133   -0.7985   -0.8745 C   0  0  0  0  0  0  0  0  0  0  0  0
    7.5805   -1.0974   -0.2819 O   0  0  0  0  0  0  0  0  0  0  0  0
    5.2374   -0.7673   -0.1261 C   0  0  0  0  0  0  0  0  0  0  0  0
    4.2140   -0.4036   -1.0386 O   0  0  0  0  0  0  0  0  0  0  0  0
    2.8816   -0.2863   -0.6352 C   0  0  0  0  0  0  0  0  0  0  0  0
    1.9657    0.0722   -1.5992 C   0  0  0  0  0  0  0  0  0  0  0  0
    0.6340    0.2030   -1.2572 C   0  0  0  0  0  0  0  0  0  0  0  0
    0.2303   -0.0246    0.0398 C   0  0  0  0  0  0  0  0  0  0  0  0
   -1.1091    0.0937    0.4513 C   0  0  0  0  0  0  0  0  0  0  0  0
   -2.0741    0.4230   -0.5350 N   0  0  0  0  0  0  0  0  0  0  0  0
   -3.4452    0.6034   -0.1853 C   0  0  0  0  0  0  0  0  0  0  0  0
   -3.9093    1.1145    0.9971 C   0  0  0  0  0  0  0  0  0  0  0  0
   -5.2889    1.1912    1.1986 C   0  0  0  0  0  0  0  0  0  0  0  0
   -6.1968    0.7734    0.2531 C   0  0  0  0  0  0  0  0  0  0  0  0
   -7.5372    0.8342    0.4174 F   0  0  0  0  0  0  0  0  0  0  0  0
   -5.7074    0.2641   -0.9283 C   0  0  0  0  0  0  0  0  0  0  0  0
   -4.3675    0.1734   -1.1601 C   0  0  0  0  0  0  0  0  0  0  0  0
   -1.4782   -0.1327    1.7294 N   0  0  0  0  0  0  0  0  0  0  0  0
   -0.5761   -0.4779    2.6449 C   0  0  0  0  0  0  0  0  0  0  0  0
    0.7509   -0.6125    2.3143 C   0  0  0  0  0  0  0  0  0  0  0  0
    1.1539   -0.3856    1.0107 C   0  0  0  0  0  0  0  0  0  0  0  0
    2.4825   -0.5136    0.6579 C   0  0  0  0  0  0  0  0  0  0  0  0
    6.1543    0.3466   -2.5385 H   0  0  0  0  0  0  0  0  0  0  0  0
    5.3085   -0.0413    0.7266 H   0  0  0  0  0  0  0  0  0  0  0  0
    5.0716   -1.7529    0.3294 H   0  0  0  0  0  0  0  0  0  0  0  0
    2.3001    0.2502   -2.6273 H   0  0  0  0  0  0  0  0  0  0  0  0
   -0.0706    0.4825   -2.0033 H   0  0  0  0  0  0  0  0  0  0  0  0
   -1.8301    0.5482   -1.5618 H   0  0  0  0  0  0  0  0  0  0  0  0
   -3.2604    1.4738    1.7562 H   0  0  0  0  0  0  0  0  0  0  0  0
   -5.6303    1.5940    2.1321 H   0  0  0  0  0  0  0  0  0  0  0  0
   -6.3712   -0.0825   -1.7153 H   0  0  0  0  0  0  0  0  0  0  0  0
   -3.9828   -0.2228   -2.0795 H   0  0  0  0  0  0  0  0  0  0  0  0
   -0.9257   -0.6472    3.6525 H   0  0  0  0  0  0  0  0  0  0  0  0
    1.4788   -0.8917    3.0552 H   0  0  0  0  0  0  0  0  0  0  0  0
    3.1924   -0.7922    1.4087 H   0  0  0  0  0  0  0  0  0  0  0  0
  1  2  1  0
  2  3  2  0
  2  4  1  0
  4  5  1  0
  5  6  1  0
  6  7  2  0
  7  8  1  0
  8  9  2  0
  9 10  1  0
 10 11  1  0
 11 12  1  0
 12 13  2  0
 13 14  1  0
 14 15  2  0
 15 16  1  0
 15 17  1  0
 17 18  2  0
 10 19  2  0
 19 20  1  0
 20 21  2  0
 21 22  1  0
 22 23  2  0
 23  6  1  0
 22  9  1  0
 18 12  1  0
  1 24  1  0
  4 25  1  0
  4 26  1  0
  7 27  1  0
  8 28  1  0
 11 29  1  0
 13 30  1  0
 14 31  1  0
 17 32  1  0
 18 33  1  0
 20 34  1  0
 21 35  1  0
 23 36  1  0
M  END
$$$$
[H]C([H])=C([H])c1c([H])c([H])n2c(-c3c([H])c([H])c(Cl)c([H])c3[H])c(C(=O)N([H])C([H])([H])C([H])([H])N(C([H])([H])[H])C([H])([H])[H])c([H])c2c1[H]
     RDKit          3D

 48 50  0  0  0  0  0  0  0  0999 V2000
    6.5598    0.2982   -1.0538 C   0  0  0  0  0  0  0  0  0  0  0  0
    5.4850    0.6132   -0.1968 N   0  0  0  0  0  0  0  0  0  0  0  0
    5.7788    1.0269    1.1124 C   0  0  0  0  0  0  0  0  0  0  0  0
    4.2185    0.0743   -0.4963 C   0  0  0  0  0  0  0  0  0  0  0  0
    3.1853    0.5040    0.5051 C   0  0  0  0  0  0  0  0  0  0  0  0
    1.8592   -0.0344    0.2091 N   0  0  0  0  0  0  0  0  0  0  0  0
    0.7442    0.2420    1.0249 C   0  0  0  0  0  0  0  0  0  0  0  0
    0.8765    0.9548    2.0439 O   0  0  0  0  0  0  0  0  0  0  0  0
   -0.5657   -0.2924    0.7128 C   0  0  0  0  0  0  0  0  0  0  0  0
   -0.9555   -1.6131    0.9707 C   0  0  0  0  0  0  0  0  0  0  0  0
   -2.2327   -1.8278    0.5207 C   0  0  0  0  0  0  0  0  0  0  0  0
   -3.0068   -2.9946    0.5550 C   0  0  0  0  0  0  0  0  0  0  0  0
   -4.2694   -3.0076    0.0206 C   0  0  0  0  0  0  0  0  0  0  0  0
   -5.1340   -4.1752    0.0669 C   0  0  0  0  0  0  0  0  0  0  0  0
   -4.9895   -5.2121    0.8490 C   0  0  0  0  0  0  0  0  0  0  0  0
   -4.7081   -1.8269   -0.5388 C   0  0  0  0  0  0  0  0  0  0  0  0
   -3.8961   -0.7035   -0.5415 C   0  0  0  0  0  0  0  0  0  0  0  0
   -2.6583   -0.6717   -0.0172 N   0  0  0  0  0  0  0  0  0  0  0  0
   -1.6689    0.2746    0.0914 C   0  0  0  0  0  0  0  0  0  0  0  0
   -1.7744    1.6755   -0.3790 C   0  0  0  0  0  0  0  0  0  0  0  0
   -0.6999    2.4120   -0.7763 C   0  0  0  0  0  0  0  0  0  0  0  0
   -0.7926    3.7695   -1.0509 C   0  0  0  0  0  0  0  0  0  0  0  0
   -1.9720    4.4508   -0.9412 C   0  0  0  0  0  0  0  0  0  0  0  0
   -2.0740    6.1745   -1.2821 Cl  0  0  0  0  0  0  0  0  0  0  0  0
   -3.0636    3.7247   -0.5445 C   0  0  0  0  0  0  0  0  0  0  0  0
   -2.9748    2.3578   -0.2646 C   0  0  0  0  0  0  0  0  0  0  0  0
    6.7882    1.2178   -1.6703 H   0  0  0  0  0  0  0  0  0  0  0  0
    7.5129    0.0786   -0.5299 H   0  0  0  0  0  0  0  0  0  0  0  0
    6.3367   -0.5266   -1.7352 H   0  0  0  0  0  0  0  0  0  0  0  0
    5.6029    0.3010    1.9302 H   0  0  0  0  0  0  0  0  0  0  0  0
    5.2285    1.9760    1.3533 H   0  0  0  0  0  0  0  0  0  0  0  0
    6.8699    1.2922    1.1666 H   0  0  0  0  0  0  0  0  0  0  0  0
    4.2825   -1.0487   -0.5469 H   0  0  0  0  0  0  0  0  0  0  0  0
    3.9083    0.4108   -1.5001 H   0  0  0  0  0  0  0  0  0  0  0  0
    3.4974    0.1454    1.4964 H   0  0  0  0  0  0  0  0  0  0  0  0
    3.1120    1.6121    0.4832 H   0  0  0  0  0  0  0  0  0  0  0  0
    1.7478   -0.6396   -0.6384 H   0  0  0  0  0  0  0  0  0  0  0  0
   -0.3378   -2.3344    1.4465 H   0  0  0  0  0  0  0  0  0  0  0  0
   -2.6112   -3.9076    1.0108 H   0  0  0  0  0  0  0  0  0  0  0  0
   -5.9848   -4.1689   -0.6431 H   0  0  0  0  0  0  0  0  0  0  0  0
   -4.1213   -5.2001    1.5454 H   0  0  0  0  0  0  0  0  0  0  0  0
   -5.6287   -6.0592    0.8720 H   0  0  0  0  0  0  0  0  0  0  0  0
   -5.7073   -1.8003   -0.9765 H   0  0  0  0  0  0  0  0  0  0  0  0
   -4.2903    0.1725   -1.0412 H   0  0  0  0  0  0  0  0  0  0  0  0
    0.2632    1.9211   -0.9110 H   0  0  0  0  0  0  0  0  0  0  0  0
    0.1151    4.2823   -1.3551 H   0  0  0  0  0  0  0  0  0  0  0  0
   -4.0146    4.2366   -0.4483 H   0  0  0  0  0  0  0  0  0  0  0  0
   -3.8404    1.8453    0.0923 H   0  0  0  0  0  0  0  0  0  0  0  0
  1  2  1  0
  2  3  1  0
  2  4  1  0
  4  5  1  0
  5  6  1  0
  6  7  1  0
  7  8  2  0
  7  9  1  0
  9 10  1  0
 10 11  2  0
 11 12  1  0
 12 13  2  0
 13 14  1  0
 14 15  2  3
 13 16  1  0
 16 17  2  0
 17 18  1  0
 18 19  1  0
 19 20  1  0
 20 21  2  0
 21 22  1  0
 22 23  2  0
 23 24  1  0
 23 25  1  0
 25 26  2  0
 19  9  2  0
 26 20  1  0
 18 11  1  0
  1 27  1  0
  1 28  1  0
  1 29  1  0
  3 30  1  0
  3 31  1  0
  3 32  1  0
  4 33  1  0
  4 34  1  0
  5 35  1  0
  5 36  1  0
  6 37  1  0
 10 38  1  0
 12 39  1  0
 14 40  1  0
 15 41  1  0
 15 42  1  0
 16 43  1  0
 17 44  1  0
 21 45  1  0
 22 46  1  0
 25 47  1  0
 26 48  1  0
M  END
$$$$
[H]/C(C(=O)N1C([H])([H])C([H])([H])OC([H])([H])C1([H])[H])=C(/[H])c1c([H])c([H])c(C([H])([H])C([H])([H])[C@@]2([H])N(C([H])([H])[H])C([H])([H])[C@]([H])(c3c([H])c([H])c([H])c([H])c3[H])C2([H])[H])c([H])c1[H]
     RDKit          3D

 62 65  0  0  0  0  0  0  0  0999 V2000
   -3.4661    3.2960   -0.6688 C   0  0  0  0  0  0  0  0  0  0  0  0
   -4.3866    2.4065    0.0021 N   0  0  0  0  0  0  0  0  0  0  0  0
   -5.0149    1.5105   -0.9254 C   0  0  0  0  0  0  0  0  0  0  0  0
   -4.7381    0.1054   -0.4650 C   0  0  1  0  0  0  0  0  0  0  0  0
   -4.5498    0.3275    1.0426 C   0  0  0  0  0  0  0  0  0  0  0  0
   -3.7360    1.6032    1.0185 C   0  0  1  0  0  0  0  0  0  0  0  0
   -2.3150    1.3002    0.6953 C   0  0  0  0  0  0  0  0  0  0  0  0
   -1.6474    0.4744    1.7563 C   0  0  0  0  0  0  0  0  0  0  0  0
   -0.2592    0.2349    1.3570 C   0  0  0  0  0  0  0  0  0  0  0  0
    0.1122   -0.8526    0.6098 C   0  0  0  0  0  0  0  0  0  0  0  0
    1.4499   -1.0716    0.2320 C   0  0  0  0  0  0  0  0  0  0  0  0
    2.4412   -0.1991    0.5994 C   0  0  0  0  0  0  0  0  0  0  0  0
    3.8549   -0.3551    0.2473 C   0  0  0  0  0  0  0  0  0  0  0  0
    4.3622   -1.3279   -0.4538 C   0  0  0  0  0  0  0  0  0  0  0  0
    5.6932   -1.6038   -0.8666 C   0  0  0  0  0  0  0  0  0  0  0  0
    5.8157   -2.7003   -1.5717 O   0  0  0  0  0  0  0  0  0  0  0  0
    6.9222   -0.9346   -0.6722 N   0  0  0  0  0  0  0  0  0  0  0  0
    7.1074    0.2905    0.0483 C   0  0  0  0  0  0  0  0  0  0  0  0
    8.4641    0.8356    0.2311 C   0  0  0  0  0  0  0  0  0  0  0  0
    9.4531   -0.0536   -0.0739 O   0  0  0  0  0  0  0  0  0  0  0  0
    9.1873   -0.5131   -1.3715 C   0  0  0  0  0  0  0  0  0  0  0  0
    8.1304   -1.5615   -1.2650 C   0  0  0  0  0  0  0  0  0  0  0  0
    2.0367    0.8986    1.3589 C   0  0  0  0  0  0  0  0  0  0  0  0
    0.7266    1.1160    1.7307 C   0  0  0  0  0  0  0  0  0  0  0  0
   -5.9100   -0.7943   -0.6136 C   0  0  0  0  0  0  0  0  0  0  0  0
   -5.7112   -1.9966   -1.2510 C   0  0  0  0  0  0  0  0  0  0  0  0
   -6.7166   -2.9166   -1.4512 C   0  0  0  0  0  0  0  0  0  0  0  0
   -7.9791   -2.6062   -0.9857 C   0  0  0  0  0  0  0  0  0  0  0  0
   -8.1838   -1.3932   -0.3416 C   0  0  0  0  0  0  0  0  0  0  0  0
   -7.1551   -0.4956   -0.1582 C   0  0  0  0  0  0  0  0  0  0  0  0
   -2.6011    2.7803   -1.1122 H   0  0  0  0  0  0  0  0  0  0  0  0
   -4.0236    3.7561   -1.5173 H   0  0  0  0  0  0  0  0  0  0  0  0
   -3.1175    4.1091   -0.0276 H   0  0  0  0  0  0  0  0  0  0  0  0
   -6.1094    1.7233   -0.8899 H   0  0  0  0  0  0  0  0  0  0  0  0
   -4.6391    1.7291   -1.9377 H   0  0  0  0  0  0  0  0  0  0  0  0
   -3.8279   -0.3052   -0.8956 H   0  0  0  0  0  0  0  0  0  0  0  0
   -5.5521    0.5455    1.4737 H   0  0  0  0  0  0  0  0  0  0  0  0
   -4.0882   -0.5136    1.5449 H   0  0  0  0  0  0  0  0  0  0  0  0
   -3.7770    2.0661    2.0184 H   0  0  0  0  0  0  0  0  0  0  0  0
   -1.7640    2.2863    0.6825 H   0  0  0  0  0  0  0  0  0  0  0  0
   -2.1796    0.7686   -0.2691 H   0  0  0  0  0  0  0  0  0  0  0  0
   -2.1154   -0.5219    1.9026 H   0  0  0  0  0  0  0  0  0  0  0  0
   -1.6123    1.0370    2.7354 H   0  0  0  0  0  0  0  0  0  0  0  0
   -0.6321   -1.5557    0.3038 H   0  0  0  0  0  0  0  0  0  0  0  0
    1.6993   -1.9440   -0.3583 H   0  0  0  0  0  0  0  0  0  0  0  0
    4.5112    0.3975    0.6033 H   0  0  0  0  0  0  0  0  0  0  0  0
    3.5763   -2.0662   -0.7749 H   0  0  0  0  0  0  0  0  0  0  0  0
    6.4111    1.0530   -0.4080 H   0  0  0  0  0  0  0  0  0  0  0  0
    6.7062    0.0767    1.0904 H   0  0  0  0  0  0  0  0  0  0  0  0
    8.6037    1.1045    1.3251 H   0  0  0  0  0  0  0  0  0  0  0  0
    8.6138    1.8308   -0.2731 H   0  0  0  0  0  0  0  0  0  0  0  0
    8.7489    0.3429   -1.9402 H   0  0  0  0  0  0  0  0  0  0  0  0
   10.1145   -0.8666   -1.8275 H   0  0  0  0  0  0  0  0  0  0  0  0
    7.8390   -1.8860   -2.2686 H   0  0  0  0  0  0  0  0  0  0  0  0
    8.4351   -2.4362   -0.6577 H   0  0  0  0  0  0  0  0  0  0  0  0
    2.8140    1.6127    1.6657 H   0  0  0  0  0  0  0  0  0  0  0  0
    0.4629    1.9972    2.3292 H   0  0  0  0  0  0  0  0  0  0  0  0
   -4.7181   -2.2588   -1.6258 H   0  0  0  0  0  0  0  0  0  0  0  0
   -6.5222   -3.8569   -1.9593 H   0  0  0  0  0  0  0  0  0  0  0  0
   -8.7888   -3.3202   -1.1336 H   0  0  0  0  0  0  0  0  0  0  0  0
   -9.1656   -1.1664    0.0133 H   0  0  0  0  0  0  0  0  0  0  0  0
   -7.2905    0.4574    0.3416 H   0  0  0  0  0  0  0  0  0  0  0  0
  1  2  1  0
  2  3  1  0
  3  4  1  0
  4  5  1  0
  5  6  1  0
  6  7  1  0
  7  8  1  0
  8  9  1  0
  9 10  2  0
 10 11  1  0
 11 12  2  0
 12 13  1  0
 13 14  2  0
 14 15  1  0
 15 16  2  0
 15 17  1  0
 17 18  1  0
 18 19  1  0
 19 20  1  0
 20 21  1  0
 21 22  1  0
 12 23  1  0
 23 24  2  0
  4 25  1  0
 25 26  2  0
 26 27  1  0
 27 28  2  0
 28 29  1  0
 29 30  2  0
  6  2  1  0
 24  9  1  0
 30 25  1  0
 22 17  1  0
  1 31  1  0
  1 32  1  0
  1 33  1  0
  3 34  1  0
  3 35  1  0
  4 36  1  6
  5 37  1  0
  5 38  1  0
  6 39  1  1
  7 40  1  0
  7 41  1  0
  8 42  1  0
  8 43  1  0
 10 44  1  0
 11 45  1  0
 13 46  1  0
 14 47  1  0
 18 48  1  0
 18 49  1  0
 19 50  1  0
 19 51  1  0
 21 52  1  0
 21 53  1  0
 22 54  1  0
 22 55  1  0
 23 56  1  0
 24 57  1  0
 26 58  1  0
 27 59  1  0
 28 60  1  0
 29 61  1  0
 30 62  1  0
M  END
$$$$
[H]c1nc([H])c([H])c(N2C(=O)N([H])[C@]([H])(C([H])([H])[H])c3c([H])c([H])c([H])c([H])c3S(=O)(=O)[C@@]2([H])[C@]([H])(C#CC([H])([H])[H])C([H])([H])[H])c1[H]
     RDKit          3D

 48 50  0  0  0  0  0  0  0  0999 V2000
   -3.2296   -2.4348    2.4277 C   0  0  0  0  0  0  0  0  0  0  0  0
   -2.8864   -1.6625    1.2244 C   0  0  0  0  0  0  0  0  0  0  0  0
   -2.5954   -1.0256    0.2513 C   0  0  0  0  0  0  0  0  0  0  0  0
   -2.2681   -0.2468   -0.9176 C   0  0  2  0  0  0  0  0  0  0  0  0
   -2.6947   -0.9595   -2.2013 C   0  0  0  0  0  0  0  0  0  0  0  0
   -0.8096    0.1477   -0.9873 C   0  0  1  0  0  0  0  0  0  0  0  0
   -0.4694    0.9259    0.1449 N   0  0  0  0  0  0  0  0  0  0  0  0
    0.3930    1.0043    1.2599 C   0  0  0  0  0  0  0  0  0  0  0  0
    0.0096    1.8352    2.1463 O   0  0  0  0  0  0  0  0  0  0  0  0
    1.5941    0.3788    1.6391 N   0  0  0  0  0  0  0  0  0  0  0  0
    2.2709   -0.8835    1.4378 C   0  0  2  0  0  0  0  0  0  0  0  0
    3.3822   -1.0812    2.4184 C   0  0  0  0  0  0  0  0  0  0  0  0
    2.6698   -0.9235    0.0233 C   0  0  0  0  0  0  0  0  0  0  0  0
    4.0147   -0.7975   -0.0789 C   0  0  0  0  0  0  0  0  0  0  0  0
    4.6106   -0.8058   -1.3157 C   0  0  0  0  0  0  0  0  0  0  0  0
    3.8429   -0.9433   -2.4760 C   0  0  0  0  0  0  0  0  0  0  0  0
    2.4685   -1.0698   -2.3324 C   0  0  0  0  0  0  0  0  0  0  0  0
    1.8401   -1.0649   -1.0982 C   0  0  0  0  0  0  0  0  0  0  0  0
    0.1232   -1.2474   -1.3844 S   0  0  0  0  0  0  0  0  0  0  0  0
   -0.0661   -1.5475   -2.8572 O   0  0  0  0  0  0  0  0  0  0  0  0
   -0.3310   -2.5032   -0.6611 O   0  0  0  0  0  0  0  0  0  0  0  0
   -1.3308    2.0737    0.1514 C   0  0  0  0  0  0  0  0  0  0  0  0
   -2.2811    2.3281    1.0976 C   0  0  0  0  0  0  0  0  0  0  0  0
   -3.0394    3.4686    0.9904 C   0  0  0  0  0  0  0  0  0  0  0  0
   -2.8409    4.3034   -0.0237 N   0  0  0  0  0  0  0  0  0  0  0  0
   -1.9276    4.1210   -0.9901 C   0  0  0  0  0  0  0  0  0  0  0  0
   -1.1587    2.9655   -0.8821 C   0  0  0  0  0  0  0  0  0  0  0  0
   -2.5765   -3.3136    2.5674 H   0  0  0  0  0  0  0  0  0  0  0  0
   -3.0680   -1.7581    3.2930 H   0  0  0  0  0  0  0  0  0  0  0  0
   -4.2685   -2.7879    2.4032 H   0  0  0  0  0  0  0  0  0  0  0  0
   -2.8683    0.6839   -0.8995 H   0  0  0  0  0  0  0  0  0  0  0  0
   -3.8127   -0.8641   -2.2502 H   0  0  0  0  0  0  0  0  0  0  0  0
   -2.2445   -0.4126   -3.0514 H   0  0  0  0  0  0  0  0  0  0  0  0
   -2.4050   -2.0071   -2.1333 H   0  0  0  0  0  0  0  0  0  0  0  0
   -0.7600    0.8453   -1.8802 H   0  0  0  0  0  0  0  0  0  0  0  0
    2.2211    0.9822    2.2607 H   0  0  0  0  0  0  0  0  0  0  0  0
    1.5644   -1.7521    1.6037 H   0  0  0  0  0  0  0  0  0  0  0  0
    3.9644   -0.1530    2.6353 H   0  0  0  0  0  0  0  0  0  0  0  0
    2.8754   -1.2981    3.4094 H   0  0  0  0  0  0  0  0  0  0  0  0
    3.9934   -1.9685    2.2311 H   0  0  0  0  0  0  0  0  0  0  0  0
    4.6211   -0.6904    0.7891 H   0  0  0  0  0  0  0  0  0  0  0  0
    5.6910   -0.7072   -1.4456 H   0  0  0  0  0  0  0  0  0  0  0  0
    4.3199   -0.9485   -3.4435 H   0  0  0  0  0  0  0  0  0  0  0  0
    1.8732   -1.1772   -3.2359 H   0  0  0  0  0  0  0  0  0  0  0  0
   -2.4138    1.6307    1.9018 H   0  0  0  0  0  0  0  0  0  0  0  0
   -3.7925    3.6897    1.7223 H   0  0  0  0  0  0  0  0  0  0  0  0
   -1.7804    4.8154   -1.8126 H   0  0  0  0  0  0  0  0  0  0  0  0
   -0.4246    2.8357   -1.6713 H   0  0  0  0  0  0  0  0  0  0  0  0
  1  2  1  0
  2  3  3  0
  3  4  1  0
  4  5  1  0
  4  6  1  0
  6  7  1  0
  7  8  1  0
  8  9  2  0
  8 10  1  0
 10 11  1  0
 11 12  1  0
 11 13  1  0
 13 14  2  0
 14 15  1  0
 15 16  2  0
 16 17  1  0
 17 18  2  0
 18 19  1  0
 19 20  2  0
 19 21  2  0
  7 22  1  0
 22 23  2  0
 23 24  1  0
 24 25  2  0
 25 26  1  0
 26 27  2  0
 19  6  1  0
 27 22  1  0
 18 13  1  0
  1 28  1  0
  1 29  1  0
  1 30  1  0
  4 31  1  1
  5 32  1  0
  5 33  1  0
  5 34  1  0
  6 35  1  6
 10 36  1  0
 11 37  1  6
 12 38  1  0
 12 39  1  0
 12 40  1  0
 14 41  1  0
 15 42  1  0
 16 43  1  0
 17 44  1  0
 23 45  1  0
 24 46  1  0
 26 47  1  0
 27 48  1  0
M  END
$$$$
[H]N(C(=O)OC([H])([H])C([H])([H])[H])C1([H])C([H])([H])C([H])([H])C([H])([H])C([H])([H])C1([H])[H]
     RDKit          3D

 29 29  0  0  0  0  0  0  0  0999 V2000
    4.4905    0.4189    0.9606 C   0  0  0  0  0  0  0  0  0  0  0  0
    4.2176   -0.1525   -0.4070 C   0  0  0  0  0  0  0  0  0  0  0  0
    2.9100    0.1591   -0.8417 O   0  0  0  0  0  0  0  0  0  0  0  0
    1.7764   -0.2231   -0.1749 C   0  0  0  0  0  0  0  0  0  0  0  0
    1.8659   -0.8894    0.8867 O   0  0  0  0  0  0  0  0  0  0  0  0
    0.4627    0.1058   -0.6368 N   0  0  0  0  0  0  0  0  0  0  0  0
   -0.7299   -0.2885    0.0521 C   0  0  0  0  0  0  0  0  0  0  0  0
   -1.4168    0.9404    0.5598 C   0  0  0  0  0  0  0  0  0  0  0  0
   -2.8187    0.5768    0.9294 C   0  0  0  0  0  0  0  0  0  0  0  0
   -3.5831    0.2960   -0.3355 C   0  0  0  0  0  0  0  0  0  0  0  0
   -2.8203   -0.5379   -1.3205 C   0  0  0  0  0  0  0  0  0  0  0  0
   -1.6064   -1.2032   -0.7422 C   0  0  0  0  0  0  0  0  0  0  0  0
    5.5780    0.6523    1.0216 H   0  0  0  0  0  0  0  0  0  0  0  0
    4.2612   -0.2726    1.7797 H   0  0  0  0  0  0  0  0  0  0  0  0
    3.9352    1.3694    1.1343 H   0  0  0  0  0  0  0  0  0  0  0  0
    4.9494    0.2637   -1.1083 H   0  0  0  0  0  0  0  0  0  0  0  0
    4.3937   -1.2508   -0.3582 H   0  0  0  0  0  0  0  0  0  0  0  0
    0.3355    0.6652   -1.5253 H   0  0  0  0  0  0  0  0  0  0  0  0
   -0.3983   -0.8683    0.9631 H   0  0  0  0  0  0  0  0  0  0  0  0
   -0.8949    1.2715    1.4886 H   0  0  0  0  0  0  0  0  0  0  0  0
   -1.4315    1.7756   -0.1644 H   0  0  0  0  0  0  0  0  0  0  0  0
   -3.2769    1.4035    1.4808 H   0  0  0  0  0  0  0  0  0  0  0  0
   -2.8268   -0.3132    1.6104 H   0  0  0  0  0  0  0  0  0  0  0  0
   -4.5509   -0.1766   -0.0323 H   0  0  0  0  0  0  0  0  0  0  0  0
   -3.8401    1.2648   -0.8102 H   0  0  0  0  0  0  0  0  0  0  0  0
   -2.5413    0.0515   -2.2310 H   0  0  0  0  0  0  0  0  0  0  0  0
   -3.5070   -1.3310   -1.6841 H   0  0  0  0  0  0  0  0  0  0  0  0
   -1.9288   -2.1001   -0.1427 H   0  0  0  0  0  0  0  0  0  0  0  0
   -1.0045   -1.6071   -1.5826 H   0  0  0  0  0  0  0  0  0  0  0  0
  1  2  1  0
  2  3  1  0
  3  4  1  0
  4  5  2  0
  4  6  1  0
  6  7  1  0
  7  8  1  0
  8  9  1  0
  9 10  1  0
 10 11  1  0
 11 12  1  0
 12  7  1  0
  1 13  1  0
  1 14  1  0
  1 15  1  0
  2 16  1  0
  2 17  1  0
  6 18  1  0
  7 19  1  0
  8 20  1  0
  8 21  1  0
  9 22  1  0
  9 23  1  0
 10 24  1  0
 10 25  1  0
 11 26  1  0
 11 27  1  0
 12 28  1  0
 12 29  1  0
M  END
$$$$
[H]O[C@@]1([H])C(=O)N(C2([H])C([H])([H])C([H])([H])C([H])([H])C2([H])[H])C([H])([H])C([H])(N([H])C([H])(C([H])([H])[H])C([H])([H])[H])[C@]1([H])N([H])C([H])([H])[H]
     RDKit          3D

 46 47  0  0  0  0  0  0  0  0999 V2000
   -3.1096    1.7899    1.9205 C   0  0  0  0  0  0  0  0  0  0  0  0
   -2.8393    1.8808    0.4326 C   0  0  0  0  0  0  0  0  0  0  0  0
   -2.1414    3.1582    0.1064 C   0  0  0  0  0  0  0  0  0  0  0  0
   -2.4600    0.6996   -0.1853 N   0  0  0  0  0  0  0  0  0  0  0  0
   -1.3263   -0.0437    0.1654 C   0  0  0  0  0  0  0  0  0  0  0  0
   -0.0529    0.6956   -0.0528 C   0  0  0  0  0  0  0  0  0  0  0  0
    1.1288   -0.1963   -0.1401 N   0  0  0  0  0  0  0  0  0  0  0  0
    2.3966    0.4066    0.0120 C   0  0  0  0  0  0  0  0  0  0  0  0
    3.3109   -0.1863    1.0261 C   0  0  0  0  0  0  0  0  0  0  0  0
    4.5930    0.5789    0.7839 C   0  0  0  0  0  0  0  0  0  0  0  0
    4.5280    1.0479   -0.6733 C   0  0  0  0  0  0  0  0  0  0  0  0
    3.2903    0.3204   -1.2369 C   0  0  0  0  0  0  0  0  0  0  0  0
    0.9710   -1.5785   -0.3617 C   0  0  0  0  0  0  0  0  0  0  0  0
    1.9205   -2.2611   -0.7352 O   0  0  0  0  0  0  0  0  0  0  0  0
   -0.3498   -2.2640   -0.1518 C   0  0  2  0  0  0  0  0  0  0  0  0
   -0.3521   -3.4916   -0.8229 O   0  0  0  0  0  0  0  0  0  0  0  0
   -1.3828   -1.3253   -0.7043 C   0  0  1  0  0  0  0  0  0  0  0  0
   -2.7118   -1.8905   -0.5408 N   0  0  0  0  0  0  0  0  0  0  0  0
   -2.9122   -3.1286   -1.2194 C   0  0  0  0  0  0  0  0  0  0  0  0
   -3.7357    2.6689    2.1855 H   0  0  0  0  0  0  0  0  0  0  0  0
   -3.6706    0.8972    2.2078 H   0  0  0  0  0  0  0  0  0  0  0  0
   -2.1700    1.9153    2.5267 H   0  0  0  0  0  0  0  0  0  0  0  0
   -3.9234    2.0809    0.0208 H   0  0  0  0  0  0  0  0  0  0  0  0
   -2.6591    4.0031    0.6677 H   0  0  0  0  0  0  0  0  0  0  0  0
   -2.3437    3.4481   -0.9732 H   0  0  0  0  0  0  0  0  0  0  0  0
   -1.0704    3.1959    0.2249 H   0  0  0  0  0  0  0  0  0  0  0  0
   -2.7923    0.6115   -1.1530 H   0  0  0  0  0  0  0  0  0  0  0  0
   -1.3128   -0.3787    1.2372 H   0  0  0  0  0  0  0  0  0  0  0  0
   -0.0602    1.3784   -0.9118 H   0  0  0  0  0  0  0  0  0  0  0  0
    0.1019    1.3316    0.8749 H   0  0  0  0  0  0  0  0  0  0  0  0
    2.3166    1.5043    0.1972 H   0  0  0  0  0  0  0  0  0  0  0  0
    3.5530   -1.2538    0.8132 H   0  0  0  0  0  0  0  0  0  0  0  0
    3.0173   -0.0110    2.0794 H   0  0  0  0  0  0  0  0  0  0  0  0
    4.6023    1.4620    1.4599 H   0  0  0  0  0  0  0  0  0  0  0  0
    5.4902   -0.0548    0.9404 H   0  0  0  0  0  0  0  0  0  0  0  0
    4.2651    2.1280   -0.6996 H   0  0  0  0  0  0  0  0  0  0  0  0
    5.4409    0.7845   -1.2133 H   0  0  0  0  0  0  0  0  0  0  0  0
    2.8556    0.8345   -2.0937 H   0  0  0  0  0  0  0  0  0  0  0  0
    3.6318   -0.7123   -1.4061 H   0  0  0  0  0  0  0  0  0  0  0  0
   -0.5207   -2.3888    0.9368 H   0  0  0  0  0  0  0  0  0  0  0  0
   -0.3614   -4.2025   -0.1408 H   0  0  0  0  0  0  0  0  0  0  0  0
   -1.1557   -1.0367   -1.7480 H   0  0  0  0  0  0  0  0  0  0  0  0
   -2.8535   -2.0158    0.4993 H   0  0  0  0  0  0  0  0  0  0  0  0
   -2.3942   -3.2336   -2.1781 H   0  0  0  0  0  0  0  0  0  0  0  0
   -4.0122   -3.1931   -1.4593 H   0  0  0  0  0  0  0  0  0  0  0  0
   -2.7396   -3.9753   -0.5171 H   0  0  0  0  0  0  0  0  0  0  0  0
  1  2  1  0
  2  3  1  0
  2  4  1  0
  4  5  1  0
  5  6  1  0
  6  7  1  0
  7  8  1  0
  8  9  1  0
  9 10  1  0
 10 11  1  0
 11 12  1  0
  7 13  1  0
 13 14  2  0
 13 15  1  0
 15 16  1  0
 15 17  1  0
 17 18  1  0
 18 19  1  0
 17  5  1  0
 12  8  1  0
  1 20  1  0
  1 21  1  0
  1 22  1  0
  2 23  1  0
  3 24  1  0
  3 25  1  0
  3 26  1  0
  4 27  1  0
  5 28  1  0
  6 29  1  0
  6 30  1  0
  8 31  1  0
  9 32  1  0
  9 33  1  0
 10 34  1  0
 10 35  1  0
 11 36  1  0
 11 37  1  0
 12 38  1  0
 12 39  1  0
 15 40  1  1
 16 41  1  0
 17 42  1  6
 18 43  1  0
 19 44  1  0
 19 45  1  0
 19 46  1  0
M  END
$$$$
[H]c1c([H])c([H])c2sc(N3C([H])([H])C([H])([H])N(C4([H])C([H])([H])C([H])([H])N(C([H])(C([H])([H])[H])C([H])([H])[H])C([H])([H])C4([H])[H])C([H])([H])C3([H])[H])nc2c1[H]
     RDKit          3D

 52 55  0  0  0  0  0  0  0  0999 V2000
   -6.2340   -0.2069    0.8014 C   0  0  0  0  0  0  0  0  0  0  0  0
   -5.6610   -0.3384   -0.5902 C   0  0  0  0  0  0  0  0  0  0  0  0
   -6.1070   -1.6780   -1.1355 C   0  0  0  0  0  0  0  0  0  0  0  0
   -4.2497   -0.1812   -0.6561 N   0  0  0  0  0  0  0  0  0  0  0  0
   -3.8210    1.1131   -0.2439 C   0  0  0  0  0  0  0  0  0  0  0  0
   -2.3636    1.4001   -0.6343 C   0  0  0  0  0  0  0  0  0  0  0  0
   -1.5212    0.3482    0.0246 C   0  0  0  0  0  0  0  0  0  0  0  0
   -2.0378   -1.0070   -0.3778 C   0  0  0  0  0  0  0  0  0  0  0  0
   -3.4902   -1.1774    0.0732 C   0  0  0  0  0  0  0  0  0  0  0  0
   -0.1190    0.4400   -0.2001 N   0  0  0  0  0  0  0  0  0  0  0  0
    0.4616    1.6332    0.3292 C   0  0  0  0  0  0  0  0  0  0  0  0
    1.8623    1.9290   -0.0857 C   0  0  0  0  0  0  0  0  0  0  0  0
    2.5134    0.7718   -0.6234 N   0  0  0  0  0  0  0  0  0  0  0  0
    1.8236   -0.0978   -1.5237 C   0  0  0  0  0  0  0  0  0  0  0  0
    0.3239    0.0935   -1.5082 C   0  0  0  0  0  0  0  0  0  0  0  0
    3.8748    0.5138   -0.2395 C   0  0  0  0  0  0  0  0  0  0  0  0
    4.6641   -0.4761   -0.6033 N   0  0  0  0  0  0  0  0  0  0  0  0
    5.8810   -0.5469   -0.1528 C   0  0  0  0  0  0  0  0  0  0  0  0
    6.8195   -1.5468   -0.4635 C   0  0  0  0  0  0  0  0  0  0  0  0
    8.0761   -1.5289    0.0645 C   0  0  0  0  0  0  0  0  0  0  0  0
    8.4999   -0.5411    0.9252 C   0  0  0  0  0  0  0  0  0  0  0  0
    7.5950    0.4464    1.2412 C   0  0  0  0  0  0  0  0  0  0  0  0
    6.2979    0.4376    0.7029 C   0  0  0  0  0  0  0  0  0  0  0  0
    4.8980    1.4133    0.8064 S   0  0  0  0  0  0  0  0  0  0  0  0
   -7.3476   -0.3374    0.6955 H   0  0  0  0  0  0  0  0  0  0  0  0
   -6.0754    0.7810    1.2538 H   0  0  0  0  0  0  0  0  0  0  0  0
   -5.9041   -1.0506    1.4490 H   0  0  0  0  0  0  0  0  0  0  0  0
   -6.1209    0.4326   -1.2375 H   0  0  0  0  0  0  0  0  0  0  0  0
   -6.4994   -2.3537   -0.3378 H   0  0  0  0  0  0  0  0  0  0  0  0
   -5.2932   -2.2223   -1.6460 H   0  0  0  0  0  0  0  0  0  0  0  0
   -6.9246   -1.5739   -1.8887 H   0  0  0  0  0  0  0  0  0  0  0  0
   -3.8327    1.1578    0.8717 H   0  0  0  0  0  0  0  0  0  0  0  0
   -4.4624    1.9119   -0.6947 H   0  0  0  0  0  0  0  0  0  0  0  0
   -2.1618    2.4040   -0.1917 H   0  0  0  0  0  0  0  0  0  0  0  0
   -2.2111    1.3645   -1.7106 H   0  0  0  0  0  0  0  0  0  0  0  0
   -1.6935    0.3913    1.1519 H   0  0  0  0  0  0  0  0  0  0  0  0
   -1.4331   -1.7956    0.0998 H   0  0  0  0  0  0  0  0  0  0  0  0
   -2.0175   -1.1460   -1.4753 H   0  0  0  0  0  0  0  0  0  0  0  0
   -3.5747   -0.9432    1.1429 H   0  0  0  0  0  0  0  0  0  0  0  0
   -3.7807   -2.2027   -0.1464 H   0  0  0  0  0  0  0  0  0  0  0  0
   -0.1801    2.5039    0.0062 H   0  0  0  0  0  0  0  0  0  0  0  0
    0.3734    1.5441    1.4547 H   0  0  0  0  0  0  0  0  0  0  0  0
    1.8564    2.7847   -0.8004 H   0  0  0  0  0  0  0  0  0  0  0  0
    2.3875    2.3299    0.8174 H   0  0  0  0  0  0  0  0  0  0  0  0
    2.2070   -0.0375   -2.5639 H   0  0  0  0  0  0  0  0  0  0  0  0
    2.0375   -1.1451   -1.1961 H   0  0  0  0  0  0  0  0  0  0  0  0
   -0.1012   -0.8834   -1.8072 H   0  0  0  0  0  0  0  0  0  0  0  0
    0.0643    0.8342   -2.2892 H   0  0  0  0  0  0  0  0  0  0  0  0
    6.5771   -2.3702   -1.1360 H   0  0  0  0  0  0  0  0  0  0  0  0
    8.8137   -2.3175   -0.1820 H   0  0  0  0  0  0  0  0  0  0  0  0
    9.4900   -0.5419    1.3297 H   0  0  0  0  0  0  0  0  0  0  0  0
    7.8203    1.2675    1.9046 H   0  0  0  0  0  0  0  0  0  0  0  0
  1  2  1  0
  2  3  1  0
  2  4  1  0
  4  5  1  0
  5  6  1  0
  6  7  1  0
  7  8  1  0
  8  9  1  0
  7 10  1  0
 10 11  1  0
 11 12  1  0
 12 13  1  0
 13 14  1  0
 14 15  1  0
 13 16  1  0
 16 17  2  0
 17 18  1  0
 18 19  2  0
 19 20  1  0
 20 21  2  0
 21 22  1  0
 22 23  2  0
 23 24  1  0
  9  4  1  0
 15 10  1  0
 24 16  1  0
 23 18  1  0
  1 25  1  0
  1 26  1  0
  1 27  1  0
  2 28  1  0
  3 29  1  0
  3 30  1  0
  3 31  1  0
  5 32  1  0
  5 33  1  0
  6 34  1  0
  6 35  1  0
  7 36  1  0
  8 37  1  0
  8 38  1  0
  9 39  1  0
  9 40  1  0
 11 41  1  0
 11 42  1  0
 12 43  1  0
 12 44  1  0
 14 45  1  0
 14 46  1  0
 15 47  1  0
 15 48  1  0
 19 49  1  0
 20 50  1  0
 21 51  1  0
 22 52  1  0
M  END
$$$$
[H]c1c([H])c(C([H])([H])C([H])(C([H])([H])[H])C([H])([H])[H])c([H])c([H])c1OC([H])([H])[C@]1([H])C([H])([H])C([H])([H])[C@]2(C([H])([H])[H])C([H])([H])C([H])([H])[C@]([H])(C1([H])[H])C([H])([H])[C@@]2([H])C([H])([H])[H]
     RDKit          3D

 60 62  0  0  0  0  0  0  0  0999 V2000
    7.9455    0.4217   -1.4959 C   0  0  0  0  0  0  0  0  0  0  0  0
    6.6566    0.1068   -0.7580 C   0  0  0  0  0  0  0  0  0  0  0  0
    6.3652    1.1532    0.2800 C   0  0  0  0  0  0  0  0  0  0  0  0
    5.5052    0.0579   -1.7330 C   0  0  0  0  0  0  0  0  0  0  0  0
    4.2734   -0.2551   -0.9756 C   0  0  0  0  0  0  0  0  0  0  0  0
    3.4362    0.6796   -0.4516 C   0  0  0  0  0  0  0  0  0  0  0  0
    2.3106    0.2950    0.2432 C   0  0  0  0  0  0  0  0  0  0  0  0
    1.9478   -1.0144    0.4586 C   0  0  0  0  0  0  0  0  0  0  0  0
    0.8643   -1.4809    1.1205 O   0  0  0  0  0  0  0  0  0  0  0  0
   -0.1496   -0.8052    1.7061 C   0  0  0  0  0  0  0  0  0  0  0  0
   -1.0691    0.0065    0.8180 C   0  0  1  0  0  0  0  0  0  0  0  0
   -1.6684   -1.0056   -0.1242 C   0  0  0  0  0  0  0  0  0  0  0  0
   -2.4753   -0.4778   -1.2318 C   0  0  1  0  0  0  0  0  0  0  0  0
   -3.7627   -1.3149   -1.2994 C   0  0  0  0  0  0  0  0  0  0  0  0
   -4.5259   -1.2181   -0.0239 C   0  0  0  0  0  0  0  0  0  0  0  0
   -4.3316    0.1111    0.6955 C   0  0  2  0  0  0  0  0  0  0  0  0
   -5.7183    0.4398    1.2783 C   0  0  0  0  0  0  0  0  0  0  0  0
   -4.0304    1.2337   -0.2710 C   0  0  2  0  0  0  0  0  0  0  0  0
   -5.3271    1.4309   -1.0751 C   0  0  0  0  0  0  0  0  0  0  0  0
   -2.8678    0.9490   -1.1732 C   0  0  0  0  0  0  0  0  0  0  0  0
   -3.3879    0.0053    1.8344 C   0  0  0  0  0  0  0  0  0  0  0  0
   -2.0860    0.7012    1.6814 C   0  0  0  0  0  0  0  0  0  0  0  0
    2.8383   -1.9576   -0.0978 C   0  0  0  0  0  0  0  0  0  0  0  0
    3.9653   -1.5999   -0.7929 C   0  0  0  0  0  0  0  0  0  0  0  0
    8.2885    1.4049   -1.1646 H   0  0  0  0  0  0  0  0  0  0  0  0
    8.6572   -0.3982   -1.3514 H   0  0  0  0  0  0  0  0  0  0  0  0
    7.7286    0.5074   -2.5860 H   0  0  0  0  0  0  0  0  0  0  0  0
    6.7402   -0.8630   -0.2335 H   0  0  0  0  0  0  0  0  0  0  0  0
    5.6426    0.7754    1.0306 H   0  0  0  0  0  0  0  0  0  0  0  0
    5.9601    2.0699   -0.1855 H   0  0  0  0  0  0  0  0  0  0  0  0
    7.3001    1.3653    0.8501 H   0  0  0  0  0  0  0  0  0  0  0  0
    5.3751    0.9996   -2.2741 H   0  0  0  0  0  0  0  0  0  0  0  0
    5.6824   -0.7459   -2.4870 H   0  0  0  0  0  0  0  0  0  0  0  0
    3.6349    1.7214   -0.5711 H   0  0  0  0  0  0  0  0  0  0  0  0
    1.6650    1.0781    0.6809 H   0  0  0  0  0  0  0  0  0  0  0  0
   -0.8488   -1.5750    2.1799 H   0  0  0  0  0  0  0  0  0  0  0  0
    0.1588   -0.1571    2.5726 H   0  0  0  0  0  0  0  0  0  0  0  0
   -0.4833    0.7311    0.2462 H   0  0  0  0  0  0  0  0  0  0  0  0
   -2.1677   -1.7825    0.4912 H   0  0  0  0  0  0  0  0  0  0  0  0
   -0.7802   -1.5497   -0.5700 H   0  0  0  0  0  0  0  0  0  0  0  0
   -1.9922   -0.6514   -2.2394 H   0  0  0  0  0  0  0  0  0  0  0  0
   -3.3880   -2.3790   -1.3748 H   0  0  0  0  0  0  0  0  0  0  0  0
   -4.3279   -1.1335   -2.2109 H   0  0  0  0  0  0  0  0  0  0  0  0
   -4.1838   -1.9986    0.7122 H   0  0  0  0  0  0  0  0  0  0  0  0
   -5.5795   -1.4454   -0.2278 H   0  0  0  0  0  0  0  0  0  0  0  0
   -5.7803    1.5076    1.5458 H   0  0  0  0  0  0  0  0  0  0  0  0
   -5.7697   -0.1264    2.2372 H   0  0  0  0  0  0  0  0  0  0  0  0
   -6.5256    0.0999    0.6171 H   0  0  0  0  0  0  0  0  0  0  0  0
   -3.9167    2.1523    0.3188 H   0  0  0  0  0  0  0  0  0  0  0  0
   -5.8353    0.4736   -1.2653 H   0  0  0  0  0  0  0  0  0  0  0  0
   -5.1254    2.0150   -1.9942 H   0  0  0  0  0  0  0  0  0  0  0  0
   -6.0240    2.0392   -0.4619 H   0  0  0  0  0  0  0  0  0  0  0  0
   -3.2012    1.2480   -2.2129 H   0  0  0  0  0  0  0  0  0  0  0  0
   -1.9816    1.5978   -0.9836 H   0  0  0  0  0  0  0  0  0  0  0  0
   -3.8471    0.4028    2.7910 H   0  0  0  0  0  0  0  0  0  0  0  0
   -3.1594   -1.0664    2.1120 H   0  0  0  0  0  0  0  0  0  0  0  0
   -1.6323    0.7898    2.7131 H   0  0  0  0  0  0  0  0  0  0  0  0
   -2.2289    1.7817    1.3914 H   0  0  0  0  0  0  0  0  0  0  0  0
    2.5935   -2.9944    0.0476 H   0  0  0  0  0  0  0  0  0  0  0  0
    4.6434   -2.3559   -1.2168 H   0  0  0  0  0  0  0  0  0  0  0  0
  1  2  1  0
  2  3  1  0
  2  4  1  0
  4  5  1  0
  5  6  2  0
  6  7  1  0
  7  8  2  0
  8  9  1  0
  9 10  1  0
 10 11  1  0
 11 12  1  0
 12 13  1  0
 13 14  1  0
 14 15  1  0
 15 16  1  0
 16 17  1  1
 16 18  1  0
 18 19  1  0
 18 20  1  0
 16 21  1  0
 21 22  1  0
  8 23  1  0
 23 24  2  0
 24  5  1  0
 22 11  1  0
 20 13  1  0
  1 25  1  0
  1 26  1  0
  1 27  1  0
  2 28  1  0
  3 29  1  0
  3 30  1  0
  3 31  1  0
  4 32  1  0
  4 33  1  0
  6 34  1  0
  7 35  1  0
 10 36  1  0
 10 37  1  0
 11 38  1  6
 12 39  1  0
 12 40  1  0
 13 41  1  6
 14 42  1  0
 14 43  1  0
 15 44  1  0
 15 45  1  0
 17 46  1  0
 17 47  1  0
 17 48  1  0
 18 49  1  1
 19 50  1  0
 19 51  1  0
 19 52  1  0
 20 53  1  0
 20 54  1  0
 21 55  1  0
 21 56  1  0
 22 57  1  0
 22 58  1  0
 23 59  1  0
 24 60  1  0
M  END
$$$$
[H]c1nc(C(F)(F)F)oc1C(=O)C1(c2c([H])c([H])c(C([H])(C([H])([H])[H])C([H])([H])[H])c([H])c2[H])C([H])([H])C([H])([H])N(C([H])([H])c2c([H])c([H])c([H])c([H])c2[H])C([H])([H])C1([H])[H]
     RDKit          3D

 60 63  0  0  0  0  0  0  0  0999 V2000
   -5.5032   -2.8628   -1.2816 C   0  0  0  0  0  0  0  0  0  0  0  0
   -4.8841   -2.7773    0.0714 C   0  0  0  0  0  0  0  0  0  0  0  0
   -4.5834   -4.0571    0.7576 C   0  0  0  0  0  0  0  0  0  0  0  0
   -3.6706   -1.9005   -0.0170 C   0  0  0  0  0  0  0  0  0  0  0  0
   -2.4350   -2.4728    0.1841 C   0  0  0  0  0  0  0  0  0  0  0  0
   -1.3211   -1.6241    0.2230 C   0  0  0  0  0  0  0  0  0  0  0  0
   -1.4569   -0.2757    0.0719 C   0  0  0  0  0  0  0  0  0  0  0  0
   -2.7067    0.2809   -0.1391 C   0  0  0  0  0  0  0  0  0  0  0  0
   -3.8409   -0.5461   -0.1853 C   0  0  0  0  0  0  0  0  0  0  0  0
   -0.3297    0.6977    0.3934 C   0  0  0  0  0  0  0  0  0  0  0  0
    0.4423    1.2205   -0.7478 C   0  0  0  0  0  0  0  0  0  0  0  0
    1.8077    1.6915   -0.2189 C   0  0  0  0  0  0  0  0  0  0  0  0
    2.6970    0.5944    0.1181 N   0  0  0  0  0  0  0  0  0  0  0  0
    3.5944    0.2791   -0.9763 C   0  0  0  0  0  0  0  0  0  0  0  0
    4.5807   -0.6998   -0.4206 C   0  0  0  0  0  0  0  0  0  0  0  0
    5.2854   -1.5350   -1.2574 C   0  0  0  0  0  0  0  0  0  0  0  0
    6.1592   -2.4327   -0.6808 C   0  0  0  0  0  0  0  0  0  0  0  0
    6.3586   -2.5303    0.6882 C   0  0  0  0  0  0  0  0  0  0  0  0
    5.6560   -1.6948    1.5161 C   0  0  0  0  0  0  0  0  0  0  0  0
    4.7748   -0.7880    0.9639 C   0  0  0  0  0  0  0  0  0  0  0  0
    1.8284   -0.5357    0.4281 C   0  0  0  0  0  0  0  0  0  0  0  0
    0.6506   -0.0446    1.2614 C   0  0  0  0  0  0  0  0  0  0  0  0
   -1.0615    1.8342    1.0737 C   0  0  0  0  0  0  0  0  0  0  0  0
   -1.6495    1.5488    2.1743 O   0  0  0  0  0  0  0  0  0  0  0  0
   -1.1762    3.1805    0.5848 C   0  0  0  0  0  0  0  0  0  0  0  0
   -2.2605    4.0182    0.8274 C   0  0  0  0  0  0  0  0  0  0  0  0
   -2.0131    5.1804    0.2400 N   0  0  0  0  0  0  0  0  0  0  0  0
   -0.8127    5.1093   -0.3594 C   0  0  0  0  0  0  0  0  0  0  0  0
   -0.3720    3.9213   -0.1311 O   0  0  0  0  0  0  0  0  0  0  0  0
   -0.1248    6.1850   -1.1415 C   0  0  0  0  0  0  0  0  0  0  0  0
   -0.1588    7.3517   -0.3958 F   0  0  0  0  0  0  0  0  0  0  0  0
    1.1971    5.8283   -1.3476 F   0  0  0  0  0  0  0  0  0  0  0  0
   -0.7563    6.3802   -2.3235 F   0  0  0  0  0  0  0  0  0  0  0  0
   -6.3774   -3.5420   -1.3038 H   0  0  0  0  0  0  0  0  0  0  0  0
   -5.8537   -1.8097   -1.5262 H   0  0  0  0  0  0  0  0  0  0  0  0
   -4.7283   -3.0970   -2.0328 H   0  0  0  0  0  0  0  0  0  0  0  0
   -5.5905   -2.1856    0.7617 H   0  0  0  0  0  0  0  0  0  0  0  0
   -4.2065   -3.8066    1.7767 H   0  0  0  0  0  0  0  0  0  0  0  0
   -5.5167   -4.6619    0.8027 H   0  0  0  0  0  0  0  0  0  0  0  0
   -3.8396   -4.6873    0.2746 H   0  0  0  0  0  0  0  0  0  0  0  0
   -2.2511   -3.5274    0.3069 H   0  0  0  0  0  0  0  0  0  0  0  0
   -0.3660   -2.0806    0.3545 H   0  0  0  0  0  0  0  0  0  0  0  0
   -2.8104    1.3285   -0.2824 H   0  0  0  0  0  0  0  0  0  0  0  0
   -4.7870   -0.0692   -0.3352 H   0  0  0  0  0  0  0  0  0  0  0  0
   -0.0242    2.0691   -1.2807 H   0  0  0  0  0  0  0  0  0  0  0  0
    0.6846    0.4559   -1.5295 H   0  0  0  0  0  0  0  0  0  0  0  0
    2.3098    2.3834   -0.8766 H   0  0  0  0  0  0  0  0  0  0  0  0
    1.6879    2.1980    0.7940 H   0  0  0  0  0  0  0  0  0  0  0  0
    2.9271   -0.2745   -1.7164 H   0  0  0  0  0  0  0  0  0  0  0  0
    4.0448    1.1574   -1.4211 H   0  0  0  0  0  0  0  0  0  0  0  0
    5.1338   -1.4674   -2.3346 H   0  0  0  0  0  0  0  0  0  0  0  0
    6.7144   -3.1019   -1.3236 H   0  0  0  0  0  0  0  0  0  0  0  0
    7.0368   -3.2318    1.1319 H   0  0  0  0  0  0  0  0  0  0  0  0
    5.7630   -1.7142    2.5976 H   0  0  0  0  0  0  0  0  0  0  0  0
    4.1988   -0.0793    1.5654 H   0  0  0  0  0  0  0  0  0  0  0  0
    1.5313   -0.9586   -0.5484 H   0  0  0  0  0  0  0  0  0  0  0  0
    2.2929   -1.3351    0.9935 H   0  0  0  0  0  0  0  0  0  0  0  0
    1.0593    0.6548    2.0069 H   0  0  0  0  0  0  0  0  0  0  0  0
    0.1996   -0.8727    1.8455 H   0  0  0  0  0  0  0  0  0  0  0  0
   -3.1478    3.7309    1.3458 H   0  0  0  0  0  0  0  0  0  0  0  0
  1  2  1  0
  2  3  1  0
  2  4  1  0
  4  5  2  0
  5  6  1  0
  6  7  2  0
  7  8  1  0
  8  9  2  0
  7 10  1  0
 10 11  1  0
 11 12  1  0
 12 13  1  0
 13 14  1  0
 14 15  1  0
 15 16  2  0
 16 17  1  0
 17 18  2  0
 18 19  1  0
 19 20  2  0
 13 21  1  0
 21 22  1  0
 10 23  1  0
 23 24  2  0
 23 25  1  0
 25 26  2  0
 26 27  1  0
 27 28  2  0
 28 29  1  0
 28 30  1  0
 30 31  1  0
 30 32  1  0
 30 33  1  0
  9  4  1  0
 22 10  1  0
 29 25  1  0
 20 15  1  0
  1 34  1  0
  1 35  1  0
  1 36  1  0
  2 37  1  0
  3 38  1  0
  3 39  1  0
  3 40  1  0
  5 41  1  0
  6 42  1  0
  8 43  1  0
  9 44  1  0
 11 45  1  0
 11 46  1  0
 12 47  1  0
 12 48  1  0
 14 49  1  0
 14 50  1  0
 16 51  1  0
 17 52  1  0
 18 53  1  0
 19 54  1  0
 20 55  1  0
 21 56  1  0
 21 57  1  0
 22 58  1  0
 22 59  1  0
 26 60  1  0
M  END
$$$$
[H]c1c(F)c([H])c2oc([C@@]34C([H])([H])C([H])([H])C([H])([H])[C@@]3([H])C([H])([H])C([H])([H])[C@]([H])(C(=O)N([H])C3([H])C([H])([H])C([H])([H])N(C(=O)C([H])([H])[H])C([H])([H])C3([H])[H])C4([H])[H])nc2c1[H]
     RDKit          3D

 61 65  0  0  0  0  0  0  0  0999 V2000
    8.1405    0.6489    1.0229 C   0  0  0  0  0  0  0  0  0  0  0  0
    7.2457    1.4221    0.1324 C   0  0  0  0  0  0  0  0  0  0  0  0
    7.5744    2.5904   -0.2080 O   0  0  0  0  0  0  0  0  0  0  0  0
    6.0261    0.8434   -0.3312 N   0  0  0  0  0  0  0  0  0  0  0  0
    5.1316    1.5768   -1.2092 C   0  0  0  0  0  0  0  0  0  0  0  0
    3.8199    1.7336   -0.4505 C   0  0  0  0  0  0  0  0  0  0  0  0
    3.3508    0.4457    0.1427 C   0  0  0  0  0  0  0  0  0  0  0  0
    4.1966   -0.7275   -0.3646 C   0  0  0  0  0  0  0  0  0  0  0  0
    5.6341   -0.5008    0.0531 C   0  0  0  0  0  0  0  0  0  0  0  0
    1.9691    0.1878   -0.2722 N   0  0  0  0  0  0  0  0  0  0  0  0
    0.9589   -0.0627    0.6898 C   0  0  0  0  0  0  0  0  0  0  0  0
    1.2159   -0.0683    1.9022 O   0  0  0  0  0  0  0  0  0  0  0  0
   -0.4374   -0.3254    0.2060 C   0  0  1  0  0  0  0  0  0  0  0  0
   -0.3343   -1.5144   -0.7173 C   0  0  0  0  0  0  0  0  0  0  0  0
   -1.7482   -1.9103   -1.1754 C   0  0  0  0  0  0  0  0  0  0  0  0
   -2.4592   -2.2738    0.0851 C   0  0  2  0  0  0  0  0  0  0  0  0
   -3.8039   -2.8641   -0.0186 C   0  0  0  0  0  0  0  0  0  0  0  0
   -4.4171   -2.6146    1.3445 C   0  0  0  0  0  0  0  0  0  0  0  0
   -3.4377   -1.7330    2.0988 C   0  0  0  0  0  0  0  0  0  0  0  0
   -2.6924   -1.0619    0.9588 C   0  0  1  0  0  0  0  0  0  0  0  0
   -1.3444   -0.5443    1.3892 C   0  0  0  0  0  0  0  0  0  0  0  0
   -3.5374   -0.0282    0.3633 C   0  0  0  0  0  0  0  0  0  0  0  0
   -3.1834    1.2590    0.0577 N   0  0  0  0  0  0  0  0  0  0  0  0
   -4.2194    1.9037   -0.4703 C   0  0  0  0  0  0  0  0  0  0  0  0
   -4.4463    3.1757   -0.9501 C   0  0  0  0  0  0  0  0  0  0  0  0
   -5.6925    3.5330   -1.4488 C   0  0  0  0  0  0  0  0  0  0  0  0
   -6.7240    2.6233   -1.4738 C   0  0  0  0  0  0  0  0  0  0  0  0
   -7.9363    2.9361   -1.9489 F   0  0  0  0  0  0  0  0  0  0  0  0
   -6.4750    1.3547   -0.9883 C   0  0  0  0  0  0  0  0  0  0  0  0
   -5.2523    0.9829   -0.4923 C   0  0  0  0  0  0  0  0  0  0  0  0
   -4.7896   -0.1070    0.0016 O   0  0  0  0  0  0  0  0  0  0  0  0
    8.0581    1.0368    2.0607 H   0  0  0  0  0  0  0  0  0  0  0  0
    9.1866    0.6819    0.6703 H   0  0  0  0  0  0  0  0  0  0  0  0
    7.8323   -0.4154    0.9688 H   0  0  0  0  0  0  0  0  0  0  0  0
    4.9604    1.0454   -2.1827 H   0  0  0  0  0  0  0  0  0  0  0  0
    5.5316    2.5922   -1.3813 H   0  0  0  0  0  0  0  0  0  0  0  0
    3.0659    2.1868   -1.1228 H   0  0  0  0  0  0  0  0  0  0  0  0
    3.9930    2.5028    0.3555 H   0  0  0  0  0  0  0  0  0  0  0  0
    3.4507    0.4263    1.2371 H   0  0  0  0  0  0  0  0  0  0  0  0
    3.8113   -1.6398    0.1009 H   0  0  0  0  0  0  0  0  0  0  0  0
    4.1696   -0.7590   -1.4707 H   0  0  0  0  0  0  0  0  0  0  0  0
    5.7492   -0.5645    1.1566 H   0  0  0  0  0  0  0  0  0  0  0  0
    6.2752   -1.2601   -0.4414 H   0  0  0  0  0  0  0  0  0  0  0  0
    1.7592    0.1933   -1.2924 H   0  0  0  0  0  0  0  0  0  0  0  0
   -0.7339    0.5401   -0.3848 H   0  0  0  0  0  0  0  0  0  0  0  0
    0.0542   -2.3963   -0.1649 H   0  0  0  0  0  0  0  0  0  0  0  0
    0.2946   -1.2146   -1.5616 H   0  0  0  0  0  0  0  0  0  0  0  0
   -1.7200   -2.7870   -1.8262 H   0  0  0  0  0  0  0  0  0  0  0  0
   -2.1832   -1.0698   -1.7126 H   0  0  0  0  0  0  0  0  0  0  0  0
   -1.8165   -2.9580    0.6727 H   0  0  0  0  0  0  0  0  0  0  0  0
   -4.3683   -2.3579   -0.8255 H   0  0  0  0  0  0  0  0  0  0  0  0
   -3.8058   -3.9681   -0.1890 H   0  0  0  0  0  0  0  0  0  0  0  0
   -5.4039   -2.1317    1.2541 H   0  0  0  0  0  0  0  0  0  0  0  0
   -4.5899   -3.5743    1.8801 H   0  0  0  0  0  0  0  0  0  0  0  0
   -2.7457   -2.3312    2.7328 H   0  0  0  0  0  0  0  0  0  0  0  0
   -3.9588   -0.9710    2.7080 H   0  0  0  0  0  0  0  0  0  0  0  0
   -0.8893   -1.1672    2.1669 H   0  0  0  0  0  0  0  0  0  0  0  0
   -1.5174    0.4604    1.8410 H   0  0  0  0  0  0  0  0  0  0  0  0
   -3.6459    3.8883   -0.9331 H   0  0  0  0  0  0  0  0  0  0  0  0
   -5.8589    4.5162   -1.8202 H   0  0  0  0  0  0  0  0  0  0  0  0
   -7.2870    0.6148   -1.0008 H   0  0  0  0  0  0  0  0  0  0  0  0
  1  2  1  0
  2  3  2  0
  2  4  1  0
  4  5  1  0
  5  6  1  0
  6  7  1  0
  7  8  1  0
  8  9  1  0
  7 10  1  0
 10 11  1  0
 11 12  2  0
 11 13  1  0
 13 14  1  0
 14 15  1  0
 15 16  1  0
 16 17  1  0
 17 18  1  0
 18 19  1  0
 19 20  1  0
 20 21  1  0
 20 22  1  6
 22 23  2  0
 23 24  1  0
 24 25  2  0
 25 26  1  0
 26 27  2  0
 27 28  1  0
 27 29  1  0
 29 30  2  0
 30 31  1  0
  9  4  1  0
 21 13  1  0
 31 22  1  0
 20 16  1  0
 30 24  1  0
  1 32  1  0
  1 33  1  0
  1 34  1  0
  5 35  1  0
  5 36  1  0
  6 37  1  0
  6 38  1  0
  7 39  1  0
  8 40  1  0
  8 41  1  0
  9 42  1  0
  9 43  1  0
 10 44  1  0
 13 45  1  6
 14 46  1  0
 14 47  1  0
 15 48  1  0
 15 49  1  0
 16 50  1  1
 17 51  1  0
 17 52  1  0
 18 53  1  0
 18 54  1  0
 19 55  1  0
 19 56  1  0
 21 57  1  0
 21 58  1  0
 25 59  1  0
 26 60  1  0
 29 61  1  0
M  END
$$$$
[H]c1nc(N([H])c2c([H])c([H])c(S(=O)(=O)C([H])([H])[H])c([H])c2[H])nc(C(N([H])C(=O)C([H])([H])N([H])[H])(C([H])([H])[H])C([H])([H])[H])c1Cl
     RDKit          3D

 46 47  0  0  0  0  0  0  0  0999 V2000
   -6.1331    0.7705   -2.0403 N   0  0  0  0  0  0  0  0  0  0  0  0
   -4.9868    1.6343   -1.8367 C   0  0  0  0  0  0  0  0  0  0  0  0
   -4.1137    1.0142   -0.8375 C   0  0  0  0  0  0  0  0  0  0  0  0
   -3.0549    1.5982   -0.5082 O   0  0  0  0  0  0  0  0  0  0  0  0
   -4.4126   -0.2223   -0.2226 N   0  0  0  0  0  0  0  0  0  0  0  0
   -3.5539   -0.8301    0.7587 C   0  0  0  0  0  0  0  0  0  0  0  0
   -4.0856   -2.1408    1.2653 C   0  0  0  0  0  0  0  0  0  0  0  0
   -3.4835    0.1152    1.9394 C   0  0  0  0  0  0  0  0  0  0  0  0
   -2.1556   -0.9642    0.2379 C   0  0  0  0  0  0  0  0  0  0  0  0
   -1.1158   -0.3775    0.8397 N   0  0  0  0  0  0  0  0  0  0  0  0
    0.1711   -0.4903    0.3762 C   0  0  0  0  0  0  0  0  0  0  0  0
    1.2149    0.1444    1.0775 N   0  0  0  0  0  0  0  0  0  0  0  0
    2.5844    0.1774    0.7913 C   0  0  0  0  0  0  0  0  0  0  0  0
    3.1221   -0.1333   -0.4288 C   0  0  0  0  0  0  0  0  0  0  0  0
    4.5172   -0.0989   -0.6247 C   0  0  0  0  0  0  0  0  0  0  0  0
    5.3622    0.2472    0.4037 C   0  0  0  0  0  0  0  0  0  0  0  0
    4.8443    0.5585    1.6190 C   0  0  0  0  0  0  0  0  0  0  0  0
    3.4897    0.5269    1.8169 C   0  0  0  0  0  0  0  0  0  0  0  0
    7.0847    0.2672    0.0824 S   0  0  0  0  0  0  0  0  0  0  0  0
    7.5239    1.8812   -0.4749 C   0  0  0  0  0  0  0  0  0  0  0  0
    7.3857   -0.7843   -0.9379 O   0  0  0  0  0  0  0  0  0  0  0  0
    7.8141   -0.0051    1.3585 O   0  0  0  0  0  0  0  0  0  0  0  0
    0.2948   -1.2339   -0.7239 N   0  0  0  0  0  0  0  0  0  0  0  0
   -0.7032   -1.8493   -1.3766 C   0  0  0  0  0  0  0  0  0  0  0  0
   -2.0006   -1.7278   -0.8981 C   0  0  0  0  0  0  0  0  0  0  0  0
   -3.3609   -2.4826   -1.6667 Cl  0  0  0  0  0  0  0  0  0  0  0  0
   -6.7628    0.7406   -1.2103 H   0  0  0  0  0  0  0  0  0  0  0  0
   -6.6443    0.9722   -2.9267 H   0  0  0  0  0  0  0  0  0  0  0  0
   -4.4270    1.6310   -2.8119 H   0  0  0  0  0  0  0  0  0  0  0  0
   -5.2638    2.6673   -1.6349 H   0  0  0  0  0  0  0  0  0  0  0  0
   -5.2925   -0.7030   -0.4994 H   0  0  0  0  0  0  0  0  0  0  0  0
   -4.3812   -2.1002    2.3343 H   0  0  0  0  0  0  0  0  0  0  0  0
   -3.3040   -2.9475    1.2088 H   0  0  0  0  0  0  0  0  0  0  0  0
   -4.9775   -2.4914    0.7066 H   0  0  0  0  0  0  0  0  0  0  0  0
   -3.2571   -0.4869    2.8456 H   0  0  0  0  0  0  0  0  0  0  0  0
   -2.6816    0.8605    1.8365 H   0  0  0  0  0  0  0  0  0  0  0  0
   -4.4823    0.5565    2.0981 H   0  0  0  0  0  0  0  0  0  0  0  0
    0.9212    0.6806    1.9504 H   0  0  0  0  0  0  0  0  0  0  0  0
    2.4848   -0.3957   -1.2570 H   0  0  0  0  0  0  0  0  0  0  0  0
    4.8724   -0.3591   -1.6229 H   0  0  0  0  0  0  0  0  0  0  0  0
    5.5540    0.8250    2.3967 H   0  0  0  0  0  0  0  0  0  0  0  0
    3.0852    0.7740    2.7824 H   0  0  0  0  0  0  0  0  0  0  0  0
    7.5039    2.5603    0.3964 H   0  0  0  0  0  0  0  0  0  0  0  0
    8.5490    1.8232   -0.8942 H   0  0  0  0  0  0  0  0  0  0  0  0
    6.8078    2.2397   -1.2540 H   0  0  0  0  0  0  0  0  0  0  0  0
   -0.5532   -2.4417   -2.2651 H   0  0  0  0  0  0  0  0  0  0  0  0
  1  2  1  0
  2  3  1  0
  3  4  2  0
  3  5  1  0
  5  6  1  0
  6  7  1  0
  6  8  1  0
  6  9  1  0
  9 10  2  0
 10 11  1  0
 11 12  1  0
 12 13  1  0
 13 14  2  0
 14 15  1  0
 15 16  2  0
 16 17  1  0
 17 18  2  0
 16 19  1  0
 19 20  1  0
 19 21  2  0
 19 22  2  0
 11 23  2  0
 23 24  1  0
 24 25  2  0
 25 26  1  0
 25  9  1  0
 18 13  1  0
  1 27  1  0
  1 28  1  0
  2 29  1  0
  2 30  1  0
  5 31  1  0
  7 32  1  0
  7 33  1  0
  7 34  1  0
  8 35  1  0
  8 36  1  0
  8 37  1  0
 12 38  1  0
 14 39  1  0
 15 40  1  0
 17 41  1  0
 18 42  1  0
 20 43  1  0
 20 44  1  0
 20 45  1  0
 24 46  1  0
M  END
$$$$
[H]OC1([H])C([H])([H])C([H])([H])N(c2noc(N([H])S(=O)(=O)c3c([H])c([H])c(N([H])C(=O)c4c([H])c(C#N)c([H])c([H])c4OC([H])([H])C([H])([H])C([H])([H])N(C([H])([H])[H])C([H])([H])[H])c([H])c3[H])c2[H])C([H])([H])C1([H])[H]
     RDKit          3D

 72 75  0  0  0  0  0  0  0  0999 V2000
   -7.4410    3.0581   -3.9130 C   0  0  0  0  0  0  0  0  0  0  0  0
   -7.5205    1.8595   -3.1395 N   0  0  0  0  0  0  0  0  0  0  0  0
   -8.0345    2.0094   -1.8156 C   0  0  0  0  0  0  0  0  0  0  0  0
   -6.3075    1.0423   -3.2028 C   0  0  0  0  0  0  0  0  0  0  0  0
   -5.1582    1.6700   -2.5450 C   0  0  0  0  0  0  0  0  0  0  0  0
   -3.8629    0.9426   -2.5915 C   0  0  0  0  0  0  0  0  0  0  0  0
   -3.6423   -0.2610   -2.0980 O   0  0  0  0  0  0  0  0  0  0  0  0
   -3.8673   -1.5684   -2.1611 C   0  0  0  0  0  0  0  0  0  0  0  0
   -4.6596   -2.1527   -3.1603 C   0  0  0  0  0  0  0  0  0  0  0  0
   -4.9200   -3.4833   -3.2758 C   0  0  0  0  0  0  0  0  0  0  0  0
   -4.3703   -4.3329   -2.3497 C   0  0  0  0  0  0  0  0  0  0  0  0
   -3.5866   -3.8248   -1.3510 C   0  0  0  0  0  0  0  0  0  0  0  0
   -3.3128   -2.4484   -1.2251 C   0  0  0  0  0  0  0  0  0  0  0  0
   -2.4569   -2.0734   -0.1306 C   0  0  0  0  0  0  0  0  0  0  0  0
   -2.0355   -3.0339    0.6484 O   0  0  0  0  0  0  0  0  0  0  0  0
   -2.0185   -0.7968    0.2016 N   0  0  0  0  0  0  0  0  0  0  0  0
   -1.1652   -0.5430    1.3376 C   0  0  0  0  0  0  0  0  0  0  0  0
   -0.2269    0.4937    1.1725 C   0  0  0  0  0  0  0  0  0  0  0  0
    0.6177    0.8269    2.2056 C   0  0  0  0  0  0  0  0  0  0  0  0
    0.5168    0.1266    3.3832 C   0  0  0  0  0  0  0  0  0  0  0  0
   -0.4040   -0.8889    3.5439 C   0  0  0  0  0  0  0  0  0  0  0  0
   -1.2598   -1.2277    2.5009 C   0  0  0  0  0  0  0  0  0  0  0  0
    1.6116    0.5510    4.7079 S   0  0  0  0  0  0  0  0  0  0  0  0
    0.9306    0.1760    5.9833 O   0  0  0  0  0  0  0  0  0  0  0  0
    1.9696    2.0111    4.6484 O   0  0  0  0  0  0  0  0  0  0  0  0
    2.9986   -0.4581    4.5087 N   0  0  0  0  0  0  0  0  0  0  0  0
    3.8156   -0.3906    3.3393 C   0  0  0  0  0  0  0  0  0  0  0  0
    3.6584   -1.0831    2.2346 O   0  0  0  0  0  0  0  0  0  0  0  0
    4.5670   -0.7907    1.3586 N   0  0  0  0  0  0  0  0  0  0  0  0
    5.4034    0.1498    1.8665 C   0  0  0  0  0  0  0  0  0  0  0  0
    4.9223    0.4046    3.1320 C   0  0  0  0  0  0  0  0  0  0  0  0
    6.5264    0.7410    1.2244 N   0  0  0  0  0  0  0  0  0  0  0  0
    6.8604    0.4235   -0.1497 C   0  0  0  0  0  0  0  0  0  0  0  0
    8.2306   -0.2044   -0.2507 C   0  0  0  0  0  0  0  0  0  0  0  0
    9.1027    0.1160    0.9209 C   0  0  0  0  0  0  0  0  0  0  0  0
   10.4292    0.1370    0.4478 O   0  0  0  0  0  0  0  0  0  0  0  0
    8.8457    1.4636    1.5344 C   0  0  0  0  0  0  0  0  0  0  0  0
    7.3925    1.6814    1.9012 C   0  0  0  0  0  0  0  0  0  0  0  0
   -4.6501   -5.7399   -2.4782 C   0  0  0  0  0  0  0  0  0  0  0  0
   -4.8750   -6.8646   -2.5925 N   0  0  0  0  0  0  0  0  0  0  0  0
   -6.7117    2.8942   -4.7446 H   0  0  0  0  0  0  0  0  0  0  0  0
   -7.1196    3.9454   -3.3363 H   0  0  0  0  0  0  0  0  0  0  0  0
   -8.4155    3.2839   -4.3441 H   0  0  0  0  0  0  0  0  0  0  0  0
   -7.3534    1.7124   -1.0077 H   0  0  0  0  0  0  0  0  0  0  0  0
   -9.0336    1.4921   -1.7265 H   0  0  0  0  0  0  0  0  0  0  0  0
   -8.2636    3.0976   -1.6408 H   0  0  0  0  0  0  0  0  0  0  0  0
   -6.1294    0.7720   -4.2388 H   0  0  0  0  0  0  0  0  0  0  0  0
   -6.5960    0.1143   -2.6369 H   0  0  0  0  0  0  0  0  0  0  0  0
   -4.9726    2.6851   -3.0165 H   0  0  0  0  0  0  0  0  0  0  0  0
   -5.3736    1.8904   -1.4566 H   0  0  0  0  0  0  0  0  0  0  0  0
   -3.5102    0.9423   -3.7069 H   0  0  0  0  0  0  0  0  0  0  0  0
   -3.0432    1.6462   -2.1427 H   0  0  0  0  0  0  0  0  0  0  0  0
   -5.0684   -1.5013   -3.9053 H   0  0  0  0  0  0  0  0  0  0  0  0
   -5.5463   -3.8488   -4.0808 H   0  0  0  0  0  0  0  0  0  0  0  0
   -3.1832   -4.5428   -0.6537 H   0  0  0  0  0  0  0  0  0  0  0  0
   -2.2633    0.0542   -0.3203 H   0  0  0  0  0  0  0  0  0  0  0  0
   -0.1853    1.0208    0.2170 H   0  0  0  0  0  0  0  0  0  0  0  0
    1.3402    1.6160    2.0963 H   0  0  0  0  0  0  0  0  0  0  0  0
   -0.4232   -1.3928    4.4974 H   0  0  0  0  0  0  0  0  0  0  0  0
   -1.9607   -1.9978    2.6791 H   0  0  0  0  0  0  0  0  0  0  0  0
    3.2704   -1.1322    5.2281 H   0  0  0  0  0  0  0  0  0  0  0  0
    5.3447    1.1082    3.8358 H   0  0  0  0  0  0  0  0  0  0  0  0
    6.8245    1.3898   -0.7332 H   0  0  0  0  0  0  0  0  0  0  0  0
    6.0589   -0.2194   -0.5518 H   0  0  0  0  0  0  0  0  0  0  0  0
    8.6684    0.0157   -1.2256 H   0  0  0  0  0  0  0  0  0  0  0  0
    8.0504   -1.3182   -0.2270 H   0  0  0  0  0  0  0  0  0  0  0  0
    9.0791   -0.6377    1.7156 H   0  0  0  0  0  0  0  0  0  0  0  0
   10.8900    0.9719    0.6427 H   0  0  0  0  0  0  0  0  0  0  0  0
    9.4131    1.4884    2.4991 H   0  0  0  0  0  0  0  0  0  0  0  0
    9.2589    2.2972    0.9221 H   0  0  0  0  0  0  0  0  0  0  0  0
    7.2168    1.7385    2.9768 H   0  0  0  0  0  0  0  0  0  0  0  0
    7.1139    2.6969    1.4921 H   0  0  0  0  0  0  0  0  0  0  0  0
  1  2  1  0
  2  3  1  0
  2  4  1  0
  4  5  1  0
  5  6  1  0
  6  7  1  0
  7  8  1  0
  8  9  2  0
  9 10  1  0
 10 11  2  0
 11 12  1  0
 12 13  2  0
 13 14  1  0
 14 15  2  0
 14 16  1  0
 16 17  1  0
 17 18  2  0
 18 19  1  0
 19 20  2  0
 20 21  1  0
 21 22  2  0
 20 23  1  0
 23 24  2  0
 23 25  2  0
 23 26  1  0
 26 27  1  0
 27 28  1  0
 28 29  1  0
 29 30  2  0
 30 31  1  0
 30 32  1  0
 32 33  1  0
 33 34  1  0
 34 35  1  0
 35 36  1  0
 35 37  1  0
 37 38  1  0
 11 39  1  0
 39 40  3  0
 13  8  1  0
 22 17  1  0
 31 27  2  0
 38 32  1  0
  1 41  1  0
  1 42  1  0
  1 43  1  0
  3 44  1  0
  3 45  1  0
  3 46  1  0
  4 47  1  0
  4 48  1  0
  5 49  1  0
  5 50  1  0
  6 51  1  0
  6 52  1  0
  9 53  1  0
 10 54  1  0
 12 55  1  0
 16 56  1  0
 18 57  1  0
 19 58  1  0
 21 59  1  0
 22 60  1  0
 26 61  1  0
 31 62  1  0
 33 63  1  0
 33 64  1  0
 34 65  1  0
 34 66  1  0
 35 67  1  0
 36 68  1  0
 37 69  1  0
 37 70  1  0
 38 71  1  0
 38 72  1  0
M  END
$$$$
[H]OC1([H])OC2(C1=O)C([H])([H])C([H])([H])N(C([H])([H])c1c([H])c([H])c(F)c([H])c1[H])C([H])([H])C2([H])[H]
     RDKit          3D

 35 37  0  0  0  0  0  0  0  0999 V2000
    5.6653    0.5254   -0.3253 O   0  0  0  0  0  0  0  0  0  0  0  0
    4.3317    0.9258   -0.3058 C   0  0  0  0  0  0  0  0  0  0  0  0
    3.5655    0.0215   -1.0359 O   0  0  0  0  0  0  0  0  0  0  0  0
    2.5862   -0.0103   -0.0444 C   0  0  0  0  0  0  0  0  0  0  0  0
    1.3932    0.8556   -0.3412 C   0  0  0  0  0  0  0  0  0  0  0  0
    0.2469    0.3776    0.5351 C   0  0  0  0  0  0  0  0  0  0  0  0
   -0.2467   -0.9004    0.1750 N   0  0  0  0  0  0  0  0  0  0  0  0
   -1.3328   -0.9562   -0.7381 C   0  0  0  0  0  0  0  0  0  0  0  0
   -2.5746   -0.2903   -0.3218 C   0  0  0  0  0  0  0  0  0  0  0  0
   -2.7797    1.0070   -0.7127 C   0  0  0  0  0  0  0  0  0  0  0  0
   -3.9268    1.6585   -0.3423 C   0  0  0  0  0  0  0  0  0  0  0  0
   -4.8634    1.0029    0.4199 C   0  0  0  0  0  0  0  0  0  0  0  0
   -6.0110    1.6510    0.7919 F   0  0  0  0  0  0  0  0  0  0  0  0
   -4.6981   -0.3092    0.8382 C   0  0  0  0  0  0  0  0  0  0  0  0
   -3.5278   -0.9204    0.4395 C   0  0  0  0  0  0  0  0  0  0  0  0
    0.8160   -1.7405   -0.3340 C   0  0  0  0  0  0  0  0  0  0  0  0
    2.1129   -1.3738    0.3447 C   0  0  0  0  0  0  0  0  0  0  0  0
    3.5692    0.5677    0.9009 C   0  0  0  0  0  0  0  0  0  0  0  0
    3.7420    0.7173    2.0983 O   0  0  0  0  0  0  0  0  0  0  0  0
    5.9259    0.0114    0.4568 H   0  0  0  0  0  0  0  0  0  0  0  0
    4.1949    1.9845   -0.6259 H   0  0  0  0  0  0  0  0  0  0  0  0
    1.1306    0.9143   -1.4014 H   0  0  0  0  0  0  0  0  0  0  0  0
    1.6403    1.8888    0.0333 H   0  0  0  0  0  0  0  0  0  0  0  0
   -0.4673    1.1943    0.6040 H   0  0  0  0  0  0  0  0  0  0  0  0
    0.6963    0.2826    1.5683 H   0  0  0  0  0  0  0  0  0  0  0  0
   -0.9944   -0.5986   -1.7511 H   0  0  0  0  0  0  0  0  0  0  0  0
   -1.5696   -2.0410   -0.9007 H   0  0  0  0  0  0  0  0  0  0  0  0
   -2.0516    1.5550   -1.3201 H   0  0  0  0  0  0  0  0  0  0  0  0
   -4.1322    2.6860   -0.6287 H   0  0  0  0  0  0  0  0  0  0  0  0
   -5.4548   -0.8177    1.4458 H   0  0  0  0  0  0  0  0  0  0  0  0
   -3.3464   -1.9600    0.7436 H   0  0  0  0  0  0  0  0  0  0  0  0
    0.6252   -2.8052   -0.1200 H   0  0  0  0  0  0  0  0  0  0  0  0
    0.9146   -1.6344   -1.4344 H   0  0  0  0  0  0  0  0  0  0  0  0
    1.9028   -1.3556    1.4494 H   0  0  0  0  0  0  0  0  0  0  0  0
    2.9175   -2.1140    0.1380 H   0  0  0  0  0  0  0  0  0  0  0  0
  1  2  1  0
  2  3  1  0
  3  4  1  0
  4  5  1  0
  5  6  1  0
  6  7  1  0
  7  8  1  0
  8  9  1  0
  9 10  2  0
 10 11  1  0
 11 12  2  0
 12 13  1  0
 12 14  1  0
 14 15  2  0
  7 16  1  0
 16 17  1  0
  4 18  1  0
 18 19  2  0
 18  2  1  0
 17  4  1  0
 15  9  1  0
  1 20  1  0
  2 21  1  0
  5 22  1  0
  5 23  1  0
  6 24  1  0
  6 25  1  0
  8 26  1  0
  8 27  1  0
 10 28  1  0
 11 29  1  0
 14 30  1  0
 15 31  1  0
 16 32  1  0
 16 33  1  0
 17 34  1  0
 17 35  1  0
M  END
$$$$
[H]C1=C(F)C([H])=C(F)[C@@]([H])(N([H])C(=O)c2nc([H])c([H])c(-c3c([H])c4c([H])c([H])c([H])c([H])n4c3[H])c2[H])C([H])([H])C(N2C([H])([H])C([H])([H])C([H])([H])[C@@]2([H])C#N)=C1[H]
     RDKit          3D

 58 62  0  0  0  0  0  0  0  0999 V2000
   -5.9678    4.7644   -0.6730 F   0  0  0  0  0  0  0  0  0  0  0  0
   -5.1798    3.7050   -0.4461 C   0  0  0  0  0  0  0  0  0  0  0  0
   -5.7940    2.5456   -0.6862 C   0  0  0  0  0  0  0  0  0  0  0  0
   -5.3928    1.1459   -0.5980 C   0  0  0  0  0  0  0  0  0  0  0  0
   -4.4009    0.5196    0.0343 C   0  0  0  0  0  0  0  0  0  0  0  0
   -3.3120    0.9890    0.8978 C   0  0  0  0  0  0  0  0  0  0  0  0
   -2.3262    1.9096    0.2297 C   0  0  2  0  0  0  0  0  0  0  0  0
   -1.0322    1.6639    0.8282 N   0  0  0  0  0  0  0  0  0  0  0  0
    0.0835    1.1700    0.1390 C   0  0  0  0  0  0  0  0  0  0  0  0
    0.0658    0.8860   -1.0968 O   0  0  0  0  0  0  0  0  0  0  0  0
    1.3466    0.9553    0.8309 C   0  0  0  0  0  0  0  0  0  0  0  0
    2.4699    0.4712    0.1973 C   0  0  0  0  0  0  0  0  0  0  0  0
    3.6677    0.2706    0.8653 C   0  0  0  0  0  0  0  0  0  0  0  0
    3.7152    0.5704    2.2023 C   0  0  0  0  0  0  0  0  0  0  0  0
    2.5932    1.0550    2.8396 C   0  0  0  0  0  0  0  0  0  0  0  0
    1.4675    1.2305    2.1562 N   0  0  0  0  0  0  0  0  0  0  0  0
    4.8550   -0.2458    0.1755 C   0  0  0  0  0  0  0  0  0  0  0  0
    6.1580    0.0597    0.4939 C   0  0  0  0  0  0  0  0  0  0  0  0
    6.9877   -0.6036   -0.3611 N   0  0  0  0  0  0  0  0  0  0  0  0
    8.3198   -0.6515   -0.4798 C   0  0  0  0  0  0  0  0  0  0  0  0
    8.9450   -1.4136   -1.4475 C   0  0  0  0  0  0  0  0  0  0  0  0
    8.1832   -2.1511   -2.3227 C   0  0  0  0  0  0  0  0  0  0  0  0
    6.8202   -2.0959   -2.1937 C   0  0  0  0  0  0  0  0  0  0  0  0
    6.2280   -1.3177   -1.2076 C   0  0  0  0  0  0  0  0  0  0  0  0
    4.9093   -1.1140   -0.8974 C   0  0  0  0  0  0  0  0  0  0  0  0
   -2.7149    3.3241    0.2779 C   0  0  0  0  0  0  0  0  0  0  0  0
   -1.7307    4.1558    0.6850 F   0  0  0  0  0  0  0  0  0  0  0  0
   -3.8129    3.9899    0.0149 C   0  0  0  0  0  0  0  0  0  0  0  0
   -4.4511   -0.8775   -0.2070 N   0  0  0  0  0  0  0  0  0  0  0  0
   -4.1211   -1.5051   -1.4669 C   0  0  0  0  0  0  0  0  0  0  0  0
   -4.3708   -2.9928   -1.2608 C   0  0  0  0  0  0  0  0  0  0  0  0
   -5.3815   -2.9769   -0.1327 C   0  0  0  0  0  0  0  0  0  0  0  0
   -4.8373   -1.8828    0.7596 C   0  0  1  0  0  0  0  0  0  0  0  0
   -3.6353   -2.4489    1.4101 C   0  0  0  0  0  0  0  0  0  0  0  0
   -2.7014   -2.9105    1.9204 N   0  0  0  0  0  0  0  0  0  0  0  0
   -6.8188    2.6635   -1.0219 H   0  0  0  0  0  0  0  0  0  0  0  0
   -6.0424    0.4895   -1.1675 H   0  0  0  0  0  0  0  0  0  0  0  0
   -3.6627    1.4994    1.8170 H   0  0  0  0  0  0  0  0  0  0  0  0
   -2.7641    0.0766    1.2620 H   0  0  0  0  0  0  0  0  0  0  0  0
   -2.2294    1.6302   -0.8465 H   0  0  0  0  0  0  0  0  0  0  0  0
   -0.9317    1.8715    1.8433 H   0  0  0  0  0  0  0  0  0  0  0  0
    2.4356    0.2337   -0.8575 H   0  0  0  0  0  0  0  0  0  0  0  0
    4.6086    0.4402    2.7831 H   0  0  0  0  0  0  0  0  0  0  0  0
    2.6088    1.2980    3.8943 H   0  0  0  0  0  0  0  0  0  0  0  0
    6.4746    0.7158    1.2888 H   0  0  0  0  0  0  0  0  0  0  0  0
    8.9352   -0.0654    0.2154 H   0  0  0  0  0  0  0  0  0  0  0  0
   10.0264   -1.4380   -1.5260 H   0  0  0  0  0  0  0  0  0  0  0  0
    8.6537   -2.7480   -3.0798 H   0  0  0  0  0  0  0  0  0  0  0  0
    6.2261   -2.6715   -2.8768 H   0  0  0  0  0  0  0  0  0  0  0  0
    4.0327   -1.5299   -1.3711 H   0  0  0  0  0  0  0  0  0  0  0  0
   -3.7048    5.0524    0.1762 H   0  0  0  0  0  0  0  0  0  0  0  0
   -3.0638   -1.3677   -1.7547 H   0  0  0  0  0  0  0  0  0  0  0  0
   -4.8097   -1.1846   -2.2886 H   0  0  0  0  0  0  0  0  0  0  0  0
   -3.4624   -3.4698   -0.8948 H   0  0  0  0  0  0  0  0  0  0  0  0
   -4.7948   -3.4618   -2.1739 H   0  0  0  0  0  0  0  0  0  0  0  0
   -6.3549   -2.7487   -0.5596 H   0  0  0  0  0  0  0  0  0  0  0  0
   -5.4464   -3.9567    0.3810 H   0  0  0  0  0  0  0  0  0  0  0  0
   -5.5684   -1.5223    1.4902 H   0  0  0  0  0  0  0  0  0  0  0  0
  1  2  1  0
  2  3  2  0
  3  4  1  0
  4  5  2  0
  5  6  1  0
  6  7  1  0
  7  8  1  0
  8  9  1  0
  9 10  2  0
  9 11  1  0
 11 12  2  0
 12 13  1  0
 13 14  2  0
 14 15  1  0
 15 16  2  0
 13 17  1  0
 17 18  2  0
 18 19  1  0
 19 20  1  0
 20 21  2  0
 21 22  1  0
 22 23  2  0
 23 24  1  0
 24 25  2  0
  7 26  1  0
 26 27  1  0
 26 28  2  0
  5 29  1  0
 29 30  1  0
 30 31  1  0
 31 32  1  0
 32 33  1  0
 33 34  1  0
 34 35  3  0
 28  2  1  0
 33 29  1  0
 16 11  1  0
 25 17  1  0
 24 19  1  0
  3 36  1  0
  4 37  1  0
  6 38  1  0
  6 39  1  0
  7 40  1  6
  8 41  1  0
 12 42  1  0
 14 43  1  0
 15 44  1  0
 18 45  1  0
 20 46  1  0
 21 47  1  0
 22 48  1  0
 23 49  1  0
 25 50  1  0
 28 51  1  0
 30 52  1  0
 30 53  1  0
 31 54  1  0
 31 55  1  0
 32 56  1  0
 32 57  1  0
 33 58  1  1
M  END
$$$$
[H]OC([H])([H])C1([H])c2c(nc3c(c2[H])OC([H])([H])C(=O)N([H])C([H])(N(c2c([H])c([H])c([H])c([H])c2[H])C([H])([H])C([H])=C([H])[H])C3([H])[H])C([H])=C([H])C([H])=C(c2c([H])c([H])c([H])c([H])c2[H])C([H])([H])C([H])([H])N1[H]
     RDKit          3D

 73 77  0  0  0  0  0  0  0  0999 V2000
   -4.0673   -3.8180   -0.9690 O   0  0  0  0  0  0  0  0  0  0  0  0
   -3.2663   -3.0496   -0.3715 C   0  0  0  0  0  0  0  0  0  0  0  0
   -3.4897   -1.6537   -0.6165 N   0  0  0  0  0  0  0  0  0  0  0  0
   -3.1378   -0.4531    0.1408 C   0  0  0  0  0  0  0  0  0  0  0  0
   -1.9034    0.1257   -0.4196 C   0  0  0  0  0  0  0  0  0  0  0  0
   -0.7896   -0.8243   -0.6836 C   0  0  0  0  0  0  0  0  0  0  0  0
    0.0424   -0.0981   -1.4328 N   0  0  0  0  0  0  0  0  0  0  0  0
    1.2292   -0.4573   -1.9639 C   0  0  0  0  0  0  0  0  0  0  0  0
    1.9184    0.5939   -2.7278 C   0  0  0  0  0  0  0  0  0  0  0  0
    2.9367    1.3751   -2.3859 C   0  0  0  0  0  0  0  0  0  0  0  0
    3.7978    1.6233   -1.2944 C   0  0  0  0  0  0  0  0  0  0  0  0
    4.6977    1.1023   -0.5145 C   0  0  0  0  0  0  0  0  0  0  0  0
    5.2657   -0.3135   -0.5292 C   0  0  0  0  0  0  0  0  0  0  0  0
    4.2582   -1.0903   -1.1842 C   0  0  0  0  0  0  0  0  0  0  0  0
    3.9782   -2.4593   -1.2422 N   0  0  0  0  0  0  0  0  0  0  0  0
    2.8542   -2.4498   -2.1849 C   0  0  0  0  0  0  0  0  0  0  0  0
    2.6043   -3.8180   -2.7321 C   0  0  0  0  0  0  0  0  0  0  0  0
    3.7878   -4.2139   -3.4066 O   0  0  0  0  0  0  0  0  0  0  0  0
    1.6365   -1.7461   -1.6998 C   0  0  0  0  0  0  0  0  0  0  0  0
    0.8189   -2.5505   -0.9270 C   0  0  0  0  0  0  0  0  0  0  0  0
   -0.3863   -2.1100   -0.4159 C   0  0  0  0  0  0  0  0  0  0  0  0
   -0.9546   -3.1459    0.3044 O   0  0  0  0  0  0  0  0  0  0  0  0
   -2.2376   -3.7195    0.4757 C   0  0  0  0  0  0  0  0  0  0  0  0
    5.3231    1.8252    0.6267 C   0  0  0  0  0  0  0  0  0  0  0  0
    6.4319    1.3563    1.2875 C   0  0  0  0  0  0  0  0  0  0  0  0
    6.9732    2.0101    2.3685 C   0  0  0  0  0  0  0  0  0  0  0  0
    6.3829    3.1689    2.7969 C   0  0  0  0  0  0  0  0  0  0  0  0
    5.2686    3.6877    2.1738 C   0  0  0  0  0  0  0  0  0  0  0  0
    4.7357    2.9892    1.0634 C   0  0  0  0  0  0  0  0  0  0  0  0
   -4.2284    0.4786   -0.0048 N   0  0  0  0  0  0  0  0  0  0  0  0
   -4.6810    0.9083   -1.3003 C   0  0  0  0  0  0  0  0  0  0  0  0
   -5.8361    1.8569   -1.1964 C   0  0  0  0  0  0  0  0  0  0  0  0
   -7.0087    1.5893   -1.7342 C   0  0  0  0  0  0  0  0  0  0  0  0
   -4.9108    1.0252    1.1267 C   0  0  0  0  0  0  0  0  0  0  0  0
   -6.0080    0.4215    1.6615 C   0  0  0  0  0  0  0  0  0  0  0  0
   -6.6330    0.9902    2.7557 C   0  0  0  0  0  0  0  0  0  0  0  0
   -6.1274    2.1683    3.2881 C   0  0  0  0  0  0  0  0  0  0  0  0
   -5.0224    2.7573    2.7336 C   0  0  0  0  0  0  0  0  0  0  0  0
   -4.3949    2.1975    1.6440 C   0  0  0  0  0  0  0  0  0  0  0  0
   -3.9939   -1.5133   -1.5004 H   0  0  0  0  0  0  0  0  0  0  0  0
   -3.0231   -0.7381    1.2250 H   0  0  0  0  0  0  0  0  0  0  0  0
   -1.5158    0.8678    0.3460 H   0  0  0  0  0  0  0  0  0  0  0  0
   -2.1090    0.7163   -1.3172 H   0  0  0  0  0  0  0  0  0  0  0  0
    1.4563    0.7305   -3.7360 H   0  0  0  0  0  0  0  0  0  0  0  0
    3.1755    2.0430   -3.3052 H   0  0  0  0  0  0  0  0  0  0  0  0
    3.6874    2.7361   -0.9901 H   0  0  0  0  0  0  0  0  0  0  0  0
    5.3694   -0.6969    0.5348 H   0  0  0  0  0  0  0  0  0  0  0  0
    6.2760   -0.2946   -0.9738 H   0  0  0  0  0  0  0  0  0  0  0  0
    4.3932   -0.8051   -2.2179 H   0  0  0  0  0  0  0  0  0  0  0  0
    3.3679   -0.7416   -0.5885 H   0  0  0  0  0  0  0  0  0  0  0  0
    3.7113   -2.8379   -0.3100 H   0  0  0  0  0  0  0  0  0  0  0  0
    3.2398   -1.8511   -3.0731 H   0  0  0  0  0  0  0  0  0  0  0  0
    2.3943   -4.5331   -1.9043 H   0  0  0  0  0  0  0  0  0  0  0  0
    1.7442   -3.7787   -3.4280 H   0  0  0  0  0  0  0  0  0  0  0  0
    3.7499   -3.8647   -4.3370 H   0  0  0  0  0  0  0  0  0  0  0  0
    1.1238   -3.5912   -0.6899 H   0  0  0  0  0  0  0  0  0  0  0  0
   -2.5231   -3.5938    1.5189 H   0  0  0  0  0  0  0  0  0  0  0  0
   -2.2188   -4.7966    0.1992 H   0  0  0  0  0  0  0  0  0  0  0  0
    6.8985    0.4550    0.9364 H   0  0  0  0  0  0  0  0  0  0  0  0
    7.8315    1.6238    2.8592 H   0  0  0  0  0  0  0  0  0  0  0  0
    6.7616    3.7463    3.6540 H   0  0  0  0  0  0  0  0  0  0  0  0
    4.7763    4.6072    2.4928 H   0  0  0  0  0  0  0  0  0  0  0  0
    3.8521    3.4334    0.6233 H   0  0  0  0  0  0  0  0  0  0  0  0
   -5.0025    0.1190   -1.9829 H   0  0  0  0  0  0  0  0  0  0  0  0
   -3.8675    1.5225   -1.7819 H   0  0  0  0  0  0  0  0  0  0  0  0
   -5.7131    2.8023   -0.6601 H   0  0  0  0  0  0  0  0  0  0  0  0
   -7.1487    0.6647   -2.2656 H   0  0  0  0  0  0  0  0  0  0  0  0
   -7.8264    2.2778   -1.6522 H   0  0  0  0  0  0  0  0  0  0  0  0
   -6.4185   -0.4969    1.2625 H   0  0  0  0  0  0  0  0  0  0  0  0
   -7.4984    0.5605    3.2163 H   0  0  0  0  0  0  0  0  0  0  0  0
   -6.6387    2.6034    4.1573 H   0  0  0  0  0  0  0  0  0  0  0  0
   -4.6439    3.6869    3.1709 H   0  0  0  0  0  0  0  0  0  0  0  0
   -3.5256    2.6575    1.2069 H   0  0  0  0  0  0  0  0  0  0  0  0
  1  2  2  0
  2  3  1  0
  3  4  1  0
  4  5  1  0
  5  6  1  0
  6  7  2  0
  7  8  1  0
  8  9  1  0
  9 10  2  0
 10 11  1  0
 11 12  2  0
 12 13  1  0
 13 14  1  0
 14 15  1  0
 15 16  1  0
 16 17  1  0
 17 18  1  0
 16 19  1  0
 19 20  1  0
 20 21  2  0
 21 22  1  0
 22 23  1  0
 12 24  1  0
 24 25  2  0
 25 26  1  0
 26 27  2  0
 27 28  1  0
 28 29  2  0
  4 30  1  0
 30 31  1  0
 31 32  1  0
 32 33  2  3
 30 34  1  0
 34 35  2  0
 35 36  1  0
 36 37  2  0
 37 38  1  0
 38 39  2  0
 23  2  1  0
 29 24  1  0
 39 34  1  0
 21  6  1  0
 19  8  2  0
  3 40  1  0
  4 41  1  0
  5 42  1  0
  5 43  1  0
  9 44  1  0
 10 45  1  0
 11 46  1  0
 13 47  1  0
 13 48  1  0
 14 49  1  0
 14 50  1  0
 15 51  1  0
 16 52  1  0
 17 53  1  0
 17 54  1  0
 18 55  1  0
 20 56  1  0
 23 57  1  0
 23 58  1  0
 25 59  1  0
 26 60  1  0
 27 61  1  0
 28 62  1  0
 29 63  1  0
 31 64  1  0
 31 65  1  0
 32 66  1  0
 33 67  1  0
 33 68  1  0
 35 69  1  0
 36 70  1  0
 37 71  1  0
 38 72  1  0
 39 73  1  0
M  END
$$$$
[H]Oc1c([H])c([H])c(C(=O)N([H])c2c([H])nc(N([H])[H])c(-c3c([H])c([H])c4nc(S(=O)(=O)C([H])([H])[H])n([H])c4c3[H])c2[H])c([H])c1[H]
     RDKit          3D

 47 50  0  0  0  0  0  0  0  0999 V2000
    8.0799    0.8033    0.6887 C   0  0  0  0  0  0  0  0  0  0  0  0
    7.3900   -0.6343    1.4526 S   0  0  0  0  0  0  0  0  0  0  0  0
    7.5397   -0.6200    2.9430 O   0  0  0  0  0  0  0  0  0  0  0  0
    8.1094   -1.8695    0.9556 O   0  0  0  0  0  0  0  0  0  0  0  0
    5.7141   -0.7754    0.9661 C   0  0  0  0  0  0  0  0  0  0  0  0
    4.8646   -1.7692    1.3642 N   0  0  0  0  0  0  0  0  0  0  0  0
    3.6883   -1.5064    0.7698 C   0  0  0  0  0  0  0  0  0  0  0  0
    2.4648   -2.1388    0.7846 C   0  0  0  0  0  0  0  0  0  0  0  0
    1.3809   -1.6754    0.0822 C   0  0  0  0  0  0  0  0  0  0  0  0
    1.4669   -0.5267   -0.6908 C   0  0  0  0  0  0  0  0  0  0  0  0
    2.6850    0.1155   -0.7142 C   0  0  0  0  0  0  0  0  0  0  0  0
    3.7826   -0.3645    0.0045 C   0  0  0  0  0  0  0  0  0  0  0  0
    5.0496    0.0607    0.1497 N   0  0  0  0  0  0  0  0  0  0  0  0
    0.3422   -0.0107   -1.4375 C   0  0  0  0  0  0  0  0  0  0  0  0
   -0.8860    0.0959   -0.8004 C   0  0  0  0  0  0  0  0  0  0  0  0
   -1.9630    0.5884   -1.4975 C   0  0  0  0  0  0  0  0  0  0  0  0
   -3.2278    0.6855   -0.8949 N   0  0  0  0  0  0  0  0  0  0  0  0
   -3.6682   -0.0585    0.1873 C   0  0  0  0  0  0  0  0  0  0  0  0
   -3.0118   -0.9466    0.7964 O   0  0  0  0  0  0  0  0  0  0  0  0
   -5.0368    0.1733    0.7182 C   0  0  0  0  0  0  0  0  0  0  0  0
   -5.6554   -0.7827    1.5234 C   0  0  0  0  0  0  0  0  0  0  0  0
   -6.9179   -0.6211    2.0508 C   0  0  0  0  0  0  0  0  0  0  0  0
   -7.5970    0.5412    1.7664 C   0  0  0  0  0  0  0  0  0  0  0  0
   -8.8760    0.7518    2.2757 O   0  0  0  0  0  0  0  0  0  0  0  0
   -7.0180    1.5063    0.9756 C   0  0  0  0  0  0  0  0  0  0  0  0
   -5.7324    1.3235    0.4484 C   0  0  0  0  0  0  0  0  0  0  0  0
   -1.8195    0.9797   -2.8381 C   0  0  0  0  0  0  0  0  0  0  0  0
   -0.6293    0.8638   -3.4148 N   0  0  0  0  0  0  0  0  0  0  0  0
    0.4543    0.3754   -2.7388 C   0  0  0  0  0  0  0  0  0  0  0  0
    1.6655    0.2972   -3.4680 N   0  0  0  0  0  0  0  0  0  0  0  0
    7.3202    1.6153    0.5786 H   0  0  0  0  0  0  0  0  0  0  0  0
    8.4496    0.5596   -0.3245 H   0  0  0  0  0  0  0  0  0  0  0  0
    8.8830    1.2426    1.3336 H   0  0  0  0  0  0  0  0  0  0  0  0
    2.3735   -3.0450    1.3862 H   0  0  0  0  0  0  0  0  0  0  0  0
    0.4159   -2.1670    0.0889 H   0  0  0  0  0  0  0  0  0  0  0  0
    2.8314    1.0302   -1.2981 H   0  0  0  0  0  0  0  0  0  0  0  0
    5.4108    0.9199   -0.3247 H   0  0  0  0  0  0  0  0  0  0  0  0
   -0.9437   -0.2044    0.2506 H   0  0  0  0  0  0  0  0  0  0  0  0
   -3.8863    1.3994   -1.3277 H   0  0  0  0  0  0  0  0  0  0  0  0
   -5.0722   -1.6962    1.7228 H   0  0  0  0  0  0  0  0  0  0  0  0
   -7.3269   -1.4094    2.6658 H   0  0  0  0  0  0  0  0  0  0  0  0
   -9.7123    0.4584    1.7628 H   0  0  0  0  0  0  0  0  0  0  0  0
   -7.5662    2.4267    0.7554 H   0  0  0  0  0  0  0  0  0  0  0  0
   -5.3093    2.1139   -0.1682 H   0  0  0  0  0  0  0  0  0  0  0  0
   -2.7001    1.3574   -3.3291 H   0  0  0  0  0  0  0  0  0  0  0  0
    1.9955    1.1270   -3.9926 H   0  0  0  0  0  0  0  0  0  0  0  0
    2.1984   -0.5902   -3.4623 H   0  0  0  0  0  0  0  0  0  0  0  0
  1  2  1  0
  2  3  2  0
  2  4  2  0
  2  5  1  0
  5  6  2  0
  6  7  1  0
  7  8  2  0
  8  9  1  0
  9 10  2  0
 10 11  1  0
 11 12  2  0
 12 13  1  0
 10 14  1  0
 14 15  2  0
 15 16  1  0
 16 17  1  0
 17 18  1  0
 18 19  2  0
 18 20  1  0
 20 21  2  0
 21 22  1  0
 22 23  2  0
 23 24  1  0
 23 25  1  0
 25 26  2  0
 16 27  2  0
 27 28  1  0
 28 29  2  0
 29 30  1  0
 13  5  1  0
 29 14  1  0
 12  7  1  0
 26 20  1  0
  1 31  1  0
  1 32  1  0
  1 33  1  0
  8 34  1  0
  9 35  1  0
 11 36  1  0
 13 37  1  0
 15 38  1  0
 17 39  1  0
 21 40  1  0
 22 41  1  0
 24 42  1  0
 25 43  1  0
 26 44  1  0
 27 45  1  0
 30 46  1  0
 30 47  1  0
M  END
$$$$
[H]c1c([H])c(-c2c([H])n(C([H])([H])C(=O)C([H])(N([H])C([H])(C([H])([H])[H])C([H])([H])[H])C([H])([H])c3noc(C#N)n3)c3c([H])c([H])c([H])c([H])c23)c([H])c([H])c1C(=O)OC(C([H])([H])[H])(C([H])([H])[H])C([H])([H])[H]
     RDKit          3D

 69 72  0  0  0  0  0  0  0  0999 V2000
   -5.3102    2.8686   -0.0872 C   0  0  0  0  0  0  0  0  0  0  0  0
   -5.9604    2.4350    1.1959 C   0  0  0  0  0  0  0  0  0  0  0  0
   -6.0235    3.7328    2.0391 C   0  0  0  0  0  0  0  0  0  0  0  0
   -5.2648    1.5063    1.9647 N   0  0  0  0  0  0  0  0  0  0  0  0
   -4.9863    0.1908    1.4183 C   0  0  0  0  0  0  0  0  0  0  0  0
   -6.1330   -0.5671    1.0043 C   0  0  0  0  0  0  0  0  0  0  0  0
   -5.9778   -1.9216    0.4643 C   0  0  0  0  0  0  0  0  0  0  0  0
   -5.9117   -2.3844   -0.7932 N   0  0  0  0  0  0  0  0  0  0  0  0
   -5.7698   -3.6741   -0.8313 O   0  0  0  0  0  0  0  0  0  0  0  0
   -5.7361   -4.1201    0.3894 C   0  0  0  0  0  0  0  0  0  0  0  0
   -5.8596   -3.0823    1.2022 N   0  0  0  0  0  0  0  0  0  0  0  0
   -5.5926   -5.4851    0.8678 C   0  0  0  0  0  0  0  0  0  0  0  0
   -5.4938   -6.5657    1.2597 N   0  0  0  0  0  0  0  0  0  0  0  0
   -3.7356    0.2030    0.7170 C   0  0  0  0  0  0  0  0  0  0  0  0
   -2.9758    1.1875    0.9638 O   0  0  0  0  0  0  0  0  0  0  0  0
   -3.1625   -0.7342   -0.2521 C   0  0  0  0  0  0  0  0  0  0  0  0
   -1.7667   -0.3461   -0.5853 N   0  0  0  0  0  0  0  0  0  0  0  0
   -0.6459   -0.7693    0.0156 C   0  0  0  0  0  0  0  0  0  0  0  0
    0.4251   -0.1371   -0.6169 C   0  0  0  0  0  0  0  0  0  0  0  0
    1.8364   -0.2765   -0.3032 C   0  0  0  0  0  0  0  0  0  0  0  0
    2.7699   -0.4214   -1.2927 C   0  0  0  0  0  0  0  0  0  0  0  0
    4.1226   -0.5491   -0.9546 C   0  0  0  0  0  0  0  0  0  0  0  0
    4.5429   -0.5333    0.3503 C   0  0  0  0  0  0  0  0  0  0  0  0
    3.5801   -0.3857    1.3429 C   0  0  0  0  0  0  0  0  0  0  0  0
    2.2567   -0.2603    1.0137 C   0  0  0  0  0  0  0  0  0  0  0  0
    5.9371   -0.6556    0.7235 C   0  0  0  0  0  0  0  0  0  0  0  0
    6.2772   -0.6648    1.9255 O   0  0  0  0  0  0  0  0  0  0  0  0
    6.9347   -0.7649   -0.2232 O   0  0  0  0  0  0  0  0  0  0  0  0
    8.3041   -0.8908    0.1272 C   0  0  0  0  0  0  0  0  0  0  0  0
    9.1239   -0.9678   -1.1424 C   0  0  0  0  0  0  0  0  0  0  0  0
    8.8025    0.2220    0.9858 C   0  0  0  0  0  0  0  0  0  0  0  0
    8.5380   -2.2237    0.8447 C   0  0  0  0  0  0  0  0  0  0  0  0
   -0.1196    0.6597   -1.5974 C   0  0  0  0  0  0  0  0  0  0  0  0
    0.3983    1.5241   -2.5479 C   0  0  0  0  0  0  0  0  0  0  0  0
   -0.3973    2.2220   -3.4327 C   0  0  0  0  0  0  0  0  0  0  0  0
   -1.7606    2.0812   -3.4019 C   0  0  0  0  0  0  0  0  0  0  0  0
   -2.2866    1.2302   -2.4671 C   0  0  0  0  0  0  0  0  0  0  0  0
   -1.4980    0.5238   -1.5726 C   0  0  0  0  0  0  0  0  0  0  0  0
   -5.1166    1.9798   -0.7212 H   0  0  0  0  0  0  0  0  0  0  0  0
   -4.3921    3.4452    0.0355 H   0  0  0  0  0  0  0  0  0  0  0  0
   -6.0797    3.4709   -0.6532 H   0  0  0  0  0  0  0  0  0  0  0  0
   -7.0481    2.2066    1.0471 H   0  0  0  0  0  0  0  0  0  0  0  0
   -5.0109    4.1934    1.9082 H   0  0  0  0  0  0  0  0  0  0  0  0
   -6.2595    3.5136    3.0797 H   0  0  0  0  0  0  0  0  0  0  0  0
   -6.7392    4.4274    1.5506 H   0  0  0  0  0  0  0  0  0  0  0  0
   -4.3743    1.9211    2.3388 H   0  0  0  0  0  0  0  0  0  0  0  0
   -4.6607   -0.3559    2.4492 H   0  0  0  0  0  0  0  0  0  0  0  0
   -6.8615   -0.7037    1.8913 H   0  0  0  0  0  0  0  0  0  0  0  0
   -6.8220   -0.0436    0.2749 H   0  0  0  0  0  0  0  0  0  0  0  0
   -3.6906   -0.6374   -1.2182 H   0  0  0  0  0  0  0  0  0  0  0  0
   -3.1285   -1.7750    0.0560 H   0  0  0  0  0  0  0  0  0  0  0  0
   -0.5680   -1.4677    0.8368 H   0  0  0  0  0  0  0  0  0  0  0  0
    2.4987   -0.4478   -2.3442 H   0  0  0  0  0  0  0  0  0  0  0  0
    4.8586   -0.6627   -1.7425 H   0  0  0  0  0  0  0  0  0  0  0  0
    3.8971   -0.3719    2.3883 H   0  0  0  0  0  0  0  0  0  0  0  0
    1.4981   -0.1444    1.7819 H   0  0  0  0  0  0  0  0  0  0  0  0
    8.5910   -1.4848   -1.9647 H   0  0  0  0  0  0  0  0  0  0  0  0
   10.1025   -1.4846   -0.9383 H   0  0  0  0  0  0  0  0  0  0  0  0
    9.4161    0.0570   -1.4972 H   0  0  0  0  0  0  0  0  0  0  0  0
    9.8110    0.5318    0.6988 H   0  0  0  0  0  0  0  0  0  0  0  0
    8.1203    1.0984    0.9149 H   0  0  0  0  0  0  0  0  0  0  0  0
    8.8460   -0.1117    2.0547 H   0  0  0  0  0  0  0  0  0  0  0  0
    9.6285   -2.4389    0.7228 H   0  0  0  0  0  0  0  0  0  0  0  0
    8.2906   -2.1822    1.9061 H   0  0  0  0  0  0  0  0  0  0  0  0
    7.9420   -3.0110    0.3363 H   0  0  0  0  0  0  0  0  0  0  0  0
    1.4730    1.6696   -2.6026 H   0  0  0  0  0  0  0  0  0  0  0  0
    0.0665    2.8691   -4.1351 H   0  0  0  0  0  0  0  0  0  0  0  0
   -2.4153    2.6282   -4.0970 H   0  0  0  0  0  0  0  0  0  0  0  0
   -3.3542    1.1050   -2.4249 H   0  0  0  0  0  0  0  0  0  0  0  0
  1  2  1  0
  2  3  1  0
  2  4  1  0
  4  5  1  0
  5  6  1  0
  6  7  1  0
  7  8  2  0
  8  9  1  0
  9 10  1  0
 10 11  2  0
 10 12  1  0
 12 13  3  0
  5 14  1  0
 14 15  2  0
 14 16  1  0
 16 17  1  0
 17 18  1  0
 18 19  2  0
 19 20  1  0
 20 21  2  0
 21 22  1  0
 22 23  2  0
 23 24  1  0
 24 25  2  0
 23 26  1  0
 26 27  2  0
 26 28  1  0
 28 29  1  0
 29 30  1  0
 29 31  1  0
 29 32  1  0
 19 33  1  0
 33 34  2  0
 34 35  1  0
 35 36  2  0
 36 37  1  0
 37 38  2  0
 11  7  1  0
 38 17  1  0
 25 20  1  0
 38 33  1  0
  1 39  1  0
  1 40  1  0
  1 41  1  0
  2 42  1  0
  3 43  1  0
  3 44  1  0
  3 45  1  0
  4 46  1  0
  5 47  1  0
  6 48  1  0
  6 49  1  0
 16 50  1  0
 16 51  1  0
 18 52  1  0
 21 53  1  0
 22 54  1  0
 24 55  1  0
 25 56  1  0
 30 57  1  0
 30 58  1  0
 30 59  1  0
 31 60  1  0
 31 61  1  0
 31 62  1  0
 32 63  1  0
 32 64  1  0
 32 65  1  0
 34 66  1  0
 35 67  1  0
 36 68  1  0
 37 69  1  0
M  END
$$$$
[H]c1c([H])c(F)c([H])c(N2C([H])([H])C([H])([H])C([H])(N([H])S(=O)(=O)C([H])([H])C([H])(c3nc4c([H])c([H])c(N5C([H])([H])C([H])([H])OC([H])([H])C5([H])[H])nc4s3)C([H])([H])[H])C([H])([H])C2([H])[H])c1[H]
     RDKit          3D

 65 69  0  0  0  0  0  0  0  0999 V2000
    0.2905    1.2791   -1.6916 C   0  0  0  0  0  0  0  0  0  0  0  0
   -0.4971    0.0986   -2.1169 C   0  0  0  0  0  0  0  0  0  0  0  0
    0.1558   -1.2259   -2.0799 C   0  0  0  0  0  0  0  0  0  0  0  0
    0.7617   -1.8529   -0.5964 S   0  0  0  0  0  0  0  0  0  0  0  0
    1.2615   -3.2876   -0.8911 O   0  0  0  0  0  0  0  0  0  0  0  0
   -0.3721   -2.1059    0.3965 O   0  0  0  0  0  0  0  0  0  0  0  0
    2.0025   -1.0647    0.2120 N   0  0  0  0  0  0  0  0  0  0  0  0
    3.2649   -0.9561   -0.4658 C   0  0  0  0  0  0  0  0  0  0  0  0
    4.3019   -1.8694    0.1966 C   0  0  0  0  0  0  0  0  0  0  0  0
    5.7239   -1.4951   -0.2575 C   0  0  0  0  0  0  0  0  0  0  0  0
    5.9995   -0.1314    0.1805 N   0  0  0  0  0  0  0  0  0  0  0  0
    4.8398    0.5908    0.6274 C   0  0  0  0  0  0  0  0  0  0  0  0
    3.7603    0.4352   -0.4439 C   0  0  0  0  0  0  0  0  0  0  0  0
    7.2796    0.4170    0.1641 C   0  0  0  0  0  0  0  0  0  0  0  0
    7.6019    1.6777    0.6130 C   0  0  0  0  0  0  0  0  0  0  0  0
    8.8772    2.2046    0.5868 C   0  0  0  0  0  0  0  0  0  0  0  0
    9.8852    1.4013    0.0735 C   0  0  0  0  0  0  0  0  0  0  0  0
    9.6026    0.1352   -0.3850 C   0  0  0  0  0  0  0  0  0  0  0  0
   10.6078   -0.6238   -0.8796 F   0  0  0  0  0  0  0  0  0  0  0  0
    8.3233   -0.3488   -0.3408 C   0  0  0  0  0  0  0  0  0  0  0  0
   -1.8371    0.1541   -1.4471 C   0  0  0  0  0  0  0  0  0  0  0  0
   -2.1700    0.1760   -0.1780 N   0  0  0  0  0  0  0  0  0  0  0  0
   -3.4244    0.2228    0.1706 C   0  0  0  0  0  0  0  0  0  0  0  0
   -3.9533    0.2513    1.4812 C   0  0  0  0  0  0  0  0  0  0  0  0
   -5.3146    0.2999    1.6498 C   0  0  0  0  0  0  0  0  0  0  0  0
   -6.2405    0.3243    0.6294 C   0  0  0  0  0  0  0  0  0  0  0  0
   -7.6400    0.3720    0.8442 N   0  0  0  0  0  0  0  0  0  0  0  0
   -8.1634    0.3496    2.1742 C   0  0  0  0  0  0  0  0  0  0  0  0
   -9.6374    0.2914    2.3075 C   0  0  0  0  0  0  0  0  0  0  0  0
  -10.3658    0.3431    1.1439 O   0  0  0  0  0  0  0  0  0  0  0  0
   -9.7850   -0.3322    0.0986 C   0  0  0  0  0  0  0  0  0  0  0  0
   -8.5410    0.4454   -0.2766 C   0  0  0  0  0  0  0  0  0  0  0  0
   -5.7089    0.2963   -0.6165 N   0  0  0  0  0  0  0  0  0  0  0  0
   -4.3614    0.2478   -0.8229 C   0  0  0  0  0  0  0  0  0  0  0  0
   -3.3510    0.2012   -2.2241 S   0  0  0  0  0  0  0  0  0  0  0  0
    0.4959    1.3202   -0.6071 H   0  0  0  0  0  0  0  0  0  0  0  0
    1.2778    1.2455   -2.2017 H   0  0  0  0  0  0  0  0  0  0  0  0
   -0.2395    2.1946   -2.0476 H   0  0  0  0  0  0  0  0  0  0  0  0
   -0.7084    0.2782   -3.2377 H   0  0  0  0  0  0  0  0  0  0  0  0
   -0.5982   -1.9614   -2.4985 H   0  0  0  0  0  0  0  0  0  0  0  0
    0.9599   -1.2159   -2.8739 H   0  0  0  0  0  0  0  0  0  0  0  0
    1.7651   -0.2264    0.7512 H   0  0  0  0  0  0  0  0  0  0  0  0
    3.2217   -1.3351   -1.5123 H   0  0  0  0  0  0  0  0  0  0  0  0
    4.2418   -1.8552    1.2959 H   0  0  0  0  0  0  0  0  0  0  0  0
    4.1513   -2.9167   -0.1335 H   0  0  0  0  0  0  0  0  0  0  0  0
    6.3894   -2.2468    0.1555 H   0  0  0  0  0  0  0  0  0  0  0  0
    5.7922   -1.5007   -1.3578 H   0  0  0  0  0  0  0  0  0  0  0  0
    5.0114    1.6520    0.8083 H   0  0  0  0  0  0  0  0  0  0  0  0
    4.3982    0.1568    1.5548 H   0  0  0  0  0  0  0  0  0  0  0  0
    4.1309    0.8040   -1.4270 H   0  0  0  0  0  0  0  0  0  0  0  0
    2.9635    1.1601   -0.1213 H   0  0  0  0  0  0  0  0  0  0  0  0
    6.8386    2.3265    1.0206 H   0  0  0  0  0  0  0  0  0  0  0  0
    9.0661    3.1932    0.9506 H   0  0  0  0  0  0  0  0  0  0  0  0
   10.9126    1.7783    0.0331 H   0  0  0  0  0  0  0  0  0  0  0  0
    8.1056   -1.3386   -0.6996 H   0  0  0  0  0  0  0  0  0  0  0  0
   -3.3160    0.2357    2.3473 H   0  0  0  0  0  0  0  0  0  0  0  0
   -5.7573    0.3243    2.6622 H   0  0  0  0  0  0  0  0  0  0  0  0
   -7.6292   -0.4614    2.7166 H   0  0  0  0  0  0  0  0  0  0  0  0
   -7.8178    1.3044    2.6650 H   0  0  0  0  0  0  0  0  0  0  0  0
   -9.8807   -0.7122    2.7719 H   0  0  0  0  0  0  0  0  0  0  0  0
  -10.0134    1.0226    3.0711 H   0  0  0  0  0  0  0  0  0  0  0  0
  -10.5038   -0.4098   -0.7199 H   0  0  0  0  0  0  0  0  0  0  0  0
   -9.4530   -1.3268    0.4937 H   0  0  0  0  0  0  0  0  0  0  0  0
   -8.1244   -0.0589   -1.1854 H   0  0  0  0  0  0  0  0  0  0  0  0
   -8.8569    1.4831   -0.5109 H   0  0  0  0  0  0  0  0  0  0  0  0
  1  2  1  0
  2  3  1  0
  3  4  1  0
  4  5  2  0
  4  6  2  0
  4  7  1  0
  7  8  1  0
  8  9  1  0
  9 10  1  0
 10 11  1  0
 11 12  1  0
 12 13  1  0
 11 14  1  0
 14 15  2  0
 15 16  1  0
 16 17  2  0
 17 18  1  0
 18 19  1  0
 18 20  2  0
  2 21  1  0
 21 22  2  0
 22 23  1  0
 23 24  2  0
 24 25  1  0
 25 26  2  0
 26 27  1  0
 27 28  1  0
 28 29  1  0
 29 30  1  0
 30 31  1  0
 31 32  1  0
 26 33  1  0
 33 34  2  0
 34 35  1  0
 13  8  1  0
 20 14  1  0
 35 21  1  0
 34 23  1  0
 32 27  1  0
  1 36  1  0
  1 37  1  0
  1 38  1  0
  2 39  1  0
  3 40  1  0
  3 41  1  0
  7 42  1  0
  8 43  1  0
  9 44  1  0
  9 45  1  0
 10 46  1  0
 10 47  1  0
 12 48  1  0
 12 49  1  0
 13 50  1  0
 13 51  1  0
 15 52  1  0
 16 53  1  0
 17 54  1  0
 20 55  1  0
 24 56  1  0
 25 57  1  0
 28 58  1  0
 28 59  1  0
 29 60  1  0
 29 61  1  0
 31 62  1  0
 31 63  1  0
 32 64  1  0
 32 65  1  0
M  END
$$$$
[H]c1nc(OC(C([H])([H])[H])(C([H])([H])[H])C([H])([H])[H])c([H])c([H])c1C([H])([H])OC(=O)N([H])[C@@]1([H])C([H])([H])C([H])([H])C([H])([H])C(OC([H])([H])[H])(C([H])([H])[H])C1([H])[H]
     RDKit          3D

 55 56  0  0  0  0  0  0  0  0999 V2000
    5.9530    0.8532    2.3368 C   0  0  0  0  0  0  0  0  0  0  0  0
    4.9260    0.0501    1.9596 O   0  0  0  0  0  0  0  0  0  0  0  0
    4.3469    0.2855    0.7295 C   0  0  0  0  0  0  0  0  0  0  0  0
    3.8423    1.7359    0.7722 C   0  0  0  0  0  0  0  0  0  0  0  0
    5.2872    0.1004   -0.4017 C   0  0  0  0  0  0  0  0  0  0  0  0
    5.3920   -1.3886   -0.6722 C   0  0  0  0  0  0  0  0  0  0  0  0
    4.1125   -1.7867   -1.3701 C   0  0  0  0  0  0  0  0  0  0  0  0
    2.8876   -1.2171   -0.6932 C   0  0  1  0  0  0  0  0  0  0  0  0
    3.1511   -0.6506    0.6559 C   0  0  0  0  0  0  0  0  0  0  0  0
    2.1742   -0.3092   -1.5550 N   0  0  0  0  0  0  0  0  0  0  0  0
    0.8566   -0.6541   -2.0142 C   0  0  0  0  0  0  0  0  0  0  0  0
    0.3203   -1.7447   -1.6690 O   0  0  0  0  0  0  0  0  0  0  0  0
    0.1293    0.1776   -2.8399 O   0  0  0  0  0  0  0  0  0  0  0  0
   -1.1445   -0.0725   -3.3290 C   0  0  0  0  0  0  0  0  0  0  0  0
   -2.1991   -0.2465   -2.3124 C   0  0  0  0  0  0  0  0  0  0  0  0
   -2.7295   -1.4816   -2.0092 C   0  0  0  0  0  0  0  0  0  0  0  0
   -3.7291   -1.5932   -1.0332 C   0  0  0  0  0  0  0  0  0  0  0  0
   -4.2091   -0.4931   -0.3543 C   0  0  0  0  0  0  0  0  0  0  0  0
   -5.1993   -0.6673    0.6007 O   0  0  0  0  0  0  0  0  0  0  0  0
   -5.7489    0.3961    1.3425 C   0  0  0  0  0  0  0  0  0  0  0  0
   -4.7058    1.1229    2.1606 C   0  0  0  0  0  0  0  0  0  0  0  0
   -6.3402    1.3897    0.3694 C   0  0  0  0  0  0  0  0  0  0  0  0
   -6.8387   -0.0857    2.2437 C   0  0  0  0  0  0  0  0  0  0  0  0
   -3.6736    0.6997   -0.6705 N   0  0  0  0  0  0  0  0  0  0  0  0
   -2.7109    0.8334   -1.6055 C   0  0  0  0  0  0  0  0  0  0  0  0
    6.8233    0.8093    1.6662 H   0  0  0  0  0  0  0  0  0  0  0  0
    6.3386    0.4561    3.3228 H   0  0  0  0  0  0  0  0  0  0  0  0
    5.6531    1.8986    2.5746 H   0  0  0  0  0  0  0  0  0  0  0  0
    2.9022    1.8498    0.1934 H   0  0  0  0  0  0  0  0  0  0  0  0
    3.5857    1.9906    1.8209 H   0  0  0  0  0  0  0  0  0  0  0  0
    4.5759    2.4257    0.3172 H   0  0  0  0  0  0  0  0  0  0  0  0
    6.3059    0.4626   -0.1946 H   0  0  0  0  0  0  0  0  0  0  0  0
    4.9750    0.6244   -1.3334 H   0  0  0  0  0  0  0  0  0  0  0  0
    5.5598   -1.9271    0.2611 H   0  0  0  0  0  0  0  0  0  0  0  0
    6.2276   -1.5727   -1.3731 H   0  0  0  0  0  0  0  0  0  0  0  0
    4.1080   -2.8828   -1.4369 H   0  0  0  0  0  0  0  0  0  0  0  0
    4.1625   -1.3741   -2.3930 H   0  0  0  0  0  0  0  0  0  0  0  0
    2.2113   -2.1074   -0.5270 H   0  0  0  0  0  0  0  0  0  0  0  0
    2.2620   -0.0699    0.9725 H   0  0  0  0  0  0  0  0  0  0  0  0
    3.2333   -1.4928    1.3843 H   0  0  0  0  0  0  0  0  0  0  0  0
    2.6352    0.5805   -1.8249 H   0  0  0  0  0  0  0  0  0  0  0  0
   -1.2010   -0.9556   -3.9999 H   0  0  0  0  0  0  0  0  0  0  0  0
   -1.4137    0.8008   -3.9913 H   0  0  0  0  0  0  0  0  0  0  0  0
   -2.3701   -2.3629   -2.5300 H   0  0  0  0  0  0  0  0  0  0  0  0
   -4.1332   -2.5704   -0.8086 H   0  0  0  0  0  0  0  0  0  0  0  0
   -3.9784    0.4550    2.6317 H   0  0  0  0  0  0  0  0  0  0  0  0
   -5.2562    1.6289    2.9912 H   0  0  0  0  0  0  0  0  0  0  0  0
   -4.2469    1.9425    1.5689 H   0  0  0  0  0  0  0  0  0  0  0  0
   -5.8516    2.3847    0.4428 H   0  0  0  0  0  0  0  0  0  0  0  0
   -7.4339    1.5441    0.5385 H   0  0  0  0  0  0  0  0  0  0  0  0
   -6.2446    1.0663   -0.6868 H   0  0  0  0  0  0  0  0  0  0  0  0
   -6.4262   -0.8145    2.9820 H   0  0  0  0  0  0  0  0  0  0  0  0
   -7.2957    0.7891    2.7561 H   0  0  0  0  0  0  0  0  0  0  0  0
   -7.5773   -0.6441    1.6222 H   0  0  0  0  0  0  0  0  0  0  0  0
   -2.2808    1.8113   -1.8558 H   0  0  0  0  0  0  0  0  0  0  0  0
  1  2  1  0
  2  3  1  0
  3  4  1  0
  3  5  1  0
  5  6  1  0
  6  7  1  0
  7  8  1  0
  8  9  1  0
  8 10  1  0
 10 11  1  0
 11 12  2  0
 11 13  1  0
 13 14  1  0
 14 15  1  0
 15 16  2  0
 16 17  1  0
 17 18  2  0
 18 19  1  0
 19 20  1  0
 20 21  1  0
 20 22  1  0
 20 23  1  0
 18 24  1  0
 24 25  2  0
  9  3  1  0
 25 15  1  0
  1 26  1  0
  1 27  1  0
  1 28  1  0
  4 29  1  0
  4 30  1  0
  4 31  1  0
  5 32  1  0
  5 33  1  0
  6 34  1  0
  6 35  1  0
  7 36  1  0
  7 37  1  0
  8 38  1  1
  9 39  1  0
  9 40  1  0
 10 41  1  0
 14 42  1  0
 14 43  1  0
 16 44  1  0
 17 45  1  0
 21 46  1  0
 21 47  1  0
 21 48  1  0
 22 49  1  0
 22 50  1  0
 22 51  1  0
 23 52  1  0
 23 53  1  0
 23 54  1  0
 25 55  1  0
M  END
$$$$
[H]O[C@@]1([H])[C@]([H])(O[H])C([H])([H])O[C@]1([H])[C@]([H])(n1c([H])nc2c(N([H])[C@]([H])(C(=O)N([H])C(C([H])([H])[H])(C([H])([H])[H])C([H])([H])[H])C([H])([H])C(=O)C([H])([H])[H])c([H])c([H])c([H])c21)C([H])([H])C([H])([H])SC([H])([H])[H]
     RDKit          3D

 70 72  0  0  0  0  0  0  0  0999 V2000
    6.3615    1.9813    2.8913 C   0  0  0  0  0  0  0  0  0  0  0  0
    6.3028    0.1921    2.9736 S   0  0  0  0  0  0  0  0  0  0  0  0
    5.8819   -0.5485    1.3470 C   0  0  0  0  0  0  0  0  0  0  0  0
    4.4832   -0.1521    1.0172 C   0  0  0  0  0  0  0  0  0  0  0  0
    3.8724   -0.6613   -0.2263 C   0  0  2  0  0  0  0  0  0  0  0  0
    4.4800   -0.3560   -1.5270 C   0  0  1  0  0  0  0  0  0  0  0  0
    4.6055    1.0256   -1.7508 O   0  0  0  0  0  0  0  0  0  0  0  0
    5.3077    1.0946   -2.9510 C   0  0  0  0  0  0  0  0  0  0  0  0
    6.4057    0.0941   -2.7575 C   0  0  1  0  0  0  0  0  0  0  0  0
    7.4312    0.6627   -2.0101 O   0  0  0  0  0  0  0  0  0  0  0  0
    5.6999   -1.0283   -1.9819 C   0  0  2  0  0  0  0  0  0  0  0  0
    5.3965   -1.9836   -2.9940 O   0  0  0  0  0  0  0  0  0  0  0  0
    2.4358   -0.3463   -0.3002 N   0  0  0  0  0  0  0  0  0  0  0  0
    1.7938    0.5381   -1.0695 C   0  0  0  0  0  0  0  0  0  0  0  0
    0.4666    0.5109   -0.8254 N   0  0  0  0  0  0  0  0  0  0  0  0
    0.2440   -0.3982    0.1098 C   0  0  0  0  0  0  0  0  0  0  0  0
   -0.9549   -0.7984    0.7006 C   0  0  0  0  0  0  0  0  0  0  0  0
   -2.1670   -0.1991    0.2673 N   0  0  0  0  0  0  0  0  0  0  0  0
   -3.4196   -0.4417    0.9069 C   0  0  1  0  0  0  0  0  0  0  0  0
   -3.5727    0.1720    2.2540 C   0  0  0  0  0  0  0  0  0  0  0  0
   -3.4636    1.6245    2.3414 C   0  0  0  0  0  0  0  0  0  0  0  0
   -3.1253    2.4763    1.1955 C   0  0  0  0  0  0  0  0  0  0  0  0
   -3.6652    2.1706    3.4365 O   0  0  0  0  0  0  0  0  0  0  0  0
   -4.5789   -0.2320    0.0064 C   0  0  0  0  0  0  0  0  0  0  0  0
   -4.4697    0.0998   -1.2045 O   0  0  0  0  0  0  0  0  0  0  0  0
   -5.8879   -0.4082    0.5106 N   0  0  0  0  0  0  0  0  0  0  0  0
   -7.0746   -0.2223   -0.3046 C   0  0  0  0  0  0  0  0  0  0  0  0
   -7.0640   -1.1793   -1.4867 C   0  0  0  0  0  0  0  0  0  0  0  0
   -7.0843    1.1853   -0.8254 C   0  0  0  0  0  0  0  0  0  0  0  0
   -8.3358   -0.5010    0.4742 C   0  0  0  0  0  0  0  0  0  0  0  0
   -0.8988   -1.7728    1.6526 C   0  0  0  0  0  0  0  0  0  0  0  0
    0.3302   -2.3300    2.0028 C   0  0  0  0  0  0  0  0  0  0  0  0
    1.4974   -1.9182    1.4063 C   0  0  0  0  0  0  0  0  0  0  0  0
    1.4620   -0.9420    0.4481 C   0  0  0  0  0  0  0  0  0  0  0  0
    5.7879    2.3769    3.7803 H   0  0  0  0  0  0  0  0  0  0  0  0
    5.9821    2.3673    1.9404 H   0  0  0  0  0  0  0  0  0  0  0  0
    7.4130    2.3358    3.0774 H   0  0  0  0  0  0  0  0  0  0  0  0
    6.6376   -0.2232    0.6013 H   0  0  0  0  0  0  0  0  0  0  0  0
    5.9876   -1.6375    1.4713 H   0  0  0  0  0  0  0  0  0  0  0  0
    3.8734   -0.4463    1.9352 H   0  0  0  0  0  0  0  0  0  0  0  0
    4.3924    0.9866    1.0670 H   0  0  0  0  0  0  0  0  0  0  0  0
    3.9131   -1.8160   -0.1151 H   0  0  0  0  0  0  0  0  0  0  0  0
    3.6372   -0.6273   -2.3045 H   0  0  0  0  0  0  0  0  0  0  0  0
    5.7311    2.1207   -3.0960 H   0  0  0  0  0  0  0  0  0  0  0  0
    4.6635    0.8764   -3.8259 H   0  0  0  0  0  0  0  0  0  0  0  0
    6.8263   -0.2678   -3.7193 H   0  0  0  0  0  0  0  0  0  0  0  0
    7.2300    1.5896   -1.7500 H   0  0  0  0  0  0  0  0  0  0  0  0
    6.4059   -1.4304   -1.2767 H   0  0  0  0  0  0  0  0  0  0  0  0
    6.1996   -2.1066   -3.5600 H   0  0  0  0  0  0  0  0  0  0  0  0
    2.2107    1.2121   -1.8051 H   0  0  0  0  0  0  0  0  0  0  0  0
   -2.1567    0.4547   -0.5715 H   0  0  0  0  0  0  0  0  0  0  0  0
   -3.4319   -1.5766    1.0999 H   0  0  0  0  0  0  0  0  0  0  0  0
   -4.5255   -0.1687    2.7390 H   0  0  0  0  0  0  0  0  0  0  0  0
   -2.7727   -0.2375    2.9386 H   0  0  0  0  0  0  0  0  0  0  0  0
   -2.0647    2.3407    0.8567 H   0  0  0  0  0  0  0  0  0  0  0  0
   -3.8733    2.3664    0.4147 H   0  0  0  0  0  0  0  0  0  0  0  0
   -3.1675    3.5719    1.4851 H   0  0  0  0  0  0  0  0  0  0  0  0
   -6.0353   -0.6811    1.4939 H   0  0  0  0  0  0  0  0  0  0  0  0
   -8.1160   -1.3864   -1.7693 H   0  0  0  0  0  0  0  0  0  0  0  0
   -6.5801   -2.1341   -1.2526 H   0  0  0  0  0  0  0  0  0  0  0  0
   -6.5980   -0.6642   -2.3620 H   0  0  0  0  0  0  0  0  0  0  0  0
   -6.4769    1.8750   -0.1938 H   0  0  0  0  0  0  0  0  0  0  0  0
   -8.1296    1.6023   -0.7897 H   0  0  0  0  0  0  0  0  0  0  0  0
   -6.6751    1.2393   -1.8478 H   0  0  0  0  0  0  0  0  0  0  0  0
   -8.6967    0.4417    0.9436 H   0  0  0  0  0  0  0  0  0  0  0  0
   -9.1148   -0.8478   -0.2464 H   0  0  0  0  0  0  0  0  0  0  0  0
   -8.1817   -1.3068    1.2220 H   0  0  0  0  0  0  0  0  0  0  0  0
   -1.7816   -2.1518    2.1473 H   0  0  0  0  0  0  0  0  0  0  0  0
    0.3448   -3.1008    2.7616 H   0  0  0  0  0  0  0  0  0  0  0  0
    2.4465   -2.3554    1.6828 H   0  0  0  0  0  0  0  0  0  0  0  0
  1  2  1  0
  2  3  1  0
  3  4  1  0
  4  5  1  0
  5  6  1  0
  6  7  1  0
  7  8  1  0
  8  9  1  0
  9 10  1  0
  9 11  1  0
 11 12  1  0
  5 13  1  0
 13 14  1  0
 14 15  2  0
 15 16  1  0
 16 17  2  0
 17 18  1  0
 18 19  1  0
 19 20  1  0
 20 21  1  0
 21 22  1  0
 21 23  2  0
 19 24  1  0
 24 25  2  0
 24 26  1  0
 26 27  1  0
 27 28  1  0
 27 29  1  0
 27 30  1  0
 17 31  1  0
 31 32  2  0
 32 33  1  0
 33 34  2  0
 11  6  1  0
 34 13  1  0
 34 16  1  0
  1 35  1  0
  1 36  1  0
  1 37  1  0
  3 38  1  0
  3 39  1  0
  4 40  1  0
  4 41  1  0
  5 42  1  1
  6 43  1  6
  8 44  1  0
  8 45  1  0
  9 46  1  6
 10 47  1  0
 11 48  1  1
 12 49  1  0
 14 50  1  0
 18 51  1  0
 19 52  1  1
 20 53  1  0
 20 54  1  0
 22 55  1  0
 22 56  1  0
 22 57  1  0
 26 58  1  0
 28 59  1  0
 28 60  1  0
 28 61  1  0
 29 62  1  0
 29 63  1  0
 29 64  1  0
 30 65  1  0
 30 66  1  0
 30 67  1  0
 31 68  1  0
 32 69  1  0
 33 70  1  0
M  END
$$$$
[H]c1c([H])c(C(=O)N([H])C([H])(N([H])C(=O)N([H])C2([H])C([H])([H])C2([H])[H])C([H])([H])[H])c([H])c(C([H])([H])c2c([H])c([H])c(S(=O)(=O)C([H])([H])[H])c([H])c2[H])c1[H]
     RDKit          3D

 54 56  0  0  0  0  0  0  0  0999 V2000
   -2.2653   -2.2403    2.0806 C   0  0  0  0  0  0  0  0  0  0  0  0
   -2.7600   -0.8982    1.5970 C   0  0  0  0  0  0  0  0  0  0  0  0
   -1.6831   -0.1316    0.9590 N   0  0  0  0  0  0  0  0  0  0  0  0
   -1.2462    1.1040    1.4484 C   0  0  0  0  0  0  0  0  0  0  0  0
   -1.7752    1.6245    2.4875 O   0  0  0  0  0  0  0  0  0  0  0  0
   -0.1716    1.8468    0.7937 C   0  0  0  0  0  0  0  0  0  0  0  0
    0.1493    3.1398    1.2319 C   0  0  0  0  0  0  0  0  0  0  0  0
    1.1534    3.8611    0.6361 C   0  0  0  0  0  0  0  0  0  0  0  0
    1.8565    3.3019   -0.4107 C   0  0  0  0  0  0  0  0  0  0  0  0
    1.5883    2.0352   -0.8867 C   0  0  0  0  0  0  0  0  0  0  0  0
    2.3579    1.4402   -2.0234 C   0  0  0  0  0  0  0  0  0  0  0  0
    3.5637    0.7480   -1.4758 C   0  0  0  0  0  0  0  0  0  0  0  0
    4.7342    1.4839   -1.3418 C   0  0  0  0  0  0  0  0  0  0  0  0
    5.8654    0.8957   -0.8439 C   0  0  0  0  0  0  0  0  0  0  0  0
    5.8422   -0.4267   -0.4758 C   0  0  0  0  0  0  0  0  0  0  0  0
    4.6713   -1.1705   -0.6079 C   0  0  0  0  0  0  0  0  0  0  0  0
    3.5403   -0.5747   -1.1079 C   0  0  0  0  0  0  0  0  0  0  0  0
    7.2652   -1.2363    0.1719 S   0  0  0  0  0  0  0  0  0  0  0  0
    8.1532   -1.9298   -1.1959 C   0  0  0  0  0  0  0  0  0  0  0  0
    8.1371   -0.2376    0.8767 O   0  0  0  0  0  0  0  0  0  0  0  0
    6.7999   -2.3226    1.0717 O   0  0  0  0  0  0  0  0  0  0  0  0
    0.5635    1.3410   -0.2537 C   0  0  0  0  0  0  0  0  0  0  0  0
   -3.8510   -1.1204    0.6639 N   0  0  0  0  0  0  0  0  0  0  0  0
   -5.1411   -0.5986    0.9159 C   0  0  0  0  0  0  0  0  0  0  0  0
   -5.3462    0.0645    1.9544 O   0  0  0  0  0  0  0  0  0  0  0  0
   -6.2133   -0.8091    0.0166 N   0  0  0  0  0  0  0  0  0  0  0  0
   -7.5356   -0.2758    0.2689 C   0  0  0  0  0  0  0  0  0  0  0  0
   -8.3665    0.2322   -0.8551 C   0  0  0  0  0  0  0  0  0  0  0  0
   -8.7171   -1.0582   -0.1590 C   0  0  0  0  0  0  0  0  0  0  0  0
   -2.9675   -2.6435    2.8331 H   0  0  0  0  0  0  0  0  0  0  0  0
   -2.1581   -2.9558    1.2377 H   0  0  0  0  0  0  0  0  0  0  0  0
   -1.2730   -2.1330    2.6019 H   0  0  0  0  0  0  0  0  0  0  0  0
   -3.1019   -0.3023    2.4765 H   0  0  0  0  0  0  0  0  0  0  0  0
   -1.2697   -0.5712    0.1187 H   0  0  0  0  0  0  0  0  0  0  0  0
   -0.4205    3.5442    2.0519 H   0  0  0  0  0  0  0  0  0  0  0  0
    1.3973    4.8794    0.9906 H   0  0  0  0  0  0  0  0  0  0  0  0
    2.6602    3.8515   -0.9051 H   0  0  0  0  0  0  0  0  0  0  0  0
    1.7531    0.7731   -2.6460 H   0  0  0  0  0  0  0  0  0  0  0  0
    2.7110    2.2716   -2.6889 H   0  0  0  0  0  0  0  0  0  0  0  0
    4.7492    2.5416   -1.6372 H   0  0  0  0  0  0  0  0  0  0  0  0
    6.8051    1.4202   -0.7177 H   0  0  0  0  0  0  0  0  0  0  0  0
    4.6476   -2.2279   -0.3147 H   0  0  0  0  0  0  0  0  0  0  0  0
    2.6368   -1.1360   -1.2143 H   0  0  0  0  0  0  0  0  0  0  0  0
    7.7335   -2.9344   -1.4341 H   0  0  0  0  0  0  0  0  0  0  0  0
    7.9986   -1.2720   -2.0760 H   0  0  0  0  0  0  0  0  0  0  0  0
    9.2190   -1.9904   -0.8878 H   0  0  0  0  0  0  0  0  0  0  0  0
    0.3417    0.3323   -0.6216 H   0  0  0  0  0  0  0  0  0  0  0  0
   -3.6299   -1.6788   -0.1908 H   0  0  0  0  0  0  0  0  0  0  0  0
   -6.0865   -1.3683   -0.8803 H   0  0  0  0  0  0  0  0  0  0  0  0
   -7.6171    0.3067    1.2072 H   0  0  0  0  0  0  0  0  0  0  0  0
   -9.0592    1.0687   -0.6715 H   0  0  0  0  0  0  0  0  0  0  0  0
   -8.0228    0.1772   -1.9048 H   0  0  0  0  0  0  0  0  0  0  0  0
   -8.6173   -1.9589   -0.7694 H   0  0  0  0  0  0  0  0  0  0  0  0
   -9.5992   -1.0674    0.5062 H   0  0  0  0  0  0  0  0  0  0  0  0
  1  2  1  0
  2  3  1  0
  3  4  1  0
  4  5  2  0
  4  6  1  0
  6  7  2  0
  7  8  1  0
  8  9  2  0
  9 10  1  0
 10 11  1  0
 11 12  1  0
 12 13  2  0
 13 14  1  0
 14 15  2  0
 15 16  1  0
 16 17  2  0
 15 18  1  0
 18 19  1  0
 18 20  2  0
 18 21  2  0
 10 22  2  0
  2 23  1  0
 23 24  1  0
 24 25  2  0
 24 26  1  0
 26 27  1  0
 27 28  1  0
 28 29  1  0
 22  6  1  0
 29 27  1  0
 17 12  1  0
  1 30  1  0
  1 31  1  0
  1 32  1  0
  2 33  1  0
  3 34  1  0
  7 35  1  0
  8 36  1  0
  9 37  1  0
 11 38  1  0
 11 39  1  0
 13 40  1  0
 14 41  1  0
 16 42  1  0
 17 43  1  0
 19 44  1  0
 19 45  1  0
 19 46  1  0
 22 47  1  0
 23 48  1  0
 26 49  1  0
 27 50  1  0
 28 51  1  0
 28 52  1  0
 29 53  1  0
 29 54  1  0
M  END
$$$$
[H]c1c([H])c(C(=O)N([H])c2c([H])c(C(=O)N([H])C([H])([H])C([H])([H])F)c([H])c([H])c2C([H])([H])[H])c([H])c([H])c1C#Cc1c([H])c(F)c(F)c(F)c1[H]
     RDKit          3D

 51 53  0  0  0  0  0  0  0  0999 V2000
   -1.9284    3.0698    1.6020 C   0  0  0  0  0  0  0  0  0  0  0  0
   -2.9882    2.1019    1.2142 C   0  0  0  0  0  0  0  0  0  0  0  0
   -4.3321    2.3983    1.3970 C   0  0  0  0  0  0  0  0  0  0  0  0
   -5.2978    1.4897    1.0320 C   0  0  0  0  0  0  0  0  0  0  0  0
   -4.9310    0.2945    0.4888 C   0  0  0  0  0  0  0  0  0  0  0  0
   -3.5609    0.0163    0.3131 C   0  0  0  0  0  0  0  0  0  0  0  0
   -2.5647    0.8921    0.6625 C   0  0  0  0  0  0  0  0  0  0  0  0
   -1.1983    0.6335    0.4952 N   0  0  0  0  0  0  0  0  0  0  0  0
   -0.5413   -0.4677   -0.0167 C   0  0  0  0  0  0  0  0  0  0  0  0
   -1.1347   -1.4759   -0.4425 O   0  0  0  0  0  0  0  0  0  0  0  0
    0.9175   -0.5160   -0.0915 C   0  0  0  0  0  0  0  0  0  0  0  0
    1.6858    0.2963    0.7068 C   0  0  0  0  0  0  0  0  0  0  0  0
    3.0758    0.2913    0.6648 C   0  0  0  0  0  0  0  0  0  0  0  0
    3.6997   -0.5579   -0.2071 C   0  0  0  0  0  0  0  0  0  0  0  0
    2.9274   -1.3725   -1.0072 C   0  0  0  0  0  0  0  0  0  0  0  0
    1.5705   -1.3616   -0.9605 C   0  0  0  0  0  0  0  0  0  0  0  0
    5.1368   -0.5850   -0.2727 C   0  0  0  0  0  0  0  0  0  0  0  0
    6.3439   -0.6032   -0.3316 C   0  0  0  0  0  0  0  0  0  0  0  0
    7.7893   -0.6176   -0.4254 C   0  0  0  0  0  0  0  0  0  0  0  0
    8.5474   -1.2737    0.5063 C   0  0  0  0  0  0  0  0  0  0  0  0
    9.9220   -1.2813    0.4079 C   0  0  0  0  0  0  0  0  0  0  0  0
   10.6701   -1.9289    1.3276 F   0  0  0  0  0  0  0  0  0  0  0  0
   10.5784   -0.6256   -0.6363 C   0  0  0  0  0  0  0  0  0  0  0  0
   11.9170   -0.6167   -0.7568 F   0  0  0  0  0  0  0  0  0  0  0  0
    9.8193    0.0340   -1.5733 C   0  0  0  0  0  0  0  0  0  0  0  0
   10.4491    0.6721   -2.5889 F   0  0  0  0  0  0  0  0  0  0  0  0
    8.4438    0.0335   -1.4625 C   0  0  0  0  0  0  0  0  0  0  0  0
   -5.9206   -0.6776    0.0957 C   0  0  0  0  0  0  0  0  0  0  0  0
   -5.5256   -1.7860   -0.3890 O   0  0  0  0  0  0  0  0  0  0  0  0
   -7.3018   -0.4401    0.2305 N   0  0  0  0  0  0  0  0  0  0  0  0
   -8.2510   -1.4797   -0.1926 C   0  0  0  0  0  0  0  0  0  0  0  0
   -9.6373   -0.9852    0.0525 C   0  0  0  0  0  0  0  0  0  0  0  0
   -9.8227    0.1648   -0.6821 F   0  0  0  0  0  0  0  0  0  0  0  0
   -1.3636    3.4544    0.7193 H   0  0  0  0  0  0  0  0  0  0  0  0
   -2.4335    3.9527    2.0448 H   0  0  0  0  0  0  0  0  0  0  0  0
   -1.2555    2.6762    2.3876 H   0  0  0  0  0  0  0  0  0  0  0  0
   -4.6014    3.3625    1.8341 H   0  0  0  0  0  0  0  0  0  0  0  0
   -6.3183    1.8005    1.2089 H   0  0  0  0  0  0  0  0  0  0  0  0
   -3.3428   -0.9336   -0.1158 H   0  0  0  0  0  0  0  0  0  0  0  0
   -0.5371    1.4297    0.8127 H   0  0  0  0  0  0  0  0  0  0  0  0
    1.2772    1.0039    1.4394 H   0  0  0  0  0  0  0  0  0  0  0  0
    3.6791    0.9303    1.2925 H   0  0  0  0  0  0  0  0  0  0  0  0
    3.3860   -2.0602   -1.7119 H   0  0  0  0  0  0  0  0  0  0  0  0
    0.9914   -2.0031   -1.5914 H   0  0  0  0  0  0  0  0  0  0  0  0
    8.0273   -1.7785    1.3114 H   0  0  0  0  0  0  0  0  0  0  0  0
    7.8503    0.5439   -2.1871 H   0  0  0  0  0  0  0  0  0  0  0  0
   -7.6578    0.4539    0.6220 H   0  0  0  0  0  0  0  0  0  0  0  0
   -8.1278   -1.6647   -1.2808 H   0  0  0  0  0  0  0  0  0  0  0  0
   -7.9909   -2.3907    0.3779 H   0  0  0  0  0  0  0  0  0  0  0  0
   -9.7620   -0.7356    1.1452 H   0  0  0  0  0  0  0  0  0  0  0  0
  -10.3777   -1.7772   -0.1838 H   0  0  0  0  0  0  0  0  0  0  0  0
  1  2  1  0
  2  3  2  0
  3  4  1  0
  4  5  2  0
  5  6  1  0
  6  7  2  0
  7  8  1  0
  8  9  1  0
  9 10  2  0
  9 11  1  0
 11 12  2  0
 12 13  1  0
 13 14  2  0
 14 15  1  0
 15 16  2  0
 14 17  1  0
 17 18  3  0
 18 19  1  0
 19 20  2  0
 20 21  1  0
 21 22  1  0
 21 23  2  0
 23 24  1  0
 23 25  1  0
 25 26  1  0
 25 27  2  0
  5 28  1  0
 28 29  2  0
 28 30  1  0
 30 31  1  0
 31 32  1  0
 32 33  1  0
  7  2  1  0
 16 11  1  0
 27 19  1  0
  1 34  1  0
  1 35  1  0
  1 36  1  0
  3 37  1  0
  4 38  1  0
  6 39  1  0
  8 40  1  0
 12 41  1  0
 13 42  1  0
 15 43  1  0
 16 44  1  0
 20 45  1  0
 27 46  1  0
 30 47  1  0
 31 48  1  0
 31 49  1  0
 32 50  1  0
 32 51  1  0
M  END
$$$$
[H]c1c([H])c(Cl)c([H])c(C(=O)N2C([H])([H])C([H])([H])N(C(=O)c3c([H])c([H])c(N4C([H])([H])C([H])([H])N([H])C([H])([H])C4([H])[H])c([H])c3[H])C([H])([H])[C@@]2([H])C([H])([H])[H])c1[H]
     RDKit          3D

 57 60  0  0  0  0  0  0  0  0999 V2000
    2.7220   -1.0413    2.5215 C   0  0  0  0  0  0  0  0  0  0  0  0
    3.4033   -0.0811    1.4979 C   0  0  2  0  0  0  0  0  0  0  0  0
    2.4361    1.0213    1.2264 C   0  0  0  0  0  0  0  0  0  0  0  0
    1.1791    0.4342    0.7013 N   0  0  0  0  0  0  0  0  0  0  0  0
    1.2193   -0.6067   -0.2738 C   0  0  0  0  0  0  0  0  0  0  0  0
    2.3587   -1.5711   -0.1126 C   0  0  0  0  0  0  0  0  0  0  0  0
    3.5706   -0.7851    0.2674 N   0  0  0  0  0  0  0  0  0  0  0  0
    4.6240   -0.8232   -0.6240 C   0  0  0  0  0  0  0  0  0  0  0  0
    4.4762   -1.6502   -1.6505 O   0  0  0  0  0  0  0  0  0  0  0  0
    5.8559   -0.1134   -0.6189 C   0  0  0  0  0  0  0  0  0  0  0  0
    6.1842    0.9698    0.1370 C   0  0  0  0  0  0  0  0  0  0  0  0
    7.4579    1.5777    0.1291 C   0  0  0  0  0  0  0  0  0  0  0  0
    8.4286    1.0506   -0.6899 C   0  0  0  0  0  0  0  0  0  0  0  0
    8.1554   -0.0422   -1.4781 C   0  0  0  0  0  0  0  0  0  0  0  0
    9.3579   -0.7527   -2.5404 Cl  0  0  0  0  0  0  0  0  0  0  0  0
    6.9023   -0.5945   -1.4314 C   0  0  0  0  0  0  0  0  0  0  0  0
   -0.0234    0.9043    1.2639 C   0  0  0  0  0  0  0  0  0  0  0  0
    0.1087    1.6997    2.2712 O   0  0  0  0  0  0  0  0  0  0  0  0
   -1.3676    0.6231    0.8751 C   0  0  0  0  0  0  0  0  0  0  0  0
   -2.4082    0.8035    1.8022 C   0  0  0  0  0  0  0  0  0  0  0  0
   -3.7076    0.6384    1.4483 C   0  0  0  0  0  0  0  0  0  0  0  0
   -4.1191    0.2866    0.1751 C   0  0  0  0  0  0  0  0  0  0  0  0
   -3.1100    0.1103   -0.7357 C   0  0  0  0  0  0  0  0  0  0  0  0
   -1.7841    0.2762   -0.3879 C   0  0  0  0  0  0  0  0  0  0  0  0
   -5.4571    0.1175   -0.1924 N   0  0  0  0  0  0  0  0  0  0  0  0
   -5.8073   -0.3848   -1.4887 C   0  0  0  0  0  0  0  0  0  0  0  0
   -7.1021   -1.1600   -1.3329 C   0  0  0  0  0  0  0  0  0  0  0  0
   -8.1706   -0.4120   -0.7501 N   0  0  0  0  0  0  0  0  0  0  0  0
   -7.7185    0.8194   -0.1397 C   0  0  0  0  0  0  0  0  0  0  0  0
   -6.5176    0.4574    0.7456 C   0  0  0  0  0  0  0  0  0  0  0  0
    1.6500   -1.1303    2.3190 H   0  0  0  0  0  0  0  0  0  0  0  0
    2.9095   -0.6262    3.5174 H   0  0  0  0  0  0  0  0  0  0  0  0
    3.2113   -2.0191    2.4036 H   0  0  0  0  0  0  0  0  0  0  0  0
    4.2917    0.2279    1.9921 H   0  0  0  0  0  0  0  0  0  0  0  0
    2.8377    1.6634    0.4009 H   0  0  0  0  0  0  0  0  0  0  0  0
    2.2228    1.6380    2.0991 H   0  0  0  0  0  0  0  0  0  0  0  0
    1.3045   -0.1760   -1.3008 H   0  0  0  0  0  0  0  0  0  0  0  0
    0.2579   -1.2321   -0.1833 H   0  0  0  0  0  0  0  0  0  0  0  0
    2.5673   -2.1287   -1.0500 H   0  0  0  0  0  0  0  0  0  0  0  0
    2.1084   -2.2612    0.7184 H   0  0  0  0  0  0  0  0  0  0  0  0
    5.4496    1.4451    0.7599 H   0  0  0  0  0  0  0  0  0  0  0  0
    7.6525    2.4446    0.7631 H   0  0  0  0  0  0  0  0  0  0  0  0
    9.4123    1.4736   -0.7345 H   0  0  0  0  0  0  0  0  0  0  0  0
    6.6996   -1.4705   -2.0665 H   0  0  0  0  0  0  0  0  0  0  0  0
   -2.0929    1.0783    2.8089 H   0  0  0  0  0  0  0  0  0  0  0  0
   -4.4981    0.7825    2.1890 H   0  0  0  0  0  0  0  0  0  0  0  0
   -3.3173   -0.1654   -1.7785 H   0  0  0  0  0  0  0  0  0  0  0  0
   -1.0484    0.1649   -1.1985 H   0  0  0  0  0  0  0  0  0  0  0  0
   -5.8923    0.4364   -2.2048 H   0  0  0  0  0  0  0  0  0  0  0  0
   -5.0712   -1.1235   -1.8757 H   0  0  0  0  0  0  0  0  0  0  0  0
   -6.8977   -2.0854   -0.7561 H   0  0  0  0  0  0  0  0  0  0  0  0
   -7.4074   -1.4727   -2.3697 H   0  0  0  0  0  0  0  0  0  0  0  0
   -8.6537   -0.9822   -0.0246 H   0  0  0  0  0  0  0  0  0  0  0  0
   -7.3041    1.4897   -0.9345 H   0  0  0  0  0  0  0  0  0  0  0  0
   -8.5153    1.2901    0.4609 H   0  0  0  0  0  0  0  0  0  0  0  0
   -6.2632    1.3400    1.3786 H   0  0  0  0  0  0  0  0  0  0  0  0
   -6.7602   -0.3730    1.4215 H   0  0  0  0  0  0  0  0  0  0  0  0
  1  2  1  0
  2  3  1  0
  3  4  1  0
  4  5  1  0
  5  6  1  0
  6  7  1  0
  7  8  1  0
  8  9  2  0
  8 10  1  0
 10 11  2  0
 11 12  1  0
 12 13  2  0
 13 14  1  0
 14 15  1  0
 14 16  2  0
  4 17  1  0
 17 18  2  0
 17 19  1  0
 19 20  2  0
 20 21  1  0
 21 22  2  0
 22 23  1  0
 23 24  2  0
 22 25  1  0
 25 26  1  0
 26 27  1  0
 27 28  1  0
 28 29  1  0
 29 30  1  0
  7  2  1  0
 16 10  1  0
 24 19  1  0
 30 25  1  0
  1 31  1  0
  1 32  1  0
  1 33  1  0
  2 34  1  1
  3 35  1  0
  3 36  1  0
  5 37  1  0
  5 38  1  0
  6 39  1  0
  6 40  1  0
 11 41  1  0
 12 42  1  0
 13 43  1  0
 16 44  1  0
 20 45  1  0
 21 46  1  0
 23 47  1  0
 24 48  1  0
 26 49  1  0
 26 50  1  0
 27 51  1  0
 27 52  1  0
 28 53  1  0
 29 54  1  0
 29 55  1  0
 30 56  1  0
 30 57  1  0
M  END
$$$$
[H]N=C(N([H])[H])N([H])C([H])([H])C([H])([H])C([H])([H])[C@@]([H])(C([H])=O)N([H])C(=O)[C@@]([H])(N([H])C(=O)[C@]([H])(N([H])C(=O)[C@@]([H])(N([H])[H])C([H])([H])[H])C([H])([H])C([H])(C([H])([H])[H])C([H])([H])[H])C([H])([H])c1c([H])n([H])c2c([H])c([H])c([H])c([H])c12
     RDKit          3D

 78 79  0  0  0  0  0  0  0  0999 V2000
   -6.8868   -1.6814   -1.5958 C   0  0  0  0  0  0  0  0  0  0  0  0
   -5.6805   -1.8566   -2.4772 C   0  0  2  0  0  0  0  0  0  0  0  0
   -5.9219   -2.9358   -3.4049 N   0  0  0  0  0  0  0  0  0  0  0  0
   -4.4675   -2.0956   -1.6630 C   0  0  0  0  0  0  0  0  0  0  0  0
   -3.8302   -3.1750   -1.8791 O   0  0  0  0  0  0  0  0  0  0  0  0
   -4.0524   -1.1554   -0.6975 N   0  0  0  0  0  0  0  0  0  0  0  0
   -2.8687   -1.3919    0.0817 C   0  0  2  0  0  0  0  0  0  0  0  0
   -2.9193   -1.0668    1.5173 C   0  0  0  0  0  0  0  0  0  0  0  0
   -3.9234   -1.7803    2.3540 C   0  0  0  0  0  0  0  0  0  0  0  0
   -5.3525   -1.5847    1.9761 C   0  0  0  0  0  0  0  0  0  0  0  0
   -3.6222   -3.2788    2.4244 C   0  0  0  0  0  0  0  0  0  0  0  0
   -1.7983   -0.5402   -0.5582 C   0  0  0  0  0  0  0  0  0  0  0  0
   -1.7668   -0.5053   -1.8220 O   0  0  0  0  0  0  0  0  0  0  0  0
   -0.8501    0.2049    0.1565 N   0  0  0  0  0  0  0  0  0  0  0  0
    0.1781    0.9977   -0.4872 C   0  0  1  0  0  0  0  0  0  0  0  0
   -0.2413    2.4300   -0.6209 C   0  0  0  0  0  0  0  0  0  0  0  0
   -0.6083    3.1400    0.5952 C   0  0  0  0  0  0  0  0  0  0  0  0
   -1.9433    3.2461    1.0754 C   0  0  0  0  0  0  0  0  0  0  0  0
   -1.9149    3.9049    2.2253 N   0  0  0  0  0  0  0  0  0  0  0  0
   -0.6276    4.2302    2.5103 C   0  0  0  0  0  0  0  0  0  0  0  0
   -0.0990    4.9116    3.5798 C   0  0  0  0  0  0  0  0  0  0  0  0
    1.2520    5.1288    3.6490 C   0  0  0  0  0  0  0  0  0  0  0  0
    2.1197    4.6847    2.6707 C   0  0  0  0  0  0  0  0  0  0  0  0
    1.5619    4.0031    1.6066 C   0  0  0  0  0  0  0  0  0  0  0  0
    0.2130    3.7603    1.4982 C   0  0  0  0  0  0  0  0  0  0  0  0
    1.5145    0.8149    0.0338 C   0  0  0  0  0  0  0  0  0  0  0  0
    1.7298    0.2840    1.1690 O   0  0  0  0  0  0  0  0  0  0  0  0
    2.7062    1.2061   -0.6789 N   0  0  0  0  0  0  0  0  0  0  0  0
    4.0150    1.0124   -0.1233 C   0  0  1  0  0  0  0  0  0  0  0  0
    4.6556   -0.2531   -0.6627 C   0  0  0  0  0  0  0  0  0  0  0  0
    4.8400   -0.2798   -2.1418 C   0  0  0  0  0  0  0  0  0  0  0  0
    5.4981   -1.6229   -2.4707 C   0  0  0  0  0  0  0  0  0  0  0  0
    6.7676   -1.7265   -1.8020 N   0  0  0  0  0  0  0  0  0  0  0  0
    7.5354   -2.8971   -1.9050 C   0  0  0  0  0  0  0  0  0  0  0  0
    8.3364   -3.3071   -0.8181 N   0  0  0  0  0  0  0  0  0  0  0  0
    7.5111   -3.5946   -2.9773 N   0  0  0  0  0  0  0  0  0  0  0  0
    4.9125    2.1706   -0.2157 C   0  0  0  0  0  0  0  0  0  0  0  0
    4.6175    3.2433   -0.7201 O   0  0  0  0  0  0  0  0  0  0  0  0
   -6.6554   -0.9049   -0.8091 H   0  0  0  0  0  0  0  0  0  0  0  0
   -6.9617   -2.6456   -1.0069 H   0  0  0  0  0  0  0  0  0  0  0  0
   -7.8027   -1.4423   -2.1400 H   0  0  0  0  0  0  0  0  0  0  0  0
   -5.5641   -0.9320   -3.0963 H   0  0  0  0  0  0  0  0  0  0  0  0
   -6.0326   -3.8464   -2.9526 H   0  0  0  0  0  0  0  0  0  0  0  0
   -6.5718   -2.7027   -4.1588 H   0  0  0  0  0  0  0  0  0  0  0  0
   -4.6191   -0.2912   -0.5610 H   0  0  0  0  0  0  0  0  0  0  0  0
   -2.5085   -2.4412   -0.1280 H   0  0  0  0  0  0  0  0  0  0  0  0
   -2.9633    0.0360    1.6247 H   0  0  0  0  0  0  0  0  0  0  0  0
   -1.9117   -1.3641    1.9512 H   0  0  0  0  0  0  0  0  0  0  0  0
   -3.7916   -1.4006    3.3995 H   0  0  0  0  0  0  0  0  0  0  0  0
   -5.5967   -0.5340    1.7819 H   0  0  0  0  0  0  0  0  0  0  0  0
   -5.7100   -2.3016    1.2170 H   0  0  0  0  0  0  0  0  0  0  0  0
   -5.9496   -1.8550    2.9047 H   0  0  0  0  0  0  0  0  0  0  0  0
   -3.8394   -3.7295    1.4316 H   0  0  0  0  0  0  0  0  0  0  0  0
   -2.5570   -3.3836    2.7057 H   0  0  0  0  0  0  0  0  0  0  0  0
   -4.2423   -3.6902    3.2415 H   0  0  0  0  0  0  0  0  0  0  0  0
   -0.8970    0.1859    1.2096 H   0  0  0  0  0  0  0  0  0  0  0  0
    0.1704    0.6110   -1.5654 H   0  0  0  0  0  0  0  0  0  0  0  0
   -1.1111    2.5003   -1.3389 H   0  0  0  0  0  0  0  0  0  0  0  0
    0.5712    3.0129   -1.1395 H   0  0  0  0  0  0  0  0  0  0  0  0
   -2.7959    2.8428    0.5518 H   0  0  0  0  0  0  0  0  0  0  0  0
   -2.7300    4.1536    2.8464 H   0  0  0  0  0  0  0  0  0  0  0  0
   -0.7500    5.2866    4.3840 H   0  0  0  0  0  0  0  0  0  0  0  0
    1.6746    5.6602    4.4840 H   0  0  0  0  0  0  0  0  0  0  0  0
    3.1755    4.8395    2.6947 H   0  0  0  0  0  0  0  0  0  0  0  0
    2.2171    3.6745    0.8251 H   0  0  0  0  0  0  0  0  0  0  0  0
    2.5722    1.6324   -1.6097 H   0  0  0  0  0  0  0  0  0  0  0  0
    3.8381    0.8201    0.9886 H   0  0  0  0  0  0  0  0  0  0  0  0
    3.9467   -1.0864   -0.4099 H   0  0  0  0  0  0  0  0  0  0  0  0
    5.5952   -0.3928   -0.0969 H   0  0  0  0  0  0  0  0  0  0  0  0
    5.4946    0.5115   -2.5341 H   0  0  0  0  0  0  0  0  0  0  0  0
    3.8887   -0.2339   -2.6981 H   0  0  0  0  0  0  0  0  0  0  0  0
    4.8174   -2.4630   -2.1859 H   0  0  0  0  0  0  0  0  0  0  0  0
    5.6911   -1.7226   -3.5576 H   0  0  0  0  0  0  0  0  0  0  0  0
    7.1622   -0.9320   -1.2216 H   0  0  0  0  0  0  0  0  0  0  0  0
    7.9293   -3.7476    0.0579 H   0  0  0  0  0  0  0  0  0  0  0  0
    9.3493   -3.1697   -0.8868 H   0  0  0  0  0  0  0  0  0  0  0  0
    6.9371   -3.3253   -3.7873 H   0  0  0  0  0  0  0  0  0  0  0  0
    5.9412    2.1260    0.1827 H   0  0  0  0  0  0  0  0  0  0  0  0
  1  2  1  0
  2  3  1  0
  2  4  1  0
  4  5  2  0
  4  6  1  0
  6  7  1  0
  7  8  1  0
  8  9  1  0
  9 10  1  0
  9 11  1  0
  7 12  1  0
 12 13  2  0
 12 14  1  0
 14 15  1  0
 15 16  1  0
 16 17  1  0
 17 18  2  0
 18 19  1  0
 19 20  1  0
 20 21  2  0
 21 22  1  0
 22 23  2  0
 23 24  1  0
 24 25  2  0
 15 26  1  0
 26 27  2  0
 26 28  1  0
 28 29  1  0
 29 30  1  0
 30 31  1  0
 31 32  1  0
 32 33  1  0
 33 34  1  0
 34 35  1  0
 34 36  2  3
 29 37  1  0
 37 38  2  0
 25 17  1  0
 25 20  1  0
  1 39  1  0
  1 40  1  0
  1 41  1  0
  2 42  1  6
  3 43  1  0
  3 44  1  0
  6 45  1  0
  7 46  1  1
  8 47  1  0
  8 48  1  0
  9 49  1  0
 10 50  1  0
 10 51  1  0
 10 52  1  0
 11 53  1  0
 11 54  1  0
 11 55  1  0
 14 56  1  0
 15 57  1  6
 16 58  1  0
 16 59  1  0
 18 60  1  0
 19 61  1  0
 21 62  1  0
 22 63  1  0
 23 64  1  0
 24 65  1  0
 28 66  1  0
 29 67  1  1
 30 68  1  0
 30 69  1  0
 31 70  1  0
 31 71  1  0
 32 72  1  0
 32 73  1  0
 33 74  1  0
 35 75  1  0
 35 76  1  0
 36 77  1  0
 37 78  1  0
M  END
$$$$
[H]c1nc2c(c([H])c1[H])c(C([H])([H])N1C([H])([H])C([H])([H])C([H])(N([H])C([H])([H])C([H])([H])N([H])C([H])([H])C([H])([H])c3c([H])n([H])c4c([H])c([H])c(F)c([H])c34)C([H])([H])C1([H])[H])c([H])n2[H]
     RDKit          3D

 63 67  0  0  0  0  0  0  0  0999 V2000
    1.1460   -1.2072    2.1089 C   0  0  0  0  0  0  0  0  0  0  0  0
    1.8765   -0.1167    1.4168 C   0  0  0  0  0  0  0  0  0  0  0  0
    2.7951   -0.5408    0.3967 N   0  0  0  0  0  0  0  0  0  0  0  0
    3.9386   -1.2489    0.9170 C   0  0  0  0  0  0  0  0  0  0  0  0
    4.8083   -1.6113   -0.2963 C   0  0  0  0  0  0  0  0  0  0  0  0
    5.2383   -0.4045   -1.0184 C   0  0  0  0  0  0  0  0  0  0  0  0
    4.7312    0.0595   -2.2142 C   0  0  0  0  0  0  0  0  0  0  0  0
    5.3834    1.1981   -2.5589 N   0  0  0  0  0  0  0  0  0  0  0  0
    6.3102    1.4944   -1.6149 C   0  0  0  0  0  0  0  0  0  0  0  0
    7.2215    2.5221   -1.4849 C   0  0  0  0  0  0  0  0  0  0  0  0
    8.0318    2.5097   -0.3643 C   0  0  0  0  0  0  0  0  0  0  0  0
    7.9466    1.5200    0.5929 C   0  0  0  0  0  0  0  0  0  0  0  0
    8.7576    1.5324    1.6871 F   0  0  0  0  0  0  0  0  0  0  0  0
    7.0325    0.4970    0.4538 C   0  0  0  0  0  0  0  0  0  0  0  0
    6.2149    0.4935   -0.6590 C   0  0  0  0  0  0  0  0  0  0  0  0
    0.3334   -2.0646    1.3676 N   0  0  0  0  0  0  0  0  0  0  0  0
   -0.8635   -1.6990    0.7782 C   0  0  0  0  0  0  0  0  0  0  0  0
   -1.9747   -1.2293    1.6905 C   0  0  0  0  0  0  0  0  0  0  0  0
   -3.2650   -1.3983    0.8740 C   0  0  0  0  0  0  0  0  0  0  0  0
   -3.2172   -0.8297   -0.4090 N   0  0  0  0  0  0  0  0  0  0  0  0
   -3.9782    0.3392   -0.6592 C   0  0  0  0  0  0  0  0  0  0  0  0
   -5.4207    0.0996   -0.5313 C   0  0  0  0  0  0  0  0  0  0  0  0
   -6.0967   -1.0504   -0.2450 C   0  0  0  0  0  0  0  0  0  0  0  0
   -7.4111   -0.7661   -0.2521 N   0  0  0  0  0  0  0  0  0  0  0  0
   -7.6017    0.5238   -0.5328 C   0  0  0  0  0  0  0  0  0  0  0  0
   -8.7363    1.2680   -0.6517 N   0  0  0  0  0  0  0  0  0  0  0  0
   -8.6782    2.5737   -0.9474 C   0  0  0  0  0  0  0  0  0  0  0  0
   -7.4549    3.1752   -1.1345 C   0  0  0  0  0  0  0  0  0  0  0  0
   -6.3012    2.4409   -1.0191 C   0  0  0  0  0  0  0  0  0  0  0  0
   -6.3882    1.0957   -0.7129 C   0  0  0  0  0  0  0  0  0  0  0  0
   -2.0671   -1.0442   -1.2125 C   0  0  0  0  0  0  0  0  0  0  0  0
   -0.8021   -0.7735   -0.3845 C   0  0  0  0  0  0  0  0  0  0  0  0
    1.9108   -1.8242    2.6936 H   0  0  0  0  0  0  0  0  0  0  0  0
    0.5960   -0.6940    2.9666 H   0  0  0  0  0  0  0  0  0  0  0  0
    2.4532    0.4446    2.1980 H   0  0  0  0  0  0  0  0  0  0  0  0
    1.1762    0.6193    1.0050 H   0  0  0  0  0  0  0  0  0  0  0  0
    2.3836   -1.0602   -0.3795 H   0  0  0  0  0  0  0  0  0  0  0  0
    3.6877   -2.2085    1.4013 H   0  0  0  0  0  0  0  0  0  0  0  0
    4.5472   -0.6597    1.6062 H   0  0  0  0  0  0  0  0  0  0  0  0
    4.1986   -2.2743   -0.9382 H   0  0  0  0  0  0  0  0  0  0  0  0
    5.6850   -2.2340    0.0416 H   0  0  0  0  0  0  0  0  0  0  0  0
    3.9391   -0.4187   -2.7788 H   0  0  0  0  0  0  0  0  0  0  0  0
    5.2223    1.7772   -3.4075 H   0  0  0  0  0  0  0  0  0  0  0  0
    7.3004    3.3081   -2.2302 H   0  0  0  0  0  0  0  0  0  0  0  0
    8.7650    3.2987   -0.2177 H   0  0  0  0  0  0  0  0  0  0  0  0
    6.9540   -0.2990    1.2101 H   0  0  0  0  0  0  0  0  0  0  0  0
    0.9169   -2.6130    0.6979 H   0  0  0  0  0  0  0  0  0  0  0  0
   -1.3026   -2.6744    0.3351 H   0  0  0  0  0  0  0  0  0  0  0  0
   -1.9145   -0.1568    1.9387 H   0  0  0  0  0  0  0  0  0  0  0  0
   -2.0879   -1.8201    2.6006 H   0  0  0  0  0  0  0  0  0  0  0  0
   -4.0815   -0.9322    1.4637 H   0  0  0  0  0  0  0  0  0  0  0  0
   -3.4513   -2.5002    0.7680 H   0  0  0  0  0  0  0  0  0  0  0  0
   -3.6706    1.2127   -0.0308 H   0  0  0  0  0  0  0  0  0  0  0  0
   -3.8264    0.7075   -1.7149 H   0  0  0  0  0  0  0  0  0  0  0  0
   -5.6497   -2.0269   -0.0499 H   0  0  0  0  0  0  0  0  0  0  0  0
   -8.1607   -1.4473   -0.0675 H   0  0  0  0  0  0  0  0  0  0  0  0
   -9.5817    3.1677   -1.0430 H   0  0  0  0  0  0  0  0  0  0  0  0
   -7.3907    4.2175   -1.3708 H   0  0  0  0  0  0  0  0  0  0  0  0
   -5.3131    2.8622   -1.1566 H   0  0  0  0  0  0  0  0  0  0  0  0
   -2.0430   -0.3361   -2.0428 H   0  0  0  0  0  0  0  0  0  0  0  0
   -2.0105   -2.1005   -1.5097 H   0  0  0  0  0  0  0  0  0  0  0  0
    0.0741   -0.9861   -0.9917 H   0  0  0  0  0  0  0  0  0  0  0  0
   -0.8351    0.2925   -0.0389 H   0  0  0  0  0  0  0  0  0  0  0  0
  1  2  1  0
  2  3  1  0
  3  4  1  0
  4  5  1  0
  5  6  1  0
  6  7  2  0
  7  8  1  0
  8  9  1  0
  9 10  2  0
 10 11  1  0
 11 12  2  0
 12 13  1  0
 12 14  1  0
 14 15  2  0
  1 16  1  0
 16 17  1  0
 17 18  1  0
 18 19  1  0
 19 20  1  0
 20 21  1  0
 21 22  1  0
 22 23  2  0
 23 24  1  0
 24 25  1  0
 25 26  2  0
 26 27  1  0
 27 28  2  0
 28 29  1  0
 29 30  2  0
 20 31  1  0
 31 32  1  0
 15  6  1  0
 32 17  1  0
 15  9  1  0
 30 22  1  0
 30 25  1  0
  1 33  1  0
  1 34  1  0
  2 35  1  0
  2 36  1  0
  3 37  1  0
  4 38  1  0
  4 39  1  0
  5 40  1  0
  5 41  1  0
  7 42  1  0
  8 43  1  0
 10 44  1  0
 11 45  1  0
 14 46  1  0
 16 47  1  0
 17 48  1  0
 18 49  1  0
 18 50  1  0
 19 51  1  0
 19 52  1  0
 21 53  1  0
 21 54  1  0
 23 55  1  0
 24 56  1  0
 27 57  1  0
 28 58  1  0
 29 59  1  0
 31 60  1  0
 31 61  1  0
 32 62  1  0
 32 63  1  0
M  END
$$$$
[H]OC(=O)C([H])([H])C(=O)N([H])C([H])([H])C([H])([H])C([H])([H])C([H])(C(=O)N([H])c1c([H])nc([H])c([H])c1C([H])([H])[H])N([H])S(=O)(=O)C([H])([H])[H]
     RDKit          3D

 48 48  0  0  0  0  0  0  0  0999 V2000
    0.6338   -0.7387    4.8251 C   0  0  0  0  0  0  0  0  0  0  0  0
    1.2897   -1.7849    3.5523 S   0  0  0  0  0  0  0  0  0  0  0  0
    1.4047   -3.1744    4.1204 O   0  0  0  0  0  0  0  0  0  0  0  0
    2.6626   -1.3178    3.2184 O   0  0  0  0  0  0  0  0  0  0  0  0
    0.2601   -1.8103    2.1547 N   0  0  0  0  0  0  0  0  0  0  0  0
    0.1350   -0.5161    1.5801 C   0  0  0  0  0  0  0  0  0  0  0  0
    0.6520   -0.4532    0.1565 C   0  0  0  0  0  0  0  0  0  0  0  0
   -0.0876   -1.3922   -0.7448 C   0  0  0  0  0  0  0  0  0  0  0  0
    0.4420   -1.3106   -2.1458 C   0  0  0  0  0  0  0  0  0  0  0  0
    1.8478   -1.6591   -2.2236 N   0  0  0  0  0  0  0  0  0  0  0  0
    2.4910   -1.6242   -3.4913 C   0  0  0  0  0  0  0  0  0  0  0  0
    1.8510   -1.2958   -4.5303 O   0  0  0  0  0  0  0  0  0  0  0  0
    3.9314   -1.9847   -3.5495 C   0  0  0  0  0  0  0  0  0  0  0  0
    4.4755   -1.9073   -4.9080 C   0  0  0  0  0  0  0  0  0  0  0  0
    3.7659   -1.5458   -6.0376 O   0  0  0  0  0  0  0  0  0  0  0  0
    5.7032   -2.1986   -5.0498 O   0  0  0  0  0  0  0  0  0  0  0  0
   -1.2710   -0.0060    1.5447 C   0  0  0  0  0  0  0  0  0  0  0  0
   -2.1087   -0.7947    2.0199 O   0  0  0  0  0  0  0  0  0  0  0  0
   -1.6070    1.2436    1.0238 N   0  0  0  0  0  0  0  0  0  0  0  0
   -2.8558    1.8396    0.9267 C   0  0  0  0  0  0  0  0  0  0  0  0
   -4.0463    1.2867    1.3388 C   0  0  0  0  0  0  0  0  0  0  0  0
   -5.2402    1.9444    1.2051 N   0  0  0  0  0  0  0  0  0  0  0  0
   -5.3286    3.1643    0.6667 C   0  0  0  0  0  0  0  0  0  0  0  0
   -4.1763    3.7748    0.2338 C   0  0  0  0  0  0  0  0  0  0  0  0
   -2.9734    3.1237    0.3634 C   0  0  0  0  0  0  0  0  0  0  0  0
   -1.7226    3.7656   -0.0964 C   0  0  0  0  0  0  0  0  0  0  0  0
    0.5899    0.3291    4.4722 H   0  0  0  0  0  0  0  0  0  0  0  0
    1.3662   -0.7451    5.6526 H   0  0  0  0  0  0  0  0  0  0  0  0
   -0.3184   -1.0943    5.2302 H   0  0  0  0  0  0  0  0  0  0  0  0
    0.6303   -2.5379    1.5315 H   0  0  0  0  0  0  0  0  0  0  0  0
    0.7308    0.2057    2.1730 H   0  0  0  0  0  0  0  0  0  0  0  0
    1.7357   -0.6901    0.1125 H   0  0  0  0  0  0  0  0  0  0  0  0
    0.5568    0.5695   -0.2604 H   0  0  0  0  0  0  0  0  0  0  0  0
   -1.1660   -1.2111   -0.7417 H   0  0  0  0  0  0  0  0  0  0  0  0
    0.0478   -2.4652   -0.4212 H   0  0  0  0  0  0  0  0  0  0  0  0
    0.3614   -0.2482   -2.5129 H   0  0  0  0  0  0  0  0  0  0  0  0
   -0.1472   -1.9273   -2.8456 H   0  0  0  0  0  0  0  0  0  0  0  0
    2.3653   -1.9285   -1.3663 H   0  0  0  0  0  0  0  0  0  0  0  0
    4.0612   -3.0233   -3.1846 H   0  0  0  0  0  0  0  0  0  0  0  0
    4.5377   -1.3445   -2.8452 H   0  0  0  0  0  0  0  0  0  0  0  0
    4.1393   -0.7925   -6.6198 H   0  0  0  0  0  0  0  0  0  0  0  0
   -0.7762    1.8066    0.6531 H   0  0  0  0  0  0  0  0  0  0  0  0
   -4.0752    0.3034    1.7866 H   0  0  0  0  0  0  0  0  0  0  0  0
   -6.3056    3.6546    0.5787 H   0  0  0  0  0  0  0  0  0  0  0  0
   -4.2123    4.7596   -0.2056 H   0  0  0  0  0  0  0  0  0  0  0  0
   -1.2593    3.0989   -0.8547 H   0  0  0  0  0  0  0  0  0  0  0  0
   -1.0046    3.9137    0.7483 H   0  0  0  0  0  0  0  0  0  0  0  0
   -1.9857    4.7387   -0.5534 H   0  0  0  0  0  0  0  0  0  0  0  0
  1  2  1  0
  2  3  2  0
  2  4  2  0
  2  5  1  0
  5  6  1  0
  6  7  1  0
  7  8  1  0
  8  9  1  0
  9 10  1  0
 10 11  1  0
 11 12  2  0
 11 13  1  0
 13 14  1  0
 14 15  1  0
 14 16  2  0
  6 17  1  0
 17 18  2  0
 17 19  1  0
 19 20  1  0
 20 21  2  0
 21 22  1  0
 22 23  2  0
 23 24  1  0
 24 25  2  0
 25 26  1  0
 25 20  1  0
  1 27  1  0
  1 28  1  0
  1 29  1  0
  5 30  1  0
  6 31  1  0
  7 32  1  0
  7 33  1  0
  8 34  1  0
  8 35  1  0
  9 36  1  0
  9 37  1  0
 10 38  1  0
 13 39  1  0
 13 40  1  0
 15 41  1  0
 19 42  1  0
 21 43  1  0
 23 44  1  0
 24 45  1  0
 26 46  1  0
 26 47  1  0
 26 48  1  0
M  END
$$$$
[H]c1nc(N([H])C(=O)N2C([H])([H])C([H])([H])C3([H])N([H])C(=O)[C@]([H])(C([H])([H])[H])OC(=O)[C@@]([H])(C2([H])[H])C3([H])[H])c(C(F)(F)F)c([H])c1[H]
     RDKit          3D

 47 49  0  0  0  0  0  0  0  0999 V2000
    4.6319    2.2332   -0.1204 C   0  0  0  0  0  0  0  0  0  0  0  0
    3.3729    1.7335   -0.7899 C   0  0  2  0  0  0  0  0  0  0  0  0
    2.2484    1.8527    0.0443 O   0  0  0  0  0  0  0  0  0  0  0  0
    1.8001    1.2597    1.1832 C   0  0  0  0  0  0  0  0  0  0  0  0
    1.0569    2.0540    1.8465 O   0  0  0  0  0  0  0  0  0  0  0  0
    1.9125   -0.0210    1.8829 C   0  0  2  0  0  0  0  0  0  0  0  0
    2.9212   -0.9644    1.3908 C   0  0  0  0  0  0  0  0  0  0  0  0
    2.7581   -1.6468    0.1067 C   0  0  0  0  0  0  0  0  0  0  0  0
    1.4706   -2.3775   -0.1054 C   0  0  0  0  0  0  0  0  0  0  0  0
    0.2777   -1.4905   -0.3234 C   0  0  0  0  0  0  0  0  0  0  0  0
   -0.1480   -0.8424    0.9044 N   0  0  0  0  0  0  0  0  0  0  0  0
    0.5928   -0.7178    2.1134 C   0  0  0  0  0  0  0  0  0  0  0  0
   -1.4423   -0.2576    0.9345 C   0  0  0  0  0  0  0  0  0  0  0  0
   -1.8480    0.3135    2.0026 O   0  0  0  0  0  0  0  0  0  0  0  0
   -2.2879   -0.3050   -0.2188 N   0  0  0  0  0  0  0  0  0  0  0  0
   -3.5649    0.2728   -0.1992 C   0  0  0  0  0  0  0  0  0  0  0  0
   -4.0006    0.8954    0.9177 N   0  0  0  0  0  0  0  0  0  0  0  0
   -5.2021    1.4800    1.0154 C   0  0  0  0  0  0  0  0  0  0  0  0
   -6.0480    1.4529   -0.0715 C   0  0  0  0  0  0  0  0  0  0  0  0
   -5.6234    0.8273   -1.2094 C   0  0  0  0  0  0  0  0  0  0  0  0
   -4.3703    0.2240   -1.2939 C   0  0  0  0  0  0  0  0  0  0  0  0
   -4.0113   -0.4322   -2.5596 C   0  0  0  0  0  0  0  0  0  0  0  0
   -3.7940   -1.7796   -2.3120 F   0  0  0  0  0  0  0  0  0  0  0  0
   -2.9115    0.1459   -3.1635 F   0  0  0  0  0  0  0  0  0  0  0  0
   -5.0439   -0.3492   -3.4712 F   0  0  0  0  0  0  0  0  0  0  0  0
    3.0720   -0.8903   -1.0775 N   0  0  0  0  0  0  0  0  0  0  0  0
    3.5229    0.4083   -1.4043 C   0  0  0  0  0  0  0  0  0  0  0  0
    4.2192    0.4571   -2.4722 O   0  0  0  0  0  0  0  0  0  0  0  0
    5.3395    2.6640   -0.8531 H   0  0  0  0  0  0  0  0  0  0  0  0
    5.1493    1.3648    0.3468 H   0  0  0  0  0  0  0  0  0  0  0  0
    4.3842    3.0086    0.6239 H   0  0  0  0  0  0  0  0  0  0  0  0
    3.1896    2.4522   -1.6440 H   0  0  0  0  0  0  0  0  0  0  0  0
    2.2455    0.2584    2.9351 H   0  0  0  0  0  0  0  0  0  0  0  0
    3.9154   -0.4410    1.3752 H   0  0  0  0  0  0  0  0  0  0  0  0
    3.0567   -1.7566    2.1873 H   0  0  0  0  0  0  0  0  0  0  0  0
    3.5413   -2.4767    0.1050 H   0  0  0  0  0  0  0  0  0  0  0  0
    1.2239   -3.0803    0.6997 H   0  0  0  0  0  0  0  0  0  0  0  0
    1.5915   -2.9883   -1.0316 H   0  0  0  0  0  0  0  0  0  0  0  0
    0.3744   -0.7964   -1.1784 H   0  0  0  0  0  0  0  0  0  0  0  0
   -0.5620   -2.1852   -0.6016 H   0  0  0  0  0  0  0  0  0  0  0  0
    0.0133   -0.2662    2.9384 H   0  0  0  0  0  0  0  0  0  0  0  0
    0.8559   -1.7539    2.4757 H   0  0  0  0  0  0  0  0  0  0  0  0
   -1.9375   -0.7719   -1.0698 H   0  0  0  0  0  0  0  0  0  0  0  0
   -5.5437    1.9741    1.9071 H   0  0  0  0  0  0  0  0  0  0  0  0
   -7.0437    1.9196   -0.0377 H   0  0  0  0  0  0  0  0  0  0  0  0
   -6.2809    0.8022   -2.0647 H   0  0  0  0  0  0  0  0  0  0  0  0
    2.9262   -1.4633   -1.9377 H   0  0  0  0  0  0  0  0  0  0  0  0
  1  2  1  0
  2  3  1  0
  3  4  1  0
  4  5  2  0
  4  6  1  0
  6  7  1  0
  7  8  1  0
  8  9  1  0
  9 10  1  0
 10 11  1  0
 11 12  1  0
 11 13  1  0
 13 14  2  0
 13 15  1  0
 15 16  1  0
 16 17  2  0
 17 18  1  0
 18 19  2  0
 19 20  1  0
 20 21  2  0
 21 22  1  0
 22 23  1  0
 22 24  1  0
 22 25  1  0
  8 26  1  0
 26 27  1  0
 27 28  2  0
 27  2  1  0
 12  6  1  0
 21 16  1  0
  1 29  1  0
  1 30  1  0
  1 31  1  0
  2 32  1  6
  6 33  1  1
  7 34  1  0
  7 35  1  0
  8 36  1  0
  9 37  1  0
  9 38  1  0
 10 39  1  0
 10 40  1  0
 12 41  1  0
 12 42  1  0
 15 43  1  0
 18 44  1  0
 19 45  1  0
 20 46  1  0
 26 47  1  0
M  END
$$$$
[H]c1c([H])c([H])c(C2=NC([H])([H])C([H])(C(=O)N([H])C([H])([H])C([H])([H])C([H])([H])C([H])([H])[H])C([H])([H])c3c2c([H])c([H])c([H])c3C([H])([H])c2c([H])c([H])c(-c3c([H])c([H])c([H])c([H])c3[H])c([H])c2[H])c([H])c1[H]
     RDKit          3D

 71 75  0  0  0  0  0  0  0  0999 V2000
   -5.2985   -5.2205   -0.9311 C   0  0  0  0  0  0  0  0  0  0  0  0
   -5.9259   -4.7528    0.3708 C   0  0  0  0  0  0  0  0  0  0  0  0
   -5.4061   -3.3422    0.6703 C   0  0  0  0  0  0  0  0  0  0  0  0
   -3.9171   -3.3447    0.7837 C   0  0  0  0  0  0  0  0  0  0  0  0
   -3.3895   -2.0595    1.0788 N   0  0  0  0  0  0  0  0  0  0  0  0
   -3.5852   -0.9408    0.2394 C   0  0  0  0  0  0  0  0  0  0  0  0
   -4.2432   -1.0297   -0.8075 O   0  0  0  0  0  0  0  0  0  0  0  0
   -2.9970    0.4223    0.5653 C   0  0  0  0  0  0  0  0  0  0  0  0
   -3.6142    1.4378   -0.2866 C   0  0  0  0  0  0  0  0  0  0  0  0
   -3.2586    2.8167    0.0599 N   0  0  0  0  0  0  0  0  0  0  0  0
   -2.0107    3.3123    0.0130 C   0  0  0  0  0  0  0  0  0  0  0  0
   -1.8110    4.6711    0.3843 C   0  0  0  0  0  0  0  0  0  0  0  0
   -0.6462    5.3765    0.5404 C   0  0  0  0  0  0  0  0  0  0  0  0
   -0.6668    6.7196    0.8350 C   0  0  0  0  0  0  0  0  0  0  0  0
   -1.8316    7.4415    0.9945 C   0  0  0  0  0  0  0  0  0  0  0  0
   -3.0172    6.7317    0.8392 C   0  0  0  0  0  0  0  0  0  0  0  0
   -3.0179    5.4063    0.5478 C   0  0  0  0  0  0  0  0  0  0  0  0
   -0.9485    2.4653   -0.5270 C   0  0  0  0  0  0  0  0  0  0  0  0
   -0.1893    3.2256   -1.4206 C   0  0  0  0  0  0  0  0  0  0  0  0
    0.8318    2.5767   -2.0727 C   0  0  0  0  0  0  0  0  0  0  0  0
    1.0789    1.2470   -1.8455 C   0  0  0  0  0  0  0  0  0  0  0  0
    0.3269    0.4628   -0.9501 C   0  0  0  0  0  0  0  0  0  0  0  0
    0.7607   -0.9262   -0.7039 C   0  0  0  0  0  0  0  0  0  0  0  0
    2.1968   -1.0510   -0.3194 C   0  0  0  0  0  0  0  0  0  0  0  0
    3.0194   -1.5146   -1.3522 C   0  0  0  0  0  0  0  0  0  0  0  0
    4.3531   -1.6834   -1.1301 C   0  0  0  0  0  0  0  0  0  0  0  0
    4.9703   -1.4134    0.1017 C   0  0  0  0  0  0  0  0  0  0  0  0
    4.1446   -0.9601    1.0970 C   0  0  0  0  0  0  0  0  0  0  0  0
    2.7664   -0.7823    0.8805 C   0  0  0  0  0  0  0  0  0  0  0  0
    6.4080   -1.6273    0.2274 C   0  0  0  0  0  0  0  0  0  0  0  0
    7.2398   -1.4374   -0.8857 C   0  0  0  0  0  0  0  0  0  0  0  0
    8.6065   -1.6493   -0.8299 C   0  0  0  0  0  0  0  0  0  0  0  0
    9.1970   -2.0608    0.3417 C   0  0  0  0  0  0  0  0  0  0  0  0
    8.3839   -2.2484    1.4379 C   0  0  0  0  0  0  0  0  0  0  0  0
    6.9977   -2.0347    1.3896 C   0  0  0  0  0  0  0  0  0  0  0  0
   -0.7007    1.1256   -0.2985 C   0  0  0  0  0  0  0  0  0  0  0  0
   -1.5097    0.2355    0.5631 C   0  0  0  0  0  0  0  0  0  0  0  0
   -4.4853   -5.9472   -0.6891 H   0  0  0  0  0  0  0  0  0  0  0  0
   -4.9701   -4.3378   -1.4837 H   0  0  0  0  0  0  0  0  0  0  0  0
   -6.0662   -5.7642   -1.5260 H   0  0  0  0  0  0  0  0  0  0  0  0
   -7.0193   -4.6965    0.2597 H   0  0  0  0  0  0  0  0  0  0  0  0
   -5.6449   -5.4036    1.2135 H   0  0  0  0  0  0  0  0  0  0  0  0
   -5.8600   -3.0185    1.6337 H   0  0  0  0  0  0  0  0  0  0  0  0
   -5.8049   -2.7117   -0.1321 H   0  0  0  0  0  0  0  0  0  0  0  0
   -3.6187   -4.0466    1.6266 H   0  0  0  0  0  0  0  0  0  0  0  0
   -3.4364   -3.8208   -0.1093 H   0  0  0  0  0  0  0  0  0  0  0  0
   -2.8134   -1.9195    1.9883 H   0  0  0  0  0  0  0  0  0  0  0  0
   -3.2858    0.5874    1.6332 H   0  0  0  0  0  0  0  0  0  0  0  0
   -4.7011    1.4094   -0.3224 H   0  0  0  0  0  0  0  0  0  0  0  0
   -3.2647    1.2511   -1.3404 H   0  0  0  0  0  0  0  0  0  0  0  0
    0.2877    4.8464    0.4662 H   0  0  0  0  0  0  0  0  0  0  0  0
    0.2470    7.2995    0.9676 H   0  0  0  0  0  0  0  0  0  0  0  0
   -1.9066    8.4806    1.2252 H   0  0  0  0  0  0  0  0  0  0  0  0
   -3.9897    7.2391    0.9495 H   0  0  0  0  0  0  0  0  0  0  0  0
   -3.9610    4.9135    0.4334 H   0  0  0  0  0  0  0  0  0  0  0  0
   -0.4318    4.2489   -1.5993 H   0  0  0  0  0  0  0  0  0  0  0  0
    1.4323    3.1693   -2.7731 H   0  0  0  0  0  0  0  0  0  0  0  0
    1.8973    0.7276   -2.3680 H   0  0  0  0  0  0  0  0  0  0  0  0
    0.2446   -1.4060    0.1840 H   0  0  0  0  0  0  0  0  0  0  0  0
    0.5154   -1.5058   -1.6243 H   0  0  0  0  0  0  0  0  0  0  0  0
    2.5733   -1.7339   -2.3192 H   0  0  0  0  0  0  0  0  0  0  0  0
    5.0118   -2.0498   -1.9208 H   0  0  0  0  0  0  0  0  0  0  0  0
    4.5634   -0.7352    2.0653 H   0  0  0  0  0  0  0  0  0  0  0  0
    2.1351   -0.4269    1.6768 H   0  0  0  0  0  0  0  0  0  0  0  0
    6.7703   -1.1121   -1.7958 H   0  0  0  0  0  0  0  0  0  0  0  0
    9.2314   -1.4954   -1.7192 H   0  0  0  0  0  0  0  0  0  0  0  0
   10.2707   -2.2272    0.3803 H   0  0  0  0  0  0  0  0  0  0  0  0
    8.8762   -2.5749    2.3456 H   0  0  0  0  0  0  0  0  0  0  0  0
    6.3989   -2.1985    2.2887 H   0  0  0  0  0  0  0  0  0  0  0  0
   -1.1079    0.1520    1.5758 H   0  0  0  0  0  0  0  0  0  0  0  0
   -1.3842   -0.7881    0.0746 H   0  0  0  0  0  0  0  0  0  0  0  0
  1  2  1  0
  2  3  1  0
  3  4  1  0
  4  5  1  0
  5  6  1  0
  6  7  2  0
  6  8  1  0
  8  9  1  0
  9 10  1  0
 10 11  2  0
 11 12  1  0
 12 13  2  0
 13 14  1  0
 14 15  2  0
 15 16  1  0
 16 17  2  0
 11 18  1  0
 18 19  2  0
 19 20  1  0
 20 21  2  0
 21 22  1  0
 22 23  1  0
 23 24  1  0
 24 25  2  0
 25 26  1  0
 26 27  2  0
 27 28  1  0
 28 29  2  0
 27 30  1  0
 30 31  2  0
 31 32  1  0
 32 33  2  0
 33 34  1  0
 34 35  2  0
 22 36  2  0
 36 37  1  0
 37  8  1  0
 17 12  1  0
 36 18  1  0
 29 24  1  0
 35 30  1  0
  1 38  1  0
  1 39  1  0
  1 40  1  0
  2 41  1  0
  2 42  1  0
  3 43  1  0
  3 44  1  0
  4 45  1  0
  4 46  1  0
  5 47  1  0
  8 48  1  0
  9 49  1  0
  9 50  1  0
 13 51  1  0
 14 52  1  0
 15 53  1  0
 16 54  1  0
 17 55  1  0
 19 56  1  0
 20 57  1  0
 21 58  1  0
 23 59  1  0
 23 60  1  0
 25 61  1  0
 26 62  1  0
 28 63  1  0
 29 64  1  0
 31 65  1  0
 32 66  1  0
 33 67  1  0
 34 68  1  0
 35 69  1  0
 37 70  1  0
 37 71  1  0
M  END
$$$$
[H]c1nn2c(nc([H])n2C(=O)C([H])([H])[H])c1C#CC([H])([H])N(C([H])([H])C1([H])C([H])([H])C([H])([H])C([H])([H])C([H])([H])C1([H])[H])C1([H])C([H])([H])N([H])C([H])([H])C([H])([H])C1([H])[H]
     RDKit          3D

 58 61  0  0  0  0  0  0  0  0999 V2000
    8.5371    0.2699    1.2900 C   0  0  0  0  0  0  0  0  0  0  0  0
    8.0753    0.5228   -0.1117 C   0  0  0  0  0  0  0  0  0  0  0  0
    8.9035    0.5610   -1.0280 O   0  0  0  0  0  0  0  0  0  0  0  0
    6.6784    0.7067   -0.2933 N   0  0  0  0  0  0  0  0  0  0  0  0
    6.0921    0.9419   -1.4853 C   0  0  0  0  0  0  0  0  0  0  0  0
    4.7641    1.0654   -1.3366 N   0  0  0  0  0  0  0  0  0  0  0  0
    4.5156    0.9042   -0.0240 C   0  0  0  0  0  0  0  0  0  0  0  0
    3.5060    0.8790    0.9111 C   0  0  0  0  0  0  0  0  0  0  0  0
    4.1376    0.6386    2.1106 C   0  0  0  0  0  0  0  0  0  0  0  0
    5.4815    0.5260    1.8814 N   0  0  0  0  0  0  0  0  0  0  0  0
    5.7099    0.6857    0.5936 N   0  0  0  0  0  0  0  0  0  0  0  0
    2.1048    1.0529    0.6801 C   0  0  0  0  0  0  0  0  0  0  0  0
    0.9007    1.1756    0.4674 C   0  0  0  0  0  0  0  0  0  0  0  0
   -0.5369    1.3516    0.1919 C   0  0  0  0  0  0  0  0  0  0  0  0
   -1.0054    0.3144   -0.6111 N   0  0  0  0  0  0  0  0  0  0  0  0
   -2.2910    0.3344   -1.1532 C   0  0  0  0  0  0  0  0  0  0  0  0
   -3.4912    0.1894   -0.2840 C   0  0  0  0  0  0  0  0  0  0  0  0
   -4.7018    0.2334   -1.2445 C   0  0  0  0  0  0  0  0  0  0  0  0
   -5.0969    1.6798   -1.4244 C   0  0  0  0  0  0  0  0  0  0  0  0
   -5.6905    2.2390   -0.1432 C   0  0  0  0  0  0  0  0  0  0  0  0
   -5.1481    1.4558    1.0366 C   0  0  0  0  0  0  0  0  0  0  0  0
   -3.6503    1.2052    0.7981 C   0  0  0  0  0  0  0  0  0  0  0  0
   -0.3876   -0.9658   -0.4594 C   0  0  0  0  0  0  0  0  0  0  0  0
   -0.6391   -1.4718    0.9236 C   0  0  0  0  0  0  0  0  0  0  0  0
   -0.8524   -2.9609    1.0273 C   0  0  0  0  0  0  0  0  0  0  0  0
   -1.7157   -3.5555   -0.0252 C   0  0  0  0  0  0  0  0  0  0  0  0
   -1.7924   -2.8401   -1.2561 N   0  0  0  0  0  0  0  0  0  0  0  0
   -0.6890   -1.9725   -1.5282 C   0  0  0  0  0  0  0  0  0  0  0  0
    8.0349    1.0030    1.9440 H   0  0  0  0  0  0  0  0  0  0  0  0
    9.6298    0.4524    1.3878 H   0  0  0  0  0  0  0  0  0  0  0  0
    8.2878   -0.7549    1.5698 H   0  0  0  0  0  0  0  0  0  0  0  0
    6.6294    1.0165   -2.4117 H   0  0  0  0  0  0  0  0  0  0  0  0
    3.6943    0.5473    3.0774 H   0  0  0  0  0  0  0  0  0  0  0  0
   -1.0904    1.4527    1.1611 H   0  0  0  0  0  0  0  0  0  0  0  0
   -0.6652    2.3294   -0.3580 H   0  0  0  0  0  0  0  0  0  0  0  0
   -2.3931    1.2842   -1.7950 H   0  0  0  0  0  0  0  0  0  0  0  0
   -2.3965   -0.4596   -1.9509 H   0  0  0  0  0  0  0  0  0  0  0  0
   -3.5370   -0.8215    0.2034 H   0  0  0  0  0  0  0  0  0  0  0  0
   -4.3671   -0.2064   -2.1910 H   0  0  0  0  0  0  0  0  0  0  0  0
   -5.4934   -0.3683   -0.7790 H   0  0  0  0  0  0  0  0  0  0  0  0
   -5.8412    1.7347   -2.2281 H   0  0  0  0  0  0  0  0  0  0  0  0
   -4.1631    2.2492   -1.6915 H   0  0  0  0  0  0  0  0  0  0  0  0
   -5.3224    3.2606   -0.0536 H   0  0  0  0  0  0  0  0  0  0  0  0
   -6.7862    2.2094   -0.2107 H   0  0  0  0  0  0  0  0  0  0  0  0
   -5.3092    1.9838    1.9927 H   0  0  0  0  0  0  0  0  0  0  0  0
   -5.6556    0.4786    1.0675 H   0  0  0  0  0  0  0  0  0  0  0  0
   -3.2547    2.2122    0.5456 H   0  0  0  0  0  0  0  0  0  0  0  0
   -3.2864    0.7871    1.7457 H   0  0  0  0  0  0  0  0  0  0  0  0
    0.7231   -0.7799   -0.5403 H   0  0  0  0  0  0  0  0  0  0  0  0
    0.2481   -1.2621    1.5839 H   0  0  0  0  0  0  0  0  0  0  0  0
   -1.4694   -0.9226    1.4043 H   0  0  0  0  0  0  0  0  0  0  0  0
    0.1294   -3.4824    1.1651 H   0  0  0  0  0  0  0  0  0  0  0  0
   -1.3942   -3.1088    2.0105 H   0  0  0  0  0  0  0  0  0  0  0  0
   -2.7830   -3.7045    0.3182 H   0  0  0  0  0  0  0  0  0  0  0  0
   -1.3638   -4.6154   -0.2036 H   0  0  0  0  0  0  0  0  0  0  0  0
   -1.9031   -3.4770   -2.0586 H   0  0  0  0  0  0  0  0  0  0  0  0
    0.2029   -2.6699   -1.6723 H   0  0  0  0  0  0  0  0  0  0  0  0
   -0.8227   -1.5339   -2.5365 H   0  0  0  0  0  0  0  0  0  0  0  0
  1  2  1  0
  2  3  2  0
  2  4  1  0
  4  5  1  0
  5  6  2  0
  6  7  1  0
  7  8  2  0
  8  9  1  0
  9 10  2  0
 10 11  1  0
  8 12  1  0
 12 13  3  0
 13 14  1  0
 14 15  1  0
 15 16  1  0
 16 17  1  0
 17 18  1  0
 18 19  1  0
 19 20  1  0
 20 21  1  0
 21 22  1  0
 15 23  1  0
 23 24  1  0
 24 25  1  0
 25 26  1  0
 26 27  1  0
 27 28  1  0
 11  4  1  0
 22 17  1  0
 28 23  1  0
 11  7  1  0
  1 29  1  0
  1 30  1  0
  1 31  1  0
  5 32  1  0
  9 33  1  0
 14 34  1  0
 14 35  1  0
 16 36  1  0
 16 37  1  0
 17 38  1  0
 18 39  1  0
 18 40  1  0
 19 41  1  0
 19 42  1  0
 20 43  1  0
 20 44  1  0
 21 45  1  0
 21 46  1  0
 22 47  1  0
 22 48  1  0
 23 49  1  0
 24 50  1  0
 24 51  1  0
 25 52  1  0
 25 53  1  0
 26 54  1  0
 26 55  1  0
 27 56  1  0
 28 57  1  0
 28 58  1  0
M  END
$$$$
[H]N=C(N([H])[H])N([H])C([H])([H])C([H])([H])C([H])([H])[C@@]([H])(C(=O)N([H])C([H])([H])C(=O)O[H])N([H])C(=O)[C@@]([H])(N([H])C(=O)[C@@]([H])(N([H])C(=O)OC([H])([H])c1c([H])c([H])c([H])c([H])c1[H])C([H])([H])c1c([H])c([H])c(O[H])c([H])c1[H])C([H])([H])c1c([H])c([H])n([H])c(=O)c1[H]
     RDKit          3D

 90 92  0  0  0  0  0  0  0  0999 V2000
   -9.6011    0.4352    0.4288 N   0  0  0  0  0  0  0  0  0  0  0  0
   -8.9457   -0.7056   -0.1108 C   0  0  0  0  0  0  0  0  0  0  0  0
   -9.4519   -1.8692    0.1107 N   0  0  0  0  0  0  0  0  0  0  0  0
   -7.7599   -0.6258   -0.8775 N   0  0  0  0  0  0  0  0  0  0  0  0
   -6.4505   -0.9320   -0.3224 C   0  0  0  0  0  0  0  0  0  0  0  0
   -6.1407    0.1345    0.6827 C   0  0  0  0  0  0  0  0  0  0  0  0
   -4.8235    0.0455    1.3481 C   0  0  0  0  0  0  0  0  0  0  0  0
   -3.6090    0.1405    0.5393 C   0  0  2  0  0  0  0  0  0  0  0  0
   -2.4440    0.0015    1.4758 N   0  0  0  0  0  0  0  0  0  0  0  0
   -1.2196   -0.4645    1.0032 C   0  0  0  0  0  0  0  0  0  0  0  0
   -1.2718   -0.7426   -0.2962 O   0  0  0  0  0  0  0  0  0  0  0  0
    0.0582   -0.7015    1.6198 C   0  0  2  0  0  0  0  0  0  0  0  0
    0.7863    0.4662    2.2588 C   0  0  0  0  0  0  0  0  0  0  0  0
    0.0576    1.1084    3.3635 C   0  0  0  0  0  0  0  0  0  0  0  0
   -0.5958    2.3120    3.2586 C   0  0  0  0  0  0  0  0  0  0  0  0
   -1.2791    2.8467    4.3322 C   0  0  0  0  0  0  0  0  0  0  0  0
   -1.3391    2.2176    5.5328 N   0  0  0  0  0  0  0  0  0  0  0  0
   -0.7153    1.0472    5.6693 C   0  0  0  0  0  0  0  0  0  0  0  0
   -0.7622    0.4538    6.7733 O   0  0  0  0  0  0  0  0  0  0  0  0
   -0.0169    0.4726    4.6178 C   0  0  0  0  0  0  0  0  0  0  0  0
    0.9384   -1.3197    0.6419 N   0  0  0  0  0  0  0  0  0  0  0  0
    2.2600   -1.1116    0.3131 C   0  0  0  0  0  0  0  0  0  0  0  0
    2.9829   -0.2525    0.8439 O   0  0  0  0  0  0  0  0  0  0  0  0
    2.8858   -1.9745   -0.7644 C   0  0  2  0  0  0  0  0  0  0  0  0
    3.7067   -3.0528   -0.0935 C   0  0  0  0  0  0  0  0  0  0  0  0
    4.3492   -3.9944   -1.0318 C   0  0  0  0  0  0  0  0  0  0  0  0
    5.6248   -3.8402   -1.4576 C   0  0  0  0  0  0  0  0  0  0  0  0
    6.2036   -4.7263   -2.3328 C   0  0  0  0  0  0  0  0  0  0  0  0
    5.4832   -5.7931   -2.7914 C   0  0  0  0  0  0  0  0  0  0  0  0
    6.0262   -6.7058   -3.6711 O   0  0  0  0  0  0  0  0  0  0  0  0
    4.1554   -5.9976   -2.3792 C   0  0  0  0  0  0  0  0  0  0  0  0
    3.6217   -5.0932   -1.5094 C   0  0  0  0  0  0  0  0  0  0  0  0
    3.6264   -1.2587   -1.7282 N   0  0  0  0  0  0  0  0  0  0  0  0
    4.7562   -0.4320   -1.6121 C   0  0  0  0  0  0  0  0  0  0  0  0
    5.3260   -0.2021   -0.5282 O   0  0  0  0  0  0  0  0  0  0  0  0
    5.3164    0.2007   -2.7357 O   0  0  0  0  0  0  0  0  0  0  0  0
    6.4356    1.0389   -2.5554 C   0  0  0  0  0  0  0  0  0  0  0  0
    6.0469    2.1633   -1.6275 C   0  0  0  0  0  0  0  0  0  0  0  0
    4.7259    2.5652   -1.6074 C   0  0  0  0  0  0  0  0  0  0  0  0
    4.3512    3.5914   -0.7426 C   0  0  0  0  0  0  0  0  0  0  0  0
    5.2833    4.1798    0.0635 C   0  0  0  0  0  0  0  0  0  0  0  0
    6.6091    3.7700    0.0357 C   0  0  0  0  0  0  0  0  0  0  0  0
    6.9614    2.7572   -0.8221 C   0  0  0  0  0  0  0  0  0  0  0  0
   -3.3420    1.4254   -0.1508 C   0  0  0  0  0  0  0  0  0  0  0  0
   -2.3936    2.1453    0.2042 O   0  0  0  0  0  0  0  0  0  0  0  0
   -4.1111    1.9309   -1.2464 N   0  0  0  0  0  0  0  0  0  0  0  0
   -3.7687    3.2032   -1.8620 C   0  0  0  0  0  0  0  0  0  0  0  0
   -4.6576    3.5414   -2.9733 C   0  0  0  0  0  0  0  0  0  0  0  0
   -4.5635    4.6871   -3.7244 O   0  0  0  0  0  0  0  0  0  0  0  0
   -5.5778    2.7149   -3.2581 O   0  0  0  0  0  0  0  0  0  0  0  0
   -9.7658    0.5036    1.4647 H   0  0  0  0  0  0  0  0  0  0  0  0
   -9.9476    1.2484   -0.1390 H   0  0  0  0  0  0  0  0  0  0  0  0
  -10.3065   -2.0559    0.6549 H   0  0  0  0  0  0  0  0  0  0  0  0
   -7.8791   -0.3309   -1.8754 H   0  0  0  0  0  0  0  0  0  0  0  0
   -6.5431   -1.9357    0.1342 H   0  0  0  0  0  0  0  0  0  0  0  0
   -5.7014   -1.0143   -1.1387 H   0  0  0  0  0  0  0  0  0  0  0  0
   -6.3203    1.1595    0.2909 H   0  0  0  0  0  0  0  0  0  0  0  0
   -6.9188    0.0362    1.4967 H   0  0  0  0  0  0  0  0  0  0  0  0
   -4.7515   -0.8931    1.9765 H   0  0  0  0  0  0  0  0  0  0  0  0
   -4.7958    0.8682    2.1214 H   0  0  0  0  0  0  0  0  0  0  0  0
   -3.5181   -0.6496   -0.2074 H   0  0  0  0  0  0  0  0  0  0  0  0
   -2.6056    0.2425    2.4553 H   0  0  0  0  0  0  0  0  0  0  0  0
   -0.0522   -1.4030    2.5139 H   0  0  0  0  0  0  0  0  0  0  0  0
    1.1522    1.1852    1.5103 H   0  0  0  0  0  0  0  0  0  0  0  0
    1.7175    0.0392    2.7605 H   0  0  0  0  0  0  0  0  0  0  0  0
   -0.5522    2.8222    2.3152 H   0  0  0  0  0  0  0  0  0  0  0  0
   -1.7970    3.7913    4.2669 H   0  0  0  0  0  0  0  0  0  0  0  0
   -1.8734    2.6588    6.3287 H   0  0  0  0  0  0  0  0  0  0  0  0
    0.4819   -0.4771    4.7429 H   0  0  0  0  0  0  0  0  0  0  0  0
    0.4228   -2.0911    0.0826 H   0  0  0  0  0  0  0  0  0  0  0  0
    2.0428   -2.5271   -1.2755 H   0  0  0  0  0  0  0  0  0  0  0  0
    4.5219   -2.5817    0.5058 H   0  0  0  0  0  0  0  0  0  0  0  0
    3.0801   -3.6102    0.6558 H   0  0  0  0  0  0  0  0  0  0  0  0
    6.2677   -3.0182   -1.1219 H   0  0  0  0  0  0  0  0  0  0  0  0
    7.2427   -4.5859   -2.6687 H   0  0  0  0  0  0  0  0  0  0  0  0
    6.9705   -6.6162   -3.9986 H   0  0  0  0  0  0  0  0  0  0  0  0
    3.6143   -6.8490   -2.7577 H   0  0  0  0  0  0  0  0  0  0  0  0
    2.6015   -5.2054   -1.1600 H   0  0  0  0  0  0  0  0  0  0  0  0
    3.2806   -1.3401   -2.7780 H   0  0  0  0  0  0  0  0  0  0  0  0
    6.7416    1.5133   -3.5077 H   0  0  0  0  0  0  0  0  0  0  0  0
    7.2583    0.4647   -2.1380 H   0  0  0  0  0  0  0  0  0  0  0  0
    4.0234    2.0814   -2.2537 H   0  0  0  0  0  0  0  0  0  0  0  0
    3.3267    3.8908   -0.7372 H   0  0  0  0  0  0  0  0  0  0  0  0
    4.9773    4.9857    0.7375 H   0  0  0  0  0  0  0  0  0  0  0  0
    7.3451    4.2374    0.6749 H   0  0  0  0  0  0  0  0  0  0  0  0
    8.0029    2.4255   -0.8552 H   0  0  0  0  0  0  0  0  0  0  0  0
   -4.9014    1.3713   -1.5860 H   0  0  0  0  0  0  0  0  0  0  0  0
   -3.9810    3.9665   -1.0531 H   0  0  0  0  0  0  0  0  0  0  0  0
   -2.6808    3.2219   -2.1052 H   0  0  0  0  0  0  0  0  0  0  0  0
   -3.9184    4.6704   -4.5250 H   0  0  0  0  0  0  0  0  0  0  0  0
  1  2  1  0
  2  3  2  3
  2  4  1  0
  4  5  1  0
  5  6  1  0
  6  7  1  0
  7  8  1  0
  8  9  1  0
  9 10  1  0
 10 11  2  0
 10 12  1  0
 12 13  1  0
 13 14  1  0
 14 15  1  0
 15 16  2  0
 16 17  1  0
 17 18  1  0
 18 19  2  0
 18 20  1  0
 12 21  1  0
 21 22  1  0
 22 23  2  0
 22 24  1  0
 24 25  1  0
 25 26  1  0
 26 27  2  0
 27 28  1  0
 28 29  2  0
 29 30  1  0
 29 31  1  0
 31 32  2  0
 24 33  1  0
 33 34  1  0
 34 35  2  0
 34 36  1  0
 36 37  1  0
 37 38  1  0
 38 39  2  0
 39 40  1  0
 40 41  2  0
 41 42  1  0
 42 43  2  0
  8 44  1  0
 44 45  2  0
 44 46  1  0
 46 47  1  0
 47 48  1  0
 48 49  1  0
 48 50  2  0
 20 14  2  0
 32 26  1  0
 43 38  1  0
  1 51  1  0
  1 52  1  0
  3 53  1  0
  4 54  1  0
  5 55  1  0
  5 56  1  0
  6 57  1  0
  6 58  1  0
  7 59  1  0
  7 60  1  0
  8 61  1  6
  9 62  1  0
 12 63  1  1
 13 64  1  0
 13 65  1  0
 15 66  1  0
 16 67  1  0
 17 68  1  0
 20 69  1  0
 21 70  1  0
 24 71  1  6
 25 72  1  0
 25 73  1  0
 27 74  1  0
 28 75  1  0
 30 76  1  0
 31 77  1  0
 32 78  1  0
 33 79  1  0
 37 80  1  0
 37 81  1  0
 39 82  1  0
 40 83  1  0
 41 84  1  0
 42 85  1  0
 43 86  1  0
 46 87  1  0
 47 88  1  0
 47 89  1  0
 49 90  1  0
M  END
$$$$
[H]c1c([H])c([H])c(C([H])([H])[C@@]2([H])C(=O)C([H])(C([H])([H])C([H])([H])OC([H])([H])[H])N=C(N([H])[C@]3([H])C([H])([H])C([H])([H])C([H])([H])C([H])([H])N([H])C(=O)[C@@]3([H])c3c([H])c([H])c([H])c([H])c3[H])C(=O)N([H])[C@]([H])(C([H])([H])c3c([H])c([H])c(F)c([H])c3[H])C(=O)N2[H])c([H])c1[H]
     RDKit          3D

 90 94  0  0  0  0  0  0  0  0999 V2000
   -1.7727   -5.2999   -1.1085 C   0  0  0  0  0  0  0  0  0  0  0  0
   -0.9895   -4.2035   -0.8555 O   0  0  0  0  0  0  0  0  0  0  0  0
   -0.6966   -3.4239   -1.9579 C   0  0  0  0  0  0  0  0  0  0  0  0
    0.1338   -2.2588   -1.7067 C   0  0  0  0  0  0  0  0  0  0  0  0
   -0.3911   -1.1418   -0.7954 C   0  0  0  0  0  0  0  0  0  0  0  0
    0.5749   -0.1452   -0.7229 N   0  0  0  0  0  0  0  0  0  0  0  0
    1.1303    0.8917   -0.4167 C   0  0  0  0  0  0  0  0  0  0  0  0
    2.4742    1.0945   -0.9897 N   0  0  0  0  0  0  0  0  0  0  0  0
    3.6882    0.9414   -0.2914 C   0  0  2  0  0  0  0  0  0  0  0  0
    4.9190    1.2297   -1.0979 C   0  0  0  0  0  0  0  0  0  0  0  0
    4.7690    1.2332   -2.5660 C   0  0  0  0  0  0  0  0  0  0  0  0
    4.5010   -0.1096   -3.1818 C   0  0  0  0  0  0  0  0  0  0  0  0
    5.4853   -1.1577   -2.7747 C   0  0  0  0  0  0  0  0  0  0  0  0
    5.0483   -1.8090   -1.5840 N   0  0  0  0  0  0  0  0  0  0  0  0
    4.5623   -1.4131   -0.3112 C   0  0  0  0  0  0  0  0  0  0  0  0
    4.9769   -2.2584    0.5661 O   0  0  0  0  0  0  0  0  0  0  0  0
    3.7583   -0.3930    0.3795 C   0  0  1  0  0  0  0  0  0  0  0  0
    4.1662   -0.2960    1.8065 C   0  0  0  0  0  0  0  0  0  0  0  0
    5.2637    0.3810    2.2657 C   0  0  0  0  0  0  0  0  0  0  0  0
    5.5891    0.4409    3.6082 C   0  0  0  0  0  0  0  0  0  0  0  0
    4.7953   -0.1959    4.5320 C   0  0  0  0  0  0  0  0  0  0  0  0
    3.6738   -0.8916    4.0928 C   0  0  0  0  0  0  0  0  0  0  0  0
    3.3820   -0.9284    2.7465 C   0  0  0  0  0  0  0  0  0  0  0  0
    0.6517    1.9759    0.4422 C   0  0  0  0  0  0  0  0  0  0  0  0
    1.5163    2.5162    1.2432 O   0  0  0  0  0  0  0  0  0  0  0  0
   -0.6254    2.5583    0.5583 N   0  0  0  0  0  0  0  0  0  0  0  0
   -1.9185    1.9647    0.7815 C   0  0  2  0  0  0  0  0  0  0  0  0
   -3.0330    3.0272    0.8627 C   0  0  0  0  0  0  0  0  0  0  0  0
   -3.2254    3.8221   -0.3169 C   0  0  0  0  0  0  0  0  0  0  0  0
   -4.0288    3.3010   -1.3368 C   0  0  0  0  0  0  0  0  0  0  0  0
   -4.2703    4.0421   -2.4786 C   0  0  0  0  0  0  0  0  0  0  0  0
   -3.7392    5.2998   -2.6530 C   0  0  0  0  0  0  0  0  0  0  0  0
   -3.9916    6.0227   -3.7950 F   0  0  0  0  0  0  0  0  0  0  0  0
   -2.9471    5.8221   -1.6541 C   0  0  0  0  0  0  0  0  0  0  0  0
   -2.7187    5.0660   -0.5238 C   0  0  0  0  0  0  0  0  0  0  0  0
   -2.0632    1.0401    1.8978 C   0  0  0  0  0  0  0  0  0  0  0  0
   -2.5263    1.5955    2.9785 O   0  0  0  0  0  0  0  0  0  0  0  0
   -1.7957   -0.3138    2.0081 N   0  0  0  0  0  0  0  0  0  0  0  0
   -1.9819   -1.4434    1.1614 C   0  0  1  0  0  0  0  0  0  0  0  0
   -3.1322   -1.5175    0.2492 C   0  0  0  0  0  0  0  0  0  0  0  0
   -4.4791   -1.5211    0.9117 C   0  0  0  0  0  0  0  0  0  0  0  0
   -5.0275   -2.6605    1.4289 C   0  0  0  0  0  0  0  0  0  0  0  0
   -6.2811   -2.6345    1.9963 C   0  0  0  0  0  0  0  0  0  0  0  0
   -7.0020   -1.4707    2.0545 C   0  0  0  0  0  0  0  0  0  0  0  0
   -6.4731   -0.3133    1.5420 C   0  0  0  0  0  0  0  0  0  0  0  0
   -5.2044   -0.3765    0.9752 C   0  0  0  0  0  0  0  0  0  0  0  0
   -0.7220   -1.7453    0.4988 C   0  0  0  0  0  0  0  0  0  0  0  0
    0.0702   -2.5004    1.0198 O   0  0  0  0  0  0  0  0  0  0  0  0
   -2.7403   -4.9784   -1.5267 H   0  0  0  0  0  0  0  0  0  0  0  0
   -2.0021   -5.7520   -0.0992 H   0  0  0  0  0  0  0  0  0  0  0  0
   -1.2604   -6.0848   -1.7022 H   0  0  0  0  0  0  0  0  0  0  0  0
   -0.1158   -4.1145   -2.6461 H   0  0  0  0  0  0  0  0  0  0  0  0
   -1.6207   -3.2157   -2.5629 H   0  0  0  0  0  0  0  0  0  0  0  0
    1.1020   -2.5689   -1.2027 H   0  0  0  0  0  0  0  0  0  0  0  0
    0.5097   -1.7673   -2.6554 H   0  0  0  0  0  0  0  0  0  0  0  0
   -1.3517   -0.8475   -1.2813 H   0  0  0  0  0  0  0  0  0  0  0  0
    2.4007    1.3793   -2.0103 H   0  0  0  0  0  0  0  0  0  0  0  0
    3.6468    1.6852    0.5725 H   0  0  0  0  0  0  0  0  0  0  0  0
    5.2733    2.2632   -0.8080 H   0  0  0  0  0  0  0  0  0  0  0  0
    5.7085    0.5474   -0.7963 H   0  0  0  0  0  0  0  0  0  0  0  0
    5.7778    1.5452   -2.9777 H   0  0  0  0  0  0  0  0  0  0  0  0
    4.0748    1.9843   -2.9759 H   0  0  0  0  0  0  0  0  0  0  0  0
    3.4839   -0.5016   -2.9902 H   0  0  0  0  0  0  0  0  0  0  0  0
    4.5593    0.0253   -4.2979 H   0  0  0  0  0  0  0  0  0  0  0  0
    6.5323   -0.7883   -2.7414 H   0  0  0  0  0  0  0  0  0  0  0  0
    5.5059   -1.9308   -3.6024 H   0  0  0  0  0  0  0  0  0  0  0  0
    5.0866   -2.8552   -1.6317 H   0  0  0  0  0  0  0  0  0  0  0  0
    2.7054   -0.8074    0.3916 H   0  0  0  0  0  0  0  0  0  0  0  0
    5.8954    0.8861    1.5497 H   0  0  0  0  0  0  0  0  0  0  0  0
    6.4720    0.9943    3.9162 H   0  0  0  0  0  0  0  0  0  0  0  0
    5.0160   -0.1711    5.5939 H   0  0  0  0  0  0  0  0  0  0  0  0
    3.0660   -1.3855    4.8525 H   0  0  0  0  0  0  0  0  0  0  0  0
    2.4845   -1.4936    2.4668 H   0  0  0  0  0  0  0  0  0  0  0  0
   -0.7457    3.6331    0.4941 H   0  0  0  0  0  0  0  0  0  0  0  0
   -2.1668    1.4460   -0.2000 H   0  0  0  0  0  0  0  0  0  0  0  0
   -3.9455    2.5684    1.2932 H   0  0  0  0  0  0  0  0  0  0  0  0
   -2.6631    3.6744    1.7387 H   0  0  0  0  0  0  0  0  0  0  0  0
   -4.4699    2.3289   -1.2588 H   0  0  0  0  0  0  0  0  0  0  0  0
   -4.8927    3.6477   -3.2780 H   0  0  0  0  0  0  0  0  0  0  0  0
   -2.5192    6.7995   -1.7595 H   0  0  0  0  0  0  0  0  0  0  0  0
   -2.0861    5.5378    0.2471 H   0  0  0  0  0  0  0  0  0  0  0  0
   -1.3322   -0.5635    2.9567 H   0  0  0  0  0  0  0  0  0  0  0  0
   -2.1418   -2.3825    1.8537 H   0  0  0  0  0  0  0  0  0  0  0  0
   -3.1393   -2.4835   -0.2908 H   0  0  0  0  0  0  0  0  0  0  0  0
   -3.1301   -0.7422   -0.5623 H   0  0  0  0  0  0  0  0  0  0  0  0
   -4.4590   -3.5709    1.3800 H   0  0  0  0  0  0  0  0  0  0  0  0
   -6.7258   -3.5250    2.4069 H   0  0  0  0  0  0  0  0  0  0  0  0
   -8.0033   -1.4262    2.5013 H   0  0  0  0  0  0  0  0  0  0  0  0
   -7.0304    0.6111    1.5810 H   0  0  0  0  0  0  0  0  0  0  0  0
   -4.8518    0.5559    0.5725 H   0  0  0  0  0  0  0  0  0  0  0  0
  1  2  1  0
  2  3  1  0
  3  4  1  0
  4  5  1  0
  5  6  1  0
  6  7  2  0
  7  8  1  0
  8  9  1  0
  9 10  1  0
 10 11  1  0
 11 12  1  0
 12 13  1  0
 13 14  1  0
 14 15  1  0
 15 16  2  0
 15 17  1  0
 17 18  1  0
 18 19  2  0
 19 20  1  0
 20 21  2  0
 21 22  1  0
 22 23  2  0
  7 24  1  0
 24 25  2  0
 24 26  1  0
 26 27  1  0
 27 28  1  0
 28 29  1  0
 29 30  2  0
 30 31  1  0
 31 32  2  0
 32 33  1  0
 32 34  1  0
 34 35  2  0
 27 36  1  0
 36 37  2  0
 36 38  1  0
 38 39  1  0
 39 40  1  0
 40 41  1  0
 41 42  2  0
 42 43  1  0
 43 44  2  0
 44 45  1  0
 45 46  2  0
 39 47  1  0
 47 48  2  0
 47  5  1  0
 17  9  1  0
 23 18  1  0
 35 29  1  0
 46 41  1  0
  1 49  1  0
  1 50  1  0
  1 51  1  0
  3 52  1  0
  3 53  1  0
  4 54  1  0
  4 55  1  0
  5 56  1  0
  8 57  1  0
  9 58  1  1
 10 59  1  0
 10 60  1  0
 11 61  1  0
 11 62  1  0
 12 63  1  0
 12 64  1  0
 13 65  1  0
 13 66  1  0
 14 67  1  0
 17 68  1  1
 19 69  1  0
 20 70  1  0
 21 71  1  0
 22 72  1  0
 23 73  1  0
 26 74  1  0
 27 75  1  6
 28 76  1  0
 28 77  1  0
 30 78  1  0
 31 79  1  0
 34 80  1  0
 35 81  1  0
 38 82  1  0
 39 83  1  1
 40 84  1  0
 40 85  1  0
 42 86  1  0
 43 87  1  0
 44 88  1  0
 45 89  1  0
 46 90  1  0
M  END
$$$$
[H]On1c(=O)oc2c([H])c(-c3c([H])c([H])c([N+](=O)[O-])c([H])c3[H])c([H])c([H])c21
     RDKit          3D

 28 30  0  0  0  0  0  0  0  0999 V2000
   -5.4839    0.0022   -0.2246 O   0  0  0  0  0  0  0  0  0  0  0  0
   -4.3509   -0.5112   -0.7974 N   0  0  0  0  0  0  0  0  0  0  0  0
   -4.2174   -1.3607   -1.8243 C   0  0  0  0  0  0  0  0  0  0  0  0
   -5.2231   -1.8360   -2.4477 O   0  0  0  0  0  0  0  0  0  0  0  0
   -2.9447   -1.5892   -2.0445 O   0  0  0  0  0  0  0  0  0  0  0  0
   -2.2063   -0.9094   -1.1845 C   0  0  0  0  0  0  0  0  0  0  0  0
   -0.8445   -0.8104   -1.0025 C   0  0  0  0  0  0  0  0  0  0  0  0
   -0.3160   -0.0173   -0.0143 C   0  0  0  0  0  0  0  0  0  0  0  0
   -1.2251    0.6751    0.7865 C   0  0  0  0  0  0  0  0  0  0  0  0
   -2.5870    0.5885    0.6194 C   0  0  0  0  0  0  0  0  0  0  0  0
   -3.1002   -0.2157   -0.3815 C   0  0  0  0  0  0  0  0  0  0  0  0
    1.1204    0.1113    0.2066 C   0  0  0  0  0  0  0  0  0  0  0  0
    1.6131    0.3390    1.4756 C   0  0  0  0  0  0  0  0  0  0  0  0
    2.9687    0.4622    1.6960 C   0  0  0  0  0  0  0  0  0  0  0  0
    3.9040    0.3660    0.6697 C   0  0  0  0  0  0  0  0  0  0  0  0
    3.4028    0.1386   -0.5940 C   0  0  0  0  0  0  0  0  0  0  0  0
    2.0453    0.0154   -0.8131 C   0  0  0  0  0  0  0  0  0  0  0  0
    5.2916    0.4939    0.9055 N   0  0  0  0  0  0  0  0  0  0  0  0
    6.1421    0.3859   -0.1647 O   0  0  0  0  0  0  0  0  0  0  0  0
    5.7870    0.6983    2.0241 O   0  0  0  0  0  0  0  0  0  0  0  0
   -5.5375    0.9592    0.0372 H   0  0  0  0  0  0  0  0  0  0  0  0
   -0.1733   -1.3579   -1.6376 H   0  0  0  0  0  0  0  0  0  0  0  0
   -0.8085    1.2968    1.5614 H   0  0  0  0  0  0  0  0  0  0  0  0
   -3.3012    1.1153    1.2274 H   0  0  0  0  0  0  0  0  0  0  0  0
    0.8996    0.4179    2.2954 H   0  0  0  0  0  0  0  0  0  0  0  0
    3.3344    0.6419    2.7075 H   0  0  0  0  0  0  0  0  0  0  0  0
    4.1372    0.0646   -1.3915 H   0  0  0  0  0  0  0  0  0  0  0  0
    1.6733   -0.1642   -1.8190 H   0  0  0  0  0  0  0  0  0  0  0  0
  1  2  1  0
  2  3  1  0
  3  4  2  0
  3  5  1  0
  5  6  1  0
  6  7  2  0
  7  8  1  0
  8  9  2  0
  9 10  1  0
 10 11  2  0
  8 12  1  0
 12 13  2  0
 13 14  1  0
 14 15  2  0
 15 16  1  0
 16 17  2  0
 15 18  1  0
 18 19  1  0
 18 20  2  0
 11  2  1  0
 17 12  1  0
 11  6  1  0
  1 21  1  0
  7 22  1  0
  9 23  1  0
 10 24  1  0
 13 25  1  0
 14 26  1  0
 16 27  1  0
 17 28  1  0
M  CHG  2  18   1  19  -1
M  END
$$$$
[H]O[C@@]1([H])[C@@]2([H])C([H])([H])C([H])([H])[C@]([H])(C(=O)N([H])C(C([H])([H])[H])(C([H])([H])[H])C([H])([H])[H])C([H])([H])C([H])([H])[C@@]12[H]
     RDKit          3D

 39 40  0  0  0  0  0  0  0  0999 V2000
    3.6578    1.2649   -0.1412 C   0  0  0  0  0  0  0  0  0  0  0  0
    3.2208   -0.1649    0.1075 C   0  0  0  0  0  0  0  0  0  0  0  0
    3.1014   -0.9349   -1.1878 C   0  0  0  0  0  0  0  0  0  0  0  0
    4.2445   -0.8522    0.9702 C   0  0  0  0  0  0  0  0  0  0  0  0
    1.9265   -0.1208    0.7428 N   0  0  0  0  0  0  0  0  0  0  0  0
    0.8478    0.4972    0.0613 C   0  0  0  0  0  0  0  0  0  0  0  0
    1.0136    1.0001   -1.0797 O   0  0  0  0  0  0  0  0  0  0  0  0
   -0.5178    0.5851    0.6457 C   0  0  1  0  0  0  0  0  0  0  0  0
   -1.4800    1.2916   -0.2855 C   0  0  0  0  0  0  0  0  0  0  0  0
   -2.0084    0.4576   -1.3655 C   0  0  0  0  0  0  0  0  0  0  0  0
   -3.1753   -0.4002   -1.1341 C   0  0  1  0  0  0  0  0  0  0  0  0
   -3.3542   -1.0486    0.1465 C   0  0  1  0  0  0  0  0  0  0  0  0
   -2.5299   -0.6028    1.2902 C   0  0  0  0  0  0  0  0  0  0  0  0
   -1.0366   -0.7594    1.0390 C   0  0  0  0  0  0  0  0  0  0  0  0
   -4.3954   -0.0344   -0.4173 C   0  0  1  0  0  0  0  0  0  0  0  0
   -4.5595    1.0791    0.3546 O   0  0  0  0  0  0  0  0  0  0  0  0
    3.7476    1.4706   -1.2230 H   0  0  0  0  0  0  0  0  0  0  0  0
    4.6293    1.4661    0.3643 H   0  0  0  0  0  0  0  0  0  0  0  0
    2.9401    2.0007    0.2746 H   0  0  0  0  0  0  0  0  0  0  0  0
    4.0487   -1.5008   -1.4217 H   0  0  0  0  0  0  0  0  0  0  0  0
    2.3125   -1.7188   -1.1367 H   0  0  0  0  0  0  0  0  0  0  0  0
    2.9376   -0.2573   -2.0564 H   0  0  0  0  0  0  0  0  0  0  0  0
    4.0310   -1.9195    1.0985 H   0  0  0  0  0  0  0  0  0  0  0  0
    5.2204   -0.7731    0.4316 H   0  0  0  0  0  0  0  0  0  0  0  0
    4.3839   -0.3477    1.9460 H   0  0  0  0  0  0  0  0  0  0  0  0
    1.8341   -0.5482    1.6854 H   0  0  0  0  0  0  0  0  0  0  0  0
   -0.4270    1.2032    1.5652 H   0  0  0  0  0  0  0  0  0  0  0  0
   -2.2263    1.8512    0.3073 H   0  0  0  0  0  0  0  0  0  0  0  0
   -0.8502    2.1072   -0.7619 H   0  0  0  0  0  0  0  0  0  0  0  0
   -2.2320    1.1236   -2.2524 H   0  0  0  0  0  0  0  0  0  0  0  0
   -1.1645   -0.1930   -1.7438 H   0  0  0  0  0  0  0  0  0  0  0  0
   -3.3605   -1.0699   -2.0359 H   0  0  0  0  0  0  0  0  0  0  0  0
   -3.7187   -2.1169    0.1862 H   0  0  0  0  0  0  0  0  0  0  0  0
   -2.7458   -1.2721    2.1708 H   0  0  0  0  0  0  0  0  0  0  0  0
   -2.7998    0.4104    1.6284 H   0  0  0  0  0  0  0  0  0  0  0  0
   -0.5047   -1.1013    1.9403 H   0  0  0  0  0  0  0  0  0  0  0  0
   -0.8574   -1.4465    0.1659 H   0  0  0  0  0  0  0  0  0  0  0  0
   -5.3781   -0.5040   -0.7194 H   0  0  0  0  0  0  0  0  0  0  0  0
   -4.7755    1.8785   -0.1854 H   0  0  0  0  0  0  0  0  0  0  0  0
  1  2  1  0
  2  3  1  0
  2  4  1  0
  2  5  1  0
  5  6  1  0
  6  7  2  0
  6  8  1  0
  8  9  1  0
  9 10  1  0
 10 11  1  0
 11 12  1  0
 12 13  1  0
 13 14  1  0
 12 15  1  0
 15 16  1  0
 14  8  1  0
 15 11  1  0
  1 17  1  0
  1 18  1  0
  1 19  1  0
  3 20  1  0
  3 21  1  0
  3 22  1  0
  4 23  1  0
  4 24  1  0
  4 25  1  0
  5 26  1  0
  8 27  1  1
  9 28  1  0
  9 29  1  0
 10 30  1  0
 10 31  1  0
 11 32  1  6
 12 33  1  6
 13 34  1  0
 13 35  1  0
 14 36  1  0
 14 37  1  0
 15 38  1  6
 16 39  1  0
M  END
$$$$
[H]c1c(C([H])([H])n2nc([H])c3c([H])c(N([H])[H])c(OC([H])([H])[H])c([H])c32)c([H])c2c([H])c(C(=O)N([H])C([H])([H])[C@@]3([H])C(=O)N(C([H])([H])[H])C([H])([H])C([H])([H])C3([H])[H])oc2c1[H]
     RDKit          3D

 61 65  0  0  0  0  0  0  0  0999 V2000
   -7.1996   -1.2225    3.8116 C   0  0  0  0  0  0  0  0  0  0  0  0
   -7.7537   -1.0530    2.4928 O   0  0  0  0  0  0  0  0  0  0  0  0
   -7.1511   -0.4388    1.4528 C   0  0  0  0  0  0  0  0  0  0  0  0
   -5.9148    0.1417    1.5609 C   0  0  0  0  0  0  0  0  0  0  0  0
   -5.3413    0.7971    0.4494 C   0  0  0  0  0  0  0  0  0  0  0  0
   -4.2269    1.5326    0.3152 N   0  0  0  0  0  0  0  0  0  0  0  0
   -3.0944    1.6951    1.2219 C   0  0  0  0  0  0  0  0  0  0  0  0
   -1.8682    1.1704    0.6071 C   0  0  0  0  0  0  0  0  0  0  0  0
   -0.8914    2.1436    0.2669 C   0  0  0  0  0  0  0  0  0  0  0  0
    0.3011    1.8377   -0.3327 C   0  0  0  0  0  0  0  0  0  0  0  0
    0.5874    0.5112   -0.6306 C   0  0  0  0  0  0  0  0  0  0  0  0
    1.6621   -0.0323   -1.1979 O   0  0  0  0  0  0  0  0  0  0  0  0
    1.5149   -1.3191   -1.2767 C   0  0  0  0  0  0  0  0  0  0  0  0
    0.2800   -1.6256   -0.7402 C   0  0  0  0  0  0  0  0  0  0  0  0
   -0.3237   -0.4504   -0.3221 C   0  0  0  0  0  0  0  0  0  0  0  0
   -1.5319   -0.1019    0.2907 C   0  0  0  0  0  0  0  0  0  0  0  0
    2.5184   -2.2952   -1.8361 C   0  0  0  0  0  0  0  0  0  0  0  0
    2.0854   -3.4424   -2.0675 O   0  0  0  0  0  0  0  0  0  0  0  0
    3.7804   -1.8469   -2.0186 N   0  0  0  0  0  0  0  0  0  0  0  0
    5.0760   -1.3948   -2.2085 C   0  0  0  0  0  0  0  0  0  0  0  0
    5.2863    0.0607   -1.7332 C   0  0  2  0  0  0  0  0  0  0  0  0
    6.6614    0.5072   -2.2061 C   0  0  0  0  0  0  0  0  0  0  0  0
    7.2146    1.5611   -1.2844 C   0  0  0  0  0  0  0  0  0  0  0  0
    7.7770    0.7867   -0.0854 C   0  0  0  0  0  0  0  0  0  0  0  0
    6.6363    0.0014    0.4108 N   0  0  0  0  0  0  0  0  0  0  0  0
    6.7991   -0.8357    1.5754 C   0  0  0  0  0  0  0  0  0  0  0  0
    5.3506    0.0784   -0.2418 C   0  0  0  0  0  0  0  0  0  0  0  0
    4.3348    0.1597    0.5203 O   0  0  0  0  0  0  0  0  0  0  0  0
   -4.2513    2.0140   -0.9360 N   0  0  0  0  0  0  0  0  0  0  0  0
   -5.3427    1.6073   -1.5985 C   0  0  0  0  0  0  0  0  0  0  0  0
   -6.0801    0.8066   -0.7124 C   0  0  0  0  0  0  0  0  0  0  0  0
   -7.3206    0.2152   -0.8292 C   0  0  0  0  0  0  0  0  0  0  0  0
   -7.8840   -0.4162    0.2383 C   0  0  0  0  0  0  0  0  0  0  0  0
   -9.1680   -1.0481    0.1772 N   0  0  0  0  0  0  0  0  0  0  0  0
   -6.4872   -2.0574    3.7227 H   0  0  0  0  0  0  0  0  0  0  0  0
   -6.5841   -0.2631    3.9464 H   0  0  0  0  0  0  0  0  0  0  0  0
   -8.0034   -1.3232    4.5372 H   0  0  0  0  0  0  0  0  0  0  0  0
   -5.3105    0.1585    2.4505 H   0  0  0  0  0  0  0  0  0  0  0  0
   -3.3125    1.1314    2.1787 H   0  0  0  0  0  0  0  0  0  0  0  0
   -2.9755    2.7490    1.4660 H   0  0  0  0  0  0  0  0  0  0  0  0
   -1.1401    3.1856    0.5176 H   0  0  0  0  0  0  0  0  0  0  0  0
    1.0284    2.6024   -0.5769 H   0  0  0  0  0  0  0  0  0  0  0  0
   -0.1417   -2.5975   -0.6567 H   0  0  0  0  0  0  0  0  0  0  0  0
   -2.2278   -0.8932    0.5220 H   0  0  0  0  0  0  0  0  0  0  0  0
    4.1637   -3.0678   -2.4873 H   0  0  0  0  0  0  0  0  0  0  0  0
    5.3848   -1.3334   -3.2993 H   0  0  0  0  0  0  0  0  0  0  0  0
    5.9013   -2.0265   -1.7462 H   0  0  0  0  0  0  0  0  0  0  0  0
    4.5043    0.6685   -2.1060 H   0  0  0  0  0  0  0  0  0  0  0  0
    6.5585    1.0024   -3.2231 H   0  0  0  0  0  0  0  0  0  0  0  0
    7.3611   -0.3348   -2.2780 H   0  0  0  0  0  0  0  0  0  0  0  0
    8.0218    2.1578   -1.7623 H   0  0  0  0  0  0  0  0  0  0  0  0
    6.3781    2.1821   -0.9238 H   0  0  0  0  0  0  0  0  0  0  0  0
    8.6248    0.1520   -0.3464 H   0  0  0  0  0  0  0  0  0  0  0  0
    7.9995    1.5260    0.6914 H   0  0  0  0  0  0  0  0  0  0  0  0
    6.8379   -0.2073    2.5010 H   0  0  0  0  0  0  0  0  0  0  0  0
    6.0376   -1.6229    1.6919 H   0  0  0  0  0  0  0  0  0  0  0  0
    7.7773   -1.3608    1.4394 H   0  0  0  0  0  0  0  0  0  0  0  0
   -5.6953    1.7900   -2.6036 H   0  0  0  0  0  0  0  0  0  0  0  0
   -7.8951    0.2275   -1.7477 H   0  0  0  0  0  0  0  0  0  0  0  0
   -9.4863   -1.8072    0.8281 H   0  0  0  0  0  0  0  0  0  0  0  0
   -9.8417   -0.7432   -0.5563 H   0  0  0  0  0  0  0  0  0  0  0  0
  1  2  1  0
  2  3  1  0
  3  4  2  0
  4  5  1  0
  5  6  1  0
  6  7  1  0
  7  8  1  0
  8  9  2  0
  9 10  1  0
 10 11  2  0
 11 12  1  0
 12 13  1  0
 13 14  2  0
 14 15  1  0
 15 16  2  0
 13 17  1  0
 17 18  2  0
 17 19  1  0
 19 20  1  0
 20 21  1  0
 21 22  1  0
 22 23  1  0
 23 24  1  0
 24 25  1  0
 25 26  1  0
 25 27  1  0
 27 28  2  0
  6 29  1  0
 29 30  2  0
 30 31  1  0
 31 32  1  0
 32 33  2  0
 33 34  1  0
 33  3  1  0
 31  5  2  0
 16  8  1  0
 27 21  1  0
 15 11  1  0
  1 35  1  0
  1 36  1  0
  1 37  1  0
  4 38  1  0
  7 39  1  0
  7 40  1  0
  9 41  1  0
 10 42  1  0
 14 43  1  0
 16 44  1  0
 19 45  1  0
 20 46  1  0
 20 47  1  0
 21 48  1  1
 22 49  1  0
 22 50  1  0
 23 51  1  0
 23 52  1  0
 24 53  1  0
 24 54  1  0
 26 55  1  0
 26 56  1  0
 26 57  1  0
 30 58  1  0
 32 59  1  0
 34 60  1  0
 34 61  1  0
M  END
$$$$
[H]Oc1c([H])c(O[H])c(C([H])([H])[H])c(C(=O)Oc2c(Cl)c([H])c(Cl)c([H])c2Oc2c([H])c([H])c(O[H])c([H])c2C([H])([H])[H])c1[H]
     RDKit          3D

 45 47  0  0  0  0  0  0  0  0999 V2000
    3.3036   -1.3130    2.1915 C   0  0  0  0  0  0  0  0  0  0  0  0
    3.3788    0.0302    1.5082 C   0  0  0  0  0  0  0  0  0  0  0  0
    4.4280    0.8936    1.7985 C   0  0  0  0  0  0  0  0  0  0  0  0
    4.5535    2.1429    1.2355 C   0  0  0  0  0  0  0  0  0  0  0  0
    5.6025    3.0046    1.5265 O   0  0  0  0  0  0  0  0  0  0  0  0
    3.5636    2.5150    0.3427 C   0  0  0  0  0  0  0  0  0  0  0  0
    2.5114    1.6923    0.0286 C   0  0  0  0  0  0  0  0  0  0  0  0
    2.4106    0.4335    0.6133 C   0  0  0  0  0  0  0  0  0  0  0  0
    1.3519   -0.3279    0.2648 O   0  0  0  0  0  0  0  0  0  0  0  0
    1.2713   -1.5247   -0.3837 C   0  0  0  0  0  0  0  0  0  0  0  0
    2.3336   -2.2186   -0.8970 C   0  0  0  0  0  0  0  0  0  0  0  0
    2.1036   -3.4152   -1.5234 C   0  0  0  0  0  0  0  0  0  0  0  0
    3.4272   -4.3608   -2.2065 Cl  0  0  0  0  0  0  0  0  0  0  0  0
    0.8256   -3.9463   -1.6543 C   0  0  0  0  0  0  0  0  0  0  0  0
   -0.2556   -3.2563   -1.1415 C   0  0  0  0  0  0  0  0  0  0  0  0
   -1.8967   -3.8827   -1.2797 Cl  0  0  0  0  0  0  0  0  0  0  0  0
    0.0026   -2.0587   -0.5178 C   0  0  0  0  0  0  0  0  0  0  0  0
   -1.1130   -1.3575    0.0056 O   0  0  0  0  0  0  0  0  0  0  0  0
   -1.7248   -0.4489   -0.8896 C   0  0  0  0  0  0  0  0  0  0  0  0
   -1.2882   -0.3043   -2.0398 O   0  0  0  0  0  0  0  0  0  0  0  0
   -2.8642    0.2947   -0.4170 C   0  0  0  0  0  0  0  0  0  0  0  0
   -3.5421    1.2033   -1.2095 C   0  0  0  0  0  0  0  0  0  0  0  0
   -3.1050    1.4396   -2.6065 C   0  0  0  0  0  0  0  0  0  0  0  0
   -4.6288    1.9054   -0.7348 C   0  0  0  0  0  0  0  0  0  0  0  0
   -5.3303    2.8126   -1.4768 O   0  0  0  0  0  0  0  0  0  0  0  0
   -5.0582    1.6995    0.5700 C   0  0  0  0  0  0  0  0  0  0  0  0
   -4.4226    0.8169    1.3836 C   0  0  0  0  0  0  0  0  0  0  0  0
   -4.8772    0.6347    2.6819 O   0  0  0  0  0  0  0  0  0  0  0  0
   -3.3425    0.1301    0.8866 C   0  0  0  0  0  0  0  0  0  0  0  0
    4.0306   -2.0215    1.7816 H   0  0  0  0  0  0  0  0  0  0  0  0
    2.2728   -1.6863    2.2217 H   0  0  0  0  0  0  0  0  0  0  0  0
    3.6211   -1.1024    3.2540 H   0  0  0  0  0  0  0  0  0  0  0  0
    5.1955    0.5904    2.4984 H   0  0  0  0  0  0  0  0  0  0  0  0
    6.4264    2.9071    0.9143 H   0  0  0  0  0  0  0  0  0  0  0  0
    3.6701    3.5065   -0.0987 H   0  0  0  0  0  0  0  0  0  0  0  0
    1.7804    2.0581   -0.6781 H   0  0  0  0  0  0  0  0  0  0  0  0
    3.3376   -1.8342   -0.8272 H   0  0  0  0  0  0  0  0  0  0  0  0
    0.6795   -4.9005   -2.1585 H   0  0  0  0  0  0  0  0  0  0  0  0
   -3.1859    0.5125   -3.2463 H   0  0  0  0  0  0  0  0  0  0  0  0
   -3.7741    2.1654   -3.1498 H   0  0  0  0  0  0  0  0  0  0  0  0
   -2.1021    1.8465   -2.7140 H   0  0  0  0  0  0  0  0  0  0  0  0
   -5.2565    3.1447   -2.3842 H   0  0  0  0  0  0  0  0  0  0  0  0
   -5.9146    2.2460    0.9596 H   0  0  0  0  0  0  0  0  0  0  0  0
   -5.5847   -0.0847    2.8571 H   0  0  0  0  0  0  0  0  0  0  0  0
   -2.8147   -0.5816    1.5130 H   0  0  0  0  0  0  0  0  0  0  0  0
  1  2  1  0
  2  3  2  0
  3  4  1  0
  4  5  1  0
  4  6  2  0
  6  7  1  0
  7  8  2  0
  8  9  1  0
  9 10  1  0
 10 11  2  0
 11 12  1  0
 12 13  1  0
 12 14  2  0
 14 15  1  0
 15 16  1  0
 15 17  2  0
 17 18  1  0
 18 19  1  0
 19 20  2  0
 19 21  1  0
 21 22  2  0
 22 23  1  0
 22 24  1  0
 24 25  1  0
 24 26  2  0
 26 27  1  0
 27 28  1  0
 27 29  2  0
  8  2  1  0
 17 10  1  0
 29 21  1  0
  1 30  1  0
  1 31  1  0
  1 32  1  0
  3 33  1  0
  5 34  1  0
  6 35  1  0
  7 36  1  0
 11 37  1  0
 14 38  1  0
 23 39  1  0
 23 40  1  0
 23 41  1  0
 25 42  1  0
 26 43  1  0
 28 44  1  0
 29 45  1  0
M  END
$$$$
[H]c1c([H])c([H])c(C([H])([H])c2c(C([H])([H])[H])nc(C([H])([H])[H])c(-c3c([H])c([H])c(N([H])C(=O)C([H])([H])[H])c(OC([H])([H])[H])c3[H])c2C(F)(F)F)c(C([H])([H])[H])c1[H]
     RDKit          3D

 57 59  0  0  0  0  0  0  0  0999 V2000
   -5.8520   -0.9060   -1.5584 C   0  0  0  0  0  0  0  0  0  0  0  0
   -5.5926    0.2102   -0.6345 C   0  0  0  0  0  0  0  0  0  0  0  0
   -6.6889    0.8401   -0.0632 C   0  0  0  0  0  0  0  0  0  0  0  0
   -6.5320    1.9397    0.7483 C   0  0  0  0  0  0  0  0  0  0  0  0
   -5.2477    2.3792    0.9635 C   0  0  0  0  0  0  0  0  0  0  0  0
   -4.1634    1.7449    0.3911 C   0  0  0  0  0  0  0  0  0  0  0  0
   -4.2786    0.6455   -0.4219 C   0  0  0  0  0  0  0  0  0  0  0  0
   -3.1534   -0.1147   -0.9818 C   0  0  0  0  0  0  0  0  0  0  0  0
   -2.0377   -0.4822   -0.1244 C   0  0  0  0  0  0  0  0  0  0  0  0
   -2.2567   -1.3009    0.9552 C   0  0  0  0  0  0  0  0  0  0  0  0
   -3.6180   -1.7902    1.3853 C   0  0  0  0  0  0  0  0  0  0  0  0
   -1.2023   -1.7256    1.7182 N   0  0  0  0  0  0  0  0  0  0  0  0
    0.0564   -1.3742    1.4523 C   0  0  0  0  0  0  0  0  0  0  0  0
    1.0863   -1.8931    2.3467 C   0  0  0  0  0  0  0  0  0  0  0  0
    0.3443   -0.5443    0.3643 C   0  0  0  0  0  0  0  0  0  0  0  0
    1.7316   -0.3168    0.1266 C   0  0  0  0  0  0  0  0  0  0  0  0
    2.5776    0.5632    0.7616 C   0  0  0  0  0  0  0  0  0  0  0  0
    3.9050    0.7102    0.5123 C   0  0  0  0  0  0  0  0  0  0  0  0
    4.7135    1.5964    1.1699 O   0  0  0  0  0  0  0  0  0  0  0  0
    4.3110    2.4689    2.1886 C   0  0  0  0  0  0  0  0  0  0  0  0
    4.4973   -0.0859   -0.4724 C   0  0  0  0  0  0  0  0  0  0  0  0
    5.8822    0.0607   -0.7384 N   0  0  0  0  0  0  0  0  0  0  0  0
    6.6284   -0.5714   -1.7383 C   0  0  0  0  0  0  0  0  0  0  0  0
    8.1070   -0.2847   -1.8542 C   0  0  0  0  0  0  0  0  0  0  0  0
    6.2073   -1.3808   -2.5830 O   0  0  0  0  0  0  0  0  0  0  0  0
    3.7056   -0.9786   -1.1367 C   0  0  0  0  0  0  0  0  0  0  0  0
    2.3729   -1.0962   -0.8539 C   0  0  0  0  0  0  0  0  0  0  0  0
   -0.6999   -0.1086   -0.4059 C   0  0  0  0  0  0  0  0  0  0  0  0
   -0.4525    0.7239   -1.5708 C   0  0  0  0  0  0  0  0  0  0  0  0
   -0.7784    0.1106   -2.7932 F   0  0  0  0  0  0  0  0  0  0  0  0
   -1.1694    1.9359   -1.4741 F   0  0  0  0  0  0  0  0  0  0  0  0
    0.8235    1.1797   -1.7557 F   0  0  0  0  0  0  0  0  0  0  0  0
   -6.9166   -0.8320   -1.9514 H   0  0  0  0  0  0  0  0  0  0  0  0
   -5.8158   -1.9008   -1.0859 H   0  0  0  0  0  0  0  0  0  0  0  0
   -5.2236   -0.8707   -2.4875 H   0  0  0  0  0  0  0  0  0  0  0  0
   -7.7001    0.4879   -0.2346 H   0  0  0  0  0  0  0  0  0  0  0  0
   -7.4097    2.4318    1.2006 H   0  0  0  0  0  0  0  0  0  0  0  0
   -5.1234    3.2596    1.6153 H   0  0  0  0  0  0  0  0  0  0  0  0
   -3.1567    2.1260    0.5957 H   0  0  0  0  0  0  0  0  0  0  0  0
   -3.6344   -1.1129   -1.3311 H   0  0  0  0  0  0  0  0  0  0  0  0
   -2.9330    0.3586   -1.9498 H   0  0  0  0  0  0  0  0  0  0  0  0
   -3.4527   -2.6112    2.1588 H   0  0  0  0  0  0  0  0  0  0  0  0
   -4.1512   -2.2891    0.5853 H   0  0  0  0  0  0  0  0  0  0  0  0
   -4.2086   -1.0059    1.8503 H   0  0  0  0  0  0  0  0  0  0  0  0
    2.1178   -1.6506    2.1474 H   0  0  0  0  0  0  0  0  0  0  0  0
    0.9632   -3.0020    2.4886 H   0  0  0  0  0  0  0  0  0  0  0  0
    0.8485   -1.4700    3.3696 H   0  0  0  0  0  0  0  0  0  0  0  0
    2.1180    1.1848    1.5323 H   0  0  0  0  0  0  0  0  0  0  0  0
    5.1722    2.6121    2.9083 H   0  0  0  0  0  0  0  0  0  0  0  0
    3.4977    2.0368    2.8282 H   0  0  0  0  0  0  0  0  0  0  0  0
    4.0521    3.4852    1.8247 H   0  0  0  0  0  0  0  0  0  0  0  0
    6.4410    0.7197   -0.1053 H   0  0  0  0  0  0  0  0  0  0  0  0
    8.3320    0.6886   -1.3834 H   0  0  0  0  0  0  0  0  0  0  0  0
    8.4042   -0.2400   -2.9235 H   0  0  0  0  0  0  0  0  0  0  0  0
    8.7168   -1.0968   -1.3880 H   0  0  0  0  0  0  0  0  0  0  0  0
    4.0884   -1.6466   -1.9225 H   0  0  0  0  0  0  0  0  0  0  0  0
    1.7474   -1.8173   -1.3985 H   0  0  0  0  0  0  0  0  0  0  0  0
  1  2  1  0
  2  3  2  0
  3  4  1  0
  4  5  2  0
  5  6  1  0
  6  7  2  0
  7  8  1  0
  8  9  1  0
  9 10  2  0
 10 11  1  0
 10 12  1  0
 12 13  2  0
 13 14  1  0
 13 15  1  0
 15 16  1  0
 16 17  2  0
 17 18  1  0
 18 19  1  0
 19 20  1  0
 18 21  2  0
 21 22  1  0
 22 23  1  0
 23 24  1  0
 23 25  2  0
 21 26  1  0
 26 27  2  0
 15 28  2  0
 28 29  1  0
 29 30  1  0
 29 31  1  0
 29 32  1  0
  7  2  1  0
 28  9  1  0
 27 16  1  0
  1 33  1  0
  1 34  1  0
  1 35  1  0
  3 36  1  0
  4 37  1  0
  5 38  1  0
  6 39  1  0
  8 40  1  0
  8 41  1  0
 11 42  1  0
 11 43  1  0
 11 44  1  0
 14 45  1  0
 14 46  1  0
 14 47  1  0
 17 48  1  0
 20 49  1  0
 20 50  1  0
 20 51  1  0
 22 52  1  0
 24 53  1  0
 24 54  1  0
 24 55  1  0
 26 56  1  0
 27 57  1  0
M  END
$$$$
[H]OC1(C(F)(F)F)C([H])([H])C([H])([H])N(C([H])([H])C(=O)N([H])[C@@]([H])(c2c([H])c(F)c(-c3c([H])c([H])c(Cl)c([H])c3[H])c([H])[n+]2[O-])C([H])([H])[H])C([H])([H])C1([H])[H]
     RDKit          3D

 54 56  0  0  0  0  0  0  0  0999 V2000
    0.7864    2.6671   -1.7892 C   0  0  0  0  0  0  0  0  0  0  0  0
    0.8185    1.6088   -0.6882 C   0  0  1  0  0  0  0  0  0  0  0  0
   -0.2588    0.6799   -0.8220 N   0  0  0  0  0  0  0  0  0  0  0  0
   -1.2947    0.5896    0.1794 C   0  0  0  0  0  0  0  0  0  0  0  0
   -1.2061    1.3572    1.1585 O   0  0  0  0  0  0  0  0  0  0  0  0
   -2.4088   -0.3642    0.0563 C   0  0  0  0  0  0  0  0  0  0  0  0
   -3.3285   -0.2260    1.1669 N   0  0  0  0  0  0  0  0  0  0  0  0
   -4.2711   -1.3386    1.1918 C   0  0  0  0  0  0  0  0  0  0  0  0
   -5.5772   -1.0053    1.8621 C   0  0  0  0  0  0  0  0  0  0  0  0
   -6.3349    0.0582    1.0907 C   0  0  0  0  0  0  0  0  0  0  0  0
   -7.1149    0.7527    2.0101 O   0  0  0  0  0  0  0  0  0  0  0  0
   -5.3557    0.9632    0.3663 C   0  0  0  0  0  0  0  0  0  0  0  0
   -4.0388    1.0394    1.1100 C   0  0  0  0  0  0  0  0  0  0  0  0
   -7.2571   -0.5369    0.0581 C   0  0  0  0  0  0  0  0  0  0  0  0
   -7.8946    0.5027   -0.5878 F   0  0  0  0  0  0  0  0  0  0  0  0
   -8.2339   -1.3231    0.6470 F   0  0  0  0  0  0  0  0  0  0  0  0
   -6.5918   -1.2646   -0.9031 F   0  0  0  0  0  0  0  0  0  0  0  0
    2.1642    1.0243   -0.6297 C   0  0  0  0  0  0  0  0  0  0  0  0
    3.0097    1.4421    0.3827 C   0  0  0  0  0  0  0  0  0  0  0  0
    4.2781    0.9174    0.4655 C   0  0  0  0  0  0  0  0  0  0  0  0
    5.1426    1.3114    1.4514 F   0  0  0  0  0  0  0  0  0  0  0  0
    4.7173   -0.0225   -0.4510 C   0  0  0  0  0  0  0  0  0  0  0  0
    3.8257   -0.3943   -1.4340 C   0  0  0  0  0  0  0  0  0  0  0  0
    2.5753    0.1152   -1.5257 N   0  0  0  0  0  0  0  0  0  0  0  0
    1.7670   -0.3300   -2.5726 O   0  0  0  0  0  0  0  0  0  0  0  0
    6.0567   -0.5825   -0.3628 C   0  0  0  0  0  0  0  0  0  0  0  0
    6.6467   -1.0234    0.7974 C   0  0  0  0  0  0  0  0  0  0  0  0
    7.9184   -1.5517    0.8695 C   0  0  0  0  0  0  0  0  0  0  0  0
    8.6715   -1.6544   -0.2989 C   0  0  0  0  0  0  0  0  0  0  0  0
   10.2928   -2.3229   -0.2415 Cl  0  0  0  0  0  0  0  0  0  0  0  0
    8.1082   -1.2209   -1.4796 C   0  0  0  0  0  0  0  0  0  0  0  0
    6.8241   -0.6925   -1.5236 C   0  0  0  0  0  0  0  0  0  0  0  0
    0.0064    2.3537   -2.4933 H   0  0  0  0  0  0  0  0  0  0  0  0
    1.7780    2.7496   -2.2548 H   0  0  0  0  0  0  0  0  0  0  0  0
    0.5569    3.6823   -1.3794 H   0  0  0  0  0  0  0  0  0  0  0  0
    0.6368    2.1771    0.2686 H   0  0  0  0  0  0  0  0  0  0  0  0
   -0.3933    0.0147   -1.6209 H   0  0  0  0  0  0  0  0  0  0  0  0
   -2.0241   -1.3714   -0.0865 H   0  0  0  0  0  0  0  0  0  0  0  0
   -2.9882   -0.0628   -0.8498 H   0  0  0  0  0  0  0  0  0  0  0  0
   -3.7812   -2.1162    1.8128 H   0  0  0  0  0  0  0  0  0  0  0  0
   -4.4159   -1.7637    0.1862 H   0  0  0  0  0  0  0  0  0  0  0  0
   -6.1974   -1.9169    1.8763 H   0  0  0  0  0  0  0  0  0  0  0  0
   -5.4033   -0.6526    2.8896 H   0  0  0  0  0  0  0  0  0  0  0  0
   -8.0383    0.3699    2.1000 H   0  0  0  0  0  0  0  0  0  0  0  0
   -5.7736    1.9908    0.3791 H   0  0  0  0  0  0  0  0  0  0  0  0
   -5.2078    0.6893   -0.6964 H   0  0  0  0  0  0  0  0  0  0  0  0
   -4.1962    1.4294    2.1277 H   0  0  0  0  0  0  0  0  0  0  0  0
   -3.4219    1.7529    0.5324 H   0  0  0  0  0  0  0  0  0  0  0  0
    2.6879    2.1797    1.1179 H   0  0  0  0  0  0  0  0  0  0  0  0
    4.1673   -1.1391   -2.1634 H   0  0  0  0  0  0  0  0  0  0  0  0
    6.0879   -0.9581    1.7201 H   0  0  0  0  0  0  0  0  0  0  0  0
    8.3486   -1.8900    1.8115 H   0  0  0  0  0  0  0  0  0  0  0  0
    8.7201   -1.3145   -2.3754 H   0  0  0  0  0  0  0  0  0  0  0  0
    6.4148   -0.3647   -2.4565 H   0  0  0  0  0  0  0  0  0  0  0  0
  1  2  1  0
  2  3  1  0
  3  4  1  0
  4  5  2  0
  4  6  1  0
  6  7  1  0
  7  8  1  0
  8  9  1  0
  9 10  1  0
 10 11  1  0
 10 12  1  0
 12 13  1  0
 10 14  1  0
 14 15  1  0
 14 16  1  0
 14 17  1  0
  2 18  1  0
 18 19  2  0
 19 20  1  0
 20 21  1  0
 20 22  2  0
 22 23  1  0
 23 24  2  0
 24 25  1  0
 22 26  1  0
 26 27  2  0
 27 28  1  0
 28 29  2  0
 29 30  1  0
 29 31  1  0
 31 32  2  0
 13  7  1  0
 24 18  1  0
 32 26  1  0
  1 33  1  0
  1 34  1  0
  1 35  1  0
  2 36  1  1
  3 37  1  0
  6 38  1  0
  6 39  1  0
  8 40  1  0
  8 41  1  0
  9 42  1  0
  9 43  1  0
 11 44  1  0
 12 45  1  0
 12 46  1  0
 13 47  1  0
 13 48  1  0
 19 49  1  0
 23 50  1  0
 27 51  1  0
 28 52  1  0
 31 53  1  0
 32 54  1  0
M  CHG  2  24   1  25  -1
M  END
$$$$
[H]OC(=O)C([H])([H])C([H])([H])N([H])C(=O)C([H])([H])N1[C@@]([H])(C([H])([H])C([H])([H])Oc2c([H])c([H])c3c([H])c([H])c([H])c([H])c3c2[H])S1(=O)=O
     RDKit          3D

 47 49  0  0  0  0  0  0  0  0999 V2000
    3.4068    3.0858   -0.7347 O   0  0  0  0  0  0  0  0  0  0  0  0
    4.6235    3.3460   -0.1522 C   0  0  0  0  0  0  0  0  0  0  0  0
    4.8484    4.5271    0.2242 O   0  0  0  0  0  0  0  0  0  0  0  0
    5.6880    2.3490    0.0670 C   0  0  0  0  0  0  0  0  0  0  0  0
    5.3082    0.9835   -0.4196 C   0  0  0  0  0  0  0  0  0  0  0  0
    4.1364    0.4830    0.2453 N   0  0  0  0  0  0  0  0  0  0  0  0
    3.6109   -0.7877   -0.0670 C   0  0  0  0  0  0  0  0  0  0  0  0
    4.1494   -1.5095   -0.9280 O   0  0  0  0  0  0  0  0  0  0  0  0
    2.3941   -1.2838    0.6372 C   0  0  0  0  0  0  0  0  0  0  0  0
    2.0624   -2.5330    0.1791 N   0  0  0  0  0  0  0  0  0  0  0  0
    1.0048   -3.3641    0.7929 C   0  0  1  0  0  0  0  0  0  0  0  0
   -0.0081   -2.8188    1.6951 C   0  0  0  0  0  0  0  0  0  0  0  0
   -0.9631   -1.7865    1.2825 C   0  0  0  0  0  0  0  0  0  0  0  0
   -1.8402   -2.1354    0.2208 O   0  0  0  0  0  0  0  0  0  0  0  0
   -2.7860   -1.1969   -0.2034 C   0  0  0  0  0  0  0  0  0  0  0  0
   -3.6237   -1.5650   -1.2381 C   0  0  0  0  0  0  0  0  0  0  0  0
   -4.5983   -0.7021   -1.7323 C   0  0  0  0  0  0  0  0  0  0  0  0
   -4.7446    0.5515   -1.1887 C   0  0  0  0  0  0  0  0  0  0  0  0
   -5.6911    1.4537   -1.6334 C   0  0  0  0  0  0  0  0  0  0  0  0
   -5.7953    2.7038   -1.0499 C   0  0  0  0  0  0  0  0  0  0  0  0
   -4.9461    3.0420   -0.0201 C   0  0  0  0  0  0  0  0  0  0  0  0
   -3.9986    2.1691    0.4418 C   0  0  0  0  0  0  0  0  0  0  0  0
   -3.9086    0.9178   -0.1566 C   0  0  0  0  0  0  0  0  0  0  0  0
   -2.9270    0.0551    0.3447 C   0  0  0  0  0  0  0  0  0  0  0  0
    1.1558   -3.2473   -0.8886 S   0  0  0  0  0  0  0  0  0  0  0  0
    0.1191   -2.6168   -1.7706 O   0  0  0  0  0  0  0  0  0  0  0  0
    1.7215   -4.4797   -1.6135 O   0  0  0  0  0  0  0  0  0  0  0  0
    2.9247    3.8205   -1.2657 H   0  0  0  0  0  0  0  0  0  0  0  0
    5.9483    2.2780    1.1612 H   0  0  0  0  0  0  0  0  0  0  0  0
    6.6386    2.6462   -0.4498 H   0  0  0  0  0  0  0  0  0  0  0  0
    6.1677    0.3102   -0.2360 H   0  0  0  0  0  0  0  0  0  0  0  0
    5.1070    1.0715   -1.5200 H   0  0  0  0  0  0  0  0  0  0  0  0
    3.6845    1.0914    0.9695 H   0  0  0  0  0  0  0  0  0  0  0  0
    1.6503   -0.4660    0.6234 H   0  0  0  0  0  0  0  0  0  0  0  0
    2.7079   -1.3443    1.7233 H   0  0  0  0  0  0  0  0  0  0  0  0
    1.5448   -4.2718    1.2619 H   0  0  0  0  0  0  0  0  0  0  0  0
   -0.6473   -3.6930    2.0736 H   0  0  0  0  0  0  0  0  0  0  0  0
    0.4504   -2.4643    2.6773 H   0  0  0  0  0  0  0  0  0  0  0  0
   -0.5875   -0.7561    1.1488 H   0  0  0  0  0  0  0  0  0  0  0  0
   -1.6801   -1.6629    2.1675 H   0  0  0  0  0  0  0  0  0  0  0  0
   -3.5178   -2.5538   -1.6764 H   0  0  0  0  0  0  0  0  0  0  0  0
   -5.2462   -1.0035   -2.5419 H   0  0  0  0  0  0  0  0  0  0  0  0
   -6.3483    1.1532   -2.4517 H   0  0  0  0  0  0  0  0  0  0  0  0
   -6.5382    3.3998   -1.4056 H   0  0  0  0  0  0  0  0  0  0  0  0
   -5.0468    4.0263    0.4209 H   0  0  0  0  0  0  0  0  0  0  0  0
   -3.3244    2.4212    1.2504 H   0  0  0  0  0  0  0  0  0  0  0  0
   -2.2859    0.3565    1.1485 H   0  0  0  0  0  0  0  0  0  0  0  0
  1  2  1  0
  2  3  2  0
  2  4  1  0
  4  5  1  0
  5  6  1  0
  6  7  1  0
  7  8  2  0
  7  9  1  0
  9 10  1  0
 10 11  1  0
 11 12  1  0
 12 13  1  0
 13 14  1  0
 14 15  1  0
 15 16  2  0
 16 17  1  0
 17 18  2  0
 18 19  1  0
 19 20  2  0
 20 21  1  0
 21 22  2  0
 22 23  1  0
 23 24  2  0
 11 25  1  0
 25 26  2  0
 25 27  2  0
 25 10  1  0
 24 15  1  0
 23 18  1  0
  1 28  1  0
  4 29  1  0
  4 30  1  0
  5 31  1  0
  5 32  1  0
  6 33  1  0
  9 34  1  0
  9 35  1  0
 11 36  1  1
 12 37  1  0
 12 38  1  0
 13 39  1  0
 13 40  1  0
 16 41  1  0
 17 42  1  0
 19 43  1  0
 20 44  1  0
 21 45  1  0
 22 46  1  0
 24 47  1  0
M  END
$$$$
