[H]c1nc(C([H])([H])N2C([H])([H])C([H])([H])C3(C(=O)N(c4c([H])c([H])c(-c5c([H])c([H])c([H])c([H])c5[H])c([H])c4[H])C(=O)N3c3nc([H])n([H])c(=O)c3[H])C([H])([H])C2([H])[H])c(C([H])([H])[H])c([H])c1[H]
     RDKit          3D

 67 72  0  0  0  0  0  0  0  0999 V2000
   -6.7462   -1.8933    0.3410 C   0  0  0  0  0  0  0  0  0  0  0  0
   -6.9648   -0.4273    0.0852 C   0  0  0  0  0  0  0  0  0  0  0  0
   -8.1432    0.0899   -0.3563 C   0  0  0  0  0  0  0  0  0  0  0  0
   -8.1543    1.4056   -0.7263 C   0  0  0  0  0  0  0  0  0  0  0  0
   -7.0213    2.1507   -0.6459 C   0  0  0  0  0  0  0  0  0  0  0  0
   -5.8572    1.6009   -0.1924 N   0  0  0  0  0  0  0  0  0  0  0  0
   -5.7928    0.3272    0.1809 C   0  0  0  0  0  0  0  0  0  0  0  0
   -4.7246   -0.2549    0.9857 C   0  0  0  0  0  0  0  0  0  0  0  0
   -3.4629   -0.4943    0.4852 N   0  0  0  0  0  0  0  0  0  0  0  0
   -2.5456   -0.8454    1.4891 C   0  0  0  0  0  0  0  0  0  0  0  0
   -1.2956   -1.4859    1.0162 C   0  0  0  0  0  0  0  0  0  0  0  0
   -0.7725   -0.8290   -0.2638 C   0  0  0  0  0  0  0  0  0  0  0  0
   -1.8302   -0.7064   -1.2739 C   0  0  0  0  0  0  0  0  0  0  0  0
   -3.0186    0.0681   -0.6789 C   0  0  0  0  0  0  0  0  0  0  0  0
   -0.0274    0.3283    0.0024 N   0  0  0  0  0  0  0  0  0  0  0  0
    1.1777    0.2523   -0.8423 C   0  0  0  0  0  0  0  0  0  0  0  0
    1.9153    1.1991   -1.1605 O   0  0  0  0  0  0  0  0  0  0  0  0
    1.3637   -1.1365   -1.2178 N   0  0  0  0  0  0  0  0  0  0  0  0
    0.3110   -1.8369   -0.7197 C   0  0  0  0  0  0  0  0  0  0  0  0
    0.1435   -3.0932   -0.6358 O   0  0  0  0  0  0  0  0  0  0  0  0
    2.7565   -1.5152   -1.5636 C   0  0  0  0  0  0  0  0  0  0  0  0
    3.4499   -0.8115   -2.4647 C   0  0  0  0  0  0  0  0  0  0  0  0
    4.8731   -0.6920   -2.2390 C   0  0  0  0  0  0  0  0  0  0  0  0
    5.4300   -1.2637   -1.1952 C   0  0  0  0  0  0  0  0  0  0  0  0
    4.6988   -2.0514   -0.2695 C   0  0  0  0  0  0  0  0  0  0  0  0
    3.3225   -2.1554   -0.4931 C   0  0  0  0  0  0  0  0  0  0  0  0
    6.7446   -0.7783   -0.7182 C   0  0  0  0  0  0  0  0  0  0  0  0
    7.4100   -1.2964    0.3986 C   0  0  0  0  0  0  0  0  0  0  0  0
    8.5274   -0.6850    0.8592 C   0  0  0  0  0  0  0  0  0  0  0  0
    9.0636    0.4471    0.3029 C   0  0  0  0  0  0  0  0  0  0  0  0
    8.3940    0.9899   -0.8304 C   0  0  0  0  0  0  0  0  0  0  0  0
    7.2885    0.3507   -1.2742 C   0  0  0  0  0  0  0  0  0  0  0  0
   -0.0196    1.4496    0.9148 C   0  0  0  0  0  0  0  0  0  0  0  0
   -0.0615    2.7189    0.4942 C   0  0  0  0  0  0  0  0  0  0  0  0
    0.2682    3.7583    1.3350 C   0  0  0  0  0  0  0  0  0  0  0  0
    0.2455    4.9721    1.0279 O   0  0  0  0  0  0  0  0  0  0  0  0
    0.6282    3.4315    2.6031 N   0  0  0  0  0  0  0  0  0  0  0  0
    0.6403    2.1765    3.0002 C   0  0  0  0  0  0  0  0  0  0  0  0
    0.3276    1.1850    2.1843 N   0  0  0  0  0  0  0  0  0  0  0  0
   -6.3737   -2.1457    1.3127 H   0  0  0  0  0  0  0  0  0  0  0  0
   -5.8556   -2.1271   -0.3658 H   0  0  0  0  0  0  0  0  0  0  0  0
   -7.5872   -2.4903   -0.0052 H   0  0  0  0  0  0  0  0  0  0  0  0
   -9.0367   -0.5308   -0.4312 H   0  0  0  0  0  0  0  0  0  0  0  0
   -9.0835    1.8574   -1.0858 H   0  0  0  0  0  0  0  0  0  0  0  0
   -7.0782    3.2004   -0.9385 H   0  0  0  0  0  0  0  0  0  0  0  0
   -4.3803    0.7690    1.6731 H   0  0  0  0  0  0  0  0  0  0  0  0
   -5.0685   -0.8033    1.9060 H   0  0  0  0  0  0  0  0  0  0  0  0
   -3.0125   -1.5429    2.2520 H   0  0  0  0  0  0  0  0  0  0  0  0
   -2.3792    0.0908    2.0910 H   0  0  0  0  0  0  0  0  0  0  0  0
   -1.4157   -2.5500    0.8197 H   0  0  0  0  0  0  0  0  0  0  0  0
   -0.5216   -1.3493    1.8001 H   0  0  0  0  0  0  0  0  0  0  0  0
   -1.5234   -0.1159   -2.1529 H   0  0  0  0  0  0  0  0  0  0  0  0
   -2.2045   -1.6763   -1.5970 H   0  0  0  0  0  0  0  0  0  0  0  0
   -2.6302    1.1154   -0.5370 H   0  0  0  0  0  0  0  0  0  0  0  0
   -3.7934    0.0817   -1.4656 H   0  0  0  0  0  0  0  0  0  0  0  0
    3.0006   -0.3105   -3.2950 H   0  0  0  0  0  0  0  0  0  0  0  0
    5.4282   -0.1410   -2.9519 H   0  0  0  0  0  0  0  0  0  0  0  0
    5.1598   -2.5139    0.5640 H   0  0  0  0  0  0  0  0  0  0  0  0
    2.7025   -2.7163    0.1794 H   0  0  0  0  0  0  0  0  0  0  0  0
    7.0246   -2.2047    0.8849 H   0  0  0  0  0  0  0  0  0  0  0  0
    9.0153   -1.1478    1.7590 H   0  0  0  0  0  0  0  0  0  0  0  0
    9.9404    0.8921    0.6977 H   0  0  0  0  0  0  0  0  0  0  0  0
    8.8120    1.8711   -1.2930 H   0  0  0  0  0  0  0  0  0  0  0  0
    6.8270    0.7707   -2.1704 H   0  0  0  0  0  0  0  0  0  0  0  0
   -0.3301    2.9672   -0.5468 H   0  0  0  0  0  0  0  0  0  0  0  0
    0.8918    4.2218    3.2662 H   0  0  0  0  0  0  0  0  0  0  0  0
    0.9303    1.8783    4.0176 H   0  0  0  0  0  0  0  0  0  0  0  0
  1  2  1  0
  2  3  2  0
  3  4  1  0
  4  5  2  0
  5  6  1  0
  6  7  2  0
  7  8  1  0
  8  9  1  0
  9 10  1  0
 10 11  1  0
 11 12  1  0
 12 13  1  0
 13 14  1  0
 12 15  1  0
 15 16  1  0
 16 17  2  0
 16 18  1  0
 18 19  1  0
 19 20  2  0
 18 21  1  0
 21 22  2  0
 22 23  1  0
 23 24  2  0
 24 25  1  0
 25 26  2  0
 24 27  1  0
 27 28  2  0
 28 29  1  0
 29 30  2  0
 30 31  1  0
 31 32  2  0
 15 33  1  0
 33 34  2  0
 34 35  1  0
 35 36  2  0
 35 37  1  0
 37 38  1  0
 38 39  2  0
  7  2  1  0
 14  9  1  0
 26 21  1  0
 32 27  1  0
 39 33  1  0
 19 12  1  0
  1 40  1  0
  1 41  1  0
  1 42  1  0
  3 43  1  0
  4 44  1  0
  5 45  1  0
  8 46  1  0
  8 47  1  0
 10 48  1  0
 10 49  1  0
 11 50  1  0
 11 51  1  0
 13 52  1  0
 13 53  1  0
 14 54  1  0
 14 55  1  0
 22 56  1  0
 23 57  1  0
 25 58  1  0
 26 59  1  0
 28 60  1  0
 29 61  1  0
 30 62  1  0
 31 63  1  0
 32 64  1  0
 34 65  1  0
 37 66  1  0
 38 67  1  0
M  END
$$$$
[H]OC(=O)c1c([H])c([H])c(N2C(=O)N(c3c([H])c([H])c(-c4c([H])c([H])c([H])c([H])c4[H])c([H])c3[H])C3(C2=O)C([H])([H])C([H])([H])N(C([H])([H])c2nc([H])c([H])c([H])c2C([H])([H])[H])C([H])([H])C3([H])[H])c([H])c1[H]
     RDKit          3D

 71 76  0  0  0  0  0  0  0  0999 V2000
    4.8527   -2.4245    0.0276 C   0  0  0  0  0  0  0  0  0  0  0  0
    6.0445   -1.5332    0.0370 C   0  0  0  0  0  0  0  0  0  0  0  0
    7.2704   -1.9772   -0.3685 C   0  0  0  0  0  0  0  0  0  0  0  0
    8.3577   -1.1226   -0.3889 C   0  0  0  0  0  0  0  0  0  0  0  0
    8.1031    0.1895    0.0160 C   0  0  0  0  0  0  0  0  0  0  0  0
    6.9055    0.5818    0.3979 N   0  0  0  0  0  0  0  0  0  0  0  0
    5.8216   -0.2115    0.4435 C   0  0  0  0  0  0  0  0  0  0  0  0
    4.5763    0.1817    1.0829 C   0  0  0  0  0  0  0  0  0  0  0  0
    3.3512    0.0756    0.4207 N   0  0  0  0  0  0  0  0  0  0  0  0
    2.3391    0.3839    1.4971 C   0  0  0  0  0  0  0  0  0  0  0  0
    1.0045   -0.1112    1.1219 C   0  0  0  0  0  0  0  0  0  0  0  0
    0.5246    0.6686   -0.1053 C   0  0  0  0  0  0  0  0  0  0  0  0
    1.5716    0.5976   -1.1261 C   0  0  0  0  0  0  0  0  0  0  0  0
    3.0000    0.8491   -0.6636 C   0  0  0  0  0  0  0  0  0  0  0  0
   -0.7089    0.1202   -0.4705 N   0  0  0  0  0  0  0  0  0  0  0  0
   -1.5419    1.2591   -0.9167 C   0  0  0  0  0  0  0  0  0  0  0  0
   -2.5439    1.1001   -1.6315 O   0  0  0  0  0  0  0  0  0  0  0  0
   -0.9965    2.4551   -0.3934 N   0  0  0  0  0  0  0  0  0  0  0  0
    0.1658    2.0593    0.3161 C   0  0  0  0  0  0  0  0  0  0  0  0
    0.7226    2.8184    1.1368 O   0  0  0  0  0  0  0  0  0  0  0  0
   -1.5855    3.7625   -0.4018 C   0  0  0  0  0  0  0  0  0  0  0  0
   -0.8779    4.8865   -0.1178 C   0  0  0  0  0  0  0  0  0  0  0  0
   -1.5744    6.0980   -0.0475 C   0  0  0  0  0  0  0  0  0  0  0  0
   -2.9421    6.1659   -0.2641 C   0  0  0  0  0  0  0  0  0  0  0  0
   -3.6529    5.0317   -0.5535 C   0  0  0  0  0  0  0  0  0  0  0  0
   -2.9543    3.8398   -0.6079 C   0  0  0  0  0  0  0  0  0  0  0  0
   -3.6982    7.4257   -0.1184 C   0  0  0  0  0  0  0  0  0  0  0  0
   -5.0195    7.4215   -0.6144 O   0  0  0  0  0  0  0  0  0  0  0  0
   -3.2691    8.4525    0.3933 O   0  0  0  0  0  0  0  0  0  0  0  0
   -1.3818   -1.1542   -0.4292 C   0  0  0  0  0  0  0  0  0  0  0  0
   -2.1664   -1.3985    0.7136 C   0  0  0  0  0  0  0  0  0  0  0  0
   -3.0187   -2.4557    0.8418 C   0  0  0  0  0  0  0  0  0  0  0  0
   -3.1404   -3.3329   -0.1815 C   0  0  0  0  0  0  0  0  0  0  0  0
   -2.3741   -3.1270   -1.3345 C   0  0  0  0  0  0  0  0  0  0  0  0
   -1.5003   -2.0318   -1.4343 C   0  0  0  0  0  0  0  0  0  0  0  0
   -4.2381   -4.3082   -0.1465 C   0  0  0  0  0  0  0  0  0  0  0  0
   -5.4302   -3.8297    0.4353 C   0  0  0  0  0  0  0  0  0  0  0  0
   -6.5508   -4.6994    0.4531 C   0  0  0  0  0  0  0  0  0  0  0  0
   -6.4891   -5.9625   -0.0636 C   0  0  0  0  0  0  0  0  0  0  0  0
   -5.2880   -6.4006   -0.6320 C   0  0  0  0  0  0  0  0  0  0  0  0
   -4.1598   -5.5444   -0.6679 C   0  0  0  0  0  0  0  0  0  0  0  0
    5.1643   -3.4671   -0.1480 H   0  0  0  0  0  0  0  0  0  0  0  0
    4.3088   -2.3920    0.9774 H   0  0  0  0  0  0  0  0  0  0  0  0
    4.1752   -2.1442   -0.8377 H   0  0  0  0  0  0  0  0  0  0  0  0
    7.3889   -3.0146   -0.6737 H   0  0  0  0  0  0  0  0  0  0  0  0
    9.2784   -1.5059   -0.6975 H   0  0  0  0  0  0  0  0  0  0  0  0
    8.9880    0.8455    0.0138 H   0  0  0  0  0  0  0  0  0  0  0  0
    4.7015    1.3818    1.1592 H   0  0  0  0  0  0  0  0  0  0  0  0
    4.5106   -0.0565    2.1920 H   0  0  0  0  0  0  0  0  0  0  0  0
    2.4586    1.4009    1.8212 H   0  0  0  0  0  0  0  0  0  0  0  0
    2.7017   -0.2533    2.3715 H   0  0  0  0  0  0  0  0  0  0  0  0
    0.3115   -0.0823    1.9323 H   0  0  0  0  0  0  0  0  0  0  0  0
    1.1125   -1.1762    0.7508 H   0  0  0  0  0  0  0  0  0  0  0  0
    1.3914    1.3622   -1.9486 H   0  0  0  0  0  0  0  0  0  0  0  0
    1.5446   -0.3938   -1.6395 H   0  0  0  0  0  0  0  0  0  0  0  0
    3.1109    1.9526   -0.5290 H   0  0  0  0  0  0  0  0  0  0  0  0
    3.6635    0.5681   -1.5291 H   0  0  0  0  0  0  0  0  0  0  0  0
    0.1865    4.9044    0.0503 H   0  0  0  0  0  0  0  0  0  0  0  0
   -1.0501    7.0330    0.1752 H   0  0  0  0  0  0  0  0  0  0  0  0
   -4.7094    5.0517   -0.7079 H   0  0  0  0  0  0  0  0  0  0  0  0
   -3.5753    2.9709   -0.8103 H   0  0  0  0  0  0  0  0  0  0  0  0
   -5.4843    8.2897   -0.8746 H   0  0  0  0  0  0  0  0  0  0  0  0
   -2.0536   -0.6992    1.5264 H   0  0  0  0  0  0  0  0  0  0  0  0
   -3.5746   -2.5836    1.7647 H   0  0  0  0  0  0  0  0  0  0  0  0
   -2.4140   -3.7862   -2.1846 H   0  0  0  0  0  0  0  0  0  0  0  0
   -0.9197   -1.9210   -2.3530 H   0  0  0  0  0  0  0  0  0  0  0  0
   -5.4477   -2.8500    0.8214 H   0  0  0  0  0  0  0  0  0  0  0  0
   -7.4468   -4.3033    0.9053 H   0  0  0  0  0  0  0  0  0  0  0  0
   -7.3584   -6.6230   -0.0324 H   0  0  0  0  0  0  0  0  0  0  0  0
   -5.2305   -7.3901   -1.0298 H   0  0  0  0  0  0  0  0  0  0  0  0
   -3.2410   -5.9175   -1.1265 H   0  0  0  0  0  0  0  0  0  0  0  0
  1  2  1  0
  2  3  2  0
  3  4  1  0
  4  5  2  0
  5  6  1  0
  6  7  2  0
  7  8  1  0
  8  9  1  0
  9 10  1  0
 10 11  1  0
 11 12  1  0
 12 13  1  0
 13 14  1  0
 12 15  1  0
 15 16  1  0
 16 17  2  0
 16 18  1  0
 18 19  1  0
 19 20  2  0
 18 21  1  0
 21 22  2  0
 22 23  1  0
 23 24  2  0
 24 25  1  0
 25 26  2  0
 24 27  1  0
 27 28  1  0
 27 29  2  0
 15 30  1  0
 30 31  2  0
 31 32  1  0
 32 33  2  0
 33 34  1  0
 34 35  2  0
 33 36  1  0
 36 37  2  0
 37 38  1  0
 38 39  2  0
 39 40  1  0
 40 41  2  0
  7  2  1  0
 14  9  1  0
 26 21  1  0
 35 30  1  0
 41 36  1  0
 19 12  1  0
  1 42  1  0
  1 43  1  0
  1 44  1  0
  3 45  1  0
  4 46  1  0
  5 47  1  0
  8 48  1  0
  8 49  1  0
 10 50  1  0
 10 51  1  0
 11 52  1  0
 11 53  1  0
 13 54  1  0
 13 55  1  0
 14 56  1  0
 14 57  1  0
 22 58  1  0
 23 59  1  0
 25 60  1  0
 26 61  1  0
 28 62  1  0
 31 63  1  0
 32 64  1  0
 34 65  1  0
 35 66  1  0
 37 67  1  0
 38 68  1  0
 39 69  1  0
 40 70  1  0
 41 71  1  0
M  END
$$$$
[H]OC(=O)c1c([H])c([H])nc(N2C(=O)N(c3c([H])c([H])c(-c4c([H])c([H])c([H])c([H])c4[H])c([H])c3[H])C(=O)C23C([H])([H])C([H])([H])N(C([H])([H])c2nc([H])c([H])c([H])c2C([H])([H])[H])C([H])([H])C3([H])[H])c1[H]
     RDKit          3D

 70 75  0  0  0  0  0  0  0  0999 V2000
   -6.1318   -2.8703    1.3479 C   0  0  0  0  0  0  0  0  0  0  0  0
   -5.7576   -2.3103    0.0170 C   0  0  0  0  0  0  0  0  0  0  0  0
   -6.4760   -2.6931   -1.0975 C   0  0  0  0  0  0  0  0  0  0  0  0
   -6.1639   -2.1956   -2.3419 C   0  0  0  0  0  0  0  0  0  0  0  0
   -5.1219   -1.3116   -2.4421 C   0  0  0  0  0  0  0  0  0  0  0  0
   -4.4591   -0.9726   -1.3424 N   0  0  0  0  0  0  0  0  0  0  0  0
   -4.6917   -1.4021   -0.1070 C   0  0  0  0  0  0  0  0  0  0  0  0
   -3.9525   -0.9834    1.1011 C   0  0  0  0  0  0  0  0  0  0  0  0
   -2.8984   -0.0874    0.7607 N   0  0  0  0  0  0  0  0  0  0  0  0
   -2.3173    0.4897    1.9956 C   0  0  0  0  0  0  0  0  0  0  0  0
   -1.4370    1.6397    1.6038 C   0  0  0  0  0  0  0  0  0  0  0  0
   -0.4396    1.2266    0.5785 C   0  0  0  0  0  0  0  0  0  0  0  0
   -1.0131    0.4133   -0.5665 C   0  0  0  0  0  0  0  0  0  0  0  0
   -1.7888   -0.7312    0.0445 C   0  0  0  0  0  0  0  0  0  0  0  0
    0.2757    2.3661    0.0105 N   0  0  0  0  0  0  0  0  0  0  0  0
    1.5103    1.8256   -0.4515 C   0  0  0  0  0  0  0  0  0  0  0  0
    2.2326    2.3677   -1.3562 O   0  0  0  0  0  0  0  0  0  0  0  0
    1.7735    0.6202    0.2563 N   0  0  0  0  0  0  0  0  0  0  0  0
    0.6841    0.4398    1.1496 C   0  0  0  0  0  0  0  0  0  0  0  0
    0.6737   -0.2558    2.2227 O   0  0  0  0  0  0  0  0  0  0  0  0
    2.8988   -0.2291    0.1073 C   0  0  0  0  0  0  0  0  0  0  0  0
    4.1791    0.3066    0.1020 C   0  0  0  0  0  0  0  0  0  0  0  0
    5.2532   -0.5397   -0.0442 C   0  0  0  0  0  0  0  0  0  0  0  0
    5.1170   -1.9266   -0.1888 C   0  0  0  0  0  0  0  0  0  0  0  0
    3.8389   -2.4341   -0.1805 C   0  0  0  0  0  0  0  0  0  0  0  0
    2.7567   -1.5847   -0.0340 C   0  0  0  0  0  0  0  0  0  0  0  0
    6.2934   -2.7515   -0.3390 C   0  0  0  0  0  0  0  0  0  0  0  0
    6.2364   -3.9039   -1.0780 C   0  0  0  0  0  0  0  0  0  0  0  0
    7.3761   -4.7099   -1.2287 C   0  0  0  0  0  0  0  0  0  0  0  0
    8.5409   -4.3133   -0.6189 C   0  0  0  0  0  0  0  0  0  0  0  0
    8.6264   -3.1590    0.1298 C   0  0  0  0  0  0  0  0  0  0  0  0
    7.4735   -2.3932    0.2516 C   0  0  0  0  0  0  0  0  0  0  0  0
   -0.1248    3.7304   -0.0880 C   0  0  0  0  0  0  0  0  0  0  0  0
   -1.2897    4.1135   -0.7166 C   0  0  0  0  0  0  0  0  0  0  0  0
   -1.6918    5.4394   -0.8203 C   0  0  0  0  0  0  0  0  0  0  0  0
   -0.8619    6.4119   -0.2559 C   0  0  0  0  0  0  0  0  0  0  0  0
    0.3000    6.0106    0.3685 C   0  0  0  0  0  0  0  0  0  0  0  0
    0.6340    4.7285    0.4389 N   0  0  0  0  0  0  0  0  0  0  0  0
   -2.9126    5.8347   -1.4785 C   0  0  0  0  0  0  0  0  0  0  0  0
   -3.7373    4.8826   -2.0348 O   0  0  0  0  0  0  0  0  0  0  0  0
   -3.2295    7.0397   -1.5470 O   0  0  0  0  0  0  0  0  0  0  0  0
   -5.7252   -2.2925    2.1861 H   0  0  0  0  0  0  0  0  0  0  0  0
   -7.2443   -2.8252    1.4357 H   0  0  0  0  0  0  0  0  0  0  0  0
   -5.7932   -3.9097    1.4496 H   0  0  0  0  0  0  0  0  0  0  0  0
   -7.3064   -3.3890   -1.0538 H   0  0  0  0  0  0  0  0  0  0  0  0
   -6.7032   -2.4711   -3.2366 H   0  0  0  0  0  0  0  0  0  0  0  0
   -4.7914   -0.8600   -3.3735 H   0  0  0  0  0  0  0  0  0  0  0  0
   -4.6032   -0.6068    1.9122 H   0  0  0  0  0  0  0  0  0  0  0  0
   -3.4885   -1.9255    1.5254 H   0  0  0  0  0  0  0  0  0  0  0  0
   -1.8427   -0.2883    2.6002 H   0  0  0  0  0  0  0  0  0  0  0  0
   -3.1778    0.8921    2.5607 H   0  0  0  0  0  0  0  0  0  0  0  0
   -2.0699    2.4357    1.2109 H   0  0  0  0  0  0  0  0  0  0  0  0
   -0.8528    1.9628    2.5093 H   0  0  0  0  0  0  0  0  0  0  0  0
   -0.1175    0.0049   -1.1170 H   0  0  0  0  0  0  0  0  0  0  0  0
   -1.6835    0.9776   -1.2123 H   0  0  0  0  0  0  0  0  0  0  0  0
   -1.1175   -1.2222    0.8175 H   0  0  0  0  0  0  0  0  0  0  0  0
   -2.1574   -1.4795   -0.6220 H   0  0  0  0  0  0  0  0  0  0  0  0
    4.3658    1.3767    0.2128 H   0  0  0  0  0  0  0  0  0  0  0  0
    6.2565   -0.1483   -0.0548 H   0  0  0  0  0  0  0  0  0  0  0  0
    3.7125   -3.4969   -0.2919 H   0  0  0  0  0  0  0  0  0  0  0  0
    1.7843   -2.0533   -0.0383 H   0  0  0  0  0  0  0  0  0  0  0  0
    5.3372   -4.2263   -1.5599 H   0  0  0  0  0  0  0  0  0  0  0  0
    7.3137   -5.6096   -1.8116 H   0  0  0  0  0  0  0  0  0  0  0  0
    9.4197   -4.9517   -0.7433 H   0  0  0  0  0  0  0  0  0  0  0  0
    9.5621   -2.8688    0.6028 H   0  0  0  0  0  0  0  0  0  0  0  0
    7.5625   -1.4886    0.8461 H   0  0  0  0  0  0  0  0  0  0  0  0
   -1.9445    3.3649   -1.1618 H   0  0  0  0  0  0  0  0  0  0  0  0
   -1.1325    7.4759   -0.3082 H   0  0  0  0  0  0  0  0  0  0  0  0
    0.9107    6.8130    0.7902 H   0  0  0  0  0  0  0  0  0  0  0  0
   -4.6516    4.6812   -1.5994 H   0  0  0  0  0  0  0  0  0  0  0  0
  1  2  1  0
  2  3  2  0
  3  4  1  0
  4  5  2  0
  5  6  1  0
  6  7  2  0
  7  8  1  0
  8  9  1  0
  9 10  1  0
 10 11  1  0
 11 12  1  0
 12 13  1  0
 13 14  1  0
 12 15  1  0
 15 16  1  0
 16 17  2  0
 16 18  1  0
 18 19  1  0
 19 20  2  0
 18 21  1  0
 21 22  2  0
 22 23  1  0
 23 24  2  0
 24 25  1  0
 25 26  2  0
 24 27  1  0
 27 28  2  0
 28 29  1  0
 29 30  2  0
 30 31  1  0
 31 32  2  0
 15 33  1  0
 33 34  2  0
 34 35  1  0
 35 36  2  0
 36 37  1  0
 37 38  2  0
 35 39  1  0
 39 40  1  0
 39 41  2  0
  7  2  1  0
 14  9  1  0
 26 21  1  0
 32 27  1  0
 38 33  1  0
 19 12  1  0
  1 42  1  0
  1 43  1  0
  1 44  1  0
  3 45  1  0
  4 46  1  0
  5 47  1  0
  8 48  1  0
  8 49  1  0
 10 50  1  0
 10 51  1  0
 11 52  1  0
 11 53  1  0
 13 54  1  0
 13 55  1  0
 14 56  1  0
 14 57  1  0
 22 58  1  0
 23 59  1  0
 25 60  1  0
 26 61  1  0
 28 62  1  0
 29 63  1  0
 30 64  1  0
 31 65  1  0
 32 66  1  0
 34 67  1  0
 36 68  1  0
 37 69  1  0
 40 70  1  0
M  END
$$$$
[H]OC(=O)c1c([H])c([H])c(N2C(=O)N(c3c([H])c([H])c(C#N)c([H])c3[H])C(=O)C23C([H])([H])C([H])([H])N(C([H])([H])c2nc([H])c([H])c([H])c2C([H])([H])[H])C([H])([H])C3([H])[H])c([H])c1[H]
     RDKit          3D

 62 66  0  0  0  0  0  0  0  0999 V2000
    4.6243    0.1383   -1.7047 C   0  0  0  0  0  0  0  0  0  0  0  0
    5.3173    0.0094   -0.4165 C   0  0  0  0  0  0  0  0  0  0  0  0
    6.6390   -0.4984   -0.3023 C   0  0  0  0  0  0  0  0  0  0  0  0
    7.1667   -0.6719    0.9371 C   0  0  0  0  0  0  0  0  0  0  0  0
    6.5102   -0.3933    2.0858 C   0  0  0  0  0  0  0  0  0  0  0  0
    5.2434    0.0930    1.9565 N   0  0  0  0  0  0  0  0  0  0  0  0
    4.6498    0.2957    0.7296 C   0  0  0  0  0  0  0  0  0  0  0  0
    3.3595    0.9897    0.6940 C   0  0  0  0  0  0  0  0  0  0  0  0
    2.2367    0.4525    0.1074 N   0  0  0  0  0  0  0  0  0  0  0  0
    1.7338   -0.7797    0.4390 C   0  0  0  0  0  0  0  0  0  0  0  0
    0.3562   -0.7095    1.0979 C   0  0  0  0  0  0  0  0  0  0  0  0
   -0.6302   -0.0111    0.2788 C   0  0  0  0  0  0  0  0  0  0  0  0
    0.0160    0.7689   -0.8417 C   0  0  0  0  0  0  0  0  0  0  0  0
    1.2373    1.4208   -0.2855 C   0  0  0  0  0  0  0  0  0  0  0  0
   -1.7925   -0.7560   -0.1364 N   0  0  0  0  0  0  0  0  0  0  0  0
   -2.6706    0.3221   -0.6172 C   0  0  0  0  0  0  0  0  0  0  0  0
   -3.5020    0.2263   -1.5312 O   0  0  0  0  0  0  0  0  0  0  0  0
   -2.4038    1.4924    0.1602 N   0  0  0  0  0  0  0  0  0  0  0  0
   -1.3541    1.0865    1.0850 C   0  0  0  0  0  0  0  0  0  0  0  0
   -1.1362    1.5193    2.1813 O   0  0  0  0  0  0  0  0  0  0  0  0
   -3.0270    2.7618    0.0676 C   0  0  0  0  0  0  0  0  0  0  0  0
   -3.0100    3.6603    1.1279 C   0  0  0  0  0  0  0  0  0  0  0  0
   -3.6637    4.9142    1.0175 C   0  0  0  0  0  0  0  0  0  0  0  0
   -4.3234    5.2544   -0.1357 C   0  0  0  0  0  0  0  0  0  0  0  0
   -4.3316    4.3661   -1.1654 C   0  0  0  0  0  0  0  0  0  0  0  0
   -3.6952    3.1378   -1.0595 C   0  0  0  0  0  0  0  0  0  0  0  0
   -5.0275    6.5035   -0.2717 C   0  0  0  0  0  0  0  0  0  0  0  0
   -5.5678    7.5190   -0.3821 N   0  0  0  0  0  0  0  0  0  0  0  0
   -2.2014   -2.0636   -0.1573 C   0  0  0  0  0  0  0  0  0  0  0  0
   -3.4661   -2.5419    0.1276 C   0  0  0  0  0  0  0  0  0  0  0  0
   -3.8669   -3.8463    0.1083 C   0  0  0  0  0  0  0  0  0  0  0  0
   -2.9229   -4.8198   -0.2287 C   0  0  0  0  0  0  0  0  0  0  0  0
   -1.6662   -4.3809   -0.5214 C   0  0  0  0  0  0  0  0  0  0  0  0
   -1.2556   -3.0932   -0.5056 C   0  0  0  0  0  0  0  0  0  0  0  0
   -3.2932   -6.2138   -0.2474 C   0  0  0  0  0  0  0  0  0  0  0  0
   -2.3666   -7.1901   -0.6572 O   0  0  0  0  0  0  0  0  0  0  0  0
   -4.4272   -6.6063    0.0895 O   0  0  0  0  0  0  0  0  0  0  0  0
    4.0913    1.1002   -1.8689 H   0  0  0  0  0  0  0  0  0  0  0  0
    5.3967    0.0526   -2.4926 H   0  0  0  0  0  0  0  0  0  0  0  0
    3.9319   -0.7368   -1.9195 H   0  0  0  0  0  0  0  0  0  0  0  0
    7.0957   -0.7066   -1.2499 H   0  0  0  0  0  0  0  0  0  0  0  0
    8.2248   -1.0578    1.0048 H   0  0  0  0  0  0  0  0  0  0  0  0
    6.9803   -0.5349    3.0619 H   0  0  0  0  0  0  0  0  0  0  0  0
    3.1003    1.1658    1.8479 H   0  0  0  0  0  0  0  0  0  0  0  0
    3.5327    2.0439    0.3851 H   0  0  0  0  0  0  0  0  0  0  0  0
    1.6973   -1.5136   -0.4306 H   0  0  0  0  0  0  0  0  0  0  0  0
    2.4128   -1.3306    1.1603 H   0  0  0  0  0  0  0  0  0  0  0  0
    0.0555   -1.7177    1.4725 H   0  0  0  0  0  0  0  0  0  0  0  0
    0.5630   -0.1084    2.0426 H   0  0  0  0  0  0  0  0  0  0  0  0
   -0.6883    1.5446   -1.2464 H   0  0  0  0  0  0  0  0  0  0  0  0
    0.3452    0.1430   -1.6955 H   0  0  0  0  0  0  0  0  0  0  0  0
    1.0697    2.1705    0.5025 H   0  0  0  0  0  0  0  0  0  0  0  0
    1.7314    1.9880   -1.1326 H   0  0  0  0  0  0  0  0  0  0  0  0
   -2.5200    3.3985    2.0251 H   0  0  0  0  0  0  0  0  0  0  0  0
   -3.6328    5.5793    1.8506 H   0  0  0  0  0  0  0  0  0  0  0  0
   -4.8317    4.6499   -2.0730 H   0  0  0  0  0  0  0  0  0  0  0  0
   -3.7725    2.5006   -1.9332 H   0  0  0  0  0  0  0  0  0  0  0  0
   -4.1903   -1.7603    0.3926 H   0  0  0  0  0  0  0  0  0  0  0  0
   -4.8562   -4.2067    0.3351 H   0  0  0  0  0  0  0  0  0  0  0  0
   -0.9032   -5.1537   -0.7914 H   0  0  0  0  0  0  0  0  0  0  0  0
   -0.2765   -2.8028   -0.7339 H   0  0  0  0  0  0  0  0  0  0  0  0
   -2.0454   -7.0632   -1.6371 H   0  0  0  0  0  0  0  0  0  0  0  0
  1  2  1  0
  2  3  2  0
  3  4  1  0
  4  5  2  0
  5  6  1  0
  6  7  2  0
  7  8  1  0
  8  9  1  0
  9 10  1  0
 10 11  1  0
 11 12  1  0
 12 13  1  0
 13 14  1  0
 12 15  1  0
 15 16  1  0
 16 17  2  0
 16 18  1  0
 18 19  1  0
 19 20  2  0
 18 21  1  0
 21 22  2  0
 22 23  1  0
 23 24  2  0
 24 25  1  0
 25 26  2  0
 24 27  1  0
 27 28  3  0
 15 29  1  0
 29 30  2  0
 30 31  1  0
 31 32  2  0
 32 33  1  0
 33 34  2  0
 32 35  1  0
 35 36  1  0
 35 37  2  0
  7  2  1  0
 14  9  1  0
 26 21  1  0
 34 29  1  0
 19 12  1  0
  1 38  1  0
  1 39  1  0
  1 40  1  0
  3 41  1  0
  4 42  1  0
  5 43  1  0
  8 44  1  0
  8 45  1  0
 10 46  1  0
 10 47  1  0
 11 48  1  0
 11 49  1  0
 13 50  1  0
 13 51  1  0
 14 52  1  0
 14 53  1  0
 22 54  1  0
 23 55  1  0
 25 56  1  0
 26 57  1  0
 30 58  1  0
 31 59  1  0
 33 60  1  0
 34 61  1  0
 36 62  1  0
M  END
$$$$
[H]OC(=O)c1c([H])c([H])c(N2C(=O)N(c3c([H])c([H])c([H])c(-c4c([H])c([H])c([H])c([H])c4[H])c3[H])C3(C2=O)C([H])([H])C([H])([H])N(C([H])([H])c2nc([H])c([H])c([H])c2C([H])([H])[H])C([H])([H])C3([H])[H])c([H])c1[H]
     RDKit          3D

 71 76  0  0  0  0  0  0  0  0999 V2000
    5.1063   -2.0859   -1.0802 C   0  0  0  0  0  0  0  0  0  0  0  0
    5.9018   -1.2911   -0.0933 C   0  0  0  0  0  0  0  0  0  0  0  0
    7.1294   -1.6992    0.3155 C   0  0  0  0  0  0  0  0  0  0  0  0
    7.7247   -0.9917    1.3615 C   0  0  0  0  0  0  0  0  0  0  0  0
    7.0321    0.0593    1.8983 C   0  0  0  0  0  0  0  0  0  0  0  0
    5.8105    0.4308    1.4591 N   0  0  0  0  0  0  0  0  0  0  0  0
    5.2032   -0.2082    0.4634 C   0  0  0  0  0  0  0  0  0  0  0  0
    4.0873    0.3448   -0.2652 C   0  0  0  0  0  0  0  0  0  0  0  0
    2.7668    0.3014    0.0457 N   0  0  0  0  0  0  0  0  0  0  0  0
    2.1155    0.4618    1.2116 C   0  0  0  0  0  0  0  0  0  0  0  0
    0.6353    0.0030    1.1986 C   0  0  0  0  0  0  0  0  0  0  0  0
   -0.0628    0.5362   -0.0393 C   0  0  0  0  0  0  0  0  0  0  0  0
    0.7423    0.0536   -1.2131 C   0  0  0  0  0  0  0  0  0  0  0  0
    2.0479    0.7546   -1.1680 C   0  0  0  0  0  0  0  0  0  0  0  0
   -1.4106    0.2080   -0.1799 N   0  0  0  0  0  0  0  0  0  0  0  0
   -2.0837    1.4129   -0.7019 C   0  0  0  0  0  0  0  0  0  0  0  0
   -3.2363    1.3955   -1.2476 O   0  0  0  0  0  0  0  0  0  0  0  0
   -1.2643    2.5397   -0.5135 N   0  0  0  0  0  0  0  0  0  0  0  0
   -0.0762    2.0443    0.0741 C   0  0  0  0  0  0  0  0  0  0  0  0
    0.7957    2.7746    0.5940 O   0  0  0  0  0  0  0  0  0  0  0  0
   -1.6368    3.9235   -0.6625 C   0  0  0  0  0  0  0  0  0  0  0  0
   -0.7644    4.9398   -0.8053 C   0  0  0  0  0  0  0  0  0  0  0  0
   -1.2043    6.2706   -0.8037 C   0  0  0  0  0  0  0  0  0  0  0  0
   -2.5365    6.5777   -0.6610 C   0  0  0  0  0  0  0  0  0  0  0  0
   -3.4292    5.5421   -0.5218 C   0  0  0  0  0  0  0  0  0  0  0  0
   -2.9824    4.2520   -0.5228 C   0  0  0  0  0  0  0  0  0  0  0  0
   -3.0307    7.9460   -0.6060 C   0  0  0  0  0  0  0  0  0  0  0  0
   -4.4010    8.1389   -0.4365 O   0  0  0  0  0  0  0  0  0  0  0  0
   -2.3223    8.9533   -0.6897 O   0  0  0  0  0  0  0  0  0  0  0  0
   -2.2790   -0.8965    0.1694 C   0  0  0  0  0  0  0  0  0  0  0  0
   -3.2257   -0.5809    1.1701 C   0  0  0  0  0  0  0  0  0  0  0  0
   -4.1235   -1.4938    1.6532 C   0  0  0  0  0  0  0  0  0  0  0  0
   -4.1002   -2.7600    1.1446 C   0  0  0  0  0  0  0  0  0  0  0  0
   -3.1808   -3.1220    0.1437 C   0  0  0  0  0  0  0  0  0  0  0  0
   -2.2801   -2.1604   -0.3252 C   0  0  0  0  0  0  0  0  0  0  0  0
   -3.2258   -4.5160   -0.2365 C   0  0  0  0  0  0  0  0  0  0  0  0
   -3.4766   -5.4455    0.7931 C   0  0  0  0  0  0  0  0  0  0  0  0
   -3.6716   -6.7812    0.5935 C   0  0  0  0  0  0  0  0  0  0  0  0
   -3.6254   -7.2716   -0.6924 C   0  0  0  0  0  0  0  0  0  0  0  0
   -3.3821   -6.4109   -1.7403 C   0  0  0  0  0  0  0  0  0  0  0  0
   -3.1841   -5.0518   -1.5001 C   0  0  0  0  0  0  0  0  0  0  0  0
    5.5926   -3.0653   -1.2903 H   0  0  0  0  0  0  0  0  0  0  0  0
    4.1477   -2.4037   -0.5386 H   0  0  0  0  0  0  0  0  0  0  0  0
    4.8923   -1.5875   -2.0124 H   0  0  0  0  0  0  0  0  0  0  0  0
    7.6552   -2.5317   -0.1169 H   0  0  0  0  0  0  0  0  0  0  0  0
    8.7153   -1.2737    1.7180 H   0  0  0  0  0  0  0  0  0  0  0  0
    7.5475    0.5990    2.7089 H   0  0  0  0  0  0  0  0  0  0  0  0
    4.2190    0.0808   -1.3854 H   0  0  0  0  0  0  0  0  0  0  0  0
    4.3825    1.5160   -0.4177 H   0  0  0  0  0  0  0  0  0  0  0  0
    2.2425    1.3983    1.7761 H   0  0  0  0  0  0  0  0  0  0  0  0
    2.5502   -0.3070    1.9793 H   0  0  0  0  0  0  0  0  0  0  0  0
    0.1742    0.4935    2.0682 H   0  0  0  0  0  0  0  0  0  0  0  0
    0.5404   -1.0694    1.2833 H   0  0  0  0  0  0  0  0  0  0  0  0
    0.9652   -1.0326   -0.9792 H   0  0  0  0  0  0  0  0  0  0  0  0
    0.2165    0.1163   -2.1739 H   0  0  0  0  0  0  0  0  0  0  0  0
    2.0241    1.8273   -1.2576 H   0  0  0  0  0  0  0  0  0  0  0  0
    2.6675    0.3152   -2.0032 H   0  0  0  0  0  0  0  0  0  0  0  0
    0.2931    4.7876   -0.9230 H   0  0  0  0  0  0  0  0  0  0  0  0
   -0.5072    7.0838   -0.9078 H   0  0  0  0  0  0  0  0  0  0  0  0
   -4.4676    5.7409   -0.4033 H   0  0  0  0  0  0  0  0  0  0  0  0
   -3.7192    3.4814   -0.4013 H   0  0  0  0  0  0  0  0  0  0  0  0
   -5.0939    7.5691   -0.8912 H   0  0  0  0  0  0  0  0  0  0  0  0
   -3.2155    0.4374    1.5223 H   0  0  0  0  0  0  0  0  0  0  0  0
   -4.8604   -1.2662    2.4250 H   0  0  0  0  0  0  0  0  0  0  0  0
   -4.7783   -3.5441    1.4869 H   0  0  0  0  0  0  0  0  0  0  0  0
   -1.5715   -2.4253   -1.1116 H   0  0  0  0  0  0  0  0  0  0  0  0
   -3.5102   -5.0762    1.8212 H   0  0  0  0  0  0  0  0  0  0  0  0
   -3.8640   -7.4828    1.4039 H   0  0  0  0  0  0  0  0  0  0  0  0
   -3.7854   -8.3227   -0.8767 H   0  0  0  0  0  0  0  0  0  0  0  0
   -3.3483   -6.7452   -2.7715 H   0  0  0  0  0  0  0  0  0  0  0  0
   -3.0064   -4.4110   -2.3201 H   0  0  0  0  0  0  0  0  0  0  0  0
  1  2  1  0
  2  3  2  0
  3  4  1  0
  4  5  2  0
  5  6  1  0
  6  7  2  0
  7  8  1  0
  8  9  1  0
  9 10  1  0
 10 11  1  0
 11 12  1  0
 12 13  1  0
 13 14  1  0
 12 15  1  0
 15 16  1  0
 16 17  2  0
 16 18  1  0
 18 19  1  0
 19 20  2  0
 18 21  1  0
 21 22  2  0
 22 23  1  0
 23 24  2  0
 24 25  1  0
 25 26  2  0
 24 27  1  0
 27 28  1  0
 27 29  2  0
 15 30  1  0
 30 31  2  0
 31 32  1  0
 32 33  2  0
 33 34  1  0
 34 35  2  0
 34 36  1  0
 36 37  2  0
 37 38  1  0
 38 39  2  0
 39 40  1  0
 40 41  2  0
  7  2  1  0
 14  9  1  0
 26 21  1  0
 35 30  1  0
 41 36  1  0
 19 12  1  0
  1 42  1  0
  1 43  1  0
  1 44  1  0
  3 45  1  0
  4 46  1  0
  5 47  1  0
  8 48  1  0
  8 49  1  0
 10 50  1  0
 10 51  1  0
 11 52  1  0
 11 53  1  0
 13 54  1  0
 13 55  1  0
 14 56  1  0
 14 57  1  0
 22 58  1  0
 23 59  1  0
 25 60  1  0
 26 61  1  0
 28 62  1  0
 31 63  1  0
 32 64  1  0
 33 65  1  0
 35 66  1  0
 37 67  1  0
 38 68  1  0
 39 69  1  0
 40 70  1  0
 41 71  1  0
M  END
$$$$
[H]OC(=O)c1c([H])c([H])c(N2C(=O)N(c3c([H])c([H])c(-c4c([H])c([H])c([H])c([H])c4[H])c([H])c3[H])C(=O)C23C([H])([H])C([H])([H])N(C([H])([H])c2nc([H])c([H])c([H])c2C([H])([H])[H])C([H])([H])C3([H])[H])c([H])c1[H]
     RDKit          3D

 71 76  0  0  0  0  0  0  0  0999 V2000
   -6.9390   -1.8934    0.5684 C   0  0  0  0  0  0  0  0  0  0  0  0
   -5.7086   -2.7046    0.5942 C   0  0  0  0  0  0  0  0  0  0  0  0
   -5.8032   -4.0295    0.9615 C   0  0  0  0  0  0  0  0  0  0  0  0
   -4.6724   -4.8262    0.9986 C   0  0  0  0  0  0  0  0  0  0  0  0
   -3.4792   -4.2453    0.6592 C   0  0  0  0  0  0  0  0  0  0  0  0
   -3.4349   -2.9684    0.3124 N   0  0  0  0  0  0  0  0  0  0  0  0
   -4.4762   -2.1275    0.2497 C   0  0  0  0  0  0  0  0  0  0  0  0
   -4.4231   -0.7117   -0.1594 C   0  0  0  0  0  0  0  0  0  0  0  0
   -3.0702   -0.3227   -0.4422 N   0  0  0  0  0  0  0  0  0  0  0  0
   -3.0445    1.0498   -1.0147 C   0  0  0  0  0  0  0  0  0  0  0  0
   -1.6944    1.2047   -1.6347 C   0  0  0  0  0  0  0  0  0  0  0  0
   -0.5685    0.8946   -0.7361 C   0  0  0  0  0  0  0  0  0  0  0  0
   -0.8528   -0.0956    0.3617 C   0  0  0  0  0  0  0  0  0  0  0  0
   -2.2765   -0.1347    0.7883 C   0  0  0  0  0  0  0  0  0  0  0  0
    0.0363    2.0981   -0.1392 N   0  0  0  0  0  0  0  0  0  0  0  0
    1.3158    1.6219    0.3059 C   0  0  0  0  0  0  0  0  0  0  0  0
    1.9739    2.1167    1.2786 O   0  0  0  0  0  0  0  0  0  0  0  0
    1.6980    0.5218   -0.5247 N   0  0  0  0  0  0  0  0  0  0  0  0
    0.6329    0.3624   -1.4549 C   0  0  0  0  0  0  0  0  0  0  0  0
    0.7306   -0.1222   -2.6094 O   0  0  0  0  0  0  0  0  0  0  0  0
    2.8947   -0.2524   -0.4371 C   0  0  0  0  0  0  0  0  0  0  0  0
    3.1229   -1.0371    0.6712 C   0  0  0  0  0  0  0  0  0  0  0  0
    4.2873   -1.7908    0.7520 C   0  0  0  0  0  0  0  0  0  0  0  0
    5.1738   -1.7140   -0.3023 C   0  0  0  0  0  0  0  0  0  0  0  0
    4.9260   -0.9183   -1.4086 C   0  0  0  0  0  0  0  0  0  0  0  0
    3.7730   -0.1696   -1.4928 C   0  0  0  0  0  0  0  0  0  0  0  0
    6.4031   -2.5242   -0.1976 C   0  0  0  0  0  0  0  0  0  0  0  0
    6.3463   -3.7211    0.4780 C   0  0  0  0  0  0  0  0  0  0  0  0
    7.4638   -4.5185    0.6051 C   0  0  0  0  0  0  0  0  0  0  0  0
    8.6564   -4.1166    0.0500 C   0  0  0  0  0  0  0  0  0  0  0  0
    8.6977   -2.9144   -0.6241 C   0  0  0  0  0  0  0  0  0  0  0  0
    7.5934   -2.1155   -0.7557 C   0  0  0  0  0  0  0  0  0  0  0  0
   -0.4851    3.4054   -0.0206 C   0  0  0  0  0  0  0  0  0  0  0  0
   -0.3596    4.3598   -1.0249 C   0  0  0  0  0  0  0  0  0  0  0  0
   -0.8758    5.6264   -0.8924 C   0  0  0  0  0  0  0  0  0  0  0  0
   -1.5397    6.0073    0.2394 C   0  0  0  0  0  0  0  0  0  0  0  0
   -1.6800    5.0982    1.2411 C   0  0  0  0  0  0  0  0  0  0  0  0
   -1.1589    3.8107    1.1138 C   0  0  0  0  0  0  0  0  0  0  0  0
   -2.0709    7.3564    0.3385 C   0  0  0  0  0  0  0  0  0  0  0  0
   -2.7370    7.7157    1.4950 O   0  0  0  0  0  0  0  0  0  0  0  0
   -1.9556    8.2120   -0.5729 O   0  0  0  0  0  0  0  0  0  0  0  0
   -7.2697   -1.7144    1.6093 H   0  0  0  0  0  0  0  0  0  0  0  0
   -7.7255   -2.5146    0.0582 H   0  0  0  0  0  0  0  0  0  0  0  0
   -6.7819   -0.9694    0.0136 H   0  0  0  0  0  0  0  0  0  0  0  0
   -6.7780   -4.4429    1.2220 H   0  0  0  0  0  0  0  0  0  0  0  0
   -4.7542   -5.8840    1.2927 H   0  0  0  0  0  0  0  0  0  0  0  0
   -2.5721   -4.8635    0.6829 H   0  0  0  0  0  0  0  0  0  0  0  0
   -5.0901   -0.5072   -1.0194 H   0  0  0  0  0  0  0  0  0  0  0  0
   -4.7616   -0.1260    0.7393 H   0  0  0  0  0  0  0  0  0  0  0  0
   -3.8539    1.1709   -1.7432 H   0  0  0  0  0  0  0  0  0  0  0  0
   -3.2171    1.7315   -0.1650 H   0  0  0  0  0  0  0  0  0  0  0  0
   -1.6626    0.4884   -2.5082 H   0  0  0  0  0  0  0  0  0  0  0  0
   -1.5599    2.2054   -2.0937 H   0  0  0  0  0  0  0  0  0  0  0  0
   -0.1882    0.1522    1.2369 H   0  0  0  0  0  0  0  0  0  0  0  0
   -0.5743   -1.1225    0.0236 H   0  0  0  0  0  0  0  0  0  0  0  0
   -2.4543   -0.9829    1.4577 H   0  0  0  0  0  0  0  0  0  0  0  0
   -2.6237    0.8191    1.2563 H   0  0  0  0  0  0  0  0  0  0  0  0
    2.4409   -1.1061    1.5003 H   0  0  0  0  0  0  0  0  0  0  0  0
    4.4571   -2.3998    1.6215 H   0  0  0  0  0  0  0  0  0  0  0  0
    5.6827   -0.9189   -2.1955 H   0  0  0  0  0  0  0  0  0  0  0  0
    3.5774    0.4497   -2.3517 H   0  0  0  0  0  0  0  0  0  0  0  0
    5.4079   -4.0611    0.9280 H   0  0  0  0  0  0  0  0  0  0  0  0
    7.4087   -5.4667    1.1434 H   0  0  0  0  0  0  0  0  0  0  0  0
    9.4990   -4.7749    0.1769 H   0  0  0  0  0  0  0  0  0  0  0  0
    9.6557   -2.6116   -1.0601 H   0  0  0  0  0  0  0  0  0  0  0  0
    7.6671   -1.1966   -1.2836 H   0  0  0  0  0  0  0  0  0  0  0  0
    0.1609    4.1082   -1.9457 H   0  0  0  0  0  0  0  0  0  0  0  0
   -0.7528    6.3194   -1.6891 H   0  0  0  0  0  0  0  0  0  0  0  0
   -2.2129    5.4116    2.1406 H   0  0  0  0  0  0  0  0  0  0  0  0
   -1.3154    3.1502    1.9564 H   0  0  0  0  0  0  0  0  0  0  0  0
   -2.2290    8.1692    2.2433 H   0  0  0  0  0  0  0  0  0  0  0  0
  1  2  1  0
  2  3  2  0
  3  4  1  0
  4  5  2  0
  5  6  1  0
  6  7  2  0
  7  8  1  0
  8  9  1  0
  9 10  1  0
 10 11  1  0
 11 12  1  0
 12 13  1  0
 13 14  1  0
 12 15  1  0
 15 16  1  0
 16 17  2  0
 16 18  1  0
 18 19  1  0
 19 20  2  0
 18 21  1  0
 21 22  2  0
 22 23  1  0
 23 24  2  0
 24 25  1  0
 25 26  2  0
 24 27  1  0
 27 28  2  0
 28 29  1  0
 29 30  2  0
 30 31  1  0
 31 32  2  0
 15 33  1  0
 33 34  2  0
 34 35  1  0
 35 36  2  0
 36 37  1  0
 37 38  2  0
 36 39  1  0
 39 40  1  0
 39 41  2  0
  7  2  1  0
 14  9  1  0
 26 21  1  0
 32 27  1  0
 38 33  1  0
 19 12  1  0
  1 42  1  0
  1 43  1  0
  1 44  1  0
  3 45  1  0
  4 46  1  0
  5 47  1  0
  8 48  1  0
  8 49  1  0
 10 50  1  0
 10 51  1  0
 11 52  1  0
 11 53  1  0
 13 54  1  0
 13 55  1  0
 14 56  1  0
 14 57  1  0
 22 58  1  0
 23 59  1  0
 25 60  1  0
 26 61  1  0
 28 62  1  0
 29 63  1  0
 30 64  1  0
 31 65  1  0
 32 66  1  0
 34 67  1  0
 35 68  1  0
 37 69  1  0
 38 70  1  0
 40 71  1  0
M  END
$$$$
[H]OC(=O)c1c([H])c([H])c(N2C(=O)N(c3nc([H])n([H])c(=O)c3[H])C3(C2=O)C([H])([H])C([H])([H])N(C([H])([H])c2nc([H])c([H])c([H])c2C([H])([H])[H])C([H])([H])C3([H])[H])c([H])c1[H]
     RDKit          3D

 60 64  0  0  0  0  0  0  0  0999 V2000
   -6.3025    0.6027   -1.1030 C   0  0  0  0  0  0  0  0  0  0  0  0
   -5.7663    0.8631    0.2586 C   0  0  0  0  0  0  0  0  0  0  0  0
   -6.5369    1.4292    1.2375 C   0  0  0  0  0  0  0  0  0  0  0  0
   -5.9927    1.6535    2.4851 C   0  0  0  0  0  0  0  0  0  0  0  0
   -4.6759    1.2972    2.7102 C   0  0  0  0  0  0  0  0  0  0  0  0
   -3.9717    0.7476    1.7153 N   0  0  0  0  0  0  0  0  0  0  0  0
   -4.4283    0.4992    0.4825 C   0  0  0  0  0  0  0  0  0  0  0  0
   -3.6447   -0.1297   -0.6028 C   0  0  0  0  0  0  0  0  0  0  0  0
   -2.3195   -0.4132   -0.2173 N   0  0  0  0  0  0  0  0  0  0  0  0
   -1.4413    0.6642    0.0575 C   0  0  0  0  0  0  0  0  0  0  0  0
   -0.1346    0.0395    0.5735 C   0  0  0  0  0  0  0  0  0  0  0  0
    0.5548   -0.5546   -0.6311 C   0  0  0  0  0  0  0  0  0  0  0  0
   -0.4347   -1.0316   -1.6528 C   0  0  0  0  0  0  0  0  0  0  0  0
   -1.6819   -1.4778   -0.9174 C   0  0  0  0  0  0  0  0  0  0  0  0
    1.4960   -1.5957   -0.2461 N   0  0  0  0  0  0  0  0  0  0  0  0
    2.6123   -0.8537    0.2743 C   0  0  0  0  0  0  0  0  0  0  0  0
    3.4474   -1.3371    1.1139 O   0  0  0  0  0  0  0  0  0  0  0  0
    2.6006    0.4483   -0.2990 N   0  0  0  0  0  0  0  0  0  0  0  0
    1.4747    0.4811   -1.1626 C   0  0  0  0  0  0  0  0  0  0  0  0
    1.3374    1.2465   -2.1544 O   0  0  0  0  0  0  0  0  0  0  0  0
    3.5544    1.4775   -0.0299 C   0  0  0  0  0  0  0  0  0  0  0  0
    3.4086    2.4168    0.9687 C   0  0  0  0  0  0  0  0  0  0  0  0
    4.3901    3.3868    1.1620 C   0  0  0  0  0  0  0  0  0  0  0  0
    5.5309    3.4536    0.3809 C   0  0  0  0  0  0  0  0  0  0  0  0
    5.6733    2.5130   -0.6166 C   0  0  0  0  0  0  0  0  0  0  0  0
    4.6913    1.5458   -0.8069 C   0  0  0  0  0  0  0  0  0  0  0  0
    6.5516    4.4686    0.5883 C   0  0  0  0  0  0  0  0  0  0  0  0
    7.6688    4.4825   -0.2264 O   0  0  0  0  0  0  0  0  0  0  0  0
    6.4746    5.3475    1.4795 O   0  0  0  0  0  0  0  0  0  0  0  0
    1.3987   -3.0088   -0.3315 C   0  0  0  0  0  0  0  0  0  0  0  0
    1.1886   -3.7846    0.8188 C   0  0  0  0  0  0  0  0  0  0  0  0
    1.0987   -5.1597    0.7095 C   0  0  0  0  0  0  0  0  0  0  0  0
    0.9073   -5.8798    1.7456 O   0  0  0  0  0  0  0  0  0  0  0  0
    1.2054   -5.7933   -0.4672 N   0  0  0  0  0  0  0  0  0  0  0  0
    1.4084   -5.0323   -1.5682 C   0  0  0  0  0  0  0  0  0  0  0  0
    1.4965   -3.7088   -1.4762 N   0  0  0  0  0  0  0  0  0  0  0  0
   -5.6212    1.0129   -1.8853 H   0  0  0  0  0  0  0  0  0  0  0  0
   -6.3482   -0.5069   -1.3002 H   0  0  0  0  0  0  0  0  0  0  0  0
   -7.2833    1.0918   -1.2533 H   0  0  0  0  0  0  0  0  0  0  0  0
   -7.5827    1.7139    1.0532 H   0  0  0  0  0  0  0  0  0  0  0  0
   -6.5823    2.0996    3.2748 H   0  0  0  0  0  0  0  0  0  0  0  0
   -4.2118    1.4552    3.6751 H   0  0  0  0  0  0  0  0  0  0  0  0
   -4.1969   -1.0394   -0.9856 H   0  0  0  0  0  0  0  0  0  0  0  0
   -3.5844    0.5717   -1.4925 H   0  0  0  0  0  0  0  0  0  0  0  0
   -1.1770    1.1607   -0.9316 H   0  0  0  0  0  0  0  0  0  0  0  0
   -1.7859    1.4456    0.7207 H   0  0  0  0  0  0  0  0  0  0  0  0
   -0.4135   -0.7130    1.3314 H   0  0  0  0  0  0  0  0  0  0  0  0
    0.4514    0.8698    0.9997 H   0  0  0  0  0  0  0  0  0  0  0  0
   -0.1059   -1.8593   -2.2865 H   0  0  0  0  0  0  0  0  0  0  0  0
   -0.7460   -0.2115   -2.3647 H   0  0  0  0  0  0  0  0  0  0  0  0
   -2.3927   -1.9764   -1.6185 H   0  0  0  0  0  0  0  0  0  0  0  0
   -1.3686   -2.2633   -0.1969 H   0  0  0  0  0  0  0  0  0  0  0  0
    2.5144    2.3576    1.5745 H   0  0  0  0  0  0  0  0  0  0  0  0
    4.2767    4.1221    1.9430 H   0  0  0  0  0  0  0  0  0  0  0  0
    6.5670    2.5630   -1.2315 H   0  0  0  0  0  0  0  0  0  0  0  0
    4.8089    0.8147   -1.5894 H   0  0  0  0  0  0  0  0  0  0  0  0
    8.1927    3.6037   -0.3231 H   0  0  0  0  0  0  0  0  0  0  0  0
    1.1028   -3.2988    1.7674 H   0  0  0  0  0  0  0  0  0  0  0  0
    1.1444   -6.8157   -0.5903 H   0  0  0  0  0  0  0  0  0  0  0  0
    1.5028   -5.5014   -2.5427 H   0  0  0  0  0  0  0  0  0  0  0  0
  1  2  1  0
  2  3  2  0
  3  4  1  0
  4  5  2  0
  5  6  1  0
  6  7  2  0
  7  8  1  0
  8  9  1  0
  9 10  1  0
 10 11  1  0
 11 12  1  0
 12 13  1  0
 13 14  1  0
 12 15  1  0
 15 16  1  0
 16 17  2  0
 16 18  1  0
 18 19  1  0
 19 20  2  0
 18 21  1  0
 21 22  2  0
 22 23  1  0
 23 24  2  0
 24 25  1  0
 25 26  2  0
 24 27  1  0
 27 28  1  0
 27 29  2  0
 15 30  1  0
 30 31  2  0
 31 32  1  0
 32 33  2  0
 32 34  1  0
 34 35  1  0
 35 36  2  0
  7  2  1  0
 14  9  1  0
 26 21  1  0
 36 30  1  0
 19 12  1  0
  1 37  1  0
  1 38  1  0
  1 39  1  0
  3 40  1  0
  4 41  1  0
  5 42  1  0
  8 43  1  0
  8 44  1  0
 10 45  1  0
 10 46  1  0
 11 47  1  0
 11 48  1  0
 13 49  1  0
 13 50  1  0
 14 51  1  0
 14 52  1  0
 22 53  1  0
 23 54  1  0
 25 55  1  0
 26 56  1  0
 28 57  1  0
 31 58  1  0
 34 59  1  0
 35 60  1  0
M  END
$$$$
[H]OC(=O)C([H])([H])N([H])C(=O)C1=C(O[H])C([H])([H])C([H])([H])N(C([H])([H])c2c([H])c([H])c(Oc3c([H])c([H])c([H])c([H])c3[H])c([H])c2[H])C1=O
     RDKit          3D

 49 51  0  0  0  0  0  0  0  0999 V2000
   -8.0269   -0.3092    2.7545 O   0  0  0  0  0  0  0  0  0  0  0  0
   -6.9798   -0.3181    1.8205 C   0  0  0  0  0  0  0  0  0  0  0  0
   -7.2222    0.0974    0.6671 O   0  0  0  0  0  0  0  0  0  0  0  0
   -5.6496   -0.8138    2.2390 C   0  0  0  0  0  0  0  0  0  0  0  0
   -4.6571   -0.7168    1.1804 N   0  0  0  0  0  0  0  0  0  0  0  0
   -4.2679    0.5104    0.6134 C   0  0  0  0  0  0  0  0  0  0  0  0
   -4.8410    1.5487    1.0946 O   0  0  0  0  0  0  0  0  0  0  0  0
   -3.3019    0.6939   -0.4382 C   0  0  0  0  0  0  0  0  0  0  0  0
   -3.0562    1.9457   -0.8560 C   0  0  0  0  0  0  0  0  0  0  0  0
   -3.7439    3.0262   -0.2591 O   0  0  0  0  0  0  0  0  0  0  0  0
   -2.1035    2.3096   -1.9135 C   0  0  0  0  0  0  0  0  0  0  0  0
   -1.8862    1.1786   -2.8575 C   0  0  0  0  0  0  0  0  0  0  0  0
   -1.6267   -0.0257   -2.1458 N   0  0  0  0  0  0  0  0  0  0  0  0
   -0.5554   -0.9385   -2.3670 C   0  0  0  0  0  0  0  0  0  0  0  0
    0.6686   -0.7410   -1.6156 C   0  0  0  0  0  0  0  0  0  0  0  0
    1.8258   -1.3670   -1.9966 C   0  0  0  0  0  0  0  0  0  0  0  0
    3.0280   -1.2312   -1.3313 C   0  0  0  0  0  0  0  0  0  0  0  0
    3.0821   -0.4240   -0.2201 C   0  0  0  0  0  0  0  0  0  0  0  0
    4.1524   -0.2154    0.4900 O   0  0  0  0  0  0  0  0  0  0  0  0
    5.4049   -0.3603    0.7919 C   0  0  0  0  0  0  0  0  0  0  0  0
    6.3081   -1.1263    0.1020 C   0  0  0  0  0  0  0  0  0  0  0  0
    7.6266   -1.2192    0.5017 C   0  0  0  0  0  0  0  0  0  0  0  0
    8.0638   -0.5269    1.6263 C   0  0  0  0  0  0  0  0  0  0  0  0
    7.1889    0.2497    2.3419 C   0  0  0  0  0  0  0  0  0  0  0  0
    5.8911    0.3279    1.9304 C   0  0  0  0  0  0  0  0  0  0  0  0
    1.8908    0.2183    0.1694 C   0  0  0  0  0  0  0  0  0  0  0  0
    0.7157    0.0613   -0.5135 C   0  0  0  0  0  0  0  0  0  0  0  0
   -2.5664   -0.3598   -1.0962 C   0  0  0  0  0  0  0  0  0  0  0  0
   -2.7111   -1.5790   -0.7892 O   0  0  0  0  0  0  0  0  0  0  0  0
   -8.9411   -0.6706    2.5441 H   0  0  0  0  0  0  0  0  0  0  0  0
   -5.7645   -1.8616    2.5369 H   0  0  0  0  0  0  0  0  0  0  0  0
   -5.3077   -0.2306    3.1409 H   0  0  0  0  0  0  0  0  0  0  0  0
   -4.2455   -1.5997    0.8596 H   0  0  0  0  0  0  0  0  0  0  0  0
   -3.1351    3.7648    0.1035 H   0  0  0  0  0  0  0  0  0  0  0  0
   -2.4977    3.2304   -2.4379 H   0  0  0  0  0  0  0  0  0  0  0  0
   -1.1548    2.6691   -1.4401 H   0  0  0  0  0  0  0  0  0  0  0  0
   -1.1524    1.4018   -3.6553 H   0  0  0  0  0  0  0  0  0  0  0  0
   -2.8601    1.0382   -3.4156 H   0  0  0  0  0  0  0  0  0  0  0  0
   -0.3791   -0.9314   -3.4868 H   0  0  0  0  0  0  0  0  0  0  0  0
   -0.8770   -2.0101   -2.1868 H   0  0  0  0  0  0  0  0  0  0  0  0
    1.8491   -2.0280   -2.8792 H   0  0  0  0  0  0  0  0  0  0  0  0
    3.9189   -1.7725   -1.7044 H   0  0  0  0  0  0  0  0  0  0  0  0
    5.9816   -1.6627   -0.7649 H   0  0  0  0  0  0  0  0  0  0  0  0
    8.3065   -1.8371   -0.0745 H   0  0  0  0  0  0  0  0  0  0  0  0
    9.0853   -0.5836    1.9565 H   0  0  0  0  0  0  0  0  0  0  0  0
    7.5448    0.7920    3.2279 H   0  0  0  0  0  0  0  0  0  0  0  0
    5.2006    0.9484    2.5057 H   0  0  0  0  0  0  0  0  0  0  0  0
    1.9558    0.8615    1.0631 H   0  0  0  0  0  0  0  0  0  0  0  0
   -0.1781    0.5860   -0.1584 H   0  0  0  0  0  0  0  0  0  0  0  0
  1  2  1  0
  2  3  2  0
  2  4  1  0
  4  5  1  0
  5  6  1  0
  6  7  2  0
  6  8  1  0
  8  9  2  0
  9 10  1  0
  9 11  1  0
 11 12  1  0
 12 13  1  0
 13 14  1  0
 14 15  1  0
 15 16  2  0
 16 17  1  0
 17 18  2  0
 18 19  1  0
 19 20  1  0
 20 21  2  0
 21 22  1  0
 22 23  2  0
 23 24  1  0
 24 25  2  0
 18 26  1  0
 26 27  2  0
 13 28  1  0
 28 29  2  0
 28  8  1  0
 27 15  1  0
 25 20  1  0
  1 30  1  0
  4 31  1  0
  4 32  1  0
  5 33  1  0
 10 34  1  0
 11 35  1  0
 11 36  1  0
 12 37  1  0
 12 38  1  0
 14 39  1  0
 14 40  1  0
 16 41  1  0
 17 42  1  0
 21 43  1  0
 22 44  1  0
 23 45  1  0
 24 46  1  0
 25 47  1  0
 26 48  1  0
 27 49  1  0
M  END
$$$$
[H]OC(=O)c1c([H])c([H])c(N2C(=O)N(c3c([H])c([H])c(C#N)c([H])c3[H])C3(C2=O)C([H])([H])C([H])([H])N(C([H])([H])c2nc([H])c([H])c([H])c2C([H])([H])[H])C([H])([H])C3([H])[H])c([H])c1[H]
     RDKit          3D

 62 66  0  0  0  0  0  0  0  0999 V2000
    6.5242    0.8291    0.1650 C   0  0  0  0  0  0  0  0  0  0  0  0
    5.8480   -0.5013    0.0214 C   0  0  0  0  0  0  0  0  0  0  0  0
    6.7145   -1.5860   -0.0813 C   0  0  0  0  0  0  0  0  0  0  0  0
    6.1430   -2.8337   -0.2181 C   0  0  0  0  0  0  0  0  0  0  0  0
    4.7659   -2.9616   -0.2480 C   0  0  0  0  0  0  0  0  0  0  0  0
    3.9822   -1.8757   -0.1444 N   0  0  0  0  0  0  0  0  0  0  0  0
    4.4817   -0.6436   -0.0099 C   0  0  0  0  0  0  0  0  0  0  0  0
    3.6546    0.5565    0.1082 C   0  0  0  0  0  0  0  0  0  0  0  0
    2.2732    0.3869    0.0692 N   0  0  0  0  0  0  0  0  0  0  0  0
    1.6531   -0.1857   -1.0599 C   0  0  0  0  0  0  0  0  0  0  0  0
    0.3982    0.6605   -1.3254 C   0  0  0  0  0  0  0  0  0  0  0  0
   -0.5495    0.3758   -0.2013 C   0  0  0  0  0  0  0  0  0  0  0  0
    0.0930   -0.0170    1.0829 C   0  0  0  0  0  0  0  0  0  0  0  0
    1.5128    0.4563    1.2536 C   0  0  0  0  0  0  0  0  0  0  0  0
   -1.5555    1.4076   -0.0348 N   0  0  0  0  0  0  0  0  0  0  0  0
   -2.7593    0.7294    0.3543 C   0  0  0  0  0  0  0  0  0  0  0  0
   -3.7659    1.2330    0.9457 O   0  0  0  0  0  0  0  0  0  0  0  0
   -2.6801   -0.6338   -0.0216 N   0  0  0  0  0  0  0  0  0  0  0  0
   -1.4021   -0.7802   -0.6497 C   0  0  0  0  0  0  0  0  0  0  0  0
   -1.0677   -1.7000   -1.4239 O   0  0  0  0  0  0  0  0  0  0  0  0
   -3.6703   -1.6321    0.1885 C   0  0  0  0  0  0  0  0  0  0  0  0
   -3.2568   -2.9225    0.5397 C   0  0  0  0  0  0  0  0  0  0  0  0
   -4.1550   -3.9341    0.7559 C   0  0  0  0  0  0  0  0  0  0  0  0
   -5.5043   -3.6650    0.6218 C   0  0  0  0  0  0  0  0  0  0  0  0
   -5.9197   -2.3928    0.2752 C   0  0  0  0  0  0  0  0  0  0  0  0
   -5.0172   -1.3987    0.0636 C   0  0  0  0  0  0  0  0  0  0  0  0
   -6.4807   -4.7074    0.8422 C   0  0  0  0  0  0  0  0  0  0  0  0
   -6.0594   -5.9709    1.1856 O   0  0  0  0  0  0  0  0  0  0  0  0
   -7.6950   -4.4600    0.7213 O   0  0  0  0  0  0  0  0  0  0  0  0
   -1.4662    2.8041   -0.1964 C   0  0  0  0  0  0  0  0  0  0  0  0
   -1.1400    3.6729    0.8329 C   0  0  0  0  0  0  0  0  0  0  0  0
   -1.0611    5.0313    0.6400 C   0  0  0  0  0  0  0  0  0  0  0  0
   -1.3029    5.5882   -0.5842 C   0  0  0  0  0  0  0  0  0  0  0  0
   -1.6293    4.7517   -1.6268 C   0  0  0  0  0  0  0  0  0  0  0  0
   -1.7066    3.3794   -1.4227 C   0  0  0  0  0  0  0  0  0  0  0  0
   -1.2279    7.0174   -0.8151 C   0  0  0  0  0  0  0  0  0  0  0  0
   -1.1543    8.1625   -1.0137 N   0  0  0  0  0  0  0  0  0  0  0  0
    6.6662    1.2664   -0.8619 H   0  0  0  0  0  0  0  0  0  0  0  0
    7.5031    0.7114    0.6260 H   0  0  0  0  0  0  0  0  0  0  0  0
    5.9527    1.5296    0.8028 H   0  0  0  0  0  0  0  0  0  0  0  0
    7.7916   -1.4654   -0.0566 H   0  0  0  0  0  0  0  0  0  0  0  0
    6.7528   -3.7291   -0.3039 H   0  0  0  0  0  0  0  0  0  0  0  0
    4.3676   -3.9679   -0.3575 H   0  0  0  0  0  0  0  0  0  0  0  0
    3.9909    1.0930    1.0395 H   0  0  0  0  0  0  0  0  0  0  0  0
    3.9576    1.2403   -0.7366 H   0  0  0  0  0  0  0  0  0  0  0  0
    1.2627   -1.1926   -0.7953 H   0  0  0  0  0  0  0  0  0  0  0  0
    2.3165   -0.2124   -1.9254 H   0  0  0  0  0  0  0  0  0  0  0  0
   -0.0140    0.4966   -2.3189 H   0  0  0  0  0  0  0  0  0  0  0  0
    0.7378    1.7118   -1.2546 H   0  0  0  0  0  0  0  0  0  0  0  0
    0.0287   -1.1148    1.2767 H   0  0  0  0  0  0  0  0  0  0  0  0
   -0.4999    0.4495    1.9152 H   0  0  0  0  0  0  0  0  0  0  0  0
    1.9578   -0.0897    2.1018 H   0  0  0  0  0  0  0  0  0  0  0  0
    1.4376    1.5433    1.5536 H   0  0  0  0  0  0  0  0  0  0  0  0
   -2.2001   -3.1181    0.6409 H   0  0  0  0  0  0  0  0  0  0  0  0
   -3.8412   -4.9451    1.0296 H   0  0  0  0  0  0  0  0  0  0  0  0
   -6.9632   -2.2089    0.1786 H   0  0  0  0  0  0  0  0  0  0  0  0
   -5.3512   -0.4145   -0.2053 H   0  0  0  0  0  0  0  0  0  0  0  0
   -6.1353   -6.7006    0.4762 H   0  0  0  0  0  0  0  0  0  0  0  0
   -0.9483    3.2245    1.8103 H   0  0  0  0  0  0  0  0  0  0  0  0
   -0.8057    5.6582    1.4698 H   0  0  0  0  0  0  0  0  0  0  0  0
   -1.8155    5.2146   -2.5840 H   0  0  0  0  0  0  0  0  0  0  0  0
   -1.9670    2.7798   -2.2808 H   0  0  0  0  0  0  0  0  0  0  0  0
  1  2  1  0
  2  3  2  0
  3  4  1  0
  4  5  2  0
  5  6  1  0
  6  7  2  0
  7  8  1  0
  8  9  1  0
  9 10  1  0
 10 11  1  0
 11 12  1  0
 12 13  1  0
 13 14  1  0
 12 15  1  0
 15 16  1  0
 16 17  2  0
 16 18  1  0
 18 19  1  0
 19 20  2  0
 18 21  1  0
 21 22  2  0
 22 23  1  0
 23 24  2  0
 24 25  1  0
 25 26  2  0
 24 27  1  0
 27 28  1  0
 27 29  2  0
 15 30  1  0
 30 31  2  0
 31 32  1  0
 32 33  2  0
 33 34  1  0
 34 35  2  0
 33 36  1  0
 36 37  3  0
  7  2  1  0
 14  9  1  0
 26 21  1  0
 35 30  1  0
 19 12  1  0
  1 38  1  0
  1 39  1  0
  1 40  1  0
  3 41  1  0
  4 42  1  0
  5 43  1  0
  8 44  1  0
  8 45  1  0
 10 46  1  0
 10 47  1  0
 11 48  1  0
 11 49  1  0
 13 50  1  0
 13 51  1  0
 14 52  1  0
 14 53  1  0
 22 54  1  0
 23 55  1  0
 25 56  1  0
 26 57  1  0
 28 58  1  0
 31 59  1  0
 32 60  1  0
 34 61  1  0
 35 62  1  0
M  END
$$$$
[H]c1nc([H])c(N2C(=O)N(c3c([H])c([H])c(-c4c([H])c([H])c([H])c([H])c4[H])c([H])c3[H])C(=O)C23C([H])([H])C([H])([H])N(C([H])([H])c2nc([H])c([H])c([H])c2C([H])([H])[H])C([H])([H])C3([H])[H])nc1[H]
     RDKit          3D

 66 71  0  0  0  0  0  0  0  0999 V2000
   -4.6434    3.0991   -1.4961 C   0  0  0  0  0  0  0  0  0  0  0  0
   -5.7804    2.4076   -0.7677 C   0  0  0  0  0  0  0  0  0  0  0  0
   -7.0648    2.7232   -1.1059 C   0  0  0  0  0  0  0  0  0  0  0  0
   -8.0916    1.9193   -0.5583 C   0  0  0  0  0  0  0  0  0  0  0  0
   -7.7583    0.8682    0.2965 C   0  0  0  0  0  0  0  0  0  0  0  0
   -6.4562    0.6825    0.5603 N   0  0  0  0  0  0  0  0  0  0  0  0
   -5.4450    1.3735    0.0913 C   0  0  0  0  0  0  0  0  0  0  0  0
   -4.0655    1.3435    0.6050 C   0  0  0  0  0  0  0  0  0  0  0  0
   -3.1795    0.3634    0.3330 N   0  0  0  0  0  0  0  0  0  0  0  0
   -3.3521   -0.9731    0.4144 C   0  0  0  0  0  0  0  0  0  0  0  0
   -2.2529   -1.7155   -0.4303 C   0  0  0  0  0  0  0  0  0  0  0  0
   -0.9149   -1.3989    0.1169 C   0  0  0  0  0  0  0  0  0  0  0  0
   -0.9469   -0.2192    1.1022 C   0  0  0  0  0  0  0  0  0  0  0  0
   -1.8272    0.8750    0.5622 C   0  0  0  0  0  0  0  0  0  0  0  0
   -0.1625   -2.4472    0.6046 N   0  0  0  0  0  0  0  0  0  0  0  0
    1.1990   -1.8763    0.7160 C   0  0  0  0  0  0  0  0  0  0  0  0
    2.0366   -2.2151    1.5800 O   0  0  0  0  0  0  0  0  0  0  0  0
    1.3050   -0.8990   -0.3372 N   0  0  0  0  0  0  0  0  0  0  0  0
    0.0608   -0.8979   -0.9840 C   0  0  0  0  0  0  0  0  0  0  0  0
   -0.2296   -0.5757   -2.1521 O   0  0  0  0  0  0  0  0  0  0  0  0
    2.5273   -0.1772   -0.6011 C   0  0  0  0  0  0  0  0  0  0  0  0
    3.7024   -0.9022   -0.3041 C   0  0  0  0  0  0  0  0  0  0  0  0
    4.9528   -0.3229   -0.3201 C   0  0  0  0  0  0  0  0  0  0  0  0
    4.9723    1.0188   -0.6436 C   0  0  0  0  0  0  0  0  0  0  0  0
    3.8770    1.7288   -0.9625 C   0  0  0  0  0  0  0  0  0  0  0  0
    2.5996    1.1127   -0.9421 C   0  0  0  0  0  0  0  0  0  0  0  0
    6.2819    1.6940   -0.4032 C   0  0  0  0  0  0  0  0  0  0  0  0
    7.4913    1.1168   -0.5432 C   0  0  0  0  0  0  0  0  0  0  0  0
    8.6220    1.8054   -0.1045 C   0  0  0  0  0  0  0  0  0  0  0  0
    8.5224    3.0380    0.4541 C   0  0  0  0  0  0  0  0  0  0  0  0
    7.2596    3.6231    0.5823 C   0  0  0  0  0  0  0  0  0  0  0  0
    6.1613    2.9359    0.1535 C   0  0  0  0  0  0  0  0  0  0  0  0
   -0.2246   -3.8500    0.9313 C   0  0  0  0  0  0  0  0  0  0  0  0
   -0.2116   -4.7837   -0.0790 C   0  0  0  0  0  0  0  0  0  0  0  0
   -0.0530   -6.1329    0.1560 N   0  0  0  0  0  0  0  0  0  0  0  0
    0.1000   -6.4906    1.4325 C   0  0  0  0  0  0  0  0  0  0  0  0
    0.0788   -5.6067    2.4610 C   0  0  0  0  0  0  0  0  0  0  0  0
   -0.0895   -4.2716    2.1968 N   0  0  0  0  0  0  0  0  0  0  0  0
   -5.0442    3.8203   -2.1979 H   0  0  0  0  0  0  0  0  0  0  0  0
   -4.1686    2.2313   -2.0582 H   0  0  0  0  0  0  0  0  0  0  0  0
   -3.9167    3.5594   -0.8214 H   0  0  0  0  0  0  0  0  0  0  0  0
   -7.3274    3.5212   -1.7791 H   0  0  0  0  0  0  0  0  0  0  0  0
   -9.0883    2.1819   -0.8092 H   0  0  0  0  0  0  0  0  0  0  0  0
   -8.5738    0.3183    0.7018 H   0  0  0  0  0  0  0  0  0  0  0  0
   -3.6941    2.4002    0.6827 H   0  0  0  0  0  0  0  0  0  0  0  0
   -4.2791    1.1784    1.8060 H   0  0  0  0  0  0  0  0  0  0  0  0
   -3.3813   -1.4148    1.4209 H   0  0  0  0  0  0  0  0  0  0  0  0
   -4.3189   -1.2678   -0.1262 H   0  0  0  0  0  0  0  0  0  0  0  0
   -2.3622   -1.2276   -1.4271 H   0  0  0  0  0  0  0  0  0  0  0  0
   -2.5681   -2.7517   -0.4008 H   0  0  0  0  0  0  0  0  0  0  0  0
   -1.3441   -0.5501    2.0928 H   0  0  0  0  0  0  0  0  0  0  0  0
    0.0452    0.2031    1.2257 H   0  0  0  0  0  0  0  0  0  0  0  0
   -1.4018    1.3520   -0.3321 H   0  0  0  0  0  0  0  0  0  0  0  0
   -1.8696    1.6883    1.3456 H   0  0  0  0  0  0  0  0  0  0  0  0
    3.6329   -1.9301   -0.0667 H   0  0  0  0  0  0  0  0  0  0  0  0
    5.8569   -0.8654   -0.1022 H   0  0  0  0  0  0  0  0  0  0  0  0
    3.9184    2.7597   -1.2652 H   0  0  0  0  0  0  0  0  0  0  0  0
    1.7224    1.6844   -1.1881 H   0  0  0  0  0  0  0  0  0  0  0  0
    7.6262    0.1443   -0.9939 H   0  0  0  0  0  0  0  0  0  0  0  0
    9.6304    1.3804   -0.1833 H   0  0  0  0  0  0  0  0  0  0  0  0
    9.3978    3.6249    0.8159 H   0  0  0  0  0  0  0  0  0  0  0  0
    7.1913    4.5945    1.0532 H   0  0  0  0  0  0  0  0  0  0  0  0
    5.1706    3.4004    0.2726 H   0  0  0  0  0  0  0  0  0  0  0  0
   -0.3417   -4.4595   -1.0960 H   0  0  0  0  0  0  0  0  0  0  0  0
    0.2914   -7.5767    1.6203 H   0  0  0  0  0  0  0  0  0  0  0  0
    0.1961   -5.9726    3.4889 H   0  0  0  0  0  0  0  0  0  0  0  0
  1  2  1  0
  2  3  2  0
  3  4  1  0
  4  5  2  0
  5  6  1  0
  6  7  2  0
  7  8  1  0
  8  9  1  0
  9 10  1  0
 10 11  1  0
 11 12  1  0
 12 13  1  0
 13 14  1  0
 12 15  1  0
 15 16  1  0
 16 17  2  0
 16 18  1  0
 18 19  1  0
 19 20  2  0
 18 21  1  0
 21 22  2  0
 22 23  1  0
 23 24  2  0
 24 25  1  0
 25 26  2  0
 24 27  1  0
 27 28  2  0
 28 29  1  0
 29 30  2  0
 30 31  1  0
 31 32  2  0
 15 33  1  0
 33 34  2  0
 34 35  1  0
 35 36  2  0
 36 37  1  0
 37 38  2  0
  7  2  1  0
 14  9  1  0
 26 21  1  0
 32 27  1  0
 38 33  1  0
 19 12  1  0
  1 39  1  0
  1 40  1  0
  1 41  1  0
  3 42  1  0
  4 43  1  0
  5 44  1  0
  8 45  1  0
  8 46  1  0
 10 47  1  0
 10 48  1  0
 11 49  1  0
 11 50  1  0
 13 51  1  0
 13 52  1  0
 14 53  1  0
 14 54  1  0
 22 55  1  0
 23 56  1  0
 25 57  1  0
 26 58  1  0
 28 59  1  0
 29 60  1  0
 30 61  1  0
 31 62  1  0
 32 63  1  0
 34 64  1  0
 36 65  1  0
 37 66  1  0
M  END
$$$$
[H]OC(=O)c1c([H])c([H])c(N2C(=O)N(c3c([H])c([H])c(-c4c([H])c([H])c([H])c([H])c4[H])c([H])c3[H])C3(C2=O)C([H])([H])C([H])([H])N(C([H])([H])c2c([H])c([H])c([H])c([H])c2C([H])([H])[H])C([H])([H])C3([H])[H])c([H])c1[H]
     RDKit          3D

 72 77  0  0  0  0  0  0  0  0999 V2000
    6.7166    0.6815    0.5531 C   0  0  0  0  0  0  0  0  0  0  0  0
    6.3356   -0.7089    0.2523 C   0  0  0  0  0  0  0  0  0  0  0  0
    7.2976   -1.6808    0.2811 C   0  0  0  0  0  0  0  0  0  0  0  0
    6.9677   -2.9692    0.0178 C   0  0  0  0  0  0  0  0  0  0  0  0
    5.6876   -3.2901   -0.2721 C   0  0  0  0  0  0  0  0  0  0  0  0
    4.6894   -2.2883   -0.3030 C   0  0  0  0  0  0  0  0  0  0  0  0
    4.9754   -0.9944   -0.0486 C   0  0  0  0  0  0  0  0  0  0  0  0
    4.0535    0.1045   -0.0582 C   0  0  0  0  0  0  0  0  0  0  0  0
    2.7177    0.1108   -0.3199 N   0  0  0  0  0  0  0  0  0  0  0  0
    2.1128    1.4362   -0.2042 C   0  0  0  0  0  0  0  0  0  0  0  0
    0.7828    1.2122    0.4812 C   0  0  0  0  0  0  0  0  0  0  0  0
   -0.1255    0.6630   -0.6282 C   0  0  0  0  0  0  0  0  0  0  0  0
    0.6126   -0.3153   -1.4248 C   0  0  0  0  0  0  0  0  0  0  0  0
    1.9070   -0.8619   -0.8504 C   0  0  0  0  0  0  0  0  0  0  0  0
   -1.4133    0.3222   -0.1273 N   0  0  0  0  0  0  0  0  0  0  0  0
   -1.9827    1.6059    0.2423 C   0  0  0  0  0  0  0  0  0  0  0  0
   -2.8552    1.8024    1.1446 O   0  0  0  0  0  0  0  0  0  0  0  0
   -1.3920    2.6001   -0.5835 N   0  0  0  0  0  0  0  0  0  0  0  0
   -0.4854    1.9019   -1.4299 C   0  0  0  0  0  0  0  0  0  0  0  0
   -0.0836    2.2367   -2.5672 O   0  0  0  0  0  0  0  0  0  0  0  0
   -1.6139    4.0074   -0.6117 C   0  0  0  0  0  0  0  0  0  0  0  0
   -1.9470    4.6906   -1.7617 C   0  0  0  0  0  0  0  0  0  0  0  0
   -2.1358    6.0544   -1.6730 C   0  0  0  0  0  0  0  0  0  0  0  0
   -2.0043    6.7496   -0.4879 C   0  0  0  0  0  0  0  0  0  0  0  0
   -1.6745    6.0577    0.6416 C   0  0  0  0  0  0  0  0  0  0  0  0
   -1.4817    4.6975    0.5754 C   0  0  0  0  0  0  0  0  0  0  0  0
   -2.2252    8.2021   -0.4944 C   0  0  0  0  0  0  0  0  0  0  0  0
   -2.1011    8.9364    0.6705 O   0  0  0  0  0  0  0  0  0  0  0  0
   -2.5293    8.8075   -1.5489 O   0  0  0  0  0  0  0  0  0  0  0  0
   -2.1309   -0.8833    0.0504 C   0  0  0  0  0  0  0  0  0  0  0  0
   -2.4068   -1.2723    1.3442 C   0  0  0  0  0  0  0  0  0  0  0  0
   -3.1136   -2.4302    1.6285 C   0  0  0  0  0  0  0  0  0  0  0  0
   -3.5559   -3.2205    0.5821 C   0  0  0  0  0  0  0  0  0  0  0  0
   -3.2859   -2.8424   -0.7153 C   0  0  0  0  0  0  0  0  0  0  0  0
   -2.5872   -1.6959   -0.9602 C   0  0  0  0  0  0  0  0  0  0  0  0
   -4.3039   -4.4598    0.7858 C   0  0  0  0  0  0  0  0  0  0  0  0
   -4.0931   -5.2658    1.8887 C   0  0  0  0  0  0  0  0  0  0  0  0
   -4.8076   -6.4235    2.0608 C   0  0  0  0  0  0  0  0  0  0  0  0
   -5.7646   -6.8487    1.1615 C   0  0  0  0  0  0  0  0  0  0  0  0
   -5.9700   -6.0407    0.0646 C   0  0  0  0  0  0  0  0  0  0  0  0
   -5.2557   -4.8695   -0.1221 C   0  0  0  0  0  0  0  0  0  0  0  0
    6.5688    1.3650   -0.2918 H   0  0  0  0  0  0  0  0  0  0  0  0
    6.1246    0.9848    1.4706 H   0  0  0  0  0  0  0  0  0  0  0  0
    7.7633    0.7493    0.8626 H   0  0  0  0  0  0  0  0  0  0  0  0
    8.3441   -1.4241    0.5185 H   0  0  0  0  0  0  0  0  0  0  0  0
    7.7766   -3.6983    0.0550 H   0  0  0  0  0  0  0  0  0  0  0  0
    5.4623   -4.3258   -0.4771 H   0  0  0  0  0  0  0  0  0  0  0  0
    3.7184   -2.6926   -0.5359 H   0  0  0  0  0  0  0  0  0  0  0  0
    4.1697    0.6951    0.9553 H   0  0  0  0  0  0  0  0  0  0  0  0
    4.5097    0.9516   -0.7396 H   0  0  0  0  0  0  0  0  0  0  0  0
    1.9242    1.7846   -1.2359 H   0  0  0  0  0  0  0  0  0  0  0  0
    2.7607    2.1577    0.2833 H   0  0  0  0  0  0  0  0  0  0  0  0
    0.3347    2.1651    0.8046 H   0  0  0  0  0  0  0  0  0  0  0  0
    0.8600    0.4598    1.3054 H   0  0  0  0  0  0  0  0  0  0  0  0
    0.8851    0.1678   -2.4164 H   0  0  0  0  0  0  0  0  0  0  0  0
    0.0255   -1.2278   -1.7040 H   0  0  0  0  0  0  0  0  0  0  0  0
    2.3916   -1.3387   -1.7560 H   0  0  0  0  0  0  0  0  0  0  0  0
    1.6499   -1.7213   -0.1632 H   0  0  0  0  0  0  0  0  0  0  0  0
   -2.0501    4.1460   -2.6858 H   0  0  0  0  0  0  0  0  0  0  0  0
   -2.3945    6.5790   -2.5779 H   0  0  0  0  0  0  0  0  0  0  0  0
   -1.5663    6.5752    1.5792 H   0  0  0  0  0  0  0  0  0  0  0  0
   -1.2176    4.1654    1.4971 H   0  0  0  0  0  0  0  0  0  0  0  0
   -1.6812    8.6080    1.5198 H   0  0  0  0  0  0  0  0  0  0  0  0
   -2.0855   -0.6945    2.2141 H   0  0  0  0  0  0  0  0  0  0  0  0
   -3.3313   -2.7331    2.6559 H   0  0  0  0  0  0  0  0  0  0  0  0
   -3.6357   -3.4663   -1.5496 H   0  0  0  0  0  0  0  0  0  0  0  0
   -2.3783   -1.4046   -2.0012 H   0  0  0  0  0  0  0  0  0  0  0  0
   -3.3426   -4.9581    2.6226 H   0  0  0  0  0  0  0  0  0  0  0  0
   -4.6189   -7.0376    2.9398 H   0  0  0  0  0  0  0  0  0  0  0  0
   -6.3291   -7.7586    1.2970 H   0  0  0  0  0  0  0  0  0  0  0  0
   -6.7166   -6.3342   -0.6718 H   0  0  0  0  0  0  0  0  0  0  0  0
   -5.4524   -4.2579   -1.0085 H   0  0  0  0  0  0  0  0  0  0  0  0
  1  2  1  0
  2  3  2  0
  3  4  1  0
  4  5  2  0
  5  6  1  0
  6  7  2  0
  7  8  1  0
  8  9  1  0
  9 10  1  0
 10 11  1  0
 11 12  1  0
 12 13  1  0
 13 14  1  0
 12 15  1  0
 15 16  1  0
 16 17  2  0
 16 18  1  0
 18 19  1  0
 19 20  2  0
 18 21  1  0
 21 22  2  0
 22 23  1  0
 23 24  2  0
 24 25  1  0
 25 26  2  0
 24 27  1  0
 27 28  1  0
 27 29  2  0
 15 30  1  0
 30 31  2  0
 31 32  1  0
 32 33  2  0
 33 34  1  0
 34 35  2  0
 33 36  1  0
 36 37  2  0
 37 38  1  0
 38 39  2  0
 39 40  1  0
 40 41  2  0
  7  2  1  0
 14  9  1  0
 26 21  1  0
 35 30  1  0
 41 36  1  0
 19 12  1  0
  1 42  1  0
  1 43  1  0
  1 44  1  0
  3 45  1  0
  4 46  1  0
  5 47  1  0
  6 48  1  0
  8 49  1  0
  8 50  1  0
 10 51  1  0
 10 52  1  0
 11 53  1  0
 11 54  1  0
 13 55  1  0
 13 56  1  0
 14 57  1  0
 14 58  1  0
 22 59  1  0
 23 60  1  0
 25 61  1  0
 26 62  1  0
 28 63  1  0
 31 64  1  0
 32 65  1  0
 34 66  1  0
 35 67  1  0
 37 68  1  0
 38 69  1  0
 39 70  1  0
 40 71  1  0
 41 72  1  0
M  END
$$$$
[H]OC(=O)c1c([H])c([H])c(N2C(=O)N(c3c([H])c([H])c([H])c([H])c3[H])C3(C2=O)C([H])([H])C([H])([H])N(C([H])([H])c2nc([H])c([H])c([H])c2C([H])([H])[H])C([H])([H])C3([H])[H])c([H])c1[H]
     RDKit          3D

 61 65  0  0  0  0  0  0  0  0999 V2000
    4.7755   -1.6770   -0.5301 C   0  0  0  0  0  0  0  0  0  0  0  0
    5.3648   -0.3289   -0.3764 C   0  0  0  0  0  0  0  0  0  0  0  0
    6.7238   -0.2133   -0.1516 C   0  0  0  0  0  0  0  0  0  0  0  0
    7.3220    1.0177   -0.0040 C   0  0  0  0  0  0  0  0  0  0  0  0
    6.5323    2.1366   -0.0841 C   0  0  0  0  0  0  0  0  0  0  0  0
    5.2254    1.9893   -0.3020 N   0  0  0  0  0  0  0  0  0  0  0  0
    4.5865    0.8127   -0.4564 C   0  0  0  0  0  0  0  0  0  0  0  0
    3.2086    0.7457   -0.8529 C   0  0  0  0  0  0  0  0  0  0  0  0
    2.2325   -0.0119   -0.1969 N   0  0  0  0  0  0  0  0  0  0  0  0
    1.0152    0.1129   -1.0201 C   0  0  0  0  0  0  0  0  0  0  0  0
    0.0299   -0.8897   -0.5770 C   0  0  0  0  0  0  0  0  0  0  0  0
   -0.4649   -0.3765    0.7929 C   0  0  0  0  0  0  0  0  0  0  0  0
    0.6627   -0.2157    1.6955 C   0  0  0  0  0  0  0  0  0  0  0  0
    2.0506   -0.2615    1.1161 C   0  0  0  0  0  0  0  0  0  0  0  0
   -1.5885   -1.1856    1.0842 N   0  0  0  0  0  0  0  0  0  0  0  0
   -2.6973   -0.6094    0.3189 C   0  0  0  0  0  0  0  0  0  0  0  0
   -3.7557   -1.2025   -0.0111 O   0  0  0  0  0  0  0  0  0  0  0  0
   -2.3472    0.7368    0.0354 N   0  0  0  0  0  0  0  0  0  0  0  0
   -1.0840    0.9851    0.5966 C   0  0  0  0  0  0  0  0  0  0  0  0
   -0.6138    2.1210    0.8647 O   0  0  0  0  0  0  0  0  0  0  0  0
   -3.1395    1.6235   -0.7642 C   0  0  0  0  0  0  0  0  0  0  0  0
   -4.4608    1.8179   -0.4527 C   0  0  0  0  0  0  0  0  0  0  0  0
   -5.2837    2.6015   -1.2467 C   0  0  0  0  0  0  0  0  0  0  0  0
   -4.7710    3.1990   -2.3629 C   0  0  0  0  0  0  0  0  0  0  0  0
   -3.4201    2.9994   -2.6838 C   0  0  0  0  0  0  0  0  0  0  0  0
   -2.6036    2.2243   -1.9040 C   0  0  0  0  0  0  0  0  0  0  0  0
   -5.5958    3.9990   -3.2329 C   0  0  0  0  0  0  0  0  0  0  0  0
   -6.9643    4.0945   -2.8904 O   0  0  0  0  0  0  0  0  0  0  0  0
   -5.1840    4.5790   -4.2190 O   0  0  0  0  0  0  0  0  0  0  0  0
   -1.8059   -2.3637    1.8000 C   0  0  0  0  0  0  0  0  0  0  0  0
   -1.6738   -3.5252    1.0697 C   0  0  0  0  0  0  0  0  0  0  0  0
   -1.9346   -4.7386    1.6444 C   0  0  0  0  0  0  0  0  0  0  0  0
   -2.3379   -4.8311    2.9766 C   0  0  0  0  0  0  0  0  0  0  0  0
   -2.4605   -3.6633    3.6880 C   0  0  0  0  0  0  0  0  0  0  0  0
   -2.1907   -2.4262    3.0894 C   0  0  0  0  0  0  0  0  0  0  0  0
    5.5494   -2.3432   -0.9656 H   0  0  0  0  0  0  0  0  0  0  0  0
    3.9258   -1.7272   -1.2450 H   0  0  0  0  0  0  0  0  0  0  0  0
    4.5134   -2.1391    0.4470 H   0  0  0  0  0  0  0  0  0  0  0  0
    7.2996   -1.1600   -0.0766 H   0  0  0  0  0  0  0  0  0  0  0  0
    8.3793    1.1009    0.1516 H   0  0  0  0  0  0  0  0  0  0  0  0
    7.0142    3.1275    0.0173 H   0  0  0  0  0  0  0  0  0  0  0  0
    3.0813    0.7066   -1.9635 H   0  0  0  0  0  0  0  0  0  0  0  0
    2.8195    1.8846   -0.6933 H   0  0  0  0  0  0  0  0  0  0  0  0
    1.2872   -0.0071   -2.0819 H   0  0  0  0  0  0  0  0  0  0  0  0
    0.6311    1.1268   -0.9023 H   0  0  0  0  0  0  0  0  0  0  0  0
   -0.8678   -0.9460   -1.2155 H   0  0  0  0  0  0  0  0  0  0  0  0
    0.5373   -1.8657   -0.4004 H   0  0  0  0  0  0  0  0  0  0  0  0
    0.6189    0.7807    2.2722 H   0  0  0  0  0  0  0  0  0  0  0  0
    0.6143   -0.9590    2.5277 H   0  0  0  0  0  0  0  0  0  0  0  0
    2.7177    0.3728    1.7677 H   0  0  0  0  0  0  0  0  0  0  0  0
    2.4330   -1.3047    1.3492 H   0  0  0  0  0  0  0  0  0  0  0  0
   -4.8672    1.3537    0.4395 H   0  0  0  0  0  0  0  0  0  0  0  0
   -6.3235    2.7057   -0.9332 H   0  0  0  0  0  0  0  0  0  0  0  0
   -3.0133    3.4764   -3.5615 H   0  0  0  0  0  0  0  0  0  0  0  0
   -1.5747    2.0905   -2.1628 H   0  0  0  0  0  0  0  0  0  0  0  0
   -7.3080    4.6853   -2.1593 H   0  0  0  0  0  0  0  0  0  0  0  0
   -1.3527   -3.4828    0.0113 H   0  0  0  0  0  0  0  0  0  0  0  0
   -1.8182   -5.6329    1.0402 H   0  0  0  0  0  0  0  0  0  0  0  0
   -2.5515   -5.8210    3.4228 H   0  0  0  0  0  0  0  0  0  0  0  0
   -2.7715   -3.7260    4.7236 H   0  0  0  0  0  0  0  0  0  0  0  0
   -2.3259   -1.5728    3.7373 H   0  0  0  0  0  0  0  0  0  0  0  0
  1  2  1  0
  2  3  2  0
  3  4  1  0
  4  5  2  0
  5  6  1  0
  6  7  2  0
  7  8  1  0
  8  9  1  0
  9 10  1  0
 10 11  1  0
 11 12  1  0
 12 13  1  0
 13 14  1  0
 12 15  1  0
 15 16  1  0
 16 17  2  0
 16 18  1  0
 18 19  1  0
 19 20  2  0
 18 21  1  0
 21 22  2  0
 22 23  1  0
 23 24  2  0
 24 25  1  0
 25 26  2  0
 24 27  1  0
 27 28  1  0
 27 29  2  0
 15 30  1  0
 30 31  2  0
 31 32  1  0
 32 33  2  0
 33 34  1  0
 34 35  2  0
  7  2  1  0
 14  9  1  0
 26 21  1  0
 35 30  1  0
 19 12  1  0
  1 36  1  0
  1 37  1  0
  1 38  1  0
  3 39  1  0
  4 40  1  0
  5 41  1  0
  8 42  1  0
  8 43  1  0
 10 44  1  0
 10 45  1  0
 11 46  1  0
 11 47  1  0
 13 48  1  0
 13 49  1  0
 14 50  1  0
 14 51  1  0
 22 52  1  0
 23 53  1  0
 25 54  1  0
 26 55  1  0
 28 56  1  0
 31 57  1  0
 32 58  1  0
 33 59  1  0
 34 60  1  0
 35 61  1  0
M  END
$$$$
[H]OC(=O)C([H])([H])N([H])C(=O)C1=C(O[H])C([H])([H])C([H])([H])N(C([H])([H])c2c([H])c([H])c(Oc3c([H])c([H])c([H])c(F)c3[H])c([H])c2[H])C1=O
     RDKit          3D

 49 51  0  0  0  0  0  0  0  0999 V2000
   -8.1438    2.0592    0.4913 O   0  0  0  0  0  0  0  0  0  0  0  0
   -6.8853    1.4862    0.2859 C   0  0  0  0  0  0  0  0  0  0  0  0
   -6.5202    1.2878   -0.8814 O   0  0  0  0  0  0  0  0  0  0  0  0
   -6.0880    1.1612    1.4711 C   0  0  0  0  0  0  0  0  0  0  0  0
   -4.8032    0.5338    1.1641 N   0  0  0  0  0  0  0  0  0  0  0  0
   -4.6904   -0.6896    0.5051 C   0  0  0  0  0  0  0  0  0  0  0  0
   -5.8130   -1.2383    0.1867 O   0  0  0  0  0  0  0  0  0  0  0  0
   -3.4963   -1.4115    0.1381 C   0  0  0  0  0  0  0  0  0  0  0  0
   -3.6308   -2.5767   -0.4941 C   0  0  0  0  0  0  0  0  0  0  0  0
   -4.8952   -3.1158   -0.8097 O   0  0  0  0  0  0  0  0  0  0  0  0
   -2.4824   -3.4152   -0.9254 C   0  0  0  0  0  0  0  0  0  0  0  0
   -1.2415   -2.5803   -1.1549 C   0  0  0  0  0  0  0  0  0  0  0  0
   -1.0197   -1.7212    0.0204 N   0  0  0  0  0  0  0  0  0  0  0  0
    0.2546   -1.6961    0.6903 C   0  0  0  0  0  0  0  0  0  0  0  0
    1.1990   -0.6920    0.1600 C   0  0  0  0  0  0  0  0  0  0  0  0
    1.3673    0.5404    0.7487 C   0  0  0  0  0  0  0  0  0  0  0  0
    2.2684    1.4760    0.2225 C   0  0  0  0  0  0  0  0  0  0  0  0
    2.9942    1.1680   -0.8905 C   0  0  0  0  0  0  0  0  0  0  0  0
    3.8828    2.0902   -1.4099 O   0  0  0  0  0  0  0  0  0  0  0  0
    5.2066    2.0964   -0.9679 C   0  0  0  0  0  0  0  0  0  0  0  0
    6.1311    2.9948   -1.4544 C   0  0  0  0  0  0  0  0  0  0  0  0
    7.4342    3.0006   -1.0191 C   0  0  0  0  0  0  0  0  0  0  0  0
    7.8778    2.0973   -0.0657 C   0  0  0  0  0  0  0  0  0  0  0  0
    6.9538    1.1974    0.4224 C   0  0  0  0  0  0  0  0  0  0  0  0
    7.3918    0.3118    1.3580 F   0  0  0  0  0  0  0  0  0  0  0  0
    5.6322    1.1914   -0.0191 C   0  0  0  0  0  0  0  0  0  0  0  0
    2.8445   -0.0476   -1.4915 C   0  0  0  0  0  0  0  0  0  0  0  0
    1.9443   -0.9789   -0.9638 C   0  0  0  0  0  0  0  0  0  0  0  0
   -2.1525   -0.9400    0.4198 C   0  0  0  0  0  0  0  0  0  0  0  0
   -1.9044    0.1341    1.0053 O   0  0  0  0  0  0  0  0  0  0  0  0
   -8.1934    3.0562    0.7265 H   0  0  0  0  0  0  0  0  0  0  0  0
   -5.9767    2.0577    2.0787 H   0  0  0  0  0  0  0  0  0  0  0  0
   -6.6497    0.4024    2.0834 H   0  0  0  0  0  0  0  0  0  0  0  0
   -3.9668    1.0628    1.4713 H   0  0  0  0  0  0  0  0  0  0  0  0
   -5.3050   -3.6734   -0.0551 H   0  0  0  0  0  0  0  0  0  0  0  0
   -2.2208   -4.1485   -0.1214 H   0  0  0  0  0  0  0  0  0  0  0  0
   -2.7205   -3.9624   -1.8536 H   0  0  0  0  0  0  0  0  0  0  0  0
   -1.3375   -1.9854   -2.0732 H   0  0  0  0  0  0  0  0  0  0  0  0
   -0.3927   -3.2781   -1.2696 H   0  0  0  0  0  0  0  0  0  0  0  0
    0.1353   -1.5856    1.8083 H   0  0  0  0  0  0  0  0  0  0  0  0
    0.6763   -2.7399    0.5822 H   0  0  0  0  0  0  0  0  0  0  0  0
    0.8294    0.8316    1.6180 H   0  0  0  0  0  0  0  0  0  0  0  0
    2.3740    2.4237    0.7048 H   0  0  0  0  0  0  0  0  0  0  0  0
    5.8234    3.7199   -2.2032 H   0  0  0  0  0  0  0  0  0  0  0  0
    8.1844    3.7055   -1.3925 H   0  0  0  0  0  0  0  0  0  0  0  0
    8.9100    2.1027    0.2786 H   0  0  0  0  0  0  0  0  0  0  0  0
    4.9329    0.4885    0.3697 H   0  0  0  0  0  0  0  0  0  0  0  0
    3.4251   -0.2715   -2.3671 H   0  0  0  0  0  0  0  0  0  0  0  0
    1.8562   -1.9292   -1.4700 H   0  0  0  0  0  0  0  0  0  0  0  0
  1  2  1  0
  2  3  2  0
  2  4  1  0
  4  5  1  0
  5  6  1  0
  6  7  2  0
  6  8  1  0
  8  9  2  0
  9 10  1  0
  9 11  1  0
 11 12  1  0
 12 13  1  0
 13 14  1  0
 14 15  1  0
 15 16  2  0
 16 17  1  0
 17 18  2  0
 18 19  1  0
 19 20  1  0
 20 21  2  0
 21 22  1  0
 22 23  2  0
 23 24  1  0
 24 25  1  0
 24 26  2  0
 18 27  1  0
 27 28  2  0
 13 29  1  0
 29 30  2  0
 29  8  1  0
 28 15  1  0
 26 20  1  0
  1 31  1  0
  4 32  1  0
  4 33  1  0
  5 34  1  0
 10 35  1  0
 11 36  1  0
 11 37  1  0
 12 38  1  0
 12 39  1  0
 14 40  1  0
 14 41  1  0
 16 42  1  0
 17 43  1  0
 21 44  1  0
 22 45  1  0
 23 46  1  0
 26 47  1  0
 27 48  1  0
 28 49  1  0
M  END
$$$$
[H]OC(=O)C([H])([H])N([H])C(=O)C1=C(O[H])C([H])([H])C([H])([H])N(C([H])([H])c2c([H])nc(Oc3c([H])c([H])c([H])c(F)c3[H])c([H])c2[H])C1=O
     RDKit          3D

 48 50  0  0  0  0  0  0  0  0999 V2000
   -8.9672    1.1876    1.6531 O   0  0  0  0  0  0  0  0  0  0  0  0
   -7.9599    0.5710    0.9168 C   0  0  0  0  0  0  0  0  0  0  0  0
   -8.3088   -0.0680   -0.0995 O   0  0  0  0  0  0  0  0  0  0  0  0
   -6.5687    0.7138    1.3823 C   0  0  0  0  0  0  0  0  0  0  0  0
   -5.6842   -0.0108    0.4615 N   0  0  0  0  0  0  0  0  0  0  0  0
   -4.2991   -0.0490    0.6558 C   0  0  0  0  0  0  0  0  0  0  0  0
   -3.8899    0.6047    1.7059 O   0  0  0  0  0  0  0  0  0  0  0  0
   -3.3615   -0.7211   -0.1780 C   0  0  0  0  0  0  0  0  0  0  0  0
   -3.5506   -1.4251   -1.2645 C   0  0  0  0  0  0  0  0  0  0  0  0
   -4.8802   -1.5617   -1.7155 O   0  0  0  0  0  0  0  0  0  0  0  0
   -2.4793   -2.0954   -2.0620 C   0  0  0  0  0  0  0  0  0  0  0  0
   -1.2012   -1.3493   -1.9692 C   0  0  0  0  0  0  0  0  0  0  0  0
   -0.8940   -1.2089   -0.5460 N   0  0  0  0  0  0  0  0  0  0  0  0
    0.3394   -1.6444    0.0503 C   0  0  0  0  0  0  0  0  0  0  0  0
    1.4054   -0.6094    0.0543 C   0  0  0  0  0  0  0  0  0  0  0  0
    2.1269   -0.3773   -1.0837 C   0  0  0  0  0  0  0  0  0  0  0  0
    3.1148    0.5734   -1.0835 C   0  0  0  0  0  0  0  0  0  0  0  0
    3.3508    1.2726    0.0790 C   0  0  0  0  0  0  0  0  0  0  0  0
    4.3485    2.2320    0.0782 O   0  0  0  0  0  0  0  0  0  0  0  0
    5.6503    1.8340    0.3060 C   0  0  0  0  0  0  0  0  0  0  0  0
    6.7064    2.7282    0.3258 C   0  0  0  0  0  0  0  0  0  0  0  0
    7.9869    2.2976    0.5554 C   0  0  0  0  0  0  0  0  0  0  0  0
    8.2528    0.9698    0.7712 C   0  0  0  0  0  0  0  0  0  0  0  0
    7.2220    0.0580    0.7572 C   0  0  0  0  0  0  0  0  0  0  0  0
    7.4392   -1.2742    0.9670 F   0  0  0  0  0  0  0  0  0  0  0  0
    5.9392    0.4967    0.5262 C   0  0  0  0  0  0  0  0  0  0  0  0
    2.6426    1.0464    1.2000 N   0  0  0  0  0  0  0  0  0  0  0  0
    1.6711    0.1079    1.1911 C   0  0  0  0  0  0  0  0  0  0  0  0
   -1.9187   -0.6029    0.2164 C   0  0  0  0  0  0  0  0  0  0  0  0
   -1.6154    0.0488    1.2477 O   0  0  0  0  0  0  0  0  0  0  0  0
   -9.0033    2.1823    1.8085 H   0  0  0  0  0  0  0  0  0  0  0  0
   -6.4584    0.3195    2.4203 H   0  0  0  0  0  0  0  0  0  0  0  0
   -6.3328    1.7987    1.3857 H   0  0  0  0  0  0  0  0  0  0  0  0
   -6.1538   -0.4742   -0.3146 H   0  0  0  0  0  0  0  0  0  0  0  0
   -5.1578   -2.4598   -2.0638 H   0  0  0  0  0  0  0  0  0  0  0  0
   -2.3820   -3.1548   -1.7849 H   0  0  0  0  0  0  0  0  0  0  0  0
   -2.7973   -2.0922   -3.1400 H   0  0  0  0  0  0  0  0  0  0  0  0
   -0.3622   -1.8324   -2.5114 H   0  0  0  0  0  0  0  0  0  0  0  0
   -1.3002   -0.3481   -2.3915 H   0  0  0  0  0  0  0  0  0  0  0  0
    0.1559   -1.9826    1.0848 H   0  0  0  0  0  0  0  0  0  0  0  0
    0.6829   -2.5493   -0.5142 H   0  0  0  0  0  0  0  0  0  0  0  0
    1.9404   -0.9337   -2.0123 H   0  0  0  0  0  0  0  0  0  0  0  0
    3.6887    0.7555   -1.9949 H   0  0  0  0  0  0  0  0  0  0  0  0
    6.5072    3.7594    0.1591 H   0  0  0  0  0  0  0  0  0  0  0  0
    8.8385    2.9756    0.5773 H   0  0  0  0  0  0  0  0  0  0  0  0
    9.2397    0.5861    0.9552 H   0  0  0  0  0  0  0  0  0  0  0  0
    5.1461   -0.2596    0.5227 H   0  0  0  0  0  0  0  0  0  0  0  0
    1.1310   -0.0352    2.1270 H   0  0  0  0  0  0  0  0  0  0  0  0
  1  2  1  0
  2  3  2  0
  2  4  1  0
  4  5  1  0
  5  6  1  0
  6  7  2  0
  6  8  1  0
  8  9  2  0
  9 10  1  0
  9 11  1  0
 11 12  1  0
 12 13  1  0
 13 14  1  0
 14 15  1  0
 15 16  2  0
 16 17  1  0
 17 18  2  0
 18 19  1  0
 19 20  1  0
 20 21  2  0
 21 22  1  0
 22 23  2  0
 23 24  1  0
 24 25  1  0
 24 26  2  0
 18 27  1  0
 27 28  2  0
 13 29  1  0
 29 30  2  0
 29  8  1  0
 28 15  1  0
 26 20  1  0
  1 31  1  0
  4 32  1  0
  4 33  1  0
  5 34  1  0
 10 35  1  0
 11 36  1  0
 11 37  1  0
 12 38  1  0
 12 39  1  0
 14 40  1  0
 14 41  1  0
 16 42  1  0
 17 43  1  0
 21 44  1  0
 22 45  1  0
 23 46  1  0
 26 47  1  0
 28 48  1  0
M  END
$$$$
[H]c1nc(C([H])([H])N2C([H])([H])C([H])([H])C3(C(=O)N(c4c([H])c([H])c(-c5c([H])c([H])c([H])c([H])c5[H])c([H])c4[H])C([H])([H])C3([H])[H])C([H])([H])C2([H])[H])c(C([H])([H])[H])c([H])c1[H]
     RDKit          3D

 60 64  0  0  0  0  0  0  0  0999 V2000
   -6.7733   -1.3408   -1.6108 C   0  0  0  0  0  0  0  0  0  0  0  0
   -6.9369   -0.3870   -0.4515 C   0  0  0  0  0  0  0  0  0  0  0  0
   -8.1678    0.1340   -0.1824 C   0  0  0  0  0  0  0  0  0  0  0  0
   -8.2812    1.0058    0.8904 C   0  0  0  0  0  0  0  0  0  0  0  0
   -7.1840    1.3311    1.6553 C   0  0  0  0  0  0  0  0  0  0  0  0
   -5.9976    0.7988    1.3582 N   0  0  0  0  0  0  0  0  0  0  0  0
   -5.8724   -0.0374    0.3345 C   0  0  0  0  0  0  0  0  0  0  0  0
   -4.5296   -0.6376    0.0054 C   0  0  0  0  0  0  0  0  0  0  0  0
   -3.5074   -0.2152    0.8689 N   0  0  0  0  0  0  0  0  0  0  0  0
   -3.1811    1.1429    0.9549 C   0  0  0  0  0  0  0  0  0  0  0  0
   -1.7142    1.4602    0.9467 C   0  0  0  0  0  0  0  0  0  0  0  0
   -0.8685    0.4155    0.3182 C   0  0  0  0  0  0  0  0  0  0  0  0
   -0.8203    0.5543   -1.1869 C   0  0  0  0  0  0  0  0  0  0  0  0
    0.5461    0.0809   -1.5870 C   0  0  0  0  0  0  0  0  0  0  0  0
    1.3803    0.3159   -0.4466 N   0  0  0  0  0  0  0  0  0  0  0  0
    0.5621    0.7247    0.6617 C   0  0  0  0  0  0  0  0  0  0  0  0
    0.9416    1.2500    1.7389 O   0  0  0  0  0  0  0  0  0  0  0  0
    2.8037    0.1942   -0.3220 C   0  0  0  0  0  0  0  0  0  0  0  0
    3.6601    0.7765   -1.2357 C   0  0  0  0  0  0  0  0  0  0  0  0
    5.0391    0.6485   -1.1025 C   0  0  0  0  0  0  0  0  0  0  0  0
    5.6002   -0.0578   -0.0624 C   0  0  0  0  0  0  0  0  0  0  0  0
    4.7453   -0.6403    0.8519 C   0  0  0  0  0  0  0  0  0  0  0  0
    3.3658   -0.5140    0.7206 C   0  0  0  0  0  0  0  0  0  0  0  0
    7.0505   -0.1960    0.0776 C   0  0  0  0  0  0  0  0  0  0  0  0
    7.8313   -0.2320   -1.0626 C   0  0  0  0  0  0  0  0  0  0  0  0
    9.1989   -0.3599   -0.9971 C   0  0  0  0  0  0  0  0  0  0  0  0
    9.8050   -0.4548    0.2429 C   0  0  0  0  0  0  0  0  0  0  0  0
    9.0342   -0.4198    1.3828 C   0  0  0  0  0  0  0  0  0  0  0  0
    7.6675   -0.2912    1.2987 C   0  0  0  0  0  0  0  0  0  0  0  0
   -1.1710   -0.9858    0.7505 C   0  0  0  0  0  0  0  0  0  0  0  0
   -2.5583   -1.1717    1.2861 C   0  0  0  0  0  0  0  0  0  0  0  0
   -7.6371   -1.1541   -2.2784 H   0  0  0  0  0  0  0  0  0  0  0  0
   -6.7796   -2.3970   -1.2567 H   0  0  0  0  0  0  0  0  0  0  0  0
   -5.8743   -1.1098   -2.1992 H   0  0  0  0  0  0  0  0  0  0  0  0
   -9.0377   -0.0957   -0.7526 H   0  0  0  0  0  0  0  0  0  0  0  0
   -9.2485    1.4379    1.1324 H   0  0  0  0  0  0  0  0  0  0  0  0
   -7.3310    2.0282    2.4963 H   0  0  0  0  0  0  0  0  0  0  0  0
   -4.6302   -1.7358    0.0614 H   0  0  0  0  0  0  0  0  0  0  0  0
   -4.3478   -0.3889   -1.0581 H   0  0  0  0  0  0  0  0  0  0  0  0
   -3.5927    1.5745    1.9092 H   0  0  0  0  0  0  0  0  0  0  0  0
   -3.6607    1.7074    0.1291 H   0  0  0  0  0  0  0  0  0  0  0  0
   -1.3442    1.6260    1.9961 H   0  0  0  0  0  0  0  0  0  0  0  0
   -1.5257    2.4203    0.4186 H   0  0  0  0  0  0  0  0  0  0  0  0
   -0.9948    1.6182   -1.4574 H   0  0  0  0  0  0  0  0  0  0  0  0
   -1.6263   -0.0617   -1.6139 H   0  0  0  0  0  0  0  0  0  0  0  0
    0.9144    0.5853   -2.5108 H   0  0  0  0  0  0  0  0  0  0  0  0
    0.4821   -1.0135   -1.7970 H   0  0  0  0  0  0  0  0  0  0  0  0
    3.2142    1.3290   -2.0484 H   0  0  0  0  0  0  0  0  0  0  0  0
    5.6994    1.1113   -1.8286 H   0  0  0  0  0  0  0  0  0  0  0  0
    5.1940   -1.1948    1.6678 H   0  0  0  0  0  0  0  0  0  0  0  0
    2.7076   -0.9808    1.4511 H   0  0  0  0  0  0  0  0  0  0  0  0
    7.3469   -0.1568   -2.0203 H   0  0  0  0  0  0  0  0  0  0  0  0
    9.8374   -0.3903   -1.8682 H   0  0  0  0  0  0  0  0  0  0  0  0
   10.8906   -0.5563    0.3059 H   0  0  0  0  0  0  0  0  0  0  0  0
    9.5140   -0.4950    2.3398 H   0  0  0  0  0  0  0  0  0  0  0  0
    7.0368   -0.2621    2.2003 H   0  0  0  0  0  0  0  0  0  0  0  0
   -0.9607   -1.6562   -0.1181 H   0  0  0  0  0  0  0  0  0  0  0  0
   -0.4619   -1.3008    1.5470 H   0  0  0  0  0  0  0  0  0  0  0  0
   -2.9050   -2.1750    0.9595 H   0  0  0  0  0  0  0  0  0  0  0  0
   -2.5469   -1.2059    2.3966 H   0  0  0  0  0  0  0  0  0  0  0  0
  1  2  1  0
  2  3  2  0
  3  4  1  0
  4  5  2  0
  5  6  1  0
  6  7  2  0
  7  8  1  0
  8  9  1  0
  9 10  1  0
 10 11  1  0
 11 12  1  0
 12 13  1  0
 13 14  1  0
 14 15  1  0
 15 16  1  0
 16 17  2  0
 15 18  1  0
 18 19  2  0
 19 20  1  0
 20 21  2  0
 21 22  1  0
 22 23  2  0
 21 24  1  0
 24 25  2  0
 25 26  1  0
 26 27  2  0
 27 28  1  0
 28 29  2  0
 12 30  1  0
 30 31  1  0
  7  2  1  0
 31  9  1  0
 16 12  1  0
 23 18  1  0
 29 24  1  0
  1 32  1  0
  1 33  1  0
  1 34  1  0
  3 35  1  0
  4 36  1  0
  5 37  1  0
  8 38  1  0
  8 39  1  0
 10 40  1  0
 10 41  1  0
 11 42  1  0
 11 43  1  0
 13 44  1  0
 13 45  1  0
 14 46  1  0
 14 47  1  0
 19 48  1  0
 20 49  1  0
 22 50  1  0
 23 51  1  0
 25 52  1  0
 26 53  1  0
 27 54  1  0
 28 55  1  0
 29 56  1  0
 30 57  1  0
 30 58  1  0
 31 59  1  0
 31 60  1  0
M  END
$$$$
[H]OC(=O)c1c([H])c([H])c(N2C(=O)C3(C([H])([H])C2([H])[H])C([H])([H])C([H])([H])N(C([H])([H])c2nc([H])c([H])c([H])c2C([H])([H])[H])C([H])([H])C3([H])[H])c([H])c1[H]
     RDKit          3D

 53 56  0  0  0  0  0  0  0  0999 V2000
   -5.0511    2.7593   -0.8197 C   0  0  0  0  0  0  0  0  0  0  0  0
   -5.4964    1.3722   -0.5137 C   0  0  0  0  0  0  0  0  0  0  0  0
   -6.7736    0.9841   -0.8205 C   0  0  0  0  0  0  0  0  0  0  0  0
   -7.2025   -0.2944   -0.5546 C   0  0  0  0  0  0  0  0  0  0  0  0
   -6.2969   -1.1709    0.0335 C   0  0  0  0  0  0  0  0  0  0  0  0
   -5.0688   -0.7443    0.3121 N   0  0  0  0  0  0  0  0  0  0  0  0
   -4.5996    0.4852    0.0750 C   0  0  0  0  0  0  0  0  0  0  0  0
   -3.2705    0.9456    0.4244 C   0  0  0  0  0  0  0  0  0  0  0  0
   -2.4066   -0.0659    0.9790 N   0  0  0  0  0  0  0  0  0  0  0  0
   -1.2416    0.5541    1.5689 C   0  0  0  0  0  0  0  0  0  0  0  0
   -0.1714    0.9602    0.6107 C   0  0  0  0  0  0  0  0  0  0  0  0
    0.2902   -0.3538   -0.0414 C   0  0  0  0  0  0  0  0  0  0  0  0
    0.6914   -1.3805    0.9813 C   0  0  0  0  0  0  0  0  0  0  0  0
    1.8965   -2.0226    0.2993 C   0  0  0  0  0  0  0  0  0  0  0  0
    2.5620   -0.8391   -0.2500 N   0  0  0  0  0  0  0  0  0  0  0  0
    1.5079   -0.0477   -0.7939 C   0  0  0  0  0  0  0  0  0  0  0  0
    1.6628    0.7510   -1.7503 O   0  0  0  0  0  0  0  0  0  0  0  0
    3.9565   -0.5947   -0.2165 C   0  0  0  0  0  0  0  0  0  0  0  0
    4.8157   -1.6097    0.1133 C   0  0  0  0  0  0  0  0  0  0  0  0
    6.1685   -1.3935    0.1513 C   0  0  0  0  0  0  0  0  0  0  0  0
    6.7380   -0.1773   -0.1313 C   0  0  0  0  0  0  0  0  0  0  0  0
    5.8552    0.8510   -0.4656 C   0  0  0  0  0  0  0  0  0  0  0  0
    4.4822    0.6284   -0.5036 C   0  0  0  0  0  0  0  0  0  0  0  0
    8.1762    0.0576   -0.0844 C   0  0  0  0  0  0  0  0  0  0  0  0
    8.7880    1.2476   -0.3733 O   0  0  0  0  0  0  0  0  0  0  0  0
    8.8786   -0.9553    0.2599 O   0  0  0  0  0  0  0  0  0  0  0  0
   -0.8669   -0.8306   -0.8347 C   0  0  0  0  0  0  0  0  0  0  0  0
   -2.0649   -1.0990    0.0338 C   0  0  0  0  0  0  0  0  0  0  0  0
   -5.8942    3.3369   -1.2546 H   0  0  0  0  0  0  0  0  0  0  0  0
   -4.1753    2.7284   -1.5093 H   0  0  0  0  0  0  0  0  0  0  0  0
   -4.7365    3.2264    0.1352 H   0  0  0  0  0  0  0  0  0  0  0  0
   -7.4737    1.6696   -1.2761 H   0  0  0  0  0  0  0  0  0  0  0  0
   -8.2126   -0.6464   -0.7838 H   0  0  0  0  0  0  0  0  0  0  0  0
   -6.6424   -2.1771    0.2384 H   0  0  0  0  0  0  0  0  0  0  0  0
   -3.3875    1.7299    1.2132 H   0  0  0  0  0  0  0  0  0  0  0  0
   -2.8009    1.4751   -0.4364 H   0  0  0  0  0  0  0  0  0  0  0  0
   -1.5993    1.4830    2.1031 H   0  0  0  0  0  0  0  0  0  0  0  0
   -0.7910   -0.1095    2.3340 H   0  0  0  0  0  0  0  0  0  0  0  0
    0.6574    1.4133    1.1865 H   0  0  0  0  0  0  0  0  0  0  0  0
   -0.5309    1.5906   -0.2260 H   0  0  0  0  0  0  0  0  0  0  0  0
   -0.0489   -2.1933    1.1137 H   0  0  0  0  0  0  0  0  0  0  0  0
    1.0482   -0.9363    1.9229 H   0  0  0  0  0  0  0  0  0  0  0  0
    2.5318   -2.5835    1.0080 H   0  0  0  0  0  0  0  0  0  0  0  0
    1.5972   -2.6312   -0.5760 H   0  0  0  0  0  0  0  0  0  0  0  0
    4.4649   -2.6214    0.3570 H   0  0  0  0  0  0  0  0  0  0  0  0
    6.8171   -2.2334    0.4201 H   0  0  0  0  0  0  0  0  0  0  0  0
    6.2908    1.8164   -0.6891 H   0  0  0  0  0  0  0  0  0  0  0  0
    3.8621    1.4732   -0.7668 H   0  0  0  0  0  0  0  0  0  0  0  0
    9.7138    1.4167   -0.0076 H   0  0  0  0  0  0  0  0  0  0  0  0
   -0.6059   -1.8016   -1.3120 H   0  0  0  0  0  0  0  0  0  0  0  0
   -1.1281   -0.1497   -1.6701 H   0  0  0  0  0  0  0  0  0  0  0  0
   -2.9143   -1.2142   -0.6692 H   0  0  0  0  0  0  0  0  0  0  0  0
   -2.0006   -2.0789    0.5598 H   0  0  0  0  0  0  0  0  0  0  0  0
  1  2  1  0
  2  3  2  0
  3  4  1  0
  4  5  2  0
  5  6  1  0
  6  7  2  0
  7  8  1  0
  8  9  1  0
  9 10  1  0
 10 11  1  0
 11 12  1  0
 12 13  1  0
 13 14  1  0
 14 15  1  0
 15 16  1  0
 16 17  2  0
 15 18  1  0
 18 19  2  0
 19 20  1  0
 20 21  2  0
 21 22  1  0
 22 23  2  0
 21 24  1  0
 24 25  1  0
 24 26  2  0
 12 27  1  0
 27 28  1  0
  7  2  1  0
 28  9  1  0
 16 12  1  0
 23 18  1  0
  1 29  1  0
  1 30  1  0
  1 31  1  0
  3 32  1  0
  4 33  1  0
  5 34  1  0
  8 35  1  0
  8 36  1  0
 10 37  1  0
 10 38  1  0
 11 39  1  0
 11 40  1  0
 13 41  1  0
 13 42  1  0
 14 43  1  0
 14 44  1  0
 19 45  1  0
 20 46  1  0
 22 47  1  0
 23 48  1  0
 25 49  1  0
 27 50  1  0
 27 51  1  0
 28 52  1  0
 28 53  1  0
M  END
$$$$
[H]OC(=O)C([H])([H])N([H])C(=O)C1=C(O[H])C([H])([H])C([H])([H])N(C([H])([H])c2c([H])c([H])c(-c3c([H])c([H])c([H])c([H])c3[H])c([H])c2[H])C1=O
     RDKit          3D

 48 50  0  0  0  0  0  0  0  0999 V2000
    7.4014    3.5427   -0.2586 O   0  0  0  0  0  0  0  0  0  0  0  0
    6.3257    2.6951    0.0191 C   0  0  0  0  0  0  0  0  0  0  0  0
    6.5634    1.7644    0.8197 O   0  0  0  0  0  0  0  0  0  0  0  0
    5.0120    2.9045   -0.6015 C   0  0  0  0  0  0  0  0  0  0  0  0
    4.0255    1.9150   -0.2454 N   0  0  0  0  0  0  0  0  0  0  0  0
    4.1839    0.5625   -0.5572 C   0  0  0  0  0  0  0  0  0  0  0  0
    5.2657    0.2738   -1.1880 O   0  0  0  0  0  0  0  0  0  0  0  0
    3.2809   -0.5404   -0.2560 C   0  0  0  0  0  0  0  0  0  0  0  0
    3.6203   -1.7684   -0.6426 C   0  0  0  0  0  0  0  0  0  0  0  0
    4.8473   -1.9209   -1.3286 O   0  0  0  0  0  0  0  0  0  0  0  0
    2.8258   -2.9613   -0.4107 C   0  0  0  0  0  0  0  0  0  0  0  0
    1.3602   -2.7412   -0.1349 C   0  0  0  0  0  0  0  0  0  0  0  0
    1.1865   -1.5621    0.6690 N   0  0  0  0  0  0  0  0  0  0  0  0
    0.2057   -1.5194    1.7047 C   0  0  0  0  0  0  0  0  0  0  0  0
   -1.1239   -1.0205    1.2268 C   0  0  0  0  0  0  0  0  0  0  0  0
   -1.3309   -0.6385   -0.0820 C   0  0  0  0  0  0  0  0  0  0  0  0
   -2.5686   -0.1814   -0.5074 C   0  0  0  0  0  0  0  0  0  0  0  0
   -3.6462   -0.0860    0.3482 C   0  0  0  0  0  0  0  0  0  0  0  0
   -3.4388   -0.4682    1.6579 C   0  0  0  0  0  0  0  0  0  0  0  0
   -2.2034   -0.9236    2.0789 C   0  0  0  0  0  0  0  0  0  0  0  0
   -4.9366    0.3976   -0.1333 C   0  0  0  0  0  0  0  0  0  0  0  0
   -5.3756    0.1814   -1.4234 C   0  0  0  0  0  0  0  0  0  0  0  0
   -6.6163    0.6537   -1.8652 C   0  0  0  0  0  0  0  0  0  0  0  0
   -7.3961    1.3477   -0.9683 C   0  0  0  0  0  0  0  0  0  0  0  0
   -7.0010    1.5899    0.3340 C   0  0  0  0  0  0  0  0  0  0  0  0
   -5.7705    1.1010    0.7116 C   0  0  0  0  0  0  0  0  0  0  0  0
    2.0109   -0.4071    0.4336 C   0  0  0  0  0  0  0  0  0  0  0  0
    1.6205    0.7086    0.8294 O   0  0  0  0  0  0  0  0  0  0  0  0
    7.2971    4.4389   -0.6939 H   0  0  0  0  0  0  0  0  0  0  0  0
    4.6425    3.8972   -0.3156 H   0  0  0  0  0  0  0  0  0  0  0  0
    5.1549    2.8267   -1.7022 H   0  0  0  0  0  0  0  0  0  0  0  0
    3.1839    2.2484    0.2574 H   0  0  0  0  0  0  0  0  0  0  0  0
    5.6253   -2.2204   -0.7464 H   0  0  0  0  0  0  0  0  0  0  0  0
    3.2212   -3.6019    0.4174 H   0  0  0  0  0  0  0  0  0  0  0  0
    2.8817   -3.6190   -1.3258 H   0  0  0  0  0  0  0  0  0  0  0  0
    0.7638   -2.7168   -1.0860 H   0  0  0  0  0  0  0  0  0  0  0  0
    0.9859   -3.6633    0.3859 H   0  0  0  0  0  0  0  0  0  0  0  0
    0.5406   -0.9586    2.6053 H   0  0  0  0  0  0  0  0  0  0  0  0
    0.0400   -2.5660    2.0528 H   0  0  0  0  0  0  0  0  0  0  0  0
   -0.4891   -0.7028   -0.7860 H   0  0  0  0  0  0  0  0  0  0  0  0
   -2.7095    0.1158   -1.5502 H   0  0  0  0  0  0  0  0  0  0  0  0
   -4.2847   -0.3966    2.3435 H   0  0  0  0  0  0  0  0  0  0  0  0
   -2.0417   -1.2260    3.1182 H   0  0  0  0  0  0  0  0  0  0  0  0
   -4.7504   -0.3638   -2.1090 H   0  0  0  0  0  0  0  0  0  0  0  0
   -6.9522    0.4731   -2.8972 H   0  0  0  0  0  0  0  0  0  0  0  0
   -8.3658    1.7212   -1.3002 H   0  0  0  0  0  0  0  0  0  0  0  0
   -7.6565    2.1467    1.0089 H   0  0  0  0  0  0  0  0  0  0  0  0
   -5.4150    1.2682    1.7328 H   0  0  0  0  0  0  0  0  0  0  0  0
  1  2  1  0
  2  3  2  0
  2  4  1  0
  4  5  1  0
  5  6  1  0
  6  7  2  0
  6  8  1  0
  8  9  2  0
  9 10  1  0
  9 11  1  0
 11 12  1  0
 12 13  1  0
 13 14  1  0
 14 15  1  0
 15 16  2  0
 16 17  1  0
 17 18  2  0
 18 19  1  0
 19 20  2  0
 18 21  1  0
 21 22  2  0
 22 23  1  0
 23 24  2  0
 24 25  1  0
 25 26  2  0
 13 27  1  0
 27 28  2  0
 27  8  1  0
 20 15  1  0
 26 21  1  0
  1 29  1  0
  4 30  1  0
  4 31  1  0
  5 32  1  0
 10 33  1  0
 11 34  1  0
 11 35  1  0
 12 36  1  0
 12 37  1  0
 14 38  1  0
 14 39  1  0
 16 40  1  0
 17 41  1  0
 19 42  1  0
 20 43  1  0
 22 44  1  0
 23 45  1  0
 24 46  1  0
 25 47  1  0
 26 48  1  0
M  END
$$$$
[H]OC(=O)C([H])([H])N([H])C(=O)C1=C(O[H])C([H])([H])C([H])([H])N(c2c([H])c([H])c(-c3c([H])c([H])c([H])c([H])c3[H])c([H])c2[H])C1=O
     RDKit          3D

 45 47  0  0  0  0  0  0  0  0999 V2000
    8.7741    1.2845   -0.3874 O   0  0  0  0  0  0  0  0  0  0  0  0
    7.6471    0.5195   -0.1654 C   0  0  0  0  0  0  0  0  0  0  0  0
    7.7659   -0.7180   -0.0631 O   0  0  0  0  0  0  0  0  0  0  0  0
    6.3207    1.1676   -0.0522 C   0  0  0  0  0  0  0  0  0  0  0  0
    5.2557    0.1848    0.1810 N   0  0  0  0  0  0  0  0  0  0  0  0
    3.9222    0.5481    0.3212 C   0  0  0  0  0  0  0  0  0  0  0  0
    3.7027    1.8188    0.2286 O   0  0  0  0  0  0  0  0  0  0  0  0
    2.7822   -0.2999    0.5517 C   0  0  0  0  0  0  0  0  0  0  0  0
    2.8111   -1.6077    0.6727 C   0  0  0  0  0  0  0  0  0  0  0  0
    4.0025   -2.2858    0.5830 O   0  0  0  0  0  0  0  0  0  0  0  0
    1.6054   -2.4381    0.9063 C   0  0  0  0  0  0  0  0  0  0  0  0
    0.6288   -1.6509    1.7308 C   0  0  0  0  0  0  0  0  0  0  0  0
    0.3432   -0.4525    0.9246 N   0  0  0  0  0  0  0  0  0  0  0  0
    1.4521    0.3859    0.6798 C   0  0  0  0  0  0  0  0  0  0  0  0
    1.3106    1.6089    0.5802 O   0  0  0  0  0  0  0  0  0  0  0  0
   -0.9405   -0.1713    0.4433 C   0  0  0  0  0  0  0  0  0  0  0  0
   -1.1925    0.2855   -0.8115 C   0  0  0  0  0  0  0  0  0  0  0  0
   -2.5042    0.5275   -1.1707 C   0  0  0  0  0  0  0  0  0  0  0  0
   -3.5756    0.3329   -0.3309 C   0  0  0  0  0  0  0  0  0  0  0  0
   -3.3014   -0.1362    0.9536 C   0  0  0  0  0  0  0  0  0  0  0  0
   -2.0001   -0.3847    1.3343 C   0  0  0  0  0  0  0  0  0  0  0  0
   -4.9444    0.6045   -0.7620 C   0  0  0  0  0  0  0  0  0  0  0  0
   -5.9838   -0.1406   -0.2425 C   0  0  0  0  0  0  0  0  0  0  0  0
   -7.2969    0.0700   -0.6102 C   0  0  0  0  0  0  0  0  0  0  0  0
   -7.6251    1.0430   -1.5209 C   0  0  0  0  0  0  0  0  0  0  0  0
   -6.6022    1.8020   -2.0557 C   0  0  0  0  0  0  0  0  0  0  0  0
   -5.2854    1.5791   -1.6761 C   0  0  0  0  0  0  0  0  0  0  0  0
    9.4380    1.0944   -1.1194 H   0  0  0  0  0  0  0  0  0  0  0  0
    6.3837    1.8806    0.8034 H   0  0  0  0  0  0  0  0  0  0  0  0
    6.1527    1.7563   -0.9640 H   0  0  0  0  0  0  0  0  0  0  0  0
    5.5861   -0.7862    0.2306 H   0  0  0  0  0  0  0  0  0  0  0  0
    4.5240   -2.6282    1.3888 H   0  0  0  0  0  0  0  0  0  0  0  0
    1.1391   -2.5922   -0.1015 H   0  0  0  0  0  0  0  0  0  0  0  0
    1.8513   -3.4060    1.3881 H   0  0  0  0  0  0  0  0  0  0  0  0
   -0.2998   -2.2095    1.9539 H   0  0  0  0  0  0  0  0  0  0  0  0
    1.0939   -1.4185    2.6978 H   0  0  0  0  0  0  0  0  0  0  0  0
   -0.3487    0.4377   -1.4705 H   0  0  0  0  0  0  0  0  0  0  0  0
   -2.6822    0.8894   -2.1689 H   0  0  0  0  0  0  0  0  0  0  0  0
   -4.1517   -0.2891    1.6144 H   0  0  0  0  0  0  0  0  0  0  0  0
   -1.8367   -0.7475    2.3406 H   0  0  0  0  0  0  0  0  0  0  0  0
   -5.7927   -0.9374    0.4921 H   0  0  0  0  0  0  0  0  0  0  0  0
   -8.1214   -0.5173   -0.2012 H   0  0  0  0  0  0  0  0  0  0  0  0
   -8.6368    1.2484   -1.8423 H   0  0  0  0  0  0  0  0  0  0  0  0
   -6.8656    2.5723   -2.7777 H   0  0  0  0  0  0  0  0  0  0  0  0
   -4.5052    2.1759   -2.0994 H   0  0  0  0  0  0  0  0  0  0  0  0
  1  2  1  0
  2  3  2  0
  2  4  1  0
  4  5  1  0
  5  6  1  0
  6  7  2  0
  6  8  1  0
  8  9  2  0
  9 10  1  0
  9 11  1  0
 11 12  1  0
 12 13  1  0
 13 14  1  0
 14 15  2  0
 13 16  1  0
 16 17  2  0
 17 18  1  0
 18 19  2  0
 19 20  1  0
 20 21  2  0
 19 22  1  0
 22 23  2  0
 23 24  1  0
 24 25  2  0
 25 26  1  0
 26 27  2  0
 14  8  1  0
 21 16  1  0
 27 22  1  0
  1 28  1  0
  4 29  1  0
  4 30  1  0
  5 31  1  0
 10 32  1  0
 11 33  1  0
 11 34  1  0
 12 35  1  0
 12 36  1  0
 17 37  1  0
 18 38  1  0
 20 39  1  0
 21 40  1  0
 23 41  1  0
 24 42  1  0
 25 43  1  0
 26 44  1  0
 27 45  1  0
M  END
$$$$
[H]OC(=O)c1c([H])c([H])c([H])c(O[H])c1[H]
     RDKit          3D

 16 16  0  0  0  0  0  0  0  0999 V2000
   -3.1872    0.2612   -0.5274 O   0  0  0  0  0  0  0  0  0  0  0  0
   -2.1656   -0.6594   -0.4005 C   0  0  0  0  0  0  0  0  0  0  0  0
   -2.4273   -1.8673   -0.4423 O   0  0  0  0  0  0  0  0  0  0  0  0
   -0.7921   -0.2131   -0.2192 C   0  0  0  0  0  0  0  0  0  0  0  0
   -0.4688    1.1413   -0.1684 C   0  0  0  0  0  0  0  0  0  0  0  0
    0.8143    1.6012    0.0013 C   0  0  0  0  0  0  0  0  0  0  0  0
    1.8610    0.7169    0.1316 C   0  0  0  0  0  0  0  0  0  0  0  0
    1.5486   -0.6261    0.0823 C   0  0  0  0  0  0  0  0  0  0  0  0
    2.6160   -1.5158    0.2152 O   0  0  0  0  0  0  0  0  0  0  0  0
    0.2641   -1.0908   -0.0876 C   0  0  0  0  0  0  0  0  0  0  0  0
   -3.5449    0.6666    0.3516 H   0  0  0  0  0  0  0  0  0  0  0  0
   -1.2903    1.8353   -0.2706 H   0  0  0  0  0  0  0  0  0  0  0  0
    1.0196    2.6595    0.0348 H   0  0  0  0  0  0  0  0  0  0  0  0
    2.8879    1.0431    0.2671 H   0  0  0  0  0  0  0  0  0  0  0  0
    2.8371   -1.8034    1.1574 H   0  0  0  0  0  0  0  0  0  0  0  0
    0.0276   -2.1493   -0.1252 H   0  0  0  0  0  0  0  0  0  0  0  0
  1  2  1  0
  2  3  2  0
  2  4  1  0
  4  5  2  0
  5  6  1  0
  6  7  2  0
  7  8  1  0
  8  9  1  0
  8 10  2  0
 10  4  1  0
  1 11  1  0
  5 12  1  0
  6 13  1  0
  7 14  1  0
  9 15  1  0
 10 16  1  0
M  END
$$$$
