[H]c1c([H])c(N2C([H])([H])C([H])([H])C([H])(C([H])([H])OC([H])([H])[H])C2([H])[H])c([H])c([H])c1C(=O)SC([H])([H])F
     RDKit          3D

 37 38  0  0  0  0  0  0  0  0999 V2000
   -4.8857   -1.4788   -0.7688 C   0  0  0  0  0  0  0  0  0  0  0  0
   -5.1223   -0.1685   -0.4961 O   0  0  0  0  0  0  0  0  0  0  0  0
   -4.3150    0.5134    0.3123 C   0  0  0  0  0  0  0  0  0  0  0  0
   -2.8907    0.7004    0.0437 C   0  0  0  0  0  0  0  0  0  0  0  0
   -2.5197    1.3716   -1.2586 C   0  0  0  0  0  0  0  0  0  0  0  0
   -0.9966    1.3862   -1.1346 C   0  0  0  0  0  0  0  0  0  0  0  0
   -0.6767    0.2783   -0.2602 N   0  0  0  0  0  0  0  0  0  0  0  0
   -1.9323   -0.4143    0.1363 C   0  0  0  0  0  0  0  0  0  0  0  0
    0.6311   -0.0712    0.1402 C   0  0  0  0  0  0  0  0  0  0  0  0
    0.8062   -1.1519    0.9702 C   0  0  0  0  0  0  0  0  0  0  0  0
    2.0697   -1.5081    1.3712 C   0  0  0  0  0  0  0  0  0  0  0  0
    3.2213   -0.8242    0.9794 C   0  0  0  0  0  0  0  0  0  0  0  0
    3.0291    0.2455    0.1559 C   0  0  0  0  0  0  0  0  0  0  0  0
    1.7433    0.6217   -0.2625 C   0  0  0  0  0  0  0  0  0  0  0  0
    4.5311   -1.2406    1.4326 C   0  0  0  0  0  0  0  0  0  0  0  0
    4.4695   -2.2934    2.2278 O   0  0  0  0  0  0  0  0  0  0  0  0
    6.1151   -0.6208    1.1247 S   0  0  0  0  0  0  0  0  0  0  0  0
    6.3711    0.7613    0.0795 C   0  0  0  0  0  0  0  0  0  0  0  0
    7.7367    1.0912   -0.0248 F   0  0  0  0  0  0  0  0  0  0  0  0
   -5.7319   -1.9189   -1.4077 H   0  0  0  0  0  0  0  0  0  0  0  0
   -4.7357   -2.1381    0.0909 H   0  0  0  0  0  0  0  0  0  0  0  0
   -4.0258   -1.5781   -1.4997 H   0  0  0  0  0  0  0  0  0  0  0  0
   -4.7337    1.5714    0.5312 H   0  0  0  0  0  0  0  0  0  0  0  0
   -4.3608    0.0765    1.3849 H   0  0  0  0  0  0  0  0  0  0  0  0
   -2.5212    1.4845    0.8255 H   0  0  0  0  0  0  0  0  0  0  0  0
   -2.9324    2.3938   -1.3454 H   0  0  0  0  0  0  0  0  0  0  0  0
   -2.7986    0.7705   -2.1485 H   0  0  0  0  0  0  0  0  0  0  0  0
   -0.7350    2.3122   -0.5966 H   0  0  0  0  0  0  0  0  0  0  0  0
   -0.5114    1.2971   -2.1250 H   0  0  0  0  0  0  0  0  0  0  0  0
   -2.0543   -1.1780   -0.6082 H   0  0  0  0  0  0  0  0  0  0  0  0
   -1.8287   -0.7908    1.1759 H   0  0  0  0  0  0  0  0  0  0  0  0
   -0.0409   -1.7541    1.3326 H   0  0  0  0  0  0  0  0  0  0  0  0
    2.2062   -2.3674    2.0307 H   0  0  0  0  0  0  0  0  0  0  0  0
    3.8411    0.8370   -0.2011 H   0  0  0  0  0  0  0  0  0  0  0  0
    1.6497    1.4751   -0.9131 H   0  0  0  0  0  0  0  0  0  0  0  0
    5.9036    1.7286    0.4002 H   0  0  0  0  0  0  0  0  0  0  0  0
    6.0244    0.5810   -0.9653 H   0  0  0  0  0  0  0  0  0  0  0  0
  1  2  1  0
  2  3  1  0
  3  4  1  0
  4  5  1  0
  5  6  1  0
  6  7  1  0
  7  8  1  0
  7  9  1  0
  9 10  2  0
 10 11  1  0
 11 12  2  0
 12 13  1  0
 13 14  2  0
 12 15  1  0
 15 16  2  0
 15 17  1  0
 17 18  1  0
 18 19  1  0
  8  4  1  0
 14  9  1  0
  1 20  1  0
  1 21  1  0
  1 22  1  0
  3 23  1  0
  3 24  1  0
  4 25  1  0
  5 26  1  0
  5 27  1  0
  6 28  1  0
  6 29  1  0
  8 30  1  0
  8 31  1  0
 10 32  1  0
 11 33  1  0
 13 34  1  0
 14 35  1  0
 18 36  1  0
 18 37  1  0
M  END
$$$$
[H]Oc1c([H])c([H])c([H])c(OC([H])([H])C(=O)OC2([H])C([H])([H])C([H])([H])C([H])([H])C2(C([H])([H])[H])C([H])([H])[H])c1C(=O)N([H])C([H])([H])C([H])([H])N(C([H])([H])C([H])([H])[H])C([H])([H])C([H])([H])[H]
     RDKit          3D

 63 64  0  0  0  0  0  0  0  0999 V2000
   -7.8091   -0.5375    0.3922 C   0  0  0  0  0  0  0  0  0  0  0  0
   -6.3208   -0.3412    0.6689 C   0  0  0  0  0  0  0  0  0  0  0  0
   -5.9991    1.0250    0.4334 N   0  0  0  0  0  0  0  0  0  0  0  0
   -6.0995    1.4170   -0.9486 C   0  0  0  0  0  0  0  0  0  0  0  0
   -5.8016    2.8919   -1.0514 C   0  0  0  0  0  0  0  0  0  0  0  0
   -4.9364    1.6016    1.1434 C   0  0  0  0  0  0  0  0  0  0  0  0
   -3.5445    1.2145    0.8824 C   0  0  0  0  0  0  0  0  0  0  0  0
   -3.1774   -0.1625    1.1117 N   0  0  0  0  0  0  0  0  0  0  0  0
   -1.8597   -0.5688    0.8647 C   0  0  0  0  0  0  0  0  0  0  0  0
   -1.0799    0.3711    0.4435 O   0  0  0  0  0  0  0  0  0  0  0  0
   -1.2504   -1.8668    1.0106 C   0  0  0  0  0  0  0  0  0  0  0  0
   -1.9706   -2.9518    1.4425 C   0  0  0  0  0  0  0  0  0  0  0  0
   -3.3289   -2.9025    1.7640 O   0  0  0  0  0  0  0  0  0  0  0  0
   -1.3030   -4.1828    1.5677 C   0  0  0  0  0  0  0  0  0  0  0  0
    0.0281   -4.3232    1.2736 C   0  0  0  0  0  0  0  0  0  0  0  0
    0.7072   -3.2285    0.8497 C   0  0  0  0  0  0  0  0  0  0  0  0
    0.1162   -2.0005    0.7064 C   0  0  0  0  0  0  0  0  0  0  0  0
    0.8607   -0.8877    0.2622 O   0  0  0  0  0  0  0  0  0  0  0  0
    2.2110   -1.0891   -0.0174 C   0  0  0  0  0  0  0  0  0  0  0  0
    2.9151    0.1199   -0.4686 C   0  0  0  0  0  0  0  0  0  0  0  0
    2.4155    1.2480   -0.6256 O   0  0  0  0  0  0  0  0  0  0  0  0
    4.2713   -0.0061   -0.7464 O   0  0  0  0  0  0  0  0  0  0  0  0
    5.0710    1.0781   -1.1871 C   0  0  0  0  0  0  0  0  0  0  0  0
    5.9554    0.7324   -2.3434 C   0  0  0  0  0  0  0  0  0  0  0  0
    7.0206   -0.1373   -1.7332 C   0  0  0  0  0  0  0  0  0  0  0  0
    6.9430    0.0215   -0.2481 C   0  0  0  0  0  0  0  0  0  0  0  0
    6.1130    1.2719   -0.0714 C   0  0  0  0  0  0  0  0  0  0  0  0
    6.8852    2.5407   -0.2370 C   0  0  0  0  0  0  0  0  0  0  0  0
    5.4340    1.1870    1.2792 C   0  0  0  0  0  0  0  0  0  0  0  0
   -8.2679   -1.0417    1.2553 H   0  0  0  0  0  0  0  0  0  0  0  0
   -8.2840    0.4572    0.3052 H   0  0  0  0  0  0  0  0  0  0  0  0
   -7.9609   -1.1224   -0.5469 H   0  0  0  0  0  0  0  0  0  0  0  0
   -5.7776   -1.0523    0.0051 H   0  0  0  0  0  0  0  0  0  0  0  0
   -6.1966   -0.6269    1.7521 H   0  0  0  0  0  0  0  0  0  0  0  0
   -5.5472    0.8010   -1.6524 H   0  0  0  0  0  0  0  0  0  0  0  0
   -7.1930    1.3013   -1.2170 H   0  0  0  0  0  0  0  0  0  0  0  0
   -4.7264    3.0716   -1.0097 H   0  0  0  0  0  0  0  0  0  0  0  0
   -6.3676    3.4226   -0.2393 H   0  0  0  0  0  0  0  0  0  0  0  0
   -6.2227    3.2904   -2.0081 H   0  0  0  0  0  0  0  0  0  0  0  0
   -4.9937    2.7203    1.0839 H   0  0  0  0  0  0  0  0  0  0  0  0
   -5.1285    1.3821    2.2483 H   0  0  0  0  0  0  0  0  0  0  0  0
   -2.9104    1.7906    1.6356 H   0  0  0  0  0  0  0  0  0  0  0  0
   -3.1331    1.5813   -0.0897 H   0  0  0  0  0  0  0  0  0  0  0  0
   -3.8913   -0.7941    1.4581 H   0  0  0  0  0  0  0  0  0  0  0  0
   -3.8489   -3.6817    2.0764 H   0  0  0  0  0  0  0  0  0  0  0  0
   -1.8689   -5.0298    1.9067 H   0  0  0  0  0  0  0  0  0  0  0  0
    0.5498   -5.2852    1.3737 H   0  0  0  0  0  0  0  0  0  0  0  0
    1.7772   -3.3143    0.6071 H   0  0  0  0  0  0  0  0  0  0  0  0
    2.7726   -1.5200    0.8428 H   0  0  0  0  0  0  0  0  0  0  0  0
    2.2765   -1.8449   -0.8477 H   0  0  0  0  0  0  0  0  0  0  0  0
    4.5135    2.0196   -1.2905 H   0  0  0  0  0  0  0  0  0  0  0  0
    6.3425    1.6588   -2.7762 H   0  0  0  0  0  0  0  0  0  0  0  0
    5.4438    0.1617   -3.1442 H   0  0  0  0  0  0  0  0  0  0  0  0
    8.0406    0.1173   -2.1107 H   0  0  0  0  0  0  0  0  0  0  0  0
    6.8070   -1.2055   -1.9642 H   0  0  0  0  0  0  0  0  0  0  0  0
    6.3650   -0.8160    0.2381 H   0  0  0  0  0  0  0  0  0  0  0  0
    7.9295    0.0714    0.2465 H   0  0  0  0  0  0  0  0  0  0  0  0
    6.8910    3.0561    0.7419 H   0  0  0  0  0  0  0  0  0  0  0  0
    6.3870    3.1417   -1.0193 H   0  0  0  0  0  0  0  0  0  0  0  0
    7.9202    2.3568   -0.5238 H   0  0  0  0  0  0  0  0  0  0  0  0
    4.6077    1.9281    1.3801 H   0  0  0  0  0  0  0  0  0  0  0  0
    6.2168    1.2940    2.0449 H   0  0  0  0  0  0  0  0  0  0  0  0
    5.0114    0.1762    1.3753 H   0  0  0  0  0  0  0  0  0  0  0  0
  1  2  1  0
  2  3  1  0
  3  4  1  0
  4  5  1  0
  3  6  1  0
  6  7  1  0
  7  8  1  0
  8  9  1  0
  9 10  2  0
  9 11  1  0
 11 12  2  0
 12 13  1  0
 12 14  1  0
 14 15  2  0
 15 16  1  0
 16 17  2  0
 17 18  1  0
 18 19  1  0
 19 20  1  0
 20 21  2  0
 20 22  1  0
 22 23  1  0
 23 24  1  0
 24 25  1  0
 25 26  1  0
 26 27  1  0
 27 28  1  0
 27 29  1  0
 17 11  1  0
 27 23  1  0
  1 30  1  0
  1 31  1  0
  1 32  1  0
  2 33  1  0
  2 34  1  0
  4 35  1  0
  4 36  1  0
  5 37  1  0
  5 38  1  0
  5 39  1  0
  6 40  1  0
  6 41  1  0
  7 42  1  0
  7 43  1  0
  8 44  1  0
 13 45  1  0
 14 46  1  0
 15 47  1  0
 16 48  1  0
 19 49  1  0
 19 50  1  0
 23 51  1  0
 24 52  1  0
 24 53  1  0
 25 54  1  0
 25 55  1  0
 26 56  1  0
 26 57  1  0
 28 58  1  0
 28 59  1  0
 28 60  1  0
 29 61  1  0
 29 62  1  0
 29 63  1  0
M  END
$$$$
[H]c1nc(N2C([H])([H])C([H])([H])N(C([H])([H])c3sc(N([H])c4c([H])c([H])c(N5C([H])([H])C([H])([H])C([H])([H])C([H])([H])C5([H])[H])c([H])c4[H])nc3C([H])([H])[H])C([H])([H])C2(C([H])([H])[H])C([H])([H])[H])c(C#N)c([H])c1[H]
     RDKit          3D

 71 75  0  0  0  0  0  0  0  0999 V2000
    0.0845    3.2804   -1.3372 C   0  0  0  0  0  0  0  0  0  0  0  0
    0.0455    1.9265   -0.6455 C   0  0  0  0  0  0  0  0  0  0  0  0
    1.0999    1.2904   -0.2872 N   0  0  0  0  0  0  0  0  0  0  0  0
    1.0504    0.1219    0.3111 C   0  0  0  0  0  0  0  0  0  0  0  0
    2.0374   -0.7625    0.7937 N   0  0  0  0  0  0  0  0  0  0  0  0
    3.4114   -0.5724    0.7151 C   0  0  0  0  0  0  0  0  0  0  0  0
    4.0254    0.4031   -0.0183 C   0  0  0  0  0  0  0  0  0  0  0  0
    5.4097    0.5524   -0.0474 C   0  0  0  0  0  0  0  0  0  0  0  0
    6.2586   -0.2828    0.6683 C   0  0  0  0  0  0  0  0  0  0  0  0
    5.6394   -1.2638    1.4052 C   0  0  0  0  0  0  0  0  0  0  0  0
    4.2781   -1.4194    1.4412 C   0  0  0  0  0  0  0  0  0  0  0  0
    7.6499   -0.1025    0.6065 N   0  0  0  0  0  0  0  0  0  0  0  0
    8.1941    0.8971   -0.3071 C   0  0  0  0  0  0  0  0  0  0  0  0
    9.6744    0.6433   -0.5173 C   0  0  0  0  0  0  0  0  0  0  0  0
    9.8682   -0.8439   -0.7302 C   0  0  0  0  0  0  0  0  0  0  0  0
    9.4485   -1.6671    0.4454 C   0  0  0  0  0  0  0  0  0  0  0  0
    8.5672   -0.8460    1.3940 C   0  0  0  0  0  0  0  0  0  0  0  0
   -0.6810   -0.1108    0.3785 S   0  0  0  0  0  0  0  0  0  0  0  0
   -1.1689    1.3356   -0.3788 C   0  0  0  0  0  0  0  0  0  0  0  0
   -2.5258    1.8877   -0.7283 C   0  0  0  0  0  0  0  0  0  0  0  0
   -3.6074    1.0894   -0.3217 N   0  0  0  0  0  0  0  0  0  0  0  0
   -3.7647    0.9866    1.0692 C   0  0  0  0  0  0  0  0  0  0  0  0
   -4.7530   -0.0770    1.5069 C   0  0  0  0  0  0  0  0  0  0  0  0
   -5.7597   -0.3131    0.5150 N   0  0  0  0  0  0  0  0  0  0  0  0
   -7.0983   -0.5553    0.9084 C   0  0  0  0  0  0  0  0  0  0  0  0
   -7.9967    0.4022    0.5209 N   0  0  0  0  0  0  0  0  0  0  0  0
   -9.2924    0.3132    0.8293 C   0  0  0  0  0  0  0  0  0  0  0  0
   -9.7454   -0.7654    1.5551 C   0  0  0  0  0  0  0  0  0  0  0  0
   -8.8619   -1.7385    1.9545 C   0  0  0  0  0  0  0  0  0  0  0  0
   -7.5313   -1.6247    1.6244 C   0  0  0  0  0  0  0  0  0  0  0  0
   -6.5708   -2.6320    2.0185 C   0  0  0  0  0  0  0  0  0  0  0  0
   -5.8179   -3.4575    2.3349 N   0  0  0  0  0  0  0  0  0  0  0  0
   -5.4411   -0.2978   -0.8972 C   0  0  0  0  0  0  0  0  0  0  0  0
   -4.3739   -1.3413   -1.2215 C   0  0  0  0  0  0  0  0  0  0  0  0
   -6.6268   -0.5079   -1.7736 C   0  0  0  0  0  0  0  0  0  0  0  0
   -4.7708    1.0653   -1.1359 C   0  0  0  0  0  0  0  0  0  0  0  0
   -0.5469    4.0119   -0.7603 H   0  0  0  0  0  0  0  0  0  0  0  0
   -0.4185    3.1348   -2.3132 H   0  0  0  0  0  0  0  0  0  0  0  0
    1.1007    3.6338   -1.4954 H   0  0  0  0  0  0  0  0  0  0  0  0
    1.6887   -1.6526    1.2563 H   0  0  0  0  0  0  0  0  0  0  0  0
    3.4464    1.1131   -0.6311 H   0  0  0  0  0  0  0  0  0  0  0  0
    5.8619    1.3383   -0.6401 H   0  0  0  0  0  0  0  0  0  0  0  0
    6.2803   -1.9504    1.9865 H   0  0  0  0  0  0  0  0  0  0  0  0
    3.8658   -2.2155    2.0449 H   0  0  0  0  0  0  0  0  0  0  0  0
    7.9781    1.9302    0.0157 H   0  0  0  0  0  0  0  0  0  0  0  0
    7.6898    0.7222   -1.2955 H   0  0  0  0  0  0  0  0  0  0  0  0
    9.9687    1.2080   -1.4095 H   0  0  0  0  0  0  0  0  0  0  0  0
   10.2303    1.0337    0.3508 H   0  0  0  0  0  0  0  0  0  0  0  0
    9.2419   -1.1206   -1.6137 H   0  0  0  0  0  0  0  0  0  0  0  0
   10.9254   -0.9933   -1.0331 H   0  0  0  0  0  0  0  0  0  0  0  0
   10.3143   -2.0122    1.0423 H   0  0  0  0  0  0  0  0  0  0  0  0
    8.8086   -2.5264    0.0976 H   0  0  0  0  0  0  0  0  0  0  0  0
    9.2982   -0.1691    1.9391 H   0  0  0  0  0  0  0  0  0  0  0  0
    8.1769   -1.5171    2.1473 H   0  0  0  0  0  0  0  0  0  0  0  0
   -2.5374    1.9566   -1.8580 H   0  0  0  0  0  0  0  0  0  0  0  0
   -2.5217    2.9197   -0.3154 H   0  0  0  0  0  0  0  0  0  0  0  0
   -4.1293    1.9947    1.4385 H   0  0  0  0  0  0  0  0  0  0  0  0
   -2.8094    0.8430    1.5790 H   0  0  0  0  0  0  0  0  0  0  0  0
   -5.1626    0.2403    2.4814 H   0  0  0  0  0  0  0  0  0  0  0  0
   -4.1955   -1.0176    1.6728 H   0  0  0  0  0  0  0  0  0  0  0  0
   -9.9697    1.0890    0.5055 H   0  0  0  0  0  0  0  0  0  0  0  0
  -10.8035   -0.8733    1.8283 H   0  0  0  0  0  0  0  0  0  0  0  0
   -9.1643   -2.6122    2.5295 H   0  0  0  0  0  0  0  0  0  0  0  0
   -3.7865   -1.5742   -0.3038 H   0  0  0  0  0  0  0  0  0  0  0  0
   -4.8364   -2.2480   -1.6617 H   0  0  0  0  0  0  0  0  0  0  0  0
   -3.6641   -0.9168   -1.9580 H   0  0  0  0  0  0  0  0  0  0  0  0
   -7.2564   -1.2991   -1.2995 H   0  0  0  0  0  0  0  0  0  0  0  0
   -6.2714   -0.9508   -2.7277 H   0  0  0  0  0  0  0  0  0  0  0  0
   -7.1904    0.4157   -1.9402 H   0  0  0  0  0  0  0  0  0  0  0  0
   -4.4973    1.1948   -2.1838 H   0  0  0  0  0  0  0  0  0  0  0  0
   -5.4697    1.8565   -0.7687 H   0  0  0  0  0  0  0  0  0  0  0  0
  1  2  1  0
  2  3  1  0
  3  4  2  0
  4  5  1  0
  5  6  1  0
  6  7  2  0
  7  8  1  0
  8  9  2  0
  9 10  1  0
 10 11  2  0
  9 12  1  0
 12 13  1  0
 13 14  1  0
 14 15  1  0
 15 16  1  0
 16 17  1  0
  4 18  1  0
 18 19  1  0
 19 20  1  0
 20 21  1  0
 21 22  1  0
 22 23  1  0
 23 24  1  0
 24 25  1  0
 25 26  2  0
 26 27  1  0
 27 28  2  0
 28 29  1  0
 29 30  2  0
 30 31  1  0
 31 32  3  0
 24 33  1  0
 33 34  1  0
 33 35  1  0
 33 36  1  0
 19  2  2  0
 36 21  1  0
 11  6  1  0
 17 12  1  0
 30 25  1  0
  1 37  1  0
  1 38  1  0
  1 39  1  0
  5 40  1  0
  7 41  1  0
  8 42  1  0
 10 43  1  0
 11 44  1  0
 13 45  1  0
 13 46  1  0
 14 47  1  0
 14 48  1  0
 15 49  1  0
 15 50  1  0
 16 51  1  0
 16 52  1  0
 17 53  1  0
 17 54  1  0
 20 55  1  0
 20 56  1  0
 22 57  1  0
 22 58  1  0
 23 59  1  0
 23 60  1  0
 27 61  1  0
 28 62  1  0
 29 63  1  0
 34 64  1  0
 34 65  1  0
 34 66  1  0
 35 67  1  0
 35 68  1  0
 35 69  1  0
 36 70  1  0
 36 71  1  0
M  END
$$$$
[H]c1c([H])c(N2C(=O)C(C([H])([H])[H])=C(C([H])([H])N3C([H])([H])C([H])([H])N(c4c([H])c([H])c5c([H])c([H])c([H])c([H])c5c4[H])C([H])([H])C3([H])[H])C2=O)c([H])c([H])c1Cl
     RDKit          3D

 56 60  0  0  0  0  0  0  0  0999 V2000
    1.5836   -2.0939    1.6905 C   0  0  0  0  0  0  0  0  0  0  0  0
    2.5371   -1.1298    1.0491 C   0  0  0  0  0  0  0  0  0  0  0  0
    2.2797    0.0621    0.5874 C   0  0  0  0  0  0  0  0  0  0  0  0
    0.9722    0.7947    0.5700 C   0  0  0  0  0  0  0  0  0  0  0  0
    0.5832    1.0843   -0.8056 N   0  0  0  0  0  0  0  0  0  0  0  0
   -0.4562    2.0609   -0.9020 C   0  0  0  0  0  0  0  0  0  0  0  0
   -1.8246    1.6421   -0.5603 C   0  0  0  0  0  0  0  0  0  0  0  0
   -2.0988    0.2238   -0.6688 N   0  0  0  0  0  0  0  0  0  0  0  0
   -1.0856   -0.7487   -0.9423 C   0  0  0  0  0  0  0  0  0  0  0  0
    0.1796   -0.1487   -1.4814 C   0  0  0  0  0  0  0  0  0  0  0  0
   -3.4555   -0.1720   -0.4747 C   0  0  0  0  0  0  0  0  0  0  0  0
   -3.9111   -1.4646   -0.6200 C   0  0  0  0  0  0  0  0  0  0  0  0
   -5.2526   -1.7904   -0.4054 C   0  0  0  0  0  0  0  0  0  0  0  0
   -6.1779   -0.8238   -0.0372 C   0  0  0  0  0  0  0  0  0  0  0  0
   -7.5238   -1.1243    0.1883 C   0  0  0  0  0  0  0  0  0  0  0  0
   -8.4091   -0.1264    0.5578 C   0  0  0  0  0  0  0  0  0  0  0  0
   -7.9497    1.1663    0.7005 C   0  0  0  0  0  0  0  0  0  0  0  0
   -6.6320    1.4677    0.4807 C   0  0  0  0  0  0  0  0  0  0  0  0
   -5.7301    0.4595    0.1066 C   0  0  0  0  0  0  0  0  0  0  0  0
   -4.4195    0.7704   -0.1039 C   0  0  0  0  0  0  0  0  0  0  0  0
    3.5361    0.6438    0.0596 C   0  0  0  0  0  0  0  0  0  0  0  0
    3.6100    1.7853   -0.4527 O   0  0  0  0  0  0  0  0  0  0  0  0
    4.5925   -0.3073    0.2435 N   0  0  0  0  0  0  0  0  0  0  0  0
    5.9395   -0.0861   -0.1257 C   0  0  0  0  0  0  0  0  0  0  0  0
    6.5589   -0.9336   -1.0032 C   0  0  0  0  0  0  0  0  0  0  0  0
    7.8825   -0.7266   -1.3693 C   0  0  0  0  0  0  0  0  0  0  0  0
    8.5752    0.3557   -0.8315 C   0  0  0  0  0  0  0  0  0  0  0  0
   10.2463    0.6021   -1.3052 Cl  0  0  0  0  0  0  0  0  0  0  0  0
    7.9599    1.2127    0.0514 C   0  0  0  0  0  0  0  0  0  0  0  0
    6.6301    0.9707    0.3924 C   0  0  0  0  0  0  0  0  0  0  0  0
    3.9672   -1.4205    0.8637 C   0  0  0  0  0  0  0  0  0  0  0  0
    4.5630   -2.4776    1.1935 O   0  0  0  0  0  0  0  0  0  0  0  0
    0.6962   -1.6015    2.1151 H   0  0  0  0  0  0  0  0  0  0  0  0
    1.2045   -2.7141    0.8359 H   0  0  0  0  0  0  0  0  0  0  0  0
    2.0769   -2.7083    2.4419 H   0  0  0  0  0  0  0  0  0  0  0  0
    1.0656    1.7816    1.0626 H   0  0  0  0  0  0  0  0  0  0  0  0
    0.1912    0.2370    1.0822 H   0  0  0  0  0  0  0  0  0  0  0  0
   -0.3809    2.6029   -1.8894 H   0  0  0  0  0  0  0  0  0  0  0  0
   -0.1742    2.8713   -0.1600 H   0  0  0  0  0  0  0  0  0  0  0  0
   -2.5181    2.1275   -1.3058 H   0  0  0  0  0  0  0  0  0  0  0  0
   -2.1595    1.9845    0.4534 H   0  0  0  0  0  0  0  0  0  0  0  0
   -0.8791   -1.4079   -0.0646 H   0  0  0  0  0  0  0  0  0  0  0  0
   -1.4670   -1.4559   -1.7251 H   0  0  0  0  0  0  0  0  0  0  0  0
    1.0144   -0.8613   -1.4070 H   0  0  0  0  0  0  0  0  0  0  0  0
    0.0448    0.0942   -2.5505 H   0  0  0  0  0  0  0  0  0  0  0  0
   -3.2119   -2.2486   -0.9118 H   0  0  0  0  0  0  0  0  0  0  0  0
   -5.6395   -2.7886   -0.5115 H   0  0  0  0  0  0  0  0  0  0  0  0
   -7.8765   -2.1376    0.0737 H   0  0  0  0  0  0  0  0  0  0  0  0
   -9.4585   -0.3079    0.7422 H   0  0  0  0  0  0  0  0  0  0  0  0
   -8.6095    1.9926    0.9900 H   0  0  0  0  0  0  0  0  0  0  0  0
   -6.2233    2.4675    0.5816 H   0  0  0  0  0  0  0  0  0  0  0  0
   -4.0938    1.8173    0.0166 H   0  0  0  0  0  0  0  0  0  0  0  0
    6.0680   -1.7885   -1.4501 H   0  0  0  0  0  0  0  0  0  0  0  0
    8.3478   -1.4073   -2.0626 H   0  0  0  0  0  0  0  0  0  0  0  0
    8.5113    2.0472    0.4583 H   0  0  0  0  0  0  0  0  0  0  0  0
    6.2008    1.6762    1.0860 H   0  0  0  0  0  0  0  0  0  0  0  0
  1  2  1  0
  2  3  2  0
  3  4  1  0
  4  5  1  0
  5  6  1  0
  6  7  1  0
  7  8  1  0
  8  9  1  0
  9 10  1  0
  8 11  1  0
 11 12  2  0
 12 13  1  0
 13 14  2  0
 14 15  1  0
 15 16  2  0
 16 17  1  0
 17 18  2  0
 18 19  1  0
 19 20  2  0
  3 21  1  0
 21 22  2  0
 21 23  1  0
 23 24  1  0
 24 25  2  0
 25 26  1  0
 26 27  2  0
 27 28  1  0
 27 29  1  0
 29 30  2  0
 23 31  1  0
 31 32  2  0
 31  2  1  0
 10  5  1  0
 20 11  1  0
 30 24  1  0
 19 14  1  0
  1 33  1  0
  1 34  1  0
  1 35  1  0
  4 36  1  0
  4 37  1  0
  6 38  1  0
  6 39  1  0
  7 40  1  0
  7 41  1  0
  9 42  1  0
  9 43  1  0
 10 44  1  0
 10 45  1  0
 12 46  1  0
 13 47  1  0
 15 48  1  0
 16 49  1  0
 17 50  1  0
 18 51  1  0
 20 52  1  0
 25 53  1  0
 26 54  1  0
 29 55  1  0
 30 56  1  0
M  END
$$$$
[H]OC1=C(C(=O)N([H])C([H])([H])C(C([H])([H])[H])(C([H])([H])[H])C([H])([H])[H])C(=O)N(C([H])([H])c2c([H])c([H])c(Oc3c([H])c([H])c(C([H])([H])[H])c([H])c3[H])c([H])c2[H])C([H])([H])C1([H])[H]
     RDKit          3D

 61 63  0  0  0  0  0  0  0  0999 V2000
    5.7599   -4.4827    0.1175 C   0  0  0  0  0  0  0  0  0  0  0  0
    5.6977   -3.0363   -0.2697 C   0  0  0  0  0  0  0  0  0  0  0  0
    5.1956   -2.6509   -1.4963 C   0  0  0  0  0  0  0  0  0  0  0  0
    5.1194   -1.3174   -1.8943 C   0  0  0  0  0  0  0  0  0  0  0  0
    5.5653   -0.3547   -1.0211 C   0  0  0  0  0  0  0  0  0  0  0  0
    5.5133    0.9706   -1.3593 O   0  0  0  0  0  0  0  0  0  0  0  0
    4.3573    1.7130   -1.0475 C   0  0  0  0  0  0  0  0  0  0  0  0
    4.2780    3.0556   -1.3356 C   0  0  0  0  0  0  0  0  0  0  0  0
    3.1201    3.7859   -1.0199 C   0  0  0  0  0  0  0  0  0  0  0  0
    2.0525    3.1526   -0.4156 C   0  0  0  0  0  0  0  0  0  0  0  0
    0.8646    3.9103   -0.0927 C   0  0  0  0  0  0  0  0  0  0  0  0
   -0.1576    3.2553    0.6638 N   0  0  0  0  0  0  0  0  0  0  0  0
   -0.2962    3.2709    2.0797 C   0  0  0  0  0  0  0  0  0  0  0  0
   -0.7099    1.9490    2.6052 C   0  0  0  0  0  0  0  0  0  0  0  0
   -1.7234    1.2557    1.7870 C   0  0  0  0  0  0  0  0  0  0  0  0
   -2.4705    0.2776    2.4630 O   0  0  0  0  0  0  0  0  0  0  0  0
   -1.9734    1.4769    0.5134 C   0  0  0  0  0  0  0  0  0  0  0  0
   -2.9666    0.7993   -0.2988 C   0  0  0  0  0  0  0  0  0  0  0  0
   -3.0235    1.1917   -1.5353 O   0  0  0  0  0  0  0  0  0  0  0  0
   -3.8553   -0.1982    0.0570 N   0  0  0  0  0  0  0  0  0  0  0  0
   -4.7738   -0.7299   -0.9522 C   0  0  0  0  0  0  0  0  0  0  0  0
   -5.6663   -1.7880   -0.3909 C   0  0  0  0  0  0  0  0  0  0  0  0
   -6.6149   -2.3429   -1.4270 C   0  0  0  0  0  0  0  0  0  0  0  0
   -6.5085   -1.2418    0.7436 C   0  0  0  0  0  0  0  0  0  0  0  0
   -4.7989   -2.9437    0.0796 C   0  0  0  0  0  0  0  0  0  0  0  0
   -1.1406    2.5426   -0.0928 C   0  0  0  0  0  0  0  0  0  0  0  0
   -1.3238    2.8066   -1.3068 O   0  0  0  0  0  0  0  0  0  0  0  0
    2.1642    1.8199   -0.1443 C   0  0  0  0  0  0  0  0  0  0  0  0
    3.2858    1.1024   -0.4467 C   0  0  0  0  0  0  0  0  0  0  0  0
    6.0711   -0.7529    0.2161 C   0  0  0  0  0  0  0  0  0  0  0  0
    6.1479   -2.0656    0.6113 C   0  0  0  0  0  0  0  0  0  0  0  0
    6.8090   -4.8072    0.3237 H   0  0  0  0  0  0  0  0  0  0  0  0
    5.2663   -5.0799   -0.6733 H   0  0  0  0  0  0  0  0  0  0  0  0
    5.1980   -4.6258    1.0628 H   0  0  0  0  0  0  0  0  0  0  0  0
    4.8407   -3.4224   -2.1923 H   0  0  0  0  0  0  0  0  0  0  0  0
    4.7115   -1.0848   -2.8765 H   0  0  0  0  0  0  0  0  0  0  0  0
    5.1305    3.5217   -1.8086 H   0  0  0  0  0  0  0  0  0  0  0  0
    3.1089    4.8414   -1.2687 H   0  0  0  0  0  0  0  0  0  0  0  0
    1.0937    4.8617    0.4839 H   0  0  0  0  0  0  0  0  0  0  0  0
    0.4089    4.3238   -1.0436 H   0  0  0  0  0  0  0  0  0  0  0  0
   -1.1016    4.0069    2.3783 H   0  0  0  0  0  0  0  0  0  0  0  0
    0.6069    3.6372    2.6132 H   0  0  0  0  0  0  0  0  0  0  0  0
    0.2277    1.3187    2.6608 H   0  0  0  0  0  0  0  0  0  0  0  0
   -1.0991    2.0371    3.6553 H   0  0  0  0  0  0  0  0  0  0  0  0
   -2.0535   -0.6220    2.7367 H   0  0  0  0  0  0  0  0  0  0  0  0
   -3.9331   -0.6118    0.9879 H   0  0  0  0  0  0  0  0  0  0  0  0
   -4.1339   -1.1727   -1.7500 H   0  0  0  0  0  0  0  0  0  0  0  0
   -5.3424    0.1222   -1.3681 H   0  0  0  0  0  0  0  0  0  0  0  0
   -7.6368   -1.9342   -1.3205 H   0  0  0  0  0  0  0  0  0  0  0  0
   -6.7417   -3.4565   -1.2824 H   0  0  0  0  0  0  0  0  0  0  0  0
   -6.2307   -2.2239   -2.4647 H   0  0  0  0  0  0  0  0  0  0  0  0
   -5.9176   -1.2776    1.6913 H   0  0  0  0  0  0  0  0  0  0  0  0
   -6.8013   -0.2004    0.5117 H   0  0  0  0  0  0  0  0  0  0  0  0
   -7.4049   -1.8919    0.8223 H   0  0  0  0  0  0  0  0  0  0  0  0
   -3.8575   -3.0287   -0.5079 H   0  0  0  0  0  0  0  0  0  0  0  0
   -5.3311   -3.9235   -0.0667 H   0  0  0  0  0  0  0  0  0  0  0  0
   -4.5995   -2.8687    1.1633 H   0  0  0  0  0  0  0  0  0  0  0  0
    1.2989    1.3314    0.3340 H   0  0  0  0  0  0  0  0  0  0  0  0
    3.3371    0.0403   -0.2133 H   0  0  0  0  0  0  0  0  0  0  0  0
    6.4087    0.0600    0.8615 H   0  0  0  0  0  0  0  0  0  0  0  0
    6.5484   -2.3012    1.5765 H   0  0  0  0  0  0  0  0  0  0  0  0
  1  2  1  0
  2  3  2  0
  3  4  1  0
  4  5  2  0
  5  6  1  0
  6  7  1  0
  7  8  2  0
  8  9  1  0
  9 10  2  0
 10 11  1  0
 11 12  1  0
 12 13  1  0
 13 14  1  0
 14 15  1  0
 15 16  1  0
 15 17  2  0
 17 18  1  0
 18 19  2  0
 18 20  1  0
 20 21  1  0
 21 22  1  0
 22 23  1  0
 22 24  1  0
 22 25  1  0
 17 26  1  0
 26 27  2  0
 10 28  1  0
 28 29  2  0
  5 30  1  0
 30 31  2  0
 31  2  1  0
 29  7  1  0
 26 12  1  0
  1 32  1  0
  1 33  1  0
  1 34  1  0
  3 35  1  0
  4 36  1  0
  8 37  1  0
  9 38  1  0
 11 39  1  0
 11 40  1  0
 13 41  1  0
 13 42  1  0
 14 43  1  0
 14 44  1  0
 16 45  1  0
 20 46  1  0
 21 47  1  0
 21 48  1  0
 23 49  1  0
 23 50  1  0
 23 51  1  0
 24 52  1  0
 24 53  1  0
 24 54  1  0
 25 55  1  0
 25 56  1  0
 25 57  1  0
 28 58  1  0
 29 59  1  0
 30 60  1  0
 31 61  1  0
M  END
$$$$
[H]c1c([H])c(S(=O)(=O)N([H])[C@]([H])(C(=O)N2C([H])([H])C([H])([H])N(c3c([H])c([H])c(Cl)c([H])c3N3C(=O)OC(C([H])([H])[H])(C([H])([H])C([H])([H])[H])C3=O)C([H])([H])C2([H])[H])C([H])([H])[H])c([H])c([H])c1F
     RDKit          3D

 66 69  0  0  0  0  0  0  0  0999 V2000
   -6.6610    2.1882   -1.6052 C   0  0  0  0  0  0  0  0  0  0  0  0
   -6.2470    2.2379   -0.1726 C   0  0  0  0  0  0  0  0  0  0  0  0
   -4.7572    2.4557    0.0002 C   0  0  0  0  0  0  0  0  0  0  0  0
   -4.3210    3.7391   -0.6174 C   0  0  0  0  0  0  0  0  0  0  0  0
   -4.4063    2.4047    1.3686 O   0  0  0  0  0  0  0  0  0  0  0  0
   -4.0501    1.0949    1.7202 C   0  0  0  0  0  0  0  0  0  0  0  0
   -3.9895    0.6895    2.9140 O   0  0  0  0  0  0  0  0  0  0  0  0
   -3.7850    0.3516    0.5423 N   0  0  0  0  0  0  0  0  0  0  0  0
   -3.9963    1.2639   -0.5246 C   0  0  0  0  0  0  0  0  0  0  0  0
   -3.6002    1.0762   -1.7028 O   0  0  0  0  0  0  0  0  0  0  0  0
   -3.4065   -1.0080    0.4355 C   0  0  0  0  0  0  0  0  0  0  0  0
   -4.3925   -2.0128    0.4744 C   0  0  0  0  0  0  0  0  0  0  0  0
   -4.1130   -3.3357    0.3691 C   0  0  0  0  0  0  0  0  0  0  0  0
   -5.4283   -4.4795    0.4323 Cl  0  0  0  0  0  0  0  0  0  0  0  0
   -2.8065   -3.7322    0.2162 C   0  0  0  0  0  0  0  0  0  0  0  0
   -1.7936   -2.8022    0.1705 C   0  0  0  0  0  0  0  0  0  0  0  0
   -2.1151   -1.4399    0.2825 C   0  0  0  0  0  0  0  0  0  0  0  0
   -1.0571   -0.4795    0.2463 N   0  0  0  0  0  0  0  0  0  0  0  0
   -0.7040    0.3681    1.3645 C   0  0  0  0  0  0  0  0  0  0  0  0
    0.7823    0.3113    1.6344 C   0  0  0  0  0  0  0  0  0  0  0  0
    1.5139   -0.2624    0.5302 N   0  0  0  0  0  0  0  0  0  0  0  0
    1.1164    0.0943   -0.7973 C   0  0  0  0  0  0  0  0  0  0  0  0
   -0.3121   -0.3719   -0.9876 C   0  0  0  0  0  0  0  0  0  0  0  0
    2.5997   -1.1212    0.7681 C   0  0  0  0  0  0  0  0  0  0  0  0
    2.9108   -1.3380    2.0060 O   0  0  0  0  0  0  0  0  0  0  0  0
    3.4019   -1.7830   -0.2943 C   0  0  2  0  0  0  0  0  0  0  0  0
    2.5262   -2.8056   -1.0022 C   0  0  0  0  0  0  0  0  0  0  0  0
    4.5121   -2.4620    0.3611 N   0  0  0  0  0  0  0  0  0  0  0  0
    6.0380   -1.9336   -0.1803 S   0  0  0  0  0  0  0  0  0  0  0  0
    6.0741   -2.1065   -1.6889 O   0  0  0  0  0  0  0  0  0  0  0  0
    7.1306   -2.6914    0.4743 O   0  0  0  0  0  0  0  0  0  0  0  0
    6.2813   -0.2378    0.1489 C   0  0  0  0  0  0  0  0  0  0  0  0
    5.9439    0.7649   -0.7338 C   0  0  0  0  0  0  0  0  0  0  0  0
    6.1486    2.1129   -0.4444 C   0  0  0  0  0  0  0  0  0  0  0  0
    6.7046    2.4694    0.7569 C   0  0  0  0  0  0  0  0  0  0  0  0
    6.9077    3.7859    1.0471 F   0  0  0  0  0  0  0  0  0  0  0  0
    7.0510    1.4904    1.6560 C   0  0  0  0  0  0  0  0  0  0  0  0
    6.8438    0.1681    1.3580 C   0  0  0  0  0  0  0  0  0  0  0  0
   -7.5614    2.8154   -1.8178 H   0  0  0  0  0  0  0  0  0  0  0  0
   -6.9713    1.1473   -1.9163 H   0  0  0  0  0  0  0  0  0  0  0  0
   -5.8907    2.4962   -2.3242 H   0  0  0  0  0  0  0  0  0  0  0  0
   -6.5495    1.2742    0.3034 H   0  0  0  0  0  0  0  0  0  0  0  0
   -6.8212    3.0356    0.3367 H   0  0  0  0  0  0  0  0  0  0  0  0
   -5.1930    4.4328   -0.6106 H   0  0  0  0  0  0  0  0  0  0  0  0
   -3.4962    4.2267   -0.0899 H   0  0  0  0  0  0  0  0  0  0  0  0
   -4.0968    3.5397   -1.6911 H   0  0  0  0  0  0  0  0  0  0  0  0
   -5.4071   -1.6594    0.5950 H   0  0  0  0  0  0  0  0  0  0  0  0
   -2.5998   -4.8067    0.1331 H   0  0  0  0  0  0  0  0  0  0  0  0
   -0.7698   -3.0634    0.0538 H   0  0  0  0  0  0  0  0  0  0  0  0
   -0.9765    1.4246    1.1613 H   0  0  0  0  0  0  0  0  0  0  0  0
   -1.2280   -0.0508    2.2535 H   0  0  0  0  0  0  0  0  0  0  0  0
    0.9344   -0.2399    2.5791 H   0  0  0  0  0  0  0  0  0  0  0  0
    1.1540    1.3409    1.8334 H   0  0  0  0  0  0  0  0  0  0  0  0
    1.1710    1.2166   -0.9484 H   0  0  0  0  0  0  0  0  0  0  0  0
    1.7246   -0.3792   -1.6048 H   0  0  0  0  0  0  0  0  0  0  0  0
   -0.2340   -1.3997   -1.4536 H   0  0  0  0  0  0  0  0  0  0  0  0
   -0.8317    0.3108   -1.6986 H   0  0  0  0  0  0  0  0  0  0  0  0
    3.8111   -1.0654   -1.0228 H   0  0  0  0  0  0  0  0  0  0  0  0
    2.9545   -3.8335   -0.9003 H   0  0  0  0  0  0  0  0  0  0  0  0
    2.4203   -2.6039   -2.0720 H   0  0  0  0  0  0  0  0  0  0  0  0
    1.5441   -2.8441   -0.5325 H   0  0  0  0  0  0  0  0  0  0  0  0
    4.3795   -2.5364    1.3698 H   0  0  0  0  0  0  0  0  0  0  0  0
    5.5094    0.4917   -1.6769 H   0  0  0  0  0  0  0  0  0  0  0  0
    5.8789    2.8859   -1.1473 H   0  0  0  0  0  0  0  0  0  0  0  0
    7.4860    1.7899    2.5912 H   0  0  0  0  0  0  0  0  0  0  0  0
    7.1149   -0.6096    2.0645 H   0  0  0  0  0  0  0  0  0  0  0  0
  1  2  1  0
  2  3  1  0
  3  4  1  0
  3  5  1  0
  5  6  1  0
  6  7  2  0
  6  8  1  0
  8  9  1  0
  9 10  2  0
  8 11  1  0
 11 12  2  0
 12 13  1  0
 13 14  1  0
 13 15  2  0
 15 16  1  0
 16 17  2  0
 17 18  1  0
 18 19  1  0
 19 20  1  0
 20 21  1  0
 21 22  1  0
 22 23  1  0
 21 24  1  0
 24 25  2  0
 24 26  1  0
 26 27  1  0
 26 28  1  0
 28 29  1  0
 29 30  2  0
 29 31  2  0
 29 32  1  0
 32 33  2  0
 33 34  1  0
 34 35  2  0
 35 36  1  0
 35 37  1  0
 37 38  2  0
  9  3  1  0
 17 11  1  0
 23 18  1  0
 38 32  1  0
  1 39  1  0
  1 40  1  0
  1 41  1  0
  2 42  1  0
  2 43  1  0
  4 44  1  0
  4 45  1  0
  4 46  1  0
 12 47  1  0
 15 48  1  0
 16 49  1  0
 19 50  1  0
 19 51  1  0
 20 52  1  0
 20 53  1  0
 22 54  1  0
 22 55  1  0
 23 56  1  0
 23 57  1  0
 26 58  1  6
 27 59  1  0
 27 60  1  0
 27 61  1  0
 28 62  1  0
 33 63  1  0
 34 64  1  0
 37 65  1  0
 38 66  1  0
M  END
$$$$
[H]c1nc(N2C([H])([H])C([H])([H])C([H])(n3c(=O)n(C([H])([H])[H])c(=O)c4c(OC([H])([H])[H])c([H])c([H])c([H])c43)C([H])([H])C2([H])[H])c([H])c([H])c1N(C([H])([H])C([H])([H])[H])C(C([H])([H])[H])(C([H])([H])[H])C([H])([H])[H]
     RDKit          3D

 69 72  0  0  0  0  0  0  0  0999 V2000
   -7.2236   -0.6733    2.4035 C   0  0  0  0  0  0  0  0  0  0  0  0
   -6.3917    0.4199    1.8351 C   0  0  0  0  0  0  0  0  0  0  0  0
   -5.8073    0.1380    0.5544 N   0  0  0  0  0  0  0  0  0  0  0  0
   -4.3983   -0.0286    0.4545 C   0  0  0  0  0  0  0  0  0  0  0  0
   -3.7827   -1.2303    0.7111 C   0  0  0  0  0  0  0  0  0  0  0  0
   -2.4042   -1.3189    0.5892 C   0  0  0  0  0  0  0  0  0  0  0  0
   -1.6618   -0.2222    0.2172 C   0  0  0  0  0  0  0  0  0  0  0  0
   -2.2959    0.9280   -0.0236 N   0  0  0  0  0  0  0  0  0  0  0  0
   -3.6166    1.0380    0.0866 C   0  0  0  0  0  0  0  0  0  0  0  0
   -0.2399   -0.2519    0.0803 N   0  0  0  0  0  0  0  0  0  0  0  0
    0.4701   -1.4512    0.4009 C   0  0  0  0  0  0  0  0  0  0  0  0
    1.7188   -1.4892   -0.5157 C   0  0  0  0  0  0  0  0  0  0  0  0
    2.5653   -0.3248   -0.0565 C   0  0  0  0  0  0  0  0  0  0  0  0
    1.8657    0.9127   -0.5662 C   0  0  0  0  0  0  0  0  0  0  0  0
    0.4015    0.9526   -0.3746 C   0  0  0  0  0  0  0  0  0  0  0  0
    3.9402   -0.3724   -0.4194 N   0  0  0  0  0  0  0  0  0  0  0  0
    4.8385    0.3069    0.3593 C   0  0  0  0  0  0  0  0  0  0  0  0
    4.4857    1.0286    1.4553 C   0  0  0  0  0  0  0  0  0  0  0  0
    5.4339    1.7034    2.2041 C   0  0  0  0  0  0  0  0  0  0  0  0
    6.7745    1.6802    1.8813 C   0  0  0  0  0  0  0  0  0  0  0  0
    7.1499    0.9443    0.7598 C   0  0  0  0  0  0  0  0  0  0  0  0
    8.4702    0.8592    0.3533 O   0  0  0  0  0  0  0  0  0  0  0  0
    9.5626    1.4643    0.9710 C   0  0  0  0  0  0  0  0  0  0  0  0
    6.1985    0.2776    0.0231 C   0  0  0  0  0  0  0  0  0  0  0  0
    6.5954   -0.4351   -1.0827 C   0  0  0  0  0  0  0  0  0  0  0  0
    7.8104   -0.4626   -1.3831 O   0  0  0  0  0  0  0  0  0  0  0  0
    5.6805   -1.0869   -1.8187 N   0  0  0  0  0  0  0  0  0  0  0  0
    6.0968   -1.8318   -2.9698 C   0  0  0  0  0  0  0  0  0  0  0  0
    4.3564   -1.0546   -1.4875 C   0  0  0  0  0  0  0  0  0  0  0  0
    3.5528   -1.6725   -2.2034 O   0  0  0  0  0  0  0  0  0  0  0  0
   -6.6086    0.0245   -0.6297 C   0  0  0  0  0  0  0  0  0  0  0  0
   -7.5826   -1.1170   -0.6121 C   0  0  0  0  0  0  0  0  0  0  0  0
   -5.7569   -0.1165   -1.8770 C   0  0  0  0  0  0  0  0  0  0  0  0
   -7.4016    1.3107   -0.8170 C   0  0  0  0  0  0  0  0  0  0  0  0
   -7.0402   -1.6578    1.9360 H   0  0  0  0  0  0  0  0  0  0  0  0
   -8.3241   -0.4477    2.3639 H   0  0  0  0  0  0  0  0  0  0  0  0
   -6.9857   -0.7388    3.4910 H   0  0  0  0  0  0  0  0  0  0  0  0
   -5.5878    0.7411    2.5594 H   0  0  0  0  0  0  0  0  0  0  0  0
   -7.0290    1.3422    1.7374 H   0  0  0  0  0  0  0  0  0  0  0  0
   -4.3252   -2.1113    1.0038 H   0  0  0  0  0  0  0  0  0  0  0  0
   -1.9447   -2.2785    0.7999 H   0  0  0  0  0  0  0  0  0  0  0  0
   -4.1177    1.9797   -0.1133 H   0  0  0  0  0  0  0  0  0  0  0  0
   -0.0736   -2.3904    0.2711 H   0  0  0  0  0  0  0  0  0  0  0  0
    0.8988   -1.3370    1.4249 H   0  0  0  0  0  0  0  0  0  0  0  0
    1.2868   -1.3693   -1.5229 H   0  0  0  0  0  0  0  0  0  0  0  0
    2.2115   -2.4772   -0.4073 H   0  0  0  0  0  0  0  0  0  0  0  0
    2.4496   -0.3501    1.0717 H   0  0  0  0  0  0  0  0  0  0  0  0
    2.0529    1.0305   -1.6769 H   0  0  0  0  0  0  0  0  0  0  0  0
    2.3052    1.8620   -0.1427 H   0  0  0  0  0  0  0  0  0  0  0  0
    0.1567    1.7259    0.4239 H   0  0  0  0  0  0  0  0  0  0  0  0
   -0.1402    1.3802   -1.2745 H   0  0  0  0  0  0  0  0  0  0  0  0
    3.4852    1.1015    1.7696 H   0  0  0  0  0  0  0  0  0  0  0  0
    5.0864    2.2653    3.0715 H   0  0  0  0  0  0  0  0  0  0  0  0
    7.5099    2.1944    2.4501 H   0  0  0  0  0  0  0  0  0  0  0  0
   10.4329    0.7649    0.8475 H   0  0  0  0  0  0  0  0  0  0  0  0
    9.4550    1.6441    2.0499 H   0  0  0  0  0  0  0  0  0  0  0  0
    9.8544    2.3766    0.4025 H   0  0  0  0  0  0  0  0  0  0  0  0
    6.9922   -2.4229   -2.6766 H   0  0  0  0  0  0  0  0  0  0  0  0
    5.3218   -2.5257   -3.3492 H   0  0  0  0  0  0  0  0  0  0  0  0
    6.3874   -1.1525   -3.8129 H   0  0  0  0  0  0  0  0  0  0  0  0
   -7.0559   -2.0929   -0.4033 H   0  0  0  0  0  0  0  0  0  0  0  0
   -8.0106   -1.1689   -1.6618 H   0  0  0  0  0  0  0  0  0  0  0  0
   -8.4552   -0.9663    0.0524 H   0  0  0  0  0  0  0  0  0  0  0  0
   -5.0921   -0.9786   -1.7517 H   0  0  0  0  0  0  0  0  0  0  0  0
   -5.1870    0.8020   -2.0621 H   0  0  0  0  0  0  0  0  0  0  0  0
   -6.4571   -0.2329   -2.7387 H   0  0  0  0  0  0  0  0  0  0  0  0
   -6.7350    2.1792   -0.8288 H   0  0  0  0  0  0  0  0  0  0  0  0
   -7.9271    1.2525   -1.7852 H   0  0  0  0  0  0  0  0  0  0  0  0
   -8.1943    1.3899   -0.0218 H   0  0  0  0  0  0  0  0  0  0  0  0
  1  2  1  0
  2  3  1  0
  3  4  1  0
  4  5  2  0
  5  6  1  0
  6  7  2  0
  7  8  1  0
  8  9  2  0
  7 10  1  0
 10 11  1  0
 11 12  1  0
 12 13  1  0
 13 14  1  0
 14 15  1  0
 13 16  1  0
 16 17  1  0
 17 18  2  0
 18 19  1  0
 19 20  2  0
 20 21  1  0
 21 22  1  0
 22 23  1  0
 21 24  2  0
 24 25  1  0
 25 26  2  0
 25 27  1  0
 27 28  1  0
 27 29  1  0
 29 30  2  0
  3 31  1  0
 31 32  1  0
 31 33  1  0
 31 34  1  0
  9  4  1  0
 15 10  1  0
 29 16  1  0
 24 17  1  0
  1 35  1  0
  1 36  1  0
  1 37  1  0
  2 38  1  0
  2 39  1  0
  5 40  1  0
  6 41  1  0
  9 42  1  0
 11 43  1  0
 11 44  1  0
 12 45  1  0
 12 46  1  0
 13 47  1  0
 14 48  1  0
 14 49  1  0
 15 50  1  0
 15 51  1  0
 18 52  1  0
 19 53  1  0
 20 54  1  0
 23 55  1  0
 23 56  1  0
 23 57  1  0
 28 58  1  0
 28 59  1  0
 28 60  1  0
 32 61  1  0
 32 62  1  0
 32 63  1  0
 33 64  1  0
 33 65  1  0
 33 66  1  0
 34 67  1  0
 34 68  1  0
 34 69  1  0
M  END
$$$$
[H]c1nc(C(=O)N([H])S(=O)(=O)C([H])([H])[H])c([H])nc1Oc1c([H])c([H])c(N([H])C(=O)[C@@]2([H])N(C(=O)N([H])c3c([H])c([H])c(Cl)c([H])c3[H])C([H])([H])C([H])([H])C2([H])[H])c([H])c1[H]
     RDKit          3D

 61 64  0  0  0  0  0  0  0  0999 V2000
   12.0973    0.3096    0.8380 C   0  0  0  0  0  0  0  0  0  0  0  0
   10.9965   -0.6181   -0.1999 S   0  0  0  0  0  0  0  0  0  0  0  0
   11.5587   -0.8432   -1.5735 O   0  0  0  0  0  0  0  0  0  0  0  0
   10.7698   -1.9720    0.4453 O   0  0  0  0  0  0  0  0  0  0  0  0
    9.4914    0.2194   -0.2985 N   0  0  0  0  0  0  0  0  0  0  0  0
    8.2866   -0.4486    0.0001 C   0  0  0  0  0  0  0  0  0  0  0  0
    8.2857   -1.6845    0.3457 O   0  0  0  0  0  0  0  0  0  0  0  0
    7.0045    0.2443   -0.0741 C   0  0  0  0  0  0  0  0  0  0  0  0
    6.8899    1.5692   -0.4045 C   0  0  0  0  0  0  0  0  0  0  0  0
    5.6708    2.1585   -0.4569 N   0  0  0  0  0  0  0  0  0  0  0  0
    4.5452    1.4905   -0.1945 C   0  0  0  0  0  0  0  0  0  0  0  0
    3.3204    2.1092   -0.2509 O   0  0  0  0  0  0  0  0  0  0  0  0
    2.1240    1.4829   -0.0001 C   0  0  0  0  0  0  0  0  0  0  0  0
    1.6335    1.3690    1.2770 C   0  0  0  0  0  0  0  0  0  0  0  0
    0.4405    0.7446    1.5242 C   0  0  0  0  0  0  0  0  0  0  0  0
   -0.3452    0.1899    0.5021 C   0  0  0  0  0  0  0  0  0  0  0  0
   -1.5580   -0.4629    0.8238 N   0  0  0  0  0  0  0  0  0  0  0  0
   -2.5903   -0.7418   -0.0737 C   0  0  0  0  0  0  0  0  0  0  0  0
   -2.5645   -0.4405   -1.2603 O   0  0  0  0  0  0  0  0  0  0  0  0
   -3.8109   -1.4497    0.4192 C   0  0  2  0  0  0  0  0  0  0  0  0
   -3.4686   -2.9288    0.6820 C   0  0  0  0  0  0  0  0  0  0  0  0
   -3.3572   -3.4394   -0.7414 C   0  0  0  0  0  0  0  0  0  0  0  0
   -4.4204   -2.6263   -1.4888 C   0  0  0  0  0  0  0  0  0  0  0  0
   -4.8242   -1.5934   -0.5805 N   0  0  0  0  0  0  0  0  0  0  0  0
   -6.0325   -0.8269   -0.6505 C   0  0  0  0  0  0  0  0  0  0  0  0
   -6.8316   -1.0696   -1.5837 O   0  0  0  0  0  0  0  0  0  0  0  0
   -6.3227    0.1725    0.2967 N   0  0  0  0  0  0  0  0  0  0  0  0
   -7.4677    0.9794    0.3133 C   0  0  0  0  0  0  0  0  0  0  0  0
   -8.2491    1.1973   -0.7821 C   0  0  0  0  0  0  0  0  0  0  0  0
   -9.3988    1.9975   -0.6855 C   0  0  0  0  0  0  0  0  0  0  0  0
   -9.7638    2.5758    0.4985 C   0  0  0  0  0  0  0  0  0  0  0  0
  -11.2182    3.5770    0.5947 Cl  0  0  0  0  0  0  0  0  0  0  0  0
   -8.9855    2.3718    1.6293 C   0  0  0  0  0  0  0  0  0  0  0  0
   -7.8841    1.5926    1.4933 C   0  0  0  0  0  0  0  0  0  0  0  0
    0.1650    0.3161   -0.7598 C   0  0  0  0  0  0  0  0  0  0  0  0
    1.3892    0.9561   -1.0192 C   0  0  0  0  0  0  0  0  0  0  0  0
    4.6583    0.1633    0.1360 C   0  0  0  0  0  0  0  0  0  0  0  0
    5.8557   -0.4491    0.1962 N   0  0  0  0  0  0  0  0  0  0  0  0
   12.7335   -0.4103    1.4158 H   0  0  0  0  0  0  0  0  0  0  0  0
   12.7664    0.9170    0.2003 H   0  0  0  0  0  0  0  0  0  0  0  0
   11.5576    0.9966    1.5266 H   0  0  0  0  0  0  0  0  0  0  0  0
    9.4867    1.2073   -0.5777 H   0  0  0  0  0  0  0  0  0  0  0  0
    7.7402    2.1705   -0.6275 H   0  0  0  0  0  0  0  0  0  0  0  0
    2.2077    1.7871    2.1136 H   0  0  0  0  0  0  0  0  0  0  0  0
    0.0474    0.6506    2.5373 H   0  0  0  0  0  0  0  0  0  0  0  0
   -1.6783   -0.7638    1.8424 H   0  0  0  0  0  0  0  0  0  0  0  0
   -4.1543   -1.0662    1.3922 H   0  0  0  0  0  0  0  0  0  0  0  0
   -2.4444   -3.0035    1.1534 H   0  0  0  0  0  0  0  0  0  0  0  0
   -4.2361   -3.4292    1.2696 H   0  0  0  0  0  0  0  0  0  0  0  0
   -2.3589   -3.2832   -1.1631 H   0  0  0  0  0  0  0  0  0  0  0  0
   -3.6979   -4.5033   -0.7753 H   0  0  0  0  0  0  0  0  0  0  0  0
   -3.9175   -2.2293   -2.3989 H   0  0  0  0  0  0  0  0  0  0  0  0
   -5.2746   -3.2587   -1.8121 H   0  0  0  0  0  0  0  0  0  0  0  0
   -5.5779    0.3232    1.0831 H   0  0  0  0  0  0  0  0  0  0  0  0
   -8.0374    0.8017   -1.7681 H   0  0  0  0  0  0  0  0  0  0  0  0
   -9.9981    2.1497   -1.5796 H   0  0  0  0  0  0  0  0  0  0  0  0
   -9.2279    2.8035    2.5813 H   0  0  0  0  0  0  0  0  0  0  0  0
   -7.2403    1.4078    2.3648 H   0  0  0  0  0  0  0  0  0  0  0  0
   -0.3267   -0.0702   -1.6128 H   0  0  0  0  0  0  0  0  0  0  0  0
    1.7769    1.0458   -2.0299 H   0  0  0  0  0  0  0  0  0  0  0  0
    3.7640   -0.4348    0.3602 H   0  0  0  0  0  0  0  0  0  0  0  0
  1  2  1  0
  2  3  2  0
  2  4  2  0
  2  5  1  0
  5  6  1  0
  6  7  2  0
  6  8  1  0
  8  9  2  0
  9 10  1  0
 10 11  2  0
 11 12  1  0
 12 13  1  0
 13 14  2  0
 14 15  1  0
 15 16  2  0
 16 17  1  0
 17 18  1  0
 18 19  2  0
 18 20  1  0
 20 21  1  0
 21 22  1  0
 22 23  1  0
 23 24  1  0
 24 25  1  0
 25 26  2  0
 25 27  1  0
 27 28  1  0
 28 29  2  0
 29 30  1  0
 30 31  2  0
 31 32  1  0
 31 33  1  0
 33 34  2  0
 16 35  1  0
 35 36  2  0
 11 37  1  0
 37 38  2  0
 38  8  1  0
 36 13  1  0
 24 20  1  0
 34 28  1  0
  1 39  1  0
  1 40  1  0
  1 41  1  0
  5 42  1  0
  9 43  1  0
 14 44  1  0
 15 45  1  0
 17 46  1  0
 20 47  1  1
 21 48  1  0
 21 49  1  0
 22 50  1  0
 22 51  1  0
 23 52  1  0
 23 53  1  0
 27 54  1  0
 29 55  1  0
 30 56  1  0
 33 57  1  0
 34 58  1  0
 35 59  1  0
 36 60  1  0
 37 61  1  0
M  END
$$$$
[H]c1nc2c(S(=O)(=O)N([H])C(C(=O)OC([H])([H])[H])(C([H])([H])[H])C([H])([H])[H])c([H])c([H])c(N([H])C(=O)N3C([H])([H])C([H])([H])N(c4c([H])c([H])c(C(=O)N([H])[H])c([H])c4C([H])([H])[H])C([H])([H])C3([H])[H])c2c([H])c1[H]
     RDKit          3D

 72 75  0  0  0  0  0  0  0  0999 V2000
    9.4861    2.7165    0.0779 C   0  0  0  0  0  0  0  0  0  0  0  0
    8.4444    1.8331   -0.2947 O   0  0  0  0  0  0  0  0  0  0  0  0
    8.1441    0.6856    0.4169 C   0  0  0  0  0  0  0  0  0  0  0  0
    8.7694    0.3627    1.4215 O   0  0  0  0  0  0  0  0  0  0  0  0
    7.0150   -0.1559   -0.0912 C   0  0  0  0  0  0  0  0  0  0  0  0
    5.7844    0.7171   -0.2221 C   0  0  0  0  0  0  0  0  0  0  0  0
    7.4073   -0.5333   -1.5143 C   0  0  0  0  0  0  0  0  0  0  0  0
    6.8786   -1.2542    0.7715 N   0  0  0  0  0  0  0  0  0  0  0  0
    5.7970   -2.4816    0.4461 S   0  0  0  0  0  0  0  0  0  0  0  0
    6.1051   -3.2753   -0.7950 O   0  0  0  0  0  0  0  0  0  0  0  0
    5.8909   -3.5025    1.5813 O   0  0  0  0  0  0  0  0  0  0  0  0
    4.1097   -2.0389    0.3781 C   0  0  0  0  0  0  0  0  0  0  0  0
    3.3652   -2.2351   -0.7528 C   0  0  0  0  0  0  0  0  0  0  0  0
    2.0128   -1.8952   -0.8231 C   0  0  0  0  0  0  0  0  0  0  0  0
    1.3494   -1.3436    0.2377 C   0  0  0  0  0  0  0  0  0  0  0  0
   -0.0387   -1.0080    0.2273 N   0  0  0  0  0  0  0  0  0  0  0  0
   -0.8837   -1.0072   -0.8757 C   0  0  0  0  0  0  0  0  0  0  0  0
   -0.4864   -1.3177   -2.0171 O   0  0  0  0  0  0  0  0  0  0  0  0
   -2.2526   -0.6545   -0.7768 N   0  0  0  0  0  0  0  0  0  0  0  0
   -2.8270   -0.2388    0.4657 C   0  0  0  0  0  0  0  0  0  0  0  0
   -3.8456    0.8544    0.2992 C   0  0  0  0  0  0  0  0  0  0  0  0
   -4.6351    0.6897   -0.8630 N   0  0  0  0  0  0  0  0  0  0  0  0
   -4.0264    0.3674   -2.1426 C   0  0  0  0  0  0  0  0  0  0  0  0
   -3.0666   -0.7579   -1.9856 C   0  0  0  0  0  0  0  0  0  0  0  0
   -6.0510    0.8599   -0.8097 C   0  0  0  0  0  0  0  0  0  0  0  0
   -6.5134    1.9771   -1.5272 C   0  0  0  0  0  0  0  0  0  0  0  0
   -7.8677    2.2140   -1.5066 C   0  0  0  0  0  0  0  0  0  0  0  0
   -8.7161    1.3724   -0.8012 C   0  0  0  0  0  0  0  0  0  0  0  0
   -8.2382    0.2910   -0.1112 C   0  0  0  0  0  0  0  0  0  0  0  0
   -6.8611    0.0246   -0.1147 C   0  0  0  0  0  0  0  0  0  0  0  0
   -6.3294   -1.1416    0.6073 C   0  0  0  0  0  0  0  0  0  0  0  0
  -10.1522    1.6502   -0.7946 C   0  0  0  0  0  0  0  0  0  0  0  0
  -10.6611    2.7962   -1.4528 N   0  0  0  0  0  0  0  0  0  0  0  0
  -10.9391    0.8897   -0.2153 O   0  0  0  0  0  0  0  0  0  0  0  0
    2.1040   -1.1364    1.4077 C   0  0  0  0  0  0  0  0  0  0  0  0
    1.5042   -0.5824    2.5053 C   0  0  0  0  0  0  0  0  0  0  0  0
    2.2898   -0.3846    3.6587 C   0  0  0  0  0  0  0  0  0  0  0  0
    3.6121   -0.7440    3.6559 C   0  0  0  0  0  0  0  0  0  0  0  0
    4.1999   -1.2863    2.5795 N   0  0  0  0  0  0  0  0  0  0  0  0
    3.4549   -1.4838    1.4568 C   0  0  0  0  0  0  0  0  0  0  0  0
   10.4477    2.3402   -0.2743 H   0  0  0  0  0  0  0  0  0  0  0  0
    9.3015    3.7457   -0.2930 H   0  0  0  0  0  0  0  0  0  0  0  0
    9.4926    2.7352    1.1895 H   0  0  0  0  0  0  0  0  0  0  0  0
    5.3272    0.9095    0.7453 H   0  0  0  0  0  0  0  0  0  0  0  0
    5.0449    0.3527   -0.9479 H   0  0  0  0  0  0  0  0  0  0  0  0
    6.1577    1.6823   -0.6582 H   0  0  0  0  0  0  0  0  0  0  0  0
    6.5135   -0.7195   -2.1506 H   0  0  0  0  0  0  0  0  0  0  0  0
    8.1209   -1.3757   -1.4983 H   0  0  0  0  0  0  0  0  0  0  0  0
    7.9416    0.3186   -1.9948 H   0  0  0  0  0  0  0  0  0  0  0  0
    7.6255   -1.4237    1.4504 H   0  0  0  0  0  0  0  0  0  0  0  0
    3.8479   -2.6693   -1.6173 H   0  0  0  0  0  0  0  0  0  0  0  0
    1.5023   -2.0942   -1.7519 H   0  0  0  0  0  0  0  0  0  0  0  0
   -0.4995   -0.7553    1.1461 H   0  0  0  0  0  0  0  0  0  0  0  0
   -2.0768    0.1855    1.1914 H   0  0  0  0  0  0  0  0  0  0  0  0
   -3.2526   -1.1080    1.0260 H   0  0  0  0  0  0  0  0  0  0  0  0
   -3.2633    1.8128    0.2244 H   0  0  0  0  0  0  0  0  0  0  0  0
   -4.4684    0.8861    1.2339 H   0  0  0  0  0  0  0  0  0  0  0  0
   -4.7815    0.1601   -2.9108 H   0  0  0  0  0  0  0  0  0  0  0  0
   -3.4590    1.2802   -2.4482 H   0  0  0  0  0  0  0  0  0  0  0  0
   -3.6335   -1.7144   -1.9631 H   0  0  0  0  0  0  0  0  0  0  0  0
   -2.3708   -0.8000   -2.8457 H   0  0  0  0  0  0  0  0  0  0  0  0
   -5.8337    2.6264   -2.0741 H   0  0  0  0  0  0  0  0  0  0  0  0
   -8.2458    3.0624   -2.0489 H   0  0  0  0  0  0  0  0  0  0  0  0
   -8.8684   -0.3883    0.4499 H   0  0  0  0  0  0  0  0  0  0  0  0
   -7.1563   -1.8931    0.7469 H   0  0  0  0  0  0  0  0  0  0  0  0
   -5.9374   -0.9483    1.6014 H   0  0  0  0  0  0  0  0  0  0  0  0
   -5.5719   -1.6753   -0.0047 H   0  0  0  0  0  0  0  0  0  0  0  0
  -10.7526    3.6769   -0.9421 H   0  0  0  0  0  0  0  0  0  0  0  0
  -10.9465    2.7613   -2.4527 H   0  0  0  0  0  0  0  0  0  0  0  0
    0.4722   -0.2814    2.5439 H   0  0  0  0  0  0  0  0  0  0  0  0
    1.7820    0.0514    4.4972 H   0  0  0  0  0  0  0  0  0  0  0  0
    4.2077   -0.5837    4.5618 H   0  0  0  0  0  0  0  0  0  0  0  0
  1  2  1  0
  2  3  1  0
  3  4  2  0
  3  5  1  0
  5  6  1  0
  5  7  1  0
  5  8  1  0
  8  9  1  0
  9 10  2  0
  9 11  2  0
  9 12  1  0
 12 13  2  0
 13 14  1  0
 14 15  2  0
 15 16  1  0
 16 17  1  0
 17 18  2  0
 17 19  1  0
 19 20  1  0
 20 21  1  0
 21 22  1  0
 22 23  1  0
 23 24  1  0
 22 25  1  0
 25 26  2  0
 26 27  1  0
 27 28  2  0
 28 29  1  0
 29 30  2  0
 30 31  1  0
 28 32  1  0
 32 33  1  0
 32 34  2  0
 15 35  1  0
 35 36  2  0
 36 37  1  0
 37 38  2  0
 38 39  1  0
 39 40  2  0
 40 12  1  0
 24 19  1  0
 30 25  1  0
 40 35  1  0
  1 41  1  0
  1 42  1  0
  1 43  1  0
  6 44  1  0
  6 45  1  0
  6 46  1  0
  7 47  1  0
  7 48  1  0
  7 49  1  0
  8 50  1  0
 13 51  1  0
 14 52  1  0
 16 53  1  0
 20 54  1  0
 20 55  1  0
 21 56  1  0
 21 57  1  0
 23 58  1  0
 23 59  1  0
 24 60  1  0
 24 61  1  0
 26 62  1  0
 27 63  1  0
 29 64  1  0
 31 65  1  0
 31 66  1  0
 31 67  1  0
 33 68  1  0
 33 69  1  0
 36 70  1  0
 37 71  1  0
 38 72  1  0
M  END
$$$$
[H]OC(=O)c1nc(Oc2c([H])c([H])c3c([H])c([H])c(=O)n([H])c3c2[H])c2c([H])c([H])c(O[H])c([H])c2c1[H]
     RDKit          3D

 38 41  0  0  0  0  0  0  0  0999 V2000
   -2.0571   -3.6445    2.1652 O   0  0  0  0  0  0  0  0  0  0  0  0
   -2.8925   -3.0345    1.2503 C   0  0  0  0  0  0  0  0  0  0  0  0
   -3.8842   -3.7097    0.8616 O   0  0  0  0  0  0  0  0  0  0  0  0
   -2.6480   -1.6764    0.7524 C   0  0  0  0  0  0  0  0  0  0  0  0
   -3.4830   -1.0726   -0.1588 C   0  0  0  0  0  0  0  0  0  0  0  0
   -3.2645    0.2010   -0.6324 C   0  0  0  0  0  0  0  0  0  0  0  0
   -4.1106    0.8100   -1.5343 C   0  0  0  0  0  0  0  0  0  0  0  0
   -3.8968    2.0876   -1.9927 C   0  0  0  0  0  0  0  0  0  0  0  0
   -4.7755    2.6739   -2.9077 O   0  0  0  0  0  0  0  0  0  0  0  0
   -2.8128    2.8039   -1.5543 C   0  0  0  0  0  0  0  0  0  0  0  0
   -1.9515    2.2273   -0.6576 C   0  0  0  0  0  0  0  0  0  0  0  0
   -2.1693    0.9456   -0.2022 C   0  0  0  0  0  0  0  0  0  0  0  0
   -1.3493    0.3227    0.7052 C   0  0  0  0  0  0  0  0  0  0  0  0
   -0.2213    0.9916    1.1843 O   0  0  0  0  0  0  0  0  0  0  0  0
    1.0618    0.7973    0.7166 C   0  0  0  0  0  0  0  0  0  0  0  0
    1.6520    1.5110   -0.2835 C   0  0  0  0  0  0  0  0  0  0  0  0
    2.9606    1.2485   -0.6984 C   0  0  0  0  0  0  0  0  0  0  0  0
    3.6727    0.2441   -0.0822 C   0  0  0  0  0  0  0  0  0  0  0  0
    4.9822   -0.0328   -0.4831 C   0  0  0  0  0  0  0  0  0  0  0  0
    5.6542   -1.0470    0.1634 C   0  0  0  0  0  0  0  0  0  0  0  0
    5.0884   -1.7837    1.1736 C   0  0  0  0  0  0  0  0  0  0  0  0
    5.6645   -2.7133    1.7867 O   0  0  0  0  0  0  0  0  0  0  0  0
    3.8182   -1.4933    1.5414 N   0  0  0  0  0  0  0  0  0  0  0  0
    3.1155   -0.5029    0.9337 C   0  0  0  0  0  0  0  0  0  0  0  0
    1.8236   -0.2161    1.3162 C   0  0  0  0  0  0  0  0  0  0  0  0
   -1.6020   -0.9475    1.1537 N   0  0  0  0  0  0  0  0  0  0  0  0
   -1.1405   -3.9813    1.9031 H   0  0  0  0  0  0  0  0  0  0  0  0
   -4.3495   -1.6488   -0.5061 H   0  0  0  0  0  0  0  0  0  0  0  0
   -4.9672    0.2233   -1.8704 H   0  0  0  0  0  0  0  0  0  0  0  0
   -5.5713    3.2036   -2.5199 H   0  0  0  0  0  0  0  0  0  0  0  0
   -2.6508    3.8318   -1.9294 H   0  0  0  0  0  0  0  0  0  0  0  0
   -1.1015    2.8042   -0.2969 H   0  0  0  0  0  0  0  0  0  0  0  0
    1.1650    2.3154   -0.8165 H   0  0  0  0  0  0  0  0  0  0  0  0
    3.4203    1.8235   -1.4961 H   0  0  0  0  0  0  0  0  0  0  0  0
    5.3844    0.5662   -1.2749 H   0  0  0  0  0  0  0  0  0  0  0  0
    6.6648   -1.2644   -0.1424 H   0  0  0  0  0  0  0  0  0  0  0  0
    3.3714   -2.0463    2.3110 H   0  0  0  0  0  0  0  0  0  0  0  0
    1.3997   -0.8174    2.1212 H   0  0  0  0  0  0  0  0  0  0  0  0
  1  2  1  0
  2  3  2  0
  2  4  1  0
  4  5  2  0
  5  6  1  0
  6  7  2  0
  7  8  1  0
  8  9  1  0
  8 10  2  0
 10 11  1  0
 11 12  2  0
 12 13  1  0
 13 14  1  0
 14 15  1  0
 15 16  2  0
 16 17  1  0
 17 18  2  0
 18 19  1  0
 19 20  2  0
 20 21  1  0
 21 22  2  0
 21 23  1  0
 23 24  1  0
 24 25  2  0
 13 26  2  0
 26  4  1  0
 12  6  1  0
 25 15  1  0
 24 18  1  0
  1 27  1  0
  5 28  1  0
  7 29  1  0
  9 30  1  0
 10 31  1  0
 11 32  1  0
 16 33  1  0
 17 34  1  0
 19 35  1  0
 20 36  1  0
 23 37  1  0
 25 38  1  0
M  END
$$$$
[H]OC(=O)C([H])([H])N([H])C(=O)C1([H])C([H])([H])C([H])([H])N(c2c([H])c([H])c(-c3c([H])nc4c([H])c([H])c([H])c([H])c4c3[H])c([H])c2[H])C([H])([H])C1([H])[H]
     RDKit          3D

 52 55  0  0  0  0  0  0  0  0999 V2000
   -9.8716   -0.8764   -0.0263 O   0  0  0  0  0  0  0  0  0  0  0  0
   -8.6355   -0.5306   -0.5035 C   0  0  0  0  0  0  0  0  0  0  0  0
   -8.5393    0.3430   -1.3879 O   0  0  0  0  0  0  0  0  0  0  0  0
   -7.4119   -1.1732    0.0187 C   0  0  0  0  0  0  0  0  0  0  0  0
   -6.3535   -0.3645   -0.0252 N   0  0  0  0  0  0  0  0  0  0  0  0
   -5.2381    0.4940   -0.0673 C   0  0  0  0  0  0  0  0  0  0  0  0
   -5.0430    1.4948    0.5919 O   0  0  0  0  0  0  0  0  0  0  0  0
   -4.1263    0.1454   -1.0466 C   0  0  0  0  0  0  0  0  0  0  0  0
   -3.1900    1.2864   -1.2000 C   0  0  0  0  0  0  0  0  0  0  0  0
   -1.7507    0.8584   -1.3508 C   0  0  0  0  0  0  0  0  0  0  0  0
   -1.3654    0.0939   -0.1487 N   0  0  0  0  0  0  0  0  0  0  0  0
   -2.4196   -0.4965    0.6219 C   0  0  0  0  0  0  0  0  0  0  0  0
   -3.4359   -1.0577   -0.3843 C   0  0  0  0  0  0  0  0  0  0  0  0
    0.0119    0.0305    0.0895 C   0  0  0  0  0  0  0  0  0  0  0  0
    0.6614    1.2428    0.2658 C   0  0  0  0  0  0  0  0  0  0  0  0
    2.0294    1.3247    0.4141 C   0  0  0  0  0  0  0  0  0  0  0  0
    2.7846    0.1861    0.3853 C   0  0  0  0  0  0  0  0  0  0  0  0
    2.1385   -1.0369    0.2122 C   0  0  0  0  0  0  0  0  0  0  0  0
    0.7985   -1.1089    0.0683 C   0  0  0  0  0  0  0  0  0  0  0  0
    4.2230    0.3378    0.4973 C   0  0  0  0  0  0  0  0  0  0  0  0
    4.7590    1.3448    1.2661 C   0  0  0  0  0  0  0  0  0  0  0  0
    6.1111    1.5340    1.3122 N   0  0  0  0  0  0  0  0  0  0  0  0
    6.9632    0.7339    0.6081 C   0  0  0  0  0  0  0  0  0  0  0  0
    8.3442    0.9178    0.6520 C   0  0  0  0  0  0  0  0  0  0  0  0
    9.2098    0.1120   -0.0672 C   0  0  0  0  0  0  0  0  0  0  0  0
    8.6982   -0.9253   -0.8624 C   0  0  0  0  0  0  0  0  0  0  0  0
    7.3095   -1.0892   -0.8898 C   0  0  0  0  0  0  0  0  0  0  0  0
    6.4381   -0.2965   -0.1796 C   0  0  0  0  0  0  0  0  0  0  0  0
    5.0745   -0.4609   -0.2080 C   0  0  0  0  0  0  0  0  0  0  0  0
  -10.0377   -0.9706    0.9555 H   0  0  0  0  0  0  0  0  0  0  0  0
   -7.3385   -2.1537   -0.5912 H   0  0  0  0  0  0  0  0  0  0  0  0
   -7.6087   -1.5297    1.0950 H   0  0  0  0  0  0  0  0  0  0  0  0
   -6.9933    0.5245    0.8064 H   0  0  0  0  0  0  0  0  0  0  0  0
   -4.5258   -0.2172   -2.0096 H   0  0  0  0  0  0  0  0  0  0  0  0
   -3.4671    1.9382   -2.0519 H   0  0  0  0  0  0  0  0  0  0  0  0
   -3.2662    2.0035   -0.3054 H   0  0  0  0  0  0  0  0  0  0  0  0
   -1.0922    1.7177   -1.5094 H   0  0  0  0  0  0  0  0  0  0  0  0
   -1.6849    0.1879   -2.2220 H   0  0  0  0  0  0  0  0  0  0  0  0
   -1.9846   -1.3196    1.1926 H   0  0  0  0  0  0  0  0  0  0  0  0
   -2.9133    0.2693    1.2343 H   0  0  0  0  0  0  0  0  0  0  0  0
   -4.1749   -1.6315    0.1916 H   0  0  0  0  0  0  0  0  0  0  0  0
   -2.9020   -1.6946   -1.0714 H   0  0  0  0  0  0  0  0  0  0  0  0
    0.1256    2.2166    0.3115 H   0  0  0  0  0  0  0  0  0  0  0  0
    2.4950    2.2679    0.5532 H   0  0  0  0  0  0  0  0  0  0  0  0
    2.7379   -1.9364    0.1822 H   0  0  0  0  0  0  0  0  0  0  0  0
    0.2716   -2.0404   -0.0727 H   0  0  0  0  0  0  0  0  0  0  0  0
    4.1952    2.0295    1.8753 H   0  0  0  0  0  0  0  0  0  0  0  0
    8.6858    1.7468    1.2616 H   0  0  0  0  0  0  0  0  0  0  0  0
   10.2645    0.2421   -0.0543 H   0  0  0  0  0  0  0  0  0  0  0  0
    9.3783   -1.5616   -1.3962 H   0  0  0  0  0  0  0  0  0  0  0  0
    6.9485   -1.8898   -1.4956 H   0  0  0  0  0  0  0  0  0  0  0  0
    4.7128   -1.2631   -0.8305 H   0  0  0  0  0  0  0  0  0  0  0  0
  1  2  1  0
  2  3  2  0
  2  4  1  0
  4  5  1  0
  5  6  1  0
  6  7  2  0
  6  8  1  0
  8  9  1  0
  9 10  1  0
 10 11  1  0
 11 12  1  0
 12 13  1  0
 11 14  1  0
 14 15  2  0
 15 16  1  0
 16 17  2  0
 17 18  1  0
 18 19  2  0
 17 20  1  0
 20 21  2  0
 21 22  1  0
 22 23  2  0
 23 24  1  0
 24 25  2  0
 25 26  1  0
 26 27  2  0
 27 28  1  0
 28 29  2  0
 13  8  1  0
 19 14  1  0
 29 20  1  0
 28 23  1  0
  1 30  1  0
  4 31  1  0
  4 32  1  0
  5 33  1  0
  8 34  1  0
  9 35  1  0
  9 36  1  0
 10 37  1  0
 10 38  1  0
 12 39  1  0
 12 40  1  0
 13 41  1  0
 13 42  1  0
 15 43  1  0
 16 44  1  0
 18 45  1  0
 19 46  1  0
 21 47  1  0
 24 48  1  0
 25 49  1  0
 26 50  1  0
 27 51  1  0
 29 52  1  0
M  END
$$$$
[H]OC(=O)c1c([H])c([H])c([H])c(N([H])C(=O)N([H])C([H])([H])C([H])([H])N2C([H])([H])C([H])([H])N(c3nc([H])c([H])c4c([H])c(Cl)c([H])nc34)C([H])([H])C2([H])[H])c1[H]
     RDKit          3D

 55 58  0  0  0  0  0  0  0  0999 V2000
    9.8876    1.0598    0.3120 O   0  0  0  0  0  0  0  0  0  0  0  0
    8.6268    0.9491    0.8770 C   0  0  0  0  0  0  0  0  0  0  0  0
    8.4046    1.5929    1.9294 O   0  0  0  0  0  0  0  0  0  0  0  0
    7.5858    0.1131    0.2738 C   0  0  0  0  0  0  0  0  0  0  0  0
    7.7826   -0.6009   -0.8649 C   0  0  0  0  0  0  0  0  0  0  0  0
    6.7840   -1.3795   -1.4095 C   0  0  0  0  0  0  0  0  0  0  0  0
    5.5426   -1.4230   -0.7585 C   0  0  0  0  0  0  0  0  0  0  0  0
    5.2960   -0.7296    0.3783 C   0  0  0  0  0  0  0  0  0  0  0  0
    4.0808   -0.7107    1.0732 N   0  0  0  0  0  0  0  0  0  0  0  0
    2.8284   -1.1615    0.6212 C   0  0  0  0  0  0  0  0  0  0  0  0
    2.7015   -1.6392   -0.5293 O   0  0  0  0  0  0  0  0  0  0  0  0
    1.7084   -1.0599    1.5080 N   0  0  0  0  0  0  0  0  0  0  0  0
    0.4144   -1.5017    1.0872 C   0  0  0  0  0  0  0  0  0  0  0  0
   -0.1687   -0.8011   -0.0808 C   0  0  0  0  0  0  0  0  0  0  0  0
   -0.3490    0.6157    0.0906 N   0  0  0  0  0  0  0  0  0  0  0  0
   -0.9190    1.1520   -1.1176 C   0  0  0  0  0  0  0  0  0  0  0  0
   -2.3808    0.7944   -1.2887 C   0  0  0  0  0  0  0  0  0  0  0  0
   -3.0430    0.8799   -0.0016 N   0  0  0  0  0  0  0  0  0  0  0  0
   -2.3593    1.6973    1.0120 C   0  0  0  0  0  0  0  0  0  0  0  0
   -1.0337    0.9978    1.2699 C   0  0  0  0  0  0  0  0  0  0  0  0
   -4.2593    0.2256    0.2643 C   0  0  0  0  0  0  0  0  0  0  0  0
   -4.3030   -0.6838    1.2531 N   0  0  0  0  0  0  0  0  0  0  0  0
   -5.4590   -1.3402    1.5440 C   0  0  0  0  0  0  0  0  0  0  0  0
   -6.6224   -1.1049    0.8465 C   0  0  0  0  0  0  0  0  0  0  0  0
   -6.6014   -0.1770   -0.1712 C   0  0  0  0  0  0  0  0  0  0  0  0
   -7.7397    0.0896   -0.8939 C   0  0  0  0  0  0  0  0  0  0  0  0
   -7.7018    1.0163   -1.9041 C   0  0  0  0  0  0  0  0  0  0  0  0
   -9.1372    1.3802   -2.8462 Cl  0  0  0  0  0  0  0  0  0  0  0  0
   -6.4991    1.6466   -2.1486 C   0  0  0  0  0  0  0  0  0  0  0  0
   -5.3852    1.3764   -1.4310 N   0  0  0  0  0  0  0  0  0  0  0  0
   -5.4137    0.4757   -0.4461 C   0  0  0  0  0  0  0  0  0  0  0  0
    6.3590    0.0414    0.8754 C   0  0  0  0  0  0  0  0  0  0  0  0
   10.7069    0.5866    0.7150 H   0  0  0  0  0  0  0  0  0  0  0  0
    8.7516   -0.5442   -1.3404 H   0  0  0  0  0  0  0  0  0  0  0  0
    6.9283   -1.9495   -2.3113 H   0  0  0  0  0  0  0  0  0  0  0  0
    4.8066   -2.0582   -1.2252 H   0  0  0  0  0  0  0  0  0  0  0  0
    4.0568   -0.3143    2.0793 H   0  0  0  0  0  0  0  0  0  0  0  0
    1.8729   -0.6628    2.4430 H   0  0  0  0  0  0  0  0  0  0  0  0
   -0.2952   -1.6192    1.9406 H   0  0  0  0  0  0  0  0  0  0  0  0
    0.5701   -2.5751    0.7500 H   0  0  0  0  0  0  0  0  0  0  0  0
   -1.1402   -1.3149   -0.3215 H   0  0  0  0  0  0  0  0  0  0  0  0
    0.4581   -0.9623   -0.9704 H   0  0  0  0  0  0  0  0  0  0  0  0
   -0.8701    2.2697   -1.0316 H   0  0  0  0  0  0  0  0  0  0  0  0
   -0.3887    0.7701   -1.9979 H   0  0  0  0  0  0  0  0  0  0  0  0
   -2.8275    1.5905   -1.9280 H   0  0  0  0  0  0  0  0  0  0  0  0
   -2.5333   -0.2140   -1.7052 H   0  0  0  0  0  0  0  0  0  0  0  0
   -2.2340    2.7298    0.6588 H   0  0  0  0  0  0  0  0  0  0  0  0
   -2.9424    1.6813    1.9544 H   0  0  0  0  0  0  0  0  0  0  0  0
   -1.2312    0.1927    1.9907 H   0  0  0  0  0  0  0  0  0  0  0  0
   -0.3981    1.7560    1.8131 H   0  0  0  0  0  0  0  0  0  0  0  0
   -5.4575   -2.0733    2.3548 H   0  0  0  0  0  0  0  0  0  0  0  0
   -7.5395   -1.6270    1.0788 H   0  0  0  0  0  0  0  0  0  0  0  0
   -8.6735   -0.4333   -0.6671 H   0  0  0  0  0  0  0  0  0  0  0  0
   -6.4260    2.3762   -2.9275 H   0  0  0  0  0  0  0  0  0  0  0  0
    6.1788    0.6045    1.7873 H   0  0  0  0  0  0  0  0  0  0  0  0
  1  2  1  0
  2  3  2  0
  2  4  1  0
  4  5  2  0
  5  6  1  0
  6  7  2  0
  7  8  1  0
  8  9  1  0
  9 10  1  0
 10 11  2  0
 10 12  1  0
 12 13  1  0
 13 14  1  0
 14 15  1  0
 15 16  1  0
 16 17  1  0
 17 18  1  0
 18 19  1  0
 19 20  1  0
 18 21  1  0
 21 22  2  0
 22 23  1  0
 23 24  2  0
 24 25  1  0
 25 26  2  0
 26 27  1  0
 27 28  1  0
 27 29  2  0
 29 30  1  0
 30 31  2  0
  8 32  2  0
 32  4  1  0
 20 15  1  0
 31 21  1  0
 31 25  1  0
  1 33  1  0
  5 34  1  0
  6 35  1  0
  7 36  1  0
  9 37  1  0
 12 38  1  0
 13 39  1  0
 13 40  1  0
 14 41  1  0
 14 42  1  0
 16 43  1  0
 16 44  1  0
 17 45  1  0
 17 46  1  0
 19 47  1  0
 19 48  1  0
 20 49  1  0
 20 50  1  0
 23 51  1  0
 24 52  1  0
 26 53  1  0
 29 54  1  0
 32 55  1  0
M  END
$$$$
[H]c1c(C([H])([H])[H])noc1C([H])([H])N1C([H])([H])C([H])([H])N(c2nc(N([H])[H])nc3c2nc([H])n3-c2c([H])c([H])c(Cl)c([H])c2[H])C([H])([H])C1([H])[H]
     RDKit          3D

 51 55  0  0  0  0  0  0  0  0999 V2000
   -7.0341    0.7866    2.4512 C   0  0  0  0  0  0  0  0  0  0  0  0
   -6.4892    0.5337    1.0824 C   0  0  0  0  0  0  0  0  0  0  0  0
   -5.1929    0.7976    0.6460 C   0  0  0  0  0  0  0  0  0  0  0  0
   -5.1152    0.4164   -0.6755 C   0  0  0  0  0  0  0  0  0  0  0  0
   -3.9534    0.4922   -1.5916 C   0  0  0  0  0  0  0  0  0  0  0  0
   -3.2414   -0.7284   -1.7523 N   0  0  0  0  0  0  0  0  0  0  0  0
   -2.1256   -0.6499   -2.6318 C   0  0  0  0  0  0  0  0  0  0  0  0
   -1.0059    0.0666   -1.9111 C   0  0  0  0  0  0  0  0  0  0  0  0
   -0.6786   -0.7555   -0.7582 N   0  0  0  0  0  0  0  0  0  0  0  0
   -1.6902   -1.3042    0.0804 C   0  0  0  0  0  0  0  0  0  0  0  0
   -3.0140   -1.5169   -0.6029 C   0  0  0  0  0  0  0  0  0  0  0  0
    0.6885   -1.0000   -0.4840 C   0  0  0  0  0  0  0  0  0  0  0  0
    1.1820   -2.2455   -0.4804 N   0  0  0  0  0  0  0  0  0  0  0  0
    2.5035   -2.4791   -0.2169 C   0  0  0  0  0  0  0  0  0  0  0  0
    2.9583   -3.8176   -0.2295 N   0  0  0  0  0  0  0  0  0  0  0  0
    3.2776   -1.4188    0.0356 N   0  0  0  0  0  0  0  0  0  0  0  0
    2.8468   -0.1470    0.0477 C   0  0  0  0  0  0  0  0  0  0  0  0
    3.4628    1.0195    0.2753 N   0  0  0  0  0  0  0  0  0  0  0  0
    2.5204    1.9705    0.1514 C   0  0  0  0  0  0  0  0  0  0  0  0
    1.3420    1.4009   -0.1476 N   0  0  0  0  0  0  0  0  0  0  0  0
    1.5074    0.0717   -0.2211 C   0  0  0  0  0  0  0  0  0  0  0  0
    4.8524    1.2425    0.5934 C   0  0  0  0  0  0  0  0  0  0  0  0
    5.5726    2.2702    0.0379 C   0  0  0  0  0  0  0  0  0  0  0  0
    6.9016    2.4024    0.4095 C   0  0  0  0  0  0  0  0  0  0  0  0
    7.5159    1.5496    1.3048 C   0  0  0  0  0  0  0  0  0  0  0  0
    9.2035    1.7534    1.7497 Cl  0  0  0  0  0  0  0  0  0  0  0  0
    6.7683    0.5125    1.8580 C   0  0  0  0  0  0  0  0  0  0  0  0
    5.4487    0.3836    1.4870 C   0  0  0  0  0  0  0  0  0  0  0  0
   -6.3052   -0.0462   -0.9947 O   0  0  0  0  0  0  0  0  0  0  0  0
   -7.1122    0.0137    0.0087 N   0  0  0  0  0  0  0  0  0  0  0  0
   -6.5950    0.0819    3.1876 H   0  0  0  0  0  0  0  0  0  0  0  0
   -6.7676    1.8164    2.8003 H   0  0  0  0  0  0  0  0  0  0  0  0
   -8.1320    0.7485    2.4360 H   0  0  0  0  0  0  0  0  0  0  0  0
   -4.4073    1.2243    1.2542 H   0  0  0  0  0  0  0  0  0  0  0  0
   -4.3385    0.7803   -2.6170 H   0  0  0  0  0  0  0  0  0  0  0  0
   -3.2969    1.3493   -1.3136 H   0  0  0  0  0  0  0  0  0  0  0  0
   -1.7565   -1.7015   -2.8068 H   0  0  0  0  0  0  0  0  0  0  0  0
   -2.3522   -0.1967   -3.6127 H   0  0  0  0  0  0  0  0  0  0  0  0
   -1.2970    1.0871   -1.5904 H   0  0  0  0  0  0  0  0  0  0  0  0
   -0.1430    0.1643   -2.6005 H   0  0  0  0  0  0  0  0  0  0  0  0
   -1.3950   -2.2666    0.5494 H   0  0  0  0  0  0  0  0  0  0  0  0
   -1.8315   -0.5988    0.9520 H   0  0  0  0  0  0  0  0  0  0  0  0
   -3.0486   -2.5975   -0.9342 H   0  0  0  0  0  0  0  0  0  0  0  0
   -3.7939   -1.4172    0.1706 H   0  0  0  0  0  0  0  0  0  0  0  0
    3.1922   -4.2806   -1.1295 H   0  0  0  0  0  0  0  0  0  0  0  0
    3.0536   -4.3262    0.6670 H   0  0  0  0  0  0  0  0  0  0  0  0
    2.6648    3.0223    0.2686 H   0  0  0  0  0  0  0  0  0  0  0  0
    5.0894    2.9433   -0.6676 H   0  0  0  0  0  0  0  0  0  0  0  0
    7.4741    3.2008   -0.0177 H   0  0  0  0  0  0  0  0  0  0  0  0
    7.2006   -0.1817    2.5630 H   0  0  0  0  0  0  0  0  0  0  0  0
    4.8858   -0.4259    1.9255 H   0  0  0  0  0  0  0  0  0  0  0  0
  1  2  1  0
  2  3  1  0
  3  4  2  0
  4  5  1  0
  5  6  1  0
  6  7  1  0
  7  8  1  0
  8  9  1  0
  9 10  1  0
 10 11  1  0
  9 12  1  0
 12 13  2  0
 13 14  1  0
 14 15  1  0
 14 16  2  0
 16 17  1  0
 17 18  1  0
 18 19  1  0
 19 20  2  0
 20 21  1  0
 18 22  1  0
 22 23  2  0
 23 24  1  0
 24 25  2  0
 25 26  1  0
 25 27  1  0
 27 28  2  0
  4 29  1  0
 29 30  1  0
 30  2  2  0
 11  6  1  0
 21 12  1  0
 28 22  1  0
 21 17  2  0
  1 31  1  0
  1 32  1  0
  1 33  1  0
  3 34  1  0
  5 35  1  0
  5 36  1  0
  7 37  1  0
  7 38  1  0
  8 39  1  0
  8 40  1  0
 10 41  1  0
 10 42  1  0
 11 43  1  0
 11 44  1  0
 15 45  1  0
 15 46  1  0
 19 47  1  0
 23 48  1  0
 24 49  1  0
 27 50  1  0
 28 51  1  0
M  END
$$$$
[H]OC(=O)C([H])([H])N1C([H])([H])C([H])([H])N(c2nc([H])c(C(=O)N([H])c3c([H])c([H])c4c(c3[H])OC([H])([H])C([H])([H])O4)c([H])c2Cl)C([H])([H])C([H])([H])C1([H])[H]
     RDKit          3D

 54 57  0  0  0  0  0  0  0  0999 V2000
   -9.1108    1.6888    0.5374 O   0  0  0  0  0  0  0  0  0  0  0  0
   -8.2007    1.0039   -0.2875 C   0  0  0  0  0  0  0  0  0  0  0  0
   -8.6810    0.2915   -1.1942 O   0  0  0  0  0  0  0  0  0  0  0  0
   -6.7562    1.1473   -0.0592 C   0  0  0  0  0  0  0  0  0  0  0  0
   -5.9196    0.3418   -0.9037 N   0  0  0  0  0  0  0  0  0  0  0  0
   -6.0505   -1.0353   -0.5707 C   0  0  0  0  0  0  0  0  0  0  0  0
   -4.9278   -1.8902   -1.1255 C   0  0  0  0  0  0  0  0  0  0  0  0
   -3.7777   -2.0660   -0.1791 C   0  0  0  0  0  0  0  0  0  0  0  0
   -3.2284   -0.8106    0.2515 N   0  0  0  0  0  0  0  0  0  0  0  0
   -3.9725    0.4256    0.4673 C   0  0  0  0  0  0  0  0  0  0  0  0
   -4.5642    0.8476   -0.8391 C   0  0  0  0  0  0  0  0  0  0  0  0
   -1.8561   -0.6808    0.5142 C   0  0  0  0  0  0  0  0  0  0  0  0
   -1.4444   -0.3860    1.7720 N   0  0  0  0  0  0  0  0  0  0  0  0
   -0.1409   -0.2604    2.0737 C   0  0  0  0  0  0  0  0  0  0  0  0
    0.8663   -0.4251    1.1122 C   0  0  0  0  0  0  0  0  0  0  0  0
    0.4708   -0.7211   -0.1546 C   0  0  0  0  0  0  0  0  0  0  0  0
   -0.8942   -0.8464   -0.4415 C   0  0  0  0  0  0  0  0  0  0  0  0
   -1.3620   -1.2216   -2.0781 Cl  0  0  0  0  0  0  0  0  0  0  0  0
    2.2637   -0.2863    1.4898 C   0  0  0  0  0  0  0  0  0  0  0  0
    2.5313   -0.3040    2.7194 O   0  0  0  0  0  0  0  0  0  0  0  0
    3.2552   -0.1388    0.5140 N   0  0  0  0  0  0  0  0  0  0  0  0
    4.6494    0.0034    0.6828 C   0  0  0  0  0  0  0  0  0  0  0  0
    5.3344   -0.1583    1.8645 C   0  0  0  0  0  0  0  0  0  0  0  0
    6.7230    0.0243    1.9171 C   0  0  0  0  0  0  0  0  0  0  0  0
    7.4699    0.3687    0.8158 C   0  0  0  0  0  0  0  0  0  0  0  0
    8.8464    0.5483    0.8760 O   0  0  0  0  0  0  0  0  0  0  0  0
    9.4506    1.3305   -0.1672 C   0  0  0  0  0  0  0  0  0  0  0  0
    8.9315    0.7153   -1.4650 C   0  0  0  0  0  0  0  0  0  0  0  0
    7.5362    0.8813   -1.4992 O   0  0  0  0  0  0  0  0  0  0  0  0
    6.7853    0.5297   -0.3645 C   0  0  0  0  0  0  0  0  0  0  0  0
    5.4263    0.3541   -0.4304 C   0  0  0  0  0  0  0  0  0  0  0  0
   -8.9783    2.6894    0.5923 H   0  0  0  0  0  0  0  0  0  0  0  0
   -6.5831    0.9467    1.0344 H   0  0  0  0  0  0  0  0  0  0  0  0
   -6.5372    2.2394   -0.1566 H   0  0  0  0  0  0  0  0  0  0  0  0
   -6.0785   -1.1998    0.5334 H   0  0  0  0  0  0  0  0  0  0  0  0
   -7.0092   -1.4288   -0.9588 H   0  0  0  0  0  0  0  0  0  0  0  0
   -5.3712   -2.9251   -1.2530 H   0  0  0  0  0  0  0  0  0  0  0  0
   -4.6275   -1.6008   -2.1539 H   0  0  0  0  0  0  0  0  0  0  0  0
   -4.2081   -2.5912    0.7273 H   0  0  0  0  0  0  0  0  0  0  0  0
   -3.0515   -2.7424   -0.6761 H   0  0  0  0  0  0  0  0  0  0  0  0
   -3.3437    1.2119    0.9371 H   0  0  0  0  0  0  0  0  0  0  0  0
   -4.7283    0.1633    1.2491 H   0  0  0  0  0  0  0  0  0  0  0  0
   -3.9603    0.5444   -1.7170 H   0  0  0  0  0  0  0  0  0  0  0  0
   -4.5938    1.9583   -0.8817 H   0  0  0  0  0  0  0  0  0  0  0  0
    0.1349   -0.0246    3.0902 H   0  0  0  0  0  0  0  0  0  0  0  0
    1.1692   -0.8672   -0.9501 H   0  0  0  0  0  0  0  0  0  0  0  0
    2.9227   -0.1306   -0.4959 H   0  0  0  0  0  0  0  0  0  0  0  0
    4.8047   -0.4366    2.7665 H   0  0  0  0  0  0  0  0  0  0  0  0
    7.2352   -0.1083    2.8611 H   0  0  0  0  0  0  0  0  0  0  0  0
   10.5433    1.2549   -0.0907 H   0  0  0  0  0  0  0  0  0  0  0  0
    9.1060    2.3767   -0.1217 H   0  0  0  0  0  0  0  0  0  0  0  0
    9.1581   -0.3682   -1.4787 H   0  0  0  0  0  0  0  0  0  0  0  0
    9.4175    1.2725   -2.2960 H   0  0  0  0  0  0  0  0  0  0  0  0
    4.9264    0.4949   -1.3945 H   0  0  0  0  0  0  0  0  0  0  0  0
  1  2  1  0
  2  3  2  0
  2  4  1  0
  4  5  1  0
  5  6  1  0
  6  7  1  0
  7  8  1  0
  8  9  1  0
  9 10  1  0
 10 11  1  0
  9 12  1  0
 12 13  2  0
 13 14  1  0
 14 15  2  0
 15 16  1  0
 16 17  2  0
 17 18  1  0
 15 19  1  0
 19 20  2  0
 19 21  1  0
 21 22  1  0
 22 23  2  0
 23 24  1  0
 24 25  2  0
 25 26  1  0
 26 27  1  0
 27 28  1  0
 28 29  1  0
 29 30  1  0
 30 31  2  0
 11  5  1  0
 17 12  1  0
 31 22  1  0
 30 25  1  0
  1 32  1  0
  4 33  1  0
  4 34  1  0
  6 35  1  0
  6 36  1  0
  7 37  1  0
  7 38  1  0
  8 39  1  0
  8 40  1  0
 10 41  1  0
 10 42  1  0
 11 43  1  0
 11 44  1  0
 14 45  1  0
 16 46  1  0
 21 47  1  0
 23 48  1  0
 24 49  1  0
 27 50  1  0
 27 51  1  0
 28 52  1  0
 28 53  1  0
 31 54  1  0
M  END
$$$$
[H]c1c([H])c([H])c(C([H])([H])N(C(=O)N([H])C([H])([H])C([H])([H])n2c(C([H])(C([H])([H])[H])C([H])([H])[H])nc3c([H])c([H])c([H])c([H])c32)C([H])([H])[H])c([H])c1[H]
     RDKit          3D

 52 54  0  0  0  0  0  0  0  0999 V2000
   -2.2502   -0.6141   -2.6484 C   0  0  0  0  0  0  0  0  0  0  0  0
   -2.8778    0.6265   -2.1697 C   0  0  0  0  0  0  0  0  0  0  0  0
   -1.8581    1.7586   -2.2737 C   0  0  0  0  0  0  0  0  0  0  0  0
   -3.4440    0.6420   -0.8261 C   0  0  0  0  0  0  0  0  0  0  0  0
   -4.6876    1.1641   -0.5534 N   0  0  0  0  0  0  0  0  0  0  0  0
   -4.9334    1.0039    0.7515 C   0  0  0  0  0  0  0  0  0  0  0  0
   -6.0290    1.3472    1.5437 C   0  0  0  0  0  0  0  0  0  0  0  0
   -6.0115    1.0552    2.8908 C   0  0  0  0  0  0  0  0  0  0  0  0
   -4.9072    0.4209    3.4601 C   0  0  0  0  0  0  0  0  0  0  0  0
   -3.8213    0.0785    2.6851 C   0  0  0  0  0  0  0  0  0  0  0  0
   -3.8549    0.3774    1.3412 C   0  0  0  0  0  0  0  0  0  0  0  0
   -2.9619    0.1792    0.3085 N   0  0  0  0  0  0  0  0  0  0  0  0
   -1.6980   -0.4429    0.5806 C   0  0  0  0  0  0  0  0  0  0  0  0
   -0.6325    0.5369    1.0714 C   0  0  0  0  0  0  0  0  0  0  0  0
    0.6272   -0.0682    1.3486 N   0  0  0  0  0  0  0  0  0  0  0  0
    1.4249   -0.7455    0.3925 C   0  0  0  0  0  0  0  0  0  0  0  0
    1.1110   -0.8873   -0.8185 O   0  0  0  0  0  0  0  0  0  0  0  0
    2.6777   -1.3302    0.7524 N   0  0  0  0  0  0  0  0  0  0  0  0
    3.1196   -1.2158    2.1259 C   0  0  0  0  0  0  0  0  0  0  0  0
    3.5289   -2.0305   -0.1800 C   0  0  0  0  0  0  0  0  0  0  0  0
    4.4676   -1.0489   -0.8022 C   0  0  0  0  0  0  0  0  0  0  0  0
    4.4465    0.2911   -0.4734 C   0  0  0  0  0  0  0  0  0  0  0  0
    5.3284    1.1628   -1.0697 C   0  0  0  0  0  0  0  0  0  0  0  0
    6.2616    0.7605   -2.0067 C   0  0  0  0  0  0  0  0  0  0  0  0
    6.2872   -0.5777   -2.3392 C   0  0  0  0  0  0  0  0  0  0  0  0
    5.4009   -1.4505   -1.7392 C   0  0  0  0  0  0  0  0  0  0  0  0
   -2.5170   -0.7950   -3.7093 H   0  0  0  0  0  0  0  0  0  0  0  0
   -1.1382   -0.6039   -2.6317 H   0  0  0  0  0  0  0  0  0  0  0  0
   -2.6652   -1.5140   -2.1042 H   0  0  0  0  0  0  0  0  0  0  0  0
   -3.6509    0.9223   -2.9492 H   0  0  0  0  0  0  0  0  0  0  0  0
   -0.8691    1.2753   -2.0216 H   0  0  0  0  0  0  0  0  0  0  0  0
   -2.0295    2.4878   -1.4469 H   0  0  0  0  0  0  0  0  0  0  0  0
   -1.8291    2.2145   -3.2614 H   0  0  0  0  0  0  0  0  0  0  0  0
   -6.8973    1.8386    1.1306 H   0  0  0  0  0  0  0  0  0  0  0  0
   -6.8248    1.2918    3.5652 H   0  0  0  0  0  0  0  0  0  0  0  0
   -4.8598    0.1778    4.5091 H   0  0  0  0  0  0  0  0  0  0  0  0
   -2.9455   -0.4116    3.0752 H   0  0  0  0  0  0  0  0  0  0  0  0
   -1.2269   -0.9573   -0.2717 H   0  0  0  0  0  0  0  0  0  0  0  0
   -1.8381   -1.2366    1.3595 H   0  0  0  0  0  0  0  0  0  0  0  0
   -1.0622    0.8942    2.0661 H   0  0  0  0  0  0  0  0  0  0  0  0
   -0.4607    1.3762    0.4006 H   0  0  0  0  0  0  0  0  0  0  0  0
    1.0186   -0.0229    2.3292 H   0  0  0  0  0  0  0  0  0  0  0  0
    4.1538   -1.5729    2.2537 H   0  0  0  0  0  0  0  0  0  0  0  0
    3.0606   -0.1449    2.4051 H   0  0  0  0  0  0  0  0  0  0  0  0
    2.4919   -1.8467    2.8104 H   0  0  0  0  0  0  0  0  0  0  0  0
    4.0542   -2.8932    0.2652 H   0  0  0  0  0  0  0  0  0  0  0  0
    2.8919   -2.4050   -1.0328 H   0  0  0  0  0  0  0  0  0  0  0  0
    3.7415    0.6627    0.2502 H   0  0  0  0  0  0  0  0  0  0  0  0
    5.3313    2.2248   -0.8269 H   0  0  0  0  0  0  0  0  0  0  0  0
    6.9444    1.4784   -2.4584 H   0  0  0  0  0  0  0  0  0  0  0  0
    6.9934   -0.9345   -3.0604 H   0  0  0  0  0  0  0  0  0  0  0  0
    5.4189   -2.4988   -1.9977 H   0  0  0  0  0  0  0  0  0  0  0  0
  1  2  1  0
  2  3  1  0
  2  4  1  0
  4  5  2  0
  5  6  1  0
  6  7  2  0
  7  8  1  0
  8  9  2  0
  9 10  1  0
 10 11  2  0
 11 12  1  0
 12 13  1  0
 13 14  1  0
 14 15  1  0
 15 16  1  0
 16 17  2  0
 16 18  1  0
 18 19  1  0
 18 20  1  0
 20 21  1  0
 21 22  2  0
 22 23  1  0
 23 24  2  0
 24 25  1  0
 25 26  2  0
 12  4  1  0
 26 21  1  0
 11  6  1  0
  1 27  1  0
  1 28  1  0
  1 29  1  0
  2 30  1  0
  3 31  1  0
  3 32  1  0
  3 33  1  0
  7 34  1  0
  8 35  1  0
  9 36  1  0
 10 37  1  0
 13 38  1  0
 13 39  1  0
 14 40  1  0
 14 41  1  0
 15 42  1  0
 19 43  1  0
 19 44  1  0
 19 45  1  0
 20 46  1  0
 20 47  1  0
 22 48  1  0
 23 49  1  0
 24 50  1  0
 25 51  1  0
 26 52  1  0
M  END
$$$$
[H]OC(=O)c1c([H])c([H])c(-c2c([H])c([H])c(N3C(=O)c4c([H])c([H])c([H])c5c([H])c([H])c([H])c(c45)C3=O)c([H])c2[H])c([H])c1O[H]
     RDKit          3D

 46 50  0  0  0  0  0  0  0  0999 V2000
    9.0044   -0.0196    0.2260 O   0  0  0  0  0  0  0  0  0  0  0  0
    8.0824   -0.9886   -0.1225 C   0  0  0  0  0  0  0  0  0  0  0  0
    8.5156   -2.1025   -0.5036 O   0  0  0  0  0  0  0  0  0  0  0  0
    6.6380   -0.7630   -0.0639 C   0  0  0  0  0  0  0  0  0  0  0  0
    6.0881    0.4337    0.3432 C   0  0  0  0  0  0  0  0  0  0  0  0
    4.7213    0.6379    0.3931 C   0  0  0  0  0  0  0  0  0  0  0  0
    3.8421   -0.3625    0.0322 C   0  0  0  0  0  0  0  0  0  0  0  0
    4.3827   -1.5602   -0.3753 C   0  0  0  0  0  0  0  0  0  0  0  0
    5.7626   -1.7621   -0.4240 C   0  0  0  0  0  0  0  0  0  0  0  0
    6.2651   -2.9847   -0.8403 O   0  0  0  0  0  0  0  0  0  0  0  0
    2.3996   -0.1949    0.0663 C   0  0  0  0  0  0  0  0  0  0  0  0
    1.8114    1.0289   -0.1776 C   0  0  0  0  0  0  0  0  0  0  0  0
    0.4238    1.1960   -0.1480 C   0  0  0  0  0  0  0  0  0  0  0  0
   -0.4019    0.1279    0.1298 C   0  0  0  0  0  0  0  0  0  0  0  0
    0.2117   -1.0961    0.3727 C   0  0  0  0  0  0  0  0  0  0  0  0
    1.5803   -1.2634    0.3438 C   0  0  0  0  0  0  0  0  0  0  0  0
   -1.8113    0.2957    0.1574 N   0  0  0  0  0  0  0  0  0  0  0  0
   -2.4936    1.2847    0.9173 C   0  0  0  0  0  0  0  0  0  0  0  0
   -1.8200    2.0670    1.6118 O   0  0  0  0  0  0  0  0  0  0  0  0
   -3.9473    1.4239    0.9193 C   0  0  0  0  0  0  0  0  0  0  0  0
   -4.6022    2.3830    1.6567 C   0  0  0  0  0  0  0  0  0  0  0  0
   -5.9667    2.5501    1.6883 C   0  0  0  0  0  0  0  0  0  0  0  0
   -6.7214    1.6681    0.9050 C   0  0  0  0  0  0  0  0  0  0  0  0
   -6.0912    0.6984    0.1572 C   0  0  0  0  0  0  0  0  0  0  0  0
   -6.8835   -0.1579   -0.6083 C   0  0  0  0  0  0  0  0  0  0  0  0
   -6.2951   -1.1351   -1.3663 C   0  0  0  0  0  0  0  0  0  0  0  0
   -4.9166   -1.2544   -1.3580 C   0  0  0  0  0  0  0  0  0  0  0  0
   -4.1044   -0.4256   -0.6142 C   0  0  0  0  0  0  0  0  0  0  0  0
   -2.6537   -0.5704   -0.6209 C   0  0  0  0  0  0  0  0  0  0  0  0
   -2.0832   -1.4563   -1.3061 O   0  0  0  0  0  0  0  0  0  0  0  0
   -4.7144    0.5517    0.1430 C   0  0  0  0  0  0  0  0  0  0  0  0
    9.0586    0.8587   -0.3060 H   0  0  0  0  0  0  0  0  0  0  0  0
    6.7688    1.2230    0.6278 H   0  0  0  0  0  0  0  0  0  0  0  0
    4.2951    1.5904    0.7179 H   0  0  0  0  0  0  0  0  0  0  0  0
    3.7108   -2.3452   -0.6569 H   0  0  0  0  0  0  0  0  0  0  0  0
    5.6663   -3.7530   -1.1171 H   0  0  0  0  0  0  0  0  0  0  0  0
    2.4084    1.9048   -0.4021 H   0  0  0  0  0  0  0  0  0  0  0  0
   -0.0479    2.1532   -0.3398 H   0  0  0  0  0  0  0  0  0  0  0  0
   -0.4263   -1.9612    0.5927 H   0  0  0  0  0  0  0  0  0  0  0  0
    1.9547   -2.2500    0.5446 H   0  0  0  0  0  0  0  0  0  0  0  0
   -4.0085    3.0528    2.2551 H   0  0  0  0  0  0  0  0  0  0  0  0
   -6.4392    3.3220    2.2890 H   0  0  0  0  0  0  0  0  0  0  0  0
   -7.7928    1.7830    0.9160 H   0  0  0  0  0  0  0  0  0  0  0  0
   -7.9739   -0.0340   -0.5906 H   0  0  0  0  0  0  0  0  0  0  0  0
   -6.9373   -1.7828   -1.9492 H   0  0  0  0  0  0  0  0  0  0  0  0
   -4.4601   -2.0112   -1.9467 H   0  0  0  0  0  0  0  0  0  0  0  0
  1  2  1  0
  2  3  2  0
  2  4  1  0
  4  5  2  0
  5  6  1  0
  6  7  2  0
  7  8  1  0
  8  9  2  0
  9 10  1  0
  7 11  1  0
 11 12  2  0
 12 13  1  0
 13 14  2  0
 14 15  1  0
 15 16  2  0
 14 17  1  0
 17 18  1  0
 18 19  2  0
 18 20  1  0
 20 21  2  0
 21 22  1  0
 22 23  2  0
 23 24  1  0
 24 25  2  0
 25 26  1  0
 26 27  2  0
 27 28  1  0
 28 29  1  0
 29 30  2  0
 28 31  2  0
  9  4  1  0
 16 11  1  0
 29 17  1  0
 31 20  1  0
 31 24  1  0
  1 32  1  0
  5 33  1  0
  6 34  1  0
  8 35  1  0
 10 36  1  0
 12 37  1  0
 13 38  1  0
 15 39  1  0
 16 40  1  0
 21 41  1  0
 22 42  1  0
 23 43  1  0
 25 44  1  0
 26 45  1  0
 27 46  1  0
M  END
$$$$
[H]OC(=O)c1c(N2C([H])([H])C([H])([H])N(c3nc4c([H])c([H])c([H])c(Cl)c4c(=O)n3[H])C([H])([H])C2([H])[H])nc([H])c([H])c1[H]
     RDKit          3D

 43 46  0  0  0  0  0  0  0  0999 V2000
   -3.6217   -0.8855   -2.2473 O   0  0  0  0  0  0  0  0  0  0  0  0
   -4.6893   -0.2291   -1.6614 C   0  0  0  0  0  0  0  0  0  0  0  0
   -5.7380   -0.1882   -2.3665 O   0  0  0  0  0  0  0  0  0  0  0  0
   -4.6357    0.3641   -0.3508 C   0  0  0  0  0  0  0  0  0  0  0  0
   -5.8566    0.8422    0.1782 C   0  0  0  0  0  0  0  0  0  0  0  0
   -5.8976    1.3459    1.4447 C   0  0  0  0  0  0  0  0  0  0  0  0
   -4.7176    1.3598    2.1479 C   0  0  0  0  0  0  0  0  0  0  0  0
   -3.5647    0.9118    1.6532 N   0  0  0  0  0  0  0  0  0  0  0  0
   -3.4874    0.3956    0.3748 C   0  0  0  0  0  0  0  0  0  0  0  0
   -2.2222    0.0001   -0.0849 N   0  0  0  0  0  0  0  0  0  0  0  0
   -1.4826    0.8287   -1.0033 C   0  0  0  0  0  0  0  0  0  0  0  0
   -0.1807    1.1573   -0.2147 C   0  0  0  0  0  0  0  0  0  0  0  0
    0.5326   -0.0914   -0.1820 N   0  0  0  0  0  0  0  0  0  0  0  0
   -0.1500   -1.3242    0.0617 C   0  0  0  0  0  0  0  0  0  0  0  0
   -1.6010   -1.2149    0.3612 C   0  0  0  0  0  0  0  0  0  0  0  0
    1.9342   -0.0748   -0.3870 C   0  0  0  0  0  0  0  0  0  0  0  0
    2.7263   -0.4082    0.6391 N   0  0  0  0  0  0  0  0  0  0  0  0
    4.0813   -0.4207    0.5291 C   0  0  0  0  0  0  0  0  0  0  0  0
    4.8815   -0.7780    1.6059 C   0  0  0  0  0  0  0  0  0  0  0  0
    6.2677   -0.7994    1.4981 C   0  0  0  0  0  0  0  0  0  0  0  0
    6.8195   -0.4558    0.2934 C   0  0  0  0  0  0  0  0  0  0  0  0
    6.0558   -0.0963   -0.7959 C   0  0  0  0  0  0  0  0  0  0  0  0
    6.7328    0.3497   -2.3474 Cl  0  0  0  0  0  0  0  0  0  0  0  0
    4.6708   -0.0768   -0.6839 C   0  0  0  0  0  0  0  0  0  0  0  0
    3.8319    0.2635   -1.7226 C   0  0  0  0  0  0  0  0  0  0  0  0
    4.3741    0.5740   -2.8148 O   0  0  0  0  0  0  0  0  0  0  0  0
    2.5001    0.2569   -1.5522 N   0  0  0  0  0  0  0  0  0  0  0  0
   -3.6240   -1.9139   -2.1518 H   0  0  0  0  0  0  0  0  0  0  0  0
   -6.7450    0.7983   -0.4409 H   0  0  0  0  0  0  0  0  0  0  0  0
   -6.8178    1.7255    1.9014 H   0  0  0  0  0  0  0  0  0  0  0  0
   -4.7434    1.7589    3.1598 H   0  0  0  0  0  0  0  0  0  0  0  0
   -1.9744    1.7566   -1.2952 H   0  0  0  0  0  0  0  0  0  0  0  0
   -1.1100    0.2588   -1.8828 H   0  0  0  0  0  0  0  0  0  0  0  0
   -0.4538    1.4233    0.8199 H   0  0  0  0  0  0  0  0  0  0  0  0
    0.3733    1.9507   -0.7511 H   0  0  0  0  0  0  0  0  0  0  0  0
    0.0172   -2.0738   -0.7504 H   0  0  0  0  0  0  0  0  0  0  0  0
    0.3432   -1.7699    0.9716 H   0  0  0  0  0  0  0  0  0  0  0  0
   -1.7857   -1.3666    1.4713 H   0  0  0  0  0  0  0  0  0  0  0  0
   -2.1300   -2.0780   -0.1211 H   0  0  0  0  0  0  0  0  0  0  0  0
    4.4255   -1.0469    2.5420 H   0  0  0  0  0  0  0  0  0  0  0  0
    6.8539   -1.0879    2.3723 H   0  0  0  0  0  0  0  0  0  0  0  0
    7.8931   -0.4692    0.1980 H   0  0  0  0  0  0  0  0  0  0  0  0
    1.9144    0.5279   -2.3881 H   0  0  0  0  0  0  0  0  0  0  0  0
  1  2  1  0
  2  3  2  0
  2  4  1  0
  4  5  2  0
  5  6  1  0
  6  7  2  0
  7  8  1  0
  8  9  2  0
  9 10  1  0
 10 11  1  0
 11 12  1  0
 12 13  1  0
 13 14  1  0
 14 15  1  0
 13 16  1  0
 16 17  2  0
 17 18  1  0
 18 19  2  0
 19 20  1  0
 20 21  2  0
 21 22  1  0
 22 23  1  0
 22 24  2  0
 24 25  1  0
 25 26  2  0
 25 27  1  0
  9  4  1  0
 15 10  1  0
 27 16  1  0
 24 18  1  0
  1 28  1  0
  5 29  1  0
  6 30  1  0
  7 31  1  0
 11 32  1  0
 11 33  1  0
 12 34  1  0
 12 35  1  0
 14 36  1  0
 14 37  1  0
 15 38  1  0
 15 39  1  0
 19 40  1  0
 20 41  1  0
 21 42  1  0
 27 43  1  0
M  END
$$$$
[H]OC(=O)C([H])([H])N1C([H])([H])C([H])([H])C([H])([H])C([H])(N([H])C(=O)c2c(O[H])c(Cl)c([H])c3c([H])c([H])c([H])c([H])c23)C1([H])[H]
     RDKit          3D

 44 46  0  0  0  0  0  0  0  0999 V2000
    6.4596    2.0487   -1.8925 O   0  0  0  0  0  0  0  0  0  0  0  0
    5.2150    2.2057   -1.2640 C   0  0  0  0  0  0  0  0  0  0  0  0
    4.9966    3.2064   -0.5648 O   0  0  0  0  0  0  0  0  0  0  0  0
    4.1715    1.1861   -1.4335 C   0  0  0  0  0  0  0  0  0  0  0  0
    2.9697    1.4502   -0.7255 N   0  0  0  0  0  0  0  0  0  0  0  0
    3.0094    1.3829    0.6848 C   0  0  0  0  0  0  0  0  0  0  0  0
    3.2040   -0.0384    1.1463 C   0  0  0  0  0  0  0  0  0  0  0  0
    2.3534   -1.0278    0.4175 C   0  0  0  0  0  0  0  0  0  0  0  0
    1.4083   -0.4510   -0.5779 C   0  0  0  0  0  0  0  0  0  0  0  0
    1.7847    0.8351   -1.2118 C   0  0  0  0  0  0  0  0  0  0  0  0
    0.0489   -0.2704    0.0621 N   0  0  0  0  0  0  0  0  0  0  0  0
   -1.0305   -0.9763   -0.4305 C   0  0  0  0  0  0  0  0  0  0  0  0
   -0.6842   -1.7642   -1.4661 O   0  0  0  0  0  0  0  0  0  0  0  0
   -2.4183   -1.1129   -0.1570 C   0  0  0  0  0  0  0  0  0  0  0  0
   -3.1505   -2.0017   -0.9790 C   0  0  0  0  0  0  0  0  0  0  0  0
   -2.5327   -2.7162   -2.0116 O   0  0  0  0  0  0  0  0  0  0  0  0
   -4.4900   -2.2283   -0.8324 C   0  0  0  0  0  0  0  0  0  0  0  0
   -5.3810   -3.3311   -1.8584 Cl  0  0  0  0  0  0  0  0  0  0  0  0
   -5.1632   -1.5659    0.1570 C   0  0  0  0  0  0  0  0  0  0  0  0
   -4.4952   -0.6906    0.9831 C   0  0  0  0  0  0  0  0  0  0  0  0
   -5.2493   -0.0572    1.9674 C   0  0  0  0  0  0  0  0  0  0  0  0
   -4.6209    0.8218    2.8146 C   0  0  0  0  0  0  0  0  0  0  0  0
   -3.2891    1.0380    2.6588 C   0  0  0  0  0  0  0  0  0  0  0  0
   -2.5080    0.4171    1.6807 C   0  0  0  0  0  0  0  0  0  0  0  0
   -3.1375   -0.4632    0.8321 C   0  0  0  0  0  0  0  0  0  0  0  0
    6.7955    2.8097   -2.4953 H   0  0  0  0  0  0  0  0  0  0  0  0
    3.9060    1.1967   -2.5315 H   0  0  0  0  0  0  0  0  0  0  0  0
    4.6285    0.1964   -1.2239 H   0  0  0  0  0  0  0  0  0  0  0  0
    2.0525    1.7692    1.0868 H   0  0  0  0  0  0  0  0  0  0  0  0
    3.8017    1.9809    1.1787 H   0  0  0  0  0  0  0  0  0  0  0  0
    2.9883   -0.0495    2.2374 H   0  0  0  0  0  0  0  0  0  0  0  0
    4.2889   -0.2587    1.0494 H   0  0  0  0  0  0  0  0  0  0  0  0
    3.0333   -1.7839   -0.0339 H   0  0  0  0  0  0  0  0  0  0  0  0
    1.7487   -1.5977    1.1677 H   0  0  0  0  0  0  0  0  0  0  0  0
    1.2434   -1.1944   -1.3753 H   0  0  0  0  0  0  0  0  0  0  0  0
    1.9485    0.6923   -2.3248 H   0  0  0  0  0  0  0  0  0  0  0  0
    0.9810    1.6069   -1.1792 H   0  0  0  0  0  0  0  0  0  0  0  0
    0.1152    0.3891    0.8174 H   0  0  0  0  0  0  0  0  0  0  0  0
   -2.9946   -3.3497   -2.6173 H   0  0  0  0  0  0  0  0  0  0  0  0
   -6.2195   -1.7198    0.3019 H   0  0  0  0  0  0  0  0  0  0  0  0
   -6.3105   -0.2358    2.0841 H   0  0  0  0  0  0  0  0  0  0  0  0
   -5.2207    1.3130    3.5827 H   0  0  0  0  0  0  0  0  0  0  0  0
   -2.7713    1.7211    3.3091 H   0  0  0  0  0  0  0  0  0  0  0  0
   -1.4859    0.6173    1.6034 H   0  0  0  0  0  0  0  0  0  0  0  0
  1  2  1  0
  2  3  2  0
  2  4  1  0
  4  5  1  0
  5  6  1  0
  6  7  1  0
  7  8  1  0
  8  9  1  0
  9 10  1  0
  9 11  1  0
 11 12  1  0
 12 13  2  0
 12 14  1  0
 14 15  2  0
 15 16  1  0
 15 17  1  0
 17 18  1  0
 17 19  2  0
 19 20  1  0
 20 21  2  0
 21 22  1  0
 22 23  2  0
 23 24  1  0
 24 25  2  0
 10  5  1  0
 25 14  1  0
 25 20  1  0
  1 26  1  0
  4 27  1  0
  4 28  1  0
  6 29  1  0
  6 30  1  0
  7 31  1  0
  7 32  1  0
  8 33  1  0
  8 34  1  0
  9 35  1  0
 10 36  1  0
 10 37  1  0
 11 38  1  0
 16 39  1  0
 19 40  1  0
 21 41  1  0
 22 42  1  0
 23 43  1  0
 24 44  1  0
M  END
$$$$
[H]c1nc(C([H])([H])N2C(=O)C3(C(=O)N(c4c([H])c([H])c(-c5c([H])c6c([H])c(F)c([H])c([H])c6n5[H])c([H])c4[H])C([H])([H])C3([H])[H])C([H])([H])C2([H])[H])c(C([H])([H])[H])c([H])c1[H]
     RDKit          3D

 60 65  0  0  0  0  0  0  0  0999 V2000
   -7.2664    0.2855   -1.7182 C   0  0  0  0  0  0  0  0  0  0  0  0
   -7.4194    0.1933   -0.2292 C   0  0  0  0  0  0  0  0  0  0  0  0
   -8.6538    0.5616    0.3406 C   0  0  0  0  0  0  0  0  0  0  0  0
   -8.8433    0.6610    1.6839 C   0  0  0  0  0  0  0  0  0  0  0  0
   -7.7217    0.3781    2.4739 C   0  0  0  0  0  0  0  0  0  0  0  0
   -6.5620    0.0399    1.9514 N   0  0  0  0  0  0  0  0  0  0  0  0
   -6.3531   -0.0785    0.5523 C   0  0  0  0  0  0  0  0  0  0  0  0
   -5.1290   -0.8203    0.1959 C   0  0  0  0  0  0  0  0  0  0  0  0
   -3.8947   -0.1583    0.1829 N   0  0  0  0  0  0  0  0  0  0  0  0
   -3.1412    0.4450    1.2791 C   0  0  0  0  0  0  0  0  0  0  0  0
   -2.1092    1.3840    0.5607 C   0  0  0  0  0  0  0  0  0  0  0  0
   -1.8436    0.5263   -0.6378 C   0  0  0  0  0  0  0  0  0  0  0  0
   -1.0645    1.0854   -1.7760 C   0  0  0  0  0  0  0  0  0  0  0  0
   -0.4833   -0.2587   -2.3613 C   0  0  0  0  0  0  0  0  0  0  0  0
    0.1256   -0.6736   -1.0498 N   0  0  0  0  0  0  0  0  0  0  0  0
   -1.0209   -0.6772   -0.2179 C   0  0  0  0  0  0  0  0  0  0  0  0
   -1.3162   -1.4843    0.6757 O   0  0  0  0  0  0  0  0  0  0  0  0
    1.4857   -0.8550   -0.7751 C   0  0  0  0  0  0  0  0  0  0  0  0
    2.3960   -0.3072   -1.6301 C   0  0  0  0  0  0  0  0  0  0  0  0
    3.7247   -0.3568   -1.3753 C   0  0  0  0  0  0  0  0  0  0  0  0
    4.2830   -0.9626   -0.2203 C   0  0  0  0  0  0  0  0  0  0  0  0
    3.3462   -1.5061    0.6158 C   0  0  0  0  0  0  0  0  0  0  0  0
    1.9714   -1.4570    0.3590 C   0  0  0  0  0  0  0  0  0  0  0  0
    5.7009   -0.7848    0.0344 C   0  0  0  0  0  0  0  0  0  0  0  0
    6.3239    0.3910   -0.4200 C   0  0  0  0  0  0  0  0  0  0  0  0
    7.6237    0.4065    0.0050 C   0  0  0  0  0  0  0  0  0  0  0  0
    8.6278    1.3391   -0.1518 C   0  0  0  0  0  0  0  0  0  0  0  0
    9.8514    1.0983    0.4231 C   0  0  0  0  0  0  0  0  0  0  0  0
   10.8278    2.0498    0.2635 F   0  0  0  0  0  0  0  0  0  0  0  0
   10.0828   -0.0771    1.1557 C   0  0  0  0  0  0  0  0  0  0  0  0
    9.0454   -1.0018    1.3078 C   0  0  0  0  0  0  0  0  0  0  0  0
    7.7969   -0.7821    0.7363 C   0  0  0  0  0  0  0  0  0  0  0  0
    6.5954   -1.4487    0.7133 N   0  0  0  0  0  0  0  0  0  0  0  0
   -3.2400    0.1947   -1.0551 C   0  0  0  0  0  0  0  0  0  0  0  0
   -3.6930    0.2342   -2.1880 O   0  0  0  0  0  0  0  0  0  0  0  0
   -6.3174    0.8411   -1.9510 H   0  0  0  0  0  0  0  0  0  0  0  0
   -7.3623   -0.6378   -2.2462 H   0  0  0  0  0  0  0  0  0  0  0  0
   -8.0580    1.0379   -2.0312 H   0  0  0  0  0  0  0  0  0  0  0  0
   -9.4837    0.7898   -0.3268 H   0  0  0  0  0  0  0  0  0  0  0  0
   -9.7792    0.9349    2.1530 H   0  0  0  0  0  0  0  0  0  0  0  0
   -7.8809    0.4286    3.5675 H   0  0  0  0  0  0  0  0  0  0  0  0
   -5.2860   -1.4131   -0.7462 H   0  0  0  0  0  0  0  0  0  0  0  0
   -5.0155   -1.6911    0.9433 H   0  0  0  0  0  0  0  0  0  0  0  0
   -2.7116   -0.2227    1.9733 H   0  0  0  0  0  0  0  0  0  0  0  0
   -3.8988    1.1107    1.7711 H   0  0  0  0  0  0  0  0  0  0  0  0
   -1.2903    1.5371    1.2042 H   0  0  0  0  0  0  0  0  0  0  0  0
   -2.7071    2.2635    0.2153 H   0  0  0  0  0  0  0  0  0  0  0  0
   -0.1957    1.6384   -1.4224 H   0  0  0  0  0  0  0  0  0  0  0  0
   -1.6523    1.5653   -2.5849 H   0  0  0  0  0  0  0  0  0  0  0  0
   -1.2900   -0.9268   -2.6528 H   0  0  0  0  0  0  0  0  0  0  0  0
    0.2388   -0.0997   -3.1085 H   0  0  0  0  0  0  0  0  0  0  0  0
    2.0634    0.1912   -2.5469 H   0  0  0  0  0  0  0  0  0  0  0  0
    4.4721    0.0864   -2.0522 H   0  0  0  0  0  0  0  0  0  0  0  0
    3.7058   -1.9869    1.5310 H   0  0  0  0  0  0  0  0  0  0  0  0
    1.3149   -1.9005    1.0893 H   0  0  0  0  0  0  0  0  0  0  0  0
    5.8841    1.1814   -0.9969 H   0  0  0  0  0  0  0  0  0  0  0  0
    8.4122    2.2476   -0.6798 H   0  0  0  0  0  0  0  0  0  0  0  0
   11.0740   -0.2692    1.5953 H   0  0  0  0  0  0  0  0  0  0  0  0
    9.2097   -1.9078    1.9109 H   0  0  0  0  0  0  0  0  0  0  0  0
    6.5004   -2.3821    1.2264 H   0  0  0  0  0  0  0  0  0  0  0  0
  1  2  1  0
  2  3  2  0
  3  4  1  0
  4  5  2  0
  5  6  1  0
  6  7  2  0
  7  8  1  0
  8  9  1  0
  9 10  1  0
 10 11  1  0
 11 12  1  0
 12 13  1  0
 13 14  1  0
 14 15  1  0
 15 16  1  0
 16 17  2  0
 15 18  1  0
 18 19  2  0
 19 20  1  0
 20 21  2  0
 21 22  1  0
 22 23  2  0
 21 24  1  0
 24 25  2  0
 25 26  1  0
 26 27  2  0
 27 28  1  0
 28 29  1  0
 28 30  2  0
 30 31  1  0
 31 32  2  0
 32 33  1  0
 12 34  1  0
 34 35  2  0
  7  2  1  0
 34  9  1  0
 16 12  1  0
 23 18  1  0
 33 24  1  0
 32 26  1  0
  1 36  1  0
  1 37  1  0
  1 38  1  0
  3 39  1  0
  4 40  1  0
  5 41  1  0
  8 42  1  0
  8 43  1  0
 10 44  1  0
 10 45  1  0
 11 46  1  0
 11 47  1  0
 13 48  1  0
 13 49  1  0
 14 50  1  0
 14 51  1  0
 19 52  1  0
 20 53  1  0
 22 54  1  0
 23 55  1  0
 25 56  1  0
 27 57  1  0
 30 58  1  0
 31 59  1  0
 33 60  1  0
M  END
$$$$
