[H]c1c([H])c([H])c(N2C([H])([H])C([H])([H])N([C@]3([H])C([H])([H])[C@]4([H])O[C@@]([H])(N([H])S(=O)(=O)c5c([H])c([H])c(OC([H])([H])[H])c([H])c5[H])C([H])([H])[C@@]43[H])C([H])([H])C2([H])[H])c([H])c1[H]
     RDKit          3D

 60 64  0  0  0  0  0  0  0  0999 V2000
    9.2858   -2.2117    0.9268 C   0  0  0  0  0  0  0  0  0  0  0  0
    8.5102   -2.0622   -0.2409 O   0  0  0  0  0  0  0  0  0  0  0  0
    7.5197   -1.0811   -0.3312 C   0  0  0  0  0  0  0  0  0  0  0  0
    6.7609   -0.9297   -1.4716 C   0  0  0  0  0  0  0  0  0  0  0  0
    5.7811    0.0330   -1.5690 C   0  0  0  0  0  0  0  0  0  0  0  0
    5.5037    0.9027   -0.5297 C   0  0  0  0  0  0  0  0  0  0  0  0
    6.2651    0.7485    0.6082 C   0  0  0  0  0  0  0  0  0  0  0  0
    7.2528   -0.2211    0.7090 C   0  0  0  0  0  0  0  0  0  0  0  0
    4.2796    2.1354   -0.6785 S   0  0  0  0  0  0  0  0  0  0  0  0
    4.4840    2.9364   -1.9594 O   0  0  0  0  0  0  0  0  0  0  0  0
    4.3887    3.1517    0.4361 O   0  0  0  0  0  0  0  0  0  0  0  0
    2.6997    1.5407   -0.7003 N   0  0  0  0  0  0  0  0  0  0  0  0
    2.2486    0.8277    0.4387 C   0  0  1  0  0  0  0  0  0  0  0  0
    0.8385    1.2915    0.8792 C   0  0  0  0  0  0  0  0  0  0  0  0
    0.1294    1.0974   -0.4148 C   0  0  2  0  0  0  0  0  0  0  0  0
   -1.1624    0.4012   -0.4984 C   0  0  1  0  0  0  0  0  0  0  0  0
   -0.4397   -0.9218   -0.3304 C   0  0  0  0  0  0  0  0  0  0  0  0
    0.7927   -0.1985   -0.8976 C   0  0  2  0  0  0  0  0  0  0  0  0
    1.8708   -0.4489   -0.0600 O   0  0  0  0  0  0  0  0  0  0  0  0
   -2.1819    0.5994    0.4707 N   0  0  0  0  0  0  0  0  0  0  0  0
   -2.8472   -0.6521    0.7454 C   0  0  0  0  0  0  0  0  0  0  0  0
   -3.9603   -0.7715   -0.3140 C   0  0  0  0  0  0  0  0  0  0  0  0
   -4.9774    0.1329    0.1679 N   0  0  0  0  0  0  0  0  0  0  0  0
   -4.5295    1.4566    0.5385 C   0  0  0  0  0  0  0  0  0  0  0  0
   -3.0883    1.6564    0.1729 C   0  0  0  0  0  0  0  0  0  0  0  0
   -6.3094   -0.3259    0.2756 C   0  0  0  0  0  0  0  0  0  0  0  0
   -7.4268    0.4666    0.0891 C   0  0  0  0  0  0  0  0  0  0  0  0
   -8.7125   -0.0491    0.2362 C   0  0  0  0  0  0  0  0  0  0  0  0
   -8.9174   -1.3751    0.5744 C   0  0  0  0  0  0  0  0  0  0  0  0
   -7.8199   -2.1717    0.7622 C   0  0  0  0  0  0  0  0  0  0  0  0
   -6.5725   -1.6562    0.6157 C   0  0  0  0  0  0  0  0  0  0  0  0
    9.9380   -1.2892    0.9640 H   0  0  0  0  0  0  0  0  0  0  0  0
    9.9518   -3.0844    0.8167 H   0  0  0  0  0  0  0  0  0  0  0  0
    8.6350   -2.2734    1.8186 H   0  0  0  0  0  0  0  0  0  0  0  0
    6.9996   -1.6354   -2.2730 H   0  0  0  0  0  0  0  0  0  0  0  0
    5.2030    0.1224   -2.4711 H   0  0  0  0  0  0  0  0  0  0  0  0
    6.0729    1.4204    1.4491 H   0  0  0  0  0  0  0  0  0  0  0  0
    7.8559   -0.3356    1.6172 H   0  0  0  0  0  0  0  0  0  0  0  0
    2.4158    1.1146   -1.5867 H   0  0  0  0  0  0  0  0  0  0  0  0
    2.9301    0.7068    1.2688 H   0  0  0  0  0  0  0  0  0  0  0  0
    0.5034    0.6050    1.6760 H   0  0  0  0  0  0  0  0  0  0  0  0
    0.8811    2.3408    1.2468 H   0  0  0  0  0  0  0  0  0  0  0  0
    0.2725    1.9480   -1.1252 H   0  0  0  0  0  0  0  0  0  0  0  0
   -1.5260    0.4387   -1.5731 H   0  0  0  0  0  0  0  0  0  0  0  0
   -0.8319   -1.7206   -0.9695 H   0  0  0  0  0  0  0  0  0  0  0  0
   -0.2823   -1.2617    0.7111 H   0  0  0  0  0  0  0  0  0  0  0  0
    0.9317   -0.2491   -1.9683 H   0  0  0  0  0  0  0  0  0  0  0  0
   -2.2271   -1.5416    0.7614 H   0  0  0  0  0  0  0  0  0  0  0  0
   -3.3352   -0.5521    1.7611 H   0  0  0  0  0  0  0  0  0  0  0  0
   -4.2789   -1.7894   -0.4893 H   0  0  0  0  0  0  0  0  0  0  0  0
   -3.6185   -0.3534   -1.2836 H   0  0  0  0  0  0  0  0  0  0  0  0
   -4.7077    1.6140    1.6311 H   0  0  0  0  0  0  0  0  0  0  0  0
   -5.0989    2.2394   -0.0510 H   0  0  0  0  0  0  0  0  0  0  0  0
   -2.7792    2.6186    0.6808 H   0  0  0  0  0  0  0  0  0  0  0  0
   -3.0452    1.8751   -0.9221 H   0  0  0  0  0  0  0  0  0  0  0  0
   -7.3022    1.4962   -0.1777 H   0  0  0  0  0  0  0  0  0  0  0  0
   -9.6050    0.5532    0.0942 H   0  0  0  0  0  0  0  0  0  0  0  0
   -9.9257   -1.7762    0.6896 H   0  0  0  0  0  0  0  0  0  0  0  0
   -7.9701   -3.2046    1.0244 H   0  0  0  0  0  0  0  0  0  0  0  0
   -5.7228   -2.3284    0.7819 H   0  0  0  0  0  0  0  0  0  0  0  0
  1  2  1  0
  2  3  1  0
  3  4  2  0
  4  5  1  0
  5  6  2  0
  6  7  1  0
  7  8  2  0
  6  9  1  0
  9 10  2  0
  9 11  2  0
  9 12  1  0
 12 13  1  0
 13 14  1  0
 14 15  1  0
 15 16  1  0
 16 17  1  0
 17 18  1  0
 18 19  1  0
 16 20  1  0
 20 21  1  0
 21 22  1  0
 22 23  1  0
 23 24  1  0
 24 25  1  0
 23 26  1  0
 26 27  2  0
 27 28  1  0
 28 29  2  0
 29 30  1  0
 30 31  2  0
  8  3  1  0
 19 13  1  0
 25 20  1  0
 31 26  1  0
 18 15  1  0
  1 32  1  0
  1 33  1  0
  1 34  1  0
  4 35  1  0
  5 36  1  0
  7 37  1  0
  8 38  1  0
 12 39  1  0
 13 40  1  1
 14 41  1  0
 14 42  1  0
 15 43  1  6
 16 44  1  6
 17 45  1  0
 17 46  1  0
 18 47  1  6
 21 48  1  0
 21 49  1  0
 22 50  1  0
 22 51  1  0
 24 52  1  0
 24 53  1  0
 25 54  1  0
 25 55  1  0
 27 56  1  0
 28 57  1  0
 29 58  1  0
 30 59  1  0
 31 60  1  0
M  END
$$$$
[H]c1c([H])c([H])c(C([H])([H])[C@@]([H])(C(=O)N([H])[H])N([H])C(=O)[C@@]([H])(N([H])C(=O)[C@@]([H])(N([H])C(=O)[C@@]([H])(N([H])C(=O)c2c([H])n([H])c3c([H])c([H])c([H])c([H])c23)C([H])([H])C([H])(C([H])([H])[H])C([H])([H])[H])C([H])([H])c2c([H])c([H])c([H])c([H])c2[H])C([H])([H])c2c([H])c([H])c([H])c([H])c2[H])c([H])c1[H]
     RDKit          3D

 99103  0  0  0  0  0  0  0  0999 V2000
   -1.6169    2.2470   -2.6026 C   0  0  0  0  0  0  0  0  0  0  0  0
   -2.3376    1.8517   -1.2984 C   0  0  0  0  0  0  0  0  0  0  0  0
   -3.3530    2.9261   -1.0362 C   0  0  0  0  0  0  0  0  0  0  0  0
   -2.8759    0.4853   -1.5322 C   0  0  0  0  0  0  0  0  0  0  0  0
   -3.6200   -0.1441   -0.3971 C   0  0  2  0  0  0  0  0  0  0  0  0
   -4.7833    0.5566   -0.0032 N   0  0  0  0  0  0  0  0  0  0  0  0
   -5.3065    1.1235    1.1269 C   0  0  0  0  0  0  0  0  0  0  0  0
   -4.7301    1.1826    2.2377 O   0  0  0  0  0  0  0  0  0  0  0  0
   -6.6561    1.7440    1.1464 C   0  0  0  0  0  0  0  0  0  0  0  0
   -7.0181    2.8891    1.8198 C   0  0  0  0  0  0  0  0  0  0  0  0
   -8.2948    3.0983    1.5198 N   0  0  0  0  0  0  0  0  0  0  0  0
   -8.7792    2.1642    0.6989 C   0  0  0  0  0  0  0  0  0  0  0  0
  -10.0384    2.0091    0.1736 C   0  0  0  0  0  0  0  0  0  0  0  0
  -10.3265    0.9413   -0.6457 C   0  0  0  0  0  0  0  0  0  0  0  0
   -9.3008    0.0567   -0.9018 C   0  0  0  0  0  0  0  0  0  0  0  0
   -8.0361    0.2175   -0.3712 C   0  0  0  0  0  0  0  0  0  0  0  0
   -7.7278    1.2808    0.4503 C   0  0  0  0  0  0  0  0  0  0  0  0
   -2.7458   -0.7326    0.6269 C   0  0  0  0  0  0  0  0  0  0  0  0
   -2.9976   -0.6883    1.8337 O   0  0  0  0  0  0  0  0  0  0  0  0
   -1.5432   -1.3982    0.2664 N   0  0  0  0  0  0  0  0  0  0  0  0
   -0.6132   -2.0237    1.1790 C   0  0  1  0  0  0  0  0  0  0  0  0
   -0.4622   -3.4740    0.9915 C   0  0  0  0  0  0  0  0  0  0  0  0
   -0.0096   -3.9377   -0.3067 C   0  0  0  0  0  0  0  0  0  0  0  0
    1.2451   -4.1689   -0.7563 C   0  0  0  0  0  0  0  0  0  0  0  0
    1.5329   -4.5979   -2.0225 C   0  0  0  0  0  0  0  0  0  0  0  0
    0.5256   -4.8219   -2.9294 C   0  0  0  0  0  0  0  0  0  0  0  0
   -0.7811   -4.6005   -2.5208 C   0  0  0  0  0  0  0  0  0  0  0  0
   -1.0367   -4.1685   -1.2373 C   0  0  0  0  0  0  0  0  0  0  0  0
    0.5700   -1.2030    1.3581 C   0  0  0  0  0  0  0  0  0  0  0  0
    0.4089    0.0540    1.1322 O   0  0  0  0  0  0  0  0  0  0  0  0
    1.8583   -1.5827    1.7391 N   0  0  0  0  0  0  0  0  0  0  0  0
    2.9607   -0.6375    1.9029 C   0  0  1  0  0  0  0  0  0  0  0  0
    3.8782   -1.1326    2.9506 C   0  0  0  0  0  0  0  0  0  0  0  0
    3.2904   -1.2970    4.2746 C   0  0  0  0  0  0  0  0  0  0  0  0
    3.3454   -0.2259    5.1540 C   0  0  0  0  0  0  0  0  0  0  0  0
    2.8328   -0.2554    6.4252 C   0  0  0  0  0  0  0  0  0  0  0  0
    2.2235   -1.4352    6.8470 C   0  0  0  0  0  0  0  0  0  0  0  0
    2.1585   -2.5059    5.9929 C   0  0  0  0  0  0  0  0  0  0  0  0
    2.6891   -2.4535    4.6989 C   0  0  0  0  0  0  0  0  0  0  0  0
    3.5641   -0.4914    0.5560 C   0  0  0  0  0  0  0  0  0  0  0  0
    3.1150   -1.1308   -0.4036 O   0  0  0  0  0  0  0  0  0  0  0  0
    4.6425    0.3759    0.3642 N   0  0  0  0  0  0  0  0  0  0  0  0
    5.2687    0.5841   -0.9404 C   0  0  1  0  0  0  0  0  0  0  0  0
    5.1492    2.0499   -1.2181 C   0  0  0  0  0  0  0  0  0  0  0  0
    5.7141    2.4968   -2.5079 C   0  0  0  0  0  0  0  0  0  0  0  0
    4.9227    2.4188   -3.6751 C   0  0  0  0  0  0  0  0  0  0  0  0
    5.3881    2.8525   -4.8747 C   0  0  0  0  0  0  0  0  0  0  0  0
    6.6673    3.3767   -4.9213 C   0  0  0  0  0  0  0  0  0  0  0  0
    7.4520    3.4613   -3.7955 C   0  0  0  0  0  0  0  0  0  0  0  0
    6.9823    3.0220   -2.5799 C   0  0  0  0  0  0  0  0  0  0  0  0
    6.5988    0.0167   -1.0318 C   0  0  0  0  0  0  0  0  0  0  0  0
    7.4854   -0.0284   -2.0994 N   0  0  0  0  0  0  0  0  0  0  0  0
    7.0251   -0.5404    0.0585 O   0  0  0  0  0  0  0  0  0  0  0  0
   -2.3993    2.2394   -3.3866 H   0  0  0  0  0  0  0  0  0  0  0  0
   -0.8235    1.5142   -2.8505 H   0  0  0  0  0  0  0  0  0  0  0  0
   -1.2262    3.2802   -2.5469 H   0  0  0  0  0  0  0  0  0  0  0  0
   -1.5501    1.8738   -0.5100 H   0  0  0  0  0  0  0  0  0  0  0  0
   -3.0138    3.8470   -1.6074 H   0  0  0  0  0  0  0  0  0  0  0  0
   -4.3379    2.6978   -1.4351 H   0  0  0  0  0  0  0  0  0  0  0  0
   -3.3486    3.2656    0.0238 H   0  0  0  0  0  0  0  0  0  0  0  0
   -2.0737   -0.1337   -1.9647 H   0  0  0  0  0  0  0  0  0  0  0  0
   -3.5980    0.6019   -2.4181 H   0  0  0  0  0  0  0  0  0  0  0  0
   -4.0705   -1.1358   -0.8523 H   0  0  0  0  0  0  0  0  0  0  0  0
   -5.4400    0.7047   -0.8943 H   0  0  0  0  0  0  0  0  0  0  0  0
   -6.3910    3.4742    2.4448 H   0  0  0  0  0  0  0  0  0  0  0  0
   -8.8450    3.9050    1.8914 H   0  0  0  0  0  0  0  0  0  0  0  0
  -10.8657    2.6957    0.3622 H   0  0  0  0  0  0  0  0  0  0  0  0
  -11.3012    0.7716   -1.0852 H   0  0  0  0  0  0  0  0  0  0  0  0
   -9.4822   -0.7850   -1.5307 H   0  0  0  0  0  0  0  0  0  0  0  0
   -7.2780   -0.5116   -0.5858 H   0  0  0  0  0  0  0  0  0  0  0  0
   -1.3199   -1.4425   -0.7749 H   0  0  0  0  0  0  0  0  0  0  0  0
   -1.1645   -1.9218    2.1880 H   0  0  0  0  0  0  0  0  0  0  0  0
   -1.4178   -3.9756    1.2535 H   0  0  0  0  0  0  0  0  0  0  0  0
    0.2613   -3.8549    1.7574 H   0  0  0  0  0  0  0  0  0  0  0  0
    2.0553   -4.0010   -0.0591 H   0  0  0  0  0  0  0  0  0  0  0  0
    2.5607   -4.7677   -2.3337 H   0  0  0  0  0  0  0  0  0  0  0  0
    0.7368   -5.1640   -3.9518 H   0  0  0  0  0  0  0  0  0  0  0  0
   -1.5634   -4.7804   -3.2491 H   0  0  0  0  0  0  0  0  0  0  0  0
   -2.0857   -4.0190   -0.9830 H   0  0  0  0  0  0  0  0  0  0  0  0
    2.0619   -2.5826    1.9115 H   0  0  0  0  0  0  0  0  0  0  0  0
    2.4861    0.3628    2.1429 H   0  0  0  0  0  0  0  0  0  0  0  0
    4.3641   -2.1009    2.6881 H   0  0  0  0  0  0  0  0  0  0  0  0
    4.7584   -0.4236    3.0575 H   0  0  0  0  0  0  0  0  0  0  0  0
    3.8200    0.7210    4.8514 H   0  0  0  0  0  0  0  0  0  0  0  0
    2.8873    0.6007    7.1024 H   0  0  0  0  0  0  0  0  0  0  0  0
    1.8254   -1.4453    7.8526 H   0  0  0  0  0  0  0  0  0  0  0  0
    1.6771   -3.4091    6.3449 H   0  0  0  0  0  0  0  0  0  0  0  0
    2.6003   -3.3390    4.0878 H   0  0  0  0  0  0  0  0  0  0  0  0
    5.0347    0.9131    1.1490 H   0  0  0  0  0  0  0  0  0  0  0  0
    4.6141    0.0362   -1.6709 H   0  0  0  0  0  0  0  0  0  0  0  0
    4.0859    2.3992   -1.1603 H   0  0  0  0  0  0  0  0  0  0  0  0
    5.6671    2.6626   -0.4262 H   0  0  0  0  0  0  0  0  0  0  0  0
    3.9341    1.9961   -3.5349 H   0  0  0  0  0  0  0  0  0  0  0  0
    4.7932    2.7987   -5.7692 H   0  0  0  0  0  0  0  0  0  0  0  0
    7.0514    3.7246   -5.8581 H   0  0  0  0  0  0  0  0  0  0  0  0
    8.4677    3.8854   -3.8562 H   0  0  0  0  0  0  0  0  0  0  0  0
    7.6001    3.0941   -1.7159 H   0  0  0  0  0  0  0  0  0  0  0  0
    7.2423   -0.2039   -3.1013 H   0  0  0  0  0  0  0  0  0  0  0  0
    8.5060    0.1255   -1.9127 H   0  0  0  0  0  0  0  0  0  0  0  0
  1  2  1  0
  2  3  1  0
  2  4  1  0
  4  5  1  0
  5  6  1  0
  6  7  1  0
  7  8  2  0
  7  9  1  0
  9 10  2  0
 10 11  1  0
 11 12  1  0
 12 13  2  0
 13 14  1  0
 14 15  2  0
 15 16  1  0
 16 17  2  0
  5 18  1  0
 18 19  2  0
 18 20  1  0
 20 21  1  0
 21 22  1  0
 22 23  1  0
 23 24  2  0
 24 25  1  0
 25 26  2  0
 26 27  1  0
 27 28  2  0
 21 29  1  0
 29 30  2  0
 29 31  1  0
 31 32  1  0
 32 33  1  0
 33 34  1  0
 34 35  2  0
 35 36  1  0
 36 37  2  0
 37 38  1  0
 38 39  2  0
 32 40  1  0
 40 41  2  0
 40 42  1  0
 42 43  1  0
 43 44  1  0
 44 45  1  0
 45 46  2  0
 46 47  1  0
 47 48  2  0
 48 49  1  0
 49 50  2  0
 43 51  1  0
 51 52  1  0
 51 53  2  0
 17  9  1  0
 28 23  1  0
 39 34  1  0
 50 45  1  0
 17 12  1  0
  1 54  1  0
  1 55  1  0
  1 56  1  0
  2 57  1  0
  3 58  1  0
  3 59  1  0
  3 60  1  0
  4 61  1  0
  4 62  1  0
  5 63  1  6
  6 64  1  0
 10 65  1  0
 11 66  1  0
 13 67  1  0
 14 68  1  0
 15 69  1  0
 16 70  1  0
 20 71  1  0
 21 72  1  1
 22 73  1  0
 22 74  1  0
 24 75  1  0
 25 76  1  0
 26 77  1  0
 27 78  1  0
 28 79  1  0
 31 80  1  0
 32 81  1  1
 33 82  1  0
 33 83  1  0
 35 84  1  0
 36 85  1  0
 37 86  1  0
 38 87  1  0
 39 88  1  0
 42 89  1  0
 43 90  1  6
 44 91  1  0
 44 92  1  0
 46 93  1  0
 47 94  1  0
 48 95  1  0
 49 96  1  0
 50 97  1  0
 52 98  1  0
 52 99  1  0
M  END
$$$$
[H]c1c([H])c([H])c(C([H])([H])[C@@]([H])(C(=O)N([H])C([H])([H])[H])N([H])C(=O)[C@@]([H])(N([H])C(=O)[C@@]([H])(N([H])C(=O)[C@@]([H])(N([H])C(=O)[C@@]([H])(N([H])C(=O)[C@@]([H])(N([H])C(=O)[C@]([H])(N([H])C(=O)[C@@]([H])(N([H])C(=O)[C@]([H])(N([H])C([H])([H])[H])C([H])([H])C([H])(C([H])([H])[H])C([H])([H])[H])C([H])([H])C([H])(C([H])([H])[H])C([H])([H])[H])C([H])([H])C([H])(C([H])([H])[H])C([H])([H])[H])C([H])([H])C([H])(C([H])([H])[H])C([H])([H])[H])C([H])([H])C([H])(C([H])([H])[H])C([H])([H])[H])C([H])([H])C([H])(C([H])([H])[H])C([H])([H])[H])C([H])([H])C([H])(C([H])([H])[H])C([H])([H])[H])C([H])([H])c2c([H])c([H])c([H])c([H])c2[H])c([H])c1[H]
     RDKit          3D

183184  0  0  0  0  0  0  0  0999 V2000
   16.7706    0.2440    0.7375 C   0  0  0  0  0  0  0  0  0  0  0  0
   15.4950    0.5018    1.1114 N   0  0  0  0  0  0  0  0  0  0  0  0
   14.1968    0.7628    1.4947 C   0  0  0  0  0  0  0  0  0  0  0  0
   13.6417    0.3944    2.5453 O   0  0  0  0  0  0  0  0  0  0  0  0
   13.2788    1.5835    0.5379 C   0  0  2  0  0  0  0  0  0  0  0  0
   13.1104    2.9240    1.1771 C   0  0  0  0  0  0  0  0  0  0  0  0
   12.4037    3.9496    0.3875 C   0  0  0  0  0  0  0  0  0  0  0  0
   11.1071    4.2956    0.5105 C   0  0  0  0  0  0  0  0  0  0  0  0
   10.5706    5.2775   -0.3285 C   0  0  0  0  0  0  0  0  0  0  0  0
   11.3563    5.8855   -1.2710 C   0  0  0  0  0  0  0  0  0  0  0  0
   12.6861    5.5266   -1.3914 C   0  0  0  0  0  0  0  0  0  0  0  0
   13.2210    4.5836   -0.5945 C   0  0  0  0  0  0  0  0  0  0  0  0
   12.0672    0.8294    0.4752 N   0  0  0  0  0  0  0  0  0  0  0  0
   10.9203    0.6565   -0.2486 C   0  0  0  0  0  0  0  0  0  0  0  0
   10.5803    1.2854   -1.2328 O   0  0  0  0  0  0  0  0  0  0  0  0
   10.0319   -0.4551    0.2780 C   0  0  2  0  0  0  0  0  0  0  0  0
   10.9806   -1.6552    0.3383 C   0  0  0  0  0  0  0  0  0  0  0  0
   10.3578   -2.9274    0.7457 C   0  0  0  0  0  0  0  0  0  0  0  0
    9.9380   -3.8417   -0.2262 C   0  0  0  0  0  0  0  0  0  0  0  0
    9.3074   -4.9941    0.1743 C   0  0  0  0  0  0  0  0  0  0  0  0
    9.0860   -5.2629    1.4853 C   0  0  0  0  0  0  0  0  0  0  0  0
    9.5029   -4.3567    2.4865 C   0  0  0  0  0  0  0  0  0  0  0  0
   10.1312   -3.2093    2.0670 C   0  0  0  0  0  0  0  0  0  0  0  0
    8.7491   -0.6974   -0.0317 N   0  0  0  0  0  0  0  0  0  0  0  0
    7.6269   -0.2244   -0.7788 C   0  0  0  0  0  0  0  0  0  0  0  0
    7.7163    0.7912   -1.5176 O   0  0  0  0  0  0  0  0  0  0  0  0
    6.3273   -0.9273   -0.6845 C   0  0  2  0  0  0  0  0  0  0  0  0
    6.4978   -2.3979   -0.8402 C   0  0  0  0  0  0  0  0  0  0  0  0
    5.1682   -3.1590   -0.7241 C   0  0  0  0  0  0  0  0  0  0  0  0
    5.4864   -4.6525   -0.9315 C   0  0  0  0  0  0  0  0  0  0  0  0
    4.6787   -3.0719    0.7103 C   0  0  0  0  0  0  0  0  0  0  0  0
    5.2306   -0.4710   -1.4925 N   0  0  0  0  0  0  0  0  0  0  0  0
    4.1233    0.2264   -0.9620 C   0  0  0  0  0  0  0  0  0  0  0  0
    4.2486    0.4713    0.3345 O   0  0  0  0  0  0  0  0  0  0  0  0
    2.8925    0.6977   -1.5179 C   0  0  2  0  0  0  0  0  0  0  0  0
    2.7296    1.8725   -2.3573 C   0  0  0  0  0  0  0  0  0  0  0  0
    3.3749    1.9981   -3.6710 C   0  0  0  0  0  0  0  0  0  0  0  0
    4.8497    2.0425   -3.7134 C   0  0  0  0  0  0  0  0  0  0  0  0
    2.9543    0.8489   -4.6116 C   0  0  0  0  0  0  0  0  0  0  0  0
    1.9289    0.7710   -0.3688 N   0  0  0  0  0  0  0  0  0  0  0  0
    0.5960    0.3417   -0.4412 C   0  0  0  0  0  0  0  0  0  0  0  0
    0.1562   -0.0686   -1.5574 O   0  0  0  0  0  0  0  0  0  0  0  0
   -0.2729    0.3616    0.7575 C   0  0  2  0  0  0  0  0  0  0  0  0
   -0.3716   -1.1462    1.2212 C   0  0  0  0  0  0  0  0  0  0  0  0
    1.0246   -1.6161    1.5617 C   0  0  0  0  0  0  0  0  0  0  0  0
    0.9902   -3.0954    1.9751 C   0  0  0  0  0  0  0  0  0  0  0  0
    1.5940   -0.8949    2.7437 C   0  0  0  0  0  0  0  0  0  0  0  0
   -1.5847    0.8708    0.6084 N   0  0  0  0  0  0  0  0  0  0  0  0
   -2.8338    0.2521    0.7673 C   0  0  0  0  0  0  0  0  0  0  0  0
   -2.9518   -0.9493    1.0594 O   0  0  0  0  0  0  0  0  0  0  0  0
   -4.1119    1.0287    0.5836 C   0  0  2  0  0  0  0  0  0  0  0  0
   -4.5973    1.6576    1.7898 C   0  0  0  0  0  0  0  0  0  0  0  0
   -4.9616    0.9877    3.0341 C   0  0  0  0  0  0  0  0  0  0  0  0
   -3.9634    0.2189    3.7953 C   0  0  0  0  0  0  0  0  0  0  0  0
   -6.2494    0.1354    2.8590 C   0  0  0  0  0  0  0  0  0  0  0  0
   -4.9937    0.2562   -0.2420 N   0  0  0  0  0  0  0  0  0  0  0  0
   -6.0240    0.8292   -0.9920 C   0  0  0  0  0  0  0  0  0  0  0  0
   -6.1567    2.1504   -0.8071 O   0  0  0  0  0  0  0  0  0  0  0  0
   -6.9847    0.3387   -1.9498 C   0  0  1  0  0  0  0  0  0  0  0  0
   -7.0533   -1.0510   -2.3984 C   0  0  0  0  0  0  0  0  0  0  0  0
   -7.4770   -2.1750   -1.6079 C   0  0  0  0  0  0  0  0  0  0  0  0
   -6.8646   -2.5987   -0.3413 C   0  0  0  0  0  0  0  0  0  0  0  0
   -7.3216   -3.4379   -2.5445 C   0  0  0  0  0  0  0  0  0  0  0  0
   -8.3536    0.8379   -1.7809 N   0  0  0  0  0  0  0  0  0  0  0  0
   -9.0321    1.4802   -0.7926 C   0  0  0  0  0  0  0  0  0  0  0  0
   -8.6494    1.8564    0.3260 O   0  0  0  0  0  0  0  0  0  0  0  0
  -10.5451    1.7924   -1.0718 C   0  0  2  0  0  0  0  0  0  0  0  0
  -10.6079    3.2345   -1.3704 C   0  0  0  0  0  0  0  0  0  0  0  0
  -11.9698    3.7756   -1.6638 C   0  0  0  0  0  0  0  0  0  0  0  0
  -12.5919    3.1203   -2.8714 C   0  0  0  0  0  0  0  0  0  0  0  0
  -11.9067    5.2722   -1.9360 C   0  0  0  0  0  0  0  0  0  0  0  0
  -11.3191    1.4206    0.0694 N   0  0  0  0  0  0  0  0  0  0  0  0
  -11.1553    0.1747    0.7378 C   0  0  0  0  0  0  0  0  0  0  0  0
  -10.2133   -0.5766    0.3055 O   0  0  0  0  0  0  0  0  0  0  0  0
  -11.9474   -0.3255    1.8522 C   0  0  1  0  0  0  0  0  0  0  0  0
  -12.6310   -1.6561    1.4469 C   0  0  0  0  0  0  0  0  0  0  0  0
  -13.4897   -1.4907    0.2404 C   0  0  0  0  0  0  0  0  0  0  0  0
  -14.5874   -0.4739    0.4434 C   0  0  0  0  0  0  0  0  0  0  0  0
  -14.0974   -2.8235   -0.1366 C   0  0  0  0  0  0  0  0  0  0  0  0
  -11.0205   -0.7957    2.9130 N   0  0  0  0  0  0  0  0  0  0  0  0
  -10.2843    0.3606    3.4293 C   0  0  0  0  0  0  0  0  0  0  0  0
   17.5647    0.7572    1.4012 H   0  0  0  0  0  0  0  0  0  0  0  0
   17.0950   -0.8059    0.6813 H   0  0  0  0  0  0  0  0  0  0  0  0
   16.9900    0.6434   -0.3090 H   0  0  0  0  0  0  0  0  0  0  0  0
   15.6740   -0.1938    2.2809 H   0  0  0  0  0  0  0  0  0  0  0  0
   13.7821    1.7188   -0.4073 H   0  0  0  0  0  0  0  0  0  0  0  0
   12.5849    2.7867    2.1608 H   0  0  0  0  0  0  0  0  0  0  0  0
   14.1650    3.2920    1.4149 H   0  0  0  0  0  0  0  0  0  0  0  0
   10.4721    3.8434    1.2410 H   0  0  0  0  0  0  0  0  0  0  0  0
    9.5311    5.5113   -0.1837 H   0  0  0  0  0  0  0  0  0  0  0  0
   10.9205    6.6277   -1.9178 H   0  0  0  0  0  0  0  0  0  0  0  0
   13.3074    6.0298   -2.1615 H   0  0  0  0  0  0  0  0  0  0  0  0
   14.2728    4.2823   -0.6670 H   0  0  0  0  0  0  0  0  0  0  0  0
   12.0817    0.1774    1.4397 H   0  0  0  0  0  0  0  0  0  0  0  0
    9.9907   -0.0264    1.4091 H   0  0  0  0  0  0  0  0  0  0  0  0
   11.7711   -1.5030    1.1512 H   0  0  0  0  0  0  0  0  0  0  0  0
   11.5841   -1.7030   -0.5746 H   0  0  0  0  0  0  0  0  0  0  0  0
   10.1255   -3.6216   -1.2591 H   0  0  0  0  0  0  0  0  0  0  0  0
    8.9784   -5.6725   -0.6232 H   0  0  0  0  0  0  0  0  0  0  0  0
    8.5799   -6.1459    1.8459 H   0  0  0  0  0  0  0  0  0  0  0  0
    9.3304   -4.5592    3.5300 H   0  0  0  0  0  0  0  0  0  0  0  0
   10.4541   -2.5271    2.8474 H   0  0  0  0  0  0  0  0  0  0  0  0
    8.3996   -1.6347    0.5090 H   0  0  0  0  0  0  0  0  0  0  0  0
    6.0269   -0.7127    0.4188 H   0  0  0  0  0  0  0  0  0  0  0  0
    6.9087   -2.6767   -1.8050 H   0  0  0  0  0  0  0  0  0  0  0  0
    7.1114   -2.8533   -0.0337 H   0  0  0  0  0  0  0  0  0  0  0  0
    4.4089   -2.8757   -1.4216 H   0  0  0  0  0  0  0  0  0  0  0  0
    6.2477   -4.8102   -1.7202 H   0  0  0  0  0  0  0  0  0  0  0  0
    4.5889   -5.2246   -1.2155 H   0  0  0  0  0  0  0  0  0  0  0  0
    5.7960   -5.1160    0.0563 H   0  0  0  0  0  0  0  0  0  0  0  0
    5.5579   -2.8300    1.3890 H   0  0  0  0  0  0  0  0  0  0  0  0
    4.3402   -4.0657    1.0369 H   0  0  0  0  0  0  0  0  0  0  0  0
    3.9037   -2.3293    0.8419 H   0  0  0  0  0  0  0  0  0  0  0  0
    5.2510   -0.6972   -2.5201 H   0  0  0  0  0  0  0  0  0  0  0  0
    2.4130   -0.2217   -2.0695 H   0  0  0  0  0  0  0  0  0  0  0  0
    3.0124    2.7852   -1.7194 H   0  0  0  0  0  0  0  0  0  0  0  0
    1.6088    2.1003   -2.5339 H   0  0  0  0  0  0  0  0  0  0  0  0
    2.9768    2.9178   -4.2128 H   0  0  0  0  0  0  0  0  0  0  0  0
    5.2060    2.8001   -4.4674 H   0  0  0  0  0  0  0  0  0  0  0  0
    5.2763    2.3267   -2.7378 H   0  0  0  0  0  0  0  0  0  0  0  0
    5.2762    1.0546   -4.0716 H   0  0  0  0  0  0  0  0  0  0  0  0
    1.9550    0.4860   -4.4194 H   0  0  0  0  0  0  0  0  0  0  0  0
    3.7301    0.0478   -4.5533 H   0  0  0  0  0  0  0  0  0  0  0  0
    3.0207    1.2531   -5.6354 H   0  0  0  0  0  0  0  0  0  0  0  0
    2.2801    1.1868    0.5102 H   0  0  0  0  0  0  0  0  0  0  0  0
    0.2389    0.8670    1.5971 H   0  0  0  0  0  0  0  0  0  0  0  0
   -0.9235   -1.1637    2.1661 H   0  0  0  0  0  0  0  0  0  0  0  0
   -0.8418   -1.7480    0.4640 H   0  0  0  0  0  0  0  0  0  0  0  0
    1.6849   -1.5578    0.6780 H   0  0  0  0  0  0  0  0  0  0  0  0
    0.0837   -3.3013    2.5443 H   0  0  0  0  0  0  0  0  0  0  0  0
    1.1006   -3.7007    1.0414 H   0  0  0  0  0  0  0  0  0  0  0  0
    1.8813   -3.2272    2.6329 H   0  0  0  0  0  0  0  0  0  0  0  0
    0.7846   -0.6987    3.5077 H   0  0  0  0  0  0  0  0  0  0  0  0
    2.3612   -1.5926    3.2206 H   0  0  0  0  0  0  0  0  0  0  0  0
    2.1594    0.0069    2.5183 H   0  0  0  0  0  0  0  0  0  0  0  0
   -1.6000    1.9241    0.3132 H   0  0  0  0  0  0  0  0  0  0  0  0
   -3.8071    1.9174   -0.0865 H   0  0  0  0  0  0  0  0  0  0  0  0
   -5.4531    2.3706    1.5611 H   0  0  0  0  0  0  0  0  0  0  0  0
   -3.7802    2.4215    2.1001 H   0  0  0  0  0  0  0  0  0  0  0  0
   -5.3283    1.8090    3.7211 H   0  0  0  0  0  0  0  0  0  0  0  0
   -2.8822    0.4050    3.5229 H   0  0  0  0  0  0  0  0  0  0  0  0
   -3.9820    0.5643    4.8799 H   0  0  0  0  0  0  0  0  0  0  0  0
   -4.0805   -0.8985    3.7594 H   0  0  0  0  0  0  0  0  0  0  0  0
   -6.0328   -0.8367    2.3855 H   0  0  0  0  0  0  0  0  0  0  0  0
   -6.8497    0.7294    2.1369 H   0  0  0  0  0  0  0  0  0  0  0  0
   -6.7329    0.0937    3.8323 H   0  0  0  0  0  0  0  0  0  0  0  0
   -4.8104   -0.7458   -0.2840 H   0  0  0  0  0  0  0  0  0  0  0  0
   -6.6783    0.9659   -2.9057 H   0  0  0  0  0  0  0  0  0  0  0  0
   -7.7336   -1.0633   -3.3528 H   0  0  0  0  0  0  0  0  0  0  0  0
   -6.0551   -1.3458   -2.9043 H   0  0  0  0  0  0  0  0  0  0  0  0
   -8.6174   -2.2003   -1.4641 H   0  0  0  0  0  0  0  0  0  0  0  0
   -7.0269   -1.8594    0.4929 H   0  0  0  0  0  0  0  0  0  0  0  0
   -5.8281   -2.9222   -0.4446 H   0  0  0  0  0  0  0  0  0  0  0  0
   -7.4101   -3.5184    0.0730 H   0  0  0  0  0  0  0  0  0  0  0  0
   -7.7849   -3.1838   -3.5048 H   0  0  0  0  0  0  0  0  0  0  0  0
   -6.2507   -3.6160   -2.6322 H   0  0  0  0  0  0  0  0  0  0  0  0
   -7.7989   -4.2993   -2.0528 H   0  0  0  0  0  0  0  0  0  0  0  0
   -8.9308    0.6208   -2.6913 H   0  0  0  0  0  0  0  0  0  0  0  0
  -10.7182    1.1034   -1.9032 H   0  0  0  0  0  0  0  0  0  0  0  0
   -9.8810    3.4845   -2.1880 H   0  0  0  0  0  0  0  0  0  0  0  0
  -10.2244    3.8090   -0.4649 H   0  0  0  0  0  0  0  0  0  0  0  0
  -12.6629    3.6410   -0.7967 H   0  0  0  0  0  0  0  0  0  0  0  0
  -12.1627    3.5826   -3.7976 H   0  0  0  0  0  0  0  0  0  0  0  0
  -12.4053    2.0407   -2.8501 H   0  0  0  0  0  0  0  0  0  0  0  0
  -13.6855    3.3723   -2.9325 H   0  0  0  0  0  0  0  0  0  0  0  0
  -11.0330    5.7396   -1.4744 H   0  0  0  0  0  0  0  0  0  0  0  0
  -12.8179    5.7388   -1.5640 H   0  0  0  0  0  0  0  0  0  0  0  0
  -11.8920    5.4034   -3.0477 H   0  0  0  0  0  0  0  0  0  0  0  0
  -12.0487    2.1028    0.4324 H   0  0  0  0  0  0  0  0  0  0  0  0
  -12.6811    0.3435    2.2775 H   0  0  0  0  0  0  0  0  0  0  0  0
  -13.2203   -2.0354    2.3157 H   0  0  0  0  0  0  0  0  0  0  0  0
  -11.8332   -2.3902    1.2516 H   0  0  0  0  0  0  0  0  0  0  0  0
  -12.8480   -1.1357   -0.6157 H   0  0  0  0  0  0  0  0  0  0  0  0
  -15.0695   -0.5202    1.4133 H   0  0  0  0  0  0  0  0  0  0  0  0
  -15.3767   -0.6204   -0.3522 H   0  0  0  0  0  0  0  0  0  0  0  0
  -14.1318    0.5538    0.3209 H   0  0  0  0  0  0  0  0  0  0  0  0
  -15.1542   -2.7317   -0.4519 H   0  0  0  0  0  0  0  0  0  0  0  0
  -14.0164   -3.5549    0.6955 H   0  0  0  0  0  0  0  0  0  0  0  0
  -13.5432   -3.2268   -1.0117 H   0  0  0  0  0  0  0  0  0  0  0  0
  -10.3195   -1.3763    2.3593 H   0  0  0  0  0  0  0  0  0  0  0  0
  -10.8744    0.7818    4.2881 H   0  0  0  0  0  0  0  0  0  0  0  0
   -9.2991    0.0546    3.7851 H   0  0  0  0  0  0  0  0  0  0  0  0
  -10.2381    1.1059    2.6037 H   0  0  0  0  0  0  0  0  0  0  0  0
  1  2  1  0
  2  3  1  0
  3  4  2  0
  3  5  1  0
  5  6  1  0
  6  7  1  0
  7  8  2  0
  8  9  1  0
  9 10  2  0
 10 11  1  0
 11 12  2  0
  5 13  1  0
 13 14  1  0
 14 15  2  0
 14 16  1  0
 16 17  1  0
 17 18  1  0
 18 19  2  0
 19 20  1  0
 20 21  2  0
 21 22  1  0
 22 23  2  0
 16 24  1  0
 24 25  1  0
 25 26  2  0
 25 27  1  0
 27 28  1  0
 28 29  1  0
 29 30  1  0
 29 31  1  0
 27 32  1  0
 32 33  1  0
 33 34  2  0
 33 35  1  0
 35 36  1  0
 36 37  1  0
 37 38  1  0
 37 39  1  0
 35 40  1  0
 40 41  1  0
 41 42  2  0
 41 43  1  0
 43 44  1  0
 44 45  1  0
 45 46  1  0
 45 47  1  0
 43 48  1  0
 48 49  1  0
 49 50  2  0
 49 51  1  0
 51 52  1  0
 52 53  1  0
 53 54  1  0
 53 55  1  0
 51 56  1  0
 56 57  1  0
 57 58  2  0
 57 59  1  0
 59 60  1  0
 60 61  1  0
 61 62  1  0
 61 63  1  0
 59 64  1  0
 64 65  1  0
 65 66  2  0
 65 67  1  0
 67 68  1  0
 68 69  1  0
 69 70  1  0
 69 71  1  0
 67 72  1  0
 72 73  1  0
 73 74  2  0
 73 75  1  0
 75 76  1  0
 76 77  1  0
 77 78  1  0
 77 79  1  0
 75 80  1  0
 80 81  1  0
 12  7  1  0
 23 18  1  0
  1 82  1  0
  1 83  1  0
  1 84  1  0
  2 85  1  0
  5 86  1  6
  6 87  1  0
  6 88  1  0
  8 89  1  0
  9 90  1  0
 10 91  1  0
 11 92  1  0
 12 93  1  0
 13 94  1  0
 16 95  1  1
 17 96  1  0
 17 97  1  0
 19 98  1  0
 20 99  1  0
 21100  1  0
 22101  1  0
 23102  1  0
 24103  1  0
 27104  1  1
 28105  1  0
 28106  1  0
 29107  1  0
 30108  1  0
 30109  1  0
 30110  1  0
 31111  1  0
 31112  1  0
 31113  1  0
 32114  1  0
 35115  1  6
 36116  1  0
 36117  1  0
 37118  1  0
 38119  1  0
 38120  1  0
 38121  1  0
 39122  1  0
 39123  1  0
 39124  1  0
 40125  1  0
 43126  1  1
 44127  1  0
 44128  1  0
 45129  1  0
 46130  1  0
 46131  1  0
 46132  1  0
 47133  1  0
 47134  1  0
 47135  1  0
 48136  1  0
 51137  1  6
 52138  1  0
 52139  1  0
 53140  1  0
 54141  1  0
 54142  1  0
 54143  1  0
 55144  1  0
 55145  1  0
 55146  1  0
 56147  1  0
 59148  1  6
 60149  1  0
 60150  1  0
 61151  1  0
 62152  1  0
 62153  1  0
 62154  1  0
 63155  1  0
 63156  1  0
 63157  1  0
 64158  1  0
 67159  1  6
 68160  1  0
 68161  1  0
 69162  1  0
 70163  1  0
 70164  1  0
 70165  1  0
 71166  1  0
 71167  1  0
 71168  1  0
 72169  1  0
 75170  1  1
 76171  1  0
 76172  1  0
 77173  1  0
 78174  1  0
 78175  1  0
 78176  1  0
 79177  1  0
 79178  1  0
 79179  1  0
 80180  1  0
 81181  1  0
 81182  1  0
 81183  1  0
M  END
$$$$
[H]N=C(N([H])[H])N([H])C([H])([H])C([H])([H])C([H])([H])[C@@]([H])(C(=O)N([H])[C@]([H])(C(=O)N([H])[H])C([H])([H])c1c([H])n([H])c2c([H])c([H])c([H])c([H])c12)N([H])C(=O)[C@@]([H])(N([H])C(=O)[C@@]([H])(N([H])[H])C([H])([H])c1c([H])c([H])c([H])c([H])c1[H])C([H])([H])C([H])(C([H])([H])[H])C([H])([H])[H]
     RDKit          3D

 90 92  0  0  0  0  0  0  0  0999 V2000
    2.6985    3.4263    0.4079 C   0  0  0  0  0  0  0  0  0  0  0  0
    1.3313    2.8271    0.4858 C   0  0  0  0  0  0  0  0  0  0  0  0
    0.4279    3.8781   -0.2472 C   0  0  0  0  0  0  0  0  0  0  0  0
    1.0840    1.5642   -0.2304 C   0  0  0  0  0  0  0  0  0  0  0  0
    1.8972    0.3783    0.0642 C   0  0  2  0  0  0  0  0  0  0  0  0
    3.2948    0.4713   -0.1848 N   0  0  0  0  0  0  0  0  0  0  0  0
    4.2809   -0.4492    0.2082 C   0  0  0  0  0  0  0  0  0  0  0  0
    3.9733   -1.5043    0.7906 O   0  0  0  0  0  0  0  0  0  0  0  0
    5.7023   -0.1552   -0.0728 C   0  0  1  0  0  0  0  0  0  0  0  0
    5.9732    1.2640   -0.0902 N   0  0  0  0  0  0  0  0  0  0  0  0
    6.5700   -0.9527    0.8257 C   0  0  0  0  0  0  0  0  0  0  0  0
    8.0094   -0.6619    0.6533 C   0  0  0  0  0  0  0  0  0  0  0  0
    8.5196    0.3466    1.4796 C   0  0  0  0  0  0  0  0  0  0  0  0
    9.8371    0.6995    1.3788 C   0  0  0  0  0  0  0  0  0  0  0  0
   10.6780    0.0595    0.4575 C   0  0  0  0  0  0  0  0  0  0  0  0
   10.1605   -0.9241   -0.3427 C   0  0  0  0  0  0  0  0  0  0  0  0
    8.8106   -1.2930   -0.2480 C   0  0  0  0  0  0  0  0  0  0  0  0
    1.3193   -0.7523   -0.8194 C   0  0  0  0  0  0  0  0  0  0  0  0
    2.0715   -1.2560   -1.6438 O   0  0  0  0  0  0  0  0  0  0  0  0
    0.0209   -1.0633   -0.5658 N   0  0  0  0  0  0  0  0  0  0  0  0
   -0.8956   -2.0491   -1.1489 C   0  0  1  0  0  0  0  0  0  0  0  0
   -0.9794   -3.2643   -0.3935 C   0  0  0  0  0  0  0  0  0  0  0  0
   -1.4756   -3.4604    0.9677 C   0  0  0  0  0  0  0  0  0  0  0  0
   -2.9058   -3.5303    1.3092 C   0  0  0  0  0  0  0  0  0  0  0  0
   -3.5717   -4.6689    0.6808 N   0  0  0  0  0  0  0  0  0  0  0  0
   -3.2508   -5.9977    1.1904 C   0  0  0  0  0  0  0  0  0  0  0  0
   -2.7757   -6.0328    2.5131 N   0  0  0  0  0  0  0  0  0  0  0  0
   -3.4106   -7.0299    0.4675 N   0  0  0  0  0  0  0  0  0  0  0  0
   -2.0067   -1.2356   -1.7009 C   0  0  0  0  0  0  0  0  0  0  0  0
   -1.9645   -0.8589   -2.9247 O   0  0  0  0  0  0  0  0  0  0  0  0
   -3.0679   -0.8337   -0.9125 N   0  0  0  0  0  0  0  0  0  0  0  0
   -4.2409   -0.0249   -1.2442 C   0  0  1  0  0  0  0  0  0  0  0  0
   -3.8202    1.3498   -0.8762 C   0  0  0  0  0  0  0  0  0  0  0  0
   -4.8008    2.4128   -0.9173 C   0  0  0  0  0  0  0  0  0  0  0  0
   -5.0212    3.4464   -1.7735 C   0  0  0  0  0  0  0  0  0  0  0  0
   -6.0459    4.2195   -1.3154 N   0  0  0  0  0  0  0  0  0  0  0  0
   -6.4993    3.6865   -0.1509 C   0  0  0  0  0  0  0  0  0  0  0  0
   -7.5188    4.0899    0.7099 C   0  0  0  0  0  0  0  0  0  0  0  0
   -7.7308    3.3113    1.8318 C   0  0  0  0  0  0  0  0  0  0  0  0
   -7.0014    2.1949    2.1219 C   0  0  0  0  0  0  0  0  0  0  0  0
   -5.9890    1.8144    1.2501 C   0  0  0  0  0  0  0  0  0  0  0  0
   -5.7524    2.5644    0.1255 C   0  0  0  0  0  0  0  0  0  0  0  0
   -4.6910   -0.2402   -2.6169 C   0  0  0  0  0  0  0  0  0  0  0  0
   -5.1605    0.7625   -3.4793 N   0  0  0  0  0  0  0  0  0  0  0  0
   -4.6609   -1.4354   -3.1146 O   0  0  0  0  0  0  0  0  0  0  0  0
    2.6287    4.4445    0.8989 H   0  0  0  0  0  0  0  0  0  0  0  0
    3.3648    2.8652    1.1283 H   0  0  0  0  0  0  0  0  0  0  0  0
    3.1165    3.5958   -0.5717 H   0  0  0  0  0  0  0  0  0  0  0  0
    0.9814    2.8570    1.5329 H   0  0  0  0  0  0  0  0  0  0  0  0
    0.3008    4.7802    0.3359 H   0  0  0  0  0  0  0  0  0  0  0  0
   -0.4964    3.3339   -0.4770 H   0  0  0  0  0  0  0  0  0  0  0  0
    0.9753    4.0218   -1.2274 H   0  0  0  0  0  0  0  0  0  0  0  0
   -0.0034    1.3074   -0.0254 H   0  0  0  0  0  0  0  0  0  0  0  0
    1.0777    1.7209   -1.3402 H   0  0  0  0  0  0  0  0  0  0  0  0
    1.7538   -0.0092    1.1170 H   0  0  0  0  0  0  0  0  0  0  0  0
    3.6536    1.3094   -0.7411 H   0  0  0  0  0  0  0  0  0  0  0  0
    5.9159   -0.4922   -1.1408 H   0  0  0  0  0  0  0  0  0  0  0  0
    6.7455    1.5372   -0.7048 H   0  0  0  0  0  0  0  0  0  0  0  0
    5.8729    1.7209    0.8156 H   0  0  0  0  0  0  0  0  0  0  0  0
    6.3651   -2.0443    0.5647 H   0  0  0  0  0  0  0  0  0  0  0  0
    6.2539   -0.7830    1.8769 H   0  0  0  0  0  0  0  0  0  0  0  0
    7.8301    0.8137    2.1849 H   0  0  0  0  0  0  0  0  0  0  0  0
   10.2375    1.4817    2.0229 H   0  0  0  0  0  0  0  0  0  0  0  0
   11.7131    0.4046    0.4361 H   0  0  0  0  0  0  0  0  0  0  0  0
   10.7969   -1.4173   -1.0474 H   0  0  0  0  0  0  0  0  0  0  0  0
    8.4016   -2.0724   -0.8830 H   0  0  0  0  0  0  0  0  0  0  0  0
   -0.4918   -0.5091    0.2376 H   0  0  0  0  0  0  0  0  0  0  0  0
   -0.3179   -2.3634   -2.1293 H   0  0  0  0  0  0  0  0  0  0  0  0
    0.1161   -3.7118   -0.4370 H   0  0  0  0  0  0  0  0  0  0  0  0
   -1.4936   -4.0900   -1.0290 H   0  0  0  0  0  0  0  0  0  0  0  0
   -1.0380   -2.6551    1.6800 H   0  0  0  0  0  0  0  0  0  0  0  0
   -1.0006   -4.4083    1.3888 H   0  0  0  0  0  0  0  0  0  0  0  0
   -3.5788   -2.7059    1.2314 H   0  0  0  0  0  0  0  0  0  0  0  0
   -2.9352   -3.7739    2.4465 H   0  0  0  0  0  0  0  0  0  0  0  0
   -4.2365   -4.5729   -0.0924 H   0  0  0  0  0  0  0  0  0  0  0  0
   -3.3016   -5.5585    3.2686 H   0  0  0  0  0  0  0  0  0  0  0  0
   -1.9026   -6.5280    2.7420 H   0  0  0  0  0  0  0  0  0  0  0  0
   -3.7561   -7.0731   -0.4942 H   0  0  0  0  0  0  0  0  0  0  0  0
   -2.9821   -1.0298    0.1673 H   0  0  0  0  0  0  0  0  0  0  0  0
   -5.0501   -0.4482   -0.5753 H   0  0  0  0  0  0  0  0  0  0  0  0
   -3.3504    1.2681    0.1521 H   0  0  0  0  0  0  0  0  0  0  0  0
   -2.9140    1.5724   -1.5252 H   0  0  0  0  0  0  0  0  0  0  0  0
   -4.4849    3.6486   -2.6691 H   0  0  0  0  0  0  0  0  0  0  0  0
   -6.4235    5.0758   -1.7680 H   0  0  0  0  0  0  0  0  0  0  0  0
   -8.1054    4.9626    0.5053 H   0  0  0  0  0  0  0  0  0  0  0  0
   -8.5201    3.6099    2.4988 H   0  0  0  0  0  0  0  0  0  0  0  0
   -7.1370    1.5586    2.9886 H   0  0  0  0  0  0  0  0  0  0  0  0
   -5.3786    0.9430    1.4306 H   0  0  0  0  0  0  0  0  0  0  0  0
   -4.4905    1.2050   -4.1748 H   0  0  0  0  0  0  0  0  0  0  0  0
   -6.1349    1.1152   -3.5041 H   0  0  0  0  0  0  0  0  0  0  0  0
  1  2  1  0
  2  3  1  0
  2  4  1  0
  4  5  1  0
  5  6  1  0
  6  7  1  0
  7  8  2  0
  7  9  1  0
  9 10  1  0
  9 11  1  0
 11 12  1  0
 12 13  2  0
 13 14  1  0
 14 15  2  0
 15 16  1  0
 16 17  2  0
  5 18  1  0
 18 19  2  0
 18 20  1  0
 20 21  1  0
 21 22  1  0
 22 23  1  0
 23 24  1  0
 24 25  1  0
 25 26  1  0
 26 27  1  0
 26 28  2  3
 21 29  1  0
 29 30  2  0
 29 31  1  0
 31 32  1  0
 32 33  1  0
 33 34  1  0
 34 35  2  0
 35 36  1  0
 36 37  1  0
 37 38  2  0
 38 39  1  0
 39 40  2  0
 40 41  1  0
 41 42  2  0
 32 43  1  0
 43 44  1  0
 43 45  2  0
 17 12  1  0
 42 34  1  0
 42 37  1  0
  1 46  1  0
  1 47  1  0
  1 48  1  0
  2 49  1  0
  3 50  1  0
  3 51  1  0
  3 52  1  0
  4 53  1  0
  4 54  1  0
  5 55  1  1
  6 56  1  0
  9 57  1  6
 10 58  1  0
 10 59  1  0
 11 60  1  0
 11 61  1  0
 13 62  1  0
 14 63  1  0
 15 64  1  0
 16 65  1  0
 17 66  1  0
 20 67  1  0
 21 68  1  6
 22 69  1  0
 22 70  1  0
 23 71  1  0
 23 72  1  0
 24 73  1  0
 24 74  1  0
 25 75  1  0
 27 76  1  0
 27 77  1  0
 28 78  1  0
 31 79  1  0
 32 80  1  1
 33 81  1  0
 33 82  1  0
 35 83  1  0
 36 84  1  0
 38 85  1  0
 39 86  1  0
 40 87  1  0
 41 88  1  0
 44 89  1  0
 44 90  1  0
M  END
$$$$
[H]OC(=O)[C@@]([H])(N([H])C(=O)[C@@]([H])(N([H])C(=O)[C@@]([H])(N([H])C(=O)[C@]([H])(N([H])C(=O)OC([H])([H])c1c([H])c([H])c([H])c([H])c1[H])C([H])([H])c1c([H])c([H])c([H])c([H])c1[H])C([H])(C([H])([H])[H])C([H])([H])[H])C([H])([H])c1c([H])c([H])c([H])c([H])c1[H])C([H])([H])c1c([H])c([H])c([H])c([H])c1[H]
     RDKit          3D

 95 98  0  0  0  0  0  0  0  0999 V2000
   -1.7693   -2.2780    2.1805 C   0  0  0  0  0  0  0  0  0  0  0  0
   -0.3159   -1.9262    2.3299 C   0  0  0  0  0  0  0  0  0  0  0  0
    0.3463   -3.0969    3.0238 C   0  0  0  0  0  0  0  0  0  0  0  0
    0.3755   -1.4417    1.1188 C   0  0  2  0  0  0  0  0  0  0  0  0
    1.7777   -1.1841    1.4765 N   0  0  0  0  0  0  0  0  0  0  0  0
    2.8632   -1.3820    0.6149 C   0  0  0  0  0  0  0  0  0  0  0  0
    2.6432   -1.8093   -0.5468 O   0  0  0  0  0  0  0  0  0  0  0  0
    4.2297   -1.0928    1.0410 C   0  0  1  0  0  0  0  0  0  0  0  0
    4.8370   -2.1115    1.9857 C   0  0  0  0  0  0  0  0  0  0  0  0
    4.9687   -3.4570    1.4528 C   0  0  0  0  0  0  0  0  0  0  0  0
    3.9780   -4.3877    1.5980 C   0  0  0  0  0  0  0  0  0  0  0  0
    4.0743   -5.6906    1.0972 C   0  0  0  0  0  0  0  0  0  0  0  0
    5.2168   -6.0375    0.4341 C   0  0  0  0  0  0  0  0  0  0  0  0
    6.2395   -5.1223    0.2689 C   0  0  0  0  0  0  0  0  0  0  0  0
    6.1139   -3.8524    0.7718 C   0  0  0  0  0  0  0  0  0  0  0  0
    5.1407   -1.0639   -0.1137 N   0  0  0  0  0  0  0  0  0  0  0  0
    5.8945    0.1219   -0.3070 C   0  0  0  0  0  0  0  0  0  0  0  0
    5.7901    1.1065    0.4764 O   0  0  0  0  0  0  0  0  0  0  0  0
    6.7752    0.2482   -1.3633 O   0  0  0  0  0  0  0  0  0  0  0  0
    7.5680    1.3565   -1.6598 C   0  0  0  0  0  0  0  0  0  0  0  0
    6.8141    2.6031   -1.9190 C   0  0  0  0  0  0  0  0  0  0  0  0
    6.7570    3.6361   -0.9790 C   0  0  0  0  0  0  0  0  0  0  0  0
    6.0515    4.7901   -1.2234 C   0  0  0  0  0  0  0  0  0  0  0  0
    5.3852    4.9478   -2.4072 C   0  0  0  0  0  0  0  0  0  0  0  0
    5.4441    3.9185   -3.3399 C   0  0  0  0  0  0  0  0  0  0  0  0
    6.1461    2.7662   -3.1007 C   0  0  0  0  0  0  0  0  0  0  0  0
   -0.2025   -0.2048    0.5217 C   0  0  0  0  0  0  0  0  0  0  0  0
    0.5250    0.8311    0.5332 O   0  0  0  0  0  0  0  0  0  0  0  0
   -1.4731   -0.1117   -0.0461 N   0  0  0  0  0  0  0  0  0  0  0  0
   -2.0403    1.0882   -0.6321 C   0  0  1  0  0  0  0  0  0  0  0  0
   -2.3137    1.0359   -2.0738 C   0  0  0  0  0  0  0  0  0  0  0  0
   -3.2241    0.0303   -2.5890 C   0  0  0  0  0  0  0  0  0  0  0  0
   -4.5605    0.2802   -2.7533 C   0  0  0  0  0  0  0  0  0  0  0  0
   -5.3431   -0.7330   -3.2664 C   0  0  0  0  0  0  0  0  0  0  0  0
   -4.8479   -1.9699   -3.6163 C   0  0  0  0  0  0  0  0  0  0  0  0
   -3.4878   -2.2180   -3.4464 C   0  0  0  0  0  0  0  0  0  0  0  0
   -2.7062   -1.2027   -2.9330 C   0  0  0  0  0  0  0  0  0  0  0  0
   -3.0026    1.7432    0.2610 C   0  0  0  0  0  0  0  0  0  0  0  0
   -3.0821    1.2810    1.4326 O   0  0  0  0  0  0  0  0  0  0  0  0
   -3.8274    2.8346   -0.0810 N   0  0  0  0  0  0  0  0  0  0  0  0
   -4.7559    3.5220    0.7452 C   0  0  1  0  0  0  0  0  0  0  0  0
   -5.6779    2.7272    1.6119 C   0  0  0  0  0  0  0  0  0  0  0  0
   -6.6147    1.8513    0.8994 C   0  0  0  0  0  0  0  0  0  0  0  0
   -6.4834    0.5306    0.6015 C   0  0  0  0  0  0  0  0  0  0  0  0
   -7.4346   -0.2314   -0.0694 C   0  0  0  0  0  0  0  0  0  0  0  0
   -8.5907    0.4008   -0.4581 C   0  0  0  0  0  0  0  0  0  0  0  0
   -8.7896    1.7376   -0.1890 C   0  0  0  0  0  0  0  0  0  0  0  0
   -7.8213    2.4527    0.4774 C   0  0  0  0  0  0  0  0  0  0  0  0
   -4.0999    4.6118    1.5404 C   0  0  0  0  0  0  0  0  0  0  0  0
   -4.8341    5.3861    2.4060 O   0  0  0  0  0  0  0  0  0  0  0  0
   -2.8805    4.8003    1.4006 O   0  0  0  0  0  0  0  0  0  0  0  0
   -2.1131   -2.9261    3.0420 H   0  0  0  0  0  0  0  0  0  0  0  0
   -1.9228   -2.8674    1.2468 H   0  0  0  0  0  0  0  0  0  0  0  0
   -2.4446   -1.4172    2.1850 H   0  0  0  0  0  0  0  0  0  0  0  0
   -0.3095   -1.1076    3.1339 H   0  0  0  0  0  0  0  0  0  0  0  0
    1.4098   -2.8346    3.2653 H   0  0  0  0  0  0  0  0  0  0  0  0
    0.2570   -4.0299    2.4601 H   0  0  0  0  0  0  0  0  0  0  0  0
   -0.1488   -3.1883    4.0312 H   0  0  0  0  0  0  0  0  0  0  0  0
    0.3809   -2.1824    0.3155 H   0  0  0  0  0  0  0  0  0  0  0  0
    1.9412   -0.8314    2.4359 H   0  0  0  0  0  0  0  0  0  0  0  0
    4.2757   -0.1110    1.5240 H   0  0  0  0  0  0  0  0  0  0  0  0
    5.8218   -1.7132    2.3006 H   0  0  0  0  0  0  0  0  0  0  0  0
    4.1799   -2.1339    2.8936 H   0  0  0  0  0  0  0  0  0  0  0  0
    3.0579   -4.1751    2.1136 H   0  0  0  0  0  0  0  0  0  0  0  0
    3.2771   -6.4149    1.2223 H   0  0  0  0  0  0  0  0  0  0  0  0
    5.3188   -7.0490    0.0317 H   0  0  0  0  0  0  0  0  0  0  0  0
    7.1258   -5.4718   -0.2738 H   0  0  0  0  0  0  0  0  0  0  0  0
    6.9398   -3.1667    0.6196 H   0  0  0  0  0  0  0  0  0  0  0  0
    5.2008   -1.8747   -0.7299 H   0  0  0  0  0  0  0  0  0  0  0  0
    8.3079    1.5838   -0.8382 H   0  0  0  0  0  0  0  0  0  0  0  0
    8.2128    1.0797   -2.5291 H   0  0  0  0  0  0  0  0  0  0  0  0
    7.2779    3.5314   -0.0381 H   0  0  0  0  0  0  0  0  0  0  0  0
    6.0138    5.5864   -0.4854 H   0  0  0  0  0  0  0  0  0  0  0  0
    4.8197    5.8456   -2.6306 H   0  0  0  0  0  0  0  0  0  0  0  0
    4.9261    4.0252   -4.2755 H   0  0  0  0  0  0  0  0  0  0  0  0
    6.1691    1.9965   -3.8402 H   0  0  0  0  0  0  0  0  0  0  0  0
   -2.0822   -0.9495   -0.0844 H   0  0  0  0  0  0  0  0  0  0  0  0
   -1.1231    1.8273   -0.5596 H   0  0  0  0  0  0  0  0  0  0  0  0
   -2.6126    2.0835   -2.3961 H   0  0  0  0  0  0  0  0  0  0  0  0
   -1.3061    0.9251   -2.5911 H   0  0  0  0  0  0  0  0  0  0  0  0
   -5.0358    1.2096   -2.5103 H   0  0  0  0  0  0  0  0  0  0  0  0
   -6.4246   -0.5998   -3.4247 H   0  0  0  0  0  0  0  0  0  0  0  0
   -5.4449   -2.7746   -4.0192 H   0  0  0  0  0  0  0  0  0  0  0  0
   -3.0499   -3.1888   -3.7115 H   0  0  0  0  0  0  0  0  0  0  0  0
   -1.6427   -1.4496   -2.8194 H   0  0  0  0  0  0  0  0  0  0  0  0
   -3.7139    3.1639   -1.1032 H   0  0  0  0  0  0  0  0  0  0  0  0
   -5.5193    4.0447    0.0214 H   0  0  0  0  0  0  0  0  0  0  0  0
   -5.0932    2.1443    2.3832 H   0  0  0  0  0  0  0  0  0  0  0  0
   -6.3159    3.4608    2.2263 H   0  0  0  0  0  0  0  0  0  0  0  0
   -5.5590    0.0444    0.9251 H   0  0  0  0  0  0  0  0  0  0  0  0
   -7.2449   -1.2931   -0.2674 H   0  0  0  0  0  0  0  0  0  0  0  0
   -9.3431   -0.1762   -0.9811 H   0  0  0  0  0  0  0  0  0  0  0  0
   -9.7241    2.1961   -0.5167 H   0  0  0  0  0  0  0  0  0  0  0  0
   -8.0098    3.4983    0.6727 H   0  0  0  0  0  0  0  0  0  0  0  0
   -4.5057    5.6455    3.3436 H   0  0  0  0  0  0  0  0  0  0  0  0
  1  2  1  0
  2  3  1  0
  2  4  1  0
  4  5  1  0
  5  6  1  0
  6  7  2  0
  6  8  1  0
  8  9  1  0
  9 10  1  0
 10 11  2  0
 11 12  1  0
 12 13  2  0
 13 14  1  0
 14 15  2  0
  8 16  1  0
 16 17  1  0
 17 18  2  0
 17 19  1  0
 19 20  1  0
 20 21  1  0
 21 22  2  0
 22 23  1  0
 23 24  2  0
 24 25  1  0
 25 26  2  0
  4 27  1  0
 27 28  2  0
 27 29  1  0
 29 30  1  0
 30 31  1  0
 31 32  1  0
 32 33  2  0
 33 34  1  0
 34 35  2  0
 35 36  1  0
 36 37  2  0
 30 38  1  0
 38 39  2  0
 38 40  1  0
 40 41  1  0
 41 42  1  0
 42 43  1  0
 43 44  2  0
 44 45  1  0
 45 46  2  0
 46 47  1  0
 47 48  2  0
 41 49  1  0
 49 50  1  0
 49 51  2  0
 15 10  1  0
 26 21  1  0
 37 32  1  0
 48 43  1  0
  1 52  1  0
  1 53  1  0
  1 54  1  0
  2 55  1  0
  3 56  1  0
  3 57  1  0
  3 58  1  0
  4 59  1  6
  5 60  1  0
  8 61  1  1
  9 62  1  0
  9 63  1  0
 11 64  1  0
 12 65  1  0
 13 66  1  0
 14 67  1  0
 15 68  1  0
 16 69  1  0
 20 70  1  0
 20 71  1  0
 22 72  1  0
 23 73  1  0
 24 74  1  0
 25 75  1  0
 26 76  1  0
 29 77  1  0
 30 78  1  6
 31 79  1  0
 31 80  1  0
 33 81  1  0
 34 82  1  0
 35 83  1  0
 36 84  1  0
 37 85  1  0
 40 86  1  0
 41 87  1  6
 42 88  1  0
 42 89  1  0
 44 90  1  0
 45 91  1  0
 46 92  1  0
 47 93  1  0
 48 94  1  0
 50 95  1  0
M  END
$$$$
[H]c1c([H])c([H])c(C(=O)N([H])[C@]2([H])C([H])([H])C([H])([H])[C@@]([H])(C(=O)N3C([H])([H])C([H])([H])N(S(=O)(=O)c4c([H])c([H])c(OC([H])([H])[H])c([H])c4[H])C([H])([H])C3([H])[H])C([H])([H])C2([H])[H])c([H])c1[H]
     RDKit          3D

 65 68  0  0  0  0  0  0  0  0999 V2000
    9.7716    1.8447   -2.3923 C   0  0  0  0  0  0  0  0  0  0  0  0
    9.2418    1.6325   -1.0988 O   0  0  0  0  0  0  0  0  0  0  0  0
    8.1290    0.8102   -0.9853 C   0  0  0  0  0  0  0  0  0  0  0  0
    7.5402    0.2083   -2.0760 C   0  0  0  0  0  0  0  0  0  0  0  0
    6.4331   -0.6039   -1.9204 C   0  0  0  0  0  0  0  0  0  0  0  0
    5.8802   -0.8410   -0.6798 C   0  0  0  0  0  0  0  0  0  0  0  0
    6.4793   -0.2325    0.4032 C   0  0  0  0  0  0  0  0  0  0  0  0
    7.5960    0.5876    0.2525 C   0  0  0  0  0  0  0  0  0  0  0  0
    4.4774   -1.8703   -0.4829 S   0  0  0  0  0  0  0  0  0  0  0  0
    4.5904   -2.6152    0.8168 O   0  0  0  0  0  0  0  0  0  0  0  0
    4.4363   -2.9281   -1.5774 O   0  0  0  0  0  0  0  0  0  0  0  0
    3.0066   -0.9727   -0.5959 N   0  0  0  0  0  0  0  0  0  0  0  0
    2.8852    0.0246    0.4136 C   0  0  0  0  0  0  0  0  0  0  0  0
    1.4560    0.3185    0.8088 C   0  0  0  0  0  0  0  0  0  0  0  0
    0.7265   -0.8943    1.0967 N   0  0  0  0  0  0  0  0  0  0  0  0
    1.3521   -2.1323    0.6886 C   0  0  0  0  0  0  0  0  0  0  0  0
    1.9209   -1.8909   -0.6930 C   0  0  0  0  0  0  0  0  0  0  0  0
   -0.5339   -0.9153    1.7421 C   0  0  0  0  0  0  0  0  0  0  0  0
   -1.1320   -2.0132    1.9717 O   0  0  0  0  0  0  0  0  0  0  0  0
   -1.2315    0.3209    2.1871 C   0  0  1  0  0  0  0  0  0  0  0  0
   -1.5289    1.2274    1.0178 C   0  0  0  0  0  0  0  0  0  0  0  0
   -2.9986    1.6208    1.0752 C   0  0  0  0  0  0  0  0  0  0  0  0
   -3.7881    0.3343    0.9464 C   0  0  1  0  0  0  0  0  0  0  0  0
   -3.6072   -0.4879    2.2040 C   0  0  0  0  0  0  0  0  0  0  0  0
   -2.4357    0.0049    3.0258 C   0  0  0  0  0  0  0  0  0  0  0  0
   -5.1514    0.5875    0.6256 N   0  0  0  0  0  0  0  0  0  0  0  0
   -5.7039    0.1342   -0.5927 C   0  0  0  0  0  0  0  0  0  0  0  0
   -4.9247   -0.5066   -1.3807 O   0  0  0  0  0  0  0  0  0  0  0  0
   -7.0821    0.3519   -0.9918 C   0  0  0  0  0  0  0  0  0  0  0  0
   -7.9316    1.0222   -0.1505 C   0  0  0  0  0  0  0  0  0  0  0  0
   -9.2631    1.2273   -0.5474 C   0  0  0  0  0  0  0  0  0  0  0  0
   -9.7102    0.7671   -1.7540 C   0  0  0  0  0  0  0  0  0  0  0  0
   -8.8632    0.1020   -2.5864 C   0  0  0  0  0  0  0  0  0  0  0  0
   -7.5460   -0.1004   -2.1927 C   0  0  0  0  0  0  0  0  0  0  0  0
    9.9514    0.8311   -2.8455 H   0  0  0  0  0  0  0  0  0  0  0  0
   10.7494    2.3557   -2.2910 H   0  0  0  0  0  0  0  0  0  0  0  0
    9.0709    2.3850   -3.0624 H   0  0  0  0  0  0  0  0  0  0  0  0
    7.9490    0.3747   -3.0550 H   0  0  0  0  0  0  0  0  0  0  0  0
    5.9694   -1.0772   -2.7754 H   0  0  0  0  0  0  0  0  0  0  0  0
    6.0586   -0.4065    1.3902 H   0  0  0  0  0  0  0  0  0  0  0  0
    8.0684    1.0686    1.1143 H   0  0  0  0  0  0  0  0  0  0  0  0
    3.2958    0.9873   -0.0025 H   0  0  0  0  0  0  0  0  0  0  0  0
    3.4740   -0.2500    1.2959 H   0  0  0  0  0  0  0  0  0  0  0  0
    1.5028    0.8951    1.7561 H   0  0  0  0  0  0  0  0  0  0  0  0
    0.9558    0.9661    0.0620 H   0  0  0  0  0  0  0  0  0  0  0  0
    0.6468   -2.9863    0.7055 H   0  0  0  0  0  0  0  0  0  0  0  0
    2.2139   -2.2899    1.3780 H   0  0  0  0  0  0  0  0  0  0  0  0
    1.0870   -1.5061   -1.3485 H   0  0  0  0  0  0  0  0  0  0  0  0
    2.2747   -2.8502   -1.1603 H   0  0  0  0  0  0  0  0  0  0  0  0
   -0.5015    0.8260    2.8865 H   0  0  0  0  0  0  0  0  0  0  0  0
   -0.9436    2.1472    1.0114 H   0  0  0  0  0  0  0  0  0  0  0  0
   -1.4153    0.6105    0.1009 H   0  0  0  0  0  0  0  0  0  0  0  0
   -3.2406    2.1970    1.9734 H   0  0  0  0  0  0  0  0  0  0  0  0
   -3.1846    2.2578    0.1791 H   0  0  0  0  0  0  0  0  0  0  0  0
   -3.3048   -0.2386    0.1239 H   0  0  0  0  0  0  0  0  0  0  0  0
   -3.5570   -1.5772    2.0016 H   0  0  0  0  0  0  0  0  0  0  0  0
   -4.5188   -0.3260    2.8336 H   0  0  0  0  0  0  0  0  0  0  0  0
   -2.7425    0.8208    3.6809 H   0  0  0  0  0  0  0  0  0  0  0  0
   -2.1457   -0.8477    3.6921 H   0  0  0  0  0  0  0  0  0  0  0  0
   -5.7561    1.1096    1.2853 H   0  0  0  0  0  0  0  0  0  0  0  0
   -7.6703    1.4171    0.8106 H   0  0  0  0  0  0  0  0  0  0  0  0
   -9.9296    1.7523    0.1107 H   0  0  0  0  0  0  0  0  0  0  0  0
  -10.7525    0.9446   -2.0302 H   0  0  0  0  0  0  0  0  0  0  0  0
   -9.2230   -0.2591   -3.5380 H   0  0  0  0  0  0  0  0  0  0  0  0
   -6.8725   -0.6324   -2.8611 H   0  0  0  0  0  0  0  0  0  0  0  0
  1  2  1  0
  2  3  1  0
  3  4  2  0
  4  5  1  0
  5  6  2  0
  6  7  1  0
  7  8  2  0
  6  9  1  0
  9 10  2  0
  9 11  2  0
  9 12  1  0
 12 13  1  0
 13 14  1  0
 14 15  1  0
 15 16  1  0
 16 17  1  0
 15 18  1  0
 18 19  2  0
 18 20  1  0
 20 21  1  0
 21 22  1  0
 22 23  1  0
 23 24  1  0
 24 25  1  0
 23 26  1  0
 26 27  1  0
 27 28  2  0
 27 29  1  0
 29 30  2  0
 30 31  1  0
 31 32  2  0
 32 33  1  0
 33 34  2  0
  8  3  1  0
 17 12  1  0
 25 20  1  0
 34 29  1  0
  1 35  1  0
  1 36  1  0
  1 37  1  0
  4 38  1  0
  5 39  1  0
  7 40  1  0
  8 41  1  0
 13 42  1  0
 13 43  1  0
 14 44  1  0
 14 45  1  0
 16 46  1  0
 16 47  1  0
 17 48  1  0
 17 49  1  0
 20 50  1  1
 21 51  1  0
 21 52  1  0
 22 53  1  0
 22 54  1  0
 23 55  1  6
 24 56  1  0
 24 57  1  0
 25 58  1  0
 25 59  1  0
 26 60  1  0
 30 61  1  0
 31 62  1  0
 32 63  1  0
 33 64  1  0
 34 65  1  0
M  END
$$$$
[H]ON([H])C(=O)/C([H])=C(\[H])c1c([H])c([H])c([H])c([H])c1[H]
     RDKit          3D

 21 21  0  0  0  0  0  0  0  0999 V2000
   -4.6723    0.0607    1.7615 O   0  0  0  0  0  0  0  0  0  0  0  0
   -3.4021    0.1242    1.3186 N   0  0  0  0  0  0  0  0  0  0  0  0
   -2.6459   -1.0310    1.0403 C   0  0  0  0  0  0  0  0  0  0  0  0
   -3.1551   -2.1768    1.2042 O   0  0  0  0  0  0  0  0  0  0  0  0
   -1.2569   -0.9960    0.5556 C   0  0  0  0  0  0  0  0  0  0  0  0
   -0.5952    0.1222    0.3382 C   0  0  0  0  0  0  0  0  0  0  0  0
    0.7695    0.1237   -0.1384 C   0  0  0  0  0  0  0  0  0  0  0  0
    1.5114   -0.9966   -0.4112 C   0  0  0  0  0  0  0  0  0  0  0  0
    2.8312   -0.9195   -0.8713 C   0  0  0  0  0  0  0  0  0  0  0  0
    3.3893    0.3257   -1.0510 C   0  0  0  0  0  0  0  0  0  0  0  0
    2.6810    1.4947   -0.7894 C   0  0  0  0  0  0  0  0  0  0  0  0
    1.4008    1.3563   -0.3439 C   0  0  0  0  0  0  0  0  0  0  0  0
   -4.9540    0.9277    2.1590 H   0  0  0  0  0  0  0  0  0  0  0  0
   -2.9727    1.0580    1.1800 H   0  0  0  0  0  0  0  0  0  0  0  0
   -0.7179   -1.9175    0.3561 H   0  0  0  0  0  0  0  0  0  0  0  0
   -1.0836    1.0715    0.5204 H   0  0  0  0  0  0  0  0  0  0  0  0
    1.1246   -1.9797   -0.2881 H   0  0  0  0  0  0  0  0  0  0  0  0
    3.3892   -1.8305   -1.0773 H   0  0  0  0  0  0  0  0  0  0  0  0
    4.3977    0.4345   -1.4019 H   0  0  0  0  0  0  0  0  0  0  0  0
    3.1235    2.4775   -0.9319 H   0  0  0  0  0  0  0  0  0  0  0  0
    0.8374    2.2710   -0.1360 H   0  0  0  0  0  0  0  0  0  0  0  0
  1  2  1  0
  2  3  1  0
  3  4  2  0
  3  5  1  0
  5  6  2  0
  6  7  1  0
  7  8  2  0
  8  9  1  0
  9 10  2  0
 10 11  1  0
 11 12  2  0
 12  7  1  0
  1 13  1  0
  2 14  1  0
  5 15  1  0
  6 16  1  0
  8 17  1  0
  9 18  1  0
 10 19  1  0
 11 20  1  0
 12 21  1  0
M  END
$$$$
[H]C1=C2C([H])([H])C([H])([H])[C@@]3([H])[C@]4([H])C([H])([H])C([H])([H])C(C([H])([H])[H])(C([H])([H])[H])[C@@]4(C([H])([H])[H])C([H])([H])C([H])([H])[C@]3([H])[C@@]2(C([H])([H])[H])C([H])([H])C([H])([H])C1=O
     RDKit          3D

 54 57  0  0  0  0  0  0  0  0999 V2000
   -1.9234    1.3951   -1.0864 C   0  0  0  0  0  0  0  0  0  0  0  0
   -1.8603    0.5149    0.1170 C   0  0  2  0  0  0  0  0  0  0  0  0
   -1.1095    1.1672    1.2187 C   0  0  0  0  0  0  0  0  0  0  0  0
    0.3315    1.3167    0.8497 C   0  0  0  0  0  0  0  0  0  0  0  0
    0.9966    0.0800    0.3718 C   0  0  1  0  0  0  0  0  0  0  0  0
    0.1831   -0.6558   -0.7030 C   0  0  1  0  0  0  0  0  0  0  0  0
    0.7832   -2.0363   -0.8402 C   0  0  0  0  0  0  0  0  0  0  0  0
    2.2048   -1.9354   -1.3488 C   0  0  0  0  0  0  0  0  0  0  0  0
    2.9615   -0.9626   -0.5066 C   0  0  0  0  0  0  0  0  0  0  0  0
    4.1316   -1.3250   -0.0210 C   0  0  0  0  0  0  0  0  0  0  0  0
    4.9274   -0.4207    0.8157 C   0  0  0  0  0  0  0  0  0  0  0  0
    6.1498   -0.4998    0.9951 O   0  0  0  0  0  0  0  0  0  0  0  0
    4.1573    0.6659    1.4837 C   0  0  0  0  0  0  0  0  0  0  0  0
    3.2094    1.2960    0.4909 C   0  0  0  0  0  0  0  0  0  0  0  0
    2.3402    0.3618   -0.2615 C   0  0  2  0  0  0  0  0  0  0  0  0
    2.1384    1.0008   -1.6499 C   0  0  0  0  0  0  0  0  0  0  0  0
   -1.1750   -0.8163   -0.1212 C   0  0  2  0  0  0  0  0  0  0  0  0
   -2.1772   -1.5417   -0.9172 C   0  0  0  0  0  0  0  0  0  0  0  0
   -3.4034   -1.3599   -0.0405 C   0  0  0  0  0  0  0  0  0  0  0  0
   -3.2452    0.0520    0.4879 C   0  0  0  0  0  0  0  0  0  0  0  0
   -4.3347    0.8722   -0.1724 C   0  0  0  0  0  0  0  0  0  0  0  0
   -3.4943    0.1061    1.9780 C   0  0  0  0  0  0  0  0  0  0  0  0
   -2.0882    2.4469   -0.7095 H   0  0  0  0  0  0  0  0  0  0  0  0
   -2.8200    1.2016   -1.7342 H   0  0  0  0  0  0  0  0  0  0  0  0
   -1.0292    1.4346   -1.7042 H   0  0  0  0  0  0  0  0  0  0  0  0
   -1.4992    2.1778    1.4662 H   0  0  0  0  0  0  0  0  0  0  0  0
   -1.1858    0.5143    2.1215 H   0  0  0  0  0  0  0  0  0  0  0  0
    0.8520    1.5968    1.8171 H   0  0  0  0  0  0  0  0  0  0  0  0
    0.4678    2.1956    0.1922 H   0  0  0  0  0  0  0  0  0  0  0  0
    1.1622   -0.6187    1.1990 H   0  0  0  0  0  0  0  0  0  0  0  0
    0.2199   -0.1700   -1.6731 H   0  0  0  0  0  0  0  0  0  0  0  0
    0.1959   -2.6068   -1.5946 H   0  0  0  0  0  0  0  0  0  0  0  0
    0.7446   -2.5645    0.1363 H   0  0  0  0  0  0  0  0  0  0  0  0
    2.6295   -2.9672   -1.2231 H   0  0  0  0  0  0  0  0  0  0  0  0
    2.2148   -1.7214   -2.4131 H   0  0  0  0  0  0  0  0  0  0  0  0
    4.5609   -2.3068   -0.2172 H   0  0  0  0  0  0  0  0  0  0  0  0
    3.6663    0.3369    2.4124 H   0  0  0  0  0  0  0  0  0  0  0  0
    4.8859    1.4553    1.7565 H   0  0  0  0  0  0  0  0  0  0  0  0
    3.8927    1.8106   -0.2560 H   0  0  0  0  0  0  0  0  0  0  0  0
    2.6190    2.0712    0.9860 H   0  0  0  0  0  0  0  0  0  0  0  0
    3.0774    1.5827   -1.8986 H   0  0  0  0  0  0  0  0  0  0  0  0
    2.0365    0.2735   -2.4478 H   0  0  0  0  0  0  0  0  0  0  0  0
    1.3388    1.7386   -1.6489 H   0  0  0  0  0  0  0  0  0  0  0  0
   -1.0751   -1.2985    0.8710 H   0  0  0  0  0  0  0  0  0  0  0  0
   -1.9252   -2.6235   -0.9652 H   0  0  0  0  0  0  0  0  0  0  0  0
   -2.3554   -1.1198   -1.9202 H   0  0  0  0  0  0  0  0  0  0  0  0
   -4.3445   -1.5133   -0.5834 H   0  0  0  0  0  0  0  0  0  0  0  0
   -3.3113   -2.0875    0.8012 H   0  0  0  0  0  0  0  0  0  0  0  0
   -5.2665    0.7650    0.4512 H   0  0  0  0  0  0  0  0  0  0  0  0
   -4.6128    0.4139   -1.1579 H   0  0  0  0  0  0  0  0  0  0  0  0
   -4.0606    1.9317   -0.2880 H   0  0  0  0  0  0  0  0  0  0  0  0
   -3.0448   -0.7375    2.5213 H   0  0  0  0  0  0  0  0  0  0  0  0
   -3.1355    1.0358    2.4157 H   0  0  0  0  0  0  0  0  0  0  0  0
   -4.6019    0.0774    2.1477 H   0  0  0  0  0  0  0  0  0  0  0  0
  2  1  1  6
  2  3  1  0
  3  4  1  0
  4  5  1  0
  5  6  1  0
  6  7  1  0
  7  8  1  0
  8  9  1  0
  9 10  2  0
 10 11  1  0
 11 12  2  0
 11 13  1  0
 13 14  1  0
 14 15  1  0
 15 16  1  6
  6 17  1  0
 17 18  1  0
 18 19  1  0
 19 20  1  0
 20 21  1  0
 20 22  1  0
 17  2  1  0
 20  2  1  0
 15  5  1  0
 15  9  1  0
  1 23  1  0
  1 24  1  0
  1 25  1  0
  3 26  1  0
  3 27  1  0
  4 28  1  0
  4 29  1  0
  5 30  1  1
  6 31  1  6
  7 32  1  0
  7 33  1  0
  8 34  1  0
  8 35  1  0
 10 36  1  0
 13 37  1  0
 13 38  1  0
 14 39  1  0
 14 40  1  0
 16 41  1  0
 16 42  1  0
 16 43  1  0
 17 44  1  1
 18 45  1  0
 18 46  1  0
 19 47  1  0
 19 48  1  0
 21 49  1  0
 21 50  1  0
 21 51  1  0
 22 52  1  0
 22 53  1  0
 22 54  1  0
M  END
$$$$
[H]c1nc2c(c([H])c1C(=O)N([H])[C@@]([H])(C(=O)N1C([H])([H])C([H])([H])N(c3c([H])c([H])c([H])c([H])c3Cl)C([H])([H])C1([H])[H])C([H])([H])[H])c([H])c([H])n2[H]
     RDKit          3D

 51 54  0  0  0  0  0  0  0  0999 V2000
   -0.3464   -1.8365    0.7012 C   0  0  0  0  0  0  0  0  0  0  0  0
   -0.8303   -0.5700   -0.0005 C   0  0  1  0  0  0  0  0  0  0  0  0
   -2.2237   -0.3393    0.3862 N   0  0  0  0  0  0  0  0  0  0  0  0
   -3.3083   -0.4347   -0.5058 C   0  0  0  0  0  0  0  0  0  0  0  0
   -3.1227   -0.7358   -1.7230 O   0  0  0  0  0  0  0  0  0  0  0  0
   -4.6588   -0.1904   -0.0422 C   0  0  0  0  0  0  0  0  0  0  0  0
   -4.9200    0.4391    1.1525 C   0  0  0  0  0  0  0  0  0  0  0  0
   -6.1882    0.6292    1.5429 N   0  0  0  0  0  0  0  0  0  0  0  0
   -7.2390    0.2291    0.8138 C   0  0  0  0  0  0  0  0  0  0  0  0
   -8.5787    0.3049    0.9923 N   0  0  0  0  0  0  0  0  0  0  0  0
   -9.2408   -0.2479   -0.0338 C   0  0  0  0  0  0  0  0  0  0  0  0
   -8.2537   -0.6986   -0.9102 C   0  0  0  0  0  0  0  0  0  0  0  0
   -7.0005   -0.4037   -0.3864 C   0  0  0  0  0  0  0  0  0  0  0  0
   -5.7232   -0.6306   -0.8468 C   0  0  0  0  0  0  0  0  0  0  0  0
   -0.0333    0.5720    0.4358 C   0  0  0  0  0  0  0  0  0  0  0  0
   -0.6233    1.4553    1.1573 O   0  0  0  0  0  0  0  0  0  0  0  0
    1.3283    0.7419    0.1026 N   0  0  0  0  0  0  0  0  0  0  0  0
    2.0479    1.8703    0.6018 C   0  0  0  0  0  0  0  0  0  0  0  0
    3.4566    1.5367    1.0352 C   0  0  0  0  0  0  0  0  0  0  0  0
    3.9784    0.3643    0.4234 N   0  0  0  0  0  0  0  0  0  0  0  0
    3.1479   -0.7784    0.0415 C   0  0  0  0  0  0  0  0  0  0  0  0
    1.9891   -0.1924   -0.7605 C   0  0  0  0  0  0  0  0  0  0  0  0
    5.3679    0.2670    0.1532 C   0  0  0  0  0  0  0  0  0  0  0  0
    5.8173    0.1282   -1.1714 C   0  0  0  0  0  0  0  0  0  0  0  0
    7.1655    0.0345   -1.4313 C   0  0  0  0  0  0  0  0  0  0  0  0
    8.1312    0.0698   -0.4402 C   0  0  0  0  0  0  0  0  0  0  0  0
    7.6859    0.2052    0.8493 C   0  0  0  0  0  0  0  0  0  0  0  0
    6.3400    0.3001    1.1278 C   0  0  0  0  0  0  0  0  0  0  0  0
    5.7910    0.4716    2.8050 Cl  0  0  0  0  0  0  0  0  0  0  0  0
    0.4102   -1.5284    1.4410 H   0  0  0  0  0  0  0  0  0  0  0  0
   -1.1884   -2.2775    1.3005 H   0  0  0  0  0  0  0  0  0  0  0  0
    0.0784   -2.5770    0.0274 H   0  0  0  0  0  0  0  0  0  0  0  0
   -0.8189   -0.7802   -1.0737 H   0  0  0  0  0  0  0  0  0  0  0  0
   -2.3798   -0.0982    1.3794 H   0  0  0  0  0  0  0  0  0  0  0  0
   -4.1228    0.7846    1.7780 H   0  0  0  0  0  0  0  0  0  0  0  0
   -9.0738    0.7340    1.8137 H   0  0  0  0  0  0  0  0  0  0  0  0
  -10.3125   -0.3230   -0.1474 H   0  0  0  0  0  0  0  0  0  0  0  0
   -8.3987   -1.2006   -1.8547 H   0  0  0  0  0  0  0  0  0  0  0  0
   -5.5629   -1.1287   -1.7899 H   0  0  0  0  0  0  0  0  0  0  0  0
    2.1472    2.6078   -0.2294 H   0  0  0  0  0  0  0  0  0  0  0  0
    1.5029    2.4218    1.4133 H   0  0  0  0  0  0  0  0  0  0  0  0
    4.1607    2.3769    0.8680 H   0  0  0  0  0  0  0  0  0  0  0  0
    3.3871    1.4283    2.1564 H   0  0  0  0  0  0  0  0  0  0  0  0
    3.7031   -1.5094   -0.5556 H   0  0  0  0  0  0  0  0  0  0  0  0
    2.7134   -1.2470    0.9410 H   0  0  0  0  0  0  0  0  0  0  0  0
    2.4204    0.4383   -1.6026 H   0  0  0  0  0  0  0  0  0  0  0  0
    1.3012   -0.9417   -1.1527 H   0  0  0  0  0  0  0  0  0  0  0  0
    5.0564    0.1035   -1.9336 H   0  0  0  0  0  0  0  0  0  0  0  0
    7.4724   -0.0733   -2.4850 H   0  0  0  0  0  0  0  0  0  0  0  0
    9.1533   -0.0093   -0.7358 H   0  0  0  0  0  0  0  0  0  0  0  0
    8.3949    0.2382    1.6565 H   0  0  0  0  0  0  0  0  0  0  0  0
  1  2  1  0
  2  3  1  0
  3  4  1  0
  4  5  2  0
  4  6  1  0
  6  7  2  0
  7  8  1  0
  8  9  2  0
  9 10  1  0
 10 11  1  0
 11 12  2  0
 12 13  1  0
 13 14  2  0
  2 15  1  0
 15 16  2  0
 15 17  1  0
 17 18  1  0
 18 19  1  0
 19 20  1  0
 20 21  1  0
 21 22  1  0
 20 23  1  0
 23 24  2  0
 24 25  1  0
 25 26  2  0
 26 27  1  0
 27 28  2  0
 28 29  1  0
 14  6  1  0
 22 17  1  0
 28 23  1  0
 13  9  1  0
  1 30  1  0
  1 31  1  0
  1 32  1  0
  2 33  1  6
  3 34  1  0
  7 35  1  0
 10 36  1  0
 11 37  1  0
 12 38  1  0
 14 39  1  0
 18 40  1  0
 18 41  1  0
 19 42  1  0
 19 43  1  0
 21 44  1  0
 21 45  1  0
 22 46  1  0
 22 47  1  0
 24 48  1  0
 25 49  1  0
 26 50  1  0
 27 51  1  0
M  END
$$$$
[H]OC([H])([H])[C@@]1([H])O[C@@]([H])(n2c([H])nc3c(N([H])C([H])([H])c4c([H])c([H])c([H])c([H])c4[H])nc([H])nc32)[C@]([H])(O[H])[C@]1([H])O[H]
     RDKit          3D

 45 48  0  0  0  0  0  0  0  0999 V2000
   -5.1765    2.0805    1.4665 O   0  0  0  0  0  0  0  0  0  0  0  0
   -5.3802    0.7211    1.4119 C   0  0  0  0  0  0  0  0  0  0  0  0
   -5.0454    0.1768    0.0264 C   0  0  1  0  0  0  0  0  0  0  0  0
   -3.7195    0.4487   -0.2458 O   0  0  0  0  0  0  0  0  0  0  0  0
   -3.2286   -0.6152   -0.9944 C   0  0  2  0  0  0  0  0  0  0  0  0
   -3.8098   -1.8022   -0.2545 C   0  0  2  0  0  0  0  0  0  0  0  0
   -3.7755   -2.9657   -0.9863 O   0  0  0  0  0  0  0  0  0  0  0  0
   -5.2408   -1.3022   -0.0265 C   0  0  2  0  0  0  0  0  0  0  0  0
   -5.9716   -1.6013   -1.1732 O   0  0  0  0  0  0  0  0  0  0  0  0
   -1.7659   -0.6141   -0.9338 N   0  0  0  0  0  0  0  0  0  0  0  0
   -0.9592   -1.5567   -1.4498 C   0  0  0  0  0  0  0  0  0  0  0  0
    0.3248   -1.2376   -1.2113 N   0  0  0  0  0  0  0  0  0  0  0  0
    0.3517   -0.0797   -0.5356 C   0  0  0  0  0  0  0  0  0  0  0  0
    1.3977    0.7054   -0.0353 C   0  0  0  0  0  0  0  0  0  0  0  0
    2.7546    0.2863   -0.2239 N   0  0  0  0  0  0  0  0  0  0  0  0
    3.7697    1.1565    0.3247 C   0  0  0  0  0  0  0  0  0  0  0  0
    5.1458    0.6607    0.1184 C   0  0  0  0  0  0  0  0  0  0  0  0
    5.4315   -0.6666   -0.0279 C   0  0  0  0  0  0  0  0  0  0  0  0
    6.7327   -1.1366   -0.2282 C   0  0  0  0  0  0  0  0  0  0  0  0
    7.7437   -0.2011   -0.2750 C   0  0  0  0  0  0  0  0  0  0  0  0
    7.4915    1.1295   -0.1325 C   0  0  0  0  0  0  0  0  0  0  0  0
    6.2126    1.5683    0.0624 C   0  0  0  0  0  0  0  0  0  0  0  0
    1.0633    1.8299    0.6061 N   0  0  0  0  0  0  0  0  0  0  0  0
   -0.2350    2.1908    0.7631 C   0  0  0  0  0  0  0  0  0  0  0  0
   -1.2319    1.4306    0.2793 N   0  0  0  0  0  0  0  0  0  0  0  0
   -0.9625    0.2984   -0.3692 C   0  0  0  0  0  0  0  0  0  0  0  0
   -6.0349    2.5664    1.3759 H   0  0  0  0  0  0  0  0  0  0  0  0
   -6.4750    0.5188    1.5779 H   0  0  0  0  0  0  0  0  0  0  0  0
   -4.7849    0.2344    2.1948 H   0  0  0  0  0  0  0  0  0  0  0  0
   -5.6568    0.7143   -0.7154 H   0  0  0  0  0  0  0  0  0  0  0  0
   -3.5875   -0.6149   -2.0387 H   0  0  0  0  0  0  0  0  0  0  0  0
   -3.2718   -1.8750    0.7225 H   0  0  0  0  0  0  0  0  0  0  0  0
   -3.5202   -3.7172   -0.3628 H   0  0  0  0  0  0  0  0  0  0  0  0
   -5.6765   -1.6894    0.8935 H   0  0  0  0  0  0  0  0  0  0  0  0
   -5.8361   -0.8837   -1.8655 H   0  0  0  0  0  0  0  0  0  0  0  0
   -1.2464   -2.4633   -1.9898 H   0  0  0  0  0  0  0  0  0  0  0  0
    2.9458   -0.6052   -0.7387 H   0  0  0  0  0  0  0  0  0  0  0  0
    3.5272    1.2746    1.4094 H   0  0  0  0  0  0  0  0  0  0  0  0
    3.6208    2.1619   -0.1553 H   0  0  0  0  0  0  0  0  0  0  0  0
    4.6227   -1.4064    0.0142 H   0  0  0  0  0  0  0  0  0  0  0  0
    6.9332   -2.1833   -0.3406 H   0  0  0  0  0  0  0  0  0  0  0  0
    8.7558   -0.5366   -0.4283 H   0  0  0  0  0  0  0  0  0  0  0  0
    8.2972    1.8728   -0.1700 H   0  0  0  0  0  0  0  0  0  0  0  0
    5.9728    2.6244    0.1804 H   0  0  0  0  0  0  0  0  0  0  0  0
   -0.5027    3.1028    1.2834 H   0  0  0  0  0  0  0  0  0  0  0  0
  1  2  1  0
  2  3  1  0
  3  4  1  0
  4  5  1  0
  5  6  1  0
  6  7  1  0
  6  8  1  0
  8  9  1  0
  5 10  1  0
 10 11  1  0
 11 12  2  0
 12 13  1  0
 13 14  2  0
 14 15  1  0
 15 16  1  0
 16 17  1  0
 17 18  2  0
 18 19  1  0
 19 20  2  0
 20 21  1  0
 21 22  2  0
 14 23  1  0
 23 24  2  0
 24 25  1  0
 25 26  2  0
  8  3  1  0
 26 10  1  0
 26 13  1  0
 22 17  1  0
  1 27  1  0
  2 28  1  0
  2 29  1  0
  3 30  1  6
  5 31  1  6
  6 32  1  1
  7 33  1  0
  8 34  1  1
  9 35  1  0
 11 36  1  0
 15 37  1  0
 16 38  1  0
 16 39  1  0
 18 40  1  0
 19 41  1  0
 20 42  1  0
 21 43  1  0
 22 44  1  0
 24 45  1  0
M  END
$$$$
[H]C([H])=C([H])C(=O)N([H])c1c([H])c([H])c(Oc2c([H])c([H])nc3c([H])c(OC([H])([H])C([H])([H])C([H])([H])N4C([H])([H])C([H])([H])N(C([H])([H])[H])C([H])([H])C4([H])[H])c(OC([H])([H])[H])c([H])c23)c([H])c1[H]
     RDKit          3D

 67 70  0  0  0  0  0  0  0  0999 V2000
    0.2720   -1.9622   -2.4893 C   0  0  0  0  0  0  0  0  0  0  0  0
   -0.6733   -1.2871   -1.6564 O   0  0  0  0  0  0  0  0  0  0  0  0
   -0.1566   -0.5185   -0.6042 C   0  0  0  0  0  0  0  0  0  0  0  0
    1.1876   -0.4031   -0.3746 C   0  0  0  0  0  0  0  0  0  0  0  0
    1.6507    0.3665    0.6745 C   0  0  0  0  0  0  0  0  0  0  0  0
    3.0360    0.4610    0.8999 C   0  0  0  0  0  0  0  0  0  0  0  0
    3.8255   -0.2114    0.0365 O   0  0  0  0  0  0  0  0  0  0  0  0
    5.1712   -0.2849    0.0094 C   0  0  0  0  0  0  0  0  0  0  0  0
    5.9874    0.8226   -0.0580 C   0  0  0  0  0  0  0  0  0  0  0  0
    7.3610    0.7258   -0.1001 C   0  0  0  0  0  0  0  0  0  0  0  0
    7.9621   -0.4949   -0.0750 C   0  0  0  0  0  0  0  0  0  0  0  0
    9.3509   -0.6448   -0.1295 N   0  0  0  0  0  0  0  0  0  0  0  0
   10.2729    0.2577    0.4188 C   0  0  0  0  0  0  0  0  0  0  0  0
    9.8401    1.2792    1.0371 O   0  0  0  0  0  0  0  0  0  0  0  0
   11.6933    0.0471    0.2933 C   0  0  0  0  0  0  0  0  0  0  0  0
   12.2107   -0.9681   -0.3317 C   0  0  0  0  0  0  0  0  0  0  0  0
    7.1528   -1.6343   -0.0049 C   0  0  0  0  0  0  0  0  0  0  0  0
    5.8021   -1.5431    0.0360 C   0  0  0  0  0  0  0  0  0  0  0  0
    3.5145    1.2116    1.9492 C   0  0  0  0  0  0  0  0  0  0  0  0
    2.5776    1.8531    2.7497 C   0  0  0  0  0  0  0  0  0  0  0  0
    1.2581    1.7399    2.5016 N   0  0  0  0  0  0  0  0  0  0  0  0
    0.7674    1.0137    1.4849 C   0  0  0  0  0  0  0  0  0  0  0  0
   -0.5960    0.9014    1.2551 C   0  0  0  0  0  0  0  0  0  0  0  0
   -1.1215    0.1340    0.2058 C   0  0  0  0  0  0  0  0  0  0  0  0
   -2.3627   -0.0084   -0.0591 O   0  0  0  0  0  0  0  0  0  0  0  0
   -3.6417   -0.1520   -0.3281 C   0  0  0  0  0  0  0  0  0  0  0  0
   -4.3701   -0.6928    0.8676 C   0  0  0  0  0  0  0  0  0  0  0  0
   -5.7799   -1.0521    0.8120 C   0  0  0  0  0  0  0  0  0  0  0  0
   -6.7123   -0.0080    0.4780 N   0  0  0  0  0  0  0  0  0  0  0  0
   -8.0547   -0.4341    0.8837 C   0  0  0  0  0  0  0  0  0  0  0  0
   -9.1865    0.3676    0.4357 C   0  0  0  0  0  0  0  0  0  0  0  0
   -8.9740    1.0719   -0.8124 N   0  0  0  0  0  0  0  0  0  0  0  0
   -8.8193    2.4780   -0.6838 C   0  0  0  0  0  0  0  0  0  0  0  0
   -8.0002    0.4098   -1.6208 C   0  0  0  0  0  0  0  0  0  0  0  0
   -6.6933    0.4075   -0.8984 C   0  0  0  0  0  0  0  0  0  0  0  0
    0.9961   -2.5653   -1.8663 H   0  0  0  0  0  0  0  0  0  0  0  0
    0.8311   -1.2439   -3.1018 H   0  0  0  0  0  0  0  0  0  0  0  0
   -0.2998   -2.6979   -3.0896 H   0  0  0  0  0  0  0  0  0  0  0  0
    1.9031   -0.9101   -1.0050 H   0  0  0  0  0  0  0  0  0  0  0  0
    5.4972    1.7964   -0.0720 H   0  0  0  0  0  0  0  0  0  0  0  0
    7.9250    1.6595   -0.1755 H   0  0  0  0  0  0  0  0  0  0  0  0
    9.7045   -1.5225   -0.6383 H   0  0  0  0  0  0  0  0  0  0  0  0
   12.3882    0.7736    0.7446 H   0  0  0  0  0  0  0  0  0  0  0  0
   13.3019   -1.0935   -0.4043 H   0  0  0  0  0  0  0  0  0  0  0  0
   11.6382   -1.7442   -0.8156 H   0  0  0  0  0  0  0  0  0  0  0  0
    7.6501   -2.5890    0.0163 H   0  0  0  0  0  0  0  0  0  0  0  0
    5.1971   -2.4567    0.0870 H   0  0  0  0  0  0  0  0  0  0  0  0
    4.5714    1.2853    2.1339 H   0  0  0  0  0  0  0  0  0  0  0  0
    2.9870    2.4427    3.5773 H   0  0  0  0  0  0  0  0  0  0  0  0
   -1.2852    1.4084    1.8879 H   0  0  0  0  0  0  0  0  0  0  0  0
   -4.1064    0.8266   -0.6892 H   0  0  0  0  0  0  0  0  0  0  0  0
   -3.7978   -0.8201   -1.2281 H   0  0  0  0  0  0  0  0  0  0  0  0
   -3.7746   -1.5487    1.3267 H   0  0  0  0  0  0  0  0  0  0  0  0
   -4.2032    0.1267    1.6679 H   0  0  0  0  0  0  0  0  0  0  0  0
   -5.9363   -1.9463    0.1206 H   0  0  0  0  0  0  0  0  0  0  0  0
   -6.1206   -1.4811    1.8165 H   0  0  0  0  0  0  0  0  0  0  0  0
   -8.1567   -1.4857    0.5538 H   0  0  0  0  0  0  0  0  0  0  0  0
   -8.0029   -0.4810    2.0167 H   0  0  0  0  0  0  0  0  0  0  0  0
   -9.5395    1.1066    1.1795 H   0  0  0  0  0  0  0  0  0  0  0  0
  -10.0906   -0.2930    0.2251 H   0  0  0  0  0  0  0  0  0  0  0  0
   -8.8695    2.7835    0.3856 H   0  0  0  0  0  0  0  0  0  0  0  0
   -9.7168    2.9465   -1.1832 H   0  0  0  0  0  0  0  0  0  0  0  0
   -7.8993    2.8864   -1.1769 H   0  0  0  0  0  0  0  0  0  0  0  0
   -7.8760    1.0431   -2.5370 H   0  0  0  0  0  0  0  0  0  0  0  0
   -8.3259   -0.6181   -1.8630 H   0  0  0  0  0  0  0  0  0  0  0  0
   -6.3160    1.4547   -0.9230 H   0  0  0  0  0  0  0  0  0  0  0  0
   -6.0256   -0.2914   -1.4421 H   0  0  0  0  0  0  0  0  0  0  0  0
  1  2  1  0
  2  3  1  0
  3  4  2  0
  4  5  1  0
  5  6  2  0
  6  7  1  0
  7  8  1  0
  8  9  2  0
  9 10  1  0
 10 11  2  0
 11 12  1  0
 12 13  1  0
 13 14  2  0
 13 15  1  0
 15 16  2  3
 11 17  1  0
 17 18  2  0
  6 19  1  0
 19 20  2  0
 20 21  1  0
 21 22  2  0
 22 23  1  0
 23 24  2  0
 24 25  1  0
 25 26  1  0
 26 27  1  0
 27 28  1  0
 28 29  1  0
 29 30  1  0
 30 31  1  0
 31 32  1  0
 32 33  1  0
 32 34  1  0
 34 35  1  0
 24  3  1  0
 35 29  1  0
 22  5  1  0
 18  8  1  0
  1 36  1  0
  1 37  1  0
  1 38  1  0
  4 39  1  0
  9 40  1  0
 10 41  1  0
 12 42  1  0
 15 43  1  0
 16 44  1  0
 16 45  1  0
 17 46  1  0
 18 47  1  0
 19 48  1  0
 20 49  1  0
 23 50  1  0
 26 51  1  0
 26 52  1  0
 27 53  1  0
 27 54  1  0
 28 55  1  0
 28 56  1  0
 30 57  1  0
 30 58  1  0
 31 59  1  0
 31 60  1  0
 33 61  1  0
 33 62  1  0
 33 63  1  0
 34 64  1  0
 34 65  1  0
 35 66  1  0
 35 67  1  0
M  END
$$$$
[H]c1c([H])c(N2C([H])([H])C([H])([H])N(S(=O)(=O)c3c([H])c([H])c(OC([H])([H])[H])c([H])c3[H])C([H])([H])C2([H])[H])c([H])c([H])c1C#N
     RDKit          3D

 44 46  0  0  0  0  0  0  0  0999 V2000
    7.5519   -0.4805   -0.0316 C   0  0  0  0  0  0  0  0  0  0  0  0
    6.5550   -0.9035    0.8680 O   0  0  0  0  0  0  0  0  0  0  0  0
    5.3233   -0.2918    0.8307 C   0  0  0  0  0  0  0  0  0  0  0  0
    4.2907   -0.6429    1.6743 C   0  0  0  0  0  0  0  0  0  0  0  0
    3.0571   -0.0348    1.6413 C   0  0  0  0  0  0  0  0  0  0  0  0
    2.8294    0.9625    0.7389 C   0  0  0  0  0  0  0  0  0  0  0  0
    3.8312    1.3486   -0.1256 C   0  0  0  0  0  0  0  0  0  0  0  0
    5.0380    0.7257   -0.0651 C   0  0  0  0  0  0  0  0  0  0  0  0
    1.2551    1.7719    0.6586 S   0  0  0  0  0  0  0  0  0  0  0  0
    1.4782    3.1727    0.1800 O   0  0  0  0  0  0  0  0  0  0  0  0
    0.6464    1.7549    2.0406 O   0  0  0  0  0  0  0  0  0  0  0  0
    0.3109    0.9474   -0.4838 N   0  0  0  0  0  0  0  0  0  0  0  0
    0.0256   -0.4133   -0.2139 C   0  0  0  0  0  0  0  0  0  0  0  0
   -1.3682   -0.6529    0.3162 C   0  0  0  0  0  0  0  0  0  0  0  0
   -2.3565   -0.0703   -0.6053 N   0  0  0  0  0  0  0  0  0  0  0  0
   -1.7934    0.7742   -1.6390 C   0  0  0  0  0  0  0  0  0  0  0  0
   -0.8145    1.7098   -0.9652 C   0  0  0  0  0  0  0  0  0  0  0  0
   -3.7304   -0.3497   -0.4433 C   0  0  0  0  0  0  0  0  0  0  0  0
   -4.7005    0.1543   -1.2733 C   0  0  0  0  0  0  0  0  0  0  0  0
   -6.0504   -0.1534   -1.0688 C   0  0  0  0  0  0  0  0  0  0  0  0
   -6.4508   -0.9696   -0.0315 C   0  0  0  0  0  0  0  0  0  0  0  0
   -5.4638   -1.4682    0.7937 C   0  0  0  0  0  0  0  0  0  0  0  0
   -4.1356   -1.1580    0.5825 C   0  0  0  0  0  0  0  0  0  0  0  0
   -7.8434   -1.2855    0.1773 C   0  0  0  0  0  0  0  0  0  0  0  0
   -8.9652   -1.5590    0.3394 N   0  0  0  0  0  0  0  0  0  0  0  0
    8.4624   -1.0614    0.1674 H   0  0  0  0  0  0  0  0  0  0  0  0
    7.7057    0.6135    0.0871 H   0  0  0  0  0  0  0  0  0  0  0  0
    7.2121   -0.7399   -1.0586 H   0  0  0  0  0  0  0  0  0  0  0  0
    4.4425   -1.4381    2.4078 H   0  0  0  0  0  0  0  0  0  0  0  0
    2.2611   -0.3264    2.3155 H   0  0  0  0  0  0  0  0  0  0  0  0
    3.6280    2.1558   -0.8471 H   0  0  0  0  0  0  0  0  0  0  0  0
    5.8276    1.0292   -0.7456 H   0  0  0  0  0  0  0  0  0  0  0  0
    0.7500   -0.8017    0.5263 H   0  0  0  0  0  0  0  0  0  0  0  0
    0.1625   -1.0611   -1.1276 H   0  0  0  0  0  0  0  0  0  0  0  0
   -1.5061   -0.3151    1.3419 H   0  0  0  0  0  0  0  0  0  0  0  0
   -1.5453   -1.7575    0.2581 H   0  0  0  0  0  0  0  0  0  0  0  0
   -2.5161    1.3150   -2.2431 H   0  0  0  0  0  0  0  0  0  0  0  0
   -1.1723    0.0910   -2.2821 H   0  0  0  0  0  0  0  0  0  0  0  0
   -1.3124    2.1644   -0.0844 H   0  0  0  0  0  0  0  0  0  0  0  0
   -0.4856    2.5196   -1.6502 H   0  0  0  0  0  0  0  0  0  0  0  0
   -4.4627    0.7869   -2.0889 H   0  0  0  0  0  0  0  0  0  0  0  0
   -6.8194    0.2446   -1.7246 H   0  0  0  0  0  0  0  0  0  0  0  0
   -5.7739   -2.1075    1.6067 H   0  0  0  0  0  0  0  0  0  0  0  0
   -3.3781   -1.5631    1.2461 H   0  0  0  0  0  0  0  0  0  0  0  0
  1  2  1  0
  2  3  1  0
  3  4  2  0
  4  5  1  0
  5  6  2  0
  6  7  1  0
  7  8  2  0
  6  9  1  0
  9 10  2  0
  9 11  2  0
  9 12  1  0
 12 13  1  0
 13 14  1  0
 14 15  1  0
 15 16  1  0
 16 17  1  0
 15 18  1  0
 18 19  2  0
 19 20  1  0
 20 21  2  0
 21 22  1  0
 22 23  2  0
 21 24  1  0
 24 25  3  0
  8  3  1  0
 17 12  1  0
 23 18  1  0
  1 26  1  0
  1 27  1  0
  1 28  1  0
  4 29  1  0
  5 30  1  0
  7 31  1  0
  8 32  1  0
 13 33  1  0
 13 34  1  0
 14 35  1  0
 14 36  1  0
 16 37  1  0
 16 38  1  0
 17 39  1  0
 17 40  1  0
 19 41  1  0
 20 42  1  0
 22 43  1  0
 23 44  1  0
M  END
$$$$
[H]c1nc(C(F)(F)F)c([H])c(C(=O)N([H])c2c([H])c([H])c(C([H])([H])[H])c(-c3c([H])nc4c(c3[H])c([H])c([H])n4[H])c2[H])c1[H]
     RDKit          3D

 44 47  0  0  0  0  0  0  0  0999 V2000
    3.1556    0.1842    2.1102 C   0  0  0  0  0  0  0  0  0  0  0  0
    1.8877    0.3291    1.3880 C   0  0  0  0  0  0  0  0  0  0  0  0
    0.7802    0.5693    2.2060 C   0  0  0  0  0  0  0  0  0  0  0  0
   -0.4365    0.7073    1.6349 C   0  0  0  0  0  0  0  0  0  0  0  0
   -0.5981    0.6080    0.2199 C   0  0  0  0  0  0  0  0  0  0  0  0
   -2.0056    0.7803   -0.0866 N   0  0  0  0  0  0  0  0  0  0  0  0
   -2.8884   -0.1419    0.5914 C   0  0  0  0  0  0  0  0  0  0  0  0
   -2.3420   -1.0875    1.2625 O   0  0  0  0  0  0  0  0  0  0  0  0
   -4.3287   -0.0156    0.5432 C   0  0  0  0  0  0  0  0  0  0  0  0
   -4.8771    0.5920    1.7205 C   0  0  0  0  0  0  0  0  0  0  0  0
   -6.2132    0.7857    1.8548 C   0  0  0  0  0  0  0  0  0  0  0  0
   -7.0317    0.4038    0.8732 N   0  0  0  0  0  0  0  0  0  0  0  0
   -6.5623   -0.1670   -0.2379 C   0  0  0  0  0  0  0  0  0  0  0  0
   -5.1925   -0.3906   -0.4270 C   0  0  0  0  0  0  0  0  0  0  0  0
   -7.5333   -0.5492   -1.2743 C   0  0  0  0  0  0  0  0  0  0  0  0
   -7.1940   -0.1055   -2.5461 F   0  0  0  0  0  0  0  0  0  0  0  0
   -7.7952   -1.9038   -1.2459 F   0  0  0  0  0  0  0  0  0  0  0  0
   -8.7559    0.0933   -1.0055 F   0  0  0  0  0  0  0  0  0  0  0  0
    0.4553    0.3806   -0.5422 C   0  0  0  0  0  0  0  0  0  0  0  0
    1.7027    0.2377    0.0070 C   0  0  0  0  0  0  0  0  0  0  0  0
    2.9080   -0.0541   -0.7565 C   0  0  0  0  0  0  0  0  0  0  0  0
    2.9451   -1.0953   -1.6539 C   0  0  0  0  0  0  0  0  0  0  0  0
    4.0816   -1.4544   -2.2636 N   0  0  0  0  0  0  0  0  0  0  0  0
    5.2793   -0.8283   -2.0479 C   0  0  0  0  0  0  0  0  0  0  0  0
    6.5398   -1.0195   -2.4780 N   0  0  0  0  0  0  0  0  0  0  0  0
    7.3697   -0.1210   -1.8920 C   0  0  0  0  0  0  0  0  0  0  0  0
    6.5889    0.6425   -1.0735 C   0  0  0  0  0  0  0  0  0  0  0  0
    5.2517    0.2115   -1.1605 C   0  0  0  0  0  0  0  0  0  0  0  0
    4.0983    0.5957   -0.5308 C   0  0  0  0  0  0  0  0  0  0  0  0
    3.8650   -0.5426    1.7286 H   0  0  0  0  0  0  0  0  0  0  0  0
    3.5921    1.1955    2.3580 H   0  0  0  0  0  0  0  0  0  0  0  0
    2.9072   -0.2131    3.1567 H   0  0  0  0  0  0  0  0  0  0  0  0
    0.8684    0.6562    3.2863 H   0  0  0  0  0  0  0  0  0  0  0  0
   -1.3385    0.9006    2.2444 H   0  0  0  0  0  0  0  0  0  0  0  0
   -2.2824    1.5051   -0.7328 H   0  0  0  0  0  0  0  0  0  0  0  0
   -4.1407    0.8794    2.4696 H   0  0  0  0  0  0  0  0  0  0  0  0
   -6.5684    1.2534    2.7863 H   0  0  0  0  0  0  0  0  0  0  0  0
   -4.8836   -0.8464   -1.3414 H   0  0  0  0  0  0  0  0  0  0  0  0
    0.3256    0.3101   -1.6382 H   0  0  0  0  0  0  0  0  0  0  0  0
    2.0593   -1.6666   -1.9161 H   0  0  0  0  0  0  0  0  0  0  0  0
    6.7867   -1.7764   -3.1768 H   0  0  0  0  0  0  0  0  0  0  0  0
    8.4516   -0.0950   -2.0894 H   0  0  0  0  0  0  0  0  0  0  0  0
    6.9556    1.4496   -0.4570 H   0  0  0  0  0  0  0  0  0  0  0  0
    4.1129    1.4401    0.1324 H   0  0  0  0  0  0  0  0  0  0  0  0
  1  2  1  0
  2  3  2  0
  3  4  1  0
  4  5  2  0
  5  6  1  0
  6  7  1  0
  7  8  2  0
  7  9  1  0
  9 10  2  0
 10 11  1  0
 11 12  2  0
 12 13  1  0
 13 14  2  0
 13 15  1  0
 15 16  1  0
 15 17  1  0
 15 18  1  0
  5 19  1  0
 19 20  2  0
 20 21  1  0
 21 22  2  0
 22 23  1  0
 23 24  2  0
 24 25  1  0
 25 26  1  0
 26 27  2  0
 27 28  1  0
 28 29  2  0
 20  2  1  0
 29 21  1  0
 14  9  1  0
 28 24  1  0
  1 30  1  0
  1 31  1  0
  1 32  1  0
  3 33  1  0
  4 34  1  0
  6 35  1  0
 10 36  1  0
 11 37  1  0
 14 38  1  0
 19 39  1  0
 22 40  1  0
 25 41  1  0
 26 42  1  0
 27 43  1  0
 29 44  1  0
M  END
$$$$
[H]O[C@]1([H])[C@]([H])(O[H])[C@]([H])(n2c([H])nc3c(N([H])[H])nc([H])nc32)O[C@]([H])(C([H])([H])OP(=O)(O[H])O[H])[C@@]1([H])O[H]
     RDKit          3D

 41 43  0  0  0  0  0  0  0  0999 V2000
   -5.9385    1.6658    1.8876 N   0  0  0  0  0  0  0  0  0  0  0  0
   -5.1507    0.5991    1.3707 C   0  0  0  0  0  0  0  0  0  0  0  0
   -5.6817   -0.6177    1.1510 N   0  0  0  0  0  0  0  0  0  0  0  0
   -4.9239   -1.6323    0.6571 C   0  0  0  0  0  0  0  0  0  0  0  0
   -3.6199   -1.4786    0.3649 N   0  0  0  0  0  0  0  0  0  0  0  0
   -3.0403   -0.2774    0.5675 C   0  0  0  0  0  0  0  0  0  0  0  0
   -1.7703    0.1377    0.3608 N   0  0  0  0  0  0  0  0  0  0  0  0
   -1.7597    1.4326    0.7381 C   0  0  0  0  0  0  0  0  0  0  0  0
   -2.9928    1.8020    1.1655 N   0  0  0  0  0  0  0  0  0  0  0  0
   -3.8071    0.7540    1.0686 C   0  0  0  0  0  0  0  0  0  0  0  0
   -0.6719   -0.6599   -0.1575 C   0  0  2  0  0  0  0  0  0  0  0  0
    0.4370   -0.4335    0.5806 O   0  0  0  0  0  0  0  0  0  0  0  0
    1.6476   -0.7716    0.0929 C   0  0  2  0  0  0  0  0  0  0  0  0
    2.7025    0.0872    0.7631 C   0  0  0  0  0  0  0  0  0  0  0  0
    3.9720   -0.2235    0.2932 O   0  0  0  0  0  0  0  0  0  0  0  0
    5.1797    0.6836    0.9884 P   0  0  0  0  0  0  0  0  0  0  0  0
    5.5015    0.2564    2.5864 O   0  0  0  0  0  0  0  0  0  0  0  0
    6.6180    0.3890    0.1079 O   0  0  0  0  0  0  0  0  0  0  0  0
    4.8990    2.1601    0.8490 O   0  0  0  0  0  0  0  0  0  0  0  0
    1.8235   -0.7595   -1.3845 C   0  0  1  0  0  0  0  0  0  0  0  0
    2.8686   -1.6158   -1.7807 O   0  0  0  0  0  0  0  0  0  0  0  0
    0.6114   -1.1499   -2.1651 C   0  0  2  0  0  0  0  0  0  0  0  0
    0.7816   -0.7555   -3.5046 O   0  0  0  0  0  0  0  0  0  0  0  0
   -0.5603   -0.4078   -1.6250 C   0  0  2  0  0  0  0  0  0  0  0  0
   -0.5663    0.9417   -1.9628 O   0  0  0  0  0  0  0  0  0  0  0  0
   -6.1330    2.5195    1.3012 H   0  0  0  0  0  0  0  0  0  0  0  0
   -6.3493    1.6563    2.8416 H   0  0  0  0  0  0  0  0  0  0  0  0
   -5.3778   -2.5935    0.4924 H   0  0  0  0  0  0  0  0  0  0  0  0
   -0.9233    2.0997    0.7175 H   0  0  0  0  0  0  0  0  0  0  0  0
   -0.9588   -1.7438   -0.0342 H   0  0  0  0  0  0  0  0  0  0  0  0
    1.8703   -1.8271    0.4362 H   0  0  0  0  0  0  0  0  0  0  0  0
    2.4996    1.1421    0.4210 H   0  0  0  0  0  0  0  0  0  0  0  0
    2.6135    0.0986    1.8496 H   0  0  0  0  0  0  0  0  0  0  0  0
    5.2073   -0.6598    2.8060 H   0  0  0  0  0  0  0  0  0  0  0  0
    6.6163   -0.5959   -0.0768 H   0  0  0  0  0  0  0  0  0  0  0  0
    2.1281    0.2582   -1.7186 H   0  0  0  0  0  0  0  0  0  0  0  0
    3.4581   -1.1886   -2.4529 H   0  0  0  0  0  0  0  0  0  0  0  0
    0.4038   -2.2368   -2.1711 H   0  0  0  0  0  0  0  0  0  0  0  0
   -0.1364   -0.7258   -3.9083 H   0  0  0  0  0  0  0  0  0  0  0  0
   -1.4854   -0.8438   -2.1053 H   0  0  0  0  0  0  0  0  0  0  0  0
    0.0081    1.4962   -1.4113 H   0  0  0  0  0  0  0  0  0  0  0  0
  1  2  1  0
  2  3  2  0
  3  4  1  0
  4  5  2  0
  5  6  1  0
  6  7  1  0
  7  8  1  0
  8  9  2  0
  9 10  1  0
  7 11  1  0
 11 12  1  0
 12 13  1  0
 13 14  1  0
 14 15  1  0
 15 16  1  0
 16 17  1  0
 16 18  1  0
 16 19  2  0
 13 20  1  0
 20 21  1  0
 20 22  1  0
 22 23  1  0
 22 24  1  0
 24 25  1  0
 10  2  1  0
 24 11  1  0
 10  6  2  0
  1 26  1  0
  1 27  1  0
  4 28  1  0
  8 29  1  0
 11 30  1  6
 13 31  1  1
 14 32  1  0
 14 33  1  0
 17 34  1  0
 18 35  1  0
 20 36  1  6
 21 37  1  0
 22 38  1  6
 23 39  1  0
 24 40  1  6
 25 41  1  0
M  END
$$$$
[H]c1nc(N2C([H])([H])C([H])([H])OC([H])([H])C2([H])[H])c([H])c(-c2nc(-c3c([H])c([H])c(N([H])C(=O)N([H])C4([H])C([H])([H])C([H])([H])N(C(=O)OC(C([H])([H])[H])(C([H])([H])[H])C([H])([H])[H])C([H])([H])C4([H])[H])c([H])c3[H])sc2[H])c1[H]
     RDKit          3D

 76 80  0  0  0  0  0  0  0  0999 V2000
   10.5936    1.4645   -1.1798 C   0  0  0  0  0  0  0  0  0  0  0  0
   10.7318    0.8286    0.1894 C   0  0  0  0  0  0  0  0  0  0  0  0
   11.7829   -0.2514    0.1339 C   0  0  0  0  0  0  0  0  0  0  0  0
   11.2851    1.9180    1.1020 C   0  0  0  0  0  0  0  0  0  0  0  0
    9.5127    0.3908    0.7063 O   0  0  0  0  0  0  0  0  0  0  0  0
    8.6858   -0.5454    0.1231 C   0  0  0  0  0  0  0  0  0  0  0  0
    9.0553   -1.0517   -0.9663 O   0  0  0  0  0  0  0  0  0  0  0  0
    7.4579   -0.9345    0.7174 N   0  0  0  0  0  0  0  0  0  0  0  0
    7.0072   -0.3694    1.9712 C   0  0  0  0  0  0  0  0  0  0  0  0
    5.5386   -0.0018    1.9039 C   0  0  0  0  0  0  0  0  0  0  0  0
    4.6954   -1.1385    1.4059 C   0  0  0  0  0  0  0  0  0  0  0  0
    5.5383   -2.3330    1.0003 C   0  0  0  0  0  0  0  0  0  0  0  0
    6.6240   -1.9172    0.0664 C   0  0  0  0  0  0  0  0  0  0  0  0
    3.9729   -0.7103    0.2264 N   0  0  0  0  0  0  0  0  0  0  0  0
    2.5348   -0.7326    0.2177 C   0  0  0  0  0  0  0  0  0  0  0  0
    1.9716   -1.1253    1.2434 O   0  0  0  0  0  0  0  0  0  0  0  0
    1.8459   -0.3191   -0.9231 N   0  0  0  0  0  0  0  0  0  0  0  0
    0.4399   -0.2844   -1.0279 C   0  0  0  0  0  0  0  0  0  0  0  0
   -0.1673   -0.3067   -2.2990 C   0  0  0  0  0  0  0  0  0  0  0  0
   -1.5198   -0.2515   -2.4974 C   0  0  0  0  0  0  0  0  0  0  0  0
   -2.3508   -0.1706   -1.4353 C   0  0  0  0  0  0  0  0  0  0  0  0
   -1.8178   -0.1453   -0.1761 C   0  0  0  0  0  0  0  0  0  0  0  0
   -0.4344   -0.2014    0.0268 C   0  0  0  0  0  0  0  0  0  0  0  0
   -3.8192   -0.1104   -1.6086 C   0  0  0  0  0  0  0  0  0  0  0  0
   -4.7217   -0.0212   -0.6573 N   0  0  0  0  0  0  0  0  0  0  0  0
   -5.9803    0.0239   -0.9666 C   0  0  0  0  0  0  0  0  0  0  0  0
   -6.3056   -0.0253   -2.3009 C   0  0  0  0  0  0  0  0  0  0  0  0
   -4.7606   -0.1343   -3.0276 S   0  0  0  0  0  0  0  0  0  0  0  0
   -7.0391    0.1278    0.0742 C   0  0  0  0  0  0  0  0  0  0  0  0
   -6.7453    0.1829    1.4196 C   0  0  0  0  0  0  0  0  0  0  0  0
   -7.7302    0.2808    2.3748 C   0  0  0  0  0  0  0  0  0  0  0  0
   -8.9985    0.3231    1.9894 N   0  0  0  0  0  0  0  0  0  0  0  0
   -9.3699    0.2742    0.6906 C   0  0  0  0  0  0  0  0  0  0  0  0
   -8.3642    0.1750   -0.2734 C   0  0  0  0  0  0  0  0  0  0  0  0
  -10.7378    0.3234    0.3145 N   0  0  0  0  0  0  0  0  0  0  0  0
  -11.1235    0.2321   -1.0520 C   0  0  0  0  0  0  0  0  0  0  0  0
  -12.5643    0.4451   -1.3514 C   0  0  0  0  0  0  0  0  0  0  0  0
  -13.3882    0.6391   -0.2733 O   0  0  0  0  0  0  0  0  0  0  0  0
  -12.8188    1.3817    0.7547 C   0  0  0  0  0  0  0  0  0  0  0  0
  -11.7347    0.4705    1.3469 C   0  0  0  0  0  0  0  0  0  0  0  0
    9.7472    2.1584   -1.2224 H   0  0  0  0  0  0  0  0  0  0  0  0
   10.4631    0.7056   -1.9709 H   0  0  0  0  0  0  0  0  0  0  0  0
   11.5548    2.0092   -1.3989 H   0  0  0  0  0  0  0  0  0  0  0  0
   12.1545   -0.4365    1.1828 H   0  0  0  0  0  0  0  0  0  0  0  0
   12.6257    0.1329   -0.4763 H   0  0  0  0  0  0  0  0  0  0  0  0
   11.4278   -1.1928   -0.3223 H   0  0  0  0  0  0  0  0  0  0  0  0
   10.5525    2.7329    1.2459 H   0  0  0  0  0  0  0  0  0  0  0  0
   12.1430    2.3598    0.5545 H   0  0  0  0  0  0  0  0  0  0  0  0
   11.6227    1.5237    2.0644 H   0  0  0  0  0  0  0  0  0  0  0  0
    7.5696    0.5120    2.2787 H   0  0  0  0  0  0  0  0  0  0  0  0
    7.1310   -1.1377    2.7632 H   0  0  0  0  0  0  0  0  0  0  0  0
    5.4322    0.8607    1.2442 H   0  0  0  0  0  0  0  0  0  0  0  0
    5.2287    0.2343    2.9417 H   0  0  0  0  0  0  0  0  0  0  0  0
    3.9673   -1.4503    2.1649 H   0  0  0  0  0  0  0  0  0  0  0  0
    4.9022   -3.1380    0.6012 H   0  0  0  0  0  0  0  0  0  0  0  0
    6.0269   -2.6966    1.9364 H   0  0  0  0  0  0  0  0  0  0  0  0
    6.2546   -1.4445   -0.8681 H   0  0  0  0  0  0  0  0  0  0  0  0
    7.2095   -2.8324   -0.1925 H   0  0  0  0  0  0  0  0  0  0  0  0
    4.4490   -0.3782   -0.6381 H   0  0  0  0  0  0  0  0  0  0  0  0
    2.3826    0.0052   -1.7977 H   0  0  0  0  0  0  0  0  0  0  0  0
    0.5351   -0.3739   -3.1423 H   0  0  0  0  0  0  0  0  0  0  0  0
   -1.9210   -0.2726   -3.5026 H   0  0  0  0  0  0  0  0  0  0  0  0
   -2.4767   -0.0796    0.6969 H   0  0  0  0  0  0  0  0  0  0  0  0
   -0.0741   -0.1610    1.0585 H   0  0  0  0  0  0  0  0  0  0  0  0
   -7.3099    0.0002   -2.7620 H   0  0  0  0  0  0  0  0  0  0  0  0
   -5.7061    0.1477    1.7339 H   0  0  0  0  0  0  0  0  0  0  0  0
   -7.5210    0.3257    3.4368 H   0  0  0  0  0  0  0  0  0  0  0  0
   -8.6943    0.1383   -1.2966 H   0  0  0  0  0  0  0  0  0  0  0  0
  -10.7593   -0.7636   -1.4235 H   0  0  0  0  0  0  0  0  0  0  0  0
  -10.5489    0.9642   -1.6961 H   0  0  0  0  0  0  0  0  0  0  0  0
  -12.9465   -0.4847   -1.8693 H   0  0  0  0  0  0  0  0  0  0  0  0
  -12.7367    1.2481   -2.1220 H   0  0  0  0  0  0  0  0  0  0  0  0
  -12.3374    2.2730    0.2839 H   0  0  0  0  0  0  0  0  0  0  0  0
  -13.5735    1.6626    1.4877 H   0  0  0  0  0  0  0  0  0  0  0  0
  -12.2469   -0.4946    1.5934 H   0  0  0  0  0  0  0  0  0  0  0  0
  -11.3096    0.9422    2.2580 H   0  0  0  0  0  0  0  0  0  0  0  0
  1  2  1  0
  2  3  1  0
  2  4  1  0
  2  5  1  0
  5  6  1  0
  6  7  2  0
  6  8  1  0
  8  9  1  0
  9 10  1  0
 10 11  1  0
 11 12  1  0
 12 13  1  0
 11 14  1  0
 14 15  1  0
 15 16  2  0
 15 17  1  0
 17 18  1  0
 18 19  2  0
 19 20  1  0
 20 21  2  0
 21 22  1  0
 22 23  2  0
 21 24  1  0
 24 25  2  0
 25 26  1  0
 26 27  2  0
 27 28  1  0
 26 29  1  0
 29 30  2  0
 30 31  1  0
 31 32  2  0
 32 33  1  0
 33 34  2  0
 33 35  1  0
 35 36  1  0
 36 37  1  0
 37 38  1  0
 38 39  1  0
 39 40  1  0
 13  8  1  0
 23 18  1  0
 28 24  1  0
 34 29  1  0
 40 35  1  0
  1 41  1  0
  1 42  1  0
  1 43  1  0
  3 44  1  0
  3 45  1  0
  3 46  1  0
  4 47  1  0
  4 48  1  0
  4 49  1  0
  9 50  1  0
  9 51  1  0
 10 52  1  0
 10 53  1  0
 11 54  1  0
 12 55  1  0
 12 56  1  0
 13 57  1  0
 13 58  1  0
 14 59  1  0
 17 60  1  0
 19 61  1  0
 20 62  1  0
 22 63  1  0
 23 64  1  0
 27 65  1  0
 30 66  1  0
 31 67  1  0
 34 68  1  0
 36 69  1  0
 36 70  1  0
 37 71  1  0
 37 72  1  0
 39 73  1  0
 39 74  1  0
 40 75  1  0
 40 76  1  0
M  END
$$$$
[H]c1nc(N([H])c2c([H])c([H])c(N3C([H])([H])C([H])([H])OC([H])([H])C3([H])[H])c([H])c2OC([H])([H])[H])nc(N([H])c2c([H])c([H])c([H])c([H])c2S(=O)(=O)C2([H])C([H])([H])C2([H])[H])c1Cl
     RDKit          3D

 61 65  0  0  0  0  0  0  0  0999 V2000
    2.9059    3.1560    1.6524 C   0  0  0  0  0  0  0  0  0  0  0  0
    2.1378    2.0814    1.1685 O   0  0  0  0  0  0  0  0  0  0  0  0
    2.7718    1.0002    0.5375 C   0  0  0  0  0  0  0  0  0  0  0  0
    4.1375    1.0259    0.4115 C   0  0  0  0  0  0  0  0  0  0  0  0
    4.8379    0.0096   -0.1923 C   0  0  0  0  0  0  0  0  0  0  0  0
    4.0917   -1.0383   -0.6649 C   0  0  0  0  0  0  0  0  0  0  0  0
    2.7098   -1.0859   -0.5486 C   0  0  0  0  0  0  0  0  0  0  0  0
    2.0285   -0.0757    0.0502 C   0  0  0  0  0  0  0  0  0  0  0  0
    0.6379   -0.0173    0.2240 N   0  0  0  0  0  0  0  0  0  0  0  0
   -0.3657   -0.9211   -0.1425 C   0  0  0  0  0  0  0  0  0  0  0  0
   -0.1601   -2.0800   -0.7675 N   0  0  0  0  0  0  0  0  0  0  0  0
   -1.1708   -2.9033   -1.0891 C   0  0  0  0  0  0  0  0  0  0  0  0
   -2.4600   -2.5875   -0.7884 C   0  0  0  0  0  0  0  0  0  0  0  0
   -3.7967   -3.6732   -1.2115 Cl  0  0  0  0  0  0  0  0  0  0  0  0
   -2.7170   -1.3673   -0.1261 C   0  0  0  0  0  0  0  0  0  0  0  0
   -4.0533   -1.0448    0.1684 N   0  0  0  0  0  0  0  0  0  0  0  0
   -4.5207    0.0839    0.8193 C   0  0  0  0  0  0  0  0  0  0  0  0
   -3.7036    1.0107    1.4568 C   0  0  0  0  0  0  0  0  0  0  0  0
   -4.2198    2.1145    2.1386 C   0  0  0  0  0  0  0  0  0  0  0  0
   -5.5863    2.2611    2.1622 C   0  0  0  0  0  0  0  0  0  0  0  0
   -6.4153    1.3566    1.5384 C   0  0  0  0  0  0  0  0  0  0  0  0
   -5.9151    0.2593    0.8591 C   0  0  0  0  0  0  0  0  0  0  0  0
   -6.9805   -0.8332    0.0622 S   0  0  0  0  0  0  0  0  0  0  0  0
   -8.4191   -0.3599    0.3398 O   0  0  0  0  0  0  0  0  0  0  0  0
   -6.9572   -2.2378    0.6265 O   0  0  0  0  0  0  0  0  0  0  0  0
   -6.8113   -0.9202   -1.6794 C   0  0  0  0  0  0  0  0  0  0  0  0
   -7.7226   -0.1601   -2.5760 C   0  0  0  0  0  0  0  0  0  0  0  0
   -7.9950   -1.6407   -2.3633 C   0  0  0  0  0  0  0  0  0  0  0  0
   -1.6396   -0.6362    0.1405 N   0  0  0  0  0  0  0  0  0  0  0  0
    6.2625    0.0390   -0.3218 N   0  0  0  0  0  0  0  0  0  0  0  0
    6.9631    1.1812    0.1958 C   0  0  0  0  0  0  0  0  0  0  0  0
    8.4081    1.2684   -0.1397 C   0  0  0  0  0  0  0  0  0  0  0  0
    8.8411    0.3843   -1.0936 O   0  0  0  0  0  0  0  0  0  0  0  0
    8.4577   -0.9119   -0.7220 C   0  0  0  0  0  0  0  0  0  0  0  0
    6.9810   -1.0361   -0.9479 C   0  0  0  0  0  0  0  0  0  0  0  0
    3.3970    3.7161    0.8086 H   0  0  0  0  0  0  0  0  0  0  0  0
    3.6980    2.8027    2.3576 H   0  0  0  0  0  0  0  0  0  0  0  0
    2.2546    3.8306    2.2304 H   0  0  0  0  0  0  0  0  0  0  0  0
    4.6928    1.8672    0.7956 H   0  0  0  0  0  0  0  0  0  0  0  0
    4.5748   -1.8702   -1.1501 H   0  0  0  0  0  0  0  0  0  0  0  0
    2.1723   -1.9435   -0.9434 H   0  0  0  0  0  0  0  0  0  0  0  0
    0.2627    0.8662    0.7217 H   0  0  0  0  0  0  0  0  0  0  0  0
   -0.9918   -3.8489   -1.6003 H   0  0  0  0  0  0  0  0  0  0  0  0
   -4.7657   -1.7719   -0.1393 H   0  0  0  0  0  0  0  0  0  0  0  0
   -2.6286    0.9306    1.4728 H   0  0  0  0  0  0  0  0  0  0  0  0
   -3.5519    2.8138    2.6218 H   0  0  0  0  0  0  0  0  0  0  0  0
   -5.9644    3.1354    2.7045 H   0  0  0  0  0  0  0  0  0  0  0  0
   -7.5005    1.5011    1.5755 H   0  0  0  0  0  0  0  0  0  0  0  0
   -5.8509   -1.2222   -2.0858 H   0  0  0  0  0  0  0  0  0  0  0  0
   -8.4552    0.5610   -2.1947 H   0  0  0  0  0  0  0  0  0  0  0  0
   -7.3274    0.0966   -3.5868 H   0  0  0  0  0  0  0  0  0  0  0  0
   -7.7628   -2.3246   -3.2074 H   0  0  0  0  0  0  0  0  0  0  0  0
   -8.8994   -1.8466   -1.7598 H   0  0  0  0  0  0  0  0  0  0  0  0
    6.4329    2.0802   -0.2444 H   0  0  0  0  0  0  0  0  0  0  0  0
    6.7544    1.2615    1.2856 H   0  0  0  0  0  0  0  0  0  0  0  0
    9.0472    1.1728    0.7688 H   0  0  0  0  0  0  0  0  0  0  0  0
    8.6470    2.2996   -0.5386 H   0  0  0  0  0  0  0  0  0  0  0  0
    9.0031   -1.6058   -1.4077 H   0  0  0  0  0  0  0  0  0  0  0  0
    8.7700   -1.1737    0.2997 H   0  0  0  0  0  0  0  0  0  0  0  0
    6.8074   -1.0050   -2.0638 H   0  0  0  0  0  0  0  0  0  0  0  0
    6.6216   -2.0244   -0.5850 H   0  0  0  0  0  0  0  0  0  0  0  0
  1  2  1  0
  2  3  1  0
  3  4  2  0
  4  5  1  0
  5  6  2  0
  6  7  1  0
  7  8  2  0
  8  9  1  0
  9 10  1  0
 10 11  2  0
 11 12  1  0
 12 13  2  0
 13 14  1  0
 13 15  1  0
 15 16  1  0
 16 17  1  0
 17 18  2  0
 18 19  1  0
 19 20  2  0
 20 21  1  0
 21 22  2  0
 22 23  1  0
 23 24  2  0
 23 25  2  0
 23 26  1  0
 26 27  1  0
 27 28  1  0
 15 29  2  0
  5 30  1  0
 30 31  1  0
 31 32  1  0
 32 33  1  0
 33 34  1  0
 34 35  1  0
  8  3  1  0
 29 10  1  0
 35 30  1  0
 22 17  1  0
 28 26  1  0
  1 36  1  0
  1 37  1  0
  1 38  1  0
  4 39  1  0
  6 40  1  0
  7 41  1  0
  9 42  1  0
 12 43  1  0
 16 44  1  0
 18 45  1  0
 19 46  1  0
 20 47  1  0
 21 48  1  0
 26 49  1  0
 27 50  1  0
 27 51  1  0
 28 52  1  0
 28 53  1  0
 31 54  1  0
 31 55  1  0
 32 56  1  0
 32 57  1  0
 34 58  1  0
 34 59  1  0
 35 60  1  0
 35 61  1  0
M  END
$$$$
[H]OC(=O)c1c([H])c([H])c([H])c(C(=O)N([H])[C@]([H])(c2c([H])c([H])c(OC([H])([H])[H])c(OC([H])([H])[H])c2[H])C([H])([H])c2c([H])n([H])c3c([H])c([H])c([H])c([H])c23)c1[H]
     RDKit          3D

 57 60  0  0  0  0  0  0  0  0999 V2000
    4.5860   -3.4046    0.9897 C   0  0  0  0  0  0  0  0  0  0  0  0
    3.4869   -2.8044    1.6298 O   0  0  0  0  0  0  0  0  0  0  0  0
    2.6299   -1.9293    1.0072 C   0  0  0  0  0  0  0  0  0  0  0  0
    2.7269   -1.5340   -0.3085 C   0  0  0  0  0  0  0  0  0  0  0  0
    1.8006   -0.6409   -0.8442 C   0  0  0  0  0  0  0  0  0  0  0  0
    0.7772   -0.1341   -0.0896 C   0  0  0  0  0  0  0  0  0  0  0  0
    0.6611   -0.5143    1.2289 C   0  0  0  0  0  0  0  0  0  0  0  0
    1.5768   -1.3966    1.7594 C   0  0  0  0  0  0  0  0  0  0  0  0
    1.4804   -1.7910    3.0754 O   0  0  0  0  0  0  0  0  0  0  0  0
    0.4470   -1.2907    3.8827 C   0  0  0  0  0  0  0  0  0  0  0  0
   -0.2197    0.8447   -0.6726 C   0  0  2  0  0  0  0  0  0  0  0  0
   -0.0599    2.1923   -0.1041 C   0  0  0  0  0  0  0  0  0  0  0  0
    1.1911    2.8891   -0.3133 C   0  0  0  0  0  0  0  0  0  0  0  0
    2.3008    2.8489    0.4867 C   0  0  0  0  0  0  0  0  0  0  0  0
    3.2808    3.5695   -0.0393 N   0  0  0  0  0  0  0  0  0  0  0  0
    2.8819    4.1201   -1.1975 C   0  0  0  0  0  0  0  0  0  0  0  0
    3.5159    4.9526   -2.1095 C   0  0  0  0  0  0  0  0  0  0  0  0
    2.8645    5.3971   -3.2343 C   0  0  0  0  0  0  0  0  0  0  0  0
    1.5441    4.9760   -3.4213 C   0  0  0  0  0  0  0  0  0  0  0  0
    0.9184    4.1466   -2.5072 C   0  0  0  0  0  0  0  0  0  0  0  0
    1.5758    3.6984   -1.3737 C   0  0  0  0  0  0  0  0  0  0  0  0
   -1.5150    0.3247   -0.2747 N   0  0  0  0  0  0  0  0  0  0  0  0
   -1.8913   -0.9405   -0.8066 C   0  0  0  0  0  0  0  0  0  0  0  0
   -1.1311   -1.6051   -1.5710 O   0  0  0  0  0  0  0  0  0  0  0  0
   -3.1844   -1.5639   -0.5184 C   0  0  0  0  0  0  0  0  0  0  0  0
   -4.3134   -1.0421   -1.1554 C   0  0  0  0  0  0  0  0  0  0  0  0
   -5.5625   -1.5769   -0.9348 C   0  0  0  0  0  0  0  0  0  0  0  0
   -5.7265   -2.6416   -0.0805 C   0  0  0  0  0  0  0  0  0  0  0  0
   -4.6273   -3.1785    0.5670 C   0  0  0  0  0  0  0  0  0  0  0  0
   -3.3675   -2.6225    0.3313 C   0  0  0  0  0  0  0  0  0  0  0  0
   -4.7561   -4.2907    1.4845 C   0  0  0  0  0  0  0  0  0  0  0  0
   -6.0016   -4.8327    1.7232 O   0  0  0  0  0  0  0  0  0  0  0  0
   -3.7365   -4.7758    2.0745 O   0  0  0  0  0  0  0  0  0  0  0  0
    5.1249   -2.7038    0.2920 H   0  0  0  0  0  0  0  0  0  0  0  0
    4.3291   -4.2951    0.3874 H   0  0  0  0  0  0  0  0  0  0  0  0
    5.3044   -3.6916    1.8108 H   0  0  0  0  0  0  0  0  0  0  0  0
    3.5370   -1.9382   -0.9029 H   0  0  0  0  0  0  0  0  0  0  0  0
    1.9250   -0.3723   -1.8789 H   0  0  0  0  0  0  0  0  0  0  0  0
   -0.1157   -0.1485    1.8522 H   0  0  0  0  0  0  0  0  0  0  0  0
    0.6941   -1.5510    4.9469 H   0  0  0  0  0  0  0  0  0  0  0  0
    0.3091   -0.1928    3.8303 H   0  0  0  0  0  0  0  0  0  0  0  0
   -0.5495   -1.7573    3.6683 H   0  0  0  0  0  0  0  0  0  0  0  0
   -0.0902    0.6983   -1.7543 H   0  0  0  0  0  0  0  0  0  0  0  0
   -0.2933    2.1191    0.9950 H   0  0  0  0  0  0  0  0  0  0  0  0
   -0.9059    2.8345   -0.4948 H   0  0  0  0  0  0  0  0  0  0  0  0
    2.3560    2.2883    1.4252 H   0  0  0  0  0  0  0  0  0  0  0  0
    4.2419    3.6977    0.3823 H   0  0  0  0  0  0  0  0  0  0  0  0
    4.5408    5.2675   -1.9417 H   0  0  0  0  0  0  0  0  0  0  0  0
    3.3440    6.0529   -3.9665 H   0  0  0  0  0  0  0  0  0  0  0  0
    1.0080    5.3083   -4.2900 H   0  0  0  0  0  0  0  0  0  0  0  0
   -0.1030    3.8408   -2.6721 H   0  0  0  0  0  0  0  0  0  0  0  0
   -2.1552    0.8422    0.3607 H   0  0  0  0  0  0  0  0  0  0  0  0
   -4.1601   -0.2034   -1.8275 H   0  0  0  0  0  0  0  0  0  0  0  0
   -6.4580   -1.1663   -1.4329 H   0  0  0  0  0  0  0  0  0  0  0  0
   -6.7202   -3.0462    0.0636 H   0  0  0  0  0  0  0  0  0  0  0  0
   -2.4758   -3.0223    0.8254 H   0  0  0  0  0  0  0  0  0  0  0  0
   -6.8406   -4.3101    1.6381 H   0  0  0  0  0  0  0  0  0  0  0  0
  1  2  1  0
  2  3  1  0
  3  4  2  0
  4  5  1  0
  5  6  2  0
  6  7  1  0
  7  8  2  0
  8  9  1  0
  9 10  1  0
  6 11  1  0
 11 12  1  0
 12 13  1  0
 13 14  2  0
 14 15  1  0
 15 16  1  0
 16 17  2  0
 17 18  1  0
 18 19  2  0
 19 20  1  0
 20 21  2  0
 11 22  1  0
 22 23  1  0
 23 24  2  0
 23 25  1  0
 25 26  2  0
 26 27  1  0
 27 28  2  0
 28 29  1  0
 29 30  2  0
 29 31  1  0
 31 32  1  0
 31 33  2  0
  8  3  1  0
 21 13  1  0
 30 25  1  0
 21 16  1  0
  1 34  1  0
  1 35  1  0
  1 36  1  0
  4 37  1  0
  5 38  1  0
  7 39  1  0
 10 40  1  0
 10 41  1  0
 10 42  1  0
 11 43  1  6
 12 44  1  0
 12 45  1  0
 14 46  1  0
 15 47  1  0
 17 48  1  0
 18 49  1  0
 19 50  1  0
 20 51  1  0
 22 52  1  0
 26 53  1  0
 27 54  1  0
 28 55  1  0
 30 56  1  0
 32 57  1  0
M  END
$$$$
[H]c1c([H])c([H])c(C(=O)N2C([H])([H])C([H])([H])N(C(=O)c3nc4c([H])c(-c5c([H])c([H])c(S(=O)(=O)N([H])[H])c([H])c5[H])c([H])c([H])c4n3[H])C([H])([H])C2([H])[H])c([H])c1[H]
     RDKit          3D

 58 62  0  0  0  0  0  0  0  0999 V2000
   11.1490    0.4398    0.3967 N   0  0  0  0  0  0  0  0  0  0  0  0
   10.3015   -0.8263   -0.4155 S   0  0  0  0  0  0  0  0  0  0  0  0
   10.7118   -2.1767    0.0577 O   0  0  0  0  0  0  0  0  0  0  0  0
   10.5905   -0.7252   -1.8856 O   0  0  0  0  0  0  0  0  0  0  0  0
    8.5752   -0.6449   -0.1581 C   0  0  0  0  0  0  0  0  0  0  0  0
    7.9290   -1.2327    0.9093 C   0  0  0  0  0  0  0  0  0  0  0  0
    6.5703   -1.0694    1.0821 C   0  0  0  0  0  0  0  0  0  0  0  0
    5.8079   -0.3226    0.2093 C   0  0  0  0  0  0  0  0  0  0  0  0
    6.4473    0.2653   -0.8563 C   0  0  0  0  0  0  0  0  0  0  0  0
    7.8058    0.0934   -1.0164 C   0  0  0  0  0  0  0  0  0  0  0  0
    4.3558   -0.1636    0.4211 C   0  0  0  0  0  0  0  0  0  0  0  0
    3.8412   -0.1470    1.6973 C   0  0  0  0  0  0  0  0  0  0  0  0
    2.4718    0.0033    1.8888 C   0  0  0  0  0  0  0  0  0  0  0  0
    1.6093    0.1374    0.8229 C   0  0  0  0  0  0  0  0  0  0  0  0
    0.2525    0.2956    0.7277 N   0  0  0  0  0  0  0  0  0  0  0  0
   -0.0611    0.3748   -0.5578 C   0  0  0  0  0  0  0  0  0  0  0  0
    1.0966    0.2665   -1.2994 N   0  0  0  0  0  0  0  0  0  0  0  0
    2.1098    0.1221   -0.4477 C   0  0  0  0  0  0  0  0  0  0  0  0
    3.4922   -0.0297   -0.6411 C   0  0  0  0  0  0  0  0  0  0  0  0
   -1.3599    0.5647   -1.1804 C   0  0  0  0  0  0  0  0  0  0  0  0
   -1.3644    0.5510   -2.5043 O   0  0  0  0  0  0  0  0  0  0  0  0
   -2.6077    0.7585   -0.6052 N   0  0  0  0  0  0  0  0  0  0  0  0
   -2.9842    0.8728    0.7704 C   0  0  0  0  0  0  0  0  0  0  0  0
   -3.7068   -0.4461    1.1137 C   0  0  0  0  0  0  0  0  0  0  0  0
   -4.8956   -0.3803    0.1885 N   0  0  0  0  0  0  0  0  0  0  0  0
   -4.5440   -0.4613   -1.1795 C   0  0  0  0  0  0  0  0  0  0  0  0
   -3.7968    0.8176   -1.5306 C   0  0  0  0  0  0  0  0  0  0  0  0
   -6.1214   -0.3030    0.8022 C   0  0  0  0  0  0  0  0  0  0  0  0
   -6.1725   -0.3725    2.1158 O   0  0  0  0  0  0  0  0  0  0  0  0
   -7.4237   -0.1504    0.1883 C   0  0  0  0  0  0  0  0  0  0  0  0
   -7.6780    0.2338   -1.0929 C   0  0  0  0  0  0  0  0  0  0  0  0
   -8.9616    0.2752   -1.5888 C   0  0  0  0  0  0  0  0  0  0  0  0
  -10.0584   -0.0624   -0.8323 C   0  0  0  0  0  0  0  0  0  0  0  0
   -9.8195   -0.4501    0.4628 C   0  0  0  0  0  0  0  0  0  0  0  0
   -8.5499   -0.4914    0.9510 C   0  0  0  0  0  0  0  0  0  0  0  0
   10.5307    1.2456    0.6207 H   0  0  0  0  0  0  0  0  0  0  0  0
   11.6843    0.0940    1.2205 H   0  0  0  0  0  0  0  0  0  0  0  0
    8.5342   -1.8215    1.5966 H   0  0  0  0  0  0  0  0  0  0  0  0
    6.0511   -1.5259    1.9155 H   0  0  0  0  0  0  0  0  0  0  0  0
    5.8841    0.8492   -1.5486 H   0  0  0  0  0  0  0  0  0  0  0  0
    8.3149    0.5563   -1.8565 H   0  0  0  0  0  0  0  0  0  0  0  0
    4.4981   -0.2503    2.5496 H   0  0  0  0  0  0  0  0  0  0  0  0
    2.0493    0.0186    2.8885 H   0  0  0  0  0  0  0  0  0  0  0  0
   -0.3416    0.3224    1.5831 H   0  0  0  0  0  0  0  0  0  0  0  0
    3.8987   -0.0435   -1.6288 H   0  0  0  0  0  0  0  0  0  0  0  0
   -3.8219    1.6717    0.7909 H   0  0  0  0  0  0  0  0  0  0  0  0
   -2.2699    1.1955    1.4930 H   0  0  0  0  0  0  0  0  0  0  0  0
   -4.0115   -0.5075    2.1493 H   0  0  0  0  0  0  0  0  0  0  0  0
   -3.0863   -1.2574    0.7164 H   0  0  0  0  0  0  0  0  0  0  0  0
   -5.2789   -0.7914   -1.9008 H   0  0  0  0  0  0  0  0  0  0  0  0
   -3.7053   -1.2509   -1.2239 H   0  0  0  0  0  0  0  0  0  0  0  0
   -4.3449    1.7327   -1.2932 H   0  0  0  0  0  0  0  0  0  0  0  0
   -3.4081    0.7711   -2.5527 H   0  0  0  0  0  0  0  0  0  0  0  0
   -6.8968    0.5558   -1.7386 H   0  0  0  0  0  0  0  0  0  0  0  0
   -9.1292    0.5894   -2.6292 H   0  0  0  0  0  0  0  0  0  0  0  0
  -11.0673   -0.0308   -1.2188 H   0  0  0  0  0  0  0  0  0  0  0  0
  -10.6915   -0.7224    1.0799 H   0  0  0  0  0  0  0  0  0  0  0  0
   -8.4042   -0.8038    1.9733 H   0  0  0  0  0  0  0  0  0  0  0  0
  1  2  1  0
  2  3  2  0
  2  4  2  0
  2  5  1  0
  5  6  2  0
  6  7  1  0
  7  8  2  0
  8  9  1  0
  9 10  2  0
  8 11  1  0
 11 12  2  0
 12 13  1  0
 13 14  2  0
 14 15  1  0
 15 16  1  0
 16 17  2  0
 17 18  1  0
 18 19  2  0
 16 20  1  0
 20 21  2  0
 20 22  1  0
 22 23  1  0
 23 24  1  0
 24 25  1  0
 25 26  1  0
 26 27  1  0
 25 28  1  0
 28 29  2  0
 28 30  1  0
 30 31  2  0
 31 32  1  0
 32 33  2  0
 33 34  1  0
 34 35  2  0
 10  5  1  0
 19 11  1  0
 27 22  1  0
 35 30  1  0
 18 14  1  0
  1 36  1  0
  1 37  1  0
  6 38  1  0
  7 39  1  0
  9 40  1  0
 10 41  1  0
 12 42  1  0
 13 43  1  0
 15 44  1  0
 19 45  1  0
 23 46  1  0
 23 47  1  0
 24 48  1  0
 24 49  1  0
 26 50  1  0
 26 51  1  0
 27 52  1  0
 27 53  1  0
 31 54  1  0
 32 55  1  0
 33 56  1  0
 34 57  1  0
 35 58  1  0
M  END
$$$$
[H]c1c([H])c(OC([H])([H])[H])c([H])c(C(=O)N([H])c2c([H])c([H])c(OC([H])([H])[H])c(C(=O)N([H])c3c([H])c([H])c(OC([H])([H])[H])c(OC([H])([H])[H])c3[H])c2[H])c1F
     RDKit          3D

 56 58  0  0  0  0  0  0  0  0999 V2000
   -5.9519    4.2973    1.2148 C   0  0  0  0  0  0  0  0  0  0  0  0
   -6.9974    3.5656    0.5765 O   0  0  0  0  0  0  0  0  0  0  0  0
   -6.7214    2.2823    0.1183 C   0  0  0  0  0  0  0  0  0  0  0  0
   -7.7424    1.5920   -0.4948 C   0  0  0  0  0  0  0  0  0  0  0  0
   -7.5210    0.3158   -0.9675 C   0  0  0  0  0  0  0  0  0  0  0  0
   -6.2593   -0.2764   -0.8236 C   0  0  0  0  0  0  0  0  0  0  0  0
   -6.1648   -1.5153   -1.3410 F   0  0  0  0  0  0  0  0  0  0  0  0
   -5.2239    0.3829   -0.2183 C   0  0  0  0  0  0  0  0  0  0  0  0
   -5.5128    1.6771    0.2404 C   0  0  0  0  0  0  0  0  0  0  0  0
   -3.8995   -0.1719   -0.0099 C   0  0  0  0  0  0  0  0  0  0  0  0
   -3.0028    0.6832    0.3053 O   0  0  0  0  0  0  0  0  0  0  0  0
   -3.4994   -1.5050   -0.1096 N   0  0  0  0  0  0  0  0  0  0  0  0
   -2.1770   -1.9740    0.0936 C   0  0  0  0  0  0  0  0  0  0  0  0
   -2.0382   -3.2922    0.5566 C   0  0  0  0  0  0  0  0  0  0  0  0
   -0.8049   -3.8497    0.7566 C   0  0  0  0  0  0  0  0  0  0  0  0
    0.3246   -3.0583    0.4831 C   0  0  0  0  0  0  0  0  0  0  0  0
    1.5239   -3.6737    0.7038 O   0  0  0  0  0  0  0  0  0  0  0  0
    1.7052   -4.9772    1.1624 C   0  0  0  0  0  0  0  0  0  0  0  0
    0.2446   -1.7750    0.0322 C   0  0  0  0  0  0  0  0  0  0  0  0
   -1.0586   -1.2316   -0.1636 C   0  0  0  0  0  0  0  0  0  0  0  0
    1.3771   -0.9480   -0.2536 C   0  0  0  0  0  0  0  0  0  0  0  0
    1.1278    0.2376   -0.6699 O   0  0  0  0  0  0  0  0  0  0  0  0
    2.7190   -1.2825   -0.1316 N   0  0  0  0  0  0  0  0  0  0  0  0
    3.8397   -0.4244   -0.4151 C   0  0  0  0  0  0  0  0  0  0  0  0
    5.0727   -0.9715   -0.7652 C   0  0  0  0  0  0  0  0  0  0  0  0
    6.1727   -0.1826   -1.0149 C   0  0  0  0  0  0  0  0  0  0  0  0
    6.0984    1.2012   -0.9276 C   0  0  0  0  0  0  0  0  0  0  0  0
    7.1948    2.0149   -1.1756 O   0  0  0  0  0  0  0  0  0  0  0  0
    8.4123    1.3854   -1.5261 C   0  0  0  0  0  0  0  0  0  0  0  0
    4.8900    1.7437   -0.5838 C   0  0  0  0  0  0  0  0  0  0  0  0
    4.8138    3.1325   -0.4957 O   0  0  0  0  0  0  0  0  0  0  0  0
    3.5974    3.7404   -0.1466 C   0  0  0  0  0  0  0  0  0  0  0  0
    3.7677    0.9341   -0.3288 C   0  0  0  0  0  0  0  0  0  0  0  0
   -5.0346    4.2636    0.5888 H   0  0  0  0  0  0  0  0  0  0  0  0
   -5.7245    3.7888    2.1738 H   0  0  0  0  0  0  0  0  0  0  0  0
   -6.2503    5.3184    1.4494 H   0  0  0  0  0  0  0  0  0  0  0  0
   -8.7245    2.0279   -0.6174 H   0  0  0  0  0  0  0  0  0  0  0  0
   -8.3148   -0.2256   -1.4460 H   0  0  0  0  0  0  0  0  0  0  0  0
   -4.7294    2.2514    0.7300 H   0  0  0  0  0  0  0  0  0  0  0  0
   -4.2273   -2.2343   -0.3490 H   0  0  0  0  0  0  0  0  0  0  0  0
   -2.9633   -3.8247    0.7422 H   0  0  0  0  0  0  0  0  0  0  0  0
   -0.7217   -4.8571    1.1101 H   0  0  0  0  0  0  0  0  0  0  0  0
    1.4886   -5.7468    0.3913 H   0  0  0  0  0  0  0  0  0  0  0  0
    1.0538   -5.2248    2.0390 H   0  0  0  0  0  0  0  0  0  0  0  0
    2.7413   -5.1671    1.5099 H   0  0  0  0  0  0  0  0  0  0  0  0
   -1.1031   -0.2372   -0.5332 H   0  0  0  0  0  0  0  0  0  0  0  0
    3.0578   -2.2458    0.2004 H   0  0  0  0  0  0  0  0  0  0  0  0
    5.1571   -2.0331   -0.8392 H   0  0  0  0  0  0  0  0  0  0  0  0
    7.1381   -0.6176   -1.2893 H   0  0  0  0  0  0  0  0  0  0  0  0
    8.6628    0.6438   -0.7176 H   0  0  0  0  0  0  0  0  0  0  0  0
    9.2003    2.1398   -1.6554 H   0  0  0  0  0  0  0  0  0  0  0  0
    8.2889    0.7870   -2.4589 H   0  0  0  0  0  0  0  0  0  0  0  0
    2.7845    3.4481   -0.8492 H   0  0  0  0  0  0  0  0  0  0  0  0
    3.3108    3.3280    0.8576 H   0  0  0  0  0  0  0  0  0  0  0  0
    3.7060    4.8341   -0.1180 H   0  0  0  0  0  0  0  0  0  0  0  0
    2.8972    1.5067   -0.0534 H   0  0  0  0  0  0  0  0  0  0  0  0
  1  2  1  0
  2  3  1  0
  3  4  2  0
  4  5  1  0
  5  6  2  0
  6  7  1  0
  6  8  1  0
  8  9  2  0
  8 10  1  0
 10 11  2  0
 10 12  1  0
 12 13  1  0
 13 14  2  0
 14 15  1  0
 15 16  2  0
 16 17  1  0
 17 18  1  0
 16 19  1  0
 19 20  2  0
 19 21  1  0
 21 22  2  0
 21 23  1  0
 23 24  1  0
 24 25  2  0
 25 26  1  0
 26 27  2  0
 27 28  1  0
 28 29  1  0
 27 30  1  0
 30 31  1  0
 31 32  1  0
 30 33  2  0
  9  3  1  0
 20 13  1  0
 33 24  1  0
  1 34  1  0
  1 35  1  0
  1 36  1  0
  4 37  1  0
  5 38  1  0
  9 39  1  0
 12 40  1  0
 14 41  1  0
 15 42  1  0
 18 43  1  0
 18 44  1  0
 18 45  1  0
 20 46  1  0
 23 47  1  0
 25 48  1  0
 26 49  1  0
 29 50  1  0
 29 51  1  0
 29 52  1  0
 32 53  1  0
 32 54  1  0
 32 55  1  0
 33 56  1  0
M  END
$$$$
[H]c1nc(C(F)(F)F)c([H])c(C(=O)N([H])c2c([H])c([H])c(C([H])([H])[H])c(C(=O)N([H])c3c([H])c([H])c([H])c(C(=O)N4C([H])([H])C([H])([H])OC([H])([H])C4([H])[H])c3[H])c2[H])c1[H]
     RDKit          3D

 60 63  0  0  0  0  0  0  0  0999 V2000
    0.1450   -2.4260    2.1697 C   0  0  0  0  0  0  0  0  0  0  0  0
    1.3980   -1.9221    1.5423 C   0  0  0  0  0  0  0  0  0  0  0  0
    2.6138   -2.4102    1.9290 C   0  0  0  0  0  0  0  0  0  0  0  0
    3.7770   -1.9750    1.3258 C   0  0  0  0  0  0  0  0  0  0  0  0
    3.7665   -1.0134    0.2894 C   0  0  0  0  0  0  0  0  0  0  0  0
    5.0131   -0.6378   -0.2638 N   0  0  0  0  0  0  0  0  0  0  0  0
    5.2908    0.5458   -0.9496 C   0  0  0  0  0  0  0  0  0  0  0  0
    4.4323    1.4242   -1.1530 O   0  0  0  0  0  0  0  0  0  0  0  0
    6.6377    0.7873   -1.4595 C   0  0  0  0  0  0  0  0  0  0  0  0
    6.8660    1.1246   -2.7685 C   0  0  0  0  0  0  0  0  0  0  0  0
    8.1687    1.3668   -3.2121 C   0  0  0  0  0  0  0  0  0  0  0  0
    9.2079    1.2710   -2.3577 N   0  0  0  0  0  0  0  0  0  0  0  0
    9.0036    0.9372   -1.0605 C   0  0  0  0  0  0  0  0  0  0  0  0
    7.7089    0.6939   -0.6081 C   0  0  0  0  0  0  0  0  0  0  0  0
   10.1090    0.8311   -0.0768 C   0  0  0  0  0  0  0  0  0  0  0  0
   10.7865    2.0507   -0.1203 F   0  0  0  0  0  0  0  0  0  0  0  0
    9.6066    0.6899    1.2015 F   0  0  0  0  0  0  0  0  0  0  0  0
   10.9153   -0.2102   -0.4340 F   0  0  0  0  0  0  0  0  0  0  0  0
    2.5479   -0.5327   -0.0884 C   0  0  0  0  0  0  0  0  0  0  0  0
    1.3761   -0.9649    0.5136 C   0  0  0  0  0  0  0  0  0  0  0  0
    0.0817   -0.4021    0.1732 C   0  0  0  0  0  0  0  0  0  0  0  0
   -0.3379   -0.4655   -0.9946 O   0  0  0  0  0  0  0  0  0  0  0  0
   -0.6943    0.2161    1.1657 N   0  0  0  0  0  0  0  0  0  0  0  0
   -1.9871    0.7793    1.0096 C   0  0  0  0  0  0  0  0  0  0  0  0
   -2.2260    2.0250    1.5630 C   0  0  0  0  0  0  0  0  0  0  0  0
   -3.4855    2.5636    1.4873 C   0  0  0  0  0  0  0  0  0  0  0  0
   -4.4847    1.8400    0.8581 C   0  0  0  0  0  0  0  0  0  0  0  0
   -4.3153    0.6095    0.2966 C   0  0  0  0  0  0  0  0  0  0  0  0
   -3.0057    0.0956    0.3935 C   0  0  0  0  0  0  0  0  0  0  0  0
   -5.3701   -0.1826   -0.2444 C   0  0  0  0  0  0  0  0  0  0  0  0
   -4.9569   -1.1905   -0.9916 O   0  0  0  0  0  0  0  0  0  0  0  0
   -6.7563   -0.1221   -0.1444 N   0  0  0  0  0  0  0  0  0  0  0  0
   -7.5982    0.7715    0.6092 C   0  0  0  0  0  0  0  0  0  0  0  0
   -8.3906    1.5680   -0.4334 C   0  0  0  0  0  0  0  0  0  0  0  0
   -9.1754    0.6270   -1.1139 O   0  0  0  0  0  0  0  0  0  0  0  0
   -8.4042   -0.2599   -1.8739 C   0  0  0  0  0  0  0  0  0  0  0  0
   -7.5833   -1.1025   -0.9299 C   0  0  0  0  0  0  0  0  0  0  0  0
   -0.6939   -2.3249    1.4768 H   0  0  0  0  0  0  0  0  0  0  0  0
    0.2447   -3.5224    2.4001 H   0  0  0  0  0  0  0  0  0  0  0  0
   -0.0515   -1.8395    3.0766 H   0  0  0  0  0  0  0  0  0  0  0  0
    2.6560   -3.1652    2.7316 H   0  0  0  0  0  0  0  0  0  0  0  0
    4.7406   -2.3541    1.6213 H   0  0  0  0  0  0  0  0  0  0  0  0
    5.8259   -1.3386   -0.1449 H   0  0  0  0  0  0  0  0  0  0  0  0
    6.0615    1.2141   -3.4950 H   0  0  0  0  0  0  0  0  0  0  0  0
    8.3804    1.6317   -4.2347 H   0  0  0  0  0  0  0  0  0  0  0  0
    7.5813    0.4289    0.4361 H   0  0  0  0  0  0  0  0  0  0  0  0
    2.4906    0.1966   -0.8914 H   0  0  0  0  0  0  0  0  0  0  0  0
   -0.2699    0.2886    2.1431 H   0  0  0  0  0  0  0  0  0  0  0  0
   -1.4007    2.5507    2.0523 H   0  0  0  0  0  0  0  0  0  0  0  0
   -3.6154    3.5364    1.9310 H   0  0  0  0  0  0  0  0  0  0  0  0
   -5.4333    2.3561    0.8042 H   0  0  0  0  0  0  0  0  0  0  0  0
   -2.8547   -0.8860   -0.0509 H   0  0  0  0  0  0  0  0  0  0  0  0
   -7.1758    1.3371    1.4098 H   0  0  0  0  0  0  0  0  0  0  0  0
   -8.3820    0.0747    1.0865 H   0  0  0  0  0  0  0  0  0  0  0  0
   -7.7174    2.0866   -1.1139 H   0  0  0  0  0  0  0  0  0  0  0  0
   -9.0743    2.2225    0.1031 H   0  0  0  0  0  0  0  0  0  0  0  0
   -9.1092   -0.8542   -2.4984 H   0  0  0  0  0  0  0  0  0  0  0  0
   -7.6754    0.3027   -2.5081 H   0  0  0  0  0  0  0  0  0  0  0  0
   -8.2729   -1.5465   -0.1778 H   0  0  0  0  0  0  0  0  0  0  0  0
   -6.9353   -1.8337   -1.4064 H   0  0  0  0  0  0  0  0  0  0  0  0
  1  2  1  0
  2  3  2  0
  3  4  1  0
  4  5  2  0
  5  6  1  0
  6  7  1  0
  7  8  2  0
  7  9  1  0
  9 10  2  0
 10 11  1  0
 11 12  2  0
 12 13  1  0
 13 14  2  0
 13 15  1  0
 15 16  1  0
 15 17  1  0
 15 18  1  0
  5 19  1  0
 19 20  2  0
 20 21  1  0
 21 22  2  0
 21 23  1  0
 23 24  1  0
 24 25  2  0
 25 26  1  0
 26 27  2  0
 27 28  1  0
 28 29  2  0
 28 30  1  0
 30 31  2  0
 30 32  1  0
 32 33  1  0
 33 34  1  0
 34 35  1  0
 35 36  1  0
 36 37  1  0
 20  2  1  0
 29 24  1  0
 37 32  1  0
 14  9  1  0
  1 38  1  0
  1 39  1  0
  1 40  1  0
  3 41  1  0
  4 42  1  0
  6 43  1  0
 10 44  1  0
 11 45  1  0
 14 46  1  0
 19 47  1  0
 23 48  1  0
 25 49  1  0
 26 50  1  0
 27 51  1  0
 29 52  1  0
 33 53  1  0
 33 54  1  0
 34 55  1  0
 34 56  1  0
 36 57  1  0
 36 58  1  0
 37 59  1  0
 37 60  1  0
M  END
$$$$
[H]OC(=O)[C@@]([H])(N([H])C(=O)[C@@]([H])(N([H])C(=O)c1c([H])c([H])c(O[H])c(F)c1[H])[C@]([H])(C([H])([H])[H])C([H])([H])C([H])([H])[H])C([H])([H])c1c([H])n([H])c2c([H])c([H])c([H])c([H])c12
     RDKit          3D

 59 61  0  0  0  0  0  0  0  0999 V2000
   -1.1441   -4.0370    0.5541 C   0  0  0  0  0  0  0  0  0  0  0  0
   -0.7062   -3.1992   -0.6334 C   0  0  0  0  0  0  0  0  0  0  0  0
   -1.6347   -2.0684   -0.8303 C   0  0  1  0  0  0  0  0  0  0  0  0
   -3.0222   -2.6237   -1.0835 C   0  0  0  0  0  0  0  0  0  0  0  0
   -1.6598   -1.0008    0.2485 C   0  0  2  0  0  0  0  0  0  0  0  0
   -2.6822   -0.0056   -0.1880 N   0  0  0  0  0  0  0  0  0  0  0  0
   -3.8002    0.2410    0.6367 C   0  0  0  0  0  0  0  0  0  0  0  0
   -3.9241   -0.3904    1.7465 O   0  0  0  0  0  0  0  0  0  0  0  0
   -4.8454    1.1764    0.3173 C   0  0  0  0  0  0  0  0  0  0  0  0
   -5.9567    1.3644    1.1425 C   0  0  0  0  0  0  0  0  0  0  0  0
   -6.9606    2.2573    0.8448 C   0  0  0  0  0  0  0  0  0  0  0  0
   -6.8896    3.0005   -0.2974 C   0  0  0  0  0  0  0  0  0  0  0  0
   -7.8920    3.9204   -0.6353 O   0  0  0  0  0  0  0  0  0  0  0  0
   -5.8026    2.8470   -1.1481 C   0  0  0  0  0  0  0  0  0  0  0  0
   -5.6858    3.5576   -2.2886 F   0  0  0  0  0  0  0  0  0  0  0  0
   -4.8105    1.9446   -0.8250 C   0  0  0  0  0  0  0  0  0  0  0  0
   -0.3385   -0.3386    0.2810 C   0  0  0  0  0  0  0  0  0  0  0  0
   -0.2835    0.8237   -0.2397 O   0  0  0  0  0  0  0  0  0  0  0  0
    0.8551   -0.8478    0.8243 N   0  0  0  0  0  0  0  0  0  0  0  0
    2.1154   -0.1086    0.7941 C   0  0  1  0  0  0  0  0  0  0  0  0
    2.6049    0.1176   -0.5881 C   0  0  0  0  0  0  0  0  0  0  0  0
    3.8821    0.8625   -0.5852 C   0  0  0  0  0  0  0  0  0  0  0  0
    4.0795    2.2008   -0.9376 C   0  0  0  0  0  0  0  0  0  0  0  0
    5.3699    2.4678   -0.8153 N   0  0  0  0  0  0  0  0  0  0  0  0
    6.0394    1.3777   -0.4007 C   0  0  0  0  0  0  0  0  0  0  0  0
    7.3900    1.1748   -0.1368 C   0  0  0  0  0  0  0  0  0  0  0  0
    7.7960   -0.0737    0.2801 C   0  0  0  0  0  0  0  0  0  0  0  0
    6.9100   -1.1188    0.4419 C   0  0  0  0  0  0  0  0  0  0  0  0
    5.5547   -0.8907    0.1704 C   0  0  0  0  0  0  0  0  0  0  0  0
    5.1363    0.3480   -0.2454 C   0  0  0  0  0  0  0  0  0  0  0  0
    2.0531    1.0792    1.6625 C   0  0  0  0  0  0  0  0  0  0  0  0
    3.0855    1.9662    1.8914 O   0  0  0  0  0  0  0  0  0  0  0  0
    0.9683    1.3575    2.2851 O   0  0  0  0  0  0  0  0  0  0  0  0
   -1.7339   -3.4061    1.2821 H   0  0  0  0  0  0  0  0  0  0  0  0
   -0.2912   -4.4257    1.1405 H   0  0  0  0  0  0  0  0  0  0  0  0
   -1.8288   -4.8138    0.1793 H   0  0  0  0  0  0  0  0  0  0  0  0
   -0.8188   -3.8424   -1.5782 H   0  0  0  0  0  0  0  0  0  0  0  0
    0.3745   -2.9664   -0.6407 H   0  0  0  0  0  0  0  0  0  0  0  0
   -1.3534   -1.5610   -1.8020 H   0  0  0  0  0  0  0  0  0  0  0  0
   -3.6379   -1.9009   -1.6511 H   0  0  0  0  0  0  0  0  0  0  0  0
   -2.8798   -3.5130   -1.7431 H   0  0  0  0  0  0  0  0  0  0  0  0
   -3.5038   -2.9959   -0.1662 H   0  0  0  0  0  0  0  0  0  0  0  0
   -1.9933   -1.3845    1.2235 H   0  0  0  0  0  0  0  0  0  0  0  0
   -2.5675    0.4943   -1.0851 H   0  0  0  0  0  0  0  0  0  0  0  0
   -6.0139    0.7706    2.0552 H   0  0  0  0  0  0  0  0  0  0  0  0
   -7.8166    2.3825    1.5086 H   0  0  0  0  0  0  0  0  0  0  0  0
   -7.8235    4.4551   -1.4745 H   0  0  0  0  0  0  0  0  0  0  0  0
   -3.9829    1.8562   -1.5133 H   0  0  0  0  0  0  0  0  0  0  0  0
    0.8240   -1.7827    1.2841 H   0  0  0  0  0  0  0  0  0  0  0  0
    2.8774   -0.7881    1.2829 H   0  0  0  0  0  0  0  0  0  0  0  0
    1.9180    0.7012   -1.2474 H   0  0  0  0  0  0  0  0  0  0  0  0
    2.8431   -0.8720   -1.0885 H   0  0  0  0  0  0  0  0  0  0  0  0
    3.2492    2.8400   -1.2484 H   0  0  0  0  0  0  0  0  0  0  0  0
    5.8013    3.3993   -1.0153 H   0  0  0  0  0  0  0  0  0  0  0  0
    8.0600    2.0074   -0.2716 H   0  0  0  0  0  0  0  0  0  0  0  0
    8.8487   -0.2496    0.4909 H   0  0  0  0  0  0  0  0  0  0  0  0
    7.2135   -2.1130    0.7699 H   0  0  0  0  0  0  0  0  0  0  0  0
    4.8397   -1.6761    0.2810 H   0  0  0  0  0  0  0  0  0  0  0  0
    3.5943    2.0024    2.7839 H   0  0  0  0  0  0  0  0  0  0  0  0
  1  2  1  0
  2  3  1  0
  3  4  1  0
  3  5  1  0
  5  6  1  0
  6  7  1  0
  7  8  2  0
  7  9  1  0
  9 10  2  0
 10 11  1  0
 11 12  2  0
 12 13  1  0
 12 14  1  0
 14 15  1  0
 14 16  2  0
  5 17  1  0
 17 18  2  0
 17 19  1  0
 19 20  1  0
 20 21  1  0
 21 22  1  0
 22 23  2  0
 23 24  1  0
 24 25  1  0
 25 26  2  0
 26 27  1  0
 27 28  2  0
 28 29  1  0
 29 30  2  0
 20 31  1  0
 31 32  1  0
 31 33  2  0
 16  9  1  0
 30 22  1  0
 30 25  1  0
  1 34  1  0
  1 35  1  0
  1 36  1  0
  2 37  1  0
  2 38  1  0
  3 39  1  6
  4 40  1  0
  4 41  1  0
  4 42  1  0
  5 43  1  1
  6 44  1  0
 10 45  1  0
 11 46  1  0
 13 47  1  0
 16 48  1  0
 19 49  1  0
 20 50  1  1
 21 51  1  0
 21 52  1  0
 23 53  1  0
 24 54  1  0
 26 55  1  0
 27 56  1  0
 28 57  1  0
 29 58  1  0
 32 59  1  0
M  END
$$$$
[H]OC(=O)[C@@]([H])(N([H])C(=O)[C@@]([H])(N([H])C(=O)[C@@]([H])(N([H])C(=O)[C@@]([H])(N([H])C(=O)[C@@]([H])(N([H])[H])C([H])([H])c1c([H])c([H])c([H])c([H])c1[H])C([H])(C([H])([H])[H])C([H])([H])[H])C([H])([H])C([H])([H])C([H])([H])C([H])([H])N([H])[H])C([H])([H])c1c([H])n([H])c2c([H])c([H])c([H])c([H])c12)C([H])([H])c1c([H])c([H])c([H])c([H])c1[H]
     RDKit          3D

104107  0  0  0  0  0  0  0  0999 V2000
    1.4870   -0.3272    3.4535 C   0  0  0  0  0  0  0  0  0  0  0  0
    1.9466   -1.7059    3.1152 C   0  0  0  0  0  0  0  0  0  0  0  0
    1.0012   -2.8136    3.4330 C   0  0  0  0  0  0  0  0  0  0  0  0
    2.5646   -1.8324    1.7610 C   0  0  2  0  0  0  0  0  0  0  0  0
    3.7625   -0.9501    1.8304 N   0  0  0  0  0  0  0  0  0  0  0  0
    5.0533   -1.3832    1.4595 C   0  0  0  0  0  0  0  0  0  0  0  0
    5.1400   -2.5803    1.0109 O   0  0  0  0  0  0  0  0  0  0  0  0
    6.2575   -0.5866    1.5615 C   0  0  1  0  0  0  0  0  0  0  0  0
    7.3867   -1.3098    0.9565 N   0  0  0  0  0  0  0  0  0  0  0  0
    6.3057    0.8170    1.1506 C   0  0  0  0  0  0  0  0  0  0  0  0
    6.0480    1.1761   -0.2315 C   0  0  0  0  0  0  0  0  0  0  0  0
    4.8033    1.5589   -0.6780 C   0  0  0  0  0  0  0  0  0  0  0  0
    4.5717    1.8998   -1.9900 C   0  0  0  0  0  0  0  0  0  0  0  0
    5.5764    1.8782   -2.9405 C   0  0  0  0  0  0  0  0  0  0  0  0
    6.8471    1.4920   -2.5060 C   0  0  0  0  0  0  0  0  0  0  0  0
    7.0366    1.1610   -1.1956 C   0  0  0  0  0  0  0  0  0  0  0  0
    1.7560   -1.5308    0.6003 C   0  0  0  0  0  0  0  0  0  0  0  0
    2.1863   -0.6816   -0.2460 O   0  0  0  0  0  0  0  0  0  0  0  0
    0.4993   -2.0872    0.2817 N   0  0  0  0  0  0  0  0  0  0  0  0
   -0.2361   -1.7449   -0.9084 C   0  0  1  0  0  0  0  0  0  0  0  0
   -0.9893   -2.7362   -1.6427 C   0  0  0  0  0  0  0  0  0  0  0  0
   -0.3136   -3.9205   -2.2285 C   0  0  0  0  0  0  0  0  0  0  0  0
    0.2952   -4.8570   -1.2283 C   0  0  0  0  0  0  0  0  0  0  0  0
   -0.7826   -5.4002   -0.2975 C   0  0  0  0  0  0  0  0  0  0  0  0
   -1.7546   -6.0885   -1.1127 N   0  0  0  0  0  0  0  0  0  0  0  0
   -0.9581   -0.4550   -0.7673 C   0  0  0  0  0  0  0  0  0  0  0  0
   -0.4366    0.5257   -0.1530 O   0  0  0  0  0  0  0  0  0  0  0  0
   -2.2385   -0.2597   -1.3041 N   0  0  0  0  0  0  0  0  0  0  0  0
   -2.9056    1.0569   -1.1661 C   0  0  1  0  0  0  0  0  0  0  0  0
   -3.4386    1.3570   -2.5492 C   0  0  0  0  0  0  0  0  0  0  0  0
   -2.4629    1.4009   -3.6260 C   0  0  0  0  0  0  0  0  0  0  0  0
   -2.3045    0.3623   -4.5667 C   0  0  0  0  0  0  0  0  0  0  0  0
   -1.3429    0.6964   -5.4449 N   0  0  0  0  0  0  0  0  0  0  0  0
   -0.8453    1.9166   -5.1385 C   0  0  0  0  0  0  0  0  0  0  0  0
    0.1210    2.6940   -5.7122 C   0  0  0  0  0  0  0  0  0  0  0  0
    0.4250    3.9222   -5.1860 C   0  0  0  0  0  0  0  0  0  0  0  0
   -0.2832    4.3460   -4.0525 C   0  0  0  0  0  0  0  0  0  0  0  0
   -1.2538    3.5843   -3.4611 C   0  0  0  0  0  0  0  0  0  0  0  0
   -1.5507    2.3428   -4.0051 C   0  0  0  0  0  0  0  0  0  0  0  0
   -4.1607    0.9158   -0.3302 C   0  0  0  0  0  0  0  0  0  0  0  0
   -4.8417   -0.1291   -0.5576 O   0  0  0  0  0  0  0  0  0  0  0  0
   -4.5283    1.8800    0.6109 N   0  0  0  0  0  0  0  0  0  0  0  0
   -5.6873    1.9175    1.4436 C   0  0  1  0  0  0  0  0  0  0  0  0
   -5.5634    1.1484    2.7155 C   0  0  0  0  0  0  0  0  0  0  0  0
   -4.4953    1.5020    3.6291 C   0  0  0  0  0  0  0  0  0  0  0  0
   -3.2477    0.8844    3.6402 C   0  0  0  0  0  0  0  0  0  0  0  0
   -2.2873    1.2308    4.5454 C   0  0  0  0  0  0  0  0  0  0  0  0
   -2.5406    2.2265    5.4911 C   0  0  0  0  0  0  0  0  0  0  0  0
   -3.7531    2.8423    5.4933 C   0  0  0  0  0  0  0  0  0  0  0  0
   -4.7390    2.5058    4.5857 C   0  0  0  0  0  0  0  0  0  0  0  0
   -6.2530    3.2715    1.5891 C   0  0  0  0  0  0  0  0  0  0  0  0
   -7.3569    3.6137    2.2982 O   0  0  0  0  0  0  0  0  0  0  0  0
   -5.6595    4.2516    0.9893 O   0  0  0  0  0  0  0  0  0  0  0  0
    2.2839    0.4177    3.5993 H   0  0  0  0  0  0  0  0  0  0  0  0
    0.8397   -0.3195    4.3771 H   0  0  0  0  0  0  0  0  0  0  0  0
    0.8169    0.0859    2.6443 H   0  0  0  0  0  0  0  0  0  0  0  0
    2.8082   -1.8751    3.8987 H   0  0  0  0  0  0  0  0  0  0  0  0
   -0.0674   -2.5610    3.2835 H   0  0  0  0  0  0  0  0  0  0  0  0
    1.2300   -3.6741    2.7459 H   0  0  0  0  0  0  0  0  0  0  0  0
    1.1666   -3.2546    4.4534 H   0  0  0  0  0  0  0  0  0  0  0  0
    3.0566   -2.8660    1.6474 H   0  0  0  0  0  0  0  0  0  0  0  0
    3.6135    0.0080    2.1666 H   0  0  0  0  0  0  0  0  0  0  0  0
    6.5380   -0.5962    2.6791 H   0  0  0  0  0  0  0  0  0  0  0  0
    7.7118   -2.0943    1.5801 H   0  0  0  0  0  0  0  0  0  0  0  0
    7.0560   -1.6411    0.0379 H   0  0  0  0  0  0  0  0  0  0  0  0
    5.6436    1.4572    1.8336 H   0  0  0  0  0  0  0  0  0  0  0  0
    7.3353    1.2255    1.4042 H   0  0  0  0  0  0  0  0  0  0  0  0
    3.9667    1.5968    0.0293 H   0  0  0  0  0  0  0  0  0  0  0  0
    3.5936    2.2051   -2.3736 H   0  0  0  0  0  0  0  0  0  0  0  0
    5.3912    2.1449   -3.9708 H   0  0  0  0  0  0  0  0  0  0  0  0
    7.6337    1.4731   -3.2511 H   0  0  0  0  0  0  0  0  0  0  0  0
    8.0588    0.8659   -0.9121 H   0  0  0  0  0  0  0  0  0  0  0  0
    0.1001   -2.7766    0.9554 H   0  0  0  0  0  0  0  0  0  0  0  0
    0.6296   -1.4107   -1.6321 H   0  0  0  0  0  0  0  0  0  0  0  0
   -1.8503   -3.1189   -1.0314 H   0  0  0  0  0  0  0  0  0  0  0  0
   -1.5405   -2.2650   -2.5375 H   0  0  0  0  0  0  0  0  0  0  0  0
   -1.0383   -4.5358   -2.8423 H   0  0  0  0  0  0  0  0  0  0  0  0
    0.4654   -3.6374   -2.9898 H   0  0  0  0  0  0  0  0  0  0  0  0
    0.7239   -5.7590   -1.7413 H   0  0  0  0  0  0  0  0  0  0  0  0
    1.0634   -4.3455   -0.6508 H   0  0  0  0  0  0  0  0  0  0  0  0
   -1.2793   -4.6108    0.2881 H   0  0  0  0  0  0  0  0  0  0  0  0
   -0.2950   -6.1047    0.3760 H   0  0  0  0  0  0  0  0  0  0  0  0
   -1.3871   -6.3751   -2.0362 H   0  0  0  0  0  0  0  0  0  0  0  0
   -2.6628   -5.5634   -1.1813 H   0  0  0  0  0  0  0  0  0  0  0  0
   -2.7554   -0.9860   -1.7929 H   0  0  0  0  0  0  0  0  0  0  0  0
   -2.2717    1.8188   -0.7389 H   0  0  0  0  0  0  0  0  0  0  0  0
   -4.2191    0.5646   -2.7362 H   0  0  0  0  0  0  0  0  0  0  0  0
   -4.0278    2.3110   -2.4612 H   0  0  0  0  0  0  0  0  0  0  0  0
   -2.8755   -0.5486   -4.5669 H   0  0  0  0  0  0  0  0  0  0  0  0
   -1.0007    0.1344   -6.2549 H   0  0  0  0  0  0  0  0  0  0  0  0
    0.6604    2.3479   -6.5894 H   0  0  0  0  0  0  0  0  0  0  0  0
    1.1988    4.5335   -5.6426 H   0  0  0  0  0  0  0  0  0  0  0  0
   -0.0067    5.3267   -3.6751 H   0  0  0  0  0  0  0  0  0  0  0  0
   -1.7982    3.9405   -2.5690 H   0  0  0  0  0  0  0  0  0  0  0  0
   -3.8541    2.7035    0.7188 H   0  0  0  0  0  0  0  0  0  0  0  0
   -6.4770    1.3200    0.8377 H   0  0  0  0  0  0  0  0  0  0  0  0
   -6.5547    1.2579    3.2601 H   0  0  0  0  0  0  0  0  0  0  0  0
   -5.5379    0.0528    2.4258 H   0  0  0  0  0  0  0  0  0  0  0  0
   -3.0566    0.1205    2.9199 H   0  0  0  0  0  0  0  0  0  0  0  0
   -1.3033    0.7733    4.5898 H   0  0  0  0  0  0  0  0  0  0  0  0
   -1.7475    2.4664    6.1875 H   0  0  0  0  0  0  0  0  0  0  0  0
   -3.9882    3.6234    6.2205 H   0  0  0  0  0  0  0  0  0  0  0  0
   -5.6791    3.0289    4.6318 H   0  0  0  0  0  0  0  0  0  0  0  0
   -8.1718    4.1163    1.9664 H   0  0  0  0  0  0  0  0  0  0  0  0
  1  2  1  0
  2  3  1  0
  2  4  1  0
  4  5  1  0
  5  6  1  0
  6  7  2  0
  6  8  1  0
  8  9  1  0
  8 10  1  0
 10 11  1  0
 11 12  2  0
 12 13  1  0
 13 14  2  0
 14 15  1  0
 15 16  2  0
  4 17  1  0
 17 18  2  0
 17 19  1  0
 19 20  1  0
 20 21  1  0
 21 22  1  0
 22 23  1  0
 23 24  1  0
 24 25  1  0
 20 26  1  0
 26 27  2  0
 26 28  1  0
 28 29  1  0
 29 30  1  0
 30 31  1  0
 31 32  2  0
 32 33  1  0
 33 34  1  0
 34 35  2  0
 35 36  1  0
 36 37  2  0
 37 38  1  0
 38 39  2  0
 29 40  1  0
 40 41  2  0
 40 42  1  0
 42 43  1  0
 43 44  1  0
 44 45  1  0
 45 46  2  0
 46 47  1  0
 47 48  2  0
 48 49  1  0
 49 50  2  0
 43 51  1  0
 51 52  1  0
 51 53  2  0
 16 11  1  0
 39 31  1  0
 50 45  1  0
 39 34  1  0
  1 54  1  0
  1 55  1  0
  1 56  1  0
  2 57  1  0
  3 58  1  0
  3 59  1  0
  3 60  1  0
  4 61  1  6
  5 62  1  0
  8 63  1  1
  9 64  1  0
  9 65  1  0
 10 66  1  0
 10 67  1  0
 12 68  1  0
 13 69  1  0
 14 70  1  0
 15 71  1  0
 16 72  1  0
 19 73  1  0
 20 74  1  6
 21 75  1  0
 21 76  1  0
 22 77  1  0
 22 78  1  0
 23 79  1  0
 23 80  1  0
 24 81  1  0
 24 82  1  0
 25 83  1  0
 25 84  1  0
 28 85  1  0
 29 86  1  1
 30 87  1  0
 30 88  1  0
 32 89  1  0
 33 90  1  0
 35 91  1  0
 36 92  1  0
 37 93  1  0
 38 94  1  0
 42 95  1  0
 43 96  1  6
 44 97  1  0
 44 98  1  0
 46 99  1  0
 47100  1  0
 48101  1  0
 49102  1  0
 50103  1  0
 52104  1  0
M  END
$$$$
[H]c1nc(N([H])c2c([H])c([H])c(N3C([H])([H])C([H])([H])C([H])(N4C([H])([H])C([H])([H])C([H])([H])C([H])([H])C4([H])[H])C([H])([H])C3([H])[H])c([H])c2OC([H])([H])[H])nc(N([H])c2c([H])c([H])c([H])c([H])c2S(=O)(=O)C([H])(C([H])([H])[H])C([H])([H])[H])c1Cl
     RDKit          3D

 80 84  0  0  0  0  0  0  0  0999 V2000
    0.6013    3.2247   -1.7319 C   0  0  0  0  0  0  0  0  0  0  0  0
   -0.1703    2.1434   -1.2168 O   0  0  0  0  0  0  0  0  0  0  0  0
    0.4716    1.0979   -0.5363 C   0  0  0  0  0  0  0  0  0  0  0  0
    1.8317    1.1416   -0.3822 C   0  0  0  0  0  0  0  0  0  0  0  0
    2.4759    0.1361    0.2756 C   0  0  0  0  0  0  0  0  0  0  0  0
    1.7236   -0.9023    0.7694 C   0  0  0  0  0  0  0  0  0  0  0  0
    0.3423   -0.9295    0.6031 C   0  0  0  0  0  0  0  0  0  0  0  0
   -0.3385    0.0691   -0.0573 C   0  0  0  0  0  0  0  0  0  0  0  0
   -1.7239    0.1236   -0.2735 N   0  0  0  0  0  0  0  0  0  0  0  0
   -2.6985   -0.8425    0.0627 C   0  0  0  0  0  0  0  0  0  0  0  0
   -2.4949   -2.0067    0.6583 N   0  0  0  0  0  0  0  0  0  0  0  0
   -3.5059   -2.8405    0.8915 C   0  0  0  0  0  0  0  0  0  0  0  0
   -4.8046   -2.5651    0.5417 C   0  0  0  0  0  0  0  0  0  0  0  0
   -6.1108   -3.6867    0.8595 Cl  0  0  0  0  0  0  0  0  0  0  0  0
   -5.0484   -1.3249   -0.0961 C   0  0  0  0  0  0  0  0  0  0  0  0
   -6.3685   -1.0114   -0.4714 N   0  0  0  0  0  0  0  0  0  0  0  0
   -6.8022    0.1565   -1.1088 C   0  0  0  0  0  0  0  0  0  0  0  0
   -5.9491    1.0828   -1.6893 C   0  0  0  0  0  0  0  0  0  0  0  0
   -6.3900    2.1983   -2.4109 C   0  0  0  0  0  0  0  0  0  0  0  0
   -7.7335    2.3953   -2.5575 C   0  0  0  0  0  0  0  0  0  0  0  0
   -8.5936    1.4953   -1.9910 C   0  0  0  0  0  0  0  0  0  0  0  0
   -8.1816    0.3629   -1.2577 C   0  0  0  0  0  0  0  0  0  0  0  0
   -9.3740   -0.6276   -0.5141 S   0  0  0  0  0  0  0  0  0  0  0  0
  -10.7237   -0.2577   -1.1916 O   0  0  0  0  0  0  0  0  0  0  0  0
   -9.2561   -2.1069   -0.8840 O   0  0  0  0  0  0  0  0  0  0  0  0
   -9.6494   -0.3712    1.1908 C   0  0  0  0  0  0  0  0  0  0  0  0
   -8.4334   -0.4229    2.0221 C   0  0  0  0  0  0  0  0  0  0  0  0
  -10.3964    0.9743    1.3961 C   0  0  0  0  0  0  0  0  0  0  0  0
   -3.9714   -0.5703   -0.2798 N   0  0  0  0  0  0  0  0  0  0  0  0
    3.9226    0.1616    0.4309 N   0  0  0  0  0  0  0  0  0  0  0  0
    4.4480   -0.7731    1.3637 C   0  0  0  0  0  0  0  0  0  0  0  0
    5.9195   -0.5967    1.5235 C   0  0  0  0  0  0  0  0  0  0  0  0
    6.5963   -0.4499    0.1589 C   0  0  0  0  0  0  0  0  0  0  0  0
    6.1843    0.8778   -0.3697 C   0  0  0  0  0  0  0  0  0  0  0  0
    4.7084    1.0728   -0.3306 C   0  0  0  0  0  0  0  0  0  0  0  0
    7.9829   -0.6311    0.3103 N   0  0  0  0  0  0  0  0  0  0  0  0
    8.4779   -1.8796    0.7468 C   0  0  0  0  0  0  0  0  0  0  0  0
    9.4768   -1.5829    1.8770 C   0  0  0  0  0  0  0  0  0  0  0  0
   10.1723   -0.2767    1.5357 C   0  0  0  0  0  0  0  0  0  0  0  0
   10.2603   -0.0404    0.0409 C   0  0  0  0  0  0  0  0  0  0  0  0
    8.8534    0.0879   -0.5662 C   0  0  0  0  0  0  0  0  0  0  0  0
    1.4356    2.8184   -2.3761 H   0  0  0  0  0  0  0  0  0  0  0  0
   -0.0267    3.8893   -2.3265 H   0  0  0  0  0  0  0  0  0  0  0  0
    1.0819    3.6972   -0.8521 H   0  0  0  0  0  0  0  0  0  0  0  0
    2.4137    1.9627   -0.7759 H   0  0  0  0  0  0  0  0  0  0  0  0
    2.2232   -1.7257    1.3036 H   0  0  0  0  0  0  0  0  0  0  0  0
   -0.1658   -1.7773    1.0259 H   0  0  0  0  0  0  0  0  0  0  0  0
   -2.0674    1.0225   -0.7512 H   0  0  0  0  0  0  0  0  0  0  0  0
   -3.3537   -3.8121    1.3855 H   0  0  0  0  0  0  0  0  0  0  0  0
   -7.0711   -1.7919   -0.2514 H   0  0  0  0  0  0  0  0  0  0  0  0
   -4.8765    0.9774   -1.6198 H   0  0  0  0  0  0  0  0  0  0  0  0
   -5.6613    2.8759   -2.8345 H   0  0  0  0  0  0  0  0  0  0  0  0
   -8.0840    3.2536   -3.1153 H   0  0  0  0  0  0  0  0  0  0  0  0
   -9.6741    1.6641   -2.1153 H   0  0  0  0  0  0  0  0  0  0  0  0
  -10.4053   -1.1075    1.6127 H   0  0  0  0  0  0  0  0  0  0  0  0
   -7.9976   -1.4290    2.0169 H   0  0  0  0  0  0  0  0  0  0  0  0
   -8.7480   -0.2405    3.0980 H   0  0  0  0  0  0  0  0  0  0  0  0
   -7.6961    0.3805    1.8033 H   0  0  0  0  0  0  0  0  0  0  0  0
  -11.4588    0.8727    1.1040 H   0  0  0  0  0  0  0  0  0  0  0  0
  -10.3343    1.2032    2.4601 H   0  0  0  0  0  0  0  0  0  0  0  0
   -9.9581    1.7377    0.7281 H   0  0  0  0  0  0  0  0  0  0  0  0
    3.9834   -0.6899    2.3752 H   0  0  0  0  0  0  0  0  0  0  0  0
    4.2845   -1.8036    0.9591 H   0  0  0  0  0  0  0  0  0  0  0  0
    6.3932   -1.4533    2.0291 H   0  0  0  0  0  0  0  0  0  0  0  0
    6.1856    0.3487    2.0709 H   0  0  0  0  0  0  0  0  0  0  0  0
    6.1034   -1.2402   -0.4831 H   0  0  0  0  0  0  0  0  0  0  0  0
    6.5817    1.0701   -1.3957 H   0  0  0  0  0  0  0  0  0  0  0  0
    6.6592    1.6515    0.2890 H   0  0  0  0  0  0  0  0  0  0  0  0
    4.2809    1.1505   -1.3782 H   0  0  0  0  0  0  0  0  0  0  0  0
    4.4611    2.1089    0.0863 H   0  0  0  0  0  0  0  0  0  0  0  0
    9.0771   -2.4059   -0.0426 H   0  0  0  0  0  0  0  0  0  0  0  0
    7.6906   -2.5655    1.0422 H   0  0  0  0  0  0  0  0  0  0  0  0
    8.8760   -1.4814    2.7991 H   0  0  0  0  0  0  0  0  0  0  0  0
   10.1889   -2.4073    2.0280 H   0  0  0  0  0  0  0  0  0  0  0  0
    9.5286    0.5385    1.9476 H   0  0  0  0  0  0  0  0  0  0  0  0
   11.1971   -0.2469    1.9436 H   0  0  0  0  0  0  0  0  0  0  0  0
   10.8182   -0.8682   -0.4032 H   0  0  0  0  0  0  0  0  0  0  0  0
   10.8333    0.9179   -0.0753 H   0  0  0  0  0  0  0  0  0  0  0  0
    8.9256   -0.3562   -1.5800 H   0  0  0  0  0  0  0  0  0  0  0  0
    8.6260    1.1557   -0.5846 H   0  0  0  0  0  0  0  0  0  0  0  0
  1  2  1  0
  2  3  1  0
  3  4  2  0
  4  5  1  0
  5  6  2  0
  6  7  1  0
  7  8  2  0
  8  9  1  0
  9 10  1  0
 10 11  2  0
 11 12  1  0
 12 13  2  0
 13 14  1  0
 13 15  1  0
 15 16  1  0
 16 17  1  0
 17 18  2  0
 18 19  1  0
 19 20  2  0
 20 21  1  0
 21 22  2  0
 22 23  1  0
 23 24  2  0
 23 25  2  0
 23 26  1  0
 26 27  1  0
 26 28  1  0
 15 29  2  0
  5 30  1  0
 30 31  1  0
 31 32  1  0
 32 33  1  0
 33 34  1  0
 34 35  1  0
 33 36  1  0
 36 37  1  0
 37 38  1  0
 38 39  1  0
 39 40  1  0
 40 41  1  0
  8  3  1  0
 29 10  1  0
 35 30  1  0
 41 36  1  0
 22 17  1  0
  1 42  1  0
  1 43  1  0
  1 44  1  0
  4 45  1  0
  6 46  1  0
  7 47  1  0
  9 48  1  0
 12 49  1  0
 16 50  1  0
 18 51  1  0
 19 52  1  0
 20 53  1  0
 21 54  1  0
 26 55  1  0
 27 56  1  0
 27 57  1  0
 27 58  1  0
 28 59  1  0
 28 60  1  0
 28 61  1  0
 31 62  1  0
 31 63  1  0
 32 64  1  0
 32 65  1  0
 33 66  1  0
 34 67  1  0
 34 68  1  0
 35 69  1  0
 35 70  1  0
 37 71  1  0
 37 72  1  0
 38 73  1  0
 38 74  1  0
 39 75  1  0
 39 76  1  0
 40 77  1  0
 40 78  1  0
 41 79  1  0
 41 80  1  0
M  END
$$$$
[H]O[C@]1([H])[C@]([H])([C@]([H])(O[H])C([H])([H])[H])O[C@@]([H])(n2c([H])nc3c(N([H])[H])nc(-c4c([H])c([H])c(F)c([H])c4[H])nc32)[C@]1([H])O[H]
     RDKit          3D

 45 48  0  0  0  0  0  0  0  0999 V2000
   -5.5208    1.2271    1.5553 C   0  0  0  0  0  0  0  0  0  0  0  0
   -4.5623    0.0922    1.2830 C   0  0  1  0  0  0  0  0  0  0  0  0
   -5.3584   -0.9820    0.8148 O   0  0  0  0  0  0  0  0  0  0  0  0
   -3.6044    0.4103    0.1763 C   0  0  2  0  0  0  0  0  0  0  0  0
   -2.8256   -0.6769   -0.1137 O   0  0  0  0  0  0  0  0  0  0  0  0
   -1.5119   -0.3061   -0.1643 C   0  0  2  0  0  0  0  0  0  0  0  0
   -1.4900    1.2087   -0.3974 C   0  0  2  0  0  0  0  0  0  0  0  0
   -0.3549    1.7917    0.1385 O   0  0  0  0  0  0  0  0  0  0  0  0
   -2.7386    1.5948    0.4122 C   0  0  2  0  0  0  0  0  0  0  0  0
   -2.3241    1.7686    1.7135 O   0  0  0  0  0  0  0  0  0  0  0  0
   -0.7400   -0.9996   -1.1613 N   0  0  0  0  0  0  0  0  0  0  0  0
   -1.1527   -1.6980   -2.2286 C   0  0  0  0  0  0  0  0  0  0  0  0
   -0.0945   -2.1838   -2.8995 N   0  0  0  0  0  0  0  0  0  0  0  0
    1.0201   -1.7894   -2.2501 C   0  0  0  0  0  0  0  0  0  0  0  0
    2.3721   -1.9696   -2.4479 C   0  0  0  0  0  0  0  0  0  0  0  0
    2.7933   -2.7325   -3.5675 N   0  0  0  0  0  0  0  0  0  0  0  0
    3.2295   -1.4210   -1.5814 N   0  0  0  0  0  0  0  0  0  0  0  0
    2.8420   -0.7010   -0.5243 C   0  0  0  0  0  0  0  0  0  0  0  0
    1.5288   -0.5202   -0.3234 N   0  0  0  0  0  0  0  0  0  0  0  0
    0.6024   -1.0569   -1.1759 C   0  0  0  0  0  0  0  0  0  0  0  0
    3.8248   -0.1202    0.3971 C   0  0  0  0  0  0  0  0  0  0  0  0
    3.4185    0.6214    1.4857 C   0  0  0  0  0  0  0  0  0  0  0  0
    4.3067    1.1883    2.3813 C   0  0  0  0  0  0  0  0  0  0  0  0
    5.6497    0.9731    2.1304 C   0  0  0  0  0  0  0  0  0  0  0  0
    6.5555    1.4982    2.9644 F   0  0  0  0  0  0  0  0  0  0  0  0
    6.0563    0.2418    1.0572 C   0  0  0  0  0  0  0  0  0  0  0  0
    5.1676   -0.3197    0.1697 C   0  0  0  0  0  0  0  0  0  0  0  0
   -5.8041    1.6912    0.5878 H   0  0  0  0  0  0  0  0  0  0  0  0
   -5.1527    1.9444    2.2884 H   0  0  0  0  0  0  0  0  0  0  0  0
   -6.4539    0.7761    1.9617 H   0  0  0  0  0  0  0  0  0  0  0  0
   -4.0987   -0.2648    2.2037 H   0  0  0  0  0  0  0  0  0  0  0  0
   -5.7611   -0.7301   -0.0599 H   0  0  0  0  0  0  0  0  0  0  0  0
   -4.2299    0.6293   -0.7358 H   0  0  0  0  0  0  0  0  0  0  0  0
   -1.0396   -0.4366    0.8532 H   0  0  0  0  0  0  0  0  0  0  0  0
   -1.6251    1.3799   -1.4672 H   0  0  0  0  0  0  0  0  0  0  0  0
    0.0739    2.4423   -0.4733 H   0  0  0  0  0  0  0  0  0  0  0  0
   -3.1617    2.5568    0.0566 H   0  0  0  0  0  0  0  0  0  0  0  0
   -2.5037    1.0166    2.3112 H   0  0  0  0  0  0  0  0  0  0  0  0
   -2.1806   -1.8754   -2.5487 H   0  0  0  0  0  0  0  0  0  0  0  0
    2.3292   -2.6012   -4.4743 H   0  0  0  0  0  0  0  0  0  0  0  0
    3.5589   -3.4074   -3.4539 H   0  0  0  0  0  0  0  0  0  0  0  0
    2.3438    0.7807    1.6671 H   0  0  0  0  0  0  0  0  0  0  0  0
    3.9581    1.7670    3.2290 H   0  0  0  0  0  0  0  0  0  0  0  0
    7.1200    0.0950    0.8939 H   0  0  0  0  0  0  0  0  0  0  0  0
    5.5383   -0.9030   -0.6838 H   0  0  0  0  0  0  0  0  0  0  0  0
  1  2  1  0
  2  3  1  0
  2  4  1  0
  4  5  1  0
  5  6  1  0
  6  7  1  0
  7  8  1  0
  7  9  1  0
  9 10  1  0
  6 11  1  0
 11 12  1  0
 12 13  2  0
 13 14  1  0
 14 15  2  0
 15 16  1  0
 15 17  1  0
 17 18  2  0
 18 19  1  0
 19 20  2  0
 18 21  1  0
 21 22  2  0
 22 23  1  0
 23 24  2  0
 24 25  1  0
 24 26  1  0
 26 27  2  0
  9  4  1  0
 20 11  1  0
 27 21  1  0
 20 14  1  0
  1 28  1  0
  1 29  1  0
  1 30  1  0
  2 31  1  1
  3 32  1  0
  4 33  1  6
  6 34  1  1
  7 35  1  6
  8 36  1  0
  9 37  1  6
 10 38  1  0
 12 39  1  0
 16 40  1  0
 16 41  1  0
 22 42  1  0
 23 43  1  0
 26 44  1  0
 27 45  1  0
M  END
$$$$
[H]c1c([H])c(C(=O)N2C([H])([H])C([H])([H])N(S(=O)(=O)c3c([H])c(OC([H])([H])[H])c(OC([H])([H])[H])c(OC([H])([H])[H])c3[H])C([H])([H])C2([H])[H])c([H])c([H])c1C#N
     RDKit          3D

 54 56  0  0  0  0  0  0  0  0999 V2000
   -3.8186   -1.2782    2.4995 C   0  0  0  0  0  0  0  0  0  0  0  0
   -3.7491   -1.7752    1.1861 O   0  0  0  0  0  0  0  0  0  0  0  0
   -3.2357   -0.9578    0.1683 C   0  0  0  0  0  0  0  0  0  0  0  0
   -2.8028    0.3363    0.4730 C   0  0  0  0  0  0  0  0  0  0  0  0
   -2.2962    1.1744   -0.4761 C   0  0  0  0  0  0  0  0  0  0  0  0
   -2.2118    0.7168   -1.7806 C   0  0  0  0  0  0  0  0  0  0  0  0
   -2.6399   -0.5711   -2.0961 C   0  0  0  0  0  0  0  0  0  0  0  0
   -2.5613   -1.0371   -3.3885 O   0  0  0  0  0  0  0  0  0  0  0  0
   -2.0627   -0.3058   -4.4796 C   0  0  0  0  0  0  0  0  0  0  0  0
   -3.1483   -1.4015   -1.1266 C   0  0  0  0  0  0  0  0  0  0  0  0
   -3.5759   -2.6791   -1.4299 O   0  0  0  0  0  0  0  0  0  0  0  0
   -4.9223   -2.8806   -1.8007 C   0  0  0  0  0  0  0  0  0  0  0  0
   -1.7755    2.7833   -0.0277 S   0  0  0  0  0  0  0  0  0  0  0  0
   -2.1041    3.7064   -1.1736 O   0  0  0  0  0  0  0  0  0  0  0  0
   -2.6129    3.1672    1.1875 O   0  0  0  0  0  0  0  0  0  0  0  0
   -0.1598    2.9095    0.3675 N   0  0  0  0  0  0  0  0  0  0  0  0
    0.8236    2.6040   -0.5839 C   0  0  0  0  0  0  0  0  0  0  0  0
    1.8043    1.5257   -0.1462 C   0  0  0  0  0  0  0  0  0  0  0  0
    2.2683    1.6479    1.1867 N   0  0  0  0  0  0  0  0  0  0  0  0
    1.7316    2.8529    1.8882 C   0  0  0  0  0  0  0  0  0  0  0  0
    0.2188    2.7160    1.7364 C   0  0  0  0  0  0  0  0  0  0  0  0
    3.1331    0.8570    1.9458 C   0  0  0  0  0  0  0  0  0  0  0  0
    3.3547    1.2522    3.1800 O   0  0  0  0  0  0  0  0  0  0  0  0
    3.8409   -0.3470    1.5980 C   0  0  0  0  0  0  0  0  0  0  0  0
    3.8320   -0.9799    0.3813 C   0  0  0  0  0  0  0  0  0  0  0  0
    4.5443   -2.1602    0.1199 C   0  0  0  0  0  0  0  0  0  0  0  0
    5.2981   -2.7406    1.1029 C   0  0  0  0  0  0  0  0  0  0  0  0
    5.3349   -2.1386    2.3373 C   0  0  0  0  0  0  0  0  0  0  0  0
    4.6313   -0.9866    2.5687 C   0  0  0  0  0  0  0  0  0  0  0  0
    6.0466   -3.9499    0.8896 C   0  0  0  0  0  0  0  0  0  0  0  0
    6.6534   -4.9127    0.6999 N   0  0  0  0  0  0  0  0  0  0  0  0
   -4.4662   -0.3663    2.5371 H   0  0  0  0  0  0  0  0  0  0  0  0
   -4.2122   -2.0840    3.1566 H   0  0  0  0  0  0  0  0  0  0  0  0
   -2.8033   -1.0322    2.8744 H   0  0  0  0  0  0  0  0  0  0  0  0
   -2.8948    0.6356    1.5074 H   0  0  0  0  0  0  0  0  0  0  0  0
   -1.8157    1.3447   -2.5670 H   0  0  0  0  0  0  0  0  0  0  0  0
   -1.0813    0.1490   -4.1988 H   0  0  0  0  0  0  0  0  0  0  0  0
   -2.7497    0.4559   -4.8729 H   0  0  0  0  0  0  0  0  0  0  0  0
   -1.8320   -1.0214   -5.2948 H   0  0  0  0  0  0  0  0  0  0  0  0
   -5.0873   -2.7321   -2.8950 H   0  0  0  0  0  0  0  0  0  0  0  0
   -5.5302   -2.0838   -1.3027 H   0  0  0  0  0  0  0  0  0  0  0  0
   -5.2803   -3.9074   -1.5069 H   0  0  0  0  0  0  0  0  0  0  0  0
    1.4257    3.5035   -0.8206 H   0  0  0  0  0  0  0  0  0  0  0  0
    0.4074    2.2482   -1.5590 H   0  0  0  0  0  0  0  0  0  0  0  0
    1.2891    0.5438   -0.3100 H   0  0  0  0  0  0  0  0  0  0  0  0
    2.6595    1.6180   -0.8440 H   0  0  0  0  0  0  0  0  0  0  0  0
    2.1148    3.7092    1.2995 H   0  0  0  0  0  0  0  0  0  0  0  0
    1.9809    2.8607    2.9432 H   0  0  0  0  0  0  0  0  0  0  0  0
   -0.0835    1.7618    2.1623 H   0  0  0  0  0  0  0  0  0  0  0  0
   -0.2265    3.5348    2.3372 H   0  0  0  0  0  0  0  0  0  0  0  0
    3.2604   -0.5614   -0.4245 H   0  0  0  0  0  0  0  0  0  0  0  0
    4.4759   -2.5834   -0.8625 H   0  0  0  0  0  0  0  0  0  0  0  0
    5.9348   -2.6093    3.1029 H   0  0  0  0  0  0  0  0  0  0  0  0
    4.6752   -0.5316    3.5459 H   0  0  0  0  0  0  0  0  0  0  0  0
  1  2  1  0
  2  3  1  0
  3  4  2  0
  4  5  1  0
  5  6  2  0
  6  7  1  0
  7  8  1  0
  8  9  1  0
  7 10  2  0
 10 11  1  0
 11 12  1  0
  5 13  1  0
 13 14  2  0
 13 15  2  0
 13 16  1  0
 16 17  1  0
 17 18  1  0
 18 19  1  0
 19 20  1  0
 20 21  1  0
 19 22  1  0
 22 23  2  0
 22 24  1  0
 24 25  2  0
 25 26  1  0
 26 27  2  0
 27 28  1  0
 28 29  2  0
 27 30  1  0
 30 31  3  0
 10  3  1  0
 21 16  1  0
 29 24  1  0
  1 32  1  0
  1 33  1  0
  1 34  1  0
  4 35  1  0
  6 36  1  0
  9 37  1  0
  9 38  1  0
  9 39  1  0
 12 40  1  0
 12 41  1  0
 12 42  1  0
 17 43  1  0
 17 44  1  0
 18 45  1  0
 18 46  1  0
 20 47  1  0
 20 48  1  0
 21 49  1  0
 21 50  1  0
 25 51  1  0
 26 52  1  0
 28 53  1  0
 29 54  1  0
M  END
$$$$
[H]c1c([H])c([H])c(C([H])([H])[C@@]([H])(C(=O)N2C([H])([H])C([H])([H])C([H])([H])[C@@]2([H])C(=O)N([H])[C@]([H])(c2c([H])c([H])c([H])c([H])c2[H])C([H])([H])[H])N([H])C(=O)c2c([H])c([H])c(C(F)(F)F)c([H])c2[H])c([H])c1[H]
     RDKit          3D

 69 72  0  0  0  0  0  0  0  0999 V2000
   -5.0410    1.6580   -2.4879 C   0  0  0  0  0  0  0  0  0  0  0  0
   -4.5553    1.4530   -1.0766 C   0  0  2  0  0  0  0  0  0  0  0  0
   -3.8695    0.1454   -1.0421 N   0  0  0  0  0  0  0  0  0  0  0  0
   -2.6245    0.0803   -0.3775 C   0  0  0  0  0  0  0  0  0  0  0  0
   -2.1295    1.1161    0.1635 O   0  0  0  0  0  0  0  0  0  0  0  0
   -1.7859   -1.1452   -0.2289 C   0  0  2  0  0  0  0  0  0  0  0  0
   -2.6300   -2.3606    0.0850 C   0  0  0  0  0  0  0  0  0  0  0  0
   -2.2738   -2.6578    1.5425 C   0  0  0  0  0  0  0  0  0  0  0  0
   -1.8926   -1.2427    2.0427 C   0  0  0  0  0  0  0  0  0  0  0  0
   -0.8835   -1.0018    0.9069 N   0  0  0  0  0  0  0  0  0  0  0  0
    0.4500   -0.8813    1.1392 C   0  0  0  0  0  0  0  0  0  0  0  0
    0.8236   -0.5373    2.3357 O   0  0  0  0  0  0  0  0  0  0  0  0
    1.6403   -1.0957    0.2253 C   0  0  2  0  0  0  0  0  0  0  0  0
    1.9448   -2.5454    0.3135 C   0  0  0  0  0  0  0  0  0  0  0  0
    3.0382   -3.2152   -0.3350 C   0  0  0  0  0  0  0  0  0  0  0  0
    4.0215   -3.9024    0.4291 C   0  0  0  0  0  0  0  0  0  0  0  0
    5.0698   -4.5449   -0.1700 C   0  0  0  0  0  0  0  0  0  0  0  0
    5.2294   -4.5595   -1.5486 C   0  0  0  0  0  0  0  0  0  0  0  0
    4.2940   -3.9012   -2.3002 C   0  0  0  0  0  0  0  0  0  0  0  0
    3.2273   -3.2506   -1.6919 C   0  0  0  0  0  0  0  0  0  0  0  0
    2.5683   -0.0823    0.3048 N   0  0  0  0  0  0  0  0  0  0  0  0
    3.9715    0.0686    0.3254 C   0  0  0  0  0  0  0  0  0  0  0  0
    4.8643   -0.7539    0.3215 O   0  0  0  0  0  0  0  0  0  0  0  0
    4.4879    1.4851    0.3387 C   0  0  0  0  0  0  0  0  0  0  0  0
    5.5719    1.8021   -0.4446 C   0  0  0  0  0  0  0  0  0  0  0  0
    6.0671    3.1024   -0.4707 C   0  0  0  0  0  0  0  0  0  0  0  0
    5.4591    4.0675    0.2970 C   0  0  0  0  0  0  0  0  0  0  0  0
    4.3881    3.7662    1.0783 C   0  0  0  0  0  0  0  0  0  0  0  0
    3.8922    2.4306    1.0939 C   0  0  0  0  0  0  0  0  0  0  0  0
    5.9659    5.4805    0.2492 C   0  0  0  0  0  0  0  0  0  0  0  0
    6.5447    5.8800    1.4061 F   0  0  0  0  0  0  0  0  0  0  0  0
    6.8956    5.6252   -0.7839 F   0  0  0  0  0  0  0  0  0  0  0  0
    4.9294    6.3416   -0.0555 F   0  0  0  0  0  0  0  0  0  0  0  0
   -5.7047    1.4660   -0.1749 C   0  0  0  0  0  0  0  0  0  0  0  0
   -5.7026    2.3139    0.9346 C   0  0  0  0  0  0  0  0  0  0  0  0
   -6.7471    2.3541    1.8074 C   0  0  0  0  0  0  0  0  0  0  0  0
   -7.8840    1.5835    1.6882 C   0  0  0  0  0  0  0  0  0  0  0  0
   -7.8925    0.7276    0.5646 C   0  0  0  0  0  0  0  0  0  0  0  0
   -6.8349    0.7009   -0.2961 C   0  0  0  0  0  0  0  0  0  0  0  0
   -5.5700    2.6401   -2.5018 H   0  0  0  0  0  0  0  0  0  0  0  0
   -4.2443    1.6541   -3.2526 H   0  0  0  0  0  0  0  0  0  0  0  0
   -5.8300    0.9086   -2.7370 H   0  0  0  0  0  0  0  0  0  0  0  0
   -3.8373    2.2427   -0.8149 H   0  0  0  0  0  0  0  0  0  0  0  0
   -4.3673   -0.6232   -1.5101 H   0  0  0  0  0  0  0  0  0  0  0  0
   -1.1897   -1.3500   -1.1101 H   0  0  0  0  0  0  0  0  0  0  0  0
   -3.7014   -2.1909    0.0482 H   0  0  0  0  0  0  0  0  0  0  0  0
   -2.4063   -3.2255   -0.5738 H   0  0  0  0  0  0  0  0  0  0  0  0
   -3.0850   -3.0993    2.1041 H   0  0  0  0  0  0  0  0  0  0  0  0
   -1.3565   -3.2981    1.4940 H   0  0  0  0  0  0  0  0  0  0  0  0
   -1.3824   -1.2601    2.9892 H   0  0  0  0  0  0  0  0  0  0  0  0
   -2.7634   -0.6135    1.8979 H   0  0  0  0  0  0  0  0  0  0  0  0
    1.1871   -1.0236   -0.8510 H   0  0  0  0  0  0  0  0  0  0  0  0
    1.8874   -2.8870    1.4173 H   0  0  0  0  0  0  0  0  0  0  0  0
    0.9853   -3.0668   -0.0722 H   0  0  0  0  0  0  0  0  0  0  0  0
    3.9082   -3.8945    1.4891 H   0  0  0  0  0  0  0  0  0  0  0  0
    5.8012   -5.0562    0.4349 H   0  0  0  0  0  0  0  0  0  0  0  0
    6.0574   -5.0742   -2.0061 H   0  0  0  0  0  0  0  0  0  0  0  0
    4.4235   -3.9116   -3.3758 H   0  0  0  0  0  0  0  0  0  0  0  0
    2.5252   -2.7294   -2.3361 H   0  0  0  0  0  0  0  0  0  0  0  0
    2.0647    0.9201    0.3554 H   0  0  0  0  0  0  0  0  0  0  0  0
    6.0268    1.0276   -1.0316 H   0  0  0  0  0  0  0  0  0  0  0  0
    6.9250    3.3969   -1.0701 H   0  0  0  0  0  0  0  0  0  0  0  0
    3.9117    4.5074    1.6861 H   0  0  0  0  0  0  0  0  0  0  0  0
    3.0379    2.2776    1.7425 H   0  0  0  0  0  0  0  0  0  0  0  0
   -4.8524    2.9503    1.0960 H   0  0  0  0  0  0  0  0  0  0  0  0
   -6.7433    3.0306    2.6852 H   0  0  0  0  0  0  0  0  0  0  0  0
   -8.6838    1.6348    2.3940 H   0  0  0  0  0  0  0  0  0  0  0  0
   -8.7688    0.1126    0.4381 H   0  0  0  0  0  0  0  0  0  0  0  0
   -6.8530    0.0298   -1.1572 H   0  0  0  0  0  0  0  0  0  0  0  0
  1  2  1  0
  2  3  1  0
  3  4  1  0
  4  5  2  0
  4  6  1  0
  6  7  1  0
  7  8  1  0
  8  9  1  0
  9 10  1  0
 10 11  1  0
 11 12  2  0
 11 13  1  0
 13 14  1  0
 14 15  1  0
 15 16  2  0
 16 17  1  0
 17 18  2  0
 18 19  1  0
 19 20  2  0
 13 21  1  0
 21 22  1  0
 22 23  2  0
 22 24  1  0
 24 25  2  0
 25 26  1  0
 26 27  2  0
 27 28  1  0
 28 29  2  0
 27 30  1  0
 30 31  1  0
 30 32  1  0
 30 33  1  0
  2 34  1  0
 34 35  2  0
 35 36  1  0
 36 37  2  0
 37 38  1  0
 38 39  2  0
 10  6  1  0
 20 15  1  0
 29 24  1  0
 39 34  1  0
  1 40  1  0
  1 41  1  0
  1 42  1  0
  2 43  1  1
  3 44  1  0
  6 45  1  6
  7 46  1  0
  7 47  1  0
  8 48  1  0
  8 49  1  0
  9 50  1  0
  9 51  1  0
 13 52  1  6
 14 53  1  0
 14 54  1  0
 16 55  1  0
 17 56  1  0
 18 57  1  0
 19 58  1  0
 20 59  1  0
 21 60  1  0
 25 61  1  0
 26 62  1  0
 28 63  1  0
 29 64  1  0
 35 65  1  0
 36 66  1  0
 37 67  1  0
 38 68  1  0
 39 69  1  0
M  END
$$$$
[H]c1c([H])c([H])c(C([H])([H])OC(=O)N([H])[C@]2([H])C([H])([H])C([H])([H])[C@@]([H])(C(=O)N3C([H])([H])C([H])([H])N(S(=O)(=O)c4c([H])c([H])c(OC([H])([H])[H])c([H])c4[H])C([H])([H])C3([H])[H])C([H])([H])C2([H])[H])c([H])c1[H]
     RDKit          3D

 69 72  0  0  0  0  0  0  0  0999 V2000
   10.7109    3.2551   -0.1028 C   0  0  0  0  0  0  0  0  0  0  0  0
   10.1296    2.2318    0.7079 O   0  0  0  0  0  0  0  0  0  0  0  0
    8.9989    1.5669    0.2404 C   0  0  0  0  0  0  0  0  0  0  0  0
    8.4095    1.8437   -0.9657 C   0  0  0  0  0  0  0  0  0  0  0  0
    7.2918    1.1389   -1.3545 C   0  0  0  0  0  0  0  0  0  0  0  0
    6.7076    0.1452   -0.5925 C   0  0  0  0  0  0  0  0  0  0  0  0
    7.3129   -0.1292    0.6312 C   0  0  0  0  0  0  0  0  0  0  0  0
    8.4394    0.5797    1.0252 C   0  0  0  0  0  0  0  0  0  0  0  0
    5.2897   -0.7431   -1.1024 S   0  0  0  0  0  0  0  0  0  0  0  0
    5.2667   -0.9553   -2.5763 O   0  0  0  0  0  0  0  0  0  0  0  0
    5.2882   -2.0996   -0.4121 O   0  0  0  0  0  0  0  0  0  0  0  0
    3.8744    0.0942   -0.5624 N   0  0  0  0  0  0  0  0  0  0  0  0
    3.8196    0.1933    0.8565 C   0  0  0  0  0  0  0  0  0  0  0  0
    2.4254    0.2690    1.4362 C   0  0  0  0  0  0  0  0  0  0  0  0
    1.5396   -0.6989    0.8365 N   0  0  0  0  0  0  0  0  0  0  0  0
    2.0552   -1.4538   -0.2772 C   0  0  0  0  0  0  0  0  0  0  0  0
    2.7149   -0.4429   -1.2043 C   0  0  0  0  0  0  0  0  0  0  0  0
    0.2422   -0.9202    1.3176 C   0  0  0  0  0  0  0  0  0  0  0  0
   -0.1185   -0.2508    2.3299 O   0  0  0  0  0  0  0  0  0  0  0  0
   -0.7507   -1.8590    0.7561 C   0  0  1  0  0  0  0  0  0  0  0  0
   -1.9057   -2.1293    1.6990 C   0  0  0  0  0  0  0  0  0  0  0  0
   -3.1359   -2.5585    0.9324 C   0  0  0  0  0  0  0  0  0  0  0  0
   -3.6613   -1.3274    0.2392 C   0  0  1  0  0  0  0  0  0  0  0  0
   -2.5839   -0.7585   -0.6005 C   0  0  0  0  0  0  0  0  0  0  0  0
   -1.2523   -1.3961   -0.5922 C   0  0  0  0  0  0  0  0  0  0  0  0
   -4.8485   -1.6236   -0.5455 N   0  0  0  0  0  0  0  0  0  0  0  0
   -6.1278   -1.1320   -0.2327 C   0  0  0  0  0  0  0  0  0  0  0  0
   -6.2740   -0.3986    0.7686 O   0  0  0  0  0  0  0  0  0  0  0  0
   -7.2095   -1.4520   -1.0163 O   0  0  0  0  0  0  0  0  0  0  0  0
   -8.5104   -0.9999   -0.7657 C   0  0  0  0  0  0  0  0  0  0  0  0
   -8.5692    0.4756   -0.8136 C   0  0  0  0  0  0  0  0  0  0  0  0
   -7.6501    1.2858   -1.4144 C   0  0  0  0  0  0  0  0  0  0  0  0
   -7.7538    2.6653   -1.4283 C   0  0  0  0  0  0  0  0  0  0  0  0
   -8.8380    3.2402   -0.8047 C   0  0  0  0  0  0  0  0  0  0  0  0
   -9.7733    2.4576   -0.1958 C   0  0  0  0  0  0  0  0  0  0  0  0
   -9.6463    1.1050   -0.1975 C   0  0  0  0  0  0  0  0  0  0  0  0
   11.5345    3.7410    0.4491 H   0  0  0  0  0  0  0  0  0  0  0  0
    9.9064    3.9535   -0.3983 H   0  0  0  0  0  0  0  0  0  0  0  0
   11.1543    2.8065   -1.0290 H   0  0  0  0  0  0  0  0  0  0  0  0
    8.8194    2.6102   -1.6083 H   0  0  0  0  0  0  0  0  0  0  0  0
    6.8425    1.3726   -2.3090 H   0  0  0  0  0  0  0  0  0  0  0  0
    6.9035   -0.8881    1.2607 H   0  0  0  0  0  0  0  0  0  0  0  0
    8.8885    0.3351    1.9959 H   0  0  0  0  0  0  0  0  0  0  0  0
    4.3377    1.1429    1.1482 H   0  0  0  0  0  0  0  0  0  0  0  0
    4.3406   -0.6461    1.3555 H   0  0  0  0  0  0  0  0  0  0  0  0
    2.5368    0.1387    2.5338 H   0  0  0  0  0  0  0  0  0  0  0  0
    2.0286    1.3028    1.2890 H   0  0  0  0  0  0  0  0  0  0  0  0
    1.3333   -2.0301   -0.8452 H   0  0  0  0  0  0  0  0  0  0  0  0
    2.8776   -2.1212    0.0742 H   0  0  0  0  0  0  0  0  0  0  0  0
    3.0448   -1.0270   -2.1006 H   0  0  0  0  0  0  0  0  0  0  0  0
    2.0108    0.3179   -1.5657 H   0  0  0  0  0  0  0  0  0  0  0  0
   -0.2510   -2.8294    0.5972 H   0  0  0  0  0  0  0  0  0  0  0  0
   -1.6981   -2.9040    2.4566 H   0  0  0  0  0  0  0  0  0  0  0  0
   -2.1457   -1.1834    2.2148 H   0  0  0  0  0  0  0  0  0  0  0  0
   -3.8596   -3.0027    1.6136 H   0  0  0  0  0  0  0  0  0  0  0  0
   -2.8341   -3.3220    0.1568 H   0  0  0  0  0  0  0  0  0  0  0  0
   -3.9999   -0.6499    1.0581 H   0  0  0  0  0  0  0  0  0  0  0  0
   -2.9558   -0.7936   -1.6746 H   0  0  0  0  0  0  0  0  0  0  0  0
   -2.4967    0.3703   -0.4481 H   0  0  0  0  0  0  0  0  0  0  0  0
   -1.1526   -2.1909   -1.3610 H   0  0  0  0  0  0  0  0  0  0  0  0
   -0.5255   -0.5923   -0.9274 H   0  0  0  0  0  0  0  0  0  0  0  0
   -4.7413   -2.2351   -1.3867 H   0  0  0  0  0  0  0  0  0  0  0  0
   -8.8682   -1.3404    0.2342 H   0  0  0  0  0  0  0  0  0  0  0  0
   -9.2306   -1.4252   -1.4979 H   0  0  0  0  0  0  0  0  0  0  0  0
   -6.7933    0.8249   -1.9089 H   0  0  0  0  0  0  0  0  0  0  0  0
   -6.9771    3.2460   -1.9293 H   0  0  0  0  0  0  0  0  0  0  0  0
   -8.9148    4.3274   -0.8194 H   0  0  0  0  0  0  0  0  0  0  0  0
  -10.6249    2.9559    0.2916 H   0  0  0  0  0  0  0  0  0  0  0  0
  -10.3975    0.5170    0.2886 H   0  0  0  0  0  0  0  0  0  0  0  0
  1  2  1  0
  2  3  1  0
  3  4  2  0
  4  5  1  0
  5  6  2  0
  6  7  1  0
  7  8  2  0
  6  9  1  0
  9 10  2  0
  9 11  2  0
  9 12  1  0
 12 13  1  0
 13 14  1  0
 14 15  1  0
 15 16  1  0
 16 17  1  0
 15 18  1  0
 18 19  2  0
 18 20  1  0
 20 21  1  0
 21 22  1  0
 22 23  1  0
 23 24  1  0
 24 25  1  0
 23 26  1  0
 26 27  1  0
 27 28  2  0
 27 29  1  0
 29 30  1  0
 30 31  1  0
 31 32  2  0
 32 33  1  0
 33 34  2  0
 34 35  1  0
 35 36  2  0
  8  3  1  0
 17 12  1  0
 25 20  1  0
 36 31  1  0
  1 37  1  0
  1 38  1  0
  1 39  1  0
  4 40  1  0
  5 41  1  0
  7 42  1  0
  8 43  1  0
 13 44  1  0
 13 45  1  0
 14 46  1  0
 14 47  1  0
 16 48  1  0
 16 49  1  0
 17 50  1  0
 17 51  1  0
 20 52  1  6
 21 53  1  0
 21 54  1  0
 22 55  1  0
 22 56  1  0
 23 57  1  1
 24 58  1  0
 24 59  1  0
 25 60  1  0
 25 61  1  0
 26 62  1  0
 30 63  1  0
 30 64  1  0
 32 65  1  0
 33 66  1  0
 34 67  1  0
 35 68  1  0
 36 69  1  0
M  END
$$$$
[H]C1=C2C([H])([H])C([H])([H])[C@@]3([H])[C@]4([H])C([H])([H])C([H])([H])C(C([H])([H])[H])(C([H])([H])[H])[C@@]4(C([H])([H])[H])C([H])([H])C([H])([H])[C@]3([H])[C@@]2(C([H])([H])[H])C([H])([H])C([H])([H])C1=O
     RDKit          3D

 54 57  0  0  0  0  0  0  0  0999 V2000
   -1.9234    1.3951   -1.0864 C   0  0  0  0  0  0  0  0  0  0  0  0
   -1.8603    0.5149    0.1170 C   0  0  2  0  0  0  0  0  0  0  0  0
   -1.1095    1.1672    1.2187 C   0  0  0  0  0  0  0  0  0  0  0  0
    0.3315    1.3167    0.8497 C   0  0  0  0  0  0  0  0  0  0  0  0
    0.9966    0.0800    0.3718 C   0  0  1  0  0  0  0  0  0  0  0  0
    0.1831   -0.6558   -0.7030 C   0  0  1  0  0  0  0  0  0  0  0  0
    0.7832   -2.0363   -0.8402 C   0  0  0  0  0  0  0  0  0  0  0  0
    2.2048   -1.9354   -1.3488 C   0  0  0  0  0  0  0  0  0  0  0  0
    2.9615   -0.9626   -0.5066 C   0  0  0  0  0  0  0  0  0  0  0  0
    4.1316   -1.3250   -0.0210 C   0  0  0  0  0  0  0  0  0  0  0  0
    4.9274   -0.4207    0.8157 C   0  0  0  0  0  0  0  0  0  0  0  0
    6.1498   -0.4998    0.9951 O   0  0  0  0  0  0  0  0  0  0  0  0
    4.1573    0.6659    1.4837 C   0  0  0  0  0  0  0  0  0  0  0  0
    3.2094    1.2960    0.4909 C   0  0  0  0  0  0  0  0  0  0  0  0
    2.3402    0.3618   -0.2615 C   0  0  2  0  0  0  0  0  0  0  0  0
    2.1384    1.0008   -1.6499 C   0  0  0  0  0  0  0  0  0  0  0  0
   -1.1750   -0.8163   -0.1212 C   0  0  2  0  0  0  0  0  0  0  0  0
   -2.1772   -1.5417   -0.9172 C   0  0  0  0  0  0  0  0  0  0  0  0
   -3.4034   -1.3599   -0.0405 C   0  0  0  0  0  0  0  0  0  0  0  0
   -3.2452    0.0520    0.4879 C   0  0  0  0  0  0  0  0  0  0  0  0
   -4.3347    0.8722   -0.1724 C   0  0  0  0  0  0  0  0  0  0  0  0
   -3.4943    0.1061    1.9780 C   0  0  0  0  0  0  0  0  0  0  0  0
   -2.0882    2.4469   -0.7095 H   0  0  0  0  0  0  0  0  0  0  0  0
   -2.8200    1.2016   -1.7342 H   0  0  0  0  0  0  0  0  0  0  0  0
   -1.0292    1.4346   -1.7042 H   0  0  0  0  0  0  0  0  0  0  0  0
   -1.4992    2.1778    1.4662 H   0  0  0  0  0  0  0  0  0  0  0  0
   -1.1858    0.5143    2.1215 H   0  0  0  0  0  0  0  0  0  0  0  0
    0.8520    1.5968    1.8171 H   0  0  0  0  0  0  0  0  0  0  0  0
    0.4678    2.1956    0.1922 H   0  0  0  0  0  0  0  0  0  0  0  0
    1.1622   -0.6187    1.1990 H   0  0  0  0  0  0  0  0  0  0  0  0
    0.2199   -0.1700   -1.6731 H   0  0  0  0  0  0  0  0  0  0  0  0
    0.1959   -2.6068   -1.5946 H   0  0  0  0  0  0  0  0  0  0  0  0
    0.7446   -2.5645    0.1363 H   0  0  0  0  0  0  0  0  0  0  0  0
    2.6295   -2.9672   -1.2231 H   0  0  0  0  0  0  0  0  0  0  0  0
    2.2148   -1.7214   -2.4131 H   0  0  0  0  0  0  0  0  0  0  0  0
    4.5609   -2.3068   -0.2172 H   0  0  0  0  0  0  0  0  0  0  0  0
    3.6663    0.3369    2.4124 H   0  0  0  0  0  0  0  0  0  0  0  0
    4.8859    1.4553    1.7565 H   0  0  0  0  0  0  0  0  0  0  0  0
    3.8927    1.8106   -0.2560 H   0  0  0  0  0  0  0  0  0  0  0  0
    2.6190    2.0712    0.9860 H   0  0  0  0  0  0  0  0  0  0  0  0
    3.0774    1.5827   -1.8986 H   0  0  0  0  0  0  0  0  0  0  0  0
    2.0365    0.2735   -2.4478 H   0  0  0  0  0  0  0  0  0  0  0  0
    1.3388    1.7386   -1.6489 H   0  0  0  0  0  0  0  0  0  0  0  0
   -1.0751   -1.2985    0.8710 H   0  0  0  0  0  0  0  0  0  0  0  0
   -1.9252   -2.6235   -0.9652 H   0  0  0  0  0  0  0  0  0  0  0  0
   -2.3554   -1.1198   -1.9202 H   0  0  0  0  0  0  0  0  0  0  0  0
   -4.3445   -1.5133   -0.5834 H   0  0  0  0  0  0  0  0  0  0  0  0
   -3.3113   -2.0875    0.8012 H   0  0  0  0  0  0  0  0  0  0  0  0
   -5.2665    0.7650    0.4512 H   0  0  0  0  0  0  0  0  0  0  0  0
   -4.6128    0.4139   -1.1579 H   0  0  0  0  0  0  0  0  0  0  0  0
   -4.0606    1.9317   -0.2880 H   0  0  0  0  0  0  0  0  0  0  0  0
   -3.0448   -0.7375    2.5213 H   0  0  0  0  0  0  0  0  0  0  0  0
   -3.1355    1.0358    2.4157 H   0  0  0  0  0  0  0  0  0  0  0  0
   -4.6019    0.0774    2.1477 H   0  0  0  0  0  0  0  0  0  0  0  0
  2  1  1  6
  2  3  1  0
  3  4  1  0
  4  5  1  0
  5  6  1  0
  6  7  1  0
  7  8  1  0
  8  9  1  0
  9 10  2  0
 10 11  1  0
 11 12  2  0
 11 13  1  0
 13 14  1  0
 14 15  1  0
 15 16  1  6
  6 17  1  0
 17 18  1  0
 18 19  1  0
 19 20  1  0
 20 21  1  0
 20 22  1  0
 17  2  1  0
 20  2  1  0
 15  5  1  0
 15  9  1  0
  1 23  1  0
  1 24  1  0
  1 25  1  0
  3 26  1  0
  3 27  1  0
  4 28  1  0
  4 29  1  0
  5 30  1  1
  6 31  1  6
  7 32  1  0
  7 33  1  0
  8 34  1  0
  8 35  1  0
 10 36  1  0
 13 37  1  0
 13 38  1  0
 14 39  1  0
 14 40  1  0
 16 41  1  0
 16 42  1  0
 16 43  1  0
 17 44  1  1
 18 45  1  0
 18 46  1  0
 19 47  1  0
 19 48  1  0
 21 49  1  0
 21 50  1  0
 21 51  1  0
 22 52  1  0
 22 53  1  0
 22 54  1  0
M  END
$$$$
[H]c1c([H])c([H])c2c(c1[H])C([H])([H])N(C1([H])C([H])([H])C([H])([H])N(S(=O)(=O)c3c([H])c([H])c(OC(F)(F)F)c([H])c3[H])C([H])([H])C1([H])[H])C([H])([H])C2([H])[H]
     RDKit          3D

 53 56  0  0  0  0  0  0  0  0999 V2000
    9.8316   -0.9445   -0.8762 F   0  0  0  0  0  0  0  0  0  0  0  0
    8.6825   -0.6053   -0.2149 C   0  0  0  0  0  0  0  0  0  0  0  0
    8.4368   -1.5463    0.7669 F   0  0  0  0  0  0  0  0  0  0  0  0
    8.8893    0.6028    0.4264 F   0  0  0  0  0  0  0  0  0  0  0  0
    7.5490   -0.5578   -1.0828 O   0  0  0  0  0  0  0  0  0  0  0  0
    6.3300   -0.2166   -0.4890 C   0  0  0  0  0  0  0  0  0  0  0  0
    5.9254    1.1036   -0.4057 C   0  0  0  0  0  0  0  0  0  0  0  0
    4.7175    1.4646    0.1805 C   0  0  0  0  0  0  0  0  0  0  0  0
    3.8758    0.5058    0.7032 C   0  0  0  0  0  0  0  0  0  0  0  0
    4.2777   -0.8154    0.6214 C   0  0  0  0  0  0  0  0  0  0  0  0
    5.4792   -1.1657    0.0375 C   0  0  0  0  0  0  0  0  0  0  0  0
    2.3441    0.9322    1.4482 S   0  0  0  0  0  0  0  0  0  0  0  0
    2.4351    2.2572    2.1492 O   0  0  0  0  0  0  0  0  0  0  0  0
    1.9901   -0.1064    2.5007 O   0  0  0  0  0  0  0  0  0  0  0  0
    1.0971    0.9260    0.2391 N   0  0  0  0  0  0  0  0  0  0  0  0
    1.0014   -0.4080   -0.2974 C   0  0  0  0  0  0  0  0  0  0  0  0
   -0.1749   -0.5898   -1.2279 C   0  0  0  0  0  0  0  0  0  0  0  0
   -1.3931    0.1366   -0.7466 C   0  0  0  0  0  0  0  0  0  0  0  0
   -1.2406    0.3816    0.7395 C   0  0  0  0  0  0  0  0  0  0  0  0
   -0.1148    1.3770    0.8940 C   0  0  0  0  0  0  0  0  0  0  0  0
   -2.6356   -0.4449   -1.0080 N   0  0  0  0  0  0  0  0  0  0  0  0
   -2.9642   -1.6962   -0.4618 C   0  0  0  0  0  0  0  0  0  0  0  0
   -4.4219   -1.8880   -0.2504 C   0  0  0  0  0  0  0  0  0  0  0  0
   -5.2441   -0.6547   -0.4279 C   0  0  0  0  0  0  0  0  0  0  0  0
   -6.4527   -0.4975    0.2316 C   0  0  0  0  0  0  0  0  0  0  0  0
   -7.1741    0.6575    0.0302 C   0  0  0  0  0  0  0  0  0  0  0  0
   -6.7318    1.6633   -0.8068 C   0  0  0  0  0  0  0  0  0  0  0  0
   -5.5234    1.4983   -1.4617 C   0  0  0  0  0  0  0  0  0  0  0  0
   -4.8113    0.3467   -1.2565 C   0  0  0  0  0  0  0  0  0  0  0  0
   -3.5114    0.1482   -1.9417 C   0  0  0  0  0  0  0  0  0  0  0  0
    6.5857    1.8746   -0.8171 H   0  0  0  0  0  0  0  0  0  0  0  0
    4.3958    2.5005    0.2476 H   0  0  0  0  0  0  0  0  0  0  0  0
    3.6084   -1.5805    1.0375 H   0  0  0  0  0  0  0  0  0  0  0  0
    5.7776   -2.2017   -0.0184 H   0  0  0  0  0  0  0  0  0  0  0  0
    1.0331   -1.1725    0.5106 H   0  0  0  0  0  0  0  0  0  0  0  0
    1.9281   -0.5734   -0.8990 H   0  0  0  0  0  0  0  0  0  0  0  0
   -0.3308   -1.6740   -1.3911 H   0  0  0  0  0  0  0  0  0  0  0  0
    0.1451   -0.1737   -2.2278 H   0  0  0  0  0  0  0  0  0  0  0  0
   -1.3786    1.1611   -1.2147 H   0  0  0  0  0  0  0  0  0  0  0  0
   -1.0170   -0.5482    1.2925 H   0  0  0  0  0  0  0  0  0  0  0  0
   -2.1675    0.8451    1.0913 H   0  0  0  0  0  0  0  0  0  0  0  0
    0.0522    1.6665    1.9602 H   0  0  0  0  0  0  0  0  0  0  0  0
   -0.4217    2.3082    0.3774 H   0  0  0  0  0  0  0  0  0  0  0  0
   -2.4777   -1.7662    0.5568 H   0  0  0  0  0  0  0  0  0  0  0  0
   -2.5609   -2.5538   -1.0743 H   0  0  0  0  0  0  0  0  0  0  0  0
   -4.6678   -2.2500    0.7899 H   0  0  0  0  0  0  0  0  0  0  0  0
   -4.8477   -2.6662   -0.9360 H   0  0  0  0  0  0  0  0  0  0  0  0
   -6.7711   -1.2993    0.8781 H   0  0  0  0  0  0  0  0  0  0  0  0
   -8.1250    0.7927    0.5425 H   0  0  0  0  0  0  0  0  0  0  0  0
   -7.2952    2.5837   -0.9748 H   0  0  0  0  0  0  0  0  0  0  0  0
   -5.1538    2.2896   -2.1346 H   0  0  0  0  0  0  0  0  0  0  0  0
   -3.6991   -0.5251   -2.8295 H   0  0  0  0  0  0  0  0  0  0  0  0
   -3.0810    1.0986   -2.3098 H   0  0  0  0  0  0  0  0  0  0  0  0
  1  2  1  0
  2  3  1  0
  2  4  1  0
  2  5  1  0
  5  6  1  0
  6  7  2  0
  7  8  1  0
  8  9  2  0
  9 10  1  0
 10 11  2  0
  9 12  1  0
 12 13  2  0
 12 14  2  0
 12 15  1  0
 15 16  1  0
 16 17  1  0
 17 18  1  0
 18 19  1  0
 19 20  1  0
 18 21  1  0
 21 22  1  0
 22 23  1  0
 23 24  1  0
 24 25  2  0
 25 26  1  0
 26 27  2  0
 27 28  1  0
 28 29  2  0
 29 30  1  0
 11  6  1  0
 20 15  1  0
 30 21  1  0
 29 24  1  0
  7 31  1  0
  8 32  1  0
 10 33  1  0
 11 34  1  0
 16 35  1  0
 16 36  1  0
 17 37  1  0
 17 38  1  0
 18 39  1  0
 19 40  1  0
 19 41  1  0
 20 42  1  0
 20 43  1  0
 22 44  1  0
 22 45  1  0
 23 46  1  0
 23 47  1  0
 25 48  1  0
 26 49  1  0
 27 50  1  0
 28 51  1  0
 30 52  1  0
 30 53  1  0
M  END
$$$$
[H]c1nc2c([H])c(OC([H])([H])C([H])([H])C([H])([H])N3C([H])([H])C([H])([H])C([H])(C([H])([H])[H])C([H])([H])C3([H])[H])c(OC([H])([H])[H])c([H])c2c(Oc2c([H])c([H])c(N([H])C(=O)c3nn(C([H])([H])[H])c4c([H])c([H])c([H])c([H])c4c3=O)c([H])c2F)c1[H]
     RDKit          3D

 82 87  0  0  0  0  0  0  0  0999 V2000
   -2.1101    2.5186   -0.9627 C   0  0  0  0  0  0  0  0  0  0  0  0
   -2.9563    1.7793   -0.1357 O   0  0  0  0  0  0  0  0  0  0  0  0
   -2.5934    0.7581    0.6982 C   0  0  0  0  0  0  0  0  0  0  0  0
   -1.3136    0.2931    0.8536 C   0  0  0  0  0  0  0  0  0  0  0  0
   -0.9932   -0.7347    1.7017 C   0  0  0  0  0  0  0  0  0  0  0  0
    0.3428   -1.2035    1.8549 C   0  0  0  0  0  0  0  0  0  0  0  0
    1.2633   -0.5983    1.1349 O   0  0  0  0  0  0  0  0  0  0  0  0
    2.5517   -0.4967    0.8208 C   0  0  0  0  0  0  0  0  0  0  0  0
    3.5494   -1.2411    1.3867 C   0  0  0  0  0  0  0  0  0  0  0  0
    4.8880   -1.1313    1.0558 C   0  0  0  0  0  0  0  0  0  0  0  0
    5.2607   -0.2240    0.1013 C   0  0  0  0  0  0  0  0  0  0  0  0
    6.5967   -0.0556   -0.2977 N   0  0  0  0  0  0  0  0  0  0  0  0
    7.7219   -0.7997    0.0287 C   0  0  0  0  0  0  0  0  0  0  0  0
    7.7242   -1.8033    0.7732 O   0  0  0  0  0  0  0  0  0  0  0  0
    9.0640   -0.4389   -0.5079 C   0  0  0  0  0  0  0  0  0  0  0  0
    9.2018    0.6172   -1.3262 N   0  0  0  0  0  0  0  0  0  0  0  0
   10.3420    1.0194   -1.8505 N   0  0  0  0  0  0  0  0  0  0  0  0
   10.4142    2.1850   -2.7382 C   0  0  0  0  0  0  0  0  0  0  0  0
   11.4487    0.3119   -1.5369 C   0  0  0  0  0  0  0  0  0  0  0  0
   12.6770    0.7158   -2.0778 C   0  0  0  0  0  0  0  0  0  0  0  0
   13.8284    0.0155   -1.7765 C   0  0  0  0  0  0  0  0  0  0  0  0
   13.7358   -1.0806   -0.9372 C   0  0  0  0  0  0  0  0  0  0  0  0
   12.5520   -1.4980   -0.3948 C   0  0  0  0  0  0  0  0  0  0  0  0
   11.3949   -0.7819   -0.7070 C   0  0  0  0  0  0  0  0  0  0  0  0
   10.1838   -1.1607   -0.1864 C   0  0  0  0  0  0  0  0  0  0  0  0
   10.0980   -2.1587    0.5778 O   0  0  0  0  0  0  0  0  0  0  0  0
    4.2587    0.5619   -0.5047 C   0  0  0  0  0  0  0  0  0  0  0  0
    2.9475    0.4379   -0.1643 C   0  0  0  0  0  0  0  0  0  0  0  0
    1.9896    1.2203   -0.7777 F   0  0  0  0  0  0  0  0  0  0  0  0
    0.5176   -2.2491    2.7525 C   0  0  0  0  0  0  0  0  0  0  0  0
   -0.5019   -2.8344    3.4766 C   0  0  0  0  0  0  0  0  0  0  0  0
   -1.7405   -2.3586    3.2982 N   0  0  0  0  0  0  0  0  0  0  0  0
   -1.9778   -1.3436    2.4403 C   0  0  0  0  0  0  0  0  0  0  0  0
   -3.2845   -0.8890    2.2994 C   0  0  0  0  0  0  0  0  0  0  0  0
   -3.5789    0.1373    1.4478 C   0  0  0  0  0  0  0  0  0  0  0  0
   -4.8917    0.5748    1.3244 O   0  0  0  0  0  0  0  0  0  0  0  0
   -5.9012   -0.0384    2.0713 C   0  0  0  0  0  0  0  0  0  0  0  0
   -7.2231    0.6141    1.7672 C   0  0  0  0  0  0  0  0  0  0  0  0
   -7.5889    0.5039    0.3037 C   0  0  0  0  0  0  0  0  0  0  0  0
   -8.8493    1.1467    0.1072 N   0  0  0  0  0  0  0  0  0  0  0  0
   -9.9535    0.4786    0.7159 C   0  0  0  0  0  0  0  0  0  0  0  0
  -10.1487   -0.9201    0.1335 C   0  0  0  0  0  0  0  0  0  0  0  0
  -10.0420   -0.9069   -1.3615 C   0  0  0  0  0  0  0  0  0  0  0  0
  -11.2347   -1.6697   -1.9506 C   0  0  0  0  0  0  0  0  0  0  0  0
  -10.1029    0.4828   -1.9043 C   0  0  0  0  0  0  0  0  0  0  0  0
   -9.1434    1.4423   -1.2767 C   0  0  0  0  0  0  0  0  0  0  0  0
   -2.2274    2.1472   -2.0033 H   0  0  0  0  0  0  0  0  0  0  0  0
   -2.5112    3.5718   -0.9850 H   0  0  0  0  0  0  0  0  0  0  0  0
   -1.0425    2.4876   -0.6781 H   0  0  0  0  0  0  0  0  0  0  0  0
   -0.5461    0.7621    0.2856 H   0  0  0  0  0  0  0  0  0  0  0  0
    3.3476   -1.9932    2.1667 H   0  0  0  0  0  0  0  0  0  0  0  0
    5.6137   -1.7789    1.5810 H   0  0  0  0  0  0  0  0  0  0  0  0
    6.7717    0.7812   -0.9542 H   0  0  0  0  0  0  0  0  0  0  0  0
   10.9054    1.8168   -3.6739 H   0  0  0  0  0  0  0  0  0  0  0  0
   10.9153    3.0362   -2.2788 H   0  0  0  0  0  0  0  0  0  0  0  0
    9.3663    2.4143   -3.0316 H   0  0  0  0  0  0  0  0  0  0  0  0
   12.7007    1.5814   -2.7308 H   0  0  0  0  0  0  0  0  0  0  0  0
   14.7782    0.3227   -2.1909 H   0  0  0  0  0  0  0  0  0  0  0  0
   14.6529   -1.6056   -0.7211 H   0  0  0  0  0  0  0  0  0  0  0  0
   12.4623   -2.3528    0.2638 H   0  0  0  0  0  0  0  0  0  0  0  0
    4.5465    1.2977   -1.2768 H   0  0  0  0  0  0  0  0  0  0  0  0
    1.4870   -2.6414    2.9039 H   0  0  0  0  0  0  0  0  0  0  0  0
   -0.3041   -3.6435    4.1590 H   0  0  0  0  0  0  0  0  0  0  0  0
   -4.0384   -1.3791    2.8870 H   0  0  0  0  0  0  0  0  0  0  0  0
   -5.9333   -1.1128    1.7731 H   0  0  0  0  0  0  0  0  0  0  0  0
   -5.7080   -0.0382    3.1622 H   0  0  0  0  0  0  0  0  0  0  0  0
   -7.9828    0.0666    2.3813 H   0  0  0  0  0  0  0  0  0  0  0  0
   -7.1624    1.6763    2.0743 H   0  0  0  0  0  0  0  0  0  0  0  0
   -7.6028   -0.5824    0.0645 H   0  0  0  0  0  0  0  0  0  0  0  0
   -6.8082    1.0399   -0.2706 H   0  0  0  0  0  0  0  0  0  0  0  0
   -9.8992    0.4220    1.8011 H   0  0  0  0  0  0  0  0  0  0  0  0
  -10.8814    1.0357    0.4623 H   0  0  0  0  0  0  0  0  0  0  0  0
  -11.1843   -1.2268    0.4609 H   0  0  0  0  0  0  0  0  0  0  0  0
   -9.4112   -1.6111    0.5485 H   0  0  0  0  0  0  0  0  0  0  0  0
   -9.1400   -1.4703   -1.7384 H   0  0  0  0  0  0  0  0  0  0  0  0
  -11.0237   -2.0486   -2.9583 H   0  0  0  0  0  0  0  0  0  0  0  0
  -12.1380   -1.0323   -1.9972 H   0  0  0  0  0  0  0  0  0  0  0  0
  -11.4605   -2.5479   -1.3053 H   0  0  0  0  0  0  0  0  0  0  0  0
  -11.1574    0.8469   -1.7677 H   0  0  0  0  0  0  0  0  0  0  0  0
   -9.9262    0.4193   -3.0057 H   0  0  0  0  0  0  0  0  0  0  0  0
   -9.6521    2.4512   -1.2716 H   0  0  0  0  0  0  0  0  0  0  0  0
   -8.2291    1.5937   -1.8860 H   0  0  0  0  0  0  0  0  0  0  0  0
  1  2  1  0
  2  3  1  0
  3  4  2  0
  4  5  1  0
  5  6  2  0
  6  7  1  0
  7  8  1  0
  8  9  2  0
  9 10  1  0
 10 11  2  0
 11 12  1  0
 12 13  1  0
 13 14  2  0
 13 15  1  0
 15 16  2  0
 16 17  1  0
 17 18  1  0
 17 19  1  0
 19 20  2  0
 20 21  1  0
 21 22  2  0
 22 23  1  0
 23 24  2  0
 24 25  1  0
 25 26  2  0
 11 27  1  0
 27 28  2  0
 28 29  1  0
  6 30  1  0
 30 31  2  0
 31 32  1  0
 32 33  2  0
 33 34  1  0
 34 35  2  0
 35 36  1  0
 36 37  1  0
 37 38  1  0
 38 39  1  0
 39 40  1  0
 40 41  1  0
 41 42  1  0
 42 43  1  0
 43 44  1  0
 43 45  1  0
 45 46  1  0
 35  3  1  0
 46 40  1  0
 33  5  1  0
 28  8  1  0
 25 15  1  0
 24 19  1  0
  1 47  1  0
  1 48  1  0
  1 49  1  0
  4 50  1  0
  9 51  1  0
 10 52  1  0
 12 53  1  0
 18 54  1  0
 18 55  1  0
 18 56  1  0
 20 57  1  0
 21 58  1  0
 22 59  1  0
 23 60  1  0
 27 61  1  0
 30 62  1  0
 31 63  1  0
 34 64  1  0
 37 65  1  0
 37 66  1  0
 38 67  1  0
 38 68  1  0
 39 69  1  0
 39 70  1  0
 41 71  1  0
 41 72  1  0
 42 73  1  0
 42 74  1  0
 43 75  1  0
 44 76  1  0
 44 77  1  0
 44 78  1  0
 45 79  1  0
 45 80  1  0
 46 81  1  0
 46 82  1  0
M  END
$$$$
[H]Oc1c([H])c([H])c2c(c1[H])C([H])([H])C([H])([H])[C@]1([H])[C@]2([H])C([H])([H])C([H])([H])[C@]2(C([H])([H])[H])C([H])([H])[C@]([H])(O[H])C([H])([H])C([H])([H])[C@@]12[H]
     RDKit          3D

 47 50  0  0  0  0  0  0  0  0999 V2000
   -2.0801    0.4982    1.7242 C   0  0  0  0  0  0  0  0  0  0  0  0
   -1.8872   -0.3465    0.5142 C   0  0  2  0  0  0  0  0  0  0  0  0
   -1.1786   -1.6207    0.9122 C   0  0  0  0  0  0  0  0  0  0  0  0
    0.2567   -1.3636    1.3167 C   0  0  0  0  0  0  0  0  0  0  0  0
    0.9161   -0.6414    0.1705 C   0  0  1  0  0  0  0  0  0  0  0  0
    0.2324    0.6872   -0.0744 C   0  0  1  0  0  0  0  0  0  0  0  0
    1.0678    1.5135   -0.9688 C   0  0  0  0  0  0  0  0  0  0  0  0
    2.0908    0.7003   -1.7739 C   0  0  0  0  0  0  0  0  0  0  0  0
    3.0224    0.1436   -0.7258 C   0  0  0  0  0  0  0  0  0  0  0  0
    4.3708    0.3168   -0.7735 C   0  0  0  0  0  0  0  0  0  0  0  0
    5.1388   -0.2379    0.2456 C   0  0  0  0  0  0  0  0  0  0  0  0
    6.5208   -0.0767    0.2228 O   0  0  0  0  0  0  0  0  0  0  0  0
    4.5103   -0.9348    1.2547 C   0  0  0  0  0  0  0  0  0  0  0  0
    3.1316   -1.0993    1.2834 C   0  0  0  0  0  0  0  0  0  0  0  0
    2.3723   -0.5580    0.2871 C   0  0  0  0  0  0  0  0  0  0  0  0
   -1.1381    0.3603   -0.6024 C   0  0  2  0  0  0  0  0  0  0  0  0
   -1.8802    1.4988   -1.1691 C   0  0  0  0  0  0  0  0  0  0  0  0
   -3.2902    1.6663   -0.7471 C   0  0  0  0  0  0  0  0  0  0  0  0
   -4.0303    0.4452   -0.3770 C   0  0  1  0  0  0  0  0  0  0  0  0
   -4.9782    0.0857   -1.3651 O   0  0  0  0  0  0  0  0  0  0  0  0
   -3.2227   -0.7598   -0.0799 C   0  0  0  0  0  0  0  0  0  0  0  0
   -1.7824    1.5407    1.6315 H   0  0  0  0  0  0  0  0  0  0  0  0
   -1.4974    0.0844    2.5993 H   0  0  0  0  0  0  0  0  0  0  0  0
   -3.1549    0.3854    2.0506 H   0  0  0  0  0  0  0  0  0  0  0  0
   -1.6973   -1.9837    1.8406 H   0  0  0  0  0  0  0  0  0  0  0  0
   -1.2523   -2.4200    0.1747 H   0  0  0  0  0  0  0  0  0  0  0  0
    0.3191   -0.8003    2.2639 H   0  0  0  0  0  0  0  0  0  0  0  0
    0.7431   -2.3514    1.4293 H   0  0  0  0  0  0  0  0  0  0  0  0
    0.6990   -1.2619   -0.7485 H   0  0  0  0  0  0  0  0  0  0  0  0
    0.0976    1.1475    0.9458 H   0  0  0  0  0  0  0  0  0  0  0  0
    0.5405    2.1797   -1.6558 H   0  0  0  0  0  0  0  0  0  0  0  0
    1.7038    2.1861   -0.3197 H   0  0  0  0  0  0  0  0  0  0  0  0
    2.6491    1.4112   -2.3991 H   0  0  0  0  0  0  0  0  0  0  0  0
    1.5638   -0.0837   -2.3172 H   0  0  0  0  0  0  0  0  0  0  0  0
    4.8236    0.8657   -1.5756 H   0  0  0  0  0  0  0  0  0  0  0  0
    6.9547    0.4388   -0.5290 H   0  0  0  0  0  0  0  0  0  0  0  0
    5.1043   -1.3730    2.0577 H   0  0  0  0  0  0  0  0  0  0  0  0
    2.6231   -1.6460    2.0723 H   0  0  0  0  0  0  0  0  0  0  0  0
   -0.9805   -0.4318   -1.3940 H   0  0  0  0  0  0  0  0  0  0  0  0
   -1.3346    2.4530   -0.9048 H   0  0  0  0  0  0  0  0  0  0  0  0
   -1.8098    1.4615   -2.2941 H   0  0  0  0  0  0  0  0  0  0  0  0
   -3.3662    2.4431    0.0710 H   0  0  0  0  0  0  0  0  0  0  0  0
   -3.8431    2.1510   -1.6075 H   0  0  0  0  0  0  0  0  0  0  0  0
   -4.6634    0.6596    0.5348 H   0  0  0  0  0  0  0  0  0  0  0  0
   -5.6277   -0.5339   -0.9038 H   0  0  0  0  0  0  0  0  0  0  0  0
   -3.7149   -1.4072    0.6886 H   0  0  0  0  0  0  0  0  0  0  0  0
   -3.0424   -1.3678   -0.9854 H   0  0  0  0  0  0  0  0  0  0  0  0
  2  1  1  1
  2  3  1  0
  3  4  1  0
  4  5  1  0
  5  6  1  0
  6  7  1  0
  7  8  1  0
  8  9  1  0
  9 10  2  0
 10 11  1  0
 11 12  1  0
 11 13  2  0
 13 14  1  0
 14 15  2  0
  6 16  1  0
 16 17  1  0
 17 18  1  0
 18 19  1  0
 19 20  1  0
 19 21  1  0
 16  2  1  0
 21  2  1  0
 15  5  1  0
 15  9  1  0
  1 22  1  0
  1 23  1  0
  1 24  1  0
  3 25  1  0
  3 26  1  0
  4 27  1  0
  4 28  1  0
  5 29  1  6
  6 30  1  1
  7 31  1  0
  7 32  1  0
  8 33  1  0
  8 34  1  0
 10 35  1  0
 12 36  1  0
 13 37  1  0
 14 38  1  0
 16 39  1  6
 17 40  1  0
 17 41  1  0
 18 42  1  0
 18 43  1  0
 19 44  1  1
 20 45  1  0
 21 46  1  0
 21 47  1  0
M  END
$$$$
[H]c1c([H])c([H])c2c(c1[H])c1c3c(c4c5c([H])c([H])c([H])c([H])c5n5c4c1n2[C@]1([H])O[C@]5(C([H])([H])[H])[C@]([H])(OC([H])([H])[H])[C@]([H])(N([H])C([H])([H])[H])C1([H])[H])C([H])([H])N([H])C3=O
     RDKit          3D

 61 68  0  0  0  0  0  0  0  0999 V2000
   -4.9647    2.0893   -0.5001 C   0  0  0  0  0  0  0  0  0  0  0  0
   -4.1485    0.9173   -0.6110 N   0  0  0  0  0  0  0  0  0  0  0  0
   -3.1547    0.8915    0.4018 C   0  0  2  0  0  0  0  0  0  0  0  0
   -2.1599    2.0934    0.2761 C   0  0  0  0  0  0  0  0  0  0  0  0
   -0.9701    1.4278    0.0810 C   0  0  1  0  0  0  0  0  0  0  0  0
   -1.1699    0.6674   -1.0620 O   0  0  0  0  0  0  0  0  0  0  0  0
   -1.4214   -0.6660   -0.6075 C   0  0  2  0  0  0  0  0  0  0  0  0
   -2.0298   -1.2882   -1.8881 C   0  0  0  0  0  0  0  0  0  0  0  0
   -2.4117   -0.4705    0.4331 C   0  0  2  0  0  0  0  0  0  0  0  0
   -3.4958   -1.3570    0.1476 O   0  0  0  0  0  0  0  0  0  0  0  0
   -3.7832   -2.1888    1.2017 C   0  0  0  0  0  0  0  0  0  0  0  0
   -0.1106   -1.2246   -0.3667 N   0  0  0  0  0  0  0  0  0  0  0  0
    0.2372   -2.5334   -0.4695 C   0  0  0  0  0  0  0  0  0  0  0  0
   -0.4939   -3.6621   -0.6643 C   0  0  0  0  0  0  0  0  0  0  0  0
    0.1052   -4.9347   -0.7248 C   0  0  0  0  0  0  0  0  0  0  0  0
    1.4707   -5.0525   -0.5831 C   0  0  0  0  0  0  0  0  0  0  0  0
    2.2474   -3.9187   -0.3817 C   0  0  0  0  0  0  0  0  0  0  0  0
    1.6031   -2.7007   -0.3318 C   0  0  0  0  0  0  0  0  0  0  0  0
    2.1212   -1.4634   -0.1322 C   0  0  0  0  0  0  0  0  0  0  0  0
    3.3946   -0.9214    0.0464 C   0  0  0  0  0  0  0  0  0  0  0  0
    4.6791   -1.6664    0.0956 C   0  0  0  0  0  0  0  0  0  0  0  0
    5.6758   -0.6431    0.2981 N   0  0  0  0  0  0  0  0  0  0  0  0
    5.0506    0.6576    0.3682 C   0  0  0  0  0  0  0  0  0  0  0  0
    5.7414    1.6773    0.5390 O   0  0  0  0  0  0  0  0  0  0  0  0
    3.6321    0.4301    0.2061 C   0  0  0  0  0  0  0  0  0  0  0  0
    2.5663    1.3151    0.1965 C   0  0  0  0  0  0  0  0  0  0  0  0
    2.4087    2.6598    0.3747 C   0  0  0  0  0  0  0  0  0  0  0  0
    3.2570    3.6970    0.5815 C   0  0  0  0  0  0  0  0  0  0  0  0
    2.7223    4.9826    0.7263 C   0  0  0  0  0  0  0  0  0  0  0  0
    1.3653    5.1987    0.6613 C   0  0  0  0  0  0  0  0  0  0  0  0
    0.4944    4.1468    0.4506 C   0  0  0  0  0  0  0  0  0  0  0  0
    1.0459    2.8793    0.3097 C   0  0  0  0  0  0  0  0  0  0  0  0
    0.3923    1.7530    0.1032 N   0  0  0  0  0  0  0  0  0  0  0  0
    1.3220    0.7641    0.0201 C   0  0  0  0  0  0  0  0  0  0  0  0
    1.0881   -0.6098   -0.1512 C   0  0  0  0  0  0  0  0  0  0  0  0
   -4.5050    2.7874    0.2181 H   0  0  0  0  0  0  0  0  0  0  0  0
   -5.0152    2.5954   -1.4846 H   0  0  0  0  0  0  0  0  0  0  0  0
   -5.9865    1.8736   -0.1140 H   0  0  0  0  0  0  0  0  0  0  0  0
   -4.6708    0.0501   -0.7072 H   0  0  0  0  0  0  0  0  0  0  0  0
   -3.6459    0.9609    1.3922 H   0  0  0  0  0  0  0  0  0  0  0  0
   -2.2247    2.7003    1.2119 H   0  0  0  0  0  0  0  0  0  0  0  0
   -2.6189    2.7330   -0.5135 H   0  0  0  0  0  0  0  0  0  0  0  0
   -0.9798    0.7663    1.0620 H   0  0  0  0  0  0  0  0  0  0  0  0
   -1.2319   -1.8497   -2.3960 H   0  0  0  0  0  0  0  0  0  0  0  0
   -2.8636   -1.9495   -1.6828 H   0  0  0  0  0  0  0  0  0  0  0  0
   -2.2916   -0.4677   -2.5918 H   0  0  0  0  0  0  0  0  0  0  0  0
   -2.1277   -0.7486    1.4625 H   0  0  0  0  0  0  0  0  0  0  0  0
   -2.9558   -2.8425    1.5144 H   0  0  0  0  0  0  0  0  0  0  0  0
   -4.6392   -2.8240    0.9086 H   0  0  0  0  0  0  0  0  0  0  0  0
   -4.1482   -1.5632    2.0435 H   0  0  0  0  0  0  0  0  0  0  0  0
   -1.5512   -3.6189   -0.7668 H   0  0  0  0  0  0  0  0  0  0  0  0
   -0.5187   -5.8172   -0.8832 H   0  0  0  0  0  0  0  0  0  0  0  0
    1.9167   -6.0362   -0.6324 H   0  0  0  0  0  0  0  0  0  0  0  0
    3.3134   -4.0211   -0.2722 H   0  0  0  0  0  0  0  0  0  0  0  0
    4.7040   -2.3997    0.9357 H   0  0  0  0  0  0  0  0  0  0  0  0
    4.8766   -2.2502   -0.8219 H   0  0  0  0  0  0  0  0  0  0  0  0
    6.6886   -0.8471    0.3779 H   0  0  0  0  0  0  0  0  0  0  0  0
    4.3051    3.5494    0.6320 H   0  0  0  0  0  0  0  0  0  0  0  0
    3.4425    5.7718    0.8891 H   0  0  0  0  0  0  0  0  0  0  0  0
    0.9862    6.2225    0.7794 H   0  0  0  0  0  0  0  0  0  0  0  0
   -0.5649    4.2785    0.3948 H   0  0  0  0  0  0  0  0  0  0  0  0
  1  2  1  0
  2  3  1  0
  3  4  1  0
  4  5  1  0
  5  6  1  0
  6  7  1  0
  7  8  1  6
  7  9  1  0
  9 10  1  0
 10 11  1  0
  7 12  1  0
 12 13  1  0
 13 14  2  0
 14 15  1  0
 15 16  2  0
 16 17  1  0
 17 18  2  0
 18 19  1  0
 19 20  2  0
 20 21  1  0
 21 22  1  0
 22 23  1  0
 23 24  2  0
 23 25  1  0
 25 26  2  0
 26 27  1  0
 27 28  2  0
 28 29  1  0
 29 30  2  0
 30 31  1  0
 31 32  2  0
 32 33  1  0
 33 34  1  0
 34 35  2  0
  9  3  1  0
 35 12  1  0
 33  5  1  0
 18 13  1  0
 35 19  1  0
 25 20  1  0
 34 26  1  0
 32 27  1  0
  1 36  1  0
  1 37  1  0
  1 38  1  0
  2 39  1  0
  3 40  1  1
  4 41  1  0
  4 42  1  0
  5 43  1  1
  8 44  1  0
  8 45  1  0
  8 46  1  0
  9 47  1  1
 11 48  1  0
 11 49  1  0
 11 50  1  0
 14 51  1  0
 15 52  1  0
 16 53  1  0
 17 54  1  0
 21 55  1  0
 21 56  1  0
 22 57  1  0
 28 58  1  0
 29 59  1  0
 30 60  1  0
 31 61  1  0
M  END
$$$$
[H]c1nc2c(c([H])c1C(=O)N([H])[C@]([H])(C(=O)N([H])[C@]1([H])C([H])([H])C([H])([H])[C@@]([H])(c3c([H])c([H])c([H])c([H])c3[H])C([H])([H])C1([H])[H])C([H])([H])[H])c([H])c([H])n2[H]
     RDKit          3D

 55 58  0  0  0  0  0  0  0  0999 V2000
    2.1741    2.5596   -0.4629 C   0  0  0  0  0  0  0  0  0  0  0  0
    2.0365    1.2969    0.3621 C   0  0  2  0  0  0  0  0  0  0  0  0
    3.0357    0.3352   -0.0739 N   0  0  0  0  0  0  0  0  0  0  0  0
    4.2423    0.1664    0.5977 C   0  0  0  0  0  0  0  0  0  0  0  0
    4.4950    0.8908    1.6534 O   0  0  0  0  0  0  0  0  0  0  0  0
    5.2352   -0.7957    0.1543 C   0  0  0  0  0  0  0  0  0  0  0  0
    4.8360   -2.0148   -0.4089 C   0  0  0  0  0  0  0  0  0  0  0  0
    5.7641   -2.8804   -0.8137 N   0  0  0  0  0  0  0  0  0  0  0  0
    7.0983   -2.6818   -0.7267 C   0  0  0  0  0  0  0  0  0  0  0  0
    8.1674   -3.4215   -1.0736 N   0  0  0  0  0  0  0  0  0  0  0  0
    9.2962   -2.7378   -0.7626 C   0  0  0  0  0  0  0  0  0  0  0  0
    8.9256   -1.5385   -0.2057 C   0  0  0  0  0  0  0  0  0  0  0  0
    7.5404   -1.4873   -0.1754 C   0  0  0  0  0  0  0  0  0  0  0  0
    6.5986   -0.5652    0.2551 C   0  0  0  0  0  0  0  0  0  0  0  0
    0.6793    0.7494    0.3299 C   0  0  0  0  0  0  0  0  0  0  0  0
    0.5831   -0.5290    0.3455 O   0  0  0  0  0  0  0  0  0  0  0  0
   -0.5232    1.4661    0.2781 N   0  0  0  0  0  0  0  0  0  0  0  0
   -1.8320    0.8391    0.2503 C   0  0  1  0  0  0  0  0  0  0  0  0
   -2.8561    1.5960    0.9733 C   0  0  0  0  0  0  0  0  0  0  0  0
   -4.1476    1.8985    0.3113 C   0  0  0  0  0  0  0  0  0  0  0  0
   -4.6432    0.9199   -0.6865 C   0  0  1  0  0  0  0  0  0  0  0  0
   -3.5977   -0.1164   -1.0705 C   0  0  0  0  0  0  0  0  0  0  0  0
   -2.2845    0.6670   -1.2055 C   0  0  0  0  0  0  0  0  0  0  0  0
   -5.8322    0.1835   -0.2116 C   0  0  0  0  0  0  0  0  0  0  0  0
   -5.9243   -0.2721    1.0805 C   0  0  0  0  0  0  0  0  0  0  0  0
   -7.0036   -0.9781    1.5774 C   0  0  0  0  0  0  0  0  0  0  0  0
   -8.0610   -1.2510    0.7413 C   0  0  0  0  0  0  0  0  0  0  0  0
   -8.0081   -0.8111   -0.5618 C   0  0  0  0  0  0  0  0  0  0  0  0
   -6.9193   -0.1067   -1.0381 C   0  0  0  0  0  0  0  0  0  0  0  0
    2.4556    3.3970    0.2189 H   0  0  0  0  0  0  0  0  0  0  0  0
    1.2022    2.8508   -0.9301 H   0  0  0  0  0  0  0  0  0  0  0  0
    2.9713    2.3983   -1.2350 H   0  0  0  0  0  0  0  0  0  0  0  0
    2.3580    1.5394    1.4318 H   0  0  0  0  0  0  0  0  0  0  0  0
    2.8486   -0.2653   -0.9416 H   0  0  0  0  0  0  0  0  0  0  0  0
    3.7647   -2.1788   -0.4816 H   0  0  0  0  0  0  0  0  0  0  0  0
    8.1310   -4.3666   -1.5095 H   0  0  0  0  0  0  0  0  0  0  0  0
   10.3176   -3.0632   -0.9190 H   0  0  0  0  0  0  0  0  0  0  0  0
    9.5483   -0.7381    0.1595 H   0  0  0  0  0  0  0  0  0  0  0  0
    6.9196    0.3753    0.6918 H   0  0  0  0  0  0  0  0  0  0  0  0
   -0.4953    2.5057    0.2517 H   0  0  0  0  0  0  0  0  0  0  0  0
   -1.6807   -0.1902    0.6662 H   0  0  0  0  0  0  0  0  0  0  0  0
   -2.3772    2.5711    1.3092 H   0  0  0  0  0  0  0  0  0  0  0  0
   -3.0319    1.0727    1.9630 H   0  0  0  0  0  0  0  0  0  0  0  0
   -4.9295    2.0404    1.1042 H   0  0  0  0  0  0  0  0  0  0  0  0
   -4.0609    2.8972   -0.1671 H   0  0  0  0  0  0  0  0  0  0  0  0
   -4.9038    1.3951   -1.6582 H   0  0  0  0  0  0  0  0  0  0  0  0
   -3.7797   -0.5379   -2.0601 H   0  0  0  0  0  0  0  0  0  0  0  0
   -3.4380   -0.8945   -0.3270 H   0  0  0  0  0  0  0  0  0  0  0  0
   -2.5535    1.6647   -1.6275 H   0  0  0  0  0  0  0  0  0  0  0  0
   -1.5749    0.1112   -1.8025 H   0  0  0  0  0  0  0  0  0  0  0  0
   -5.0973   -0.0730    1.7857 H   0  0  0  0  0  0  0  0  0  0  0  0
   -7.0425   -1.3194    2.5935 H   0  0  0  0  0  0  0  0  0  0  0  0
   -8.9382   -1.8024    1.0635 H   0  0  0  0  0  0  0  0  0  0  0  0
   -8.8425   -1.0256   -1.2269 H   0  0  0  0  0  0  0  0  0  0  0  0
   -6.8462    0.2550   -2.0530 H   0  0  0  0  0  0  0  0  0  0  0  0
  1  2  1  0
  2  3  1  0
  3  4  1  0
  4  5  2  0
  4  6  1  0
  6  7  2  0
  7  8  1  0
  8  9  2  0
  9 10  1  0
 10 11  1  0
 11 12  2  0
 12 13  1  0
 13 14  2  0
  2 15  1  0
 15 16  2  0
 15 17  1  0
 17 18  1  0
 18 19  1  0
 19 20  1  0
 20 21  1  0
 21 22  1  0
 22 23  1  0
 21 24  1  0
 24 25  2  0
 25 26  1  0
 26 27  2  0
 27 28  1  0
 28 29  2  0
 14  6  1  0
 23 18  1  0
 29 24  1  0
 13  9  1  0
  1 30  1  0
  1 31  1  0
  1 32  1  0
  2 33  1  1
  3 34  1  0
  7 35  1  0
 10 36  1  0
 11 37  1  0
 12 38  1  0
 14 39  1  0
 17 40  1  0
 18 41  1  1
 19 42  1  0
 19 43  1  0
 20 44  1  0
 20 45  1  0
 21 46  1  6
 22 47  1  0
 22 48  1  0
 23 49  1  0
 23 50  1  0
 25 51  1  0
 26 52  1  0
 27 53  1  0
 28 54  1  0
 29 55  1  0
M  END
$$$$
[H]c1c([H])c(F)c([H])c([C@@]2([H])C([H])([H])N(C(=O)c3c([H])c([H])c(Cl)c([H])c3[H])C([H])([H])[C@@]2([H])C([H])([H])[H])c1[H]
     RDKit          3D

 39 41  0  0  0  0  0  0  0  0999 V2000
   -1.3972   -2.2208   -0.4211 C   0  0  0  0  0  0  0  0  0  0  0  0
   -1.0083   -0.9234   -1.0242 C   0  0  2  0  0  0  0  0  0  0  0  0
    0.5250   -0.7907   -0.8902 C   0  0  0  0  0  0  0  0  0  0  0  0
    0.7658    0.0250    0.2613 N   0  0  0  0  0  0  0  0  0  0  0  0
   -0.5443    0.2427    0.9105 C   0  0  0  0  0  0  0  0  0  0  0  0
   -1.4377    0.3084   -0.2983 C   0  0  2  0  0  0  0  0  0  0  0  0
   -2.8529    0.4295   -0.0017 C   0  0  0  0  0  0  0  0  0  0  0  0
   -3.6157    1.3925   -0.6259 C   0  0  0  0  0  0  0  0  0  0  0  0
   -4.9758    1.5338   -0.3531 C   0  0  0  0  0  0  0  0  0  0  0  0
   -5.5951    0.7055    0.5562 C   0  0  0  0  0  0  0  0  0  0  0  0
   -4.8433   -0.2569    1.1832 C   0  0  0  0  0  0  0  0  0  0  0  0
   -5.4590   -1.0851    2.0914 F   0  0  0  0  0  0  0  0  0  0  0  0
   -3.5037   -0.3772    0.8980 C   0  0  0  0  0  0  0  0  0  0  0  0
    1.9592    0.5564    0.7771 C   0  0  0  0  0  0  0  0  0  0  0  0
    1.7595    1.2765    1.8554 O   0  0  0  0  0  0  0  0  0  0  0  0
    3.3066    0.4303    0.3142 C   0  0  0  0  0  0  0  0  0  0  0  0
    3.7414   -0.2953   -0.7415 C   0  0  0  0  0  0  0  0  0  0  0  0
    5.0944   -0.3519   -1.1337 C   0  0  0  0  0  0  0  0  0  0  0  0
    6.0187    0.3516   -0.4255 C   0  0  0  0  0  0  0  0  0  0  0  0
    7.7025    0.3282   -0.8517 Cl  0  0  0  0  0  0  0  0  0  0  0  0
    5.6282    1.1068    0.6594 C   0  0  0  0  0  0  0  0  0  0  0  0
    4.2978    1.1337    1.0068 C   0  0  0  0  0  0  0  0  0  0  0  0
   -2.4674   -2.4661   -0.5027 H   0  0  0  0  0  0  0  0  0  0  0  0
   -1.0476   -2.3682    0.6137 H   0  0  0  0  0  0  0  0  0  0  0  0
   -0.8808   -3.0338   -1.0150 H   0  0  0  0  0  0  0  0  0  0  0  0
   -1.2318   -0.8894   -2.1142 H   0  0  0  0  0  0  0  0  0  0  0  0
    0.9100   -0.3210   -1.8288 H   0  0  0  0  0  0  0  0  0  0  0  0
    0.9819   -1.7822   -0.8025 H   0  0  0  0  0  0  0  0  0  0  0  0
   -0.7006   -0.6175    1.5616 H   0  0  0  0  0  0  0  0  0  0  0  0
   -0.5431    1.2129    1.4505 H   0  0  0  0  0  0  0  0  0  0  0  0
   -1.0500    1.1666   -0.9235 H   0  0  0  0  0  0  0  0  0  0  0  0
   -3.1861    2.0675   -1.3450 H   0  0  0  0  0  0  0  0  0  0  0  0
   -5.5909    2.2831   -0.8324 H   0  0  0  0  0  0  0  0  0  0  0  0
   -6.6725    0.8103    0.7785 H   0  0  0  0  0  0  0  0  0  0  0  0
   -2.9686   -1.1694    1.4448 H   0  0  0  0  0  0  0  0  0  0  0  0
    3.0774   -0.8691   -1.3271 H   0  0  0  0  0  0  0  0  0  0  0  0
    5.4006   -0.9417   -1.9812 H   0  0  0  0  0  0  0  0  0  0  0  0
    6.3678    1.6613    1.2152 H   0  0  0  0  0  0  0  0  0  0  0  0
    4.0358    1.7370    1.8615 H   0  0  0  0  0  0  0  0  0  0  0  0
  1  2  1  0
  2  3  1  0
  3  4  1  0
  4  5  1  0
  5  6  1  0
  6  7  1  0
  7  8  2  0
  8  9  1  0
  9 10  2  0
 10 11  1  0
 11 12  1  0
 11 13  2  0
  4 14  1  0
 14 15  2  0
 14 16  1  0
 16 17  2  0
 17 18  1  0
 18 19  2  0
 19 20  1  0
 19 21  1  0
 21 22  2  0
  6  2  1  0
 13  7  1  0
 22 16  1  0
  1 23  1  0
  1 24  1  0
  1 25  1  0
  2 26  1  6
  3 27  1  0
  3 28  1  0
  5 29  1  0
  5 30  1  0
  6 31  1  6
  8 32  1  0
  9 33  1  0
 10 34  1  0
 13 35  1  0
 17 36  1  0
 18 37  1  0
 21 38  1  0
 22 39  1  0
M  END
$$$$
[H]c1c([H])c(C(=O)N2C([H])([H])C([H])([H])N(S(=O)(=O)c3c([H])c([H])c(C#N)c([H])c3[H])C([H])([H])[C@@]2([H])C([H])([H])[H])c([H])c([H])c1Cl
     RDKit          3D

 45 47  0  0  0  0  0  0  0  0999 V2000
   -0.5400    2.5205    1.1389 C   0  0  0  0  0  0  0  0  0  0  0  0
   -0.4741    1.0290    1.0529 C   0  0  2  0  0  0  0  0  0  0  0  0
    0.8320    0.4829    0.5993 C   0  0  0  0  0  0  0  0  0  0  0  0
    1.1514    0.8468   -0.7638 N   0  0  0  0  0  0  0  0  0  0  0  0
    0.0032    1.2336   -1.5114 C   0  0  0  0  0  0  0  0  0  0  0  0
   -1.2454    0.4179   -1.1999 C   0  0  0  0  0  0  0  0  0  0  0  0
   -1.5560    0.4789    0.1775 N   0  0  0  0  0  0  0  0  0  0  0  0
   -2.7618    0.1201    0.7754 C   0  0  0  0  0  0  0  0  0  0  0  0
   -2.7832    0.3661    2.0784 O   0  0  0  0  0  0  0  0  0  0  0  0
   -3.9453   -0.4532    0.2151 C   0  0  0  0  0  0  0  0  0  0  0  0
   -4.0767   -0.9317   -1.0490 C   0  0  0  0  0  0  0  0  0  0  0  0
   -5.2849   -1.4537   -1.5745 C   0  0  0  0  0  0  0  0  0  0  0  0
   -6.3623   -1.4676   -0.7465 C   0  0  0  0  0  0  0  0  0  0  0  0
   -7.8729   -2.1132   -1.3834 Cl  0  0  0  0  0  0  0  0  0  0  0  0
   -6.2718   -0.9932    0.5430 C   0  0  0  0  0  0  0  0  0  0  0  0
   -5.1129   -0.4972    1.0315 C   0  0  0  0  0  0  0  0  0  0  0  0
    2.1207   -0.3430   -1.5412 S   0  0  0  0  0  0  0  0  0  0  0  0
    1.3745   -1.6528   -1.4520 O   0  0  0  0  0  0  0  0  0  0  0  0
    2.3346   -0.0437   -2.9754 O   0  0  0  0  0  0  0  0  0  0  0  0
    3.6288   -0.4610   -0.6421 C   0  0  0  0  0  0  0  0  0  0  0  0
    4.7189    0.3230   -0.9584 C   0  0  0  0  0  0  0  0  0  0  0  0
    5.9113    0.2481   -0.2680 C   0  0  0  0  0  0  0  0  0  0  0  0
    6.0598   -0.6336    0.7875 C   0  0  0  0  0  0  0  0  0  0  0  0
    4.9675   -1.4161    1.1009 C   0  0  0  0  0  0  0  0  0  0  0  0
    3.7756   -1.3403    0.4099 C   0  0  0  0  0  0  0  0  0  0  0  0
    7.2983   -0.7196    1.5137 C   0  0  0  0  0  0  0  0  0  0  0  0
    8.2908   -0.7725    2.1082 N   0  0  0  0  0  0  0  0  0  0  0  0
    0.4334    2.9550    0.8035 H   0  0  0  0  0  0  0  0  0  0  0  0
   -0.6684    2.8876    2.1905 H   0  0  0  0  0  0  0  0  0  0  0  0
   -1.3715    2.9595    0.5496 H   0  0  0  0  0  0  0  0  0  0  0  0
   -0.7086    0.6370    2.0637 H   0  0  0  0  0  0  0  0  0  0  0  0
    1.6274    0.9171    1.2395 H   0  0  0  0  0  0  0  0  0  0  0  0
    0.8497   -0.6145    0.7555 H   0  0  0  0  0  0  0  0  0  0  0  0
    0.2276    1.0044   -2.5945 H   0  0  0  0  0  0  0  0  0  0  0  0
   -0.1774    2.3121   -1.4748 H   0  0  0  0  0  0  0  0  0  0  0  0
   -1.0266   -0.6281   -1.4910 H   0  0  0  0  0  0  0  0  0  0  0  0
   -2.0378    0.9002   -1.8490 H   0  0  0  0  0  0  0  0  0  0  0  0
   -3.2451   -0.9656   -1.7204 H   0  0  0  0  0  0  0  0  0  0  0  0
   -5.2861   -1.8088   -2.5936 H   0  0  0  0  0  0  0  0  0  0  0  0
   -7.1865   -1.0408    1.1449 H   0  0  0  0  0  0  0  0  0  0  0  0
   -5.0228   -0.1236    2.0284 H   0  0  0  0  0  0  0  0  0  0  0  0
    4.6039    1.0244   -1.7964 H   0  0  0  0  0  0  0  0  0  0  0  0
    6.7703    0.8781   -0.5308 H   0  0  0  0  0  0  0  0  0  0  0  0
    5.1039   -2.1093    1.9408 H   0  0  0  0  0  0  0  0  0  0  0  0
    2.9346   -1.9595    0.6698 H   0  0  0  0  0  0  0  0  0  0  0  0
  1  2  1  0
  2  3  1  0
  3  4  1  0
  4  5  1  0
  5  6  1  0
  6  7  1  0
  7  8  1  0
  8  9  2  0
  8 10  1  0
 10 11  2  0
 11 12  1  0
 12 13  2  0
 13 14  1  0
 13 15  1  0
 15 16  2  0
  4 17  1  0
 17 18  2  0
 17 19  2  0
 17 20  1  0
 20 21  2  0
 21 22  1  0
 22 23  2  0
 23 24  1  0
 24 25  2  0
 23 26  1  0
 26 27  3  0
  7  2  1  0
 16 10  1  0
 25 20  1  0
  1 28  1  0
  1 29  1  0
  1 30  1  0
  2 31  1  1
  3 32  1  0
  3 33  1  0
  5 34  1  0
  5 35  1  0
  6 36  1  0
  6 37  1  0
 11 38  1  0
 12 39  1  0
 15 40  1  0
 16 41  1  0
 21 42  1  0
 22 43  1  0
 24 44  1  0
 25 45  1  0
M  END
$$$$
[H]c1nc(N([H])c2c([H])c([H])c(-c3c([H])c([H])c([H])c([H])c3[H])c([H])c2OC([H])([H])[H])nc(N([H])c2c([H])c([H])c([H])c([H])c2P(=O)(C([H])([H])[H])C([H])([H])[H])c1Cl
     RDKit          3D

 57 60  0  0  0  0  0  0  0  0999 V2000
    3.0099    1.9350    3.1380 C   0  0  0  0  0  0  0  0  0  0  0  0
    2.3086    1.3014    2.1105 O   0  0  0  0  0  0  0  0  0  0  0  0
    2.9782    0.6624    1.0878 C   0  0  0  0  0  0  0  0  0  0  0  0
    4.3500    0.6373    1.0607 C   0  0  0  0  0  0  0  0  0  0  0  0
    5.0276    0.0028    0.0455 C   0  0  0  0  0  0  0  0  0  0  0  0
    4.2895   -0.6022   -0.9362 C   0  0  0  0  0  0  0  0  0  0  0  0
    2.8858   -0.5761   -0.9078 C   0  0  0  0  0  0  0  0  0  0  0  0
    2.1946    0.0517    0.0965 C   0  0  0  0  0  0  0  0  0  0  0  0
    0.8130    0.1138    0.1824 N   0  0  0  0  0  0  0  0  0  0  0  0
   -0.1896   -0.3983   -0.6481 C   0  0  0  0  0  0  0  0  0  0  0  0
    0.0330   -1.1001   -1.7702 N   0  0  0  0  0  0  0  0  0  0  0  0
   -0.9384   -1.5791   -2.5469 C   0  0  0  0  0  0  0  0  0  0  0  0
   -2.2564   -1.3754   -2.2330 C   0  0  0  0  0  0  0  0  0  0  0  0
   -3.5511   -2.0115   -3.2643 Cl  0  0  0  0  0  0  0  0  0  0  0  0
   -2.5371   -0.6508   -1.0749 C   0  0  0  0  0  0  0  0  0  0  0  0
   -3.8923   -0.4382   -0.7462 N   0  0  0  0  0  0  0  0  0  0  0  0
   -4.4566    0.2444    0.3413 C   0  0  0  0  0  0  0  0  0  0  0  0
   -3.7348    0.8711    1.3437 C   0  0  0  0  0  0  0  0  0  0  0  0
   -4.3231    1.5416    2.4110 C   0  0  0  0  0  0  0  0  0  0  0  0
   -5.6891    1.6026    2.5027 C   0  0  0  0  0  0  0  0  0  0  0  0
   -6.4328    0.9857    1.5158 C   0  0  0  0  0  0  0  0  0  0  0  0
   -5.8396    0.3208    0.4576 C   0  0  0  0  0  0  0  0  0  0  0  0
   -6.8740   -0.4358   -0.7513 P   0  0  0  0  0  0  0  0  0  0  0  0
   -6.6825   -2.2305   -0.6946 C   0  0  0  0  0  0  0  0  0  0  0  0
   -6.7043    0.2460   -2.4123 C   0  0  0  0  0  0  0  0  0  0  0  0
   -8.3495   -0.1760   -0.3768 O   0  0  0  0  0  0  0  0  0  0  0  0
   -1.5008   -0.2175   -0.3709 N   0  0  0  0  0  0  0  0  0  0  0  0
    6.4827   -0.0340   -0.0003 C   0  0  0  0  0  0  0  0  0  0  0  0
    7.2541    1.0043    0.4985 C   0  0  0  0  0  0  0  0  0  0  0  0
    8.6353    0.9471    0.4438 C   0  0  0  0  0  0  0  0  0  0  0  0
    9.2910   -0.1364   -0.1046 C   0  0  0  0  0  0  0  0  0  0  0  0
    8.5312   -1.1750   -0.6038 C   0  0  0  0  0  0  0  0  0  0  0  0
    7.1544   -1.1035   -0.5421 C   0  0  0  0  0  0  0  0  0  0  0  0
    2.3247    2.4561    3.8299 H   0  0  0  0  0  0  0  0  0  0  0  0
    3.5502    1.1435    3.7309 H   0  0  0  0  0  0  0  0  0  0  0  0
    3.7859    2.6392    2.7500 H   0  0  0  0  0  0  0  0  0  0  0  0
    4.8980    1.1388    1.8735 H   0  0  0  0  0  0  0  0  0  0  0  0
    4.8007   -1.1022   -1.7364 H   0  0  0  0  0  0  0  0  0  0  0  0
    2.3963   -1.0681   -1.7054 H   0  0  0  0  0  0  0  0  0  0  0  0
    0.4211    0.6475    1.0332 H   0  0  0  0  0  0  0  0  0  0  0  0
   -0.7159   -2.1471   -3.4546 H   0  0  0  0  0  0  0  0  0  0  0  0
   -4.5808   -0.8622   -1.4308 H   0  0  0  0  0  0  0  0  0  0  0  0
   -2.6592    0.8815    1.3642 H   0  0  0  0  0  0  0  0  0  0  0  0
   -3.7410    2.0137    3.1662 H   0  0  0  0  0  0  0  0  0  0  0  0
   -6.1716    2.1214    3.3282 H   0  0  0  0  0  0  0  0  0  0  0  0
   -7.5333    1.0172    1.5619 H   0  0  0  0  0  0  0  0  0  0  0  0
   -7.4913   -2.6615   -0.0916 H   0  0  0  0  0  0  0  0  0  0  0  0
   -5.7386   -2.5368   -0.1981 H   0  0  0  0  0  0  0  0  0  0  0  0
   -6.7818   -2.6853   -1.7176 H   0  0  0  0  0  0  0  0  0  0  0  0
   -5.8013    0.9148   -2.4705 H   0  0  0  0  0  0  0  0  0  0  0  0
   -7.5529    0.8791   -2.7014 H   0  0  0  0  0  0  0  0  0  0  0  0
   -6.5753   -0.5525   -3.1879 H   0  0  0  0  0  0  0  0  0  0  0  0
    6.7248    1.8622    0.9328 H   0  0  0  0  0  0  0  0  0  0  0  0
    9.1807    1.7882    0.8493 H   0  0  0  0  0  0  0  0  0  0  0  0
   10.3671   -0.1670   -0.1403 H   0  0  0  0  0  0  0  0  0  0  0  0
    9.0399   -2.0307   -1.0367 H   0  0  0  0  0  0  0  0  0  0  0  0
    6.5665   -1.9176   -0.9336 H   0  0  0  0  0  0  0  0  0  0  0  0
  1  2  1  0
  2  3  1  0
  3  4  2  0
  4  5  1  0
  5  6  2  0
  6  7  1  0
  7  8  2  0
  8  9  1  0
  9 10  1  0
 10 11  2  0
 11 12  1  0
 12 13  2  0
 13 14  1  0
 13 15  1  0
 15 16  1  0
 16 17  1  0
 17 18  2  0
 18 19  1  0
 19 20  2  0
 20 21  1  0
 21 22  2  0
 22 23  1  0
 23 24  1  0
 23 25  1  0
 23 26  2  0
 15 27  2  0
  5 28  1  0
 28 29  2  0
 29 30  1  0
 30 31  2  0
 31 32  1  0
 32 33  2  0
  8  3  1  0
 27 10  1  0
 33 28  1  0
 22 17  1  0
  1 34  1  0
  1 35  1  0
  1 36  1  0
  4 37  1  0
  6 38  1  0
  7 39  1  0
  9 40  1  0
 12 41  1  0
 16 42  1  0
 18 43  1  0
 19 44  1  0
 20 45  1  0
 21 46  1  0
 24 47  1  0
 24 48  1  0
 24 49  1  0
 25 50  1  0
 25 51  1  0
 25 52  1  0
 29 53  1  0
 30 54  1  0
 31 55  1  0
 32 56  1  0
 33 57  1  0
M  END
$$$$
[H]OC([H])([H])[C@]1([H])O[C@@]([H])(n2c([H])nc3c(N([H])[H])nc([H])nc32)[C@]([H])(O[H])[C@@]1([H])O[H]
     RDKit          3D

 32 34  0  0  0  0  0  0  0  0999 V2000
    5.2993    1.2493   -0.0364 N   0  0  0  0  0  0  0  0  0  0  0  0
    4.2460    0.3275   -0.2484 C   0  0  0  0  0  0  0  0  0  0  0  0
    4.4790   -0.9552   -0.5877 N   0  0  0  0  0  0  0  0  0  0  0  0
    3.4999   -1.8544   -0.7957 C   0  0  0  0  0  0  0  0  0  0  0  0
    2.2316   -1.4323   -0.6529 N   0  0  0  0  0  0  0  0  0  0  0  0
    1.9202   -0.1711   -0.3170 C   0  0  0  0  0  0  0  0  0  0  0  0
    0.7163    0.4061   -0.1355 N   0  0  0  0  0  0  0  0  0  0  0  0
    0.9940    1.6851    0.1895 C   0  0  0  0  0  0  0  0  0  0  0  0
    2.3234    1.8933    0.2088 N   0  0  0  0  0  0  0  0  0  0  0  0
    2.9172    0.7380   -0.1069 C   0  0  0  0  0  0  0  0  0  0  0  0
   -0.5647   -0.2263   -0.2663 C   0  0  2  0  0  0  0  0  0  0  0  0
   -1.5038    0.5002   -0.9388 O   0  0  0  0  0  0  0  0  0  0  0  0
   -2.7192    0.3829   -0.3189 C   0  0  1  0  0  0  0  0  0  0  0  0
   -3.8662    0.2050   -1.2858 C   0  0  0  0  0  0  0  0  0  0  0  0
   -3.9013    1.3212   -2.1162 O   0  0  0  0  0  0  0  0  0  0  0  0
   -2.6338   -0.7637    0.6663 C   0  0  2  0  0  0  0  0  0  0  0  0
   -3.4894   -0.6334    1.7258 O   0  0  0  0  0  0  0  0  0  0  0  0
   -1.1622   -0.6194    1.0797 C   0  0  1  0  0  0  0  0  0  0  0  0
   -0.6391   -1.7900    1.5636 O   0  0  0  0  0  0  0  0  0  0  0  0
    6.1955    0.9045    0.3770 H   0  0  0  0  0  0  0  0  0  0  0  0
    5.1455    2.2471   -0.3011 H   0  0  0  0  0  0  0  0  0  0  0  0
    3.7456   -2.8685   -1.0656 H   0  0  0  0  0  0  0  0  0  0  0  0
    0.2782    2.4624    0.4102 H   0  0  0  0  0  0  0  0  0  0  0  0
   -0.4279   -1.1947   -0.8247 H   0  0  0  0  0  0  0  0  0  0  0  0
   -2.9028    1.3045    0.2839 H   0  0  0  0  0  0  0  0  0  0  0  0
   -4.8005    0.1479   -0.6936 H   0  0  0  0  0  0  0  0  0  0  0  0
   -3.7117   -0.7069   -1.8913 H   0  0  0  0  0  0  0  0  0  0  0  0
   -4.2562    2.1090   -1.6255 H   0  0  0  0  0  0  0  0  0  0  0  0
   -2.7044   -1.7448    0.1399 H   0  0  0  0  0  0  0  0  0  0  0  0
   -3.5867   -1.5147    2.1686 H   0  0  0  0  0  0  0  0  0  0  0  0
   -1.0648    0.2442    1.7645 H   0  0  0  0  0  0  0  0  0  0  0  0
   -0.0571   -1.6528    2.3746 H   0  0  0  0  0  0  0  0  0  0  0  0
  1  2  1  0
  2  3  2  0
  3  4  1  0
  4  5  2  0
  5  6  1  0
  6  7  1  0
  7  8  1  0
  8  9  2  0
  9 10  1  0
  7 11  1  0
 11 12  1  0
 12 13  1  0
 13 14  1  0
 14 15  1  0
 13 16  1  0
 16 17  1  0
 16 18  1  0
 18 19  1  0
 10  2  1  0
 18 11  1  0
 10  6  2  0
  1 20  1  0
  1 21  1  0
  4 22  1  0
  8 23  1  0
 11 24  1  6
 13 25  1  1
 14 26  1  0
 14 27  1  0
 15 28  1  0
 16 29  1  6
 17 30  1  0
 18 31  1  1
 19 32  1  0
M  END
$$$$
[H]c1c(F)c([H])c(-c2c([H])c([H])c3c(c2[H])c(C2([H])C([H])([H])C([H])([H])N(C([H])([H])[H])C([H])([H])C2([H])[H])c([H])n3[H])c([H])c1F
     RDKit          3D

 44 47  0  0  0  0  0  0  0  0999 V2000
    5.7311    0.4692   -0.8601 C   0  0  0  0  0  0  0  0  0  0  0  0
    4.3278    0.8683   -0.7352 N   0  0  0  0  0  0  0  0  0  0  0  0
    4.0643    0.9113    0.6952 C   0  0  0  0  0  0  0  0  0  0  0  0
    2.6782    1.2384    1.0556 C   0  0  0  0  0  0  0  0  0  0  0  0
    1.5510    0.8202    0.1907 C   0  0  0  0  0  0  0  0  0  0  0  0
    2.0085    0.5765   -1.2573 C   0  0  0  0  0  0  0  0  0  0  0  0
    3.3895   -0.0387   -1.3192 C   0  0  0  0  0  0  0  0  0  0  0  0
    0.9371   -0.4739    0.6859 C   0  0  0  0  0  0  0  0  0  0  0  0
    1.6396   -1.5192    1.2431 C   0  0  0  0  0  0  0  0  0  0  0  0
    0.7771   -2.5199    1.4452 N   0  0  0  0  0  0  0  0  0  0  0  0
   -0.4657   -2.1295    1.0289 C   0  0  0  0  0  0  0  0  0  0  0  0
   -1.7011   -2.7340    1.0690 C   0  0  0  0  0  0  0  0  0  0  0  0
   -2.8097   -2.0155    0.6332 C   0  0  0  0  0  0  0  0  0  0  0  0
   -2.7168   -0.7308    0.1665 C   0  0  0  0  0  0  0  0  0  0  0  0
   -1.4763   -0.1280    0.1186 C   0  0  0  0  0  0  0  0  0  0  0  0
   -0.3869   -0.8516    0.5510 C   0  0  0  0  0  0  0  0  0  0  0  0
   -3.9289    0.0098   -0.1221 C   0  0  0  0  0  0  0  0  0  0  0  0
   -3.8576    1.3994    0.0718 C   0  0  0  0  0  0  0  0  0  0  0  0
   -4.9680    2.1952   -0.1157 C   0  0  0  0  0  0  0  0  0  0  0  0
   -4.8566    3.5458    0.0825 F   0  0  0  0  0  0  0  0  0  0  0  0
   -6.1694    1.6206   -0.5044 C   0  0  0  0  0  0  0  0  0  0  0  0
   -6.2590    0.2662   -0.7030 C   0  0  0  0  0  0  0  0  0  0  0  0
   -7.4586   -0.2455   -1.0624 F   0  0  0  0  0  0  0  0  0  0  0  0
   -5.1224   -0.5110   -0.5027 C   0  0  0  0  0  0  0  0  0  0  0  0
    5.8607   -0.1527   -1.7621 H   0  0  0  0  0  0  0  0  0  0  0  0
    6.0083   -0.1024    0.0629 H   0  0  0  0  0  0  0  0  0  0  0  0
    6.3282    1.4178   -0.8834 H   0  0  0  0  0  0  0  0  0  0  0  0
    4.7496    1.7226    1.1066 H   0  0  0  0  0  0  0  0  0  0  0  0
    4.4634   -0.0068    1.2220 H   0  0  0  0  0  0  0  0  0  0  0  0
    2.4739    0.7514    2.0691 H   0  0  0  0  0  0  0  0  0  0  0  0
    2.6002    2.3495    1.3276 H   0  0  0  0  0  0  0  0  0  0  0  0
    0.7640    1.5668    0.1623 H   0  0  0  0  0  0  0  0  0  0  0  0
    1.2450   -0.0813   -1.7277 H   0  0  0  0  0  0  0  0  0  0  0  0
    2.0222    1.5357   -1.8052 H   0  0  0  0  0  0  0  0  0  0  0  0
    3.6487   -0.1549   -2.3860 H   0  0  0  0  0  0  0  0  0  0  0  0
    3.4578   -1.0315   -0.8365 H   0  0  0  0  0  0  0  0  0  0  0  0
    2.6692   -1.5384    1.4792 H   0  0  0  0  0  0  0  0  0  0  0  0
    0.8994   -3.4718    1.8413 H   0  0  0  0  0  0  0  0  0  0  0  0
   -1.7939   -3.7361    1.4286 H   0  0  0  0  0  0  0  0  0  0  0  0
   -3.7782   -2.4901    0.6655 H   0  0  0  0  0  0  0  0  0  0  0  0
   -1.3714    0.8591   -0.2631 H   0  0  0  0  0  0  0  0  0  0  0  0
   -2.9242    1.8426    0.3800 H   0  0  0  0  0  0  0  0  0  0  0  0
   -7.0372    2.2726   -0.6398 H   0  0  0  0  0  0  0  0  0  0  0  0
   -5.2128   -1.5751   -0.6590 H   0  0  0  0  0  0  0  0  0  0  0  0
  1  2  1  0
  2  3  1  0
  3  4  1  0
  4  5  1  0
  5  6  1  0
  6  7  1  0
  5  8  1  0
  8  9  2  0
  9 10  1  0
 10 11  1  0
 11 12  2  0
 12 13  1  0
 13 14  2  0
 14 15  1  0
 15 16  2  0
 14 17  1  0
 17 18  2  0
 18 19  1  0
 19 20  1  0
 19 21  2  0
 21 22  1  0
 22 23  1  0
 22 24  2  0
  7  2  1  0
 16  8  1  0
 24 17  1  0
 16 11  1  0
  1 25  1  0
  1 26  1  0
  1 27  1  0
  3 28  1  0
  3 29  1  0
  4 30  1  0
  4 31  1  0
  5 32  1  0
  6 33  1  0
  6 34  1  0
  7 35  1  0
  7 36  1  0
  9 37  1  0
 10 38  1  0
 12 39  1  0
 13 40  1  0
 15 41  1  0
 18 42  1  0
 21 43  1  0
 24 44  1  0
M  END
$$$$
[H]c1nc(N([H])[C@]2([H])C([H])([H])C([H])([H])[C@]([H])(N([H])C(=O)C3([H])C([H])([H])C3([H])[H])C([H])([H])C2([H])[H])c2c(-c3c([H])c([H])c(N(C([H])([H])[H])C([H])([H])[H])c([H])c3[H])c([H])n([H])c2n1
     RDKit          3D

 61 65  0  0  0  0  0  0  0  0999 V2000
   -6.4197   -2.8663   -0.2167 C   0  0  0  0  0  0  0  0  0  0  0  0
   -5.0122   -2.6056   -0.2933 N   0  0  0  0  0  0  0  0  0  0  0  0
   -4.0866   -3.6931   -0.4292 C   0  0  0  0  0  0  0  0  0  0  0  0
   -4.5261   -1.2913   -0.2364 C   0  0  0  0  0  0  0  0  0  0  0  0
   -4.3319   -0.4814   -1.3215 C   0  0  0  0  0  0  0  0  0  0  0  0
   -3.8489    0.8002   -1.1700 C   0  0  0  0  0  0  0  0  0  0  0  0
   -3.5350    1.3439    0.0548 C   0  0  0  0  0  0  0  0  0  0  0  0
   -3.7437    0.4925    1.1476 C   0  0  0  0  0  0  0  0  0  0  0  0
   -4.2191   -0.7728    1.0134 C   0  0  0  0  0  0  0  0  0  0  0  0
   -3.1069    2.7165    0.2181 C   0  0  0  0  0  0  0  0  0  0  0  0
   -3.9889    3.8245    0.1826 C   0  0  0  0  0  0  0  0  0  0  0  0
   -3.3022    4.9330    0.4425 N   0  0  0  0  0  0  0  0  0  0  0  0
   -2.0078    4.6408    0.6505 C   0  0  0  0  0  0  0  0  0  0  0  0
   -0.9264    5.3666    0.9431 N   0  0  0  0  0  0  0  0  0  0  0  0
    0.2825    4.8013    1.1037 C   0  0  0  0  0  0  0  0  0  0  0  0
    0.4728    3.4930    0.9799 N   0  0  0  0  0  0  0  0  0  0  0  0
   -0.6188    2.7057    0.6772 C   0  0  0  0  0  0  0  0  0  0  0  0
   -0.4034    1.3329    0.4623 N   0  0  0  0  0  0  0  0  0  0  0  0
    0.9546    0.8008    0.7064 C   0  0  2  0  0  0  0  0  0  0  0  0
    1.9760    1.4470   -0.1610 C   0  0  0  0  0  0  0  0  0  0  0  0
    2.9653    0.4005   -0.6938 C   0  0  0  0  0  0  0  0  0  0  0  0
    3.4635   -0.3893    0.4978 C   0  0  1  0  0  0  0  0  0  0  0  0
    2.3075   -1.2351    0.9879 C   0  0  0  0  0  0  0  0  0  0  0  0
    0.9703   -0.7039    0.5668 C   0  0  0  0  0  0  0  0  0  0  0  0
    4.6111   -1.1904    0.1966 N   0  0  0  0  0  0  0  0  0  0  0  0
    5.8179   -0.9829    0.9128 C   0  0  0  0  0  0  0  0  0  0  0  0
    5.8882   -0.0948    1.8165 O   0  0  0  0  0  0  0  0  0  0  0  0
    7.0107   -1.8136    0.6017 C   0  0  0  0  0  0  0  0  0  0  0  0
    6.8365   -3.1496   -0.0151 C   0  0  0  0  0  0  0  0  0  0  0  0
    7.2970   -2.0146   -0.8693 C   0  0  0  0  0  0  0  0  0  0  0  0
   -1.8746    3.2540    0.5099 C   0  0  0  0  0  0  0  0  0  0  0  0
   -6.6497   -3.8859    0.1843 H   0  0  0  0  0  0  0  0  0  0  0  0
   -6.9383   -2.7693   -1.1920 H   0  0  0  0  0  0  0  0  0  0  0  0
   -6.9209   -2.1543    0.4799 H   0  0  0  0  0  0  0  0  0  0  0  0
   -3.5365   -3.5466   -1.3893 H   0  0  0  0  0  0  0  0  0  0  0  0
   -4.5696   -4.6908   -0.3625 H   0  0  0  0  0  0  0  0  0  0  0  0
   -3.3411   -3.5812    0.4110 H   0  0  0  0  0  0  0  0  0  0  0  0
   -4.5680   -0.8759   -2.2997 H   0  0  0  0  0  0  0  0  0  0  0  0
   -3.7027    1.4284   -2.0582 H   0  0  0  0  0  0  0  0  0  0  0  0
   -3.5163    0.8598    2.1389 H   0  0  0  0  0  0  0  0  0  0  0  0
   -4.3679   -1.4061    1.8952 H   0  0  0  0  0  0  0  0  0  0  0  0
   -5.0379    3.6924   -0.0306 H   0  0  0  0  0  0  0  0  0  0  0  0
   -3.7247    5.9049    0.4783 H   0  0  0  0  0  0  0  0  0  0  0  0
    1.1256    5.4607    1.3444 H   0  0  0  0  0  0  0  0  0  0  0  0
   -1.0659    0.6573    0.1297 H   0  0  0  0  0  0  0  0  0  0  0  0
    1.2404    1.0092    1.7781 H   0  0  0  0  0  0  0  0  0  0  0  0
    1.5802    1.9693   -1.0339 H   0  0  0  0  0  0  0  0  0  0  0  0
    2.6256    2.1630    0.4227 H   0  0  0  0  0  0  0  0  0  0  0  0
    2.4214   -0.2539   -1.4102 H   0  0  0  0  0  0  0  0  0  0  0  0
    3.7739    0.9234   -1.2141 H   0  0  0  0  0  0  0  0  0  0  0  0
    3.6859    0.3387    1.3074 H   0  0  0  0  0  0  0  0  0  0  0  0
    2.4050   -1.3773    2.0725 H   0  0  0  0  0  0  0  0  0  0  0  0
    2.4455   -2.2423    0.5055 H   0  0  0  0  0  0  0  0  0  0  0  0
    0.7048   -1.0158   -0.4637 H   0  0  0  0  0  0  0  0  0  0  0  0
    0.2157   -1.0967    1.3057 H   0  0  0  0  0  0  0  0  0  0  0  0
    4.5526   -1.9124   -0.5388 H   0  0  0  0  0  0  0  0  0  0  0  0
    7.9277   -1.5898    1.2115 H   0  0  0  0  0  0  0  0  0  0  0  0
    7.5519   -3.9774    0.2248 H   0  0  0  0  0  0  0  0  0  0  0  0
    5.7944   -3.4909   -0.1732 H   0  0  0  0  0  0  0  0  0  0  0  0
    8.3676   -2.0388   -1.1935 H   0  0  0  0  0  0  0  0  0  0  0  0
    6.6198   -1.5701   -1.6250 H   0  0  0  0  0  0  0  0  0  0  0  0
  1  2  1  0
  2  3  1  0
  2  4  1  0
  4  5  2  0
  5  6  1  0
  6  7  2  0
  7  8  1  0
  8  9  2  0
  7 10  1  0
 10 11  2  0
 11 12  1  0
 12 13  1  0
 13 14  2  0
 14 15  1  0
 15 16  2  0
 16 17  1  0
 17 18  1  0
 18 19  1  0
 19 20  1  0
 20 21  1  0
 21 22  1  0
 22 23  1  0
 23 24  1  0
 22 25  1  0
 25 26  1  0
 26 27  2  0
 26 28  1  0
 28 29  1  0
 29 30  1  0
 17 31  2  0
  9  4  1  0
 31 10  1  0
 31 13  1  0
 24 19  1  0
 30 28  1  0
  1 32  1  0
  1 33  1  0
  1 34  1  0
  3 35  1  0
  3 36  1  0
  3 37  1  0
  5 38  1  0
  6 39  1  0
  8 40  1  0
  9 41  1  0
 11 42  1  0
 12 43  1  0
 15 44  1  0
 18 45  1  0
 19 46  1  1
 20 47  1  0
 20 48  1  0
 21 49  1  0
 21 50  1  0
 22 51  1  1
 23 52  1  0
 23 53  1  0
 24 54  1  0
 24 55  1  0
 25 56  1  0
 28 57  1  0
 29 58  1  0
 29 59  1  0
 30 60  1  0
 30 61  1  0
M  END
$$$$
[H]c1c([H])c([H])c(C([H])([H])[C@@]([H])(C(=O)N([H])[C@]([H])(C(=O)N([H])[C@]([H])(C(=O)N([H])[H])C([H])([H])c2c([H])n([H])c3c([H])c([H])c([H])c([H])c23)C([H])([H])c2c([H])c([H])c([H])c([H])c2[H])N([H])[H])c([H])c1[H]
     RDKit          3D

 68 71  0  0  0  0  0  0  0  0999 V2000
    4.1166    1.6515   -0.8929 N   0  0  0  0  0  0  0  0  0  0  0  0
    3.4626    1.0067    0.2226 C   0  0  1  0  0  0  0  0  0  0  0  0
    3.3778    1.9940    1.3637 C   0  0  0  0  0  0  0  0  0  0  0  0
    4.7134    2.4318    1.7718 C   0  0  0  0  0  0  0  0  0  0  0  0
    5.4038    1.7665    2.7626 C   0  0  0  0  0  0  0  0  0  0  0  0
    6.6821    2.1616    3.1672 C   0  0  0  0  0  0  0  0  0  0  0  0
    7.2322    3.2613    2.5243 C   0  0  0  0  0  0  0  0  0  0  0  0
    6.5728    3.9530    1.5285 C   0  0  0  0  0  0  0  0  0  0  0  0
    5.3054    3.5220    1.1615 C   0  0  0  0  0  0  0  0  0  0  0  0
    2.1576    0.4958   -0.2110 C   0  0  0  0  0  0  0  0  0  0  0  0
    1.7833    0.7112   -1.3886 O   0  0  0  0  0  0  0  0  0  0  0  0
    1.2737   -0.2392    0.6246 N   0  0  0  0  0  0  0  0  0  0  0  0
   -0.0043   -0.7339    0.1842 C   0  0  1  0  0  0  0  0  0  0  0  0
   -0.0686   -2.2483    0.2014 C   0  0  0  0  0  0  0  0  0  0  0  0
    0.9524   -2.8509   -0.6879 C   0  0  0  0  0  0  0  0  0  0  0  0
    0.7195   -3.1522   -2.0171 C   0  0  0  0  0  0  0  0  0  0  0  0
    1.6881   -3.7096   -2.8238 C   0  0  0  0  0  0  0  0  0  0  0  0
    2.9301   -3.9833   -2.3161 C   0  0  0  0  0  0  0  0  0  0  0  0
    3.2034   -3.6942   -0.9832 C   0  0  0  0  0  0  0  0  0  0  0  0
    2.2079   -3.1336   -0.1962 C   0  0  0  0  0  0  0  0  0  0  0  0
   -1.0473   -0.2182    1.1067 C   0  0  0  0  0  0  0  0  0  0  0  0
   -0.7363    0.5142    2.0884 O   0  0  0  0  0  0  0  0  0  0  0  0
   -2.4175   -0.5427    0.8979 N   0  0  0  0  0  0  0  0  0  0  0  0
   -3.4263   -0.0498    1.7867 C   0  0  1  0  0  0  0  0  0  0  0  0
   -4.2874    1.0022    1.1847 C   0  0  0  0  0  0  0  0  0  0  0  0
   -5.0233    0.6187   -0.0245 C   0  0  0  0  0  0  0  0  0  0  0  0
   -6.3316    0.1087   -0.0360 C   0  0  0  0  0  0  0  0  0  0  0  0
   -6.6702   -0.1696   -1.3011 N   0  0  0  0  0  0  0  0  0  0  0  0
   -5.6344    0.1394   -2.1225 C   0  0  0  0  0  0  0  0  0  0  0  0
   -5.5172    0.0431   -3.4910 C   0  0  0  0  0  0  0  0  0  0  0  0
   -4.3508    0.4457   -4.0918 C   0  0  0  0  0  0  0  0  0  0  0  0
   -3.3430    0.9317   -3.2946 C   0  0  0  0  0  0  0  0  0  0  0  0
   -3.4469    1.0330   -1.9270 C   0  0  0  0  0  0  0  0  0  0  0  0
   -4.6139    0.6293   -1.3214 C   0  0  0  0  0  0  0  0  0  0  0  0
   -4.2235   -1.2088    2.3001 C   0  0  0  0  0  0  0  0  0  0  0  0
   -5.2898   -1.0105    3.2034 N   0  0  0  0  0  0  0  0  0  0  0  0
   -3.9781   -2.3954    1.9526 O   0  0  0  0  0  0  0  0  0  0  0  0
    5.1384    1.5214   -0.7441 H   0  0  0  0  0  0  0  0  0  0  0  0
    3.7817    1.3106   -1.8192 H   0  0  0  0  0  0  0  0  0  0  0  0
    4.0489    0.1304    0.5982 H   0  0  0  0  0  0  0  0  0  0  0  0
    2.8839    1.5136    2.2324 H   0  0  0  0  0  0  0  0  0  0  0  0
    2.7149    2.8259    1.0485 H   0  0  0  0  0  0  0  0  0  0  0  0
    4.8973    0.9121    3.2171 H   0  0  0  0  0  0  0  0  0  0  0  0
    7.1798    1.6112    3.9465 H   0  0  0  0  0  0  0  0  0  0  0  0
    8.2315    3.5685    2.8414 H   0  0  0  0  0  0  0  0  0  0  0  0
    7.0497    4.8038    1.0638 H   0  0  0  0  0  0  0  0  0  0  0  0
    4.7800    4.0600    0.3808 H   0  0  0  0  0  0  0  0  0  0  0  0
    1.5844   -0.4194    1.6031 H   0  0  0  0  0  0  0  0  0  0  0  0
   -0.2372   -0.4345   -0.8560 H   0  0  0  0  0  0  0  0  0  0  0  0
   -1.0561   -2.5367   -0.2180 H   0  0  0  0  0  0  0  0  0  0  0  0
   -0.0335   -2.6611    1.2245 H   0  0  0  0  0  0  0  0  0  0  0  0
   -0.2830   -2.9196   -2.3809 H   0  0  0  0  0  0  0  0  0  0  0  0
    1.4433   -3.9214   -3.8478 H   0  0  0  0  0  0  0  0  0  0  0  0
    3.7328   -4.4250   -2.9172 H   0  0  0  0  0  0  0  0  0  0  0  0
    4.1894   -3.9164   -0.5948 H   0  0  0  0  0  0  0  0  0  0  0  0
    2.4311   -2.9143    0.8323 H   0  0  0  0  0  0  0  0  0  0  0  0
   -2.7098   -1.1620    0.0942 H   0  0  0  0  0  0  0  0  0  0  0  0
   -2.9326    0.4323    2.6859 H   0  0  0  0  0  0  0  0  0  0  0  0
   -5.0237    1.3829    1.9553 H   0  0  0  0  0  0  0  0  0  0  0  0
   -3.6465    1.9181    0.9978 H   0  0  0  0  0  0  0  0  0  0  0  0
   -6.9498   -0.0307    0.8434 H   0  0  0  0  0  0  0  0  0  0  0  0
   -7.5892   -0.5593   -1.5700 H   0  0  0  0  0  0  0  0  0  0  0  0
   -6.3450   -0.3461   -4.0532 H   0  0  0  0  0  0  0  0  0  0  0  0
   -4.2227    0.3834   -5.1792 H   0  0  0  0  0  0  0  0  0  0  0  0
   -2.4318    1.2449   -3.7994 H   0  0  0  0  0  0  0  0  0  0  0  0
   -2.6337    1.4274   -1.3466 H   0  0  0  0  0  0  0  0  0  0  0  0
   -5.4646   -1.7014    3.9517 H   0  0  0  0  0  0  0  0  0  0  0  0
   -5.9003   -0.1800    3.1276 H   0  0  0  0  0  0  0  0  0  0  0  0
  1  2  1  0
  2  3  1  0
  3  4  1  0
  4  5  2  0
  5  6  1  0
  6  7  2  0
  7  8  1  0
  8  9  2  0
  2 10  1  0
 10 11  2  0
 10 12  1  0
 12 13  1  0
 13 14  1  0
 14 15  1  0
 15 16  2  0
 16 17  1  0
 17 18  2  0
 18 19  1  0
 19 20  2  0
 13 21  1  0
 21 22  2  0
 21 23  1  0
 23 24  1  0
 24 25  1  0
 25 26  1  0
 26 27  2  0
 27 28  1  0
 28 29  1  0
 29 30  2  0
 30 31  1  0
 31 32  2  0
 32 33  1  0
 33 34  2  0
 24 35  1  0
 35 36  1  0
 35 37  2  0
  9  4  1  0
 20 15  1  0
 34 26  1  0
 34 29  1  0
  1 38  1  0
  1 39  1  0
  2 40  1  1
  3 41  1  0
  3 42  1  0
  5 43  1  0
  6 44  1  0
  7 45  1  0
  8 46  1  0
  9 47  1  0
 12 48  1  0
 13 49  1  6
 14 50  1  0
 14 51  1  0
 16 52  1  0
 17 53  1  0
 18 54  1  0
 19 55  1  0
 20 56  1  0
 23 57  1  0
 24 58  1  1
 25 59  1  0
 25 60  1  0
 27 61  1  0
 28 62  1  0
 30 63  1  0
 31 64  1  0
 32 65  1  0
 33 66  1  0
 36 67  1  0
 36 68  1  0
M  END
$$$$
[H]c1c([H])c(N([H])S(=O)(=O)c2c([H])c([H])c(N3C([H])([H])C([H])([H])N(C([H])([H])[H])C([H])([H])C3([H])[H])c([H])c2[H])c([H])c([H])c1-c1c([H])c([H])c(S(=O)(=O)N([H])[H])c([H])c1[H]
     RDKit          3D

 59 62  0  0  0  0  0  0  0  0999 V2000
    6.5955   -1.8132    0.2140 C   0  0  0  0  0  0  0  0  0  0  0  0
    6.2385   -2.1446   -1.1369 N   0  0  0  0  0  0  0  0  0  0  0  0
    4.9011   -2.6929   -1.1427 C   0  0  0  0  0  0  0  0  0  0  0  0
    3.9726   -1.7114   -0.5126 C   0  0  0  0  0  0  0  0  0  0  0  0
    4.1598   -0.4235   -1.1424 N   0  0  0  0  0  0  0  0  0  0  0  0
    5.0839   -0.2620   -2.2118 C   0  0  0  0  0  0  0  0  0  0  0  0
    6.3787   -1.0191   -2.0266 C   0  0  0  0  0  0  0  0  0  0  0  0
    3.4056    0.6893   -0.6714 C   0  0  0  0  0  0  0  0  0  0  0  0
    2.6404    0.5075    0.4790 C   0  0  0  0  0  0  0  0  0  0  0  0
    1.8943    1.5391    0.9799 C   0  0  0  0  0  0  0  0  0  0  0  0
    1.8606    2.7848    0.3871 C   0  0  0  0  0  0  0  0  0  0  0  0
    2.6134    2.9474   -0.7373 C   0  0  0  0  0  0  0  0  0  0  0  0
    3.3691    1.9184   -1.2533 C   0  0  0  0  0  0  0  0  0  0  0  0
    0.8725    4.0132    1.1258 S   0  0  0  0  0  0  0  0  0  0  0  0
    1.5945    5.3396    1.0069 O   0  0  0  0  0  0  0  0  0  0  0  0
    0.8033    3.7269    2.5969 O   0  0  0  0  0  0  0  0  0  0  0  0
   -0.6906    4.1005    0.4829 N   0  0  0  0  0  0  0  0  0  0  0  0
   -1.5888    3.0059    0.5552 C   0  0  0  0  0  0  0  0  0  0  0  0
   -2.2990    2.6296   -0.5976 C   0  0  0  0  0  0  0  0  0  0  0  0
   -3.1733    1.5770   -0.5479 C   0  0  0  0  0  0  0  0  0  0  0  0
   -3.4065    0.8440    0.5913 C   0  0  0  0  0  0  0  0  0  0  0  0
   -2.7243    1.1937    1.7259 C   0  0  0  0  0  0  0  0  0  0  0  0
   -1.8326    2.2615    1.6903 C   0  0  0  0  0  0  0  0  0  0  0  0
   -4.3431   -0.2651    0.6333 C   0  0  0  0  0  0  0  0  0  0  0  0
   -5.0537   -0.6057    1.7612 C   0  0  0  0  0  0  0  0  0  0  0  0
   -5.9521   -1.6456    1.8128 C   0  0  0  0  0  0  0  0  0  0  0  0
   -6.1595   -2.3934    0.6793 C   0  0  0  0  0  0  0  0  0  0  0  0
   -5.4627   -2.0787   -0.4692 C   0  0  0  0  0  0  0  0  0  0  0  0
   -4.5670   -1.0328   -0.5002 C   0  0  0  0  0  0  0  0  0  0  0  0
   -7.3159   -3.7220    0.7251 S   0  0  0  0  0  0  0  0  0  0  0  0
   -8.8504   -3.0578    0.2340 N   0  0  0  0  0  0  0  0  0  0  0  0
   -6.8419   -4.7801   -0.1934 O   0  0  0  0  0  0  0  0  0  0  0  0
   -7.4262   -4.1742    2.1508 O   0  0  0  0  0  0  0  0  0  0  0  0
    7.6683   -1.9837    0.3815 H   0  0  0  0  0  0  0  0  0  0  0  0
    6.0506   -2.4529    0.9531 H   0  0  0  0  0  0  0  0  0  0  0  0
    6.2956   -0.7638    0.4235 H   0  0  0  0  0  0  0  0  0  0  0  0
    4.6092   -3.0039   -2.1554 H   0  0  0  0  0  0  0  0  0  0  0  0
    4.9341   -3.5934   -0.4653 H   0  0  0  0  0  0  0  0  0  0  0  0
    4.2205   -1.6361    0.5634 H   0  0  0  0  0  0  0  0  0  0  0  0
    2.9179   -2.0666   -0.6021 H   0  0  0  0  0  0  0  0  0  0  0  0
    4.6320   -0.5223   -3.2138 H   0  0  0  0  0  0  0  0  0  0  0  0
    5.3731    0.8033   -2.2840 H   0  0  0  0  0  0  0  0  0  0  0  0
    6.6765   -1.4161   -3.0199 H   0  0  0  0  0  0  0  0  0  0  0  0
    7.1961   -0.3546   -1.6895 H   0  0  0  0  0  0  0  0  0  0  0  0
    2.6244   -0.4482    0.9933 H   0  0  0  0  0  0  0  0  0  0  0  0
    1.3143    1.3540    1.8783 H   0  0  0  0  0  0  0  0  0  0  0  0
    2.5959    3.9270   -1.2168 H   0  0  0  0  0  0  0  0  0  0  0  0
    3.9322    2.1177   -2.1485 H   0  0  0  0  0  0  0  0  0  0  0  0
   -1.0440    4.9716    0.0084 H   0  0  0  0  0  0  0  0  0  0  0  0
   -2.1192    3.2049   -1.5046 H   0  0  0  0  0  0  0  0  0  0  0  0
   -3.7060    1.3138   -1.4648 H   0  0  0  0  0  0  0  0  0  0  0  0
   -2.8671    0.6575    2.6401 H   0  0  0  0  0  0  0  0  0  0  0  0
   -1.2992    2.5299    2.6094 H   0  0  0  0  0  0  0  0  0  0  0  0
   -4.8747   -0.0038    2.6471 H   0  0  0  0  0  0  0  0  0  0  0  0
   -6.4975   -1.8903    2.7151 H   0  0  0  0  0  0  0  0  0  0  0  0
   -5.6424   -2.6820   -1.3546 H   0  0  0  0  0  0  0  0  0  0  0  0
   -4.0245   -0.7956   -1.4121 H   0  0  0  0  0  0  0  0  0  0  0  0
   -8.7075   -2.7446   -0.7639 H   0  0  0  0  0  0  0  0  0  0  0  0
   -8.9547   -2.1726    0.7936 H   0  0  0  0  0  0  0  0  0  0  0  0
  1  2  1  0
  2  3  1  0
  3  4  1  0
  4  5  1  0
  5  6  1  0
  6  7  1  0
  5  8  1  0
  8  9  2  0
  9 10  1  0
 10 11  2  0
 11 12  1  0
 12 13  2  0
 11 14  1  0
 14 15  2  0
 14 16  2  0
 14 17  1  0
 17 18  1  0
 18 19  2  0
 19 20  1  0
 20 21  2  0
 21 22  1  0
 22 23  2  0
 21 24  1  0
 24 25  2  0
 25 26  1  0
 26 27  2  0
 27 28  1  0
 28 29  2  0
 27 30  1  0
 30 31  1  0
 30 32  2  0
 30 33  2  0
  7  2  1  0
 13  8  1  0
 23 18  1  0
 29 24  1  0
  1 34  1  0
  1 35  1  0
  1 36  1  0
  3 37  1  0
  3 38  1  0
  4 39  1  0
  4 40  1  0
  6 41  1  0
  6 42  1  0
  7 43  1  0
  7 44  1  0
  9 45  1  0
 10 46  1  0
 12 47  1  0
 13 48  1  0
 17 49  1  0
 19 50  1  0
 20 51  1  0
 22 52  1  0
 23 53  1  0
 25 54  1  0
 26 55  1  0
 28 56  1  0
 29 57  1  0
 31 58  1  0
 31 59  1  0
M  END
$$$$
[H]c1c([H])c([H])c(C([H])([H])[C@@]([H])(C(=O)N([H])[C@]([H])(C(=O)N([H])[C@]([H])(C(=O)N([H])[C@]([H])(C(=O)N([H])[H])C([H])([H])c2c([H])c([H])c([H])c([H])c2[H])C([H])([H])c2c([H])n([H])c3c([H])c([H])c([H])c([H])c23)C([H])([H])C([H])(C([H])([H])[H])C([H])([H])[H])N([H])[H])c([H])c1[H]
     RDKit          3D

 87 90  0  0  0  0  0  0  0  0999 V2000
    3.3060   -2.9195   -3.1489 C   0  0  0  0  0  0  0  0  0  0  0  0
    2.7527   -3.3024   -1.8151 C   0  0  0  0  0  0  0  0  0  0  0  0
    2.2772   -4.7337   -1.7420 C   0  0  0  0  0  0  0  0  0  0  0  0
    1.6829   -2.4083   -1.2869 C   0  0  0  0  0  0  0  0  0  0  0  0
    2.1067   -0.9942   -1.0951 C   0  0  2  0  0  0  0  0  0  0  0  0
    3.2226   -0.8901   -0.1421 N   0  0  0  0  0  0  0  0  0  0  0  0
    4.3367   -0.0847   -0.3780 C   0  0  0  0  0  0  0  0  0  0  0  0
    4.4178    0.5916   -1.4404 O   0  0  0  0  0  0  0  0  0  0  0  0
    5.4442    0.0055    0.5945 C   0  0  1  0  0  0  0  0  0  0  0  0
    5.2805   -0.9189    1.6859 N   0  0  0  0  0  0  0  0  0  0  0  0
    6.7505   -0.1645   -0.1452 C   0  0  0  0  0  0  0  0  0  0  0  0
    7.9186   -0.0739    0.7550 C   0  0  0  0  0  0  0  0  0  0  0  0
    8.4474   -1.1978    1.3424 C   0  0  0  0  0  0  0  0  0  0  0  0
    9.5337   -1.0008    2.1774 C   0  0  0  0  0  0  0  0  0  0  0  0
   10.0736    0.2489    2.4216 C   0  0  0  0  0  0  0  0  0  0  0  0
    9.5347    1.3661    1.8271 C   0  0  0  0  0  0  0  0  0  0  0  0
    8.4574    1.1853    0.9966 C   0  0  0  0  0  0  0  0  0  0  0  0
    0.9805   -0.1229   -0.6353 C   0  0  0  0  0  0  0  0  0  0  0  0
    1.1250    0.4901    0.4618 O   0  0  0  0  0  0  0  0  0  0  0  0
   -0.2136    0.0652   -1.3297 N   0  0  0  0  0  0  0  0  0  0  0  0
   -1.2868    0.9521   -0.8264 C   0  0  1  0  0  0  0  0  0  0  0  0
   -1.3388    2.1783   -1.6593 C   0  0  0  0  0  0  0  0  0  0  0  0
   -2.2820    3.2233   -1.3491 C   0  0  0  0  0  0  0  0  0  0  0  0
   -3.4165    3.5975   -2.0250 C   0  0  0  0  0  0  0  0  0  0  0  0
   -3.9700    4.6391   -1.4116 N   0  0  0  0  0  0  0  0  0  0  0  0
   -3.2388    4.9931   -0.3238 C   0  0  0  0  0  0  0  0  0  0  0  0
   -3.4057    6.0034    0.6164 C   0  0  0  0  0  0  0  0  0  0  0  0
   -2.4467    6.0997    1.6305 C   0  0  0  0  0  0  0  0  0  0  0  0
   -1.3993    5.2221    1.6700 C   0  0  0  0  0  0  0  0  0  0  0  0
   -1.2470    4.2389    0.7456 C   0  0  0  0  0  0  0  0  0  0  0  0
   -2.1836    4.1185   -0.2731 C   0  0  0  0  0  0  0  0  0  0  0  0
   -2.4970    0.1562   -0.6771 C   0  0  0  0  0  0  0  0  0  0  0  0
   -2.3659   -1.0923   -1.0275 O   0  0  0  0  0  0  0  0  0  0  0  0
   -3.7560    0.5320   -0.2166 N   0  0  0  0  0  0  0  0  0  0  0  0
   -4.8587   -0.4479   -0.1323 C   0  0  1  0  0  0  0  0  0  0  0  0
   -5.3422   -0.4956    1.2785 C   0  0  0  0  0  0  0  0  0  0  0  0
   -6.4422   -1.4006    1.5921 C   0  0  0  0  0  0  0  0  0  0  0  0
   -7.7541   -1.0002    1.6647 C   0  0  0  0  0  0  0  0  0  0  0  0
   -8.7770   -1.8430    1.9575 C   0  0  0  0  0  0  0  0  0  0  0  0
   -8.5047   -3.1693    2.1961 C   0  0  0  0  0  0  0  0  0  0  0  0
   -7.2160   -3.6252    2.1372 C   0  0  0  0  0  0  0  0  0  0  0  0
   -6.1898   -2.7561    1.8388 C   0  0  0  0  0  0  0  0  0  0  0  0
   -5.9122   -0.1457   -1.0872 C   0  0  0  0  0  0  0  0  0  0  0  0
   -7.0782   -0.9149   -1.3334 N   0  0  0  0  0  0  0  0  0  0  0  0
   -5.8018    0.9137   -1.7952 O   0  0  0  0  0  0  0  0  0  0  0  0
    4.3450   -2.5036   -3.0895 H   0  0  0  0  0  0  0  0  0  0  0  0
    2.6594   -2.2684   -3.7517 H   0  0  0  0  0  0  0  0  0  0  0  0
    3.4095   -3.8624   -3.7562 H   0  0  0  0  0  0  0  0  0  0  0  0
    3.6162   -3.2378   -1.0878 H   0  0  0  0  0  0  0  0  0  0  0  0
    3.0878   -5.4344   -1.4098 H   0  0  0  0  0  0  0  0  0  0  0  0
    1.4129   -4.8589   -1.0500 H   0  0  0  0  0  0  0  0  0  0  0  0
    1.9525   -5.0883   -2.7377 H   0  0  0  0  0  0  0  0  0  0  0  0
    0.7534   -2.5249   -1.8623 H   0  0  0  0  0  0  0  0  0  0  0  0
    1.4297   -2.8064   -0.2562 H   0  0  0  0  0  0  0  0  0  0  0  0
    2.4676   -0.5140   -2.0283 H   0  0  0  0  0  0  0  0  0  0  0  0
    3.1392   -1.4522    0.7217 H   0  0  0  0  0  0  0  0  0  0  0  0
    5.3947    1.0292    1.0606 H   0  0  0  0  0  0  0  0  0  0  0  0
    5.1432   -1.8715    1.2777 H   0  0  0  0  0  0  0  0  0  0  0  0
    4.4221   -0.6882    2.2261 H   0  0  0  0  0  0  0  0  0  0  0  0
    6.7903    0.6449   -0.9159 H   0  0  0  0  0  0  0  0  0  0  0  0
    6.8073   -1.1209   -0.6617 H   0  0  0  0  0  0  0  0  0  0  0  0
    8.0544   -2.1940    1.1746 H   0  0  0  0  0  0  0  0  0  0  0  0
    9.9679   -1.8789    2.6530 H   0  0  0  0  0  0  0  0  0  0  0  0
   10.9350    0.3033    3.1022 H   0  0  0  0  0  0  0  0  0  0  0  0
    9.9690    2.3391    2.0280 H   0  0  0  0  0  0  0  0  0  0  0  0
    8.0328    2.0819    0.5240 H   0  0  0  0  0  0  0  0  0  0  0  0
   -0.3852   -0.4188   -2.2325 H   0  0  0  0  0  0  0  0  0  0  0  0
   -0.9328    1.2712    0.1924 H   0  0  0  0  0  0  0  0  0  0  0  0
   -1.4476    1.8992   -2.7431 H   0  0  0  0  0  0  0  0  0  0  0  0
   -0.3030    2.6498   -1.6139 H   0  0  0  0  0  0  0  0  0  0  0  0
   -3.8539    3.1623   -2.9216 H   0  0  0  0  0  0  0  0  0  0  0  0
   -4.8541    5.1521   -1.6953 H   0  0  0  0  0  0  0  0  0  0  0  0
   -4.2175    6.6894    0.5932 H   0  0  0  0  0  0  0  0  0  0  0  0
   -2.5796    6.8871    2.3597 H   0  0  0  0  0  0  0  0  0  0  0  0
   -0.6657    5.3179    2.4660 H   0  0  0  0  0  0  0  0  0  0  0  0
   -0.4207    3.5305    0.7579 H   0  0  0  0  0  0  0  0  0  0  0  0
   -3.9798    1.4874    0.0958 H   0  0  0  0  0  0  0  0  0  0  0  0
   -4.3857   -1.4426   -0.3941 H   0  0  0  0  0  0  0  0  0  0  0  0
   -4.4800   -0.6138    1.9982 H   0  0  0  0  0  0  0  0  0  0  0  0
   -5.6930    0.5637    1.5090 H   0  0  0  0  0  0  0  0  0  0  0  0
   -7.9558    0.0375    1.4768 H   0  0  0  0  0  0  0  0  0  0  0  0
   -9.7961   -1.4313    1.9937 H   0  0  0  0  0  0  0  0  0  0  0  0
   -9.3464   -3.8276    2.4299 H   0  0  0  0  0  0  0  0  0  0  0  0
   -7.0533   -4.6745    2.3314 H   0  0  0  0  0  0  0  0  0  0  0  0
   -5.1591   -3.0955    1.7863 H   0  0  0  0  0  0  0  0  0  0  0  0
   -7.0358   -1.9357   -1.3335 H   0  0  0  0  0  0  0  0  0  0  0  0
   -7.9691   -0.4199   -1.5109 H   0  0  0  0  0  0  0  0  0  0  0  0
  1  2  1  0
  2  3  1  0
  2  4  1  0
  4  5  1  0
  5  6  1  0
  6  7  1  0
  7  8  2  0
  7  9  1  0
  9 10  1  0
  9 11  1  0
 11 12  1  0
 12 13  2  0
 13 14  1  0
 14 15  2  0
 15 16  1  0
 16 17  2  0
  5 18  1  0
 18 19  2  0
 18 20  1  0
 20 21  1  0
 21 22  1  0
 22 23  1  0
 23 24  2  0
 24 25  1  0
 25 26  1  0
 26 27  2  0
 27 28  1  0
 28 29  2  0
 29 30  1  0
 30 31  2  0
 21 32  1  0
 32 33  2  0
 32 34  1  0
 34 35  1  0
 35 36  1  0
 36 37  1  0
 37 38  2  0
 38 39  1  0
 39 40  2  0
 40 41  1  0
 41 42  2  0
 35 43  1  0
 43 44  1  0
 43 45  2  0
 17 12  1  0
 31 23  1  0
 42 37  1  0
 31 26  1  0
  1 46  1  0
  1 47  1  0
  1 48  1  0
  2 49  1  0
  3 50  1  0
  3 51  1  0
  3 52  1  0
  4 53  1  0
  4 54  1  0
  5 55  1  6
  6 56  1  0
  9 57  1  1
 10 58  1  0
 10 59  1  0
 11 60  1  0
 11 61  1  0
 13 62  1  0
 14 63  1  0
 15 64  1  0
 16 65  1  0
 17 66  1  0
 20 67  1  0
 21 68  1  1
 22 69  1  0
 22 70  1  0
 24 71  1  0
 25 72  1  0
 27 73  1  0
 28 74  1  0
 29 75  1  0
 30 76  1  0
 34 77  1  0
 35 78  1  6
 36 79  1  0
 36 80  1  0
 38 81  1  0
 39 82  1  0
 40 83  1  0
 41 84  1  0
 42 85  1  0
 44 86  1  0
 44 87  1  0
M  END
$$$$
[H]OC(=O)[C@@]([H])(N([H])C(=O)c1c([H])c([H])c(-c2c([H])c([H])c(S(=O)(=O)N([H])[C@]([H])(C(=O)OC(C([H])([H])[H])(C([H])([H])[H])C([H])([H])[H])C([H])(C([H])([H])[H])C([H])([H])[H])c([H])c2[H])c([H])c1[H])C([H])([H])[H]
     RDKit          3D

 67 68  0  0  0  0  0  0  0  0999 V2000
   -6.8049   -0.0062   -1.5640 C   0  0  0  0  0  0  0  0  0  0  0  0
   -5.7448    1.0564   -1.7992 C   0  0  0  0  0  0  0  0  0  0  0  0
   -5.8213    2.1691   -0.7768 C   0  0  0  0  0  0  0  0  0  0  0  0
   -4.3579    0.4774   -1.7591 C   0  0  2  0  0  0  0  0  0  0  0  0
   -4.1418   -0.5384   -2.7556 N   0  0  0  0  0  0  0  0  0  0  0  0
   -2.7972   -0.2084   -3.7734 S   0  0  0  0  0  0  0  0  0  0  0  0
   -2.9684    1.0431   -4.5611 O   0  0  0  0  0  0  0  0  0  0  0  0
   -2.6640   -1.3472   -4.7443 O   0  0  0  0  0  0  0  0  0  0  0  0
   -1.2992   -0.1310   -2.8596 C   0  0  0  0  0  0  0  0  0  0  0  0
   -0.8745    1.0678   -2.3383 C   0  0  0  0  0  0  0  0  0  0  0  0
    0.3060    1.1431   -1.6132 C   0  0  0  0  0  0  0  0  0  0  0  0
    1.0680    0.0264   -1.4043 C   0  0  0  0  0  0  0  0  0  0  0  0
    0.6296   -1.1608   -1.9313 C   0  0  0  0  0  0  0  0  0  0  0  0
   -0.5409   -1.2564   -2.6549 C   0  0  0  0  0  0  0  0  0  0  0  0
    2.2920    0.1034   -0.6492 C   0  0  0  0  0  0  0  0  0  0  0  0
    3.3385   -0.7364   -0.9361 C   0  0  0  0  0  0  0  0  0  0  0  0
    4.5050   -0.6796   -0.2299 C   0  0  0  0  0  0  0  0  0  0  0  0
    4.7096    0.2071    0.7999 C   0  0  0  0  0  0  0  0  0  0  0  0
    3.6508    1.0572    1.0907 C   0  0  0  0  0  0  0  0  0  0  0  0
    2.4750    1.0052    0.3843 C   0  0  0  0  0  0  0  0  0  0  0  0
    5.9555    0.2605    1.5452 C   0  0  0  0  0  0  0  0  0  0  0  0
    6.0198    1.0525    2.5302 O   0  0  0  0  0  0  0  0  0  0  0  0
    7.0761   -0.5305    1.2088 N   0  0  0  0  0  0  0  0  0  0  0  0
    8.3203   -0.4675    1.9665 C   0  0  1  0  0  0  0  0  0  0  0  0
    8.6924   -1.8492    2.4421 C   0  0  0  0  0  0  0  0  0  0  0  0
    9.3596    0.0728    1.0323 C   0  0  0  0  0  0  0  0  0  0  0  0
   10.6785    0.2491    1.4822 O   0  0  0  0  0  0  0  0  0  0  0  0
    9.1028    0.3816   -0.1568 O   0  0  0  0  0  0  0  0  0  0  0  0
   -4.1485   -0.1481   -0.4188 C   0  0  0  0  0  0  0  0  0  0  0  0
   -3.8366   -1.3831   -0.3037 O   0  0  0  0  0  0  0  0  0  0  0  0
   -4.2728    0.5437    0.7704 O   0  0  0  0  0  0  0  0  0  0  0  0
   -4.0780   -0.0324    2.0437 C   0  0  0  0  0  0  0  0  0  0  0  0
   -5.0463   -1.1773    2.2892 C   0  0  0  0  0  0  0  0  0  0  0  0
   -4.3980    1.0474    3.0646 C   0  0  0  0  0  0  0  0  0  0  0  0
   -2.6489   -0.4490    2.2755 C   0  0  0  0  0  0  0  0  0  0  0  0
   -7.0307   -0.0347   -0.4836 H   0  0  0  0  0  0  0  0  0  0  0  0
   -7.7298    0.2508   -2.0939 H   0  0  0  0  0  0  0  0  0  0  0  0
   -6.3770   -0.9654   -1.9344 H   0  0  0  0  0  0  0  0  0  0  0  0
   -5.9868    1.5156   -2.7788 H   0  0  0  0  0  0  0  0  0  0  0  0
   -6.4433    3.0143   -1.1451 H   0  0  0  0  0  0  0  0  0  0  0  0
   -6.2841    1.8339    0.1817 H   0  0  0  0  0  0  0  0  0  0  0  0
   -4.7992    2.5346   -0.5882 H   0  0  0  0  0  0  0  0  0  0  0  0
   -3.6253    1.3024   -1.8174 H   0  0  0  0  0  0  0  0  0  0  0  0
   -4.0215   -1.4670   -2.3360 H   0  0  0  0  0  0  0  0  0  0  0  0
   -1.4253    1.9998   -2.4624 H   0  0  0  0  0  0  0  0  0  0  0  0
    0.6182    2.1061   -1.2118 H   0  0  0  0  0  0  0  0  0  0  0  0
    1.2419   -2.0565   -1.7630 H   0  0  0  0  0  0  0  0  0  0  0  0
   -0.8765   -2.2013   -3.0662 H   0  0  0  0  0  0  0  0  0  0  0  0
    3.2114   -1.4447   -1.7389 H   0  0  0  0  0  0  0  0  0  0  0  0
    5.2772   -1.3923   -0.5370 H   0  0  0  0  0  0  0  0  0  0  0  0
    3.7806    1.7783    1.9084 H   0  0  0  0  0  0  0  0  0  0  0  0
    1.6388    1.6783    0.6156 H   0  0  0  0  0  0  0  0  0  0  0  0
    7.0318   -1.1703    0.4148 H   0  0  0  0  0  0  0  0  0  0  0  0
    8.2276    0.2559    2.8147 H   0  0  0  0  0  0  0  0  0  0  0  0
    8.6741   -1.9592    3.5394 H   0  0  0  0  0  0  0  0  0  0  0  0
    9.6907   -2.1487    2.0513 H   0  0  0  0  0  0  0  0  0  0  0  0
    7.9779   -2.6049    2.0447 H   0  0  0  0  0  0  0  0  0  0  0  0
   11.4511    0.3344    0.8632 H   0  0  0  0  0  0  0  0  0  0  0  0
   -5.2509   -1.2013    3.3797 H   0  0  0  0  0  0  0  0  0  0  0  0
   -5.9634   -0.9284    1.7073 H   0  0  0  0  0  0  0  0  0  0  0  0
   -4.5911   -2.1406    1.9786 H   0  0  0  0  0  0  0  0  0  0  0  0
   -5.3017    1.6241    2.7715 H   0  0  0  0  0  0  0  0  0  0  0  0
   -3.5114    1.6994    3.1863 H   0  0  0  0  0  0  0  0  0  0  0  0
   -4.6147    0.5864    4.0522 H   0  0  0  0  0  0  0  0  0  0  0  0
   -2.2326   -0.0176    3.2328 H   0  0  0  0  0  0  0  0  0  0  0  0
   -1.9614   -0.1055    1.4755 H   0  0  0  0  0  0  0  0  0  0  0  0
   -2.5302   -1.5383    2.3742 H   0  0  0  0  0  0  0  0  0  0  0  0
  1  2  1  0
  2  3  1  0
  2  4  1  0
  4  5  1  0
  5  6  1  0
  6  7  2  0
  6  8  2  0
  6  9  1  0
  9 10  2  0
 10 11  1  0
 11 12  2  0
 12 13  1  0
 13 14  2  0
 12 15  1  0
 15 16  2  0
 16 17  1  0
 17 18  2  0
 18 19  1  0
 19 20  2  0
 18 21  1  0
 21 22  2  0
 21 23  1  0
 23 24  1  0
 24 25  1  0
 24 26  1  0
 26 27  1  0
 26 28  2  0
  4 29  1  0
 29 30  2  0
 29 31  1  0
 31 32  1  0
 32 33  1  0
 32 34  1  0
 32 35  1  0
 14  9  1  0
 20 15  1  0
  1 36  1  0
  1 37  1  0
  1 38  1  0
  2 39  1  0
  3 40  1  0
  3 41  1  0
  3 42  1  0
  4 43  1  6
  5 44  1  0
 10 45  1  0
 11 46  1  0
 13 47  1  0
 14 48  1  0
 16 49  1  0
 17 50  1  0
 19 51  1  0
 20 52  1  0
 23 53  1  0
 24 54  1  1
 25 55  1  0
 25 56  1  0
 25 57  1  0
 27 58  1  0
 33 59  1  0
 33 60  1  0
 33 61  1  0
 34 62  1  0
 34 63  1  0
 34 64  1  0
 35 65  1  0
 35 66  1  0
 35 67  1  0
M  END
$$$$
[H]c1c([H])c(S(=O)(=O)N(c2c([H])c([H])c(C(C([H])([H])[H])(C([H])([H])[H])C([H])([H])[H])c([H])c2[H])C([H])([H])C([H])(C([H])([H])[H])C([H])([H])[H])c([H])c([H])c1OC([H])([H])[H]
     RDKit          3D

 55 56  0  0  0  0  0  0  0  0999 V2000
    7.0127   -3.0653   -1.1292 C   0  0  0  0  0  0  0  0  0  0  0  0
    6.4023   -1.8833   -1.6058 O   0  0  0  0  0  0  0  0  0  0  0  0
    5.2433   -1.4347   -0.9725 C   0  0  0  0  0  0  0  0  0  0  0  0
    4.5865   -0.2859   -1.3643 C   0  0  0  0  0  0  0  0  0  0  0  0
    3.4520    0.1181   -0.7110 C   0  0  0  0  0  0  0  0  0  0  0  0
    2.9166   -0.5608    0.3297 C   0  0  0  0  0  0  0  0  0  0  0  0
    3.5758   -1.7371    0.7392 C   0  0  0  0  0  0  0  0  0  0  0  0
    4.7071   -2.1336    0.0836 C   0  0  0  0  0  0  0  0  0  0  0  0
    1.5187   -0.0754    1.2673 S   0  0  0  0  0  0  0  0  0  0  0  0
    1.9657    0.5339    2.5941 O   0  0  0  0  0  0  0  0  0  0  0  0
    0.8730   -1.3833    1.7276 O   0  0  0  0  0  0  0  0  0  0  0  0
    0.3809    0.8801    0.4680 N   0  0  0  0  0  0  0  0  0  0  0  0
    0.5648    2.1698   -0.0997 C   0  0  0  0  0  0  0  0  0  0  0  0
    1.2195    3.2223    0.7359 C   0  0  0  0  0  0  0  0  0  0  0  0
    1.2553    4.4856   -0.1443 C   0  0  0  0  0  0  0  0  0  0  0  0
    0.4679    3.5787    1.9819 C   0  0  0  0  0  0  0  0  0  0  0  0
   -0.9373    0.3220    0.2526 C   0  0  0  0  0  0  0  0  0  0  0  0
   -1.2196   -0.3573   -0.9193 C   0  0  0  0  0  0  0  0  0  0  0  0
   -2.4585   -0.8689   -1.1541 C   0  0  0  0  0  0  0  0  0  0  0  0
   -3.4522   -0.6926   -0.1851 C   0  0  0  0  0  0  0  0  0  0  0  0
   -3.1695   -0.0116    0.9896 C   0  0  0  0  0  0  0  0  0  0  0  0
   -1.8878    0.5050    1.2083 C   0  0  0  0  0  0  0  0  0  0  0  0
   -4.7875   -1.2208   -0.4245 C   0  0  0  0  0  0  0  0  0  0  0  0
   -4.7151   -2.7319   -0.1685 C   0  0  0  0  0  0  0  0  0  0  0  0
   -5.2823   -1.0633   -1.8566 C   0  0  0  0  0  0  0  0  0  0  0  0
   -5.8342   -0.6819    0.4886 C   0  0  0  0  0  0  0  0  0  0  0  0
    7.9676   -3.2546   -1.6379 H   0  0  0  0  0  0  0  0  0  0  0  0
    6.3091   -3.9280   -1.2130 H   0  0  0  0  0  0  0  0  0  0  0  0
    7.2525   -2.9023   -0.0315 H   0  0  0  0  0  0  0  0  0  0  0  0
    5.0032    0.2707   -2.2082 H   0  0  0  0  0  0  0  0  0  0  0  0
    2.9662    1.0296   -1.0418 H   0  0  0  0  0  0  0  0  0  0  0  0
    3.1719   -2.3080    1.5683 H   0  0  0  0  0  0  0  0  0  0  0  0
    5.2301   -3.0302    0.3905 H   0  0  0  0  0  0  0  0  0  0  0  0
   -0.5001    2.5947   -0.2702 H   0  0  0  0  0  0  0  0  0  0  0  0
    0.9383    2.0876   -1.1255 H   0  0  0  0  0  0  0  0  0  0  0  0
    2.2753    3.0269    0.9549 H   0  0  0  0  0  0  0  0  0  0  0  0
    0.2374    4.7927   -0.4426 H   0  0  0  0  0  0  0  0  0  0  0  0
    1.7364    5.3323    0.3836 H   0  0  0  0  0  0  0  0  0  0  0  0
    1.8888    4.2880   -1.0311 H   0  0  0  0  0  0  0  0  0  0  0  0
   -0.5657    3.1964    1.9484 H   0  0  0  0  0  0  0  0  0  0  0  0
    0.9626    3.1901    2.9072 H   0  0  0  0  0  0  0  0  0  0  0  0
    0.4247    4.6846    2.1502 H   0  0  0  0  0  0  0  0  0  0  0  0
   -0.4169   -0.4694   -1.6466 H   0  0  0  0  0  0  0  0  0  0  0  0
   -2.6929   -1.4017   -2.0355 H   0  0  0  0  0  0  0  0  0  0  0  0
   -3.8922    0.1395    1.7800 H   0  0  0  0  0  0  0  0  0  0  0  0
   -1.7146    1.0334    2.1433 H   0  0  0  0  0  0  0  0  0  0  0  0
   -5.5071   -3.2228   -0.7840 H   0  0  0  0  0  0  0  0  0  0  0  0
   -3.7224   -3.0896   -0.5069 H   0  0  0  0  0  0  0  0  0  0  0  0
   -4.8807   -2.8961    0.9204 H   0  0  0  0  0  0  0  0  0  0  0  0
   -5.6724   -0.0419   -2.0379 H   0  0  0  0  0  0  0  0  0  0  0  0
   -6.1791   -1.7486   -1.9128 H   0  0  0  0  0  0  0  0  0  0  0  0
   -4.5206   -1.3776   -2.5581 H   0  0  0  0  0  0  0  0  0  0  0  0
   -6.1344   -1.3822    1.2905 H   0  0  0  0  0  0  0  0  0  0  0  0
   -5.5474    0.2731    0.9553 H   0  0  0  0  0  0  0  0  0  0  0  0
   -6.8155   -0.5146   -0.0892 H   0  0  0  0  0  0  0  0  0  0  0  0
  1  2  1  0
  2  3  1  0
  3  4  2  0
  4  5  1  0
  5  6  2  0
  6  7  1  0
  7  8  2  0
  6  9  1  0
  9 10  2  0
  9 11  2  0
  9 12  1  0
 12 13  1  0
 13 14  1  0
 14 15  1  0
 14 16  1  0
 12 17  1  0
 17 18  2  0
 18 19  1  0
 19 20  2  0
 20 21  1  0
 21 22  2  0
 20 23  1  0
 23 24  1  0
 23 25  1  0
 23 26  1  0
  8  3  1  0
 22 17  1  0
  1 27  1  0
  1 28  1  0
  1 29  1  0
  4 30  1  0
  5 31  1  0
  7 32  1  0
  8 33  1  0
 13 34  1  0
 13 35  1  0
 14 36  1  0
 15 37  1  0
 15 38  1  0
 15 39  1  0
 16 40  1  0
 16 41  1  0
 16 42  1  0
 18 43  1  0
 19 44  1  0
 21 45  1  0
 22 46  1  0
 24 47  1  0
 24 48  1  0
 24 49  1  0
 25 50  1  0
 25 51  1  0
 25 52  1  0
 26 53  1  0
 26 54  1  0
 26 55  1  0
M  END
$$$$
[H]c1c([H])c(N([H])C(=O)c2c([H])c([H])c(N3C([H])([H])C([H])([H])N(C([H])([H])[H])C([H])([H])C3([H])[H])c([H])c2[H])c([H])c([N+](=O)[O-])c1[H]
     RDKit          3D

 45 47  0  0  0  0  0  0  0  0999 V2000
    6.5062    0.7198    0.5626 C   0  0  0  0  0  0  0  0  0  0  0  0
    6.0654   -0.4838   -0.0907 N   0  0  0  0  0  0  0  0  0  0  0  0
    5.4309   -1.4165    0.7953 C   0  0  0  0  0  0  0  0  0  0  0  0
    3.9967   -1.6786    0.5199 C   0  0  0  0  0  0  0  0  0  0  0  0
    3.2672   -0.6324   -0.1166 N   0  0  0  0  0  0  0  0  0  0  0  0
    3.9835    0.3938   -0.8413 C   0  0  0  0  0  0  0  0  0  0  0  0
    5.3033   -0.2283   -1.2878 C   0  0  0  0  0  0  0  0  0  0  0  0
    1.8374   -0.5397   -0.0820 C   0  0  0  0  0  0  0  0  0  0  0  0
    1.0707   -1.5367    0.4857 C   0  0  0  0  0  0  0  0  0  0  0  0
   -0.3052   -1.4513    0.5264 C   0  0  0  0  0  0  0  0  0  0  0  0
   -0.9784   -0.3650    0.0011 C   0  0  0  0  0  0  0  0  0  0  0  0
   -0.2253    0.6241   -0.5618 C   0  0  0  0  0  0  0  0  0  0  0  0
    1.1769    0.5452   -0.6071 C   0  0  0  0  0  0  0  0  0  0  0  0
   -2.4538   -0.3444    0.0753 C   0  0  0  0  0  0  0  0  0  0  0  0
   -3.0588   -1.4003    0.4213 O   0  0  0  0  0  0  0  0  0  0  0  0
   -3.1695    0.8111   -0.2281 N   0  0  0  0  0  0  0  0  0  0  0  0
   -4.5768    0.9535   -0.2034 C   0  0  0  0  0  0  0  0  0  0  0  0
   -5.0966    2.2654   -0.1930 C   0  0  0  0  0  0  0  0  0  0  0  0
   -6.4427    2.5082   -0.1882 C   0  0  0  0  0  0  0  0  0  0  0  0
   -7.3370    1.4593   -0.1936 C   0  0  0  0  0  0  0  0  0  0  0  0
   -6.8915    0.1640   -0.2039 C   0  0  0  0  0  0  0  0  0  0  0  0
   -5.5086   -0.0425   -0.2088 C   0  0  0  0  0  0  0  0  0  0  0  0
   -7.7916   -0.9358   -0.2089 N   0  0  0  0  0  0  0  0  0  0  0  0
   -9.1459   -0.7496   -0.2047 O   0  0  0  0  0  0  0  0  0  0  0  0
   -7.3547   -2.0979   -0.2169 O   0  0  0  0  0  0  0  0  0  0  0  0
    7.5865    0.6097    0.8315 H   0  0  0  0  0  0  0  0  0  0  0  0
    6.3960    1.5826   -0.0915 H   0  0  0  0  0  0  0  0  0  0  0  0
    5.9423    0.8339    1.5248 H   0  0  0  0  0  0  0  0  0  0  0  0
    6.0514   -2.3607    0.7790 H   0  0  0  0  0  0  0  0  0  0  0  0
    5.5331   -1.0312    1.8314 H   0  0  0  0  0  0  0  0  0  0  0  0
    3.4481   -1.9616    1.4618 H   0  0  0  0  0  0  0  0  0  0  0  0
    3.9231   -2.5836   -0.1371 H   0  0  0  0  0  0  0  0  0  0  0  0
    4.1445    1.2860   -0.2274 H   0  0  0  0  0  0  0  0  0  0  0  0
    3.4786    0.6957   -1.7823 H   0  0  0  0  0  0  0  0  0  0  0  0
    5.0932   -1.1714   -1.7922 H   0  0  0  0  0  0  0  0  0  0  0  0
    5.8331    0.5133   -1.8866 H   0  0  0  0  0  0  0  0  0  0  0  0
    1.5635   -2.4096    0.9083 H   0  0  0  0  0  0  0  0  0  0  0  0
   -0.9107   -2.2529    0.9821 H   0  0  0  0  0  0  0  0  0  0  0  0
   -0.7122    1.4930   -0.9900 H   0  0  0  0  0  0  0  0  0  0  0  0
    1.7156    1.3706   -1.0687 H   0  0  0  0  0  0  0  0  0  0  0  0
   -2.5902    1.6601   -0.5021 H   0  0  0  0  0  0  0  0  0  0  0  0
   -4.3961    3.0871   -0.1881 H   0  0  0  0  0  0  0  0  0  0  0  0
   -6.8100    3.5345   -0.1801 H   0  0  0  0  0  0  0  0  0  0  0  0
   -8.4144    1.6326   -0.1895 H   0  0  0  0  0  0  0  0  0  0  0  0
   -5.1770   -1.0693   -0.2318 H   0  0  0  0  0  0  0  0  0  0  0  0
  1  2  1  0
  2  3  1  0
  3  4  1  0
  4  5  1  0
  5  6  1  0
  6  7  1  0
  5  8  1  0
  8  9  2  0
  9 10  1  0
 10 11  2  0
 11 12  1  0
 12 13  2  0
 11 14  1  0
 14 15  2  0
 14 16  1  0
 16 17  1  0
 17 18  2  0
 18 19  1  0
 19 20  2  0
 20 21  1  0
 21 22  2  0
 21 23  1  0
 23 24  1  0
 23 25  2  0
  7  2  1  0
 13  8  1  0
 22 17  1  0
  1 26  1  0
  1 27  1  0
  1 28  1  0
  3 29  1  0
  3 30  1  0
  4 31  1  0
  4 32  1  0
  6 33  1  0
  6 34  1  0
  7 35  1  0
  7 36  1  0
  9 37  1  0
 10 38  1  0
 12 39  1  0
 13 40  1  0
 16 41  1  0
 18 42  1  0
 19 43  1  0
 20 44  1  0
 22 45  1  0
M  CHG  2  23   1  24  -1
M  END
$$$$
[H]c1c([H])c([H])c(C([H])([H])[C@@]([H])(C(=O)N([H])[H])N([H])C(=O)[C@@]([H])(N([H])C(=O)[C@@]([H])(N([H])[H])C([H])([H])c2c([H])n([H])c3c([H])c([H])c([H])c([H])c23)C([H])([H])c2c([H])c([H])c([H])c([H])c2[H])c([H])c1[H]
     RDKit          3D

 68 71  0  0  0  0  0  0  0  0999 V2000
    4.1479   -0.8951    1.9292 N   0  0  0  0  0  0  0  0  0  0  0  0
    3.3366    0.0170    1.2082 C   0  0  1  0  0  0  0  0  0  0  0  0
    3.3538   -0.2295   -0.2671 C   0  0  0  0  0  0  0  0  0  0  0  0
    4.6849   -0.1326   -0.8953 C   0  0  0  0  0  0  0  0  0  0  0  0
    5.2203    1.0001   -1.5065 C   0  0  0  0  0  0  0  0  0  0  0  0
    6.4453    0.6973   -1.9048 N   0  0  0  0  0  0  0  0  0  0  0  0
    6.7684   -0.5694   -1.6007 C   0  0  0  0  0  0  0  0  0  0  0  0
    7.9207   -1.3005   -1.8327 C   0  0  0  0  0  0  0  0  0  0  0  0
    8.0023   -2.6085   -1.4290 C   0  0  0  0  0  0  0  0  0  0  0  0
    6.9187   -3.1636   -0.7955 C   0  0  0  0  0  0  0  0  0  0  0  0
    5.7624   -2.4161   -0.5668 C   0  0  0  0  0  0  0  0  0  0  0  0
    5.6584   -1.1032   -0.9613 C   0  0  0  0  0  0  0  0  0  0  0  0
    1.9358   -0.0256    1.7372 C   0  0  0  0  0  0  0  0  0  0  0  0
    1.6636   -0.7591    2.7092 O   0  0  0  0  0  0  0  0  0  0  0  0
    0.8965    0.7471    1.1654 N   0  0  0  0  0  0  0  0  0  0  0  0
   -0.4684    0.7436    1.6367 C   0  0  1  0  0  0  0  0  0  0  0  0
   -0.8128    2.0943    2.2543 C   0  0  0  0  0  0  0  0  0  0  0  0
   -0.6406    3.1935    1.2843 C   0  0  0  0  0  0  0  0  0  0  0  0
    0.5750    3.8458    1.1796 C   0  0  0  0  0  0  0  0  0  0  0  0
    0.8081    4.8666    0.3086 C   0  0  0  0  0  0  0  0  0  0  0  0
   -0.2056    5.2957   -0.5286 C   0  0  0  0  0  0  0  0  0  0  0  0
   -1.4323    4.6711   -0.4549 C   0  0  0  0  0  0  0  0  0  0  0  0
   -1.6386    3.6267    0.4499 C   0  0  0  0  0  0  0  0  0  0  0  0
   -1.4516    0.2895    0.6332 C   0  0  0  0  0  0  0  0  0  0  0  0
   -1.0567    0.0136   -0.5195 O   0  0  0  0  0  0  0  0  0  0  0  0
   -2.8058    0.1672    0.9737 N   0  0  0  0  0  0  0  0  0  0  0  0
   -3.8131   -0.2961   -0.0173 C   0  0  1  0  0  0  0  0  0  0  0  0
   -4.1676   -1.6782    0.4701 C   0  0  0  0  0  0  0  0  0  0  0  0
   -5.1589   -2.4090   -0.3232 C   0  0  0  0  0  0  0  0  0  0  0  0
   -6.4872   -2.3538    0.0269 C   0  0  0  0  0  0  0  0  0  0  0  0
   -7.3876   -3.0584   -0.7453 C   0  0  0  0  0  0  0  0  0  0  0  0
   -6.9928   -3.8075   -1.8460 C   0  0  0  0  0  0  0  0  0  0  0  0
   -5.6563   -3.8597   -2.1935 C   0  0  0  0  0  0  0  0  0  0  0  0
   -4.7768   -3.1599   -1.4237 C   0  0  0  0  0  0  0  0  0  0  0  0
   -4.9128    0.6777    0.0357 C   0  0  0  0  0  0  0  0  0  0  0  0
   -6.0018    0.6024   -0.8698 N   0  0  0  0  0  0  0  0  0  0  0  0
   -4.9554    1.6274    0.8734 O   0  0  0  0  0  0  0  0  0  0  0  0
    3.8186   -1.8688    1.9072 H   0  0  0  0  0  0  0  0  0  0  0  0
    4.4958   -0.5655    2.8510 H   0  0  0  0  0  0  0  0  0  0  0  0
    3.6907    1.0595    1.4059 H   0  0  0  0  0  0  0  0  0  0  0  0
    2.8884   -1.2099   -0.5047 H   0  0  0  0  0  0  0  0  0  0  0  0
    2.6957    0.5274   -0.7788 H   0  0  0  0  0  0  0  0  0  0  0  0
    4.6831    1.9312   -1.6075 H   0  0  0  0  0  0  0  0  0  0  0  0
    7.0756    1.3927   -2.4031 H   0  0  0  0  0  0  0  0  0  0  0  0
    8.7617   -0.8348   -2.3364 H   0  0  0  0  0  0  0  0  0  0  0  0
    8.9081   -3.1686   -1.6158 H   0  0  0  0  0  0  0  0  0  0  0  0
    6.9643   -4.1990   -0.4686 H   0  0  0  0  0  0  0  0  0  0  0  0
    4.9193   -2.8825   -0.0826 H   0  0  0  0  0  0  0  0  0  0  0  0
    1.1646    1.3571    0.3402 H   0  0  0  0  0  0  0  0  0  0  0  0
   -0.4636    0.0394    2.5261 H   0  0  0  0  0  0  0  0  0  0  0  0
   -0.1163    2.1985    3.1276 H   0  0  0  0  0  0  0  0  0  0  0  0
   -1.8300    2.0693    2.6942 H   0  0  0  0  0  0  0  0  0  0  0  0
    1.3721    3.5132    1.8328 H   0  0  0  0  0  0  0  0  0  0  0  0
    1.7602    5.3706    0.2335 H   0  0  0  0  0  0  0  0  0  0  0  0
   -0.0171    6.1119   -1.2243 H   0  0  0  0  0  0  0  0  0  0  0  0
   -2.2113    5.0174   -1.1136 H   0  0  0  0  0  0  0  0  0  0  0  0
   -2.6067    3.1949    0.4497 H   0  0  0  0  0  0  0  0  0  0  0  0
   -3.1978    0.3837    1.9134 H   0  0  0  0  0  0  0  0  0  0  0  0
   -3.3020   -0.3635   -1.0087 H   0  0  0  0  0  0  0  0  0  0  0  0
   -4.5257   -1.5496    1.5214 H   0  0  0  0  0  0  0  0  0  0  0  0
   -3.2102   -2.2381    0.5379 H   0  0  0  0  0  0  0  0  0  0  0  0
   -6.8348   -1.7732    0.8885 H   0  0  0  0  0  0  0  0  0  0  0  0
   -8.4388   -2.9967   -0.4442 H   0  0  0  0  0  0  0  0  0  0  0  0
   -7.7607   -4.3365   -2.4070 H   0  0  0  0  0  0  0  0  0  0  0  0
   -5.4012   -4.4556   -3.0569 H   0  0  0  0  0  0  0  0  0  0  0  0
   -3.7175   -3.2052   -1.7041 H   0  0  0  0  0  0  0  0  0  0  0  0
   -5.8498    0.3193   -1.8837 H   0  0  0  0  0  0  0  0  0  0  0  0
   -6.9913    0.8106   -0.6163 H   0  0  0  0  0  0  0  0  0  0  0  0
  1  2  1  0
  2  3  1  0
  3  4  1  0
  4  5  2  0
  5  6  1  0
  6  7  1  0
  7  8  2  0
  8  9  1  0
  9 10  2  0
 10 11  1  0
 11 12  2  0
  2 13  1  0
 13 14  2  0
 13 15  1  0
 15 16  1  0
 16 17  1  0
 17 18  1  0
 18 19  2  0
 19 20  1  0
 20 21  2  0
 21 22  1  0
 22 23  2  0
 16 24  1  0
 24 25  2  0
 24 26  1  0
 26 27  1  0
 27 28  1  0
 28 29  1  0
 29 30  2  0
 30 31  1  0
 31 32  2  0
 32 33  1  0
 33 34  2  0
 27 35  1  0
 35 36  1  0
 35 37  2  0
 12  4  1  0
 23 18  1  0
 34 29  1  0
 12  7  1  0
  1 38  1  0
  1 39  1  0
  2 40  1  6
  3 41  1  0
  3 42  1  0
  5 43  1  0
  6 44  1  0
  8 45  1  0
  9 46  1  0
 10 47  1  0
 11 48  1  0
 15 49  1  0
 16 50  1  1
 17 51  1  0
 17 52  1  0
 19 53  1  0
 20 54  1  0
 21 55  1  0
 22 56  1  0
 23 57  1  0
 26 58  1  0
 27 59  1  6
 28 60  1  0
 28 61  1  0
 30 62  1  0
 31 63  1  0
 32 64  1  0
 33 65  1  0
 34 66  1  0
 36 67  1  0
 36 68  1  0
M  END
$$$$
[H]c1c([H])c([H])c(C([H])([H])[C@@]([H])(C(=O)N([H])[H])N([H])C(=O)[C@@]([H])(N([H])C(=O)[C@@]([H])(N([H])C(=O)OC(C([H])([H])[H])(C([H])([H])[H])C([H])([H])[H])C([H])([H])c2c([H])c([H])c([H])c([H])c2[H])C([H])([H])c2c([H])n([H])c3c([H])c([H])c([H])c([H])c23)c([H])c1[H]
     RDKit          3D

 83 86  0  0  0  0  0  0  0  0999 V2000
   -7.7964   -0.4202   -0.2340 C   0  0  0  0  0  0  0  0  0  0  0  0
   -6.9892   -0.6462    1.0350 C   0  0  0  0  0  0  0  0  0  0  0  0
   -6.5510   -2.1341    1.0525 C   0  0  0  0  0  0  0  0  0  0  0  0
   -7.8225   -0.4184    2.2500 C   0  0  0  0  0  0  0  0  0  0  0  0
   -5.8435    0.1248    0.9752 O   0  0  0  0  0  0  0  0  0  0  0  0
   -4.7826    0.0306    0.1309 C   0  0  0  0  0  0  0  0  0  0  0  0
   -4.7663   -0.9075   -0.7282 O   0  0  0  0  0  0  0  0  0  0  0  0
   -3.6797    0.9504    0.1814 N   0  0  0  0  0  0  0  0  0  0  0  0
   -2.5486    0.7574   -0.7268 C   0  0  1  0  0  0  0  0  0  0  0  0
   -2.6243    1.8420   -1.8225 C   0  0  0  0  0  0  0  0  0  0  0  0
   -3.8810    1.7329   -2.5925 C   0  0  0  0  0  0  0  0  0  0  0  0
   -5.0051    2.4056   -2.1924 C   0  0  0  0  0  0  0  0  0  0  0  0
   -6.1814    2.2724   -2.9377 C   0  0  0  0  0  0  0  0  0  0  0  0
   -6.2250    1.4745   -4.0694 C   0  0  0  0  0  0  0  0  0  0  0  0
   -5.0845    0.8149   -4.4459 C   0  0  0  0  0  0  0  0  0  0  0  0
   -3.9190    0.9458   -3.7093 C   0  0  0  0  0  0  0  0  0  0  0  0
   -1.2691    0.9829   -0.0353 C   0  0  0  0  0  0  0  0  0  0  0  0
   -1.1597    2.0369    0.6730 O   0  0  0  0  0  0  0  0  0  0  0  0
   -0.2080    0.0683   -0.1418 N   0  0  0  0  0  0  0  0  0  0  0  0
    1.0826    0.3083    0.5648 C   0  0  1  0  0  0  0  0  0  0  0  0
    0.7923   -0.0129    1.9859 C   0  0  0  0  0  0  0  0  0  0  0  0
    1.8381    0.1624    2.9740 C   0  0  0  0  0  0  0  0  0  0  0  0
    2.5075   -0.7923    3.6791 C   0  0  0  0  0  0  0  0  0  0  0  0
    3.3633   -0.1770    4.5316 N   0  0  0  0  0  0  0  0  0  0  0  0
    3.2262    1.1652    4.3575 C   0  0  0  0  0  0  0  0  0  0  0  0
    3.8663    2.2339    4.9860 C   0  0  0  0  0  0  0  0  0  0  0  0
    3.5199    3.5365    4.6047 C   0  0  0  0  0  0  0  0  0  0  0  0
    2.5728    3.7602    3.6353 C   0  0  0  0  0  0  0  0  0  0  0  0
    1.9404    2.7236    3.0160 C   0  0  0  0  0  0  0  0  0  0  0  0
    2.2830    1.4370    3.3930 C   0  0  0  0  0  0  0  0  0  0  0  0
    2.1043   -0.3916   -0.1582 C   0  0  0  0  0  0  0  0  0  0  0  0
    1.7308   -1.0080   -1.2335 O   0  0  0  0  0  0  0  0  0  0  0  0
    3.4605   -0.4967    0.1419 N   0  0  0  0  0  0  0  0  0  0  0  0
    4.3009   -1.2620   -0.8021 C   0  0  1  0  0  0  0  0  0  0  0  0
    5.6467   -0.6412   -0.7648 C   0  0  0  0  0  0  0  0  0  0  0  0
    6.6755   -1.1824   -1.6472 C   0  0  0  0  0  0  0  0  0  0  0  0
    6.8215   -0.6620   -2.9023 C   0  0  0  0  0  0  0  0  0  0  0  0
    7.8060   -1.1554   -3.7555 C   0  0  0  0  0  0  0  0  0  0  0  0
    8.6224   -2.1784   -3.2983 C   0  0  0  0  0  0  0  0  0  0  0  0
    8.5039   -2.7341   -2.0274 C   0  0  0  0  0  0  0  0  0  0  0  0
    7.5203   -2.2153   -1.2222 C   0  0  0  0  0  0  0  0  0  0  0  0
    4.2694   -2.7193   -0.3875 C   0  0  0  0  0  0  0  0  0  0  0  0
    4.8027   -3.7452   -1.1928 N   0  0  0  0  0  0  0  0  0  0  0  0
    3.7125   -2.9423    0.7470 O   0  0  0  0  0  0  0  0  0  0  0  0
   -8.8773   -0.3595   -0.0169 H   0  0  0  0  0  0  0  0  0  0  0  0
   -7.5032    0.5699   -0.6468 H   0  0  0  0  0  0  0  0  0  0  0  0
   -7.6492   -1.2536   -0.9754 H   0  0  0  0  0  0  0  0  0  0  0  0
   -6.9156   -2.6217    0.1338 H   0  0  0  0  0  0  0  0  0  0  0  0
   -5.4821   -2.2148    1.2444 H   0  0  0  0  0  0  0  0  0  0  0  0
   -7.0743   -2.5976    1.9155 H   0  0  0  0  0  0  0  0  0  0  0  0
   -8.2663   -1.3737    2.6658 H   0  0  0  0  0  0  0  0  0  0  0  0
   -7.2414    0.0280    3.0994 H   0  0  0  0  0  0  0  0  0  0  0  0
   -8.6923    0.2390    2.0810 H   0  0  0  0  0  0  0  0  0  0  0  0
   -3.6902    1.7211    0.8340 H   0  0  0  0  0  0  0  0  0  0  0  0
   -2.6204   -0.2076   -1.1888 H   0  0  0  0  0  0  0  0  0  0  0  0
   -1.7623    1.7754   -2.5060 H   0  0  0  0  0  0  0  0  0  0  0  0
   -2.5714    2.8663   -1.3444 H   0  0  0  0  0  0  0  0  0  0  0  0
   -5.0419    3.0514   -1.3055 H   0  0  0  0  0  0  0  0  0  0  0  0
   -7.0861    2.7827   -2.6582 H   0  0  0  0  0  0  0  0  0  0  0  0
   -7.1398    1.3707   -4.6502 H   0  0  0  0  0  0  0  0  0  0  0  0
   -5.1122    0.1862   -5.3374 H   0  0  0  0  0  0  0  0  0  0  0  0
   -3.0504    0.3873   -4.0748 H   0  0  0  0  0  0  0  0  0  0  0  0
   -0.3011   -0.7899   -0.7154 H   0  0  0  0  0  0  0  0  0  0  0  0
    1.2307    1.4277    0.4393 H   0  0  0  0  0  0  0  0  0  0  0  0
   -0.0869    0.6041    2.2966 H   0  0  0  0  0  0  0  0  0  0  0  0
    0.4112   -1.0689    2.0225 H   0  0  0  0  0  0  0  0  0  0  0  0
    2.4401   -1.8898    3.6464 H   0  0  0  0  0  0  0  0  0  0  0  0
    4.0098   -0.6365    5.2016 H   0  0  0  0  0  0  0  0  0  0  0  0
    4.6131    2.0830    5.7469 H   0  0  0  0  0  0  0  0  0  0  0  0
    4.0393    4.3231    5.1204 H   0  0  0  0  0  0  0  0  0  0  0  0
    2.3048    4.7626    3.3286 H   0  0  0  0  0  0  0  0  0  0  0  0
    1.1734    2.8753    2.2419 H   0  0  0  0  0  0  0  0  0  0  0  0
    3.8598   -0.0558    0.9782 H   0  0  0  0  0  0  0  0  0  0  0  0
    3.7799   -1.2053   -1.7886 H   0  0  0  0  0  0  0  0  0  0  0  0
    6.0779   -0.6120    0.2804 H   0  0  0  0  0  0  0  0  0  0  0  0
    5.5576    0.4625   -1.0150 H   0  0  0  0  0  0  0  0  0  0  0  0
    6.1851    0.1351   -3.2718 H   0  0  0  0  0  0  0  0  0  0  0  0
    7.9357   -0.7534   -4.7486 H   0  0  0  0  0  0  0  0  0  0  0  0
    9.3734   -2.5475   -3.9760 H   0  0  0  0  0  0  0  0  0  0  0  0
    9.1415   -3.5356   -1.6730 H   0  0  0  0  0  0  0  0  0  0  0  0
    7.4048   -2.6239   -0.2404 H   0  0  0  0  0  0  0  0  0  0  0  0
    4.8681   -3.5798   -2.2186 H   0  0  0  0  0  0  0  0  0  0  0  0
    5.1250   -4.6484   -0.8122 H   0  0  0  0  0  0  0  0  0  0  0  0
  1  2  1  0
  2  3  1  0
  2  4  1  0
  2  5  1  0
  5  6  1  0
  6  7  2  0
  6  8  1  0
  8  9  1  0
  9 10  1  0
 10 11  1  0
 11 12  2  0
 12 13  1  0
 13 14  2  0
 14 15  1  0
 15 16  2  0
  9 17  1  0
 17 18  2  0
 17 19  1  0
 19 20  1  0
 20 21  1  0
 21 22  1  0
 22 23  2  0
 23 24  1  0
 24 25  1  0
 25 26  2  0
 26 27  1  0
 27 28  2  0
 28 29  1  0
 29 30  2  0
 20 31  1  0
 31 32  2  0
 31 33  1  0
 33 34  1  0
 34 35  1  0
 35 36  1  0
 36 37  2  0
 37 38  1  0
 38 39  2  0
 39 40  1  0
 40 41  2  0
 34 42  1  0
 42 43  1  0
 42 44  2  0
 16 11  1  0
 30 22  1  0
 41 36  1  0
 30 25  1  0
  1 45  1  0
  1 46  1  0
  1 47  1  0
  3 48  1  0
  3 49  1  0
  3 50  1  0
  4 51  1  0
  4 52  1  0
  4 53  1  0
  8 54  1  0
  9 55  1  6
 10 56  1  0
 10 57  1  0
 12 58  1  0
 13 59  1  0
 14 60  1  0
 15 61  1  0
 16 62  1  0
 19 63  1  0
 20 64  1  1
 21 65  1  0
 21 66  1  0
 23 67  1  0
 24 68  1  0
 26 69  1  0
 27 70  1  0
 28 71  1  0
 29 72  1  0
 33 73  1  0
 34 74  1  6
 35 75  1  0
 35 76  1  0
 37 77  1  0
 38 78  1  0
 39 79  1  0
 40 80  1  0
 41 81  1  0
 43 82  1  0
 43 83  1  0
M  END
$$$$
[H]c1c([H])c(N2C([H])([H])C([H])([H])N(c3nc4c([H])c(C(=O)N([H])[H])c([H])c([H])c4n3[H])C([H])([H])[C@]2([H])C([H])([H])[H])c([H])c([H])c1F
     RDKit          3D

 46 49  0  0  0  0  0  0  0  0999 V2000
   -2.5040   -2.4417   -0.0226 C   0  0  0  0  0  0  0  0  0  0  0  0
   -1.9546   -1.0822    0.4355 C   0  0  1  0  0  0  0  0  0  0  0  0
   -0.4935   -0.9992    0.0866 C   0  0  0  0  0  0  0  0  0  0  0  0
    0.0318    0.3182   -0.0187 N   0  0  0  0  0  0  0  0  0  0  0  0
   -0.8149    1.4673   -0.1009 C   0  0  0  0  0  0  0  0  0  0  0  0
   -2.0922    1.0669   -0.8238 C   0  0  0  0  0  0  0  0  0  0  0  0
   -2.7303   -0.0044   -0.1109 N   0  0  0  0  0  0  0  0  0  0  0  0
   -4.1263    0.0124    0.0662 C   0  0  0  0  0  0  0  0  0  0  0  0
   -4.9206    0.7440   -0.7869 C   0  0  0  0  0  0  0  0  0  0  0  0
   -6.2787    0.7763   -0.6084 C   0  0  0  0  0  0  0  0  0  0  0  0
   -6.8348    0.0722    0.4278 C   0  0  0  0  0  0  0  0  0  0  0  0
   -8.1736    0.0883    0.6240 F   0  0  0  0  0  0  0  0  0  0  0  0
   -6.0286   -0.6699    1.2927 C   0  0  0  0  0  0  0  0  0  0  0  0
   -4.6697   -0.7031    1.1159 C   0  0  0  0  0  0  0  0  0  0  0  0
    1.4430    0.5151   -0.0434 C   0  0  0  0  0  0  0  0  0  0  0  0
    2.3538   -0.4647    0.0325 N   0  0  0  0  0  0  0  0  0  0  0  0
    3.5761    0.0860   -0.0220 C   0  0  0  0  0  0  0  0  0  0  0  0
    4.8573   -0.4001    0.0099 C   0  0  0  0  0  0  0  0  0  0  0  0
    5.9773    0.4052   -0.0651 C   0  0  0  0  0  0  0  0  0  0  0  0
    5.7573    1.7598   -0.1770 C   0  0  0  0  0  0  0  0  0  0  0  0
    4.4909    2.3014   -0.2138 C   0  0  0  0  0  0  0  0  0  0  0  0
    3.3988    1.4528   -0.1353 C   0  0  0  0  0  0  0  0  0  0  0  0
    2.0963    1.6980   -0.1468 N   0  0  0  0  0  0  0  0  0  0  0  0
    7.3113   -0.1746   -0.0251 C   0  0  0  0  0  0  0  0  0  0  0  0
    7.4494   -1.5847    0.0857 N   0  0  0  0  0  0  0  0  0  0  0  0
    8.3381    0.5358   -0.0858 O   0  0  0  0  0  0  0  0  0  0  0  0
   -2.7643   -3.0741    0.8297 H   0  0  0  0  0  0  0  0  0  0  0  0
   -3.3745   -2.2383   -0.6483 H   0  0  0  0  0  0  0  0  0  0  0  0
   -1.7295   -2.9522   -0.6332 H   0  0  0  0  0  0  0  0  0  0  0  0
   -2.0289   -1.0367    1.5519 H   0  0  0  0  0  0  0  0  0  0  0  0
   -0.3685   -1.5768   -0.8702 H   0  0  0  0  0  0  0  0  0  0  0  0
    0.1283   -1.5728    0.8319 H   0  0  0  0  0  0  0  0  0  0  0  0
   -1.0478    1.9153    0.8911 H   0  0  0  0  0  0  0  0  0  0  0  0
   -0.3708    2.2980   -0.7064 H   0  0  0  0  0  0  0  0  0  0  0  0
   -2.7673    1.9625   -0.8602 H   0  0  0  0  0  0  0  0  0  0  0  0
   -1.8346    0.7903   -1.8574 H   0  0  0  0  0  0  0  0  0  0  0  0
   -4.4805    1.2975   -1.6122 H   0  0  0  0  0  0  0  0  0  0  0  0
   -6.8925    1.3550   -1.2857 H   0  0  0  0  0  0  0  0  0  0  0  0
   -6.4569   -1.2305    2.1157 H   0  0  0  0  0  0  0  0  0  0  0  0
   -4.0321   -1.2760    1.7892 H   0  0  0  0  0  0  0  0  0  0  0  0
    5.0135   -1.4689    0.0985 H   0  0  0  0  0  0  0  0  0  0  0  0
    6.6246    2.4197   -0.2384 H   0  0  0  0  0  0  0  0  0  0  0  0
    4.3172    3.3536   -0.3008 H   0  0  0  0  0  0  0  0  0  0  0  0
    1.6067    2.6156   -0.2208 H   0  0  0  0  0  0  0  0  0  0  0  0
    7.4835   -1.9756    1.0566 H   0  0  0  0  0  0  0  0  0  0  0  0
    7.5146   -2.2113   -0.7211 H   0  0  0  0  0  0  0  0  0  0  0  0
  1  2  1  0
  2  3  1  0
  3  4  1  0
  4  5  1  0
  5  6  1  0
  6  7  1  0
  7  8  1  0
  8  9  2  0
  9 10  1  0
 10 11  2  0
 11 12  1  0
 11 13  1  0
 13 14  2  0
  4 15  1  0
 15 16  2  0
 16 17  1  0
 17 18  2  0
 18 19  1  0
 19 20  2  0
 20 21  1  0
 21 22  2  0
 22 23  1  0
 19 24  1  0
 24 25  1  0
 24 26  2  0
  7  2  1  0
 14  8  1  0
 23 15  1  0
 22 17  1  0
  1 27  1  0
  1 28  1  0
  1 29  1  0
  2 30  1  1
  3 31  1  0
  3 32  1  0
  5 33  1  0
  5 34  1  0
  6 35  1  0
  6 36  1  0
  9 37  1  0
 10 38  1  0
 13 39  1  0
 14 40  1  0
 18 41  1  0
 20 42  1  0
 21 43  1  0
 23 44  1  0
 25 45  1  0
 25 46  1  0
M  END
$$$$
[H]OC(=O)c1c([H])c([H])c(N([H])S(=O)(=O)c2c([H])c([H])c(C([H])([H])[H])c([H])c2[H])c([H])c1[H]
     RDKit          3D

 33 34  0  0  0  0  0  0  0  0999 V2000
   -5.6885    0.3438    0.7815 C   0  0  0  0  0  0  0  0  0  0  0  0
   -4.2966   -0.1594    0.5515 C   0  0  0  0  0  0  0  0  0  0  0  0
   -3.2388    0.2198    1.3563 C   0  0  0  0  0  0  0  0  0  0  0  0
   -1.9704   -0.2827    1.0902 C   0  0  0  0  0  0  0  0  0  0  0  0
   -1.7430   -1.1403    0.0553 C   0  0  0  0  0  0  0  0  0  0  0  0
   -2.7916   -1.5359   -0.7678 C   0  0  0  0  0  0  0  0  0  0  0  0
   -4.0370   -1.0235   -0.4821 C   0  0  0  0  0  0  0  0  0  0  0  0
   -0.1511   -1.7921   -0.3060 S   0  0  0  0  0  0  0  0  0  0  0  0
   -0.2928   -3.1350   -0.9827 O   0  0  0  0  0  0  0  0  0  0  0  0
    0.6523   -1.9491    0.9531 O   0  0  0  0  0  0  0  0  0  0  0  0
    0.6920   -0.7664   -1.4043 N   0  0  0  0  0  0  0  0  0  0  0  0
    1.8401   -0.0818   -0.9691 C   0  0  0  0  0  0  0  0  0  0  0  0
    1.9510    1.2688   -1.2051 C   0  0  0  0  0  0  0  0  0  0  0  0
    3.0732    1.9218   -0.7626 C   0  0  0  0  0  0  0  0  0  0  0  0
    4.0986    1.2677   -0.0863 C   0  0  0  0  0  0  0  0  0  0  0  0
    3.9756   -0.0902    0.1446 C   0  0  0  0  0  0  0  0  0  0  0  0
    2.8319   -0.7522   -0.3073 C   0  0  0  0  0  0  0  0  0  0  0  0
    5.2752    2.0133    0.3645 C   0  0  0  0  0  0  0  0  0  0  0  0
    6.2903    1.3697    1.0332 O   0  0  0  0  0  0  0  0  0  0  0  0
    5.3208    3.2402    0.1217 O   0  0  0  0  0  0  0  0  0  0  0  0
   -5.8851    0.3265    1.8908 H   0  0  0  0  0  0  0  0  0  0  0  0
   -6.3770   -0.4169    0.3431 H   0  0  0  0  0  0  0  0  0  0  0  0
   -5.8354    1.3535    0.3796 H   0  0  0  0  0  0  0  0  0  0  0  0
   -3.4303    0.9018    2.1761 H   0  0  0  0  0  0  0  0  0  0  0  0
   -1.1481    0.0293    1.7379 H   0  0  0  0  0  0  0  0  0  0  0  0
   -2.6158   -2.2249   -1.6013 H   0  0  0  0  0  0  0  0  0  0  0  0
   -4.8838   -1.3147   -1.1104 H   0  0  0  0  0  0  0  0  0  0  0  0
    0.3648   -0.6409   -2.3981 H   0  0  0  0  0  0  0  0  0  0  0  0
    1.1454    1.7553   -1.7304 H   0  0  0  0  0  0  0  0  0  0  0  0
    3.1604    2.9863   -0.9486 H   0  0  0  0  0  0  0  0  0  0  0  0
    4.7558   -0.6170    0.6655 H   0  0  0  0  0  0  0  0  0  0  0  0
    2.8134   -1.8258   -0.0950 H   0  0  0  0  0  0  0  0  0  0  0  0
    6.1447    0.7510    1.8393 H   0  0  0  0  0  0  0  0  0  0  0  0
  1  2  1  0
  2  3  2  0
  3  4  1  0
  4  5  2  0
  5  6  1  0
  6  7  2  0
  5  8  1  0
  8  9  2  0
  8 10  2  0
  8 11  1  0
 11 12  1  0
 12 13  2  0
 13 14  1  0
 14 15  2  0
 15 16  1  0
 16 17  2  0
 15 18  1  0
 18 19  1  0
 18 20  2  0
  7  2  1  0
 17 12  1  0
  1 21  1  0
  1 22  1  0
  1 23  1  0
  3 24  1  0
  4 25  1  0
  6 26  1  0
  7 27  1  0
 11 28  1  0
 13 29  1  0
 14 30  1  0
 16 31  1  0
 17 32  1  0
 19 33  1  0
M  END
$$$$
[H]OC(=O)C([H])([H])[C@@]([H])(C(=O)N([H])[C@]([H])(C(=O)N([H])[H])C([H])([H])c1c([H])c([H])c([H])c([H])c1[H])N([H])C(=O)[C@@]([H])(N([H])C(=O)[C@@]([H])(N([H])C(=O)[C@@]([H])(N([H])C(=O)[C@@]([H])(N([H])[H])C([H])([H])c1c([H])c([H])c([H])c([H])c1[H])[C@@]([H])(C([H])([H])[H])C([H])([H])C([H])([H])[H])C([H])([H])c1c([H])c([H])c([H])c([H])c1[H])C([H])([H])c1c([H])c([H])c([H])c([H])c1[H]
     RDKit          3D

116119  0  0  0  0  0  0  0  0999 V2000
    3.2173    2.6885   -1.7715 C   0  0  0  0  0  0  0  0  0  0  0  0
    4.3987    3.0359   -0.9404 C   0  0  0  0  0  0  0  0  0  0  0  0
    5.5534    2.1114   -0.9789 C   0  0  2  0  0  0  0  0  0  0  0  0
    6.1494    1.9026   -2.3565 C   0  0  0  0  0  0  0  0  0  0  0  0
    5.4453    0.8490   -0.1685 C   0  0  2  0  0  0  0  0  0  0  0  0
    6.7119    0.1030   -0.3741 N   0  0  0  0  0  0  0  0  0  0  0  0
    7.6903   -0.0001    0.6095 C   0  0  0  0  0  0  0  0  0  0  0  0
    7.4697    0.5825    1.7246 O   0  0  0  0  0  0  0  0  0  0  0  0
    8.9683   -0.7173    0.5016 C   0  0  1  0  0  0  0  0  0  0  0  0
    9.1140   -1.3959   -0.7763 N   0  0  0  0  0  0  0  0  0  0  0  0
   10.0737    0.2994    0.7111 C   0  0  0  0  0  0  0  0  0  0  0  0
   11.4256   -0.2572    0.6375 C   0  0  0  0  0  0  0  0  0  0  0  0
   12.0997   -0.3301   -0.5641 C   0  0  0  0  0  0  0  0  0  0  0  0
   13.3864   -0.8580   -0.5978 C   0  0  0  0  0  0  0  0  0  0  0  0
   14.0147   -1.3178    0.5594 C   0  0  0  0  0  0  0  0  0  0  0  0
   13.3399   -1.2439    1.7580 C   0  0  0  0  0  0  0  0  0  0  0  0
   12.0564   -0.7158    1.7834 C   0  0  0  0  0  0  0  0  0  0  0  0
    4.2986   -0.0002   -0.4544 C   0  0  0  0  0  0  0  0  0  0  0  0
    4.3459   -0.8261   -1.3932 O   0  0  0  0  0  0  0  0  0  0  0  0
    3.1176    0.0829    0.3148 N   0  0  0  0  0  0  0  0  0  0  0  0
    1.9530   -0.7899    0.0051 C   0  0  1  0  0  0  0  0  0  0  0  0
    2.0985   -1.9223    0.9692 C   0  0  0  0  0  0  0  0  0  0  0  0
    1.0983   -2.9834    0.8954 C   0  0  0  0  0  0  0  0  0  0  0  0
    1.2538   -4.0462    0.0078 C   0  0  0  0  0  0  0  0  0  0  0  0
    0.3569   -5.0937   -0.0689 C   0  0  0  0  0  0  0  0  0  0  0  0
   -0.7359   -5.0600    0.7863 C   0  0  0  0  0  0  0  0  0  0  0  0
   -0.9145   -4.0247    1.6714 C   0  0  0  0  0  0  0  0  0  0  0  0
    0.0030   -2.9961    1.7187 C   0  0  0  0  0  0  0  0  0  0  0  0
    0.7481    0.0119    0.0801 C   0  0  0  0  0  0  0  0  0  0  0  0
    0.8740    1.1919    0.5774 O   0  0  0  0  0  0  0  0  0  0  0  0
   -0.5668   -0.3186   -0.3301 N   0  0  0  0  0  0  0  0  0  0  0  0
   -1.6632    0.6704   -0.1807 C   0  0  1  0  0  0  0  0  0  0  0  0
   -1.6897    1.4108   -1.4674 C   0  0  0  0  0  0  0  0  0  0  0  0
   -2.6620    2.4873   -1.6321 C   0  0  0  0  0  0  0  0  0  0  0  0
   -3.8547    2.3534   -2.3015 C   0  0  0  0  0  0  0  0  0  0  0  0
   -4.7528    3.3964   -2.4368 C   0  0  0  0  0  0  0  0  0  0  0  0
   -4.4953    4.6356   -1.9017 C   0  0  0  0  0  0  0  0  0  0  0  0
   -3.2982    4.8020   -1.2197 C   0  0  0  0  0  0  0  0  0  0  0  0
   -2.4158    3.7516   -1.0956 C   0  0  0  0  0  0  0  0  0  0  0  0
   -2.8586    0.0944    0.3649 C   0  0  0  0  0  0  0  0  0  0  0  0
   -2.8423   -1.1992    0.5130 O   0  0  0  0  0  0  0  0  0  0  0  0
   -4.0563    0.6807    0.7854 N   0  0  0  0  0  0  0  0  0  0  0  0
   -5.1731   -0.1301    1.3762 C   0  0  1  0  0  0  0  0  0  0  0  0
   -5.2743    0.2041    2.8315 C   0  0  0  0  0  0  0  0  0  0  0  0
   -6.2734   -0.6259    3.5191 C   0  0  0  0  0  0  0  0  0  0  0  0
   -6.6953   -1.8677    3.0430 O   0  0  0  0  0  0  0  0  0  0  0  0
   -6.8143   -0.2435    4.6134 O   0  0  0  0  0  0  0  0  0  0  0  0
   -6.3472    0.2793    0.6115 C   0  0  0  0  0  0  0  0  0  0  0  0
   -6.1992    0.3970   -0.6660 O   0  0  0  0  0  0  0  0  0  0  0  0
   -7.6435    0.5810    1.0617 N   0  0  0  0  0  0  0  0  0  0  0  0
   -8.6950    1.0086    0.1299 C   0  0  1  0  0  0  0  0  0  0  0  0
   -9.9686    0.2591    0.2728 C   0  0  0  0  0  0  0  0  0  0  0  0
   -9.9055   -1.1903    0.0357 C   0  0  0  0  0  0  0  0  0  0  0  0
   -9.6612   -2.0913    1.0406 C   0  0  0  0  0  0  0  0  0  0  0  0
   -9.6318   -3.4493    0.7583 C   0  0  0  0  0  0  0  0  0  0  0  0
   -9.8471   -3.9083   -0.5320 C   0  0  0  0  0  0  0  0  0  0  0  0
  -10.0928   -3.0182   -1.5490 C   0  0  0  0  0  0  0  0  0  0  0  0
  -10.1149   -1.6798   -1.2344 C   0  0  0  0  0  0  0  0  0  0  0  0
   -8.9122    2.4740    0.4218 C   0  0  0  0  0  0  0  0  0  0  0  0
   -9.8754    3.2077   -0.3052 N   0  0  0  0  0  0  0  0  0  0  0  0
   -8.2529    3.0771    1.3069 O   0  0  0  0  0  0  0  0  0  0  0  0
    2.2416    2.8833   -1.2798 H   0  0  0  0  0  0  0  0  0  0  0  0
    3.1996    3.4080   -2.6553 H   0  0  0  0  0  0  0  0  0  0  0  0
    3.3091    1.7033   -2.2452 H   0  0  0  0  0  0  0  0  0  0  0  0
    4.6995    4.0982   -1.1752 H   0  0  0  0  0  0  0  0  0  0  0  0
    4.0667    3.0933    0.1396 H   0  0  0  0  0  0  0  0  0  0  0  0
    6.3968    2.6924   -0.4423 H   0  0  0  0  0  0  0  0  0  0  0  0
    7.2170    1.6249   -2.2499 H   0  0  0  0  0  0  0  0  0  0  0  0
    5.9352    2.7124   -3.0473 H   0  0  0  0  0  0  0  0  0  0  0  0
    5.6379    0.9812   -2.7658 H   0  0  0  0  0  0  0  0  0  0  0  0
    5.4854    1.1813    0.9067 H   0  0  0  0  0  0  0  0  0  0  0  0
    6.8253   -0.3400   -1.2988 H   0  0  0  0  0  0  0  0  0  0  0  0
    8.9935   -1.4997    1.2858 H   0  0  0  0  0  0  0  0  0  0  0  0
    8.1809   -1.8327   -0.9861 H   0  0  0  0  0  0  0  0  0  0  0  0
    9.8543   -2.1288   -0.7508 H   0  0  0  0  0  0  0  0  0  0  0  0
    9.8969    0.7628    1.7142 H   0  0  0  0  0  0  0  0  0  0  0  0
    9.9530    1.1402   -0.0076 H   0  0  0  0  0  0  0  0  0  0  0  0
   11.6540    0.0141   -1.4962 H   0  0  0  0  0  0  0  0  0  0  0  0
   13.9011   -0.9068   -1.5514 H   0  0  0  0  0  0  0  0  0  0  0  0
   15.0348   -1.7312    0.5072 H   0  0  0  0  0  0  0  0  0  0  0  0
   13.8513   -1.6074    2.6441 H   0  0  0  0  0  0  0  0  0  0  0  0
   11.5634   -0.6788    2.7560 H   0  0  0  0  0  0  0  0  0  0  0  0
    3.0270    0.7430    1.1037 H   0  0  0  0  0  0  0  0  0  0  0  0
    2.1169   -1.1981   -1.0063 H   0  0  0  0  0  0  0  0  0  0  0  0
    3.0891   -2.4140    0.7069 H   0  0  0  0  0  0  0  0  0  0  0  0
    2.2763   -1.5676    2.0162 H   0  0  0  0  0  0  0  0  0  0  0  0
    2.1005   -4.0941   -0.6699 H   0  0  0  0  0  0  0  0  0  0  0  0
    0.4539   -5.9278   -0.7449 H   0  0  0  0  0  0  0  0  0  0  0  0
   -1.4576   -5.8641    0.7525 H   0  0  0  0  0  0  0  0  0  0  0  0
   -1.7574   -3.9818    2.3419 H   0  0  0  0  0  0  0  0  0  0  0  0
   -0.1766   -2.1900    2.4361 H   0  0  0  0  0  0  0  0  0  0  0  0
   -0.7871   -1.2210   -0.7319 H   0  0  0  0  0  0  0  0  0  0  0  0
   -1.2351    1.4246    0.5679 H   0  0  0  0  0  0  0  0  0  0  0  0
   -0.6593    1.8821   -1.5700 H   0  0  0  0  0  0  0  0  0  0  0  0
   -1.7170    0.7168   -2.3557 H   0  0  0  0  0  0  0  0  0  0  0  0
   -4.0793    1.3781   -2.7344 H   0  0  0  0  0  0  0  0  0  0  0  0
   -5.6875    3.2549   -2.9730 H   0  0  0  0  0  0  0  0  0  0  0  0
   -5.2063    5.4424   -2.0151 H   0  0  0  0  0  0  0  0  0  0  0  0
   -3.1138    5.7867   -0.8057 H   0  0  0  0  0  0  0  0  0  0  0  0
   -1.4825    3.9032   -0.5555 H   0  0  0  0  0  0  0  0  0  0  0  0
   -4.2279    1.6843    0.7164 H   0  0  0  0  0  0  0  0  0  0  0  0
   -4.9016   -1.2015    1.3102 H   0  0  0  0  0  0  0  0  0  0  0  0
   -5.6042    1.2663    2.9800 H   0  0  0  0  0  0  0  0  0  0  0  0
   -4.2736    0.0954    3.3459 H   0  0  0  0  0  0  0  0  0  0  0  0
   -6.5865   -2.1269    2.0597 H   0  0  0  0  0  0  0  0  0  0  0  0
   -7.8938    0.5254    2.0544 H   0  0  0  0  0  0  0  0  0  0  0  0
   -8.2635    0.9659   -0.8833 H   0  0  0  0  0  0  0  0  0  0  0  0
  -10.4019    0.3954    1.3108 H   0  0  0  0  0  0  0  0  0  0  0  0
  -10.7320    0.7517   -0.3978 H   0  0  0  0  0  0  0  0  0  0  0  0
   -9.4867   -1.7552    2.0762 H   0  0  0  0  0  0  0  0  0  0  0  0
   -9.4364   -4.1488    1.5727 H   0  0  0  0  0  0  0  0  0  0  0  0
   -9.8223   -4.9868   -0.7408 H   0  0  0  0  0  0  0  0  0  0  0  0
  -10.2576   -3.4020   -2.5463 H   0  0  0  0  0  0  0  0  0  0  0  0
  -10.3088   -0.9806   -2.0414 H   0  0  0  0  0  0  0  0  0  0  0  0
  -10.1334    4.1860   -0.0657 H   0  0  0  0  0  0  0  0  0  0  0  0
  -10.3499    2.7592   -1.1113 H   0  0  0  0  0  0  0  0  0  0  0  0
  1  2  1  0
  2  3  1  0
  3  4  1  0
  3  5  1  0
  5  6  1  0
  6  7  1  0
  7  8  2  0
  7  9  1  0
  9 10  1  0
  9 11  1  0
 11 12  1  0
 12 13  2  0
 13 14  1  0
 14 15  2  0
 15 16  1  0
 16 17  2  0
  5 18  1  0
 18 19  2  0
 18 20  1  0
 20 21  1  0
 21 22  1  0
 22 23  1  0
 23 24  2  0
 24 25  1  0
 25 26  2  0
 26 27  1  0
 27 28  2  0
 21 29  1  0
 29 30  2  0
 29 31  1  0
 31 32  1  0
 32 33  1  0
 33 34  1  0
 34 35  2  0
 35 36  1  0
 36 37  2  0
 37 38  1  0
 38 39  2  0
 32 40  1  0
 40 41  2  0
 40 42  1  0
 42 43  1  0
 43 44  1  0
 44 45  1  0
 45 46  1  0
 45 47  2  0
 43 48  1  0
 48 49  2  0
 48 50  1  0
 50 51  1  0
 51 52  1  0
 52 53  1  0
 53 54  2  0
 54 55  1  0
 55 56  2  0
 56 57  1  0
 57 58  2  0
 51 59  1  0
 59 60  1  0
 59 61  2  0
 17 12  1  0
 28 23  1  0
 39 34  1  0
 58 53  1  0
  1 62  1  0
  1 63  1  0
  1 64  1  0
  2 65  1  0
  2 66  1  0
  3 67  1  1
  4 68  1  0
  4 69  1  0
  4 70  1  0
  5 71  1  1
  6 72  1  0
  9 73  1  1
 10 74  1  0
 10 75  1  0
 11 76  1  0
 11 77  1  0
 13 78  1  0
 14 79  1  0
 15 80  1  0
 16 81  1  0
 17 82  1  0
 20 83  1  0
 21 84  1  6
 22 85  1  0
 22 86  1  0
 24 87  1  0
 25 88  1  0
 26 89  1  0
 27 90  1  0
 28 91  1  0
 31 92  1  0
 32 93  1  1
 33 94  1  0
 33 95  1  0
 35 96  1  0
 36 97  1  0
 37 98  1  0
 38 99  1  0
 39100  1  0
 42101  1  0
 43102  1  1
 44103  1  0
 44104  1  0
 46105  1  0
 50106  1  0
 51107  1  6
 52108  1  0
 52109  1  0
 54110  1  0
 55111  1  0
 56112  1  0
 57113  1  0
 58114  1  0
 60115  1  0
 60116  1  0
M  END
$$$$
[H]OC([H])([H])[C@@]1([H])O[C@@]([H])(n2c([H])nc3c(N([H])c4c([H])c(Cl)c([H])c(Cl)c4[H])nc(N([H])[H])nc32)[C@]([H])(O[H])[C@]1([H])O[H]
     RDKit          3D

 44 47  0  0  0  0  0  0  0  0999 V2000
   -6.8490    1.5731    0.4101 O   0  0  0  0  0  0  0  0  0  0  0  0
   -5.6245    1.9381   -0.1795 C   0  0  0  0  0  0  0  0  0  0  0  0
   -4.8014    0.6836   -0.2927 C   0  0  1  0  0  0  0  0  0  0  0  0
   -3.5664    0.9229   -0.8629 O   0  0  0  0  0  0  0  0  0  0  0  0
   -2.7345   -0.1181   -0.5373 C   0  0  2  0  0  0  0  0  0  0  0  0
   -3.3051   -0.8172    0.6684 C   0  0  2  0  0  0  0  0  0  0  0  0
   -3.9535   -1.9614    0.2219 O   0  0  0  0  0  0  0  0  0  0  0  0
   -4.3940    0.1673    1.0936 C   0  0  2  0  0  0  0  0  0  0  0  0
   -5.4361   -0.4491    1.7430 O   0  0  0  0  0  0  0  0  0  0  0  0
   -1.3890    0.3239   -0.1958 N   0  0  0  0  0  0  0  0  0  0  0  0
   -1.0725    1.4188    0.5163 C   0  0  0  0  0  0  0  0  0  0  0  0
    0.2675    1.4811    0.6155 N   0  0  0  0  0  0  0  0  0  0  0  0
    0.8227    0.4553   -0.0138 C   0  0  0  0  0  0  0  0  0  0  0  0
    2.1549    0.0395   -0.2197 C   0  0  0  0  0  0  0  0  0  0  0  0
    3.1991    0.8229    0.3125 N   0  0  0  0  0  0  0  0  0  0  0  0
    4.5813    0.6124    0.2513 C   0  0  0  0  0  0  0  0  0  0  0  0
    5.4366    1.6616    0.6467 C   0  0  0  0  0  0  0  0  0  0  0  0
    6.8035    1.5431    0.6313 C   0  0  0  0  0  0  0  0  0  0  0  0
    7.8482    2.8511    1.1236 Cl  0  0  0  0  0  0  0  0  0  0  0  0
    7.3918    0.3663    0.2187 C   0  0  0  0  0  0  0  0  0  0  0  0
    6.5708   -0.6579   -0.1667 C   0  0  0  0  0  0  0  0  0  0  0  0
    7.2515   -2.2035   -0.7105 Cl  0  0  0  0  0  0  0  0  0  0  0  0
    5.1931   -0.5371   -0.1505 C   0  0  0  0  0  0  0  0  0  0  0  0
    2.2703   -1.0817   -0.9294 N   0  0  0  0  0  0  0  0  0  0  0  0
    1.2894   -1.8210   -1.4443 C   0  0  0  0  0  0  0  0  0  0  0  0
    1.5178   -3.0074   -2.1905 N   0  0  0  0  0  0  0  0  0  0  0  0
    0.0070   -1.4015   -1.2338 N   0  0  0  0  0  0  0  0  0  0  0  0
   -0.2178   -0.2813   -0.5297 C   0  0  0  0  0  0  0  0  0  0  0  0
   -7.0644    0.6122    0.1942 H   0  0  0  0  0  0  0  0  0  0  0  0
   -5.1719    2.7031    0.4820 H   0  0  0  0  0  0  0  0  0  0  0  0
   -5.8289    2.3021   -1.1887 H   0  0  0  0  0  0  0  0  0  0  0  0
   -5.3962   -0.0827   -0.7943 H   0  0  0  0  0  0  0  0  0  0  0  0
   -2.6512   -0.8103   -1.4129 H   0  0  0  0  0  0  0  0  0  0  0  0
   -2.5808   -1.0010    1.4605 H   0  0  0  0  0  0  0  0  0  0  0  0
   -3.5378   -2.7940    0.5095 H   0  0  0  0  0  0  0  0  0  0  0  0
   -3.9459    1.0120    1.6752 H   0  0  0  0  0  0  0  0  0  0  0  0
   -5.5366   -0.1303    2.6945 H   0  0  0  0  0  0  0  0  0  0  0  0
   -1.7295    2.1552    0.9566 H   0  0  0  0  0  0  0  0  0  0  0  0
    2.8763    1.7090    0.8443 H   0  0  0  0  0  0  0  0  0  0  0  0
    5.0349    2.6097    0.9805 H   0  0  0  0  0  0  0  0  0  0  0  0
    8.4742    0.2488    0.1977 H   0  0  0  0  0  0  0  0  0  0  0  0
    4.6002   -1.4120   -0.4675 H   0  0  0  0  0  0  0  0  0  0  0  0
    2.3583   -3.5790   -2.0182 H   0  0  0  0  0  0  0  0  0  0  0  0
    0.8372   -3.2971   -2.9089 H   0  0  0  0  0  0  0  0  0  0  0  0
  1  2  1  0
  2  3  1  0
  3  4  1  0
  4  5  1  0
  5  6  1  0
  6  7  1  0
  6  8  1  0
  8  9  1  0
  5 10  1  0
 10 11  1  0
 11 12  2  0
 12 13  1  0
 13 14  2  0
 14 15  1  0
 15 16  1  0
 16 17  2  0
 17 18  1  0
 18 19  1  0
 18 20  2  0
 20 21  1  0
 21 22  1  0
 21 23  2  0
 14 24  1  0
 24 25  2  0
 25 26  1  0
 25 27  1  0
 27 28  2  0
  8  3  1  0
 28 10  1  0
 28 13  1  0
 23 16  1  0
  1 29  1  0
  2 30  1  0
  2 31  1  0
  3 32  1  6
  5 33  1  6
  6 34  1  1
  7 35  1  0
  8 36  1  1
  9 37  1  0
 11 38  1  0
 15 39  1  0
 17 40  1  0
 20 41  1  0
 23 42  1  0
 26 43  1  0
 26 44  1  0
M  END
$$$$
[H]c1c([H])c(N([H])C(=O)N([H])c2c([H])c([H])c(C(F)(F)F)c([H])c2[H])c([H])c([H])c1Oc1c([H])c([H])c([H])c2c([H])c(OC([H])([H])[H])c(OC([H])([H])[H])c([H])c12
     RDKit          3D

 56 59  0  0  0  0  0  0  0  0999 V2000
   -7.0549    1.4703   -2.9523 C   0  0  0  0  0  0  0  0  0  0  0  0
   -7.3068    0.7664   -1.8089 O   0  0  0  0  0  0  0  0  0  0  0  0
   -6.5732    0.2616   -0.7952 C   0  0  0  0  0  0  0  0  0  0  0  0
   -5.1929    0.3659   -0.6708 C   0  0  0  0  0  0  0  0  0  0  0  0
   -4.5167   -0.1725    0.3897 C   0  0  0  0  0  0  0  0  0  0  0  0
   -3.1366   -0.0650    0.4861 C   0  0  0  0  0  0  0  0  0  0  0  0
   -2.4059    0.5909   -0.4892 O   0  0  0  0  0  0  0  0  0  0  0  0
   -1.0305    0.5893   -0.3872 C   0  0  0  0  0  0  0  0  0  0  0  0
   -0.3965    1.6550    0.1745 C   0  0  0  0  0  0  0  0  0  0  0  0
    0.9753    1.6326    0.2611 C   0  0  0  0  0  0  0  0  0  0  0  0
    1.7300    0.5857   -0.1950 C   0  0  0  0  0  0  0  0  0  0  0  0
    3.1104    0.5569   -0.1601 N   0  0  0  0  0  0  0  0  0  0  0  0
    4.4151    0.5459   -0.1323 C   0  0  0  0  0  0  0  0  0  0  0  0
    5.1597    1.5643   -0.4640 O   0  0  0  0  0  0  0  0  0  0  0  0
    5.2539   -0.6065    0.2798 N   0  0  0  0  0  0  0  0  0  0  0  0
    6.6679   -0.4398    0.2465 C   0  0  0  0  0  0  0  0  0  0  0  0
    7.2179    0.0539   -0.9338 C   0  0  0  0  0  0  0  0  0  0  0  0
    8.5784    0.3037   -0.9234 C   0  0  0  0  0  0  0  0  0  0  0  0
    9.3728    0.0854    0.1694 C   0  0  0  0  0  0  0  0  0  0  0  0
    8.8391   -0.4059    1.3510 C   0  0  0  0  0  0  0  0  0  0  0  0
    7.4843   -0.6576    1.3514 C   0  0  0  0  0  0  0  0  0  0  0  0
   10.8240    0.3893    0.0685 C   0  0  0  0  0  0  0  0  0  0  0  0
   11.4576   -0.0525    1.2017 F   0  0  0  0  0  0  0  0  0  0  0  0
   11.3105   -0.3077   -1.0351 F   0  0  0  0  0  0  0  0  0  0  0  0
   10.9327    1.7707   -0.1086 F   0  0  0  0  0  0  0  0  0  0  0  0
    1.0402   -0.5071   -0.7707 C   0  0  0  0  0  0  0  0  0  0  0  0
   -0.3022   -0.4909   -0.8564 C   0  0  0  0  0  0  0  0  0  0  0  0
   -2.4548   -0.6103    1.5499 C   0  0  0  0  0  0  0  0  0  0  0  0
   -3.1807   -1.2792    2.5360 C   0  0  0  0  0  0  0  0  0  0  0  0
   -4.5329   -1.4000    2.4574 C   0  0  0  0  0  0  0  0  0  0  0  0
   -5.2145   -0.8449    1.3738 C   0  0  0  0  0  0  0  0  0  0  0  0
   -6.5811   -0.9453    1.2465 C   0  0  0  0  0  0  0  0  0  0  0  0
   -7.2912   -0.4215    0.2027 C   0  0  0  0  0  0  0  0  0  0  0  0
   -8.6911   -0.5254    0.0690 O   0  0  0  0  0  0  0  0  0  0  0  0
   -9.3858   -1.2353    1.0654 C   0  0  0  0  0  0  0  0  0  0  0  0
   -5.9761    1.7991   -3.0948 H   0  0  0  0  0  0  0  0  0  0  0  0
   -7.6879    2.3767   -3.0952 H   0  0  0  0  0  0  0  0  0  0  0  0
   -7.2438    0.8230   -3.8546 H   0  0  0  0  0  0  0  0  0  0  0  0
   -4.6237    0.8856   -1.4247 H   0  0  0  0  0  0  0  0  0  0  0  0
   -0.9710    2.5187    0.5463 H   0  0  0  0  0  0  0  0  0  0  0  0
    1.4742    2.5095    0.7155 H   0  0  0  0  0  0  0  0  0  0  0  0
    3.1163    1.7484   -0.8459 H   0  0  0  0  0  0  0  0  0  0  0  0
    4.8269   -1.4874    0.5843 H   0  0  0  0  0  0  0  0  0  0  0  0
    6.6149    0.2100   -1.8149 H   0  0  0  0  0  0  0  0  0  0  0  0
    8.9968    0.6939   -1.8723 H   0  0  0  0  0  0  0  0  0  0  0  0
    9.4197   -0.5736    2.2401 H   0  0  0  0  0  0  0  0  0  0  0  0
    7.0522   -1.0385    2.2884 H   0  0  0  0  0  0  0  0  0  0  0  0
    1.6654   -1.3216   -1.1061 H   0  0  0  0  0  0  0  0  0  0  0  0
   -0.8484   -1.3218   -1.2909 H   0  0  0  0  0  0  0  0  0  0  0  0
   -1.3506   -0.5486    1.6546 H   0  0  0  0  0  0  0  0  0  0  0  0
   -2.6127   -1.6890    3.3583 H   0  0  0  0  0  0  0  0  0  0  0  0
   -5.1149   -1.9080    3.2067 H   0  0  0  0  0  0  0  0  0  0  0  0
   -7.1378   -1.4708    2.0175 H   0  0  0  0  0  0  0  0  0  0  0  0
  -10.4884   -1.0940    0.9846 H   0  0  0  0  0  0  0  0  0  0  0  0
   -9.1550   -2.3309    0.8707 H   0  0  0  0  0  0  0  0  0  0  0  0
   -9.0773   -1.0010    2.0967 H   0  0  0  0  0  0  0  0  0  0  0  0
  1  2  1  0
  2  3  1  0
  3  4  2  0
  4  5  1  0
  5  6  2  0
  6  7  1  0
  7  8  1  0
  8  9  2  0
  9 10  1  0
 10 11  2  0
 11 12  1  0
 12 13  1  0
 13 14  2  0
 13 15  1  0
 15 16  1  0
 16 17  2  0
 17 18  1  0
 18 19  2  0
 19 20  1  0
 20 21  2  0
 19 22  1  0
 22 23  1  0
 22 24  1  0
 22 25  1  0
 11 26  1  0
 26 27  2  0
  6 28  1  0
 28 29  2  0
 29 30  1  0
 30 31  2  0
 31 32  1  0
 32 33  2  0
 33 34  1  0
 34 35  1  0
 33  3  1  0
 31  5  1  0
 27  8  1  0
 21 16  1  0
  1 36  1  0
  1 37  1  0
  1 38  1  0
  4 39  1  0
  9 40  1  0
 10 41  1  0
 12 42  1  0
 15 43  1  0
 17 44  1  0
 18 45  1  0
 20 46  1  0
 21 47  1  0
 26 48  1  0
 27 49  1  0
 28 50  1  0
 29 51  1  0
 30 52  1  0
 32 53  1  0
 35 54  1  0
 35 55  1  0
 35 56  1  0
M  END
$$$$
[H]O[C@]1([H])C([H])([H])[C@]([H])(N([H])C(=O)[C@@]([H])(N([H])C(=O)c2c([H])c([H])c(-c3c([H])c([H])c(S(=O)(=O)C([H])([H])[H])c([H])c3[H])c([H])c2[H])C([H])(C([H])([H])[H])C([H])([H])[H])C1([H])[H]
     RDKit          3D

 59 61  0  0  0  0  0  0  0  0999 V2000
   -4.8172   -0.7720   -2.3502 C   0  0  0  0  0  0  0  0  0  0  0  0
   -3.4041   -0.8505   -1.9071 C   0  0  0  0  0  0  0  0  0  0  0  0
   -3.0032   -2.2285   -1.4297 C   0  0  0  0  0  0  0  0  0  0  0  0
   -3.0490    0.1364   -0.8009 C   0  0  2  0  0  0  0  0  0  0  0  0
   -1.6145   -0.1386   -0.5647 N   0  0  0  0  0  0  0  0  0  0  0  0
   -0.6878    0.8585   -0.8803 C   0  0  0  0  0  0  0  0  0  0  0  0
   -1.0932    1.9795   -1.3635 O   0  0  0  0  0  0  0  0  0  0  0  0
    0.7553    0.7395   -0.7052 C   0  0  0  0  0  0  0  0  0  0  0  0
    1.2476   -0.4132   -0.1251 C   0  0  0  0  0  0  0  0  0  0  0  0
    2.6273   -0.5364    0.0440 C   0  0  0  0  0  0  0  0  0  0  0  0
    3.5214    0.4341   -0.3388 C   0  0  0  0  0  0  0  0  0  0  0  0
    2.9879    1.5822   -0.9200 C   0  0  0  0  0  0  0  0  0  0  0  0
    1.6323    1.7249   -1.0963 C   0  0  0  0  0  0  0  0  0  0  0  0
    4.9400    0.2201   -0.1236 C   0  0  0  0  0  0  0  0  0  0  0  0
    5.8807    0.7706   -0.9954 C   0  0  0  0  0  0  0  0  0  0  0  0
    7.2307    0.5755   -0.7997 C   0  0  0  0  0  0  0  0  0  0  0  0
    7.7160   -0.1655    0.2561 C   0  0  0  0  0  0  0  0  0  0  0  0
    6.7872   -0.7145    1.1249 C   0  0  0  0  0  0  0  0  0  0  0  0
    5.4364   -0.5194    0.9290 C   0  0  0  0  0  0  0  0  0  0  0  0
    9.4454   -0.4051    0.4918 S   0  0  0  0  0  0  0  0  0  0  0  0
   10.0371    0.9336    1.5108 C   0  0  0  0  0  0  0  0  0  0  0  0
    9.6787   -1.7132    1.1839 O   0  0  0  0  0  0  0  0  0  0  0  0
   10.1273   -0.3484   -0.8529 O   0  0  0  0  0  0  0  0  0  0  0  0
   -3.8003   -0.0974    0.4491 C   0  0  0  0  0  0  0  0  0  0  0  0
   -3.2187   -0.5891    1.4488 O   0  0  0  0  0  0  0  0  0  0  0  0
   -5.1599    0.2206    0.5525 N   0  0  0  0  0  0  0  0  0  0  0  0
   -5.9515    0.0083    1.7497 C   0  0  2  0  0  0  0  0  0  0  0  0
   -7.3012   -0.6118    1.5322 C   0  0  0  0  0  0  0  0  0  0  0  0
   -7.9564    0.7592    1.5105 C   0  0  2  0  0  0  0  0  0  0  0  0
   -8.2110    1.1853    0.2142 O   0  0  0  0  0  0  0  0  0  0  0  0
   -6.6626    1.3087    2.1110 C   0  0  0  0  0  0  0  0  0  0  0  0
   -5.5198   -1.2367   -1.6356 H   0  0  0  0  0  0  0  0  0  0  0  0
   -5.1164    0.2822   -2.5003 H   0  0  0  0  0  0  0  0  0  0  0  0
   -4.9457   -1.2302   -3.3791 H   0  0  0  0  0  0  0  0  0  0  0  0
   -2.7535   -0.6247   -2.7794 H   0  0  0  0  0  0  0  0  0  0  0  0
   -3.2800   -2.2875   -0.3589 H   0  0  0  0  0  0  0  0  0  0  0  0
   -1.9421   -2.4507   -1.5317 H   0  0  0  0  0  0  0  0  0  0  0  0
   -3.6585   -2.9722   -1.9490 H   0  0  0  0  0  0  0  0  0  0  0  0
   -3.1096    1.1668   -1.1872 H   0  0  0  0  0  0  0  0  0  0  0  0
   -1.3568   -1.0496   -0.1783 H   0  0  0  0  0  0  0  0  0  0  0  0
    0.6021   -1.2121    0.1981 H   0  0  0  0  0  0  0  0  0  0  0  0
    3.0150   -1.4449    0.5012 H   0  0  0  0  0  0  0  0  0  0  0  0
    3.6899    2.3437   -1.2199 H   0  0  0  0  0  0  0  0  0  0  0  0
    1.2483    2.6154   -1.5447 H   0  0  0  0  0  0  0  0  0  0  0  0
    5.4738    1.3523   -1.8226 H   0  0  0  0  0  0  0  0  0  0  0  0
    7.9468    1.0128   -1.4901 H   0  0  0  0  0  0  0  0  0  0  0  0
    7.1499   -1.3015    1.9624 H   0  0  0  0  0  0  0  0  0  0  0  0
    4.7148   -0.9503    1.6105 H   0  0  0  0  0  0  0  0  0  0  0  0
   11.0950    1.1562    1.2332 H   0  0  0  0  0  0  0  0  0  0  0  0
    9.9445    0.6291    2.5739 H   0  0  0  0  0  0  0  0  0  0  0  0
    9.3802    1.8117    1.3428 H   0  0  0  0  0  0  0  0  0  0  0  0
   -5.6580    0.6481   -0.2506 H   0  0  0  0  0  0  0  0  0  0  0  0
   -5.4374   -0.4280    2.6073 H   0  0  0  0  0  0  0  0  0  0  0  0
   -7.4334   -1.1298    0.5579 H   0  0  0  0  0  0  0  0  0  0  0  0
   -7.6988   -1.2155    2.3522 H   0  0  0  0  0  0  0  0  0  0  0  0
   -8.8471    0.8677    2.1355 H   0  0  0  0  0  0  0  0  0  0  0  0
   -8.5188    2.1019    0.1544 H   0  0  0  0  0  0  0  0  0  0  0  0
   -6.7593    1.4962    3.1951 H   0  0  0  0  0  0  0  0  0  0  0  0
   -6.3460    2.1891    1.5477 H   0  0  0  0  0  0  0  0  0  0  0  0
  1  2  1  0
  2  3  1  0
  2  4  1  0
  4  5  1  0
  5  6  1  0
  6  7  2  0
  6  8  1  0
  8  9  2  0
  9 10  1  0
 10 11  2  0
 11 12  1  0
 12 13  2  0
 11 14  1  0
 14 15  2  0
 15 16  1  0
 16 17  2  0
 17 18  1  0
 18 19  2  0
 17 20  1  0
 20 21  1  0
 20 22  2  0
 20 23  2  0
  4 24  1  0
 24 25  2  0
 24 26  1  0
 26 27  1  0
 27 28  1  0
 28 29  1  0
 29 30  1  0
 29 31  1  0
 13  8  1  0
 19 14  1  0
 31 27  1  0
  1 32  1  0
  1 33  1  0
  1 34  1  0
  2 35  1  0
  3 36  1  0
  3 37  1  0
  3 38  1  0
  4 39  1  6
  5 40  1  0
  9 41  1  0
 10 42  1  0
 12 43  1  0
 13 44  1  0
 15 45  1  0
 16 46  1  0
 18 47  1  0
 19 48  1  0
 21 49  1  0
 21 50  1  0
 21 51  1  0
 26 52  1  0
 27 53  1  1
 28 54  1  0
 28 55  1  0
 29 56  1  1
 30 57  1  0
 31 58  1  0
 31 59  1  0
M  END
$$$$
[H]c1c([H])c(C(F)(F)F)c([H])c([H])c1C(=O)N([H])[C@@]([H])(C(=O)N([H])[C@]1([H])C([H])([H])C([H])([H])[C@@]([H])(C(=O)N2C([H])([H])C([H])([H])OC([H])([H])C2([H])[H])C([H])([H])C1([H])[H])C([H])([H])[H]
     RDKit          3D

 60 62  0  0  0  0  0  0  0  0999 V2000
    2.4962   -3.2321   -0.2290 C   0  0  0  0  0  0  0  0  0  0  0  0
    2.6001   -1.8124    0.2593 C   0  0  1  0  0  0  0  0  0  0  0  0
    3.8044   -1.1487   -0.1893 N   0  0  0  0  0  0  0  0  0  0  0  0
    4.6364   -0.5901    0.7970 C   0  0  0  0  0  0  0  0  0  0  0  0
    4.3169   -0.6868    2.0081 O   0  0  0  0  0  0  0  0  0  0  0  0
    5.8568    0.0945    0.4451 C   0  0  0  0  0  0  0  0  0  0  0  0
    6.8758    0.2280    1.3992 C   0  0  0  0  0  0  0  0  0  0  0  0
    8.0157    0.9074    1.0376 C   0  0  0  0  0  0  0  0  0  0  0  0
    8.1890    1.4541   -0.2183 C   0  0  0  0  0  0  0  0  0  0  0  0
    7.1821    1.3113   -1.1342 C   0  0  0  0  0  0  0  0  0  0  0  0
    6.0016    0.6317   -0.8227 C   0  0  0  0  0  0  0  0  0  0  0  0
    9.4728    2.1936   -0.5417 C   0  0  0  0  0  0  0  0  0  0  0  0
    9.3820    2.6661   -1.8094 F   0  0  0  0  0  0  0  0  0  0  0  0
   10.5024    1.2665   -0.3583 F   0  0  0  0  0  0  0  0  0  0  0  0
    9.6201    3.2701    0.3305 F   0  0  0  0  0  0  0  0  0  0  0  0
    1.3575   -1.1279   -0.1713 C   0  0  0  0  0  0  0  0  0  0  0  0
    1.3978   -0.1743   -0.9665 O   0  0  0  0  0  0  0  0  0  0  0  0
    0.1433   -1.5907    0.3506 N   0  0  0  0  0  0  0  0  0  0  0  0
   -1.0993   -0.9264   -0.0682 C   0  0  1  0  0  0  0  0  0  0  0  0
   -2.2351   -1.8949   -0.1392 C   0  0  0  0  0  0  0  0  0  0  0  0
   -3.5207   -1.0674   -0.3742 C   0  0  0  0  0  0  0  0  0  0  0  0
   -3.6497   -0.2222    0.8647 C   0  0  1  0  0  0  0  0  0  0  0  0
   -2.5958    0.8840    0.7210 C   0  0  0  0  0  0  0  0  0  0  0  0
   -1.2856    0.1624    1.0053 C   0  0  0  0  0  0  0  0  0  0  0  0
   -4.9399    0.3584    1.1525 C   0  0  0  0  0  0  0  0  0  0  0  0
   -5.3365    0.1619    2.4000 O   0  0  0  0  0  0  0  0  0  0  0  0
   -5.7674    1.0631    0.3134 N   0  0  0  0  0  0  0  0  0  0  0  0
   -5.5913    1.4015   -1.0569 C   0  0  0  0  0  0  0  0  0  0  0  0
   -6.5845    0.4928   -1.8296 C   0  0  0  0  0  0  0  0  0  0  0  0
   -7.6097    0.0713   -0.9419 O   0  0  0  0  0  0  0  0  0  0  0  0
   -8.0842    1.1292   -0.1768 C   0  0  0  0  0  0  0  0  0  0  0  0
   -7.0584    1.5355    0.8922 C   0  0  0  0  0  0  0  0  0  0  0  0
    2.6733   -3.2836   -1.3155 H   0  0  0  0  0  0  0  0  0  0  0  0
    3.0953   -3.9539    0.3367 H   0  0  0  0  0  0  0  0  0  0  0  0
    1.4414   -3.5252   -0.0815 H   0  0  0  0  0  0  0  0  0  0  0  0
    2.5872   -1.8330    1.3674 H   0  0  0  0  0  0  0  0  0  0  0  0
    4.0604   -1.0793   -1.2015 H   0  0  0  0  0  0  0  0  0  0  0  0
    6.6783   -0.2206    2.3482 H   0  0  0  0  0  0  0  0  0  0  0  0
    8.8064    1.0080    1.7793 H   0  0  0  0  0  0  0  0  0  0  0  0
    7.2802    1.7201   -2.1106 H   0  0  0  0  0  0  0  0  0  0  0  0
    5.2267    0.5400   -1.5682 H   0  0  0  0  0  0  0  0  0  0  0  0
    0.0178   -2.3839    1.0241 H   0  0  0  0  0  0  0  0  0  0  0  0
   -0.9333   -0.3512   -0.9860 H   0  0  0  0  0  0  0  0  0  0  0  0
   -2.2985   -2.4462    0.8128 H   0  0  0  0  0  0  0  0  0  0  0  0
   -2.0687   -2.5183   -1.0362 H   0  0  0  0  0  0  0  0  0  0  0  0
   -3.1990   -0.3896   -1.2251 H   0  0  0  0  0  0  0  0  0  0  0  0
   -4.3800   -1.6717   -0.6230 H   0  0  0  0  0  0  0  0  0  0  0  0
   -3.2816   -0.8559    1.7641 H   0  0  0  0  0  0  0  0  0  0  0  0
   -2.5607    1.2037   -0.3383 H   0  0  0  0  0  0  0  0  0  0  0  0
   -2.7446    1.7184    1.3998 H   0  0  0  0  0  0  0  0  0  0  0  0
   -0.4203    0.8324    0.9189 H   0  0  0  0  0  0  0  0  0  0  0  0
   -1.3233   -0.3143    2.0068 H   0  0  0  0  0  0  0  0  0  0  0  0
   -5.9742    2.4798   -1.1743 H   0  0  0  0  0  0  0  0  0  0  0  0
   -4.6148    1.3059   -1.5108 H   0  0  0  0  0  0  0  0  0  0  0  0
   -6.0882   -0.3843   -2.2326 H   0  0  0  0  0  0  0  0  0  0  0  0
   -7.0218    1.1263   -2.6334 H   0  0  0  0  0  0  0  0  0  0  0  0
   -8.2143    1.9887   -0.8613 H   0  0  0  0  0  0  0  0  0  0  0  0
   -9.0122    0.8008    0.3277 H   0  0  0  0  0  0  0  0  0  0  0  0
   -7.2445    1.0594    1.8593 H   0  0  0  0  0  0  0  0  0  0  0  0
   -6.9796    2.6183    1.0117 H   0  0  0  0  0  0  0  0  0  0  0  0
  1  2  1  0
  2  3  1  0
  3  4  1  0
  4  5  2  0
  4  6  1  0
  6  7  2  0
  7  8  1  0
  8  9  2  0
  9 10  1  0
 10 11  2  0
  9 12  1  0
 12 13  1  0
 12 14  1  0
 12 15  1  0
  2 16  1  0
 16 17  2  0
 16 18  1  0
 18 19  1  0
 19 20  1  0
 20 21  1  0
 21 22  1  0
 22 23  1  0
 23 24  1  0
 22 25  1  0
 25 26  2  0
 25 27  1  0
 27 28  1  0
 28 29  1  0
 29 30  1  0
 30 31  1  0
 31 32  1  0
 11  6  1  0
 24 19  1  0
 32 27  1  0
  1 33  1  0
  1 34  1  0
  1 35  1  0
  2 36  1  1
  3 37  1  0
  7 38  1  0
  8 39  1  0
 10 40  1  0
 11 41  1  0
 18 42  1  0
 19 43  1  6
 20 44  1  0
 20 45  1  0
 21 46  1  0
 21 47  1  0
 22 48  1  1
 23 49  1  0
 23 50  1  0
 24 51  1  0
 24 52  1  0
 28 53  1  0
 28 54  1  0
 29 55  1  0
 29 56  1  0
 31 57  1  0
 31 58  1  0
 32 59  1  0
 32 60  1  0
M  END
$$$$
[H]Oc1c([H])c([H])c2c(c1[H])C([H])([H])C([H])([H])[C@]1([H])[C@]2([H])C([H])([H])C([H])([H])[C@]2(C([H])([H])[H])[C@](O[H])(C([H])([H])O[H])C([H])([H])C([H])([H])[C@]21[H]
     RDKit          3D

 48 51  0  0  0  0  0  0  0  0999 V2000
   -1.3597    2.0802    0.1363 C   0  0  0  0  0  0  0  0  0  0  0  0
   -1.7462    0.6164    0.3972 C   0  0  2  0  0  0  0  0  0  0  0  0
   -1.1741    0.2518    1.7142 C   0  0  0  0  0  0  0  0  0  0  0  0
    0.3213    0.5790    1.6126 C   0  0  0  0  0  0  0  0  0  0  0  0
    0.9049   -0.3663    0.6128 C   0  0  1  0  0  0  0  0  0  0  0  0
    0.3060   -0.2047   -0.7797 C   0  0  1  0  0  0  0  0  0  0  0  0
    0.7704   -1.4002   -1.5852 C   0  0  0  0  0  0  0  0  0  0  0  0
    2.1241   -1.8992   -1.2302 C   0  0  0  0  0  0  0  0  0  0  0  0
    2.9845   -0.9317   -0.5168 C   0  0  0  0  0  0  0  0  0  0  0  0
    4.3307   -0.8348   -0.7932 C   0  0  0  0  0  0  0  0  0  0  0  0
    5.0609    0.0962   -0.0783 C   0  0  0  0  0  0  0  0  0  0  0  0
    6.4317    0.2025   -0.3523 O   0  0  0  0  0  0  0  0  0  0  0  0
    4.4495    0.8910    0.8732 C   0  0  0  0  0  0  0  0  0  0  0  0
    3.0853    0.7817    1.1425 C   0  0  0  0  0  0  0  0  0  0  0  0
    2.3753   -0.1359    0.4350 C   0  0  0  0  0  0  0  0  0  0  0  0
   -1.1864   -0.2604   -0.7117 C   0  0  2  0  0  0  0  0  0  0  0  0
   -1.8981    0.3248   -1.8821 C   0  0  0  0  0  0  0  0  0  0  0  0
   -3.2991    0.5888   -1.3277 C   0  0  0  0  0  0  0  0  0  0  0  0
   -3.1848    0.4882    0.1834 C   0  0  2  0  0  0  0  0  0  0  0  0
   -3.8923    1.5336    0.8032 O   0  0  0  0  0  0  0  0  0  0  0  0
   -3.8356   -0.7831    0.5852 C   0  0  0  0  0  0  0  0  0  0  0  0
   -3.8554   -1.0401    1.9374 O   0  0  0  0  0  0  0  0  0  0  0  0
   -1.2831    2.6152    1.1109 H   0  0  0  0  0  0  0  0  0  0  0  0
   -2.1680    2.5994   -0.4250 H   0  0  0  0  0  0  0  0  0  0  0  0
   -0.4511    2.1636   -0.4809 H   0  0  0  0  0  0  0  0  0  0  0  0
   -1.1904   -0.8319    1.9466 H   0  0  0  0  0  0  0  0  0  0  0  0
   -1.6587    0.8573    2.4998 H   0  0  0  0  0  0  0  0  0  0  0  0
    0.8288    0.4301    2.5655 H   0  0  0  0  0  0  0  0  0  0  0  0
    0.4869    1.6088    1.2435 H   0  0  0  0  0  0  0  0  0  0  0  0
    0.7133   -1.4044    0.9350 H   0  0  0  0  0  0  0  0  0  0  0  0
    0.7026    0.6947   -1.2900 H   0  0  0  0  0  0  0  0  0  0  0  0
    0.0429   -2.2344   -1.3620 H   0  0  0  0  0  0  0  0  0  0  0  0
    0.6704   -1.2255   -2.6760 H   0  0  0  0  0  0  0  0  0  0  0  0
    2.6570   -2.1685   -2.1798 H   0  0  0  0  0  0  0  0  0  0  0  0
    2.0858   -2.8666   -0.6482 H   0  0  0  0  0  0  0  0  0  0  0  0
    4.8139   -1.4546   -1.5371 H   0  0  0  0  0  0  0  0  0  0  0  0
    7.0863   -0.3822    0.1833 H   0  0  0  0  0  0  0  0  0  0  0  0
    5.0483    1.6011    1.4071 H   0  0  0  0  0  0  0  0  0  0  0  0
    2.5900    1.3888    1.8772 H   0  0  0  0  0  0  0  0  0  0  0  0
   -1.5347   -1.2893   -0.5677 H   0  0  0  0  0  0  0  0  0  0  0  0
   -1.9325   -0.3110   -2.7751 H   0  0  0  0  0  0  0  0  0  0  0  0
   -1.4775    1.3090   -2.2068 H   0  0  0  0  0  0  0  0  0  0  0  0
   -3.9588   -0.1803   -1.7589 H   0  0  0  0  0  0  0  0  0  0  0  0
   -3.6865    1.5699   -1.6534 H   0  0  0  0  0  0  0  0  0  0  0  0
   -4.3461    1.2086    1.6256 H   0  0  0  0  0  0  0  0  0  0  0  0
   -4.9191   -0.7097    0.2679 H   0  0  0  0  0  0  0  0  0  0  0  0
   -3.4455   -1.6553    0.0225 H   0  0  0  0  0  0  0  0  0  0  0  0
   -3.3871   -1.9103    2.1125 H   0  0  0  0  0  0  0  0  0  0  0  0
  2  1  1  6
  2  3  1  0
  3  4  1  0
  4  5  1  0
  5  6  1  0
  6  7  1  0
  7  8  1  0
  8  9  1  0
  9 10  2  0
 10 11  1  0
 11 12  1  0
 11 13  2  0
 13 14  1  0
 14 15  2  0
  6 16  1  0
 16 17  1  0
 17 18  1  0
 18 19  1  0
 19 20  1  1
 19 21  1  0
 21 22  1  0
 16  2  1  0
 19  2  1  0
 15  5  1  0
 15  9  1  0
  1 23  1  0
  1 24  1  0
  1 25  1  0
  3 26  1  0
  3 27  1  0
  4 28  1  0
  4 29  1  0
  5 30  1  1
  6 31  1  6
  7 32  1  0
  7 33  1  0
  8 34  1  0
  8 35  1  0
 10 36  1  0
 12 37  1  0
 13 38  1  0
 14 39  1  0
 16 40  1  1
 17 41  1  0
 17 42  1  0
 18 43  1  0
 18 44  1  0
 20 45  1  0
 21 46  1  0
 21 47  1  0
 22 48  1  0
M  END
$$$$
[H]c1nc(N([H])c2c([H])c([H])c(N3C([H])([H])C([H])([H])C([H])(N4C([H])([H])C([H])([H])N(C([H])([H])[H])C([H])([H])C4([H])[H])C([H])([H])C3([H])[H])c([H])c2OC([H])([H])[H])nc(N([H])c2c([H])c([H])c([H])c([H])c2S(=O)(=O)C(C([H])([H])[H])(C([H])([H])[H])C([H])([H])[H])c1Cl
     RDKit          3D

 85 89  0  0  0  0  0  0  0  0999 V2000
   -0.8932    1.5365   -3.6001 C   0  0  0  0  0  0  0  0  0  0  0  0
   -0.2128    1.0258   -2.4637 O   0  0  0  0  0  0  0  0  0  0  0  0
   -0.9187    0.4690   -1.4159 C   0  0  0  0  0  0  0  0  0  0  0  0
   -2.2930    0.3966   -1.4502 C   0  0  0  0  0  0  0  0  0  0  0  0
   -3.0414   -0.1478   -0.4354 C   0  0  0  0  0  0  0  0  0  0  0  0
   -2.3091   -0.6313    0.6534 C   0  0  0  0  0  0  0  0  0  0  0  0
   -0.9218   -0.5581    0.6879 C   0  0  0  0  0  0  0  0  0  0  0  0
   -0.1923   -0.0161   -0.3260 C   0  0  0  0  0  0  0  0  0  0  0  0
    1.1942    0.0852   -0.3418 N   0  0  0  0  0  0  0  0  0  0  0  0
    2.1581   -0.3455    0.5903 C   0  0  0  0  0  0  0  0  0  0  0  0
    1.8540   -0.9732    1.7263 N   0  0  0  0  0  0  0  0  0  0  0  0
    2.7541   -1.3915    2.6196 C   0  0  0  0  0  0  0  0  0  0  0  0
    4.0805   -1.1691    2.3661 C   0  0  0  0  0  0  0  0  0  0  0  0
    5.3436   -1.6789    3.4724 Cl  0  0  0  0  0  0  0  0  0  0  0  0
    4.4630   -0.5089    1.1791 C   0  0  0  0  0  0  0  0  0  0  0  0
    5.8375   -0.2834    0.9439 N   0  0  0  0  0  0  0  0  0  0  0  0
    6.4628    0.3451   -0.1587 C   0  0  0  0  0  0  0  0  0  0  0  0
    5.8031    0.7935   -1.2747 C   0  0  0  0  0  0  0  0  0  0  0  0
    6.4097    1.3977   -2.3668 C   0  0  0  0  0  0  0  0  0  0  0  0
    7.7628    1.5471   -2.3052 C   0  0  0  0  0  0  0  0  0  0  0  0
    8.4874    1.1196   -1.2157 C   0  0  0  0  0  0  0  0  0  0  0  0
    7.8651    0.5284   -0.1541 C   0  0  0  0  0  0  0  0  0  0  0  0
    8.7912   -0.0065    1.2102 S   0  0  0  0  0  0  0  0  0  0  0  0
    8.6663   -1.4996    1.3141 O   0  0  0  0  0  0  0  0  0  0  0  0
    8.2741    0.6689    2.4516 O   0  0  0  0  0  0  0  0  0  0  0  0
   10.5337    0.3212    1.0760 C   0  0  0  0  0  0  0  0  0  0  0  0
   10.8784    1.7635    0.9570 C   0  0  0  0  0  0  0  0  0  0  0  0
   11.1276   -0.1887    2.4062 C   0  0  0  0  0  0  0  0  0  0  0  0
   11.1271   -0.5030   -0.0263 C   0  0  0  0  0  0  0  0  0  0  0  0
    3.4703   -0.1477    0.3817 N   0  0  0  0  0  0  0  0  0  0  0  0
   -4.4561   -0.2621   -0.4390 N   0  0  0  0  0  0  0  0  0  0  0  0
   -5.2083   -0.2728   -1.6430 C   0  0  0  0  0  0  0  0  0  0  0  0
   -6.4523    0.5809   -1.6222 C   0  0  0  0  0  0  0  0  0  0  0  0
   -7.2574    0.4174   -0.3284 C   0  0  0  0  0  0  0  0  0  0  0  0
   -6.3866    0.4873    0.8740 C   0  0  0  0  0  0  0  0  0  0  0  0
   -5.1489   -0.3619    0.8276 C   0  0  0  0  0  0  0  0  0  0  0  0
   -8.1549   -0.6511   -0.3627 N   0  0  0  0  0  0  0  0  0  0  0  0
   -9.1928   -0.6075   -1.3343 C   0  0  0  0  0  0  0  0  0  0  0  0
  -10.5224   -0.5012   -0.6196 C   0  0  0  0  0  0  0  0  0  0  0  0
  -10.6168   -1.4226    0.4964 N   0  0  0  0  0  0  0  0  0  0  0  0
  -10.5764   -0.7414    1.7660 C   0  0  0  0  0  0  0  0  0  0  0  0
   -9.5481   -2.4040    0.4471 C   0  0  0  0  0  0  0  0  0  0  0  0
   -8.2532   -1.5933    0.6521 C   0  0  0  0  0  0  0  0  0  0  0  0
   -0.1487    2.0475   -4.2722 H   0  0  0  0  0  0  0  0  0  0  0  0
   -1.5745    2.3542   -3.2418 H   0  0  0  0  0  0  0  0  0  0  0  0
   -1.4366    0.7301   -4.0960 H   0  0  0  0  0  0  0  0  0  0  0  0
   -2.7905    0.8017   -2.3301 H   0  0  0  0  0  0  0  0  0  0  0  0
   -2.8100   -1.0726    1.4807 H   0  0  0  0  0  0  0  0  0  0  0  0
   -0.4590   -0.9657    1.5896 H   0  0  0  0  0  0  0  0  0  0  0  0
    1.6478    0.5762   -1.2032 H   0  0  0  0  0  0  0  0  0  0  0  0
    2.4984   -1.9032    3.5466 H   0  0  0  0  0  0  0  0  0  0  0  0
    6.4951   -0.6373    1.6874 H   0  0  0  0  0  0  0  0  0  0  0  0
    4.7198    0.6921   -1.3682 H   0  0  0  0  0  0  0  0  0  0  0  0
    5.8319    1.7347   -3.2252 H   0  0  0  0  0  0  0  0  0  0  0  0
    8.3125    2.0178   -3.1344 H   0  0  0  0  0  0  0  0  0  0  0  0
    9.5867    1.2610   -1.2137 H   0  0  0  0  0  0  0  0  0  0  0  0
    9.9948    2.4309    0.8880 H   0  0  0  0  0  0  0  0  0  0  0  0
   11.5726    1.8991    0.0974 H   0  0  0  0  0  0  0  0  0  0  0  0
   11.4375    2.0908    1.8516 H   0  0  0  0  0  0  0  0  0  0  0  0
   12.0123    0.4078    2.6352 H   0  0  0  0  0  0  0  0  0  0  0  0
   10.3855   -0.0449    3.2151 H   0  0  0  0  0  0  0  0  0  0  0  0
   11.3881   -1.2641    2.3162 H   0  0  0  0  0  0  0  0  0  0  0  0
   10.2951   -0.9482   -0.6180 H   0  0  0  0  0  0  0  0  0  0  0  0
   11.7126   -1.3349    0.3934 H   0  0  0  0  0  0  0  0  0  0  0  0
   11.7244    0.1706   -0.6839 H   0  0  0  0  0  0  0  0  0  0  0  0
   -4.5964    0.1014   -2.4783 H   0  0  0  0  0  0  0  0  0  0  0  0
   -5.4703   -1.3334   -1.9692 H   0  0  0  0  0  0  0  0  0  0  0  0
   -6.1664    1.6215   -1.7980 H   0  0  0  0  0  0  0  0  0  0  0  0
   -7.0904    0.2350   -2.4527 H   0  0  0  0  0  0  0  0  0  0  0  0
   -7.8765    1.3684   -0.3062 H   0  0  0  0  0  0  0  0  0  0  0  0
   -6.9589    0.2242    1.7767 H   0  0  0  0  0  0  0  0  0  0  0  0
   -6.0559    1.5584    1.0454 H   0  0  0  0  0  0  0  0  0  0  0  0
   -4.4894    0.0341    1.6343 H   0  0  0  0  0  0  0  0  0  0  0  0
   -5.3020   -1.4301    1.0441 H   0  0  0  0  0  0  0  0  0  0  0  0
   -9.2443   -1.5224   -1.9761 H   0  0  0  0  0  0  0  0  0  0  0  0
   -9.0655    0.2679   -1.9772 H   0  0  0  0  0  0  0  0  0  0  0  0
  -11.3733   -0.6328   -1.3233 H   0  0  0  0  0  0  0  0  0  0  0  0
  -10.6004    0.5232   -0.2097 H   0  0  0  0  0  0  0  0  0  0  0  0
  -11.6169   -0.4209    2.0576 H   0  0  0  0  0  0  0  0  0  0  0  0
   -9.9684    0.1889    1.7241 H   0  0  0  0  0  0  0  0  0  0  0  0
  -10.2043   -1.4458    2.5412 H   0  0  0  0  0  0  0  0  0  0  0  0
   -9.5376   -2.9370   -0.5120 H   0  0  0  0  0  0  0  0  0  0  0  0
   -9.6957   -3.1219    1.2743 H   0  0  0  0  0  0  0  0  0  0  0  0
   -8.4040   -1.1307    1.6566 H   0  0  0  0  0  0  0  0  0  0  0  0
   -7.4677   -2.3694    0.7185 H   0  0  0  0  0  0  0  0  0  0  0  0
  1  2  1  0
  2  3  1  0
  3  4  2  0
  4  5  1  0
  5  6  2  0
  6  7  1  0
  7  8  2  0
  8  9  1  0
  9 10  1  0
 10 11  2  0
 11 12  1  0
 12 13  2  0
 13 14  1  0
 13 15  1  0
 15 16  1  0
 16 17  1  0
 17 18  2  0
 18 19  1  0
 19 20  2  0
 20 21  1  0
 21 22  2  0
 22 23  1  0
 23 24  2  0
 23 25  2  0
 23 26  1  0
 26 27  1  0
 26 28  1  0
 26 29  1  0
 15 30  2  0
  5 31  1  0
 31 32  1  0
 32 33  1  0
 33 34  1  0
 34 35  1  0
 35 36  1  0
 34 37  1  0
 37 38  1  0
 38 39  1  0
 39 40  1  0
 40 41  1  0
 40 42  1  0
 42 43  1  0
  8  3  1  0
 30 10  1  0
 36 31  1  0
 43 37  1  0
 22 17  1  0
  1 44  1  0
  1 45  1  0
  1 46  1  0
  4 47  1  0
  6 48  1  0
  7 49  1  0
  9 50  1  0
 12 51  1  0
 16 52  1  0
 18 53  1  0
 19 54  1  0
 20 55  1  0
 21 56  1  0
 27 57  1  0
 27 58  1  0
 27 59  1  0
 28 60  1  0
 28 61  1  0
 28 62  1  0
 29 63  1  0
 29 64  1  0
 29 65  1  0
 32 66  1  0
 32 67  1  0
 33 68  1  0
 33 69  1  0
 34 70  1  0
 35 71  1  0
 35 72  1  0
 36 73  1  0
 36 74  1  0
 38 75  1  0
 38 76  1  0
 39 77  1  0
 39 78  1  0
 41 79  1  0
 41 80  1  0
 41 81  1  0
 42 82  1  0
 42 83  1  0
 43 84  1  0
 43 85  1  0
M  END
$$$$
[H]OC(=O)[C@@]([H])(N([H])C(=O)[C@@]([H])(N([H])C(=O)[C@@]([H])(N([H])C(=O)[C@]1([H])N(C(=O)[C@@]([H])(N([H])C(=O)C(C([H])([H])[H])(C([H])([H])[H])C([H])([H])[H])C([H])([H])c2c([H])n([H])c3c([H])c([H])c([H])c([H])c23)C([H])([H])C([H])([H])C1([H])[H])C([H])([H])c1c([H])c([H])c(O[H])c([H])c1[H])C([H])([H])C([H])(C([H])([H])[H])C([H])([H])[H])C([H])([H])c1c([H])c([H])c(O[H])c([H])c1[H]
     RDKit          3D

116120  0  0  0  0  0  0  0  0999 V2000
    3.3214   -3.4045    2.3355 C   0  0  0  0  0  0  0  0  0  0  0  0
    4.1715   -3.4921    1.1161 C   0  0  0  0  0  0  0  0  0  0  0  0
    5.4131   -4.3060    1.4096 C   0  0  0  0  0  0  0  0  0  0  0  0
    4.5397   -2.1722    0.4893 C   0  0  0  0  0  0  0  0  0  0  0  0
    3.3824   -1.3572    0.0293 C   0  0  2  0  0  0  0  0  0  0  0  0
    2.6117   -2.1055   -0.9785 N   0  0  0  0  0  0  0  0  0  0  0  0
    1.2207   -2.0744   -1.0200 C   0  0  0  0  0  0  0  0  0  0  0  0
    0.6940   -1.2932   -0.0977 O   0  0  0  0  0  0  0  0  0  0  0  0
    0.2453   -2.7305   -1.8550 C   0  0  2  0  0  0  0  0  0  0  0  0
    0.2931   -2.4939   -3.2970 C   0  0  0  0  0  0  0  0  0  0  0  0
    1.4144   -2.8699   -4.1113 C   0  0  0  0  0  0  0  0  0  0  0  0
    2.4479   -2.0594   -4.4861 C   0  0  0  0  0  0  0  0  0  0  0  0
    3.4757   -2.4888   -5.2959 C   0  0  0  0  0  0  0  0  0  0  0  0
    3.5291   -3.7641   -5.7830 C   0  0  0  0  0  0  0  0  0  0  0  0
    4.5622   -4.1759   -6.5889 O   0  0  0  0  0  0  0  0  0  0  0  0
    2.4900   -4.6149   -5.4206 C   0  0  0  0  0  0  0  0  0  0  0  0
    1.4777   -4.1811   -4.6180 C   0  0  0  0  0  0  0  0  0  0  0  0
   -1.1554   -2.4852   -1.3527 N   0  0  0  0  0  0  0  0  0  0  0  0
   -1.7288   -3.3457   -0.4120 C   0  0  0  0  0  0  0  0  0  0  0  0
   -0.9769   -4.3166   -0.0208 O   0  0  0  0  0  0  0  0  0  0  0  0
   -3.0212   -3.2701    0.1405 C   0  0  1  0  0  0  0  0  0  0  0  0
   -3.1531   -3.7472    1.6117 C   0  0  0  0  0  0  0  0  0  0  0  0
   -4.6810   -3.7515    1.6896 C   0  0  0  0  0  0  0  0  0  0  0  0
   -5.1841   -3.0524    0.4354 C   0  0  0  0  0  0  0  0  0  0  0  0
   -3.9203   -2.2032    0.1709 N   0  0  0  0  0  0  0  0  0  0  0  0
   -4.1033   -0.8382    0.1413 C   0  0  0  0  0  0  0  0  0  0  0  0
   -5.3695   -0.4558    0.1147 O   0  0  0  0  0  0  0  0  0  0  0  0
   -3.1967    0.3183    0.1347 C   0  0  2  0  0  0  0  0  0  0  0  0
   -2.8358    0.7699    1.5240 C   0  0  0  0  0  0  0  0  0  0  0  0
   -3.8971    1.1422    2.4237 C   0  0  0  0  0  0  0  0  0  0  0  0
   -4.4395    0.2496    3.3634 C   0  0  0  0  0  0  0  0  0  0  0  0
   -5.4116    0.8306    4.0440 N   0  0  0  0  0  0  0  0  0  0  0  0
   -5.5391    2.1020    3.5862 C   0  0  0  0  0  0  0  0  0  0  0  0
   -6.3965    3.1162    3.9895 C   0  0  0  0  0  0  0  0  0  0  0  0
   -6.3117    4.3516    3.3757 C   0  0  0  0  0  0  0  0  0  0  0  0
   -5.3814    4.5538    2.3764 C   0  0  0  0  0  0  0  0  0  0  0  0
   -4.5425    3.5502    1.9861 C   0  0  0  0  0  0  0  0  0  0  0  0
   -4.6113    2.3118    2.5848 C   0  0  0  0  0  0  0  0  0  0  0  0
   -3.7727    1.3948   -0.6264 N   0  0  0  0  0  0  0  0  0  0  0  0
   -3.0047    2.1256   -1.6006 C   0  0  0  0  0  0  0  0  0  0  0  0
   -1.7692    1.8362   -1.7787 O   0  0  0  0  0  0  0  0  0  0  0  0
   -3.5554    3.2092   -2.4379 C   0  0  0  0  0  0  0  0  0  0  0  0
   -2.4336    4.1512   -2.8672 C   0  0  0  0  0  0  0  0  0  0  0  0
   -4.6371    4.0242   -1.8069 C   0  0  0  0  0  0  0  0  0  0  0  0
   -4.1163    2.6409   -3.7449 C   0  0  0  0  0  0  0  0  0  0  0  0
    3.8985   -0.0648   -0.4967 C   0  0  0  0  0  0  0  0  0  0  0  0
    3.7384    0.2068   -1.7447 O   0  0  0  0  0  0  0  0  0  0  0  0
    4.5484    0.8756    0.2997 N   0  0  0  0  0  0  0  0  0  0  0  0
    5.0933    2.1414   -0.0643 C   0  0  1  0  0  0  0  0  0  0  0  0
    4.2504    3.2950    0.4500 C   0  0  0  0  0  0  0  0  0  0  0  0
    4.0906    3.3176    1.9101 C   0  0  0  0  0  0  0  0  0  0  0  0
    3.0597    2.6677    2.5158 C   0  0  0  0  0  0  0  0  0  0  0  0
    2.8456    2.6948    3.9020 C   0  0  0  0  0  0  0  0  0  0  0  0
    3.7090    3.4039    4.6919 C   0  0  0  0  0  0  0  0  0  0  0  0
    3.5066    3.4461    6.0986 O   0  0  0  0  0  0  0  0  0  0  0  0
    4.7590    4.0702    4.1130 C   0  0  0  0  0  0  0  0  0  0  0  0
    4.9541    4.0304    2.7265 C   0  0  0  0  0  0  0  0  0  0  0  0
    6.5103    2.2796    0.3544 C   0  0  0  0  0  0  0  0  0  0  0  0
    7.1446    3.4941    0.0127 O   0  0  0  0  0  0  0  0  0  0  0  0
    7.1615    1.4169    0.9712 O   0  0  0  0  0  0  0  0  0  0  0  0
    3.8971   -3.5236    3.2797 H   0  0  0  0  0  0  0  0  0  0  0  0
    2.6721   -2.5202    2.3186 H   0  0  0  0  0  0  0  0  0  0  0  0
    2.6267   -4.3034    2.3329 H   0  0  0  0  0  0  0  0  0  0  0  0
    3.6051   -4.1140    0.3503 H   0  0  0  0  0  0  0  0  0  0  0  0
    5.9797   -4.5434    0.4606 H   0  0  0  0  0  0  0  0  0  0  0  0
    5.1393   -5.3141    1.8219 H   0  0  0  0  0  0  0  0  0  0  0  0
    6.0523   -3.7989    2.1463 H   0  0  0  0  0  0  0  0  0  0  0  0
    5.2577   -1.6280    1.1357 H   0  0  0  0  0  0  0  0  0  0  0  0
    5.1526   -2.4392   -0.4244 H   0  0  0  0  0  0  0  0  0  0  0  0
    2.6512   -1.0676    0.8168 H   0  0  0  0  0  0  0  0  0  0  0  0
    3.1815   -2.6591   -1.6276 H   0  0  0  0  0  0  0  0  0  0  0  0
    0.3691   -3.8578   -1.6479 H   0  0  0  0  0  0  0  0  0  0  0  0
    0.1098   -1.3575   -3.4832 H   0  0  0  0  0  0  0  0  0  0  0  0
   -0.6967   -2.8944   -3.7214 H   0  0  0  0  0  0  0  0  0  0  0  0
    2.4742   -1.0388   -4.1440 H   0  0  0  0  0  0  0  0  0  0  0  0
    4.2881   -1.7933   -5.5737 H   0  0  0  0  0  0  0  0  0  0  0  0
    5.3503   -3.6455   -6.8962 H   0  0  0  0  0  0  0  0  0  0  0  0
    2.5322   -5.6422   -5.8123 H   0  0  0  0  0  0  0  0  0  0  0  0
    0.6708   -4.8658   -4.3385 H   0  0  0  0  0  0  0  0  0  0  0  0
   -1.6176   -1.6613   -1.7805 H   0  0  0  0  0  0  0  0  0  0  0  0
   -3.6624   -4.1422   -0.3636 H   0  0  0  0  0  0  0  0  0  0  0  0
   -2.7720   -2.9550    2.2826 H   0  0  0  0  0  0  0  0  0  0  0  0
   -2.7367   -4.7413    1.7568 H   0  0  0  0  0  0  0  0  0  0  0  0
   -5.0107   -4.8262    1.6703 H   0  0  0  0  0  0  0  0  0  0  0  0
   -5.0705   -3.2308    2.5755 H   0  0  0  0  0  0  0  0  0  0  0  0
   -5.1961   -3.7243   -0.4338 H   0  0  0  0  0  0  0  0  0  0  0  0
   -6.0409   -2.4194    0.5707 H   0  0  0  0  0  0  0  0  0  0  0  0
   -2.2719    0.0399   -0.4157 H   0  0  0  0  0  0  0  0  0  0  0  0
   -2.1347    1.6601    1.4723 H   0  0  0  0  0  0  0  0  0  0  0  0
   -2.1766   -0.0542    1.9433 H   0  0  0  0  0  0  0  0  0  0  0  0
   -4.1133   -0.7525    3.4999 H   0  0  0  0  0  0  0  0  0  0  0  0
   -6.0119    0.4130    4.8205 H   0  0  0  0  0  0  0  0  0  0  0  0
   -7.1289    2.9017    4.7881 H   0  0  0  0  0  0  0  0  0  0  0  0
   -6.9907    5.1411    3.7122 H   0  0  0  0  0  0  0  0  0  0  0  0
   -5.3491    5.5538    1.9099 H   0  0  0  0  0  0  0  0  0  0  0  0
   -3.8188    3.7129    1.2209 H   0  0  0  0  0  0  0  0  0  0  0  0
   -4.7643    1.6457   -0.4846 H   0  0  0  0  0  0  0  0  0  0  0  0
   -2.9028    4.9233   -3.5333 H   0  0  0  0  0  0  0  0  0  0  0  0
   -1.6422    3.6722   -3.4371 H   0  0  0  0  0  0  0  0  0  0  0  0
   -2.0133    4.6931   -1.9859 H   0  0  0  0  0  0  0  0  0  0  0  0
   -5.1868    4.5752   -2.6099 H   0  0  0  0  0  0  0  0  0  0  0  0
   -4.2863    4.7725   -1.0778 H   0  0  0  0  0  0  0  0  0  0  0  0
   -5.4062    3.3955   -1.2982 H   0  0  0  0  0  0  0  0  0  0  0  0
   -4.9329    1.9327   -3.5755 H   0  0  0  0  0  0  0  0  0  0  0  0
   -3.3282    2.1871   -4.3802 H   0  0  0  0  0  0  0  0  0  0  0  0
   -4.5283    3.5037   -4.3161 H   0  0  0  0  0  0  0  0  0  0  0  0
    4.6583    0.6279    1.3385 H   0  0  0  0  0  0  0  0  0  0  0  0
    5.0681    2.2574   -1.1816 H   0  0  0  0  0  0  0  0  0  0  0  0
    3.3048    3.3139   -0.1038 H   0  0  0  0  0  0  0  0  0  0  0  0
    4.8193    4.2251    0.1263 H   0  0  0  0  0  0  0  0  0  0  0  0
    2.3513    2.0968    1.9251 H   0  0  0  0  0  0  0  0  0  0  0  0
    2.0244    2.1828    4.3719 H   0  0  0  0  0  0  0  0  0  0  0  0
    2.9197    4.2137    6.4623 H   0  0  0  0  0  0  0  0  0  0  0  0
    5.4069    4.6203    4.7812 H   0  0  0  0  0  0  0  0  0  0  0  0
    5.7925    4.5761    2.3274 H   0  0  0  0  0  0  0  0  0  0  0  0
    8.0212    3.7721    0.4471 H   0  0  0  0  0  0  0  0  0  0  0  0
  1  2  1  0
  2  3  1  0
  2  4  1  0
  4  5  1  0
  5  6  1  0
  6  7  1  0
  7  8  2  0
  7  9  1  0
  9 10  1  0
 10 11  1  0
 11 12  2  0
 12 13  1  0
 13 14  2  0
 14 15  1  0
 14 16  1  0
 16 17  2  0
  9 18  1  0
 18 19  1  0
 19 20  2  0
 19 21  1  0
 21 22  1  0
 22 23  1  0
 23 24  1  0
 24 25  1  0
 25 26  1  0
 26 27  2  0
 26 28  1  0
 28 29  1  0
 29 30  1  0
 30 31  2  0
 31 32  1  0
 32 33  1  0
 33 34  2  0
 34 35  1  0
 35 36  2  0
 36 37  1  0
 37 38  2  0
 28 39  1  0
 39 40  1  0
 40 41  2  0
 40 42  1  0
 42 43  1  0
 42 44  1  0
 42 45  1  0
  5 46  1  0
 46 47  2  0
 46 48  1  0
 48 49  1  0
 49 50  1  0
 50 51  1  0
 51 52  2  0
 52 53  1  0
 53 54  2  0
 54 55  1  0
 54 56  1  0
 56 57  2  0
 49 58  1  0
 58 59  1  0
 58 60  2  0
 17 11  1  0
 25 21  1  0
 38 30  1  0
 57 51  1  0
 38 33  1  0
  1 61  1  0
  1 62  1  0
  1 63  1  0
  2 64  1  0
  3 65  1  0
  3 66  1  0
  3 67  1  0
  4 68  1  0
  4 69  1  0
  5 70  1  1
  6 71  1  0
  9 72  1  6
 10 73  1  0
 10 74  1  0
 12 75  1  0
 13 76  1  0
 15 77  1  0
 16 78  1  0
 17 79  1  0
 18 80  1  0
 21 81  1  6
 22 82  1  0
 22 83  1  0
 23 84  1  0
 23 85  1  0
 24 86  1  0
 24 87  1  0
 28 88  1  6
 29 89  1  0
 29 90  1  0
 31 91  1  0
 32 92  1  0
 34 93  1  0
 35 94  1  0
 36 95  1  0
 37 96  1  0
 39 97  1  0
 43 98  1  0
 43 99  1  0
 43100  1  0
 44101  1  0
 44102  1  0
 44103  1  0
 45104  1  0
 45105  1  0
 45106  1  0
 48107  1  0
 49108  1  6
 50109  1  0
 50110  1  0
 52111  1  0
 53112  1  0
 55113  1  0
 56114  1  0
 57115  1  0
 59116  1  0
M  END
$$$$
[H]c1c([H])c([C@@]2([H])C([H])([H])N(c3c([H])c([H])c4c(c(C(=O)N([H])[H])nn4[H])c3[H])C([H])([H])[C@@]2([H])C(=O)N2C([H])([H])C([H])([H])N(C([H])([H])[H])C([H])([H])C2([H])[H])c([H])c(Cl)c1Cl
     RDKit          3D

 60 64  0  0  0  0  0  0  0  0999 V2000
   -6.4076   -1.6777    0.8114 C   0  0  0  0  0  0  0  0  0  0  0  0
   -5.2039   -0.8804    0.9252 N   0  0  0  0  0  0  0  0  0  0  0  0
   -4.6946   -0.6840   -0.4054 C   0  0  0  0  0  0  0  0  0  0  0  0
   -3.3881    0.0830   -0.4519 C   0  0  0  0  0  0  0  0  0  0  0  0
   -2.4680   -0.2776    0.5888 N   0  0  0  0  0  0  0  0  0  0  0  0
   -3.0283   -0.6587    1.8714 C   0  0  0  0  0  0  0  0  0  0  0  0
   -4.1556   -1.6265    1.6409 C   0  0  0  0  0  0  0  0  0  0  0  0
   -1.0825   -0.2589    0.3837 C   0  0  0  0  0  0  0  0  0  0  0  0
   -0.3650   -0.6411    1.3892 O   0  0  0  0  0  0  0  0  0  0  0  0
   -0.4751    0.1618   -0.8667 C   0  0  2  0  0  0  0  0  0  0  0  0
    0.8862   -0.5710   -0.9470 C   0  0  0  0  0  0  0  0  0  0  0  0
    1.8417    0.3017   -0.3082 N   0  0  0  0  0  0  0  0  0  0  0  0
    1.1881    1.5421    0.0576 C   0  0  0  0  0  0  0  0  0  0  0  0
    0.0454    1.5816   -0.9001 C   0  0  2  0  0  0  0  0  0  0  0  0
   -0.9134    2.6353   -0.6694 C   0  0  0  0  0  0  0  0  0  0  0  0
   -1.2383    3.0407    0.6010 C   0  0  0  0  0  0  0  0  0  0  0  0
   -2.1572    4.0514    0.8140 C   0  0  0  0  0  0  0  0  0  0  0  0
   -2.7614    4.6674   -0.2537 C   0  0  0  0  0  0  0  0  0  0  0  0
   -3.9345    5.9584    0.0384 Cl  0  0  0  0  0  0  0  0  0  0  0  0
   -2.4561    4.2831   -1.5346 C   0  0  0  0  0  0  0  0  0  0  0  0
   -3.2514    5.0974   -2.8618 Cl  0  0  0  0  0  0  0  0  0  0  0  0
   -1.5231    3.2577   -1.7294 C   0  0  0  0  0  0  0  0  0  0  0  0
    3.1922   -0.0098   -0.0816 C   0  0  0  0  0  0  0  0  0  0  0  0
    4.0276    0.8934    0.5407 C   0  0  0  0  0  0  0  0  0  0  0  0
    5.3565    0.6201    0.7765 C   0  0  0  0  0  0  0  0  0  0  0  0
    5.8654   -0.5991    0.3752 C   0  0  0  0  0  0  0  0  0  0  0  0
    7.0858   -1.1709    0.4499 N   0  0  0  0  0  0  0  0  0  0  0  0
    7.0417   -2.3676   -0.0898 N   0  0  0  0  0  0  0  0  0  0  0  0
    5.7924   -2.6464   -0.5475 C   0  0  0  0  0  0  0  0  0  0  0  0
    5.0457   -1.5231   -0.2520 C   0  0  0  0  0  0  0  0  0  0  0  0
    3.6951   -1.2236   -0.4821 C   0  0  0  0  0  0  0  0  0  0  0  0
    5.3736   -3.8783   -1.2032 C   0  0  0  0  0  0  0  0  0  0  0  0
    6.3223   -4.9009   -1.4020 N   0  0  0  0  0  0  0  0  0  0  0  0
    4.1958   -4.0398   -1.5887 O   0  0  0  0  0  0  0  0  0  0  0  0
   -7.0859   -1.5397    1.6826 H   0  0  0  0  0  0  0  0  0  0  0  0
   -6.1707   -2.7592    0.7254 H   0  0  0  0  0  0  0  0  0  0  0  0
   -6.9913   -1.4183   -0.1052 H   0  0  0  0  0  0  0  0  0  0  0  0
   -4.5112   -1.7125   -0.8298 H   0  0  0  0  0  0  0  0  0  0  0  0
   -5.4288   -0.1443   -1.0134 H   0  0  0  0  0  0  0  0  0  0  0  0
   -3.0034   -0.0607   -1.4794 H   0  0  0  0  0  0  0  0  0  0  0  0
   -3.6676    1.1689   -0.3034 H   0  0  0  0  0  0  0  0  0  0  0  0
   -3.4176    0.2406    2.4235 H   0  0  0  0  0  0  0  0  0  0  0  0
   -2.2776   -1.1141    2.5425 H   0  0  0  0  0  0  0  0  0  0  0  0
   -3.7900   -2.3977    0.9282 H   0  0  0  0  0  0  0  0  0  0  0  0
   -4.5495   -2.0567    2.5729 H   0  0  0  0  0  0  0  0  0  0  0  0
   -1.0670   -0.0557   -1.7514 H   0  0  0  0  0  0  0  0  0  0  0  0
    0.8220   -1.5631   -0.4829 H   0  0  0  0  0  0  0  0  0  0  0  0
    1.0844   -0.6753   -2.0425 H   0  0  0  0  0  0  0  0  0  0  0  0
    0.9041    1.5163    1.1094 H   0  0  0  0  0  0  0  0  0  0  0  0
    1.8291    2.4265   -0.1363 H   0  0  0  0  0  0  0  0  0  0  0  0
    0.4919    1.6649   -1.9453 H   0  0  0  0  0  0  0  0  0  0  0  0
   -0.8000    2.5989    1.5032 H   0  0  0  0  0  0  0  0  0  0  0  0
   -2.4259    4.3848    1.8189 H   0  0  0  0  0  0  0  0  0  0  0  0
   -1.3285    3.0037   -2.7628 H   0  0  0  0  0  0  0  0  0  0  0  0
    3.6024    1.8400    0.8441 H   0  0  0  0  0  0  0  0  0  0  0  0
    6.0212    1.3082    1.2583 H   0  0  0  0  0  0  0  0  0  0  0  0
    7.9061   -0.6803    0.8860 H   0  0  0  0  0  0  0  0  0  0  0  0
    3.0704   -1.9654   -0.9769 H   0  0  0  0  0  0  0  0  0  0  0  0
    7.0898   -5.0306   -0.7298 H   0  0  0  0  0  0  0  0  0  0  0  0
    6.2423   -5.5194   -2.2264 H   0  0  0  0  0  0  0  0  0  0  0  0
  1  2  1  0
  2  3  1  0
  3  4  1  0
  4  5  1  0
  5  6  1  0
  6  7  1  0
  5  8  1  0
  8  9  2  0
  8 10  1  0
 10 11  1  0
 11 12  1  0
 12 13  1  0
 13 14  1  0
 14 15  1  0
 15 16  2  0
 16 17  1  0
 17 18  2  0
 18 19  1  0
 18 20  1  0
 20 21  1  0
 20 22  2  0
 12 23  1  0
 23 24  2  0
 24 25  1  0
 25 26  2  0
 26 27  1  0
 27 28  1  0
 28 29  2  0
 29 30  1  0
 30 31  2  0
 29 32  1  0
 32 33  1  0
 32 34  2  0
  7  2  1  0
 14 10  1  0
 22 15  1  0
 31 23  1  0
 30 26  1  0
  1 35  1  0
  1 36  1  0
  1 37  1  0
  3 38  1  0
  3 39  1  0
  4 40  1  0
  4 41  1  0
  6 42  1  0
  6 43  1  0
  7 44  1  0
  7 45  1  0
 10 46  1  6
 11 47  1  0
 11 48  1  0
 13 49  1  0
 13 50  1  0
 14 51  1  6
 16 52  1  0
 17 53  1  0
 22 54  1  0
 24 55  1  0
 25 56  1  0
 27 57  1  0
 31 58  1  0
 33 59  1  0
 33 60  1  0
M  END
$$$$
[H]c1c([H])c([H])c2c(c1[H])C([H])([H])N(S(=O)(=O)c1c([H])c([H])c(OC([H])([H])[H])c([H])c1[H])C([H])([H])C2([H])[H]
     RDKit          3D

 38 40  0  0  0  0  0  0  0  0999 V2000
    6.2503    0.0776    0.7384 C   0  0  0  0  0  0  0  0  0  0  0  0
    5.4353   -1.0447    0.4661 O   0  0  0  0  0  0  0  0  0  0  0  0
    4.1878   -0.9278   -0.1345 C   0  0  0  0  0  0  0  0  0  0  0  0
    3.7603    0.3411   -0.4635 C   0  0  0  0  0  0  0  0  0  0  0  0
    2.5292    0.4566   -1.0562 C   0  0  0  0  0  0  0  0  0  0  0  0
    1.7289   -0.6266   -1.3254 C   0  0  0  0  0  0  0  0  0  0  0  0
    2.1940   -1.8858   -0.9797 C   0  0  0  0  0  0  0  0  0  0  0  0
    3.4142   -2.0377   -0.3884 C   0  0  0  0  0  0  0  0  0  0  0  0
    0.1715   -0.4141   -2.0817 S   0  0  0  0  0  0  0  0  0  0  0  0
    0.2380    0.8964   -2.8551 O   0  0  0  0  0  0  0  0  0  0  0  0
   -0.1529   -1.5142   -3.0228 O   0  0  0  0  0  0  0  0  0  0  0  0
   -1.0224   -0.2203   -0.8779 N   0  0  0  0  0  0  0  0  0  0  0  0
   -0.8009    0.9488   -0.0524 C   0  0  0  0  0  0  0  0  0  0  0  0
   -1.4951    0.6555    1.2849 C   0  0  0  0  0  0  0  0  0  0  0  0
   -2.9375    0.4988    0.9638 C   0  0  0  0  0  0  0  0  0  0  0  0
   -3.8658    0.7300    1.9441 C   0  0  0  0  0  0  0  0  0  0  0  0
   -5.2117    0.5936    1.6795 C   0  0  0  0  0  0  0  0  0  0  0  0
   -5.5887    0.2196    0.4048 C   0  0  0  0  0  0  0  0  0  0  0  0
   -4.6684   -0.0183   -0.5982 C   0  0  0  0  0  0  0  0  0  0  0  0
   -3.3142    0.1253   -0.3091 C   0  0  0  0  0  0  0  0  0  0  0  0
   -2.3568   -0.1377   -1.4082 C   0  0  0  0  0  0  0  0  0  0  0  0
    6.6247    0.4753   -0.2246 H   0  0  0  0  0  0  0  0  0  0  0  0
    5.6453    0.8501    1.2796 H   0  0  0  0  0  0  0  0  0  0  0  0
    7.1003   -0.2857    1.3835 H   0  0  0  0  0  0  0  0  0  0  0  0
    4.3615    1.2293   -0.2687 H   0  0  0  0  0  0  0  0  0  0  0  0
    2.1660    1.4582   -1.3282 H   0  0  0  0  0  0  0  0  0  0  0  0
    1.5844   -2.7536   -1.1805 H   0  0  0  0  0  0  0  0  0  0  0  0
    3.7692   -3.0387   -0.1206 H   0  0  0  0  0  0  0  0  0  0  0  0
   -1.3363    1.8270   -0.5147 H   0  0  0  0  0  0  0  0  0  0  0  0
    0.2417    1.2252    0.0859 H   0  0  0  0  0  0  0  0  0  0  0  0
   -1.3147    1.4685    2.0120 H   0  0  0  0  0  0  0  0  0  0  0  0
   -1.0837   -0.3218    1.6178 H   0  0  0  0  0  0  0  0  0  0  0  0
   -3.5313    1.0185    2.9200 H   0  0  0  0  0  0  0  0  0  0  0  0
   -5.9237    0.7830    2.4749 H   0  0  0  0  0  0  0  0  0  0  0  0
   -6.6684    0.1234    0.2399 H   0  0  0  0  0  0  0  0  0  0  0  0
   -5.0386   -0.3051   -1.5622 H   0  0  0  0  0  0  0  0  0  0  0  0
   -2.4585    0.6656   -2.1804 H   0  0  0  0  0  0  0  0  0  0  0  0
   -2.6334   -1.1356   -1.8556 H   0  0  0  0  0  0  0  0  0  0  0  0
  1  2  1  0
  2  3  1  0
  3  4  2  0
  4  5  1  0
  5  6  2  0
  6  7  1  0
  7  8  2  0
  6  9  1  0
  9 10  2  0
  9 11  2  0
  9 12  1  0
 12 13  1  0
 13 14  1  0
 14 15  1  0
 15 16  2  0
 16 17  1  0
 17 18  2  0
 18 19  1  0
 19 20  2  0
 20 21  1  0
  8  3  1  0
 21 12  1  0
 20 15  1  0
  1 22  1  0
  1 23  1  0
  1 24  1  0
  4 25  1  0
  5 26  1  0
  7 27  1  0
  8 28  1  0
 13 29  1  0
 13 30  1  0
 14 31  1  0
 14 32  1  0
 16 33  1  0
 17 34  1  0
 18 35  1  0
 19 36  1  0
 21 37  1  0
 21 38  1  0
M  END
$$$$
[H]c1c([H])c([H])c(N([H])C(=O)[C@]2([H])C([H])([H])[C@]3([H])N([H])[C@@]([H])(N([H])C(=O)c4c([H])c([H])c(C(F)(F)F)c([H])c4[H])C([H])([H])[C@@]32[H])c([H])c1[H]
     RDKit          3D

 49 52  0  0  0  0  0  0  0  0999 V2000
   -8.9659   -0.5429   -0.1060 F   0  0  0  0  0  0  0  0  0  0  0  0
   -8.0465   -1.4716   -0.4135 C   0  0  0  0  0  0  0  0  0  0  0  0
   -8.3864   -2.6988    0.1387 F   0  0  0  0  0  0  0  0  0  0  0  0
   -8.0467   -1.6024   -1.8059 F   0  0  0  0  0  0  0  0  0  0  0  0
   -6.6723   -1.1370    0.0396 C   0  0  0  0  0  0  0  0  0  0  0  0
   -5.5847   -1.3782   -0.8055 C   0  0  0  0  0  0  0  0  0  0  0  0
   -4.2927   -1.1063   -0.4160 C   0  0  0  0  0  0  0  0  0  0  0  0
   -3.9958   -0.5769    0.8181 C   0  0  0  0  0  0  0  0  0  0  0  0
   -5.0754   -0.3294    1.6674 C   0  0  0  0  0  0  0  0  0  0  0  0
   -6.3700   -0.6120    1.2649 C   0  0  0  0  0  0  0  0  0  0  0  0
   -2.6467   -0.2489    1.2660 C   0  0  0  0  0  0  0  0  0  0  0  0
   -2.3203   -0.3139    2.4815 O   0  0  0  0  0  0  0  0  0  0  0  0
   -1.6261    0.1662    0.3544 N   0  0  0  0  0  0  0  0  0  0  0  0
   -0.2860    0.4912    0.7813 C   0  0  1  0  0  0  0  0  0  0  0  0
    0.8048    0.0118   -0.1266 C   0  0  0  0  0  0  0  0  0  0  0  0
    0.8760    1.0691   -1.2246 C   0  0  2  0  0  0  0  0  0  0  0  0
    2.1303    1.8674   -1.2896 C   0  0  1  0  0  0  0  0  0  0  0  0
    1.4018    3.0742   -0.8273 C   0  0  0  0  0  0  0  0  0  0  0  0
    0.1742    2.2294   -0.6106 C   0  0  2  0  0  0  0  0  0  0  0  0
   -0.1262    1.9529    0.7777 N   0  0  0  0  0  0  0  0  0  0  0  0
    3.2653    1.4037   -0.4266 C   0  0  0  0  0  0  0  0  0  0  0  0
    3.5755    2.0263    0.5978 O   0  0  0  0  0  0  0  0  0  0  0  0
    3.9459    0.2456   -0.8310 N   0  0  0  0  0  0  0  0  0  0  0  0
    5.0433   -0.4002   -0.2108 C   0  0  0  0  0  0  0  0  0  0  0  0
    5.7062    0.0878    0.8774 C   0  0  0  0  0  0  0  0  0  0  0  0
    6.7917   -0.5904    1.4757 C   0  0  0  0  0  0  0  0  0  0  0  0
    7.2278   -1.7890    0.9780 C   0  0  0  0  0  0  0  0  0  0  0  0
    6.5658   -2.2929   -0.1218 C   0  0  0  0  0  0  0  0  0  0  0  0
    5.5125   -1.6239   -0.6978 C   0  0  0  0  0  0  0  0  0  0  0  0
   -5.8090   -1.7967   -1.7932 H   0  0  0  0  0  0  0  0  0  0  0  0
   -3.4619   -1.2973   -1.1055 H   0  0  0  0  0  0  0  0  0  0  0  0
   -4.8662    0.0952    2.6409 H   0  0  0  0  0  0  0  0  0  0  0  0
   -7.2111   -0.4209    1.9387 H   0  0  0  0  0  0  0  0  0  0  0  0
   -1.9091    0.2175   -0.6668 H   0  0  0  0  0  0  0  0  0  0  0  0
   -0.1887    0.1936    1.8368 H   0  0  0  0  0  0  0  0  0  0  0  0
    0.5837   -0.9656   -0.5403 H   0  0  0  0  0  0  0  0  0  0  0  0
    1.7590    0.0356    0.4630 H   0  0  0  0  0  0  0  0  0  0  0  0
    0.4695    0.7038   -2.1908 H   0  0  0  0  0  0  0  0  0  0  0  0
    2.4425    2.0168   -2.3601 H   0  0  0  0  0  0  0  0  0  0  0  0
    1.2283    3.8657   -1.5977 H   0  0  0  0  0  0  0  0  0  0  0  0
    1.8294    3.4778    0.1273 H   0  0  0  0  0  0  0  0  0  0  0  0
   -0.7033    2.5989   -1.1895 H   0  0  0  0  0  0  0  0  0  0  0  0
   -1.0744    2.3237    0.9699 H   0  0  0  0  0  0  0  0  0  0  0  0
    3.6118   -0.2520   -1.7417 H   0  0  0  0  0  0  0  0  0  0  0  0
    5.4512    1.0178    1.3278 H   0  0  0  0  0  0  0  0  0  0  0  0
    7.2754   -0.1397    2.3243 H   0  0  0  0  0  0  0  0  0  0  0  0
    8.0721   -2.3277    1.4367 H   0  0  0  0  0  0  0  0  0  0  0  0
    6.9293   -3.2266   -0.5154 H   0  0  0  0  0  0  0  0  0  0  0  0
    4.9921   -2.0308   -1.5585 H   0  0  0  0  0  0  0  0  0  0  0  0
  1  2  1  0
  2  3  1  0
  2  4  1  0
  2  5  1  0
  5  6  2  0
  6  7  1  0
  7  8  2  0
  8  9  1  0
  9 10  2  0
  8 11  1  0
 11 12  2  0
 11 13  1  0
 13 14  1  0
 14 15  1  0
 15 16  1  0
 16 17  1  0
 17 18  1  0
 18 19  1  0
 19 20  1  0
 17 21  1  0
 21 22  2  0
 21 23  1  0
 23 24  1  0
 24 25  2  0
 25 26  1  0
 26 27  2  0
 27 28  1  0
 28 29  2  0
 10  5  1  0
 20 14  1  0
 29 24  1  0
 19 16  1  0
  6 30  1  0
  7 31  1  0
  9 32  1  0
 10 33  1  0
 13 34  1  0
 14 35  1  1
 15 36  1  0
 15 37  1  0
 16 38  1  6
 17 39  1  6
 18 40  1  0
 18 41  1  0
 19 42  1  6
 20 43  1  0
 23 44  1  0
 25 45  1  0
 26 46  1  0
 27 47  1  0
 28 48  1  0
 29 49  1  0
M  END
$$$$
[H]Oc1c([H])c([H])c(C([H])([H])[C@@]([H])(C(=O)N([H])[C@]([H])(C(=O)N([H])[C@]([H])(C(=O)N([H])[C@]([H])(C(=O)N([H])[C@]([H])(C(=O)N([H])[H])C([H])([H])C([H])(C([H])([H])[H])C([H])([H])[H])C([H])([H])c2c([H])c([H])c([H])c([H])c2[H])C([H])([H])[H])C([H])([H])c2c([H])c([H])c([H])c([H])c2[H])N([H])[H])c([H])c1[H]
     RDKit          3D

 94 96  0  0  0  0  0  0  0  0999 V2000
   -0.0450    3.1242   -1.0326 C   0  0  0  0  0  0  0  0  0  0  0  0
    0.3911    2.1239    0.0412 C   0  0  2  0  0  0  0  0  0  0  0  0
    1.1719    1.0778   -0.5244 N   0  0  0  0  0  0  0  0  0  0  0  0
    2.4831    0.6867   -0.2425 C   0  0  0  0  0  0  0  0  0  0  0  0
    3.1393    1.2886    0.6375 O   0  0  0  0  0  0  0  0  0  0  0  0
    3.1416   -0.4531   -0.9801 C   0  0  2  0  0  0  0  0  0  0  0  0
    2.2808   -1.6433   -0.8190 C   0  0  0  0  0  0  0  0  0  0  0  0
    2.7299   -2.8780   -1.4582 C   0  0  0  0  0  0  0  0  0  0  0  0
    2.4092   -3.2452   -2.7491 C   0  0  0  0  0  0  0  0  0  0  0  0
    2.8791   -4.4336   -3.2476 C   0  0  0  0  0  0  0  0  0  0  0  0
    3.6665   -5.2873   -2.5077 C   0  0  0  0  0  0  0  0  0  0  0  0
    3.9985   -4.9371   -1.2139 C   0  0  0  0  0  0  0  0  0  0  0  0
    3.5245   -3.7458   -0.7216 C   0  0  0  0  0  0  0  0  0  0  0  0
    4.4899   -0.5788   -0.4735 N   0  0  0  0  0  0  0  0  0  0  0  0
    5.5950   -0.0032   -1.0966 C   0  0  0  0  0  0  0  0  0  0  0  0
    5.3953    0.6761   -2.1612 O   0  0  0  0  0  0  0  0  0  0  0  0
    6.9678   -0.1104   -0.6374 C   0  0  1  0  0  0  0  0  0  0  0  0
    7.8681    0.7907   -1.3673 N   0  0  0  0  0  0  0  0  0  0  0  0
    7.0384    0.1511    0.8623 C   0  0  0  0  0  0  0  0  0  0  0  0
    8.4143    0.0672    1.3510 C   0  0  0  0  0  0  0  0  0  0  0  0
    9.2117    1.1838    1.3734 C   0  0  0  0  0  0  0  0  0  0  0  0
   10.5239    1.1493    1.8021 C   0  0  0  0  0  0  0  0  0  0  0  0
   11.0509   -0.0547    2.2240 C   0  0  0  0  0  0  0  0  0  0  0  0
   12.3843   -0.0739    2.6556 O   0  0  0  0  0  0  0  0  0  0  0  0
   10.2840   -1.1868    2.2156 C   0  0  0  0  0  0  0  0  0  0  0  0
    8.9531   -1.1180    1.7733 C   0  0  0  0  0  0  0  0  0  0  0  0
   -0.8253    1.5080    0.6774 C   0  0  0  0  0  0  0  0  0  0  0  0
   -0.6956    0.3787    1.2053 O   0  0  0  0  0  0  0  0  0  0  0  0
   -2.0249    2.2068    0.6501 N   0  0  0  0  0  0  0  0  0  0  0  0
   -3.2994    1.7216    1.2418 C   0  0  1  0  0  0  0  0  0  0  0  0
   -3.7764    2.8191    2.1095 C   0  0  0  0  0  0  0  0  0  0  0  0
   -5.0277    2.6249    2.8495 C   0  0  0  0  0  0  0  0  0  0  0  0
   -5.0314    1.8807    4.0312 C   0  0  0  0  0  0  0  0  0  0  0  0
   -6.1484    1.7050    4.8126 C   0  0  0  0  0  0  0  0  0  0  0  0
   -7.3477    2.2780    4.4445 C   0  0  0  0  0  0  0  0  0  0  0  0
   -7.3781    3.0158    3.2868 C   0  0  0  0  0  0  0  0  0  0  0  0
   -6.2538    3.1902    2.5048 C   0  0  0  0  0  0  0  0  0  0  0  0
   -4.2053    1.2892    0.2049 C   0  0  0  0  0  0  0  0  0  0  0  0
   -3.7629    1.4555   -1.0125 O   0  0  0  0  0  0  0  0  0  0  0  0
   -5.4832    0.7087    0.2850 N   0  0  0  0  0  0  0  0  0  0  0  0
   -6.2342    0.2927   -0.9217 C   0  0  1  0  0  0  0  0  0  0  0  0
   -6.8125   -1.0285   -0.6067 C   0  0  0  0  0  0  0  0  0  0  0  0
   -7.6076   -1.7228   -1.6482 C   0  0  0  0  0  0  0  0  0  0  0  0
   -8.0963   -3.0764   -1.0794 C   0  0  0  0  0  0  0  0  0  0  0  0
   -6.7103   -2.1280   -2.8198 C   0  0  0  0  0  0  0  0  0  0  0  0
   -7.1269    1.3342   -1.4206 C   0  0  0  0  0  0  0  0  0  0  0  0
   -7.9566    1.1901   -2.5798 N   0  0  0  0  0  0  0  0  0  0  0  0
   -7.2443    2.4815   -0.8569 O   0  0  0  0  0  0  0  0  0  0  0  0
   -0.8204    2.6766   -1.6650 H   0  0  0  0  0  0  0  0  0  0  0  0
    0.8812    3.4312   -1.5865 H   0  0  0  0  0  0  0  0  0  0  0  0
   -0.4632    4.0345   -0.5846 H   0  0  0  0  0  0  0  0  0  0  0  0
    0.9290    2.7137    0.8110 H   0  0  0  0  0  0  0  0  0  0  0  0
    0.6632    0.5091   -1.2856 H   0  0  0  0  0  0  0  0  0  0  0  0
    3.2475   -0.0622   -2.0160 H   0  0  0  0  0  0  0  0  0  0  0  0
    2.1391   -1.8547    0.2788 H   0  0  0  0  0  0  0  0  0  0  0  0
    1.2304   -1.4487   -1.1812 H   0  0  0  0  0  0  0  0  0  0  0  0
    1.7844   -2.5526   -3.3161 H   0  0  0  0  0  0  0  0  0  0  0  0
    2.6152   -4.7033   -4.2625 H   0  0  0  0  0  0  0  0  0  0  0  0
    4.0426   -6.2297   -2.8937 H   0  0  0  0  0  0  0  0  0  0  0  0
    4.6258   -5.5807   -0.5737 H   0  0  0  0  0  0  0  0  0  0  0  0
    3.8146   -3.5104    0.3098 H   0  0  0  0  0  0  0  0  0  0  0  0
    4.5946   -1.1331    0.4030 H   0  0  0  0  0  0  0  0  0  0  0  0
    7.4111   -1.1382   -0.8460 H   0  0  0  0  0  0  0  0  0  0  0  0
    8.8488    0.5146   -1.2617 H   0  0  0  0  0  0  0  0  0  0  0  0
    7.7035    1.7949   -1.1233 H   0  0  0  0  0  0  0  0  0  0  0  0
    6.3817   -0.6512    1.3162 H   0  0  0  0  0  0  0  0  0  0  0  0
    6.5242    1.1083    1.0592 H   0  0  0  0  0  0  0  0  0  0  0  0
    8.8354    2.1651    1.0456 H   0  0  0  0  0  0  0  0  0  0  0  0
   11.0893    2.0688    1.7896 H   0  0  0  0  0  0  0  0  0  0  0  0
   12.4986    0.1039    3.6633 H   0  0  0  0  0  0  0  0  0  0  0  0
   10.7266   -2.1179    2.5542 H   0  0  0  0  0  0  0  0  0  0  0  0
    8.4080   -2.0524    1.7919 H   0  0  0  0  0  0  0  0  0  0  0  0
   -2.0963    3.1315    0.2006 H   0  0  0  0  0  0  0  0  0  0  0  0
   -2.9486    0.8726    1.8914 H   0  0  0  0  0  0  0  0  0  0  0  0
   -2.9498    3.1260    2.8272 H   0  0  0  0  0  0  0  0  0  0  0  0
   -3.8979    3.7937    1.5124 H   0  0  0  0  0  0  0  0  0  0  0  0
   -4.0630    1.4348    4.3058 H   0  0  0  0  0  0  0  0  0  0  0  0
   -6.1097    1.1243    5.7197 H   0  0  0  0  0  0  0  0  0  0  0  0
   -8.2540    2.1646    5.0334 H   0  0  0  0  0  0  0  0  0  0  0  0
   -8.3177    3.4686    2.9983 H   0  0  0  0  0  0  0  0  0  0  0  0
   -6.2564    3.7724    1.5811 H   0  0  0  0  0  0  0  0  0  0  0  0
   -5.9151    0.5356    1.2013 H   0  0  0  0  0  0  0  0  0  0  0  0
   -5.4446    0.1601   -1.7275 H   0  0  0  0  0  0  0  0  0  0  0  0
   -7.4499   -0.9596    0.3193 H   0  0  0  0  0  0  0  0  0  0  0  0
   -5.9625   -1.6932   -0.2639 H   0  0  0  0  0  0  0  0  0  0  0  0
   -8.4905   -1.1973   -2.0290 H   0  0  0  0  0  0  0  0  0  0  0  0
   -7.3120   -3.3738   -0.3355 H   0  0  0  0  0  0  0  0  0  0  0  0
   -9.0244   -2.9220   -0.4962 H   0  0  0  0  0  0  0  0  0  0  0  0
   -8.2284   -3.8014   -1.8777 H   0  0  0  0  0  0  0  0  0  0  0  0
   -6.2594   -1.2418   -3.2917 H   0  0  0  0  0  0  0  0  0  0  0  0
   -5.8532   -2.6951   -2.3632 H   0  0  0  0  0  0  0  0  0  0  0  0
   -7.2264   -2.7681   -3.5373 H   0  0  0  0  0  0  0  0  0  0  0  0
   -8.9456    1.4883   -2.5296 H   0  0  0  0  0  0  0  0  0  0  0  0
   -7.6044    0.7987   -3.4732 H   0  0  0  0  0  0  0  0  0  0  0  0
  1  2  1  0
  2  3  1  0
  3  4  1  0
  4  5  2  0
  4  6  1  0
  6  7  1  0
  7  8  1  0
  8  9  2  0
  9 10  1  0
 10 11  2  0
 11 12  1  0
 12 13  2  0
  6 14  1  0
 14 15  1  0
 15 16  2  0
 15 17  1  0
 17 18  1  0
 17 19  1  0
 19 20  1  0
 20 21  2  0
 21 22  1  0
 22 23  2  0
 23 24  1  0
 23 25  1  0
 25 26  2  0
  2 27  1  0
 27 28  2  0
 27 29  1  0
 29 30  1  0
 30 31  1  0
 31 32  1  0
 32 33  2  0
 33 34  1  0
 34 35  2  0
 35 36  1  0
 36 37  2  0
 30 38  1  0
 38 39  2  0
 38 40  1  0
 40 41  1  0
 41 42  1  0
 42 43  1  0
 43 44  1  0
 43 45  1  0
 41 46  1  0
 46 47  1  0
 46 48  2  0
 13  8  1  0
 26 20  1  0
 37 32  1  0
  1 49  1  0
  1 50  1  0
  1 51  1  0
  2 52  1  1
  3 53  1  0
  6 54  1  6
  7 55  1  0
  7 56  1  0
  9 57  1  0
 10 58  1  0
 11 59  1  0
 12 60  1  0
 13 61  1  0
 14 62  1  0
 17 63  1  1
 18 64  1  0
 18 65  1  0
 19 66  1  0
 19 67  1  0
 21 68  1  0
 22 69  1  0
 24 70  1  0
 25 71  1  0
 26 72  1  0
 29 73  1  0
 30 74  1  1
 31 75  1  0
 31 76  1  0
 33 77  1  0
 34 78  1  0
 35 79  1  0
 36 80  1  0
 37 81  1  0
 40 82  1  0
 41 83  1  6
 42 84  1  0
 42 85  1  0
 43 86  1  0
 44 87  1  0
 44 88  1  0
 44 89  1  0
 45 90  1  0
 45 91  1  0
 45 92  1  0
 47 93  1  0
 47 94  1  0
M  END
$$$$
[H]c1nc(C(=O)N([H])c2c([H])c([H])c(N3C([H])([H])C([H])([H])N(C([H])([H])[H])C([H])([H])C3([H])[H])c([H])c2[H])n([H])c1C#Cc1c([H])c([H])c([H])c([H])c1[H]
     RDKit          3D

 52 55  0  0  0  0  0  0  0  0999 V2000
   -9.1062    0.7212   -0.7451 C   0  0  0  0  0  0  0  0  0  0  0  0
   -7.8682    0.2581   -0.1806 N   0  0  0  0  0  0  0  0  0  0  0  0
   -7.2135   -0.5961   -1.1478 C   0  0  0  0  0  0  0  0  0  0  0  0
   -5.9076   -1.0690   -0.5780 C   0  0  0  0  0  0  0  0  0  0  0  0
   -5.0436    0.0997   -0.4187 N   0  0  0  0  0  0  0  0  0  0  0  0
   -5.6855    1.3801   -0.4332 C   0  0  0  0  0  0  0  0  0  0  0  0
   -7.0288    1.3234    0.2778 C   0  0  0  0  0  0  0  0  0  0  0  0
   -3.6507   -0.1294   -0.2623 C   0  0  0  0  0  0  0  0  0  0  0  0
   -3.1684   -1.4111   -0.1823 C   0  0  0  0  0  0  0  0  0  0  0  0
   -1.7935   -1.6569   -0.0299 C   0  0  0  0  0  0  0  0  0  0  0  0
   -0.8772   -0.6559    0.0466 C   0  0  0  0  0  0  0  0  0  0  0  0
    0.5070   -0.8005    0.2225 N   0  0  0  0  0  0  0  0  0  0  0  0
    1.1141   -1.9534    0.7674 C   0  0  0  0  0  0  0  0  0  0  0  0
    0.4334   -2.9279    1.1398 O   0  0  0  0  0  0  0  0  0  0  0  0
    2.5816   -2.0211    0.9056 C   0  0  0  0  0  0  0  0  0  0  0  0
    3.2311   -3.0797    1.4073 N   0  0  0  0  0  0  0  0  0  0  0  0
    4.5455   -2.7622    1.3693 C   0  0  0  0  0  0  0  0  0  0  0  0
    4.7080   -1.4865    0.8349 C   0  0  0  0  0  0  0  0  0  0  0  0
    3.4526   -1.0784    0.5666 N   0  0  0  0  0  0  0  0  0  0  0  0
    5.9590   -0.8112    0.6385 C   0  0  0  0  0  0  0  0  0  0  0  0
    7.0210   -0.2618    0.4788 C   0  0  0  0  0  0  0  0  0  0  0  0
    8.2967    0.3718    0.2986 C   0  0  0  0  0  0  0  0  0  0  0  0
    8.7127    0.8830   -0.9268 C   0  0  0  0  0  0  0  0  0  0  0  0
    9.9414    1.4865   -1.0779 C   0  0  0  0  0  0  0  0  0  0  0  0
   10.8142    1.6105   -0.0202 C   0  0  0  0  0  0  0  0  0  0  0  0
   10.4154    1.1085    1.2006 C   0  0  0  0  0  0  0  0  0  0  0  0
    9.1835    0.5043    1.3488 C   0  0  0  0  0  0  0  0  0  0  0  0
   -1.4069    0.6481   -0.0395 C   0  0  0  0  0  0  0  0  0  0  0  0
   -2.7474    0.9024   -0.1888 C   0  0  0  0  0  0  0  0  0  0  0  0
   -8.9656    1.5023   -1.5031 H   0  0  0  0  0  0  0  0  0  0  0  0
   -9.7506    1.1336    0.0796 H   0  0  0  0  0  0  0  0  0  0  0  0
   -9.6242   -0.1415   -1.2307 H   0  0  0  0  0  0  0  0  0  0  0  0
   -7.0205   -0.0862   -2.1056 H   0  0  0  0  0  0  0  0  0  0  0  0
   -7.8965   -1.4574   -1.3510 H   0  0  0  0  0  0  0  0  0  0  0  0
   -6.0538   -1.5780    0.3727 H   0  0  0  0  0  0  0  0  0  0  0  0
   -5.3997   -1.6910   -1.3595 H   0  0  0  0  0  0  0  0  0  0  0  0
   -5.8053    1.7700   -1.4674 H   0  0  0  0  0  0  0  0  0  0  0  0
   -5.0829    2.1079    0.1387 H   0  0  0  0  0  0  0  0  0  0  0  0
   -6.8335    1.3313    1.3541 H   0  0  0  0  0  0  0  0  0  0  0  0
   -7.5688    2.2861    0.0547 H   0  0  0  0  0  0  0  0  0  0  0  0
   -3.8172   -2.2866   -0.2313 H   0  0  0  0  0  0  0  0  0  0  0  0
   -1.4818   -2.6905    0.0068 H   0  0  0  0  0  0  0  0  0  0  0  0
    1.1453    0.0167   -0.0790 H   0  0  0  0  0  0  0  0  0  0  0  0
    5.3357   -3.4041    1.7034 H   0  0  0  0  0  0  0  0  0  0  0  0
    3.2260   -0.1448    0.1502 H   0  0  0  0  0  0  0  0  0  0  0  0
    8.0072    0.7733   -1.7453 H   0  0  0  0  0  0  0  0  0  0  0  0
   10.2511    1.8785   -2.0349 H   0  0  0  0  0  0  0  0  0  0  0  0
   11.7955    2.0908   -0.1346 H   0  0  0  0  0  0  0  0  0  0  0  0
   11.0923    1.2001    2.0395 H   0  0  0  0  0  0  0  0  0  0  0  0
    8.8405    0.0969    2.3061 H   0  0  0  0  0  0  0  0  0  0  0  0
   -0.6950    1.4624    0.0182 H   0  0  0  0  0  0  0  0  0  0  0  0
   -3.1180    1.9385   -0.2536 H   0  0  0  0  0  0  0  0  0  0  0  0
  1  2  1  0
  2  3  1  0
  3  4  1  0
  4  5  1  0
  5  6  1  0
  6  7  1  0
  5  8  1  0
  8  9  2  0
  9 10  1  0
 10 11  2  0
 11 12  1  0
 12 13  1  0
 13 14  2  0
 13 15  1  0
 15 16  2  0
 16 17  1  0
 17 18  2  0
 18 19  1  0
 18 20  1  0
 20 21  3  0
 21 22  1  0
 22 23  2  0
 23 24  1  0
 24 25  2  0
 25 26  1  0
 26 27  2  0
 11 28  1  0
 28 29  2  0
  7  2  1  0
 29  8  1  0
 19 15  1  0
 27 22  1  0
  1 30  1  0
  1 31  1  0
  1 32  1  0
  3 33  1  0
  3 34  1  0
  4 35  1  0
  4 36  1  0
  6 37  1  0
  6 38  1  0
  7 39  1  0
  7 40  1  0
  9 41  1  0
 10 42  1  0
 12 43  1  0
 17 44  1  0
 19 45  1  0
 23 46  1  0
 24 47  1  0
 25 48  1  0
 26 49  1  0
 27 50  1  0
 28 51  1  0
 29 52  1  0
M  END
$$$$
[H]c1c([H])c([H])c(C([H])([H])[C@@]([H])(C(=O)N([H])[C@]([H])(C(=O)N([H])[C@]([H])(C(=O)N([H])[H])C([H])([H])C([H])(C([H])([H])[H])C([H])([H])[H])C([H])([H])C([H])(C([H])([H])[H])C([H])([H])[H])N([H])[H])c([H])c1[H]
     RDKit          3D

 62 62  0  0  0  0  0  0  0  0999 V2000
   -1.5127    3.7704    1.1942 C   0  0  0  0  0  0  0  0  0  0  0  0
   -0.2328    3.2752    1.7887 C   0  0  0  0  0  0  0  0  0  0  0  0
    0.6599    4.5370    1.9816 C   0  0  0  0  0  0  0  0  0  0  0  0
    0.5710    2.2949    1.0764 C   0  0  0  0  0  0  0  0  0  0  0  0
    0.1596    0.9450    0.7523 C   0  0  2  0  0  0  0  0  0  0  0  0
    1.3504    0.3258    0.0397 N   0  0  0  0  0  0  0  0  0  0  0  0
    2.0306   -0.7576    0.5938 C   0  0  0  0  0  0  0  0  0  0  0  0
    1.6574   -1.2304    1.6942 O   0  0  0  0  0  0  0  0  0  0  0  0
    3.1887   -1.3651   -0.0924 C   0  0  1  0  0  0  0  0  0  0  0  0
    3.4830   -0.6404   -1.2958 N   0  0  0  0  0  0  0  0  0  0  0  0
    4.3917   -1.5087    0.8020 C   0  0  0  0  0  0  0  0  0  0  0  0
    5.5405   -2.1193    0.0943 C   0  0  0  0  0  0  0  0  0  0  0  0
    5.6798   -3.5035    0.0948 C   0  0  0  0  0  0  0  0  0  0  0  0
    6.7541   -4.0988   -0.5656 C   0  0  0  0  0  0  0  0  0  0  0  0
    7.6967   -3.3403   -1.2292 C   0  0  0  0  0  0  0  0  0  0  0  0
    7.5641   -1.9810   -1.2322 C   0  0  0  0  0  0  0  0  0  0  0  0
    6.5001   -1.4093   -0.5772 C   0  0  0  0  0  0  0  0  0  0  0  0
   -1.0251    0.5932   -0.0026 C   0  0  0  0  0  0  0  0  0  0  0  0
   -0.7979    0.0496   -1.1693 O   0  0  0  0  0  0  0  0  0  0  0  0
   -2.3751    0.7197    0.3062 N   0  0  0  0  0  0  0  0  0  0  0  0
   -3.3892    0.1920   -0.7058 C   0  0  1  0  0  0  0  0  0  0  0  0
   -4.2596   -0.7230   -0.0084 C   0  0  0  0  0  0  0  0  0  0  0  0
   -5.2838   -1.5101   -0.6549 C   0  0  0  0  0  0  0  0  0  0  0  0
   -6.4250   -0.9280   -1.3619 C   0  0  0  0  0  0  0  0  0  0  0  0
   -5.9084   -2.4321    0.4557 C   0  0  0  0  0  0  0  0  0  0  0  0
   -3.7934    1.3744   -1.4287 C   0  0  0  0  0  0  0  0  0  0  0  0
   -5.0544    1.8342   -1.8042 N   0  0  0  0  0  0  0  0  0  0  0  0
   -2.8240    2.1858   -1.8118 O   0  0  0  0  0  0  0  0  0  0  0  0
   -1.6046    4.9062    1.3308 H   0  0  0  0  0  0  0  0  0  0  0  0
   -2.4132    3.3633    1.6804 H   0  0  0  0  0  0  0  0  0  0  0  0
   -1.5064    3.6668    0.0938 H   0  0  0  0  0  0  0  0  0  0  0  0
   -0.4135    2.9578    2.8766 H   0  0  0  0  0  0  0  0  0  0  0  0
   -0.0219    5.2862    2.4352 H   0  0  0  0  0  0  0  0  0  0  0  0
    0.9048    4.8768    0.9430 H   0  0  0  0  0  0  0  0  0  0  0  0
    1.5410    4.3027    2.5824 H   0  0  0  0  0  0  0  0  0  0  0  0
    1.6020    2.1878    1.5938 H   0  0  0  0  0  0  0  0  0  0  0  0
    0.8378    2.8146    0.0616 H   0  0  0  0  0  0  0  0  0  0  0  0
    0.1047    0.3533    1.7189 H   0  0  0  0  0  0  0  0  0  0  0  0
    1.6302    0.7335   -0.8572 H   0  0  0  0  0  0  0  0  0  0  0  0
    2.9181   -2.4062   -0.4240 H   0  0  0  0  0  0  0  0  0  0  0  0
    3.8673    0.3132   -1.1218 H   0  0  0  0  0  0  0  0  0  0  0  0
    2.7565   -0.6927   -2.0134 H   0  0  0  0  0  0  0  0  0  0  0  0
    4.1198   -2.2073    1.6382 H   0  0  0  0  0  0  0  0  0  0  0  0
    4.6451   -0.5293    1.2309 H   0  0  0  0  0  0  0  0  0  0  0  0
    4.9915   -4.1640    0.5865 H   0  0  0  0  0  0  0  0  0  0  0  0
    6.8564   -5.1806   -0.5615 H   0  0  0  0  0  0  0  0  0  0  0  0
    8.5410   -3.7886   -1.7502 H   0  0  0  0  0  0  0  0  0  0  0  0
    8.2833   -1.3431   -1.7423 H   0  0  0  0  0  0  0  0  0  0  0  0
    6.4143   -0.3286   -0.5928 H   0  0  0  0  0  0  0  0  0  0  0  0
   -2.8483    1.0976    1.1342 H   0  0  0  0  0  0  0  0  0  0  0  0
   -2.7263   -0.4075   -1.4168 H   0  0  0  0  0  0  0  0  0  0  0  0
   -4.7524   -0.1346    0.8701 H   0  0  0  0  0  0  0  0  0  0  0  0
   -3.5699   -1.4247    0.5978 H   0  0  0  0  0  0  0  0  0  0  0  0
   -4.8106   -2.3255   -1.3376 H   0  0  0  0  0  0  0  0  0  0  0  0
   -7.2250   -1.7819   -1.4110 H   0  0  0  0  0  0  0  0  0  0  0  0
   -6.9716   -0.1080   -0.8855 H   0  0  0  0  0  0  0  0  0  0  0  0
   -6.2618   -0.6655   -2.4402 H   0  0  0  0  0  0  0  0  0  0  0  0
   -6.8409   -2.8813    0.0828 H   0  0  0  0  0  0  0  0  0  0  0  0
   -5.1988   -3.2444    0.6906 H   0  0  0  0  0  0  0  0  0  0  0  0
   -6.0634   -1.8406    1.3732 H   0  0  0  0  0  0  0  0  0  0  0  0
   -5.6959    2.3290   -1.1151 H   0  0  0  0  0  0  0  0  0  0  0  0
   -5.4358    1.7163   -2.7852 H   0  0  0  0  0  0  0  0  0  0  0  0
  1  2  1  0
  2  3  1  0
  2  4  1  0
  4  5  1  0
  5  6  1  0
  6  7  1  0
  7  8  2  0
  7  9  1  0
  9 10  1  0
  9 11  1  0
 11 12  1  0
 12 13  2  0
 13 14  1  0
 14 15  2  0
 15 16  1  0
 16 17  2  0
  5 18  1  0
 18 19  2  0
 18 20  1  0
 20 21  1  0
 21 22  1  0
 22 23  1  0
 23 24  1  0
 23 25  1  0
 21 26  1  0
 26 27  1  0
 26 28  2  0
 17 12  1  0
  1 29  1  0
  1 30  1  0
  1 31  1  0
  2 32  1  0
  3 33  1  0
  3 34  1  0
  3 35  1  0
  4 36  1  0
  4 37  1  0
  5 38  1  1
  6 39  1  0
  9 40  1  6
 10 41  1  0
 10 42  1  0
 11 43  1  0
 11 44  1  0
 13 45  1  0
 14 46  1  0
 15 47  1  0
 16 48  1  0
 17 49  1  0
 20 50  1  0
 21 51  1  6
 22 52  1  0
 22 53  1  0
 23 54  1  0
 24 55  1  0
 24 56  1  0
 24 57  1  0
 25 58  1  0
 25 59  1  0
 25 60  1  0
 27 61  1  0
 27 62  1  0
M  END
$$$$
[H]Oc1c([H])c([H])c(C([H])([H])[C@]([H])(C(=O)N2C([H])([H])C([H])([H])C([H])([H])[C@@]2([H])C(=O)N([H])[C@]([H])(C(=O)N([H])[H])C([H])([H])[H])N([H])C(=O)[C@@]2([H])N(C(=O)[C@@]([H])(N([H])[H])C([H])([H])c3c([H])c([H])c([H])c([H])c3[H])C([H])([H])C([H])([H])C2([H])[H])c([H])c1[H]
     RDKit          3D

 83 86  0  0  0  0  0  0  0  0999 V2000
   -7.4822   -3.0581   -1.0859 C   0  0  0  0  0  0  0  0  0  0  0  0
   -7.2545   -1.5583   -1.2482 C   0  0  2  0  0  0  0  0  0  0  0  0
   -6.5371   -1.0158   -0.1189 N   0  0  0  0  0  0  0  0  0  0  0  0
   -5.2596   -0.4284   -0.2189 C   0  0  0  0  0  0  0  0  0  0  0  0
   -4.7349   -0.3833   -1.3747 O   0  0  0  0  0  0  0  0  0  0  0  0
   -4.5933    0.1002    0.9983 C   0  0  2  0  0  0  0  0  0  0  0  0
   -5.3374    1.3185    1.4731 C   0  0  0  0  0  0  0  0  0  0  0  0
   -4.4716    2.5073    1.1315 C   0  0  0  0  0  0  0  0  0  0  0  0
   -3.4411    1.9339    0.2045 C   0  0  0  0  0  0  0  0  0  0  0  0
   -3.2406    0.5918    0.6779 N   0  0  0  0  0  0  0  0  0  0  0  0
   -2.0344   -0.1756    0.8053 C   0  0  0  0  0  0  0  0  0  0  0  0
   -2.2121   -1.3788    1.2281 O   0  0  0  0  0  0  0  0  0  0  0  0
   -0.6849    0.2833    0.5013 C   0  0  1  0  0  0  0  0  0  0  0  0
    0.1226    0.7116    1.7139 C   0  0  0  0  0  0  0  0  0  0  0  0
   -0.4492    1.8190    2.4831 C   0  0  0  0  0  0  0  0  0  0  0  0
   -1.2975    1.6113    3.5481 C   0  0  0  0  0  0  0  0  0  0  0  0
   -1.8199    2.6790    4.2791 C   0  0  0  0  0  0  0  0  0  0  0  0
   -1.5017    3.9824    3.9564 C   0  0  0  0  0  0  0  0  0  0  0  0
   -2.0379    5.0460    4.7043 O   0  0  0  0  0  0  0  0  0  0  0  0
   -0.6582    4.1984    2.8967 C   0  0  0  0  0  0  0  0  0  0  0  0
   -0.1453    3.1409    2.1788 C   0  0  0  0  0  0  0  0  0  0  0  0
    0.1136   -0.7899   -0.1118 N   0  0  0  0  0  0  0  0  0  0  0  0
    0.9406   -0.5800   -1.2573 C   0  0  0  0  0  0  0  0  0  0  0  0
    0.9773    0.5773   -1.7325 O   0  0  0  0  0  0  0  0  0  0  0  0
    1.6672   -1.6966   -1.7798 C   0  0  2  0  0  0  0  0  0  0  0  0
    1.3886   -3.0491   -1.2007 C   0  0  0  0  0  0  0  0  0  0  0  0
    2.4789   -3.8649   -1.9238 C   0  0  0  0  0  0  0  0  0  0  0  0
    3.4713   -2.8212   -2.4560 C   0  0  0  0  0  0  0  0  0  0  0  0
    3.1302   -1.6784   -1.6460 N   0  0  0  0  0  0  0  0  0  0  0  0
    3.9463   -0.8323   -0.9226 C   0  0  0  0  0  0  0  0  0  0  0  0
    3.3345    0.0972   -0.2466 O   0  0  0  0  0  0  0  0  0  0  0  0
    5.4031   -0.7897   -0.7699 C   0  0  1  0  0  0  0  0  0  0  0  0
    6.1806   -1.6334   -1.5961 N   0  0  0  0  0  0  0  0  0  0  0  0
    5.9454    0.6275   -0.9070 C   0  0  0  0  0  0  0  0  0  0  0  0
    7.4195    0.6457   -0.7382 C   0  0  0  0  0  0  0  0  0  0  0  0
    8.0032    0.8203    0.5044 C   0  0  0  0  0  0  0  0  0  0  0  0
    9.3821    0.8341    0.6613 C   0  0  0  0  0  0  0  0  0  0  0  0
   10.1799    0.6732   -0.4287 C   0  0  0  0  0  0  0  0  0  0  0  0
    9.6316    0.4972   -1.6768 C   0  0  0  0  0  0  0  0  0  0  0  0
    8.2537    0.4853   -1.8194 C   0  0  0  0  0  0  0  0  0  0  0  0
   -8.5761   -0.9015   -1.3555 C   0  0  0  0  0  0  0  0  0  0  0  0
   -9.5022   -1.2280   -2.3655 N   0  0  0  0  0  0  0  0  0  0  0  0
   -8.8920   -0.0172   -0.5177 O   0  0  0  0  0  0  0  0  0  0  0  0
   -6.7045   -3.6466   -1.6497 H   0  0  0  0  0  0  0  0  0  0  0  0
   -7.4890   -3.3474   -0.0051 H   0  0  0  0  0  0  0  0  0  0  0  0
   -8.4648   -3.2999   -1.5181 H   0  0  0  0  0  0  0  0  0  0  0  0
   -6.6926   -1.4356   -2.1998 H   0  0  0  0  0  0  0  0  0  0  0  0
   -6.9935   -1.0618    0.8145 H   0  0  0  0  0  0  0  0  0  0  0  0
   -4.5296   -0.6847    1.7905 H   0  0  0  0  0  0  0  0  0  0  0  0
   -5.5552    1.2742    2.5654 H   0  0  0  0  0  0  0  0  0  0  0  0
   -6.3175    1.4636    0.9482 H   0  0  0  0  0  0  0  0  0  0  0  0
   -5.0717    3.3151    0.6388 H   0  0  0  0  0  0  0  0  0  0  0  0
   -4.0305    2.8685    2.0849 H   0  0  0  0  0  0  0  0  0  0  0  0
   -2.5038    2.5327    0.1816 H   0  0  0  0  0  0  0  0  0  0  0  0
   -3.9167    1.9047   -0.8155 H   0  0  0  0  0  0  0  0  0  0  0  0
   -0.6839    1.1213   -0.1816 H   0  0  0  0  0  0  0  0  0  0  0  0
    1.0983    1.0938    1.2913 H   0  0  0  0  0  0  0  0  0  0  0  0
    0.4101   -0.1536    2.3407 H   0  0  0  0  0  0  0  0  0  0  0  0
   -1.5961    0.6160    3.8658 H   0  0  0  0  0  0  0  0  0  0  0  0
   -2.4895    2.5305    5.1190 H   0  0  0  0  0  0  0  0  0  0  0  0
   -1.4862    5.3534    5.5178 H   0  0  0  0  0  0  0  0  0  0  0  0
   -0.3923    5.2057    2.6172 H   0  0  0  0  0  0  0  0  0  0  0  0
    0.5294    3.3376    1.3375 H   0  0  0  0  0  0  0  0  0  0  0  0
    0.0276   -1.7124    0.3569 H   0  0  0  0  0  0  0  0  0  0  0  0
    1.5107   -1.7349   -2.8959 H   0  0  0  0  0  0  0  0  0  0  0  0
    1.6026   -3.0281   -0.1121 H   0  0  0  0  0  0  0  0  0  0  0  0
    0.3810   -3.4260   -1.4223 H   0  0  0  0  0  0  0  0  0  0  0  0
    1.9716   -4.3048   -2.7927 H   0  0  0  0  0  0  0  0  0  0  0  0
    2.9298   -4.5674   -1.2237 H   0  0  0  0  0  0  0  0  0  0  0  0
    4.4807   -3.1798   -2.4319 H   0  0  0  0  0  0  0  0  0  0  0  0
    3.2304   -2.6110   -3.5374 H   0  0  0  0  0  0  0  0  0  0  0  0
    5.5912   -1.1314    0.3063 H   0  0  0  0  0  0  0  0  0  0  0  0
    6.1832   -1.4568   -2.6003 H   0  0  0  0  0  0  0  0  0  0  0  0
    6.9945   -2.0892   -1.1774 H   0  0  0  0  0  0  0  0  0  0  0  0
    5.6713    1.1204   -1.8354 H   0  0  0  0  0  0  0  0  0  0  0  0
    5.5349    1.2008   -0.0244 H   0  0  0  0  0  0  0  0  0  0  0  0
    7.3935    0.9490    1.3727 H   0  0  0  0  0  0  0  0  0  0  0  0
    9.8488    0.9698    1.6360 H   0  0  0  0  0  0  0  0  0  0  0  0
   11.2473    0.6838   -0.3220 H   0  0  0  0  0  0  0  0  0  0  0  0
   10.3149    0.3733   -2.5066 H   0  0  0  0  0  0  0  0  0  0  0  0
    7.8439    0.3465   -2.8102 H   0  0  0  0  0  0  0  0  0  0  0  0
   -9.7750   -0.5137   -3.0622 H   0  0  0  0  0  0  0  0  0  0  0  0
   -9.9097   -2.1760   -2.4150 H   0  0  0  0  0  0  0  0  0  0  0  0
  1  2  1  0
  2  3  1  0
  3  4  1  0
  4  5  2  0
  4  6  1  0
  6  7  1  0
  7  8  1  0
  8  9  1  0
  9 10  1  0
 10 11  1  0
 11 12  2  0
 11 13  1  0
 13 14  1  0
 14 15  1  0
 15 16  2  0
 16 17  1  0
 17 18  2  0
 18 19  1  0
 18 20  1  0
 20 21  2  0
 13 22  1  0
 22 23  1  0
 23 24  2  0
 23 25  1  0
 25 26  1  0
 26 27  1  0
 27 28  1  0
 28 29  1  0
 29 30  1  0
 30 31  2  0
 30 32  1  0
 32 33  1  0
 32 34  1  0
 34 35  1  0
 35 36  2  0
 36 37  1  0
 37 38  2  0
 38 39  1  0
 39 40  2  0
  2 41  1  0
 41 42  1  0
 41 43  2  0
 10  6  1  0
 21 15  1  0
 29 25  1  0
 40 35  1  0
  1 44  1  0
  1 45  1  0
  1 46  1  0
  2 47  1  6
  3 48  1  0
  6 49  1  1
  7 50  1  0
  7 51  1  0
  8 52  1  0
  8 53  1  0
  9 54  1  0
  9 55  1  0
 13 56  1  6
 14 57  1  0
 14 58  1  0
 16 59  1  0
 17 60  1  0
 19 61  1  0
 20 62  1  0
 21 63  1  0
 22 64  1  0
 25 65  1  6
 26 66  1  0
 26 67  1  0
 27 68  1  0
 27 69  1  0
 28 70  1  0
 28 71  1  0
 32 72  1  1
 33 73  1  0
 33 74  1  0
 34 75  1  0
 34 76  1  0
 36 77  1  0
 37 78  1  0
 38 79  1  0
 39 80  1  0
 40 81  1  0
 42 82  1  0
 42 83  1  0
M  END
$$$$
[H]OC(=O)c1c([H])c([H])c([H])c(N([H])C(=O)c2c([H])c([H])c(-c3c([H])c([H])c(OC([H])([H])[H])c(OC([H])([H])[H])c3[H])c([H])c2[H])c1[H]
     RDKit          3D

 47 49  0  0  0  0  0  0  0  0999 V2000
   -8.1747   -0.6116    0.0188 C   0  0  0  0  0  0  0  0  0  0  0  0
   -7.2464    0.4311    0.1703 O   0  0  0  0  0  0  0  0  0  0  0  0
   -5.8694    0.1688    0.0828 C   0  0  0  0  0  0  0  0  0  0  0  0
   -5.3934   -1.1023   -0.1515 C   0  0  0  0  0  0  0  0  0  0  0  0
   -4.0539   -1.3225   -0.2306 C   0  0  0  0  0  0  0  0  0  0  0  0
   -3.1217   -0.3134   -0.0848 C   0  0  0  0  0  0  0  0  0  0  0  0
   -3.6330    0.9590    0.1508 C   0  0  0  0  0  0  0  0  0  0  0  0
   -4.9792    1.2105    0.2355 C   0  0  0  0  0  0  0  0  0  0  0  0
   -5.4843    2.4688    0.4684 O   0  0  0  0  0  0  0  0  0  0  0  0
   -4.7225    3.6319    0.6461 C   0  0  0  0  0  0  0  0  0  0  0  0
   -1.6899   -0.5559   -0.1709 C   0  0  0  0  0  0  0  0  0  0  0  0
   -1.2245   -1.5504   -1.0013 C   0  0  0  0  0  0  0  0  0  0  0  0
    0.1306   -1.7968   -1.0972 C   0  0  0  0  0  0  0  0  0  0  0  0
    1.0571   -1.0614   -0.3704 C   0  0  0  0  0  0  0  0  0  0  0  0
    0.5928   -0.0749    0.4533 C   0  0  0  0  0  0  0  0  0  0  0  0
   -0.7873    0.1809    0.5551 C   0  0  0  0  0  0  0  0  0  0  0  0
    2.4967   -1.3838   -0.5158 C   0  0  0  0  0  0  0  0  0  0  0  0
    2.7772   -2.4986   -1.0633 O   0  0  0  0  0  0  0  0  0  0  0  0
    3.4989   -0.5080   -0.0744 N   0  0  0  0  0  0  0  0  0  0  0  0
    4.8765   -0.6726   -0.1359 C   0  0  0  0  0  0  0  0  0  0  0  0
    5.5173   -1.8035   -0.4944 C   0  0  0  0  0  0  0  0  0  0  0  0
    6.9123   -1.9033   -0.5481 C   0  0  0  0  0  0  0  0  0  0  0  0
    7.6793   -0.8106   -0.2243 C   0  0  0  0  0  0  0  0  0  0  0  0
    7.0623    0.3674    0.1486 C   0  0  0  0  0  0  0  0  0  0  0  0
    5.6956    0.4234    0.1882 C   0  0  0  0  0  0  0  0  0  0  0  0
    7.8998    1.5310    0.4932 C   0  0  0  0  0  0  0  0  0  0  0  0
    7.3456    2.7373    0.8731 O   0  0  0  0  0  0  0  0  0  0  0  0
    9.1535    1.4528    0.4490 O   0  0  0  0  0  0  0  0  0  0  0  0
   -8.2251   -1.0241   -1.0031 H   0  0  0  0  0  0  0  0  0  0  0  0
   -9.1895   -0.2096    0.2824 H   0  0  0  0  0  0  0  0  0  0  0  0
   -7.9958   -1.4515    0.7233 H   0  0  0  0  0  0  0  0  0  0  0  0
   -6.0649   -1.9260   -0.2735 H   0  0  0  0  0  0  0  0  0  0  0  0
   -3.6209   -2.3192   -0.4157 H   0  0  0  0  0  0  0  0  0  0  0  0
   -2.9438    1.7826    0.2722 H   0  0  0  0  0  0  0  0  0  0  0  0
   -3.7686    3.6407    0.1069 H   0  0  0  0  0  0  0  0  0  0  0  0
   -4.5353    3.7492    1.7482 H   0  0  0  0  0  0  0  0  0  0  0  0
   -5.3427    4.5208    0.3477 H   0  0  0  0  0  0  0  0  0  0  0  0
   -1.9490   -2.1190   -1.5643 H   0  0  0  0  0  0  0  0  0  0  0  0
    0.4952   -2.5805   -1.7518 H   0  0  0  0  0  0  0  0  0  0  0  0
    1.2906    0.5109    1.0345 H   0  0  0  0  0  0  0  0  0  0  0  0
   -1.1124    0.9711    1.2190 H   0  0  0  0  0  0  0  0  0  0  0  0
    3.1347    0.4004    0.3612 H   0  0  0  0  0  0  0  0  0  0  0  0
    5.0024   -2.7023   -0.7545 H   0  0  0  0  0  0  0  0  0  0  0  0
    7.4157   -2.8101   -0.8356 H   0  0  0  0  0  0  0  0  0  0  0  0
    8.7698   -0.8655   -0.2592 H   0  0  0  0  0  0  0  0  0  0  0  0
    5.2600    1.3739    0.4880 H   0  0  0  0  0  0  0  0  0  0  0  0
    7.0641    3.4650    0.2298 H   0  0  0  0  0  0  0  0  0  0  0  0
  1  2  1  0
  2  3  1  0
  3  4  2  0
  4  5  1  0
  5  6  2  0
  6  7  1  0
  7  8  2  0
  8  9  1  0
  9 10  1  0
  6 11  1  0
 11 12  2  0
 12 13  1  0
 13 14  2  0
 14 15  1  0
 15 16  2  0
 14 17  1  0
 17 18  2  0
 17 19  1  0
 19 20  1  0
 20 21  2  0
 21 22  1  0
 22 23  2  0
 23 24  1  0
 24 25  2  0
 24 26  1  0
 26 27  1  0
 26 28  2  0
  8  3  1  0
 16 11  1  0
 25 20  1  0
  1 29  1  0
  1 30  1  0
  1 31  1  0
  4 32  1  0
  5 33  1  0
  7 34  1  0
 10 35  1  0
 10 36  1  0
 10 37  1  0
 12 38  1  0
 13 39  1  0
 15 40  1  0
 16 41  1  0
 19 42  1  0
 21 43  1  0
 22 44  1  0
 23 45  1  0
 25 46  1  0
 27 47  1  0
M  END
$$$$
[H]c1c([H])c(-c2nc(C(F)(F)F)c([H])n2[H])c([H])c([H])c1C(=O)N([H])[C@]([H])(c1c([H])c([H])c(S(=O)(=O)N2C([H])([H])C([H])([H])N(C([H])([H])[H])C([H])([H])C2([H])[H])c([H])c1[H])C([H])([H])C([H])(C([H])([H])[H])C([H])([H])[H]
     RDKit          3D

 71 74  0  0  0  0  0  0  0  0999 V2000
    0.6604   -5.0993    0.9767 C   0  0  0  0  0  0  0  0  0  0  0  0
    0.1808   -3.8889    0.1208 C   0  0  0  0  0  0  0  0  0  0  0  0
    0.7292   -4.1210   -1.2988 C   0  0  0  0  0  0  0  0  0  0  0  0
    0.8383   -2.6969    0.7158 C   0  0  0  0  0  0  0  0  0  0  0  0
    0.5925   -1.4166   -0.0689 C   0  0  2  0  0  0  0  0  0  0  0  0
    1.3993   -0.3726    0.3807 N   0  0  0  0  0  0  0  0  0  0  0  0
    2.0748    0.5527    0.7942 C   0  0  0  0  0  0  0  0  0  0  0  0
    1.5901    1.4932    1.9123 O   0  0  0  0  0  0  0  0  0  0  0  0
    3.4352    1.0885    0.5134 C   0  0  0  0  0  0  0  0  0  0  0  0
    4.1055    1.9372    1.4080 C   0  0  0  0  0  0  0  0  0  0  0  0
    5.3904    2.3595    1.0603 C   0  0  0  0  0  0  0  0  0  0  0  0
    5.9902    1.9378   -0.1674 C   0  0  0  0  0  0  0  0  0  0  0  0
    5.2476    1.1723   -0.9005 C   0  0  0  0  0  0  0  0  0  0  0  0
    4.0012    0.6800   -0.7160 C   0  0  0  0  0  0  0  0  0  0  0  0
    7.3964    2.4444   -0.3038 C   0  0  0  0  0  0  0  0  0  0  0  0
    8.3253    1.5772   -0.7904 N   0  0  0  0  0  0  0  0  0  0  0  0
    9.5658    2.1619   -0.5204 C   0  0  0  0  0  0  0  0  0  0  0  0
    9.2760    3.4012    0.1401 C   0  0  0  0  0  0  0  0  0  0  0  0
    7.9323    3.4772    0.2131 N   0  0  0  0  0  0  0  0  0  0  0  0
   10.9014    1.5532   -0.7357 C   0  0  0  0  0  0  0  0  0  0  0  0
   10.9069    0.4766    0.1901 F   0  0  0  0  0  0  0  0  0  0  0  0
   11.8409    2.4630   -0.3711 F   0  0  0  0  0  0  0  0  0  0  0  0
   11.0173    1.0089   -1.9807 F   0  0  0  0  0  0  0  0  0  0  0  0
   -0.8223   -1.0482   -0.2257 C   0  0  0  0  0  0  0  0  0  0  0  0
   -1.6627   -1.1366    0.8494 C   0  0  0  0  0  0  0  0  0  0  0  0
   -2.9908   -1.0953    0.6485 C   0  0  0  0  0  0  0  0  0  0  0  0
   -3.5248   -0.9683   -0.6906 C   0  0  0  0  0  0  0  0  0  0  0  0
   -2.7025   -0.8616   -1.6781 C   0  0  0  0  0  0  0  0  0  0  0  0
   -1.3357   -0.8981   -1.5404 C   0  0  0  0  0  0  0  0  0  0  0  0
   -5.2918   -1.1345   -0.7112 S   0  0  0  0  0  0  0  0  0  0  0  0
   -5.4932   -2.0719   -2.0101 O   0  0  0  0  0  0  0  0  0  0  0  0
   -5.8676   -1.9584    0.3430 O   0  0  0  0  0  0  0  0  0  0  0  0
   -6.0982    0.2449   -1.2038 N   0  0  0  0  0  0  0  0  0  0  0  0
   -5.8002    1.3724   -0.2867 C   0  0  0  0  0  0  0  0  0  0  0  0
   -6.6521    2.5348   -0.7363 C   0  0  0  0  0  0  0  0  0  0  0  0
   -7.9824    2.2949   -0.1325 N   0  0  0  0  0  0  0  0  0  0  0  0
   -8.0443    3.0504    1.0904 C   0  0  0  0  0  0  0  0  0  0  0  0
   -8.1559    0.8893    0.1432 C   0  0  0  0  0  0  0  0  0  0  0  0
   -7.6142   -0.0168   -0.8860 C   0  0  0  0  0  0  0  0  0  0  0  0
    1.2268   -4.7518    1.8264 H   0  0  0  0  0  0  0  0  0  0  0  0
    1.3879   -5.7207    0.3787 H   0  0  0  0  0  0  0  0  0  0  0  0
   -0.1773   -5.7552    1.2353 H   0  0  0  0  0  0  0  0  0  0  0  0
   -0.8983   -3.9310    0.1301 H   0  0  0  0  0  0  0  0  0  0  0  0
    0.6871   -5.1932   -1.5365 H   0  0  0  0  0  0  0  0  0  0  0  0
    1.8354   -3.8826   -1.3214 H   0  0  0  0  0  0  0  0  0  0  0  0
    0.1285   -3.5915   -2.0324 H   0  0  0  0  0  0  0  0  0  0  0  0
    0.1908   -2.5323    1.6827 H   0  0  0  0  0  0  0  0  0  0  0  0
    1.8270   -2.8297    1.1062 H   0  0  0  0  0  0  0  0  0  0  0  0
    0.9074   -1.6624   -1.1812 H   0  0  0  0  0  0  0  0  0  0  0  0
    2.5192   -1.1895    0.2519 H   0  0  0  0  0  0  0  0  0  0  0  0
    3.6842    2.1407    2.3158 H   0  0  0  0  0  0  0  0  0  0  0  0
    5.9226    2.9940    1.7358 H   0  0  0  0  0  0  0  0  0  0  0  0
    5.6935    0.8718   -1.9387 H   0  0  0  0  0  0  0  0  0  0  0  0
    3.3894    0.0757   -1.3775 H   0  0  0  0  0  0  0  0  0  0  0  0
   10.0223    4.0977    0.4067 H   0  0  0  0  0  0  0  0  0  0  0  0
    7.4180    4.3360    0.6014 H   0  0  0  0  0  0  0  0  0  0  0  0
   -1.2012   -1.1913    1.8098 H   0  0  0  0  0  0  0  0  0  0  0  0
   -3.6763   -1.1520    1.4766 H   0  0  0  0  0  0  0  0  0  0  0  0
   -3.0883   -0.6807   -2.6937 H   0  0  0  0  0  0  0  0  0  0  0  0
   -0.6162   -0.7360   -2.3509 H   0  0  0  0  0  0  0  0  0  0  0  0
   -5.6938    1.1333    0.7448 H   0  0  0  0  0  0  0  0  0  0  0  0
   -4.7466    1.6527   -0.6825 H   0  0  0  0  0  0  0  0  0  0  0  0
   -6.2081    3.4620   -0.4936 H   0  0  0  0  0  0  0  0  0  0  0  0
   -6.8084    2.4117   -1.8477 H   0  0  0  0  0  0  0  0  0  0  0  0
   -7.8388    4.1482    0.8945 H   0  0  0  0  0  0  0  0  0  0  0  0
   -7.2487    2.7499    1.7895 H   0  0  0  0  0  0  0  0  0  0  0  0
   -9.0603    2.9814    1.5125 H   0  0  0  0  0  0  0  0  0  0  0  0
   -9.2511    0.7509    0.1281 H   0  0  0  0  0  0  0  0  0  0  0  0
   -7.8925    0.6335    1.1998 H   0  0  0  0  0  0  0  0  0  0  0  0
   -8.1346    0.0345   -1.8438 H   0  0  0  0  0  0  0  0  0  0  0  0
   -7.6589   -1.0605   -0.4769 H   0  0  0  0  0  0  0  0  0  0  0  0
  1  2  1  0
  2  3  1  0
  2  4  1  0
  4  5  1  0
  5  6  1  0
  6  7  1  0
  7  8  2  0
  7  9  1  0
  9 10  2  0
 10 11  1  0
 11 12  2  0
 12 13  1  0
 13 14  2  0
 12 15  1  0
 15 16  2  0
 16 17  1  0
 17 18  2  0
 18 19  1  0
 17 20  1  0
 20 21  1  0
 20 22  1  0
 20 23  1  0
  5 24  1  0
 24 25  2  0
 25 26  1  0
 26 27  2  0
 27 28  1  0
 28 29  2  0
 27 30  1  0
 30 31  2  0
 30 32  2  0
 30 33  1  0
 33 34  1  0
 34 35  1  0
 35 36  1  0
 36 37  1  0
 36 38  1  0
 38 39  1  0
 14  9  1  0
 19 15  1  0
 29 24  1  0
 39 33  1  0
  1 40  1  0
  1 41  1  0
  1 42  1  0
  2 43  1  0
  3 44  1  0
  3 45  1  0
  3 46  1  0
  4 47  1  0
  4 48  1  0
  5 49  1  6
  6 50  1  0
 10 51  1  0
 11 52  1  0
 13 53  1  0
 14 54  1  0
 18 55  1  0
 19 56  1  0
 25 57  1  0
 26 58  1  0
 28 59  1  0
 29 60  1  0
 34 61  1  0
 34 62  1  0
 35 63  1  0
 35 64  1  0
 37 65  1  0
 37 66  1  0
 37 67  1  0
 38 68  1  0
 38 69  1  0
 39 70  1  0
 39 71  1  0
M  END
$$$$
[H]c1nc([H])c(N([H])C(=O)N([H])[C@]2([H])C([H])([H])C([H])([H])[C@]([H])(N([H])C(=O)N([H])c3c([H])c([H])c(C(F)(F)F)c([H])c3[H])C([H])([H])C2([H])[H])c([H])c1[H]
     RDKit          3D

 52 54  0  0  0  0  0  0  0  0999 V2000
   -9.8916   -1.8240    0.6003 F   0  0  0  0  0  0  0  0  0  0  0  0
   -9.6162   -1.1127   -0.5517 C   0  0  0  0  0  0  0  0  0  0  0  0
  -10.4982   -0.0952   -0.7343 F   0  0  0  0  0  0  0  0  0  0  0  0
   -9.6148   -1.9822   -1.6393 F   0  0  0  0  0  0  0  0  0  0  0  0
   -8.2050   -0.6493   -0.4208 C   0  0  0  0  0  0  0  0  0  0  0  0
   -7.8803    0.6917   -0.4145 C   0  0  0  0  0  0  0  0  0  0  0  0
   -6.5502    1.0276   -0.2984 C   0  0  0  0  0  0  0  0  0  0  0  0
   -5.5624    0.0380   -0.1922 C   0  0  0  0  0  0  0  0  0  0  0  0
   -4.2296    0.5064   -0.0614 N   0  0  0  0  0  0  0  0  0  0  0  0
   -3.1180   -0.2270   -0.5041 C   0  0  0  0  0  0  0  0  0  0  0  0
   -3.2088   -1.3435   -1.0801 O   0  0  0  0  0  0  0  0  0  0  0  0
   -1.7910    0.2591   -0.3233 N   0  0  0  0  0  0  0  0  0  0  0  0
   -0.6379   -0.4945   -0.7874 C   0  0  2  0  0  0  0  0  0  0  0  0
    0.0288   -1.0644    0.4476 C   0  0  0  0  0  0  0  0  0  0  0  0
    1.4841   -1.3827    0.2032 C   0  0  0  0  0  0  0  0  0  0  0  0
    2.2575   -0.2445   -0.3576 C   0  0  1  0  0  0  0  0  0  0  0  0
    1.2963    0.9357   -0.5561 C   0  0  0  0  0  0  0  0  0  0  0  0
    0.2506    0.4243   -1.5570 C   0  0  0  0  0  0  0  0  0  0  0  0
    3.3986    0.1410    0.4040 N   0  0  0  0  0  0  0  0  0  0  0  0
    4.7298    0.2291   -0.1732 C   0  0  0  0  0  0  0  0  0  0  0  0
    4.7724   -0.0612   -1.3869 O   0  0  0  0  0  0  0  0  0  0  0  0
    5.8238    0.6118    0.6042 N   0  0  0  0  0  0  0  0  0  0  0  0
    7.1548    0.7597    0.2176 C   0  0  0  0  0  0  0  0  0  0  0  0
    8.1143    1.1851    1.1552 C   0  0  0  0  0  0  0  0  0  0  0  0
    9.4414    1.3566    0.8525 C   0  0  0  0  0  0  0  0  0  0  0  0
    9.8539    1.0980   -0.4430 C   0  0  0  0  0  0  0  0  0  0  0  0
    8.9516    0.6968   -1.3290 N   0  0  0  0  0  0  0  0  0  0  0  0
    7.6250    0.5185   -1.0513 C   0  0  0  0  0  0  0  0  0  0  0  0
   -5.9272   -1.2742   -0.2019 C   0  0  0  0  0  0  0  0  0  0  0  0
   -7.2490   -1.6279   -0.3170 C   0  0  0  0  0  0  0  0  0  0  0  0
   -8.6513    1.4584   -0.4996 H   0  0  0  0  0  0  0  0  0  0  0  0
   -6.3129    2.0827   -0.2973 H   0  0  0  0  0  0  0  0  0  0  0  0
   -4.0787    1.4355    0.3861 H   0  0  0  0  0  0  0  0  0  0  0  0
   -1.6629    1.1653    0.1531 H   0  0  0  0  0  0  0  0  0  0  0  0
   -1.0320   -1.3284   -1.4279 H   0  0  0  0  0  0  0  0  0  0  0  0
   -0.1553   -0.4309    1.3330 H   0  0  0  0  0  0  0  0  0  0  0  0
   -0.4782   -2.0310    0.6501 H   0  0  0  0  0  0  0  0  0  0  0  0
    1.9230   -1.6670    1.1903 H   0  0  0  0  0  0  0  0  0  0  0  0
    1.5548   -2.3083   -0.4209 H   0  0  0  0  0  0  0  0  0  0  0  0
    2.6130   -0.5068   -1.3822 H   0  0  0  0  0  0  0  0  0  0  0  0
    1.8127    1.8359   -0.8983 H   0  0  0  0  0  0  0  0  0  0  0  0
    0.7286    1.1487    0.3841 H   0  0  0  0  0  0  0  0  0  0  0  0
    0.8312   -0.1550   -2.3156 H   0  0  0  0  0  0  0  0  0  0  0  0
   -0.2815    1.2613   -2.0486 H   0  0  0  0  0  0  0  0  0  0  0  0
    3.2856    0.3683    1.4111 H   0  0  0  0  0  0  0  0  0  0  0  0
    5.6010    0.8174    1.6379 H   0  0  0  0  0  0  0  0  0  0  0  0
    7.7971    1.3893    2.1716 H   0  0  0  0  0  0  0  0  0  0  0  0
   10.1411    1.6841    1.6084 H   0  0  0  0  0  0  0  0  0  0  0  0
   10.8981    1.2372   -0.6458 H   0  0  0  0  0  0  0  0  0  0  0  0
    6.9939    0.1872   -1.8613 H   0  0  0  0  0  0  0  0  0  0  0  0
   -5.1842   -2.0633   -0.1043 H   0  0  0  0  0  0  0  0  0  0  0  0
   -7.5458   -2.6766   -0.3237 H   0  0  0  0  0  0  0  0  0  0  0  0
  1  2  1  0
  2  3  1  0
  2  4  1  0
  2  5  1  0
  5  6  2  0
  6  7  1  0
  7  8  2  0
  8  9  1  0
  9 10  1  0
 10 11  2  0
 10 12  1  0
 12 13  1  0
 13 14  1  0
 14 15  1  0
 15 16  1  0
 16 17  1  0
 17 18  1  0
 16 19  1  0
 19 20  1  0
 20 21  2  0
 20 22  1  0
 22 23  1  0
 23 24  2  0
 24 25  1  0
 25 26  2  0
 26 27  1  0
 27 28  2  0
  8 29  1  0
 29 30  2  0
 30  5  1  0
 18 13  1  0
 28 23  1  0
  6 31  1  0
  7 32  1  0
  9 33  1  0
 12 34  1  0
 13 35  1  6
 14 36  1  0
 14 37  1  0
 15 38  1  0
 15 39  1  0
 16 40  1  6
 17 41  1  0
 17 42  1  0
 18 43  1  0
 18 44  1  0
 19 45  1  0
 22 46  1  0
 24 47  1  0
 25 48  1  0
 26 49  1  0
 28 50  1  0
 29 51  1  0
 30 52  1  0
M  END
$$$$
[H]c1nc(N([H])c2c([H])c([H])c(N3C([H])([H])C([H])([H])C([H])([H])C3([H])[H])c([H])c2OC([H])([H])[H])nc(N([H])c2c([H])c([H])c([H])c([H])c2S(=O)(=O)C([H])(C([H])([H])[H])C([H])([H])[H])c1Cl
     RDKit          3D

 62 65  0  0  0  0  0  0  0  0999 V2000
    3.2096   -2.0609    2.6947 C   0  0  0  0  0  0  0  0  0  0  0  0
    2.4224   -1.4133    1.7127 O   0  0  0  0  0  0  0  0  0  0  0  0
    2.9677   -0.3618    0.9953 C   0  0  0  0  0  0  0  0  0  0  0  0
    4.2572    0.0530    1.2291 C   0  0  0  0  0  0  0  0  0  0  0  0
    4.8235    1.0886    0.5366 C   0  0  0  0  0  0  0  0  0  0  0  0
    4.0752    1.7161   -0.4079 C   0  0  0  0  0  0  0  0  0  0  0  0
    2.7540    1.2879   -0.6446 C   0  0  0  0  0  0  0  0  0  0  0  0
    2.1664    0.2666    0.0243 C   0  0  0  0  0  0  0  0  0  0  0  0
    0.8696   -0.1802   -0.1856 N   0  0  0  0  0  0  0  0  0  0  0  0
   -0.1084    0.2853   -1.0961 C   0  0  0  0  0  0  0  0  0  0  0  0
    0.0610    1.2910   -1.9564 N   0  0  0  0  0  0  0  0  0  0  0  0
   -0.8873    1.7043   -2.8056 C   0  0  0  0  0  0  0  0  0  0  0  0
   -2.1134    1.0929   -2.8294 C   0  0  0  0  0  0  0  0  0  0  0  0
   -3.3915    1.5675   -3.9002 Cl  0  0  0  0  0  0  0  0  0  0  0  0
   -2.3447    0.0208   -1.9370 C   0  0  0  0  0  0  0  0  0  0  0  0
   -3.6191   -0.5623   -1.9497 N   0  0  0  0  0  0  0  0  0  0  0  0
   -4.0331   -1.6625   -1.1801 C   0  0  0  0  0  0  0  0  0  0  0  0
   -3.0825   -2.5500   -0.6621 C   0  0  0  0  0  0  0  0  0  0  0  0
   -3.4800   -3.7098   -0.0047 C   0  0  0  0  0  0  0  0  0  0  0  0
   -4.8200   -3.9597    0.1206 C   0  0  0  0  0  0  0  0  0  0  0  0
   -5.7733   -3.1221   -0.3685 C   0  0  0  0  0  0  0  0  0  0  0  0
   -5.4002   -1.9313   -1.0412 C   0  0  0  0  0  0  0  0  0  0  0  0
   -6.6384   -0.8507   -1.5489 S   0  0  0  0  0  0  0  0  0  0  0  0
   -7.9900   -1.6248   -1.4519 O   0  0  0  0  0  0  0  0  0  0  0  0
   -6.4774   -0.4460   -2.9853 O   0  0  0  0  0  0  0  0  0  0  0  0
   -6.8303    0.5130   -0.4913 C   0  0  0  0  0  0  0  0  0  0  0  0
   -7.3705    0.0426    0.8690 C   0  0  0  0  0  0  0  0  0  0  0  0
   -5.5901    1.2834   -0.2036 C   0  0  0  0  0  0  0  0  0  0  0  0
   -1.3250   -0.2996   -1.1400 N   0  0  0  0  0  0  0  0  0  0  0  0
    6.1674    1.4448    0.8462 N   0  0  0  0  0  0  0  0  0  0  0  0
    6.8682    2.5381    0.1883 C   0  0  0  0  0  0  0  0  0  0  0  0
    8.2520    2.5587    0.7521 C   0  0  0  0  0  0  0  0  0  0  0  0
    8.4449    1.1679    1.3147 C   0  0  0  0  0  0  0  0  0  0  0  0
    7.0530    0.8320    1.8113 C   0  0  0  0  0  0  0  0  0  0  0  0
    4.0894   -2.5362    2.1987 H   0  0  0  0  0  0  0  0  0  0  0  0
    2.6755   -2.8565    3.2164 H   0  0  0  0  0  0  0  0  0  0  0  0
    3.5743   -1.2577    3.3766 H   0  0  0  0  0  0  0  0  0  0  0  0
    4.8446   -0.4612    1.9910 H   0  0  0  0  0  0  0  0  0  0  0  0
    4.5234    2.5305   -0.9509 H   0  0  0  0  0  0  0  0  0  0  0  0
    2.2714    1.8655   -1.4148 H   0  0  0  0  0  0  0  0  0  0  0  0
    0.5351   -1.0076    0.4279 H   0  0  0  0  0  0  0  0  0  0  0  0
   -0.7109    2.5334   -3.4969 H   0  0  0  0  0  0  0  0  0  0  0  0
   -4.3140   -0.1463   -2.6066 H   0  0  0  0  0  0  0  0  0  0  0  0
   -2.0227   -2.3788   -0.7743 H   0  0  0  0  0  0  0  0  0  0  0  0
   -2.7473   -4.3997    0.3987 H   0  0  0  0  0  0  0  0  0  0  0  0
   -5.1686   -4.8689    0.6336 H   0  0  0  0  0  0  0  0  0  0  0  0
   -6.8436   -3.3243   -0.2661 H   0  0  0  0  0  0  0  0  0  0  0  0
   -7.6366    1.2216   -0.8449 H   0  0  0  0  0  0  0  0  0  0  0  0
   -8.2066   -0.6669    0.7112 H   0  0  0  0  0  0  0  0  0  0  0  0
   -7.7906    0.9344    1.3833 H   0  0  0  0  0  0  0  0  0  0  0  0
   -6.5680   -0.3436    1.5138 H   0  0  0  0  0  0  0  0  0  0  0  0
   -4.8537    0.7097    0.3759 H   0  0  0  0  0  0  0  0  0  0  0  0
   -5.8201    2.1632    0.4907 H   0  0  0  0  0  0  0  0  0  0  0  0
   -5.2221    1.7511   -1.1308 H   0  0  0  0  0  0  0  0  0  0  0  0
    6.3066    3.4803    0.3755 H   0  0  0  0  0  0  0  0  0  0  0  0
    6.8731    2.3300   -0.9042 H   0  0  0  0  0  0  0  0  0  0  0  0
    8.4205    3.3305    1.5265 H   0  0  0  0  0  0  0  0  0  0  0  0
    8.9618    2.7046   -0.1146 H   0  0  0  0  0  0  0  0  0  0  0  0
    8.6951    0.5113    0.4519 H   0  0  0  0  0  0  0  0  0  0  0  0
    9.2055    1.1239    2.1031 H   0  0  0  0  0  0  0  0  0  0  0  0
    6.8957   -0.2634    1.8903 H   0  0  0  0  0  0  0  0  0  0  0  0
    6.9158    1.3020    2.8021 H   0  0  0  0  0  0  0  0  0  0  0  0
  1  2  1  0
  2  3  1  0
  3  4  2  0
  4  5  1  0
  5  6  2  0
  6  7  1  0
  7  8  2  0
  8  9  1  0
  9 10  1  0
 10 11  2  0
 11 12  1  0
 12 13  2  0
 13 14  1  0
 13 15  1  0
 15 16  1  0
 16 17  1  0
 17 18  2  0
 18 19  1  0
 19 20  2  0
 20 21  1  0
 21 22  2  0
 22 23  1  0
 23 24  2  0
 23 25  2  0
 23 26  1  0
 26 27  1  0
 26 28  1  0
 15 29  2  0
  5 30  1  0
 30 31  1  0
 31 32  1  0
 32 33  1  0
 33 34  1  0
  8  3  1  0
 29 10  1  0
 34 30  1  0
 22 17  1  0
  1 35  1  0
  1 36  1  0
  1 37  1  0
  4 38  1  0
  6 39  1  0
  7 40  1  0
  9 41  1  0
 12 42  1  0
 16 43  1  0
 18 44  1  0
 19 45  1  0
 20 46  1  0
 21 47  1  0
 26 48  1  0
 27 49  1  0
 27 50  1  0
 27 51  1  0
 28 52  1  0
 28 53  1  0
 28 54  1  0
 31 55  1  0
 31 56  1  0
 32 57  1  0
 32 58  1  0
 33 59  1  0
 33 60  1  0
 34 61  1  0
 34 62  1  0
M  END
$$$$
[H]c1nc(N2C([H])([H])C([H])([H])N(c3nc(C(=O)N([H])c4c([H])c([H])c(C(F)(F)F)c([H])c4[H])nc(N4C([H])([H])C([H])([H])N(C([H])([H])[H])C([H])([H])C4([H])[H])c3[H])C([H])([H])C2([H])[H])c2c([H])c([H])n([H])c2n1
     RDKit          3D

 70 75  0  0  0  0  0  0  0  0999 V2000
   -1.4157    7.2678   -0.0720 C   0  0  0  0  0  0  0  0  0  0  0  0
   -1.1830    5.8215   -0.1097 N   0  0  0  0  0  0  0  0  0  0  0  0
   -2.1987    5.2554    0.7449 C   0  0  0  0  0  0  0  0  0  0  0  0
   -2.3696    3.7919    0.6256 C   0  0  0  0  0  0  0  0  0  0  0  0
   -1.6866    3.1706   -0.5002 N   0  0  0  0  0  0  0  0  0  0  0  0
   -1.4209    3.8994   -1.6734 C   0  0  0  0  0  0  0  0  0  0  0  0
   -1.3125    5.3962   -1.4769 C   0  0  0  0  0  0  0  0  0  0  0  0
   -1.3103    1.7723   -0.3373 C   0  0  0  0  0  0  0  0  0  0  0  0
   -0.0271    1.4325   -0.0480 C   0  0  0  0  0  0  0  0  0  0  0  0
    0.2975    0.0875    0.1781 C   0  0  0  0  0  0  0  0  0  0  0  0
   -0.6841   -0.8260    0.0998 N   0  0  0  0  0  0  0  0  0  0  0  0
   -1.9360   -0.5008   -0.1871 C   0  0  0  0  0  0  0  0  0  0  0  0
   -2.2303    0.8231   -0.4060 N   0  0  0  0  0  0  0  0  0  0  0  0
   -3.0583   -1.4166   -0.2195 C   0  0  0  0  0  0  0  0  0  0  0  0
   -4.0784   -1.0387   -0.8492 O   0  0  0  0  0  0  0  0  0  0  0  0
   -3.0566   -2.7006    0.4340 N   0  0  0  0  0  0  0  0  0  0  0  0
   -4.2690   -3.4250    0.3309 C   0  0  0  0  0  0  0  0  0  0  0  0
   -5.4746   -2.7648    0.4011 C   0  0  0  0  0  0  0  0  0  0  0  0
   -6.6260   -3.5034    0.1960 C   0  0  0  0  0  0  0  0  0  0  0  0
   -6.5622   -4.8555   -0.0696 C   0  0  0  0  0  0  0  0  0  0  0  0
   -5.3450   -5.4752   -0.1257 C   0  0  0  0  0  0  0  0  0  0  0  0
   -4.1860   -4.7786    0.0709 C   0  0  0  0  0  0  0  0  0  0  0  0
   -7.8046   -5.6028   -0.3165 C   0  0  0  0  0  0  0  0  0  0  0  0
   -8.8248   -4.7625   -0.7537 F   0  0  0  0  0  0  0  0  0  0  0  0
   -7.6139   -6.5829   -1.2760 F   0  0  0  0  0  0  0  0  0  0  0  0
   -8.2231   -6.1688    0.8814 F   0  0  0  0  0  0  0  0  0  0  0  0
    1.6462   -0.1989    0.4324 N   0  0  0  0  0  0  0  0  0  0  0  0
    2.0376   -1.1378    1.4672 C   0  0  0  0  0  0  0  0  0  0  0  0
    3.3635   -1.7513    1.0717 C   0  0  0  0  0  0  0  0  0  0  0  0
    4.3466   -0.6942    0.8215 N   0  0  0  0  0  0  0  0  0  0  0  0
    3.9288    0.6276    0.4017 C   0  0  0  0  0  0  0  0  0  0  0  0
    2.6571    0.4549   -0.4073 C   0  0  0  0  0  0  0  0  0  0  0  0
    5.7177   -1.0426    0.9741 C   0  0  0  0  0  0  0  0  0  0  0  0
    6.3267   -1.0768    2.1743 N   0  0  0  0  0  0  0  0  0  0  0  0
    7.6181   -1.4282    2.2597 C   0  0  0  0  0  0  0  0  0  0  0  0
    8.3683   -1.7518    1.1923 N   0  0  0  0  0  0  0  0  0  0  0  0
    7.7875   -1.7251   -0.0422 C   0  0  0  0  0  0  0  0  0  0  0  0
    8.2892   -1.9692   -1.2795 N   0  0  0  0  0  0  0  0  0  0  0  0
    7.3025   -1.7743   -2.2008 C   0  0  0  0  0  0  0  0  0  0  0  0
    6.1903   -1.4077   -1.4831 C   0  0  0  0  0  0  0  0  0  0  0  0
    6.4668   -1.3708   -0.1374 C   0  0  0  0  0  0  0  0  0  0  0  0
   -2.0079    7.6325   -0.9233 H   0  0  0  0  0  0  0  0  0  0  0  0
   -0.4526    7.7913   -0.0992 H   0  0  0  0  0  0  0  0  0  0  0  0
   -1.9958    7.5606    0.8438 H   0  0  0  0  0  0  0  0  0  0  0  0
   -3.1735    5.7755    0.6653 H   0  0  0  0  0  0  0  0  0  0  0  0
   -1.8595    5.4832    1.8022 H   0  0  0  0  0  0  0  0  0  0  0  0
   -3.4287    3.4543    0.5510 H   0  0  0  0  0  0  0  0  0  0  0  0
   -1.9951    3.2503    1.5517 H   0  0  0  0  0  0  0  0  0  0  0  0
   -0.5160    3.4853   -2.1906 H   0  0  0  0  0  0  0  0  0  0  0  0
   -2.2804    3.7533   -2.3978 H   0  0  0  0  0  0  0  0  0  0  0  0
   -0.4049    5.7349   -2.0074 H   0  0  0  0  0  0  0  0  0  0  0  0
   -2.1736    5.9326   -1.9490 H   0  0  0  0  0  0  0  0  0  0  0  0
    0.7248    2.1705    0.0167 H   0  0  0  0  0  0  0  0  0  0  0  0
   -2.2524   -3.0764    0.9281 H   0  0  0  0  0  0  0  0  0  0  0  0
   -5.5622   -1.7350    0.6389 H   0  0  0  0  0  0  0  0  0  0  0  0
   -7.5766   -3.0092    0.2351 H   0  0  0  0  0  0  0  0  0  0  0  0
   -5.3531   -6.5396   -0.3310 H   0  0  0  0  0  0  0  0  0  0  0  0
   -3.2156   -5.2565    0.0285 H   0  0  0  0  0  0  0  0  0  0  0  0
    2.1485   -0.6046    2.4419 H   0  0  0  0  0  0  0  0  0  0  0  0
    1.2992   -1.9295    1.6242 H   0  0  0  0  0  0  0  0  0  0  0  0
    3.7319   -2.2864    1.9947 H   0  0  0  0  0  0  0  0  0  0  0  0
    3.2981   -2.4427    0.2318 H   0  0  0  0  0  0  0  0  0  0  0  0
    3.7313    1.2754    1.2542 H   0  0  0  0  0  0  0  0  0  0  0  0
    4.7202    1.0538   -0.2595 H   0  0  0  0  0  0  0  0  0  0  0  0
    2.9157   -0.2375   -1.2420 H   0  0  0  0  0  0  0  0  0  0  0  0
    2.3058    1.3897   -0.8470 H   0  0  0  0  0  0  0  0  0  0  0  0
    8.0715   -1.4246    3.2622 H   0  0  0  0  0  0  0  0  0  0  0  0
    9.2757   -2.2472   -1.4576 H   0  0  0  0  0  0  0  0  0  0  0  0
    7.3719   -1.8712   -3.2739 H   0  0  0  0  0  0  0  0  0  0  0  0
    5.2063   -1.1529   -1.8784 H   0  0  0  0  0  0  0  0  0  0  0  0
  1  2  1  0
  2  3  1  0
  3  4  1  0
  4  5  1  0
  5  6  1  0
  6  7  1  0
  5  8  1  0
  8  9  2  0
  9 10  1  0
 10 11  2  0
 11 12  1  0
 12 13  2  0
 12 14  1  0
 14 15  2  0
 14 16  1  0
 16 17  1  0
 17 18  2  0
 18 19  1  0
 19 20  2  0
 20 21  1  0
 21 22  2  0
 20 23  1  0
 23 24  1  0
 23 25  1  0
 23 26  1  0
 10 27  1  0
 27 28  1  0
 28 29  1  0
 29 30  1  0
 30 31  1  0
 31 32  1  0
 30 33  1  0
 33 34  2  0
 34 35  1  0
 35 36  2  0
 36 37  1  0
 37 38  1  0
 38 39  1  0
 39 40  2  0
 40 41  1  0
  7  2  1  0
 13  8  1  0
 22 17  1  0
 32 27  1  0
 41 33  1  0
 41 37  2  0
  1 42  1  0
  1 43  1  0
  1 44  1  0
  3 45  1  0
  3 46  1  0
  4 47  1  0
  4 48  1  0
  6 49  1  0
  6 50  1  0
  7 51  1  0
  7 52  1  0
  9 53  1  0
 16 54  1  0
 18 55  1  0
 19 56  1  0
 21 57  1  0
 22 58  1  0
 28 59  1  0
 28 60  1  0
 29 61  1  0
 29 62  1  0
 31 63  1  0
 31 64  1  0
 32 65  1  0
 32 66  1  0
 35 67  1  0
 38 68  1  0
 39 69  1  0
 40 70  1  0
M  END
$$$$
[H]ON([H])C(=O)[C@]1([H])N(S(=O)(=O)c2c([H])c([H])c(OC([H])([H])[H])c([H])c2[H])C([H])([H])[C@@]([H])(c2c([H])c([H])c([H])c([H])c2[H])C1([H])[H]
     RDKit          3D

 46 48  0  0  0  0  0  0  0  0999 V2000
    5.8900    1.8995   -2.8233 C   0  0  0  0  0  0  0  0  0  0  0  0
    4.8577    0.9564   -3.0590 O   0  0  0  0  0  0  0  0  0  0  0  0
    4.0444    0.5398   -2.0145 C   0  0  0  0  0  0  0  0  0  0  0  0
    3.0423   -0.3780   -2.2517 C   0  0  0  0  0  0  0  0  0  0  0  0
    2.2086   -0.8161   -1.2229 C   0  0  0  0  0  0  0  0  0  0  0  0
    2.3475   -0.3552    0.0675 C   0  0  0  0  0  0  0  0  0  0  0  0
    3.3638    0.5718    0.2942 C   0  0  0  0  0  0  0  0  0  0  0  0
    4.1851    1.0018   -0.7257 C   0  0  0  0  0  0  0  0  0  0  0  0
    1.2989   -0.9070    1.3490 S   0  0  0  0  0  0  0  0  0  0  0  0
    2.1021   -0.9761    2.5947 O   0  0  0  0  0  0  0  0  0  0  0  0
    0.7778   -2.2923    1.0752 O   0  0  0  0  0  0  0  0  0  0  0  0
   -0.0457    0.1376    1.4709 N   0  0  0  0  0  0  0  0  0  0  0  0
   -0.8558    0.1841    0.2916 C   0  0  0  0  0  0  0  0  0  0  0  0
   -2.2665   -0.1160    0.7301 C   0  0  2  0  0  0  0  0  0  0  0  0
   -2.0794   -0.8007    2.0637 C   0  0  0  0  0  0  0  0  0  0  0  0
   -0.8769   -0.0807    2.6060 C   0  0  2  0  0  0  0  0  0  0  0  0
   -1.2738    1.1989    3.2287 C   0  0  0  0  0  0  0  0  0  0  0  0
   -2.0101    1.2266    4.2260 O   0  0  0  0  0  0  0  0  0  0  0  0
   -0.8032    2.4211    2.6753 N   0  0  0  0  0  0  0  0  0  0  0  0
   -1.1357    3.6275    3.2056 O   0  0  0  0  0  0  0  0  0  0  0  0
   -3.0475   -0.8787   -0.2300 C   0  0  0  0  0  0  0  0  0  0  0  0
   -4.2373   -0.3819   -0.7513 C   0  0  0  0  0  0  0  0  0  0  0  0
   -4.9977   -1.0851   -1.6637 C   0  0  0  0  0  0  0  0  0  0  0  0
   -4.5699   -2.3279   -2.0799 C   0  0  0  0  0  0  0  0  0  0  0  0
   -3.3952   -2.8554   -1.5862 C   0  0  0  0  0  0  0  0  0  0  0  0
   -2.6649   -2.1251   -0.6788 C   0  0  0  0  0  0  0  0  0  0  0  0
    5.3980    2.8328   -2.4377 H   0  0  0  0  0  0  0  0  0  0  0  0
    6.4449    2.0876   -3.7583 H   0  0  0  0  0  0  0  0  0  0  0  0
    6.5324    1.5418   -1.9926 H   0  0  0  0  0  0  0  0  0  0  0  0
    2.9168   -0.7539   -3.2650 H   0  0  0  0  0  0  0  0  0  0  0  0
    1.4276   -1.5403   -1.4333 H   0  0  0  0  0  0  0  0  0  0  0  0
    3.4642    0.9273    1.3109 H   0  0  0  0  0  0  0  0  0  0  0  0
    4.9556    1.7155   -0.5127 H   0  0  0  0  0  0  0  0  0  0  0  0
   -0.7937    1.2166   -0.1210 H   0  0  0  0  0  0  0  0  0  0  0  0
   -0.5140   -0.4815   -0.5252 H   0  0  0  0  0  0  0  0  0  0  0  0
   -2.7753    0.8485    0.9367 H   0  0  0  0  0  0  0  0  0  0  0  0
   -1.9213   -1.8920    1.9698 H   0  0  0  0  0  0  0  0  0  0  0  0
   -2.9213   -0.6209    2.7633 H   0  0  0  0  0  0  0  0  0  0  0  0
   -0.3493   -0.6585    3.3903 H   0  0  0  0  0  0  0  0  0  0  0  0
   -0.1820    2.4506    1.8391 H   0  0  0  0  0  0  0  0  0  0  0  0
   -1.1106    4.3470    2.5457 H   0  0  0  0  0  0  0  0  0  0  0  0
   -4.5653    0.5944   -0.4189 H   0  0  0  0  0  0  0  0  0  0  0  0
   -5.9106   -0.6917   -2.0568 H   0  0  0  0  0  0  0  0  0  0  0  0
   -5.1243   -2.9260   -2.7936 H   0  0  0  0  0  0  0  0  0  0  0  0
   -3.0722   -3.8364   -1.9246 H   0  0  0  0  0  0  0  0  0  0  0  0
   -1.7583   -2.5494   -0.3074 H   0  0  0  0  0  0  0  0  0  0  0  0
  1  2  1  0
  2  3  1  0
  3  4  2  0
  4  5  1  0
  5  6  2  0
  6  7  1  0
  7  8  2  0
  6  9  1  0
  9 10  2  0
  9 11  2  0
  9 12  1  0
 12 13  1  0
 13 14  1  0
 14 15  1  0
 15 16  1  0
 16 17  1  0
 17 18  2  0
 17 19  1  0
 19 20  1  0
 14 21  1  0
 21 22  2  0
 22 23  1  0
 23 24  2  0
 24 25  1  0
 25 26  2  0
  8  3  1  0
 16 12  1  0
 26 21  1  0
  1 27  1  0
  1 28  1  0
  1 29  1  0
  4 30  1  0
  5 31  1  0
  7 32  1  0
  8 33  1  0
 13 34  1  0
 13 35  1  0
 14 36  1  1
 15 37  1  0
 15 38  1  0
 16 39  1  1
 19 40  1  0
 20 41  1  0
 22 42  1  0
 23 43  1  0
 24 44  1  0
 25 45  1  0
 26 46  1  0
M  END
$$$$
[H]c1c([H])c(S(=O)(=O)N2C([H])([H])C([H])([H])N(C(=O)[C@]3([H])C([H])([H])C([H])([H])[C@@]([H])(N([H])C(=O)C4([H])C([H])([H])C4([H])[H])C([H])([H])C3([H])[H])C([H])([H])C2([H])[H])c([H])c([H])c1OC([H])([H])[H]
     RDKit          3D

 62 65  0  0  0  0  0  0  0  0999 V2000
   -8.9914    1.1616   -2.7058 C   0  0  0  0  0  0  0  0  0  0  0  0
   -8.9387    0.3629   -1.5265 O   0  0  0  0  0  0  0  0  0  0  0  0
   -7.7142    0.2174   -0.8581 C   0  0  0  0  0  0  0  0  0  0  0  0
   -7.6312   -0.5332    0.2939 C   0  0  0  0  0  0  0  0  0  0  0  0
   -6.4382   -0.7001    0.9811 C   0  0  0  0  0  0  0  0  0  0  0  0
   -5.2734   -0.1172    0.5341 C   0  0  0  0  0  0  0  0  0  0  0  0
   -5.3630    0.6389   -0.6263 C   0  0  0  0  0  0  0  0  0  0  0  0
   -6.5579    0.8127   -1.3209 C   0  0  0  0  0  0  0  0  0  0  0  0
   -3.7515   -0.3084    1.3720 S   0  0  0  0  0  0  0  0  0  0  0  0
   -3.9430   -0.3318    2.8618 O   0  0  0  0  0  0  0  0  0  0  0  0
   -2.8251    0.8657    1.0938 O   0  0  0  0  0  0  0  0  0  0  0  0
   -2.9338   -1.7716    0.9377 N   0  0  0  0  0  0  0  0  0  0  0  0
   -2.5989   -1.8266   -0.4353 C   0  0  0  0  0  0  0  0  0  0  0  0
   -1.1255   -2.1356   -0.6059 C   0  0  0  0  0  0  0  0  0  0  0  0
   -0.3625   -1.1780    0.1590 N   0  0  0  0  0  0  0  0  0  0  0  0
   -0.6405   -1.0825    1.5617 C   0  0  0  0  0  0  0  0  0  0  0  0
   -1.8777   -1.9532    1.8845 C   0  0  0  0  0  0  0  0  0  0  0  0
    0.6059   -0.3805   -0.4620 C   0  0  0  0  0  0  0  0  0  0  0  0
    0.7970   -0.6178   -1.7083 O   0  0  0  0  0  0  0  0  0  0  0  0
    1.4117    0.6919    0.1297 C   0  0  1  0  0  0  0  0  0  0  0  0
    2.3014    0.1257    1.2111 C   0  0  0  0  0  0  0  0  0  0  0  0
    3.6149    0.8966    1.2286 C   0  0  0  0  0  0  0  0  0  0  0  0
    4.3648    0.3186   -0.0110 C   0  0  1  0  0  0  0  0  0  0  0  0
    3.5684    0.6964   -1.2064 C   0  0  0  0  0  0  0  0  0  0  0  0
    2.2344    1.3517   -0.9446 C   0  0  0  0  0  0  0  0  0  0  0  0
    5.6883    0.8722   -0.0478 N   0  0  0  0  0  0  0  0  0  0  0  0
    6.6791    0.5165    0.8696 C   0  0  0  0  0  0  0  0  0  0  0  0
    6.4359   -0.3060    1.7962 O   0  0  0  0  0  0  0  0  0  0  0  0
    8.0563    1.0891    0.8087 C   0  0  0  0  0  0  0  0  0  0  0  0
    8.4515    1.8495   -0.3745 C   0  0  0  0  0  0  0  0  0  0  0  0
    8.9615    0.4543   -0.2604 C   0  0  0  0  0  0  0  0  0  0  0  0
   -8.1576    0.9838   -3.3961 H   0  0  0  0  0  0  0  0  0  0  0  0
   -8.9008    2.2383   -2.4094 H   0  0  0  0  0  0  0  0  0  0  0  0
   -9.9583    1.0768   -3.2141 H   0  0  0  0  0  0  0  0  0  0  0  0
   -8.5515   -0.9958    0.6563 H   0  0  0  0  0  0  0  0  0  0  0  0
   -6.3832   -1.2892    1.8880 H   0  0  0  0  0  0  0  0  0  0  0  0
   -4.4557    1.1017   -0.9757 H   0  0  0  0  0  0  0  0  0  0  0  0
   -6.5591    1.4169   -2.2057 H   0  0  0  0  0  0  0  0  0  0  0  0
   -3.1343   -2.7147   -0.8962 H   0  0  0  0  0  0  0  0  0  0  0  0
   -2.8782   -0.9032   -0.9877 H   0  0  0  0  0  0  0  0  0  0  0  0
   -0.8787   -2.0605   -1.6894 H   0  0  0  0  0  0  0  0  0  0  0  0
   -0.9609   -3.1726   -0.2587 H   0  0  0  0  0  0  0  0  0  0  0  0
    0.1697   -1.5571    2.1881 H   0  0  0  0  0  0  0  0  0  0  0  0
   -0.7867   -0.0744    1.9522 H   0  0  0  0  0  0  0  0  0  0  0  0
   -1.6050   -3.0290    1.9200 H   0  0  0  0  0  0  0  0  0  0  0  0
   -2.1775   -1.6757    2.9161 H   0  0  0  0  0  0  0  0  0  0  0  0
    0.7228    1.4035    0.6242 H   0  0  0  0  0  0  0  0  0  0  0  0
    1.8334    0.2679    2.1908 H   0  0  0  0  0  0  0  0  0  0  0  0
    2.5530   -0.9121    1.0581 H   0  0  0  0  0  0  0  0  0  0  0  0
    4.1368    0.6406    2.1399 H   0  0  0  0  0  0  0  0  0  0  0  0
    3.4960    1.9599    1.0510 H   0  0  0  0  0  0  0  0  0  0  0  0
    4.4035   -0.7888    0.2305 H   0  0  0  0  0  0  0  0  0  0  0  0
    3.3979   -0.2147   -1.8304 H   0  0  0  0  0  0  0  0  0  0  0  0
    4.2177    1.3679   -1.8394 H   0  0  0  0  0  0  0  0  0  0  0  0
    2.4649    2.3823   -0.5522 H   0  0  0  0  0  0  0  0  0  0  0  0
    1.6945    1.5119   -1.8752 H   0  0  0  0  0  0  0  0  0  0  0  0
    5.9106    1.5693   -0.7938 H   0  0  0  0  0  0  0  0  0  0  0  0
    8.5782    1.0869    1.7835 H   0  0  0  0  0  0  0  0  0  0  0  0
    7.8027    2.0325   -1.2498 H   0  0  0  0  0  0  0  0  0  0  0  0
    9.1975    2.6855   -0.2194 H   0  0  0  0  0  0  0  0  0  0  0  0
    8.5621   -0.4061   -0.8154 H   0  0  0  0  0  0  0  0  0  0  0  0
   10.0418    0.3673   -0.0197 H   0  0  0  0  0  0  0  0  0  0  0  0
  1  2  1  0
  2  3  1  0
  3  4  2  0
  4  5  1  0
  5  6  2  0
  6  7  1  0
  7  8  2  0
  6  9  1  0
  9 10  2  0
  9 11  2  0
  9 12  1  0
 12 13  1  0
 13 14  1  0
 14 15  1  0
 15 16  1  0
 16 17  1  0
 15 18  1  0
 18 19  2  0
 18 20  1  0
 20 21  1  0
 21 22  1  0
 22 23  1  0
 23 24  1  0
 24 25  1  0
 23 26  1  0
 26 27  1  0
 27 28  2  0
 27 29  1  0
 29 30  1  0
 30 31  1  0
  8  3  1  0
 17 12  1  0
 25 20  1  0
 31 29  1  0
  1 32  1  0
  1 33  1  0
  1 34  1  0
  4 35  1  0
  5 36  1  0
  7 37  1  0
  8 38  1  0
 13 39  1  0
 13 40  1  0
 14 41  1  0
 14 42  1  0
 16 43  1  0
 16 44  1  0
 17 45  1  0
 17 46  1  0
 20 47  1  1
 21 48  1  0
 21 49  1  0
 22 50  1  0
 22 51  1  0
 23 52  1  1
 24 53  1  0
 24 54  1  0
 25 55  1  0
 25 56  1  0
 26 57  1  0
 29 58  1  0
 30 59  1  0
 30 60  1  0
 31 61  1  0
 31 62  1  0
M  END
$$$$
[H]c1c([H])c([H])c(N([H])C(=O)N2[C@]3([H])C([H])([H])[C@]([H])(N([H])C(=O)c4c([H])c([H])c(C(F)(F)F)c([H])c4[H])[C@@]([H])(c4c([H])c([H])c([H])c([H])c4[H])C([H])([H])[C@@]23[H])c([H])c1[H]
     RDKit          3D

 59 63  0  0  0  0  0  0  0  0999 V2000
   -8.5219    0.3463    2.6651 F   0  0  0  0  0  0  0  0  0  0  0  0
   -8.0569    1.6098    2.3370 C   0  0  0  0  0  0  0  0  0  0  0  0
   -8.9264    2.2314    1.4847 F   0  0  0  0  0  0  0  0  0  0  0  0
   -7.8677    2.2807    3.5300 F   0  0  0  0  0  0  0  0  0  0  0  0
   -6.7587    1.4479    1.5841 C   0  0  0  0  0  0  0  0  0  0  0  0
   -6.0741    2.5547    1.0918 C   0  0  0  0  0  0  0  0  0  0  0  0
   -4.8763    2.3914    0.4053 C   0  0  0  0  0  0  0  0  0  0  0  0
   -4.3291    1.1441    0.1893 C   0  0  0  0  0  0  0  0  0  0  0  0
   -5.0433    0.0556    0.6985 C   0  0  0  0  0  0  0  0  0  0  0  0
   -6.2268    0.1954    1.3788 C   0  0  0  0  0  0  0  0  0  0  0  0
   -3.0892    0.9518   -0.5415 C   0  0  0  0  0  0  0  0  0  0  0  0
   -2.9582    1.4806   -1.6863 O   0  0  0  0  0  0  0  0  0  0  0  0
   -2.0479    0.2047   -0.0157 N   0  0  0  0  0  0  0  0  0  0  0  0
   -0.7704   -0.0221   -0.7187 C   0  0  1  0  0  0  0  0  0  0  0  0
    0.3234    0.8144   -0.1237 C   0  0  0  0  0  0  0  0  0  0  0  0
    1.5340    0.0076   -0.0836 C   0  0  2  0  0  0  0  0  0  0  0  0
    1.1183   -1.0752    0.8997 C   0  0  1  0  0  0  0  0  0  0  0  0
    0.5041   -2.0891    0.0366 C   0  0  0  0  0  0  0  0  0  0  0  0
   -0.5100   -1.5058   -0.8592 C   0  0  2  0  0  0  0  0  0  0  0  0
   -0.5200   -1.9558   -2.2452 C   0  0  0  0  0  0  0  0  0  0  0  0
    0.6299   -2.2255   -2.9211 C   0  0  0  0  0  0  0  0  0  0  0  0
    0.6425   -2.6260   -4.2384 C   0  0  0  0  0  0  0  0  0  0  0  0
   -0.5603   -2.7668   -4.9220 C   0  0  0  0  0  0  0  0  0  0  0  0
   -1.7390   -2.5032   -4.2667 C   0  0  0  0  0  0  0  0  0  0  0  0
   -1.6959   -2.1030   -2.9412 C   0  0  0  0  0  0  0  0  0  0  0  0
    2.3640   -0.4749    0.9454 N   0  0  0  0  0  0  0  0  0  0  0  0
    3.6761   -0.3542    1.5571 C   0  0  0  0  0  0  0  0  0  0  0  0
    3.9809   -1.0486    2.5483 O   0  0  0  0  0  0  0  0  0  0  0  0
    4.6234    0.5562    1.0311 N   0  0  0  0  0  0  0  0  0  0  0  0
    5.9213    0.8253    1.4517 C   0  0  0  0  0  0  0  0  0  0  0  0
    6.5715    1.8966    0.8211 C   0  0  0  0  0  0  0  0  0  0  0  0
    7.8476    2.2676    1.1221 C   0  0  0  0  0  0  0  0  0  0  0  0
    8.5628    1.5912    2.0767 C   0  0  0  0  0  0  0  0  0  0  0  0
    7.9413    0.5381    2.7061 C   0  0  0  0  0  0  0  0  0  0  0  0
    6.6229    0.1594    2.3903 C   0  0  0  0  0  0  0  0  0  0  0  0
   -6.4654    3.5436    1.2370 H   0  0  0  0  0  0  0  0  0  0  0  0
   -4.3388    3.2651    0.0199 H   0  0  0  0  0  0  0  0  0  0  0  0
   -4.6181   -0.9153    0.5301 H   0  0  0  0  0  0  0  0  0  0  0  0
   -6.7867   -0.6581    1.7775 H   0  0  0  0  0  0  0  0  0  0  0  0
   -2.1605   -0.2247    0.9286 H   0  0  0  0  0  0  0  0  0  0  0  0
   -0.9447    0.4350   -1.7221 H   0  0  0  0  0  0  0  0  0  0  0  0
   -0.0385    1.1815    0.8688 H   0  0  0  0  0  0  0  0  0  0  0  0
    0.5353    1.7552   -0.6951 H   0  0  0  0  0  0  0  0  0  0  0  0
    1.9621   -0.2070   -1.0619 H   0  0  0  0  0  0  0  0  0  0  0  0
    0.4914   -0.7918    1.7774 H   0  0  0  0  0  0  0  0  0  0  0  0
    1.3236   -2.6470   -0.4552 H   0  0  0  0  0  0  0  0  0  0  0  0
    0.0866   -2.8826    0.7433 H   0  0  0  0  0  0  0  0  0  0  0  0
   -1.5051   -1.9325   -0.4642 H   0  0  0  0  0  0  0  0  0  0  0  0
    1.5584   -2.1253   -2.4007 H   0  0  0  0  0  0  0  0  0  0  0  0
    1.5674   -2.8375   -4.7508 H   0  0  0  0  0  0  0  0  0  0  0  0
   -0.5130   -3.0890   -5.9759 H   0  0  0  0  0  0  0  0  0  0  0  0
   -2.6706   -2.6141   -4.8077 H   0  0  0  0  0  0  0  0  0  0  0  0
   -2.6886   -1.9150   -2.5093 H   0  0  0  0  0  0  0  0  0  0  0  0
    4.2180    1.0939    0.1746 H   0  0  0  0  0  0  0  0  0  0  0  0
    6.0561    2.4680    0.0578 H   0  0  0  0  0  0  0  0  0  0  0  0
    8.3538    3.0915    0.6395 H   0  0  0  0  0  0  0  0  0  0  0  0
    9.5770    1.8640    2.3331 H   0  0  0  0  0  0  0  0  0  0  0  0
    8.4991    0.0088    3.4528 H   0  0  0  0  0  0  0  0  0  0  0  0
    6.2094   -0.6670    2.9151 H   0  0  0  0  0  0  0  0  0  0  0  0
  1  2  1  0
  2  3  1  0
  2  4  1  0
  2  5  1  0
  5  6  2  0
  6  7  1  0
  7  8  2  0
  8  9  1  0
  9 10  2  0
  8 11  1  0
 11 12  2  0
 11 13  1  0
 13 14  1  0
 14 15  1  0
 15 16  1  0
 16 17  1  0
 17 18  1  0
 18 19  1  0
 19 20  1  0
 20 21  2  0
 21 22  1  0
 22 23  2  0
 23 24  1  0
 24 25  2  0
 17 26  1  0
 26 27  1  0
 27 28  2  0
 27 29  1  0
 29 30  1  0
 30 31  2  0
 31 32  1  0
 32 33  2  0
 33 34  1  0
 34 35  2  0
 10  5  1  0
 19 14  1  0
 25 20  1  0
 35 30  1  0
 26 16  1  0
  6 36  1  0
  7 37  1  0
  9 38  1  0
 10 39  1  0
 13 40  1  0
 14 41  1  6
 15 42  1  0
 15 43  1  0
 16 44  1  6
 17 45  1  1
 18 46  1  0
 18 47  1  0
 19 48  1  1
 21 49  1  0
 22 50  1  0
 23 51  1  0
 24 52  1  0
 25 53  1  0
 29 54  1  0
 31 55  1  0
 32 56  1  0
 33 57  1  0
 34 58  1  0
 35 59  1  0
M  END
$$$$
[H]c1c([H])c([H])c(C(=O)N([H])[C@]([H])(C(=O)N([H])[C@@]2([H])C([H])([H])[C@]2([H])c2c([H])c([H])c([H])c([H])c2[H])C([H])(C([H])([H])[H])C([H])([H])[H])c([H])c1[H]
     RDKit          3D

 49 51  0  0  0  0  0  0  0  0999 V2000
   -3.1993    0.7808   -2.2693 C   0  0  0  0  0  0  0  0  0  0  0  0
   -1.6580    0.7623   -2.0621 C   0  0  0  0  0  0  0  0  0  0  0  0
   -1.0747    0.7819   -3.4912 C   0  0  0  0  0  0  0  0  0  0  0  0
   -1.2518   -0.4960   -1.4079 C   0  0  2  0  0  0  0  0  0  0  0  0
   -1.9691   -0.7548   -0.1316 N   0  0  0  0  0  0  0  0  0  0  0  0
   -2.6741   -1.9570    0.0501 C   0  0  0  0  0  0  0  0  0  0  0  0
   -2.6755   -2.7939   -0.8945 O   0  0  0  0  0  0  0  0  0  0  0  0
   -3.3973   -2.2824    1.2652 C   0  0  0  0  0  0  0  0  0  0  0  0
   -4.0339   -3.5016    1.3521 C   0  0  0  0  0  0  0  0  0  0  0  0
   -4.7235   -3.8293    2.4929 C   0  0  0  0  0  0  0  0  0  0  0  0
   -4.8084   -2.9706    3.5802 C   0  0  0  0  0  0  0  0  0  0  0  0
   -4.1672   -1.7592    3.4754 C   0  0  0  0  0  0  0  0  0  0  0  0
   -3.4587   -1.4031    2.3242 C   0  0  0  0  0  0  0  0  0  0  0  0
    0.1827   -0.4671   -1.0163 C   0  0  0  0  0  0  0  0  0  0  0  0
    0.5858   -1.4266   -0.2276 O   0  0  0  0  0  0  0  0  0  0  0  0
    1.0760    0.5032   -1.4328 N   0  0  0  0  0  0  0  0  0  0  0  0
    2.4747    0.3924   -0.9690 C   0  0  1  0  0  0  0  0  0  0  0  0
    3.5647    0.8819   -1.8209 C   0  0  0  0  0  0  0  0  0  0  0  0
    3.0933    1.7280   -0.6576 C   0  0  2  0  0  0  0  0  0  0  0  0
    3.9825    1.8211    0.5390 C   0  0  0  0  0  0  0  0  0  0  0  0
    3.9878    2.9913    1.2608 C   0  0  0  0  0  0  0  0  0  0  0  0
    4.7911    3.1246    2.3676 C   0  0  0  0  0  0  0  0  0  0  0  0
    5.5879    2.0634    2.7364 C   0  0  0  0  0  0  0  0  0  0  0  0
    5.5943    0.8872    2.0260 C   0  0  0  0  0  0  0  0  0  0  0  0
    4.7820    0.7746    0.9203 C   0  0  0  0  0  0  0  0  0  0  0  0
   -3.3650    1.4839   -3.0939 H   0  0  0  0  0  0  0  0  0  0  0  0
   -3.5209   -0.2462   -2.4343 H   0  0  0  0  0  0  0  0  0  0  0  0
   -3.5961    1.2407   -1.3429 H   0  0  0  0  0  0  0  0  0  0  0  0
   -1.3867    1.6725   -1.5693 H   0  0  0  0  0  0  0  0  0  0  0  0
   -1.8969    0.5365   -4.2308 H   0  0  0  0  0  0  0  0  0  0  0  0
   -0.6441    1.7643   -3.7267 H   0  0  0  0  0  0  0  0  0  0  0  0
   -0.3058    0.0028   -3.5450 H   0  0  0  0  0  0  0  0  0  0  0  0
   -1.4236   -1.3935   -2.0692 H   0  0  0  0  0  0  0  0  0  0  0  0
   -1.9488   -0.0541    0.6166 H   0  0  0  0  0  0  0  0  0  0  0  0
   -4.0095   -4.2185    0.5433 H   0  0  0  0  0  0  0  0  0  0  0  0
   -5.2132   -4.7895    2.5367 H   0  0  0  0  0  0  0  0  0  0  0  0
   -5.3603   -3.2654    4.4592 H   0  0  0  0  0  0  0  0  0  0  0  0
   -4.2370   -1.0866    4.3340 H   0  0  0  0  0  0  0  0  0  0  0  0
   -2.9802   -0.4379    2.3098 H   0  0  0  0  0  0  0  0  0  0  0  0
    0.8516    1.3110   -2.0143 H   0  0  0  0  0  0  0  0  0  0  0  0
    2.6599   -0.4613   -0.3280 H   0  0  0  0  0  0  0  0  0  0  0  0
    4.5563    0.3725   -1.6938 H   0  0  0  0  0  0  0  0  0  0  0  0
    3.2972    1.1558   -2.8566 H   0  0  0  0  0  0  0  0  0  0  0  0
    2.5267    2.6383   -0.9207 H   0  0  0  0  0  0  0  0  0  0  0  0
    3.3577    3.8268    0.9678 H   0  0  0  0  0  0  0  0  0  0  0  0
    4.7738    4.0564    2.9155 H   0  0  0  0  0  0  0  0  0  0  0  0
    6.2343    2.1312    3.6026 H   0  0  0  0  0  0  0  0  0  0  0  0
    6.2286    0.0691    2.3350 H   0  0  0  0  0  0  0  0  0  0  0  0
    4.7909   -0.1597    0.3618 H   0  0  0  0  0  0  0  0  0  0  0  0
  1  2  1  0
  2  3  1  0
  2  4  1  0
  4  5  1  0
  5  6  1  0
  6  7  2  0
  6  8  1  0
  8  9  2  0
  9 10  1  0
 10 11  2  0
 11 12  1  0
 12 13  2  0
  4 14  1  0
 14 15  2  0
 14 16  1  0
 16 17  1  0
 17 18  1  0
 18 19  1  0
 19 20  1  0
 20 21  2  0
 21 22  1  0
 22 23  2  0
 23 24  1  0
 24 25  2  0
 13  8  1  0
 19 17  1  0
 25 20  1  0
  1 26  1  0
  1 27  1  0
  1 28  1  0
  2 29  1  0
  3 30  1  0
  3 31  1  0
  3 32  1  0
  4 33  1  6
  5 34  1  0
  9 35  1  0
 10 36  1  0
 11 37  1  0
 12 38  1  0
 13 39  1  0
 16 40  1  0
 17 41  1  1
 18 42  1  0
 18 43  1  0
 19 44  1  6
 21 45  1  0
 22 46  1  0
 23 47  1  0
 24 48  1  0
 25 49  1  0
M  END
$$$$
[H]N=C(N([H])[H])N([H])C([H])([H])C([H])([H])C([H])([H])[C@@]1([H])C(=O)N([H])[C@]([H])(C([H])([H])c2c([H])c([H])c([H])c([H])c2[H])C(=O)N2C([H])([H])C([H])([H])C([H])([H])[C@@]2([H])C(=O)N([H])[C@]([H])(C([H])([H])c2c([H])c([H])c([H])c([H])c2[H])C(=O)N([H])[C@@]([H])(C([H])([H])c2c([H])c([H])c([H])c([H])c2[H])C(=O)N([H])[C@@]([H])(C([H])([H])c2c([H])c([H])c([H])c([H])c2[H])C(=O)N([H])[C@@]([H])(C([H])([H])c2c([H])c([H])c([H])c([H])c2[H])C(=O)N1[H]
     RDKit          3D

137143  0  0  0  0  0  0  0  0999 V2000
    6.9861   -0.4509    4.2843 N   0  0  0  0  0  0  0  0  0  0  0  0
    6.8586   -0.2354    2.8771 C   0  0  0  0  0  0  0  0  0  0  0  0
    6.9775    0.9610    2.4441 N   0  0  0  0  0  0  0  0  0  0  0  0
    6.6113   -1.3425    2.0381 N   0  0  0  0  0  0  0  0  0  0  0  0
    5.4418   -2.1629    2.2646 C   0  0  0  0  0  0  0  0  0  0  0  0
    4.1631   -1.3750    1.9333 C   0  0  0  0  0  0  0  0  0  0  0  0
    4.2713   -1.0057    0.4929 C   0  0  0  0  0  0  0  0  0  0  0  0
    3.1563   -0.2205   -0.0802 C   0  0  2  0  0  0  0  0  0  0  0  0
    1.8407   -0.8073   -0.0760 N   0  0  0  0  0  0  0  0  0  0  0  0
    1.3162   -1.9668    0.4321 C   0  0  0  0  0  0  0  0  0  0  0  0
    0.5052   -1.8609    1.4410 O   0  0  0  0  0  0  0  0  0  0  0  0
    1.4950   -3.3921    0.0468 C   0  0  2  0  0  0  0  0  0  0  0  0
    1.9810   -3.5994   -1.3322 C   0  0  0  0  0  0  0  0  0  0  0  0
    2.1911   -5.0052   -1.7520 C   0  0  0  0  0  0  0  0  0  0  0  0
    1.2846   -5.7642   -2.4222 C   0  0  0  0  0  0  0  0  0  0  0  0
    1.5877   -7.0609   -2.7541 C   0  0  0  0  0  0  0  0  0  0  0  0
    2.8001   -7.6088   -2.4183 C   0  0  0  0  0  0  0  0  0  0  0  0
    3.7096   -6.8504   -1.7471 C   0  0  0  0  0  0  0  0  0  0  0  0
    3.4350   -5.5535   -1.4026 C   0  0  0  0  0  0  0  0  0  0  0  0
    0.4913   -4.2880    0.5512 N   0  0  0  0  0  0  0  0  0  0  0  0
   -0.8266   -4.1684    0.9537 C   0  0  0  0  0  0  0  0  0  0  0  0
   -1.0294   -4.2372    2.2555 O   0  0  0  0  0  0  0  0  0  0  0  0
   -2.1109   -3.9780    0.2333 C   0  0  2  0  0  0  0  0  0  0  0  0
   -2.4199   -5.2245   -0.6284 C   0  0  0  0  0  0  0  0  0  0  0  0
   -3.6483   -5.1759   -1.3828 C   0  0  0  0  0  0  0  0  0  0  0  0
   -4.8407   -5.6691   -0.8523 C   0  0  0  0  0  0  0  0  0  0  0  0
   -6.0237   -5.6594   -1.5352 C   0  0  0  0  0  0  0  0  0  0  0  0
   -6.0418   -5.1389   -2.8064 C   0  0  0  0  0  0  0  0  0  0  0  0
   -4.8626   -4.6469   -3.3410 C   0  0  0  0  0  0  0  0  0  0  0  0
   -3.6632   -4.6491   -2.6670 C   0  0  0  0  0  0  0  0  0  0  0  0
   -2.2360   -2.7636   -0.5246 N   0  0  0  0  0  0  0  0  0  0  0  0
   -2.9929   -1.6185   -0.3641 C   0  0  0  0  0  0  0  0  0  0  0  0
   -3.8596   -1.3334   -1.2744 O   0  0  0  0  0  0  0  0  0  0  0  0
   -2.9585   -0.6099    0.7526 C   0  0  2  0  0  0  0  0  0  0  0  0
   -3.7675   -1.0602    1.9542 C   0  0  0  0  0  0  0  0  0  0  0  0
   -5.1923   -1.2565    1.7558 C   0  0  0  0  0  0  0  0  0  0  0  0
   -5.7573   -2.4040    1.2571 C   0  0  0  0  0  0  0  0  0  0  0  0
   -7.1209   -2.6010    1.1007 C   0  0  0  0  0  0  0  0  0  0  0  0
   -7.9636   -1.5788    1.4699 C   0  0  0  0  0  0  0  0  0  0  0  0
   -7.4611   -0.4065    1.9755 C   0  0  0  0  0  0  0  0  0  0  0  0
   -6.1097   -0.2622    2.1099 C   0  0  0  0  0  0  0  0  0  0  0  0
   -3.4753    0.6561    0.2908 N   0  0  0  0  0  0  0  0  0  0  0  0
   -2.8522    1.8366   -0.1206 C   0  0  0  0  0  0  0  0  0  0  0  0
   -3.0728    2.2272   -1.3532 O   0  0  0  0  0  0  0  0  0  0  0  0
   -1.9582    2.7349    0.6465 C   0  0  1  0  0  0  0  0  0  0  0  0
   -2.6940    3.3489    1.7799 C   0  0  0  0  0  0  0  0  0  0  0  0
   -3.8262    4.2044    1.2639 C   0  0  0  0  0  0  0  0  0  0  0  0
   -5.0755    3.6731    1.1320 C   0  0  0  0  0  0  0  0  0  0  0  0
   -6.1362    4.4479    0.6391 C   0  0  0  0  0  0  0  0  0  0  0  0
   -5.8814    5.7560    0.2942 C   0  0  0  0  0  0  0  0  0  0  0  0
   -4.6072    6.2841    0.4337 C   0  0  0  0  0  0  0  0  0  0  0  0
   -3.5579    5.5375    0.9146 C   0  0  0  0  0  0  0  0  0  0  0  0
   -0.6727    2.1926    0.8608 N   0  0  0  0  0  0  0  0  0  0  0  0
    0.4489    2.6687    1.5471 C   0  0  0  0  0  0  0  0  0  0  0  0
    0.9981    1.7544    2.3006 O   0  0  0  0  0  0  0  0  0  0  0  0
    1.1264    3.9152    1.6124 C   0  0  2  0  0  0  0  0  0  0  0  0
    0.4402    5.1662    1.1311 C   0  0  0  0  0  0  0  0  0  0  0  0
    1.5502    6.1946    1.4372 C   0  0  0  0  0  0  0  0  0  0  0  0
    2.8061    5.3675    1.6979 C   0  0  0  0  0  0  0  0  0  0  0  0
    2.4058    4.1088    0.9959 N   0  0  0  0  0  0  0  0  0  0  0  0
    3.0958    3.3901    0.0367 C   0  0  0  0  0  0  0  0  0  0  0  0
    4.3527    3.2416    0.2632 O   0  0  0  0  0  0  0  0  0  0  0  0
    2.6041    2.7673   -1.2124 C   0  0  1  0  0  0  0  0  0  0  0  0
    2.2820    3.7842   -2.2994 C   0  0  0  0  0  0  0  0  0  0  0  0
    3.3756    4.6161   -2.7471 C   0  0  0  0  0  0  0  0  0  0  0  0
    4.2106    4.2730   -3.7896 C   0  0  0  0  0  0  0  0  0  0  0  0
    5.2537    5.0961   -4.1994 C   0  0  0  0  0  0  0  0  0  0  0  0
    5.4845    6.2969   -3.5641 C   0  0  0  0  0  0  0  0  0  0  0  0
    4.6668    6.6496   -2.5318 C   0  0  0  0  0  0  0  0  0  0  0  0
    3.6335    5.8169   -2.1380 C   0  0  0  0  0  0  0  0  0  0  0  0
    3.5123    1.7596   -1.6926 N   0  0  0  0  0  0  0  0  0  0  0  0
    3.4883    0.3745   -1.4021 C   0  0  0  0  0  0  0  0  0  0  0  0
    3.7650   -0.4849   -2.3049 O   0  0  0  0  0  0  0  0  0  0  0  0
    6.1744   -0.6000    4.9139 H   0  0  0  0  0  0  0  0  0  0  0  0
    7.9427   -0.4587    4.6973 H   0  0  0  0  0  0  0  0  0  0  0  0
    6.9148    1.2871    1.4757 H   0  0  0  0  0  0  0  0  0  0  0  0
    7.2781   -1.5499    1.2669 H   0  0  0  0  0  0  0  0  0  0  0  0
    5.5334   -3.0629    1.6303 H   0  0  0  0  0  0  0  0  0  0  0  0
    5.3844   -2.5265    3.3112 H   0  0  0  0  0  0  0  0  0  0  0  0
    3.2737   -1.9175    2.2370 H   0  0  0  0  0  0  0  0  0  0  0  0
    4.2671   -0.4217    2.5264 H   0  0  0  0  0  0  0  0  0  0  0  0
    4.5273   -1.9265   -0.0647 H   0  0  0  0  0  0  0  0  0  0  0  0
    5.1943   -0.3682    0.3899 H   0  0  0  0  0  0  0  0  0  0  0  0
    3.0928    0.6923    0.6283 H   0  0  0  0  0  0  0  0  0  0  0  0
    1.1462   -0.1556   -0.5802 H   0  0  0  0  0  0  0  0  0  0  0  0
    2.4546   -3.6372    0.6552 H   0  0  0  0  0  0  0  0  0  0  0  0
    1.3658   -3.1400   -2.1283 H   0  0  0  0  0  0  0  0  0  0  0  0
    2.9664   -3.0912   -1.4467 H   0  0  0  0  0  0  0  0  0  0  0  0
    0.3450   -5.3587   -2.6954 H   0  0  0  0  0  0  0  0  0  0  0  0
    0.8565   -7.6381   -3.2827 H   0  0  0  0  0  0  0  0  0  0  0  0
    2.9633   -8.6396   -2.7163 H   0  0  0  0  0  0  0  0  0  0  0  0
    4.6802   -7.2905   -1.4792 H   0  0  0  0  0  0  0  0  0  0  0  0
    4.1751   -4.9851   -0.8749 H   0  0  0  0  0  0  0  0  0  0  0  0
    0.8825   -5.3046    0.6640 H   0  0  0  0  0  0  0  0  0  0  0  0
   -2.9813   -4.0469    0.9670 H   0  0  0  0  0  0  0  0  0  0  0  0
   -2.4615   -6.0608    0.1360 H   0  0  0  0  0  0  0  0  0  0  0  0
   -1.5411   -5.3725   -1.2633 H   0  0  0  0  0  0  0  0  0  0  0  0
   -4.8365   -6.0874    0.1653 H   0  0  0  0  0  0  0  0  0  0  0  0
   -6.9554   -6.0445   -1.1188 H   0  0  0  0  0  0  0  0  0  0  0  0
   -6.9630   -5.1229   -3.3581 H   0  0  0  0  0  0  0  0  0  0  0  0
   -4.8653   -4.2375   -4.3352 H   0  0  0  0  0  0  0  0  0  0  0  0
   -2.7402   -4.2697   -3.0708 H   0  0  0  0  0  0  0  0  0  0  0  0
   -1.5967   -2.7957   -1.4056 H   0  0  0  0  0  0  0  0  0  0  0  0
   -1.9375   -0.4109    1.1194 H   0  0  0  0  0  0  0  0  0  0  0  0
   -3.6373   -0.2116    2.6962 H   0  0  0  0  0  0  0  0  0  0  0  0
   -3.2673   -1.9113    2.4765 H   0  0  0  0  0  0  0  0  0  0  0  0
   -5.1282   -3.2207    0.9625 H   0  0  0  0  0  0  0  0  0  0  0  0
   -7.5589   -3.5059    0.7073 H   0  0  0  0  0  0  0  0  0  0  0  0
   -9.0324   -1.6861    1.3658 H   0  0  0  0  0  0  0  0  0  0  0  0
   -8.0921    0.4255    2.2790 H   0  0  0  0  0  0  0  0  0  0  0  0
   -5.6659    0.6402    2.5134 H   0  0  0  0  0  0  0  0  0  0  0  0
   -4.5462    0.6659    0.2388 H   0  0  0  0  0  0  0  0  0  0  0  0
   -1.7412    3.6552   -0.0396 H   0  0  0  0  0  0  0  0  0  0  0  0
   -3.2009    2.6007    2.4356 H   0  0  0  0  0  0  0  0  0  0  0  0
   -2.0863    3.9757    2.4514 H   0  0  0  0  0  0  0  0  0  0  0  0
   -5.3286    2.6667    1.3962 H   0  0  0  0  0  0  0  0  0  0  0  0
   -7.1152    4.0083    0.5418 H   0  0  0  0  0  0  0  0  0  0  0  0
   -6.7057    6.3436   -0.0842 H   0  0  0  0  0  0  0  0  0  0  0  0
   -4.4893    7.3132    0.1428 H   0  0  0  0  0  0  0  0  0  0  0  0
   -2.5865    5.9430    1.0214 H   0  0  0  0  0  0  0  0  0  0  0  0
   -0.4920    1.2313    0.4034 H   0  0  0  0  0  0  0  0  0  0  0  0
    1.3028    4.1292    2.7286 H   0  0  0  0  0  0  0  0  0  0  0  0
    0.2551    5.1866    0.0556 H   0  0  0  0  0  0  0  0  0  0  0  0
   -0.3856    5.4887    1.7634 H   0  0  0  0  0  0  0  0  0  0  0  0
    1.7026    6.8792    0.5920 H   0  0  0  0  0  0  0  0  0  0  0  0
    1.3614    6.7601    2.3496 H   0  0  0  0  0  0  0  0  0  0  0  0
    3.7187    5.7988    1.3283 H   0  0  0  0  0  0  0  0  0  0  0  0
    2.8593    5.0707    2.7616 H   0  0  0  0  0  0  0  0  0  0  0  0
    1.6197    2.2400   -1.0567 H   0  0  0  0  0  0  0  0  0  0  0  0
    1.3597    4.3601   -2.0312 H   0  0  0  0  0  0  0  0  0  0  0  0
    1.9502    3.1569   -3.1785 H   0  0  0  0  0  0  0  0  0  0  0  0
    4.1043    3.3520   -4.3468 H   0  0  0  0  0  0  0  0  0  0  0  0
    5.9037    4.8184   -5.0183 H   0  0  0  0  0  0  0  0  0  0  0  0
    6.3185    6.9099   -3.9226 H   0  0  0  0  0  0  0  0  0  0  0  0
    4.8535    7.6041   -2.0299 H   0  0  0  0  0  0  0  0  0  0  0  0
    3.0190    6.1521   -1.3200 H   0  0  0  0  0  0  0  0  0  0  0  0
    4.2830    2.0770   -2.3319 H   0  0  0  0  0  0  0  0  0  0  0  0
  1  2  1  0
  2  3  2  3
  2  4  1  0
  4  5  1  0
  5  6  1  0
  6  7  1  0
  7  8  1  0
  8  9  1  0
  9 10  1  0
 10 11  2  0
 10 12  1  0
 12 13  1  0
 13 14  1  0
 14 15  2  0
 15 16  1  0
 16 17  2  0
 17 18  1  0
 18 19  2  0
 12 20  1  0
 20 21  1  0
 21 22  2  0
 21 23  1  0
 23 24  1  0
 24 25  1  0
 25 26  2  0
 26 27  1  0
 27 28  2  0
 28 29  1  0
 29 30  2  0
 23 31  1  0
 31 32  1  0
 32 33  2  0
 32 34  1  0
 34 35  1  0
 35 36  1  0
 36 37  2  0
 37 38  1  0
 38 39  2  0
 39 40  1  0
 40 41  2  0
 34 42  1  0
 42 43  1  0
 43 44  2  0
 43 45  1  0
 45 46  1  0
 46 47  1  0
 47 48  2  0
 48 49  1  0
 49 50  2  0
 50 51  1  0
 51 52  2  0
 45 53  1  0
 53 54  1  0
 54 55  2  0
 54 56  1  0
 56 57  1  0
 57 58  1  0
 58 59  1  0
 59 60  1  0
 60 61  1  0
 61 62  2  0
 61 63  1  0
 63 64  1  0
 64 65  1  0
 65 66  2  0
 66 67  1  0
 67 68  2  0
 68 69  1  0
 69 70  2  0
 63 71  1  0
 71 72  1  0
 72 73  2  0
 72  8  1  0
 19 14  1  0
 30 25  1  0
 41 36  1  0
 52 47  1  0
 60 56  1  0
 70 65  1  0
  1 74  1  0
  1 75  1  0
  3 76  1  0
  4 77  1  0
  5 78  1  0
  5 79  1  0
  6 80  1  0
  6 81  1  0
  7 82  1  0
  7 83  1  0
  8 84  1  1
  9 85  1  0
 12 86  1  1
 13 87  1  0
 13 88  1  0
 15 89  1  0
 16 90  1  0
 17 91  1  0
 18 92  1  0
 19 93  1  0
 20 94  1  0
 23 95  1  1
 24 96  1  0
 24 97  1  0
 26 98  1  0
 27 99  1  0
 28100  1  0
 29101  1  0
 30102  1  0
 31103  1  0
 34104  1  1
 35105  1  0
 35106  1  0
 37107  1  0
 38108  1  0
 39109  1  0
 40110  1  0
 41111  1  0
 42112  1  0
 45113  1  6
 46114  1  0
 46115  1  0
 48116  1  0
 49117  1  0
 50118  1  0
 51119  1  0
 52120  1  0
 53121  1  0
 56122  1  1
 57123  1  0
 57124  1  0
 58125  1  0
 58126  1  0
 59127  1  0
 59128  1  0
 63129  1  1
 64130  1  0
 64131  1  0
 66132  1  0
 67133  1  0
 68134  1  0
 69135  1  0
 70136  1  0
 71137  1  0
M  END
$$$$
[H]c1nn(-c2c([H])c([H])c([H])c([H])c2[H])c([H])c1C(=O)N([H])C1([H])C([H])([H])C([H])([H])N(C(=O)[C@@]([H])(N([H])C(=O)c2c([H])c([H])c(C#N)c([H])c2[H])C([H])([H])C([H])(C([H])([H])[H])C([H])([H])[H])C([H])([H])C1([H])[H]
     RDKit          3D

 70 73  0  0  0  0  0  0  0  0999 V2000
   -3.9768    4.1411    0.0065 C   0  0  0  0  0  0  0  0  0  0  0  0
   -3.9301    2.7079    0.5929 C   0  0  0  0  0  0  0  0  0  0  0  0
   -5.2791    2.4748    1.1685 C   0  0  0  0  0  0  0  0  0  0  0  0
   -3.5011    1.8429   -0.5274 C   0  0  0  0  0  0  0  0  0  0  0  0
   -3.3371    0.3855   -0.2858 C   0  0  2  0  0  0  0  0  0  0  0  0
   -4.5958   -0.2413    0.1461 N   0  0  0  0  0  0  0  0  0  0  0  0
   -5.3287   -1.0822   -0.7257 C   0  0  0  0  0  0  0  0  0  0  0  0
   -4.8809   -1.2785   -1.8770 O   0  0  0  0  0  0  0  0  0  0  0  0
   -6.5749   -1.7223   -0.3327 C   0  0  0  0  0  0  0  0  0  0  0  0
   -7.2809   -2.5146   -1.2474 C   0  0  0  0  0  0  0  0  0  0  0  0
   -8.4527   -3.1515   -0.9517 C   0  0  0  0  0  0  0  0  0  0  0  0
   -8.9735   -3.0115    0.3118 C   0  0  0  0  0  0  0  0  0  0  0  0
   -8.2881   -2.2333    1.2239 C   0  0  0  0  0  0  0  0  0  0  0  0
   -7.1147   -1.5977    0.9221 C   0  0  0  0  0  0  0  0  0  0  0  0
  -10.2094   -3.6813    0.6340 C   0  0  0  0  0  0  0  0  0  0  0  0
  -11.1941   -4.2215    0.8715 N   0  0  0  0  0  0  0  0  0  0  0  0
   -2.3086    0.0310    0.6983 C   0  0  0  0  0  0  0  0  0  0  0  0
   -2.7625   -0.2849    1.8598 O   0  0  0  0  0  0  0  0  0  0  0  0
   -0.9179   -0.0086    0.5355 N   0  0  0  0  0  0  0  0  0  0  0  0
   -0.3310    0.2644   -0.7473 C   0  0  0  0  0  0  0  0  0  0  0  0
    0.9520    1.0738   -0.6187 C   0  0  0  0  0  0  0  0  0  0  0  0
    1.8495    0.2033    0.2680 C   0  0  0  0  0  0  0  0  0  0  0  0
    1.2523    0.2899    1.6543 C   0  0  0  0  0  0  0  0  0  0  0  0
   -0.1187   -0.3232    1.7098 C   0  0  0  0  0  0  0  0  0  0  0  0
    3.2174    0.5850    0.2499 N   0  0  0  0  0  0  0  0  0  0  0  0
    4.2024   -0.3284   -0.1595 C   0  0  0  0  0  0  0  0  0  0  0  0
    3.9186   -1.5143   -0.5253 O   0  0  0  0  0  0  0  0  0  0  0  0
    5.6105    0.0384   -0.1861 C   0  0  0  0  0  0  0  0  0  0  0  0
    6.1396    1.2763    0.1081 C   0  0  0  0  0  0  0  0  0  0  0  0
    7.4948    1.2164   -0.0271 N   0  0  0  0  0  0  0  0  0  0  0  0
    7.8232   -0.0051   -0.3919 N   0  0  0  0  0  0  0  0  0  0  0  0
    6.7010   -0.7620   -0.5019 C   0  0  0  0  0  0  0  0  0  0  0  0
    9.1669   -0.4428   -0.6272 C   0  0  0  0  0  0  0  0  0  0  0  0
    9.7847   -0.2917   -1.8466 C   0  0  0  0  0  0  0  0  0  0  0  0
   11.0825   -0.7285   -2.0420 C   0  0  0  0  0  0  0  0  0  0  0  0
   11.8140   -1.3330   -1.0278 C   0  0  0  0  0  0  0  0  0  0  0  0
   11.1921   -1.4828    0.1932 C   0  0  0  0  0  0  0  0  0  0  0  0
    9.8981   -1.0468    0.3869 C   0  0  0  0  0  0  0  0  0  0  0  0
   -4.1215    4.8855    0.8126 H   0  0  0  0  0  0  0  0  0  0  0  0
   -4.8986    4.1540   -0.6104 H   0  0  0  0  0  0  0  0  0  0  0  0
   -3.1098    4.2994   -0.6319 H   0  0  0  0  0  0  0  0  0  0  0  0
   -3.1903    2.7658    1.4197 H   0  0  0  0  0  0  0  0  0  0  0  0
   -5.7646    3.4702    1.3622 H   0  0  0  0  0  0  0  0  0  0  0  0
   -5.9669    1.9744    0.4545 H   0  0  0  0  0  0  0  0  0  0  0  0
   -5.2577    1.9969    2.1733 H   0  0  0  0  0  0  0  0  0  0  0  0
   -4.3249    1.9248   -1.3152 H   0  0  0  0  0  0  0  0  0  0  0  0
   -2.6151    2.2650   -0.9997 H   0  0  0  0  0  0  0  0  0  0  0  0
   -3.0814   -0.0768   -1.2568 H   0  0  0  0  0  0  0  0  0  0  0  0
   -4.9709   -0.1003    1.0999 H   0  0  0  0  0  0  0  0  0  0  0  0
   -6.8524   -2.6124   -2.2409 H   0  0  0  0  0  0  0  0  0  0  0  0
   -8.9548   -3.7580   -1.7170 H   0  0  0  0  0  0  0  0  0  0  0  0
   -8.7655   -2.1683    2.2115 H   0  0  0  0  0  0  0  0  0  0  0  0
   -6.6530   -1.0141    1.6969 H   0  0  0  0  0  0  0  0  0  0  0  0
   -1.0302    0.6813   -1.4637 H   0  0  0  0  0  0  0  0  0  0  0  0
    0.0402   -0.7506   -1.1161 H   0  0  0  0  0  0  0  0  0  0  0  0
    1.3588    1.2009   -1.6308 H   0  0  0  0  0  0  0  0  0  0  0  0
    0.7055    1.9931   -0.0776 H   0  0  0  0  0  0  0  0  0  0  0  0
    1.7307   -0.8602   -0.0795 H   0  0  0  0  0  0  0  0  0  0  0  0
    1.1645    1.3507    1.9239 H   0  0  0  0  0  0  0  0  0  0  0  0
    1.8819   -0.2292    2.4186 H   0  0  0  0  0  0  0  0  0  0  0  0
   -0.6206    0.0892    2.6264 H   0  0  0  0  0  0  0  0  0  0  0  0
   -0.0049   -1.4157    1.8586 H   0  0  0  0  0  0  0  0  0  0  0  0
    3.5046    1.5408    0.5384 H   0  0  0  0  0  0  0  0  0  0  0  0
    5.5956    2.1640    0.4001 H   0  0  0  0  0  0  0  0  0  0  0  0
    6.6665   -1.8015   -0.7847 H   0  0  0  0  0  0  0  0  0  0  0  0
    9.2278    0.1817   -2.6602 H   0  0  0  0  0  0  0  0  0  0  0  0
   11.5754   -0.6119   -3.0034 H   0  0  0  0  0  0  0  0  0  0  0  0
   12.8347   -1.6664   -1.2141 H   0  0  0  0  0  0  0  0  0  0  0  0
   11.7474   -1.9493    0.9876 H   0  0  0  0  0  0  0  0  0  0  0  0
    9.4062   -1.1662    1.3561 H   0  0  0  0  0  0  0  0  0  0  0  0
  1  2  1  0
  2  3  1  0
  2  4  1  0
  4  5  1  0
  5  6  1  0
  6  7  1  0
  7  8  2  0
  7  9  1  0
  9 10  2  0
 10 11  1  0
 11 12  2  0
 12 13  1  0
 13 14  2  0
 12 15  1  0
 15 16  3  0
  5 17  1  0
 17 18  2  0
 17 19  1  0
 19 20  1  0
 20 21  1  0
 21 22  1  0
 22 23  1  0
 23 24  1  0
 22 25  1  0
 25 26  1  0
 26 27  2  0
 26 28  1  0
 28 29  1  0
 29 30  2  0
 30 31  1  0
 31 32  1  0
 31 33  1  0
 33 34  2  0
 34 35  1  0
 35 36  2  0
 36 37  1  0
 37 38  2  0
 14  9  1  0
 24 19  1  0
 32 28  2  0
 38 33  1  0
  1 39  1  0
  1 40  1  0
  1 41  1  0
  2 42  1  0
  3 43  1  0
  3 44  1  0
  3 45  1  0
  4 46  1  0
  4 47  1  0
  5 48  1  6
  6 49  1  0
 10 50  1  0
 11 51  1  0
 13 52  1  0
 14 53  1  0
 20 54  1  0
 20 55  1  0
 21 56  1  0
 21 57  1  0
 22 58  1  0
 23 59  1  0
 23 60  1  0
 24 61  1  0
 24 62  1  0
 25 63  1  0
 29 64  1  0
 32 65  1  0
 34 66  1  0
 35 67  1  0
 36 68  1  0
 37 69  1  0
 38 70  1  0
M  END
$$$$
[H]c1nc(N([H])c2c([H])c([H])c(N3C([H])([H])C([H])([H])C([H])(N4C([H])([H])C([H])([H])C([H])([H])C4([H])[H])C([H])([H])C3([H])[H])c([H])c2OC([H])([H])[H])nc(N([H])c2c([H])c([H])c([H])c([H])c2S(=O)(=O)C([H])(C([H])([H])[H])C([H])([H])[H])c1Cl
     RDKit          3D

 77 81  0  0  0  0  0  0  0  0999 V2000
    0.8444    1.1735   -3.4882 C   0  0  0  0  0  0  0  0  0  0  0  0
    0.1439    0.9247   -2.3025 O   0  0  0  0  0  0  0  0  0  0  0  0
    0.7822    0.3868   -1.2119 C   0  0  0  0  0  0  0  0  0  0  0  0
    2.1247    0.0964   -1.3057 C   0  0  0  0  0  0  0  0  0  0  0  0
    2.8153   -0.4444   -0.2422 C   0  0  0  0  0  0  0  0  0  0  0  0
    2.1684   -0.7054    0.9431 C   0  0  0  0  0  0  0  0  0  0  0  0
    0.8041   -0.4045    1.0222 C   0  0  0  0  0  0  0  0  0  0  0  0
    0.0946    0.1289   -0.0087 C   0  0  0  0  0  0  0  0  0  0  0  0
   -1.2782    0.4436    0.0285 N   0  0  0  0  0  0  0  0  0  0  0  0
   -2.2158    0.2947    1.0523 C   0  0  0  0  0  0  0  0  0  0  0  0
   -1.9079   -0.2100    2.2386 N   0  0  0  0  0  0  0  0  0  0  0  0
   -2.7961   -0.3635    3.2240 C   0  0  0  0  0  0  0  0  0  0  0  0
   -4.0813    0.0263    2.9742 C   0  0  0  0  0  0  0  0  0  0  0  0
   -5.2951   -0.1412    4.2182 Cl  0  0  0  0  0  0  0  0  0  0  0  0
   -4.4529    0.5671    1.7291 C   0  0  0  0  0  0  0  0  0  0  0  0
   -5.7836    0.9344    1.4634 N   0  0  0  0  0  0  0  0  0  0  0  0
   -6.3139    1.5195    0.2955 C   0  0  0  0  0  0  0  0  0  0  0  0
   -5.5606    2.1541   -0.6571 C   0  0  0  0  0  0  0  0  0  0  0  0
   -6.0806    2.8280   -1.7613 C   0  0  0  0  0  0  0  0  0  0  0  0
   -7.4338    2.8623   -1.9097 C   0  0  0  0  0  0  0  0  0  0  0  0
   -8.2187    2.2364   -0.9751 C   0  0  0  0  0  0  0  0  0  0  0  0
   -7.6979    1.5567    0.1348 C   0  0  0  0  0  0  0  0  0  0  0  0
   -8.8110    0.7276    1.1504 S   0  0  0  0  0  0  0  0  0  0  0  0
   -8.7176    1.1212    2.6121 O   0  0  0  0  0  0  0  0  0  0  0  0
  -10.2307    1.2112    0.7746 O   0  0  0  0  0  0  0  0  0  0  0  0
   -8.8787   -1.0165    0.9527 C   0  0  0  0  0  0  0  0  0  0  0  0
   -7.6434   -1.7952    1.1622 C   0  0  0  0  0  0  0  0  0  0  0  0
   -9.4496   -1.2951   -0.4370 C   0  0  0  0  0  0  0  0  0  0  0  0
   -3.4913    0.6665    0.8456 N   0  0  0  0  0  0  0  0  0  0  0  0
    4.1960   -0.7607   -0.3178 N   0  0  0  0  0  0  0  0  0  0  0  0
    4.9336   -1.1733    0.8819 C   0  0  0  0  0  0  0  0  0  0  0  0
    6.4199   -1.1596    0.6163 C   0  0  0  0  0  0  0  0  0  0  0  0
    6.8115    0.1552   -0.0512 C   0  0  0  0  0  0  0  0  0  0  0  0
    6.0206    0.3973   -1.2880 C   0  0  0  0  0  0  0  0  0  0  0  0
    4.9953   -0.7223   -1.5248 C   0  0  0  0  0  0  0  0  0  0  0  0
    8.2232    0.2736   -0.2312 N   0  0  0  0  0  0  0  0  0  0  0  0
    8.8279   -0.6885   -1.0738 C   0  0  0  0  0  0  0  0  0  0  0  0
    9.5633   -1.6898   -0.2068 C   0  0  0  0  0  0  0  0  0  0  0  0
    9.6882   -0.9817    1.1154 C   0  0  0  0  0  0  0  0  0  0  0  0
    8.9705    0.3394    0.9746 C   0  0  0  0  0  0  0  0  0  0  0  0
    1.2786    0.2534   -3.9436 H   0  0  0  0  0  0  0  0  0  0  0  0
    0.2521    1.7597   -4.2252 H   0  0  0  0  0  0  0  0  0  0  0  0
    1.7405    1.8297   -3.2721 H   0  0  0  0  0  0  0  0  0  0  0  0
    2.6405    0.3088   -2.2572 H   0  0  0  0  0  0  0  0  0  0  0  0
    2.7020   -1.1359    1.8005 H   0  0  0  0  0  0  0  0  0  0  0  0
    0.3661   -0.6318    1.9705 H   0  0  0  0  0  0  0  0  0  0  0  0
   -1.7003    0.8770   -0.8818 H   0  0  0  0  0  0  0  0  0  0  0  0
   -2.5090   -0.7756    4.1686 H   0  0  0  0  0  0  0  0  0  0  0  0
   -6.4448    0.7483    2.2946 H   0  0  0  0  0  0  0  0  0  0  0  0
   -4.4875    2.1799   -0.5950 H   0  0  0  0  0  0  0  0  0  0  0  0
   -5.4582    3.3165   -2.4921 H   0  0  0  0  0  0  0  0  0  0  0  0
   -7.9369    3.3599   -2.7309 H   0  0  0  0  0  0  0  0  0  0  0  0
   -9.3145    2.2697   -1.1049 H   0  0  0  0  0  0  0  0  0  0  0  0
   -9.6419   -1.3897    1.6818 H   0  0  0  0  0  0  0  0  0  0  0  0
   -6.8736   -1.6188    0.3769 H   0  0  0  0  0  0  0  0  0  0  0  0
   -7.8590   -2.9107    1.0478 H   0  0  0  0  0  0  0  0  0  0  0  0
   -7.1554   -1.6284    2.1419 H   0  0  0  0  0  0  0  0  0  0  0  0
   -8.6222   -1.3689   -1.1571 H   0  0  0  0  0  0  0  0  0  0  0  0
  -10.1824   -0.5193   -0.6655 H   0  0  0  0  0  0  0  0  0  0  0  0
   -9.9573   -2.2694   -0.3724 H   0  0  0  0  0  0  0  0  0  0  0  0
    4.6355   -2.2205    1.0843 H   0  0  0  0  0  0  0  0  0  0  0  0
    4.6564   -0.5745    1.7660 H   0  0  0  0  0  0  0  0  0  0  0  0
    6.9138   -1.2598    1.6106 H   0  0  0  0  0  0  0  0  0  0  0  0
    6.7068   -2.0371    0.0389 H   0  0  0  0  0  0  0  0  0  0  0  0
    6.5190    0.9496    0.6967 H   0  0  0  0  0  0  0  0  0  0  0  0
    5.4138    1.3290   -1.2316 H   0  0  0  0  0  0  0  0  0  0  0  0
    6.6594    0.5251   -2.2015 H   0  0  0  0  0  0  0  0  0  0  0  0
    5.5071   -1.7091   -1.5693 H   0  0  0  0  0  0  0  0  0  0  0  0
    4.4546   -0.5000   -2.4387 H   0  0  0  0  0  0  0  0  0  0  0  0
    9.5960   -0.1824   -1.6990 H   0  0  0  0  0  0  0  0  0  0  0  0
    8.1431   -1.1934   -1.7799 H   0  0  0  0  0  0  0  0  0  0  0  0
    9.0162   -2.6556   -0.1333 H   0  0  0  0  0  0  0  0  0  0  0  0
   10.5501   -1.9363   -0.6537 H   0  0  0  0  0  0  0  0  0  0  0  0
    9.3099   -1.5809    1.9603 H   0  0  0  0  0  0  0  0  0  0  0  0
   10.7892   -0.8438    1.3002 H   0  0  0  0  0  0  0  0  0  0  0  0
    9.7787    1.1139    0.8224 H   0  0  0  0  0  0  0  0  0  0  0  0
    8.4248    0.6477    1.8661 H   0  0  0  0  0  0  0  0  0  0  0  0
  1  2  1  0
  2  3  1  0
  3  4  2  0
  4  5  1  0
  5  6  2  0
  6  7  1  0
  7  8  2  0
  8  9  1  0
  9 10  1  0
 10 11  2  0
 11 12  1  0
 12 13  2  0
 13 14  1  0
 13 15  1  0
 15 16  1  0
 16 17  1  0
 17 18  2  0
 18 19  1  0
 19 20  2  0
 20 21  1  0
 21 22  2  0
 22 23  1  0
 23 24  2  0
 23 25  2  0
 23 26  1  0
 26 27  1  0
 26 28  1  0
 15 29  2  0
  5 30  1  0
 30 31  1  0
 31 32  1  0
 32 33  1  0
 33 34  1  0
 34 35  1  0
 33 36  1  0
 36 37  1  0
 37 38  1  0
 38 39  1  0
 39 40  1  0
  8  3  1  0
 29 10  1  0
 35 30  1  0
 40 36  1  0
 22 17  1  0
  1 41  1  0
  1 42  1  0
  1 43  1  0
  4 44  1  0
  6 45  1  0
  7 46  1  0
  9 47  1  0
 12 48  1  0
 16 49  1  0
 18 50  1  0
 19 51  1  0
 20 52  1  0
 21 53  1  0
 26 54  1  0
 27 55  1  0
 27 56  1  0
 27 57  1  0
 28 58  1  0
 28 59  1  0
 28 60  1  0
 31 61  1  0
 31 62  1  0
 32 63  1  0
 32 64  1  0
 33 65  1  0
 34 66  1  0
 34 67  1  0
 35 68  1  0
 35 69  1  0
 37 70  1  0
 37 71  1  0
 38 72  1  0
 38 73  1  0
 39 74  1  0
 39 75  1  0
 40 76  1  0
 40 77  1  0
M  END
$$$$
[H]c1c([H])c(S(=O)(=O)N2C([H])([H])[C@@]3([H])[C@]([H])(N(C([H])([H])[H])C([H])([H])[H])C([H])([H])[C@@]3([H])C2([H])[H])c([H])c([H])c1OC([H])([H])[H]
     RDKit          3D

 43 45  0  0  0  0  0  0  0  0999 V2000
    6.5610    1.6479    0.9679 C   0  0  0  0  0  0  0  0  0  0  0  0
    5.7273    1.8758   -0.1602 O   0  0  0  0  0  0  0  0  0  0  0  0
    4.6413    1.0199   -0.3578 C   0  0  0  0  0  0  0  0  0  0  0  0
    4.3731   -0.0326    0.5222 C   0  0  0  0  0  0  0  0  0  0  0  0
    3.2901   -0.8616    0.2984 C   0  0  0  0  0  0  0  0  0  0  0  0
    2.4612   -0.6614   -0.7950 C   0  0  0  0  0  0  0  0  0  0  0  0
    2.7595    0.3866   -1.6379 C   0  0  0  0  0  0  0  0  0  0  0  0
    3.8342    1.2241   -1.4318 C   0  0  0  0  0  0  0  0  0  0  0  0
    1.1201   -1.7230   -1.0316 S   0  0  0  0  0  0  0  0  0  0  0  0
    1.4963   -3.0845   -0.5185 O   0  0  0  0  0  0  0  0  0  0  0  0
    0.8805   -1.8875   -2.5238 O   0  0  0  0  0  0  0  0  0  0  0  0
   -0.3164   -1.2366   -0.3110 N   0  0  0  0  0  0  0  0  0  0  0  0
   -0.8609    0.0064   -0.7574 C   0  0  0  0  0  0  0  0  0  0  0  0
   -1.9213    0.3031    0.2823 C   0  0  1  0  0  0  0  0  0  0  0  0
   -3.2864   -0.2571   -0.0468 C   0  0  1  0  0  0  0  0  0  0  0  0
   -2.8689   -1.5335    0.6464 C   0  0  0  0  0  0  0  0  0  0  0  0
   -1.8028   -0.7584    1.3489 C   0  0  1  0  0  0  0  0  0  0  0  0
   -0.4133   -1.3131    1.0980 C   0  0  0  0  0  0  0  0  0  0  0  0
   -4.3065    0.4156    0.7104 N   0  0  0  0  0  0  0  0  0  0  0  0
   -4.3887    1.8285    0.3973 C   0  0  0  0  0  0  0  0  0  0  0  0
   -5.5982   -0.2325    0.6273 C   0  0  0  0  0  0  0  0  0  0  0  0
    7.0801    0.6722    0.7705 H   0  0  0  0  0  0  0  0  0  0  0  0
    7.3026    2.4887    1.0124 H   0  0  0  0  0  0  0  0  0  0  0  0
    5.9702    1.6037    1.9104 H   0  0  0  0  0  0  0  0  0  0  0  0
    5.0494   -0.1490    1.3623 H   0  0  0  0  0  0  0  0  0  0  0  0
    3.1241   -1.6685    1.0164 H   0  0  0  0  0  0  0  0  0  0  0  0
    2.1235    0.5437   -2.4798 H   0  0  0  0  0  0  0  0  0  0  0  0
    3.9989    2.0276   -2.1452 H   0  0  0  0  0  0  0  0  0  0  0  0
   -0.1494    0.8162   -0.8965 H   0  0  0  0  0  0  0  0  0  0  0  0
   -1.3265   -0.1838   -1.7654 H   0  0  0  0  0  0  0  0  0  0  0  0
   -1.9221    1.3449    0.6568 H   0  0  0  0  0  0  0  0  0  0  0  0
   -3.4925   -0.3666   -1.1335 H   0  0  0  0  0  0  0  0  0  0  0  0
   -3.6373   -1.9805    1.3060 H   0  0  0  0  0  0  0  0  0  0  0  0
   -2.4270   -2.2388   -0.1023 H   0  0  0  0  0  0  0  0  0  0  0  0
   -2.0078   -0.4338    2.3744 H   0  0  0  0  0  0  0  0  0  0  0  0
    0.2946   -0.7269    1.6771 H   0  0  0  0  0  0  0  0  0  0  0  0
   -0.3512   -2.3645    1.4355 H   0  0  0  0  0  0  0  0  0  0  0  0
   -5.4465    2.1413    0.2459 H   0  0  0  0  0  0  0  0  0  0  0  0
   -3.7947    2.0985   -0.5046 H   0  0  0  0  0  0  0  0  0  0  0  0
   -3.9308    2.3773    1.2459 H   0  0  0  0  0  0  0  0  0  0  0  0
   -6.1826    0.0756   -0.2632 H   0  0  0  0  0  0  0  0  0  0  0  0
   -6.1875    0.1053    1.5206 H   0  0  0  0  0  0  0  0  0  0  0  0
   -5.4690   -1.3088    0.7137 H   0  0  0  0  0  0  0  0  0  0  0  0
  1  2  1  0
  2  3  1  0
  3  4  2  0
  4  5  1  0
  5  6  2  0
  6  7  1  0
  7  8  2  0
  6  9  1  0
  9 10  2  0
  9 11  2  0
  9 12  1  0
 12 13  1  0
 13 14  1  0
 14 15  1  0
 15 16  1  0
 16 17  1  0
 17 18  1  0
 15 19  1  0
 19 20  1  0
 19 21  1  0
  8  3  1  0
 18 12  1  0
 17 14  1  0
  1 22  1  0
  1 23  1  0
  1 24  1  0
  4 25  1  0
  5 26  1  0
  7 27  1  0
  8 28  1  0
 13 29  1  0
 13 30  1  0
 14 31  1  1
 15 32  1  6
 16 33  1  0
 16 34  1  0
 17 35  1  1
 18 36  1  0
 18 37  1  0
 20 38  1  0
 20 39  1  0
 20 40  1  0
 21 41  1  0
 21 42  1  0
 21 43  1  0
M  END
$$$$
[H]c1nn(C([H])([H])[H])c([H])c1-c1c([H])c([H])c2nc(N([H])c3c([H])nc(N4C([H])([H])C([H])([H])N(C([H])([H])[H])C([H])([H])C4([H])[H])c([H])c3[H])nc([H])c2c1[H]
     RDKit          3D

 54 58  0  0  0  0  0  0  0  0999 V2000
   -7.9513    1.8891    0.4780 C   0  0  0  0  0  0  0  0  0  0  0  0
   -7.6365    0.5444    0.9689 N   0  0  0  0  0  0  0  0  0  0  0  0
   -6.4206    0.6759    1.7594 C   0  0  0  0  0  0  0  0  0  0  0  0
   -5.2933    0.8525    0.7319 C   0  0  0  0  0  0  0  0  0  0  0  0
   -5.1219   -0.4619    0.1387 N   0  0  0  0  0  0  0  0  0  0  0  0
   -6.2878   -1.2907    0.0009 C   0  0  0  0  0  0  0  0  0  0  0  0
   -7.5092   -0.3987   -0.0959 C   0  0  0  0  0  0  0  0  0  0  0  0
   -3.8251   -0.9125   -0.2954 C   0  0  0  0  0  0  0  0  0  0  0  0
   -3.6191   -2.1717   -0.7981 C   0  0  0  0  0  0  0  0  0  0  0  0
   -2.3761   -2.5727   -1.2040 C   0  0  0  0  0  0  0  0  0  0  0  0
   -1.2456   -1.7272   -1.1316 C   0  0  0  0  0  0  0  0  0  0  0  0
   -0.0056   -2.2112   -1.5957 N   0  0  0  0  0  0  0  0  0  0  0  0
    1.2472   -1.6943   -1.2320 C   0  0  0  0  0  0  0  0  0  0  0  0
    2.3801   -2.2571   -1.7780 N   0  0  0  0  0  0  0  0  0  0  0  0
    3.6147   -1.8548   -1.4862 C   0  0  0  0  0  0  0  0  0  0  0  0
    3.8332   -0.8269   -0.5997 C   0  0  0  0  0  0  0  0  0  0  0  0
    5.0961   -0.3824   -0.2712 C   0  0  0  0  0  0  0  0  0  0  0  0
    5.2872    0.6490    0.6210 C   0  0  0  0  0  0  0  0  0  0  0  0
    4.1576    1.2162    1.1701 C   0  0  0  0  0  0  0  0  0  0  0  0
    2.8919    0.7796    0.8490 C   0  0  0  0  0  0  0  0  0  0  0  0
    2.7076   -0.2469   -0.0392 C   0  0  0  0  0  0  0  0  0  0  0  0
    1.4862   -0.7029   -0.3783 N   0  0  0  0  0  0  0  0  0  0  0  0
    6.6382    1.0815    0.9356 C   0  0  0  0  0  0  0  0  0  0  0  0
    7.0570    1.6040    2.1410 C   0  0  0  0  0  0  0  0  0  0  0  0
    8.3676    1.8805    2.0366 N   0  0  0  0  0  0  0  0  0  0  0  0
    8.8247    1.5670    0.8315 N   0  0  0  0  0  0  0  0  0  0  0  0
   10.2003    1.7331    0.3675 C   0  0  0  0  0  0  0  0  0  0  0  0
    7.7767    1.0784    0.1510 C   0  0  0  0  0  0  0  0  0  0  0  0
   -1.5025   -0.4854   -0.6256 C   0  0  0  0  0  0  0  0  0  0  0  0
   -2.7559   -0.1095   -0.2261 N   0  0  0  0  0  0  0  0  0  0  0  0
   -7.4362    2.6747    1.0870 H   0  0  0  0  0  0  0  0  0  0  0  0
   -7.5972    1.9844   -0.5744 H   0  0  0  0  0  0  0  0  0  0  0  0
   -9.0365    2.1032    0.5728 H   0  0  0  0  0  0  0  0  0  0  0  0
   -6.2541   -0.3138    2.2351 H   0  0  0  0  0  0  0  0  0  0  0  0
   -6.4818    1.5066    2.4582 H   0  0  0  0  0  0  0  0  0  0  0  0
   -5.6451    1.5565   -0.0487 H   0  0  0  0  0  0  0  0  0  0  0  0
   -4.3558    1.1990    1.2278 H   0  0  0  0  0  0  0  0  0  0  0  0
   -6.2290   -1.8238   -0.9823 H   0  0  0  0  0  0  0  0  0  0  0  0
   -6.3676   -2.0141    0.8483 H   0  0  0  0  0  0  0  0  0  0  0  0
   -8.3860   -1.0890   -0.1489 H   0  0  0  0  0  0  0  0  0  0  0  0
   -7.4300    0.1452   -1.0614 H   0  0  0  0  0  0  0  0  0  0  0  0
   -4.4817   -2.8333   -0.8591 H   0  0  0  0  0  0  0  0  0  0  0  0
   -2.2040   -3.5692   -1.6038 H   0  0  0  0  0  0  0  0  0  0  0  0
   -0.0298   -3.0447   -2.2873 H   0  0  0  0  0  0  0  0  0  0  0  0
    4.4992   -2.3077   -1.9241 H   0  0  0  0  0  0  0  0  0  0  0  0
    5.9418   -0.8638   -0.7328 H   0  0  0  0  0  0  0  0  0  0  0  0
    4.2810    2.0292    1.8750 H   0  0  0  0  0  0  0  0  0  0  0  0
    1.9955    1.2324    1.2875 H   0  0  0  0  0  0  0  0  0  0  0  0
    6.4157    1.7526    2.9985 H   0  0  0  0  0  0  0  0  0  0  0  0
   10.8002    2.2842    1.1185 H   0  0  0  0  0  0  0  0  0  0  0  0
   10.6702    0.7846    0.0765 H   0  0  0  0  0  0  0  0  0  0  0  0
   10.1832    2.3894   -0.5471 H   0  0  0  0  0  0  0  0  0  0  0  0
    7.8247    0.7314   -0.8747 H   0  0  0  0  0  0  0  0  0  0  0  0
   -0.6927    0.2418   -0.5496 H   0  0  0  0  0  0  0  0  0  0  0  0
  1  2  1  0
  2  3  1  0
  3  4  1  0
  4  5  1  0
  5  6  1  0
  6  7  1  0
  5  8  1  0
  8  9  2  0
  9 10  1  0
 10 11  2  0
 11 12  1  0
 12 13  1  0
 13 14  2  0
 14 15  1  0
 15 16  2  0
 16 17  1  0
 17 18  2  0
 18 19  1  0
 19 20  2  0
 20 21  1  0
 21 22  2  0
 18 23  1  0
 23 24  1  0
 24 25  2  0
 25 26  1  0
 26 27  1  0
 26 28  1  0
 11 29  1  0
 29 30  2  0
  7  2  1  0
 30  8  1  0
 22 13  1  0
 28 23  2  0
 21 16  1  0
  1 31  1  0
  1 32  1  0
  1 33  1  0
  3 34  1  0
  3 35  1  0
  4 36  1  0
  4 37  1  0
  6 38  1  0
  6 39  1  0
  7 40  1  0
  7 41  1  0
  9 42  1  0
 10 43  1  0
 12 44  1  0
 15 45  1  0
 17 46  1  0
 19 47  1  0
 20 48  1  0
 24 49  1  0
 27 50  1  0
 27 51  1  0
 27 52  1  0
 28 53  1  0
 29 54  1  0
M  END
$$$$
[H]c1c([H])c([H])c(C([H])([H])OC(=O)N([H])[C@]([H])(C(=O)N([H])[C@]([H])(C(=O)N2C([H])([H])c3c([H])c([H])c([H])c([H])c3C2([H])[H])C([H])([H])c2c([H])c([H])c([H])c([H])c2[H])C([H])([H])C([H])(C([H])([H])[H])C([H])([H])[H])c([H])c1[H]
     RDKit          3D

 73 76  0  0  0  0  0  0  0  0999 V2000
    2.6707    4.2531    2.3368 C   0  0  0  0  0  0  0  0  0  0  0  0
    1.2340    3.9510    2.1593 C   0  0  0  0  0  0  0  0  0  0  0  0
    0.5152    5.1076    1.4260 C   0  0  0  0  0  0  0  0  0  0  0  0
    0.9687    2.6815    1.4279 C   0  0  0  0  0  0  0  0  0  0  0  0
    1.4846    1.4588    2.0974 C   0  0  2  0  0  0  0  0  0  0  0  0
    2.8862    1.3523    2.2939 N   0  0  0  0  0  0  0  0  0  0  0  0
    3.8423    1.2274    1.2665 C   0  0  0  0  0  0  0  0  0  0  0  0
    3.5496    1.2034    0.0362 O   0  0  0  0  0  0  0  0  0  0  0  0
    5.2152    1.1159    1.5172 O   0  0  0  0  0  0  0  0  0  0  0  0
    6.1933    0.9736    0.5263 C   0  0  0  0  0  0  0  0  0  0  0  0
    6.0628   -0.2520   -0.2910 C   0  0  0  0  0  0  0  0  0  0  0  0
    6.7672   -0.3331   -1.4736 C   0  0  0  0  0  0  0  0  0  0  0  0
    6.7126   -1.4533   -2.2924 C   0  0  0  0  0  0  0  0  0  0  0  0
    5.9363   -2.5322   -1.9312 C   0  0  0  0  0  0  0  0  0  0  0  0
    5.2316   -2.4507   -0.7483 C   0  0  0  0  0  0  0  0  0  0  0  0
    5.2856   -1.3263    0.0743 C   0  0  0  0  0  0  0  0  0  0  0  0
    0.9559    0.2542    1.3532 C   0  0  0  0  0  0  0  0  0  0  0  0
    1.7661   -0.6602    0.9820 O   0  0  0  0  0  0  0  0  0  0  0  0
   -0.4055    0.1914    1.1020 N   0  0  0  0  0  0  0  0  0  0  0  0
   -1.0683   -0.9428    0.3620 C   0  0  1  0  0  0  0  0  0  0  0  0
   -1.5923   -1.8465    1.3517 C   0  0  0  0  0  0  0  0  0  0  0  0
   -2.2439   -3.0959    1.0509 C   0  0  0  0  0  0  0  0  0  0  0  0
   -1.5525   -4.2174    0.5787 C   0  0  0  0  0  0  0  0  0  0  0  0
   -2.1391   -5.4435    0.3932 C   0  0  0  0  0  0  0  0  0  0  0  0
   -3.4514   -5.6286    0.6672 C   0  0  0  0  0  0  0  0  0  0  0  0
   -4.1930   -4.5478    1.1410 C   0  0  0  0  0  0  0  0  0  0  0  0
   -3.5719   -3.3281    1.3160 C   0  0  0  0  0  0  0  0  0  0  0  0
   -1.6590   -0.3110   -0.7626 C   0  0  0  0  0  0  0  0  0  0  0  0
   -0.7638    0.5483   -1.3207 O   0  0  0  0  0  0  0  0  0  0  0  0
   -2.8447   -0.2765   -1.4814 N   0  0  0  0  0  0  0  0  0  0  0  0
   -4.1182   -0.9049   -1.3087 C   0  0  0  0  0  0  0  0  0  0  0  0
   -5.1094   -0.1025   -2.1198 C   0  0  0  0  0  0  0  0  0  0  0  0
   -6.4569   -0.1157   -2.1183 C   0  0  0  0  0  0  0  0  0  0  0  0
   -7.1275    0.7489   -2.9644 C   0  0  0  0  0  0  0  0  0  0  0  0
   -6.4336    1.5934   -3.7798 C   0  0  0  0  0  0  0  0  0  0  0  0
   -5.0607    1.5965   -3.7711 C   0  0  0  0  0  0  0  0  0  0  0  0
   -4.3871    0.7323   -2.9256 C   0  0  0  0  0  0  0  0  0  0  0  0
   -2.9511    0.5282   -2.7320 C   0  0  0  0  0  0  0  0  0  0  0  0
    3.1767    3.7002    3.1348 H   0  0  0  0  0  0  0  0  0  0  0  0
    3.2091    4.1934    1.3663 H   0  0  0  0  0  0  0  0  0  0  0  0
    2.7882    5.3475    2.6598 H   0  0  0  0  0  0  0  0  0  0  0  0
    0.6986    3.8773    3.1582 H   0  0  0  0  0  0  0  0  0  0  0  0
   -0.1092    4.6968    0.6090 H   0  0  0  0  0  0  0  0  0  0  0  0
   -0.1149    5.6880    2.1032 H   0  0  0  0  0  0  0  0  0  0  0  0
    1.2696    5.7635    0.9411 H   0  0  0  0  0  0  0  0  0  0  0  0
    1.4050    2.7951    0.3922 H   0  0  0  0  0  0  0  0  0  0  0  0
   -0.1333    2.6367    1.2586 H   0  0  0  0  0  0  0  0  0  0  0  0
    0.9986    1.3837    3.1425 H   0  0  0  0  0  0  0  0  0  0  0  0
    3.3002    1.3543    3.2792 H   0  0  0  0  0  0  0  0  0  0  0  0
    6.0122    1.8289   -0.1935 H   0  0  0  0  0  0  0  0  0  0  0  0
    7.2143    1.0532    0.8909 H   0  0  0  0  0  0  0  0  0  0  0  0
    7.3875    0.5184   -1.7719 H   0  0  0  0  0  0  0  0  0  0  0  0
    7.2559   -1.5378   -3.2205 H   0  0  0  0  0  0  0  0  0  0  0  0
    5.8680   -3.4195   -2.5403 H   0  0  0  0  0  0  0  0  0  0  0  0
    4.6188   -3.3023   -0.4664 H   0  0  0  0  0  0  0  0  0  0  0  0
    4.7321   -1.2744    0.9962 H   0  0  0  0  0  0  0  0  0  0  0  0
   -1.0626    0.9183    1.4139 H   0  0  0  0  0  0  0  0  0  0  0  0
   -0.0800   -1.4885   -0.0096 H   0  0  0  0  0  0  0  0  0  0  0  0
   -0.7044   -2.1270    2.0402 H   0  0  0  0  0  0  0  0  0  0  0  0
   -2.2437   -1.3011    2.1377 H   0  0  0  0  0  0  0  0  0  0  0  0
   -0.5179   -4.0898    0.3574 H   0  0  0  0  0  0  0  0  0  0  0  0
   -1.5197   -6.2527    0.0219 H   0  0  0  0  0  0  0  0  0  0  0  0
   -3.9204   -6.5892    0.5243 H   0  0  0  0  0  0  0  0  0  0  0  0
   -5.2343   -4.7376    1.3473 H   0  0  0  0  0  0  0  0  0  0  0  0
   -4.2334   -2.5401    1.6900 H   0  0  0  0  0  0  0  0  0  0  0  0
   -4.1319   -1.9515   -1.6395 H   0  0  0  0  0  0  0  0  0  0  0  0
   -4.4543   -0.8900   -0.2392 H   0  0  0  0  0  0  0  0  0  0  0  0
   -7.0646   -0.7753   -1.4812 H   0  0  0  0  0  0  0  0  0  0  0  0
   -8.2099    0.7408   -2.9674 H   0  0  0  0  0  0  0  0  0  0  0  0
   -6.9442    2.2925   -4.4604 H   0  0  0  0  0  0  0  0  0  0  0  0
   -4.5003    2.2653   -4.4174 H   0  0  0  0  0  0  0  0  0  0  0  0
   -2.4716    1.5099   -2.5822 H   0  0  0  0  0  0  0  0  0  0  0  0
   -2.4316   -0.0359   -3.5001 H   0  0  0  0  0  0  0  0  0  0  0  0
  1  2  1  0
  2  3  1  0
  2  4  1  0
  4  5  1  0
  5  6  1  0
  6  7  1  0
  7  8  2  0
  7  9  1  0
  9 10  1  0
 10 11  1  0
 11 12  2  0
 12 13  1  0
 13 14  2  0
 14 15  1  0
 15 16  2  0
  5 17  1  0
 17 18  2  0
 17 19  1  0
 19 20  1  0
 20 21  1  0
 21 22  1  0
 22 23  2  0
 23 24  1  0
 24 25  2  0
 25 26  1  0
 26 27  2  0
 20 28  1  0
 28 29  2  0
 28 30  1  0
 30 31  1  0
 31 32  1  0
 32 33  2  0
 33 34  1  0
 34 35  2  0
 35 36  1  0
 36 37  2  0
 37 38  1  0
 16 11  1  0
 27 22  1  0
 38 30  1  0
 37 32  1  0
  1 39  1  0
  1 40  1  0
  1 41  1  0
  2 42  1  0
  3 43  1  0
  3 44  1  0
  3 45  1  0
  4 46  1  0
  4 47  1  0
  5 48  1  1
  6 49  1  0
 10 50  1  0
 10 51  1  0
 12 52  1  0
 13 53  1  0
 14 54  1  0
 15 55  1  0
 16 56  1  0
 19 57  1  0
 20 58  1  6
 21 59  1  0
 21 60  1  0
 23 61  1  0
 24 62  1  0
 25 63  1  0
 26 64  1  0
 27 65  1  0
 31 66  1  0
 31 67  1  0
 33 68  1  0
 34 69  1  0
 35 70  1  0
 36 71  1  0
 38 72  1  0
 38 73  1  0
M  END
$$$$
[H]Oc1c([H])c([H])c(C(=O)N([H])[C@]([H])(C(=O)N([H])[C@]([H])(C(=O)N([H])C([H])([H])c2c([H])c([H])c([H])c([H])c2[H])C([H])([H])c2c([H])n([H])c3c([H])c([H])c([H])c([H])c23)[C@]([H])(C([H])([H])[H])C([H])([H])C([H])([H])[H])c([H])c1F
     RDKit          3D

 73 76  0  0  0  0  0  0  0  0999 V2000
    4.3666   -3.4126    1.8514 C   0  0  0  0  0  0  0  0  0  0  0  0
    3.1519   -2.9304    1.0158 C   0  0  0  0  0  0  0  0  0  0  0  0
    3.5029   -1.5323    0.4859 C   0  0  1  0  0  0  0  0  0  0  0  0
    4.8213   -1.8552   -0.3203 C   0  0  0  0  0  0  0  0  0  0  0  0
    2.5906   -0.9814   -0.5173 C   0  0  2  0  0  0  0  0  0  0  0  0
    2.9387    0.3345   -0.9670 N   0  0  0  0  0  0  0  0  0  0  0  0
    3.9410    1.2004   -0.5964 C   0  0  0  0  0  0  0  0  0  0  0  0
    4.8097    1.0008    0.2978 O   0  0  0  0  0  0  0  0  0  0  0  0
    4.1035    2.5305   -1.2519 C   0  0  0  0  0  0  0  0  0  0  0  0
    3.4860    2.8229   -2.4396 C   0  0  0  0  0  0  0  0  0  0  0  0
    3.6564    4.0850   -3.0158 C   0  0  0  0  0  0  0  0  0  0  0  0
    4.4358    5.0508   -2.4158 C   0  0  0  0  0  0  0  0  0  0  0  0
    4.6317    6.3216   -2.9578 O   0  0  0  0  0  0  0  0  0  0  0  0
    5.0532    4.7507   -1.2235 C   0  0  0  0  0  0  0  0  0  0  0  0
    5.8405    5.6720   -0.5814 F   0  0  0  0  0  0  0  0  0  0  0  0
    4.8741    3.5101   -0.6759 C   0  0  0  0  0  0  0  0  0  0  0  0
    1.1469   -1.0253   -0.3955 C   0  0  0  0  0  0  0  0  0  0  0  0
    0.5700   -0.4691   -1.4623 O   0  0  0  0  0  0  0  0  0  0  0  0
    0.2497   -1.4842    0.5288 N   0  0  0  0  0  0  0  0  0  0  0  0
   -1.2189   -1.3513    0.2751 C   0  0  1  0  0  0  0  0  0  0  0  0
   -1.7485   -2.7310    0.4946 C   0  0  0  0  0  0  0  0  0  0  0  0
   -3.1832   -2.9293    0.3217 C   0  0  0  0  0  0  0  0  0  0  0  0
   -4.0957   -3.1108    1.3658 C   0  0  0  0  0  0  0  0  0  0  0  0
   -5.3249   -3.2859    0.8565 N   0  0  0  0  0  0  0  0  0  0  0  0
   -5.2812   -3.2292   -0.5079 C   0  0  0  0  0  0  0  0  0  0  0  0
   -6.2609   -3.3516   -1.4615 C   0  0  0  0  0  0  0  0  0  0  0  0
   -5.9337   -3.2543   -2.7950 C   0  0  0  0  0  0  0  0  0  0  0  0
   -4.6000   -3.0324   -3.1136 C   0  0  0  0  0  0  0  0  0  0  0  0
   -3.6146   -2.9092   -2.1587 C   0  0  0  0  0  0  0  0  0  0  0  0
   -3.9396   -3.0063   -0.8252 C   0  0  0  0  0  0  0  0  0  0  0  0
   -1.7616   -0.3654    1.2464 C   0  0  0  0  0  0  0  0  0  0  0  0
   -1.0061    0.0742    2.1579 O   0  0  0  0  0  0  0  0  0  0  0  0
   -3.0764    0.1296    1.2271 N   0  0  0  0  0  0  0  0  0  0  0  0
   -3.5815    1.0934    2.1907 C   0  0  0  0  0  0  0  0  0  0  0  0
   -3.0335    2.4390    1.8544 C   0  0  0  0  0  0  0  0  0  0  0  0
   -3.4204    3.1479    0.7450 C   0  0  0  0  0  0  0  0  0  0  0  0
   -2.8910    4.4090    0.4513 C   0  0  0  0  0  0  0  0  0  0  0  0
   -1.9508    4.9661    1.2962 C   0  0  0  0  0  0  0  0  0  0  0  0
   -1.5673    4.2411    2.4146 C   0  0  0  0  0  0  0  0  0  0  0  0
   -2.1055    2.9917    2.6866 C   0  0  0  0  0  0  0  0  0  0  0  0
    5.1920   -3.6930    1.1803 H   0  0  0  0  0  0  0  0  0  0  0  0
    4.0611   -4.3010    2.4367 H   0  0  0  0  0  0  0  0  0  0  0  0
    4.7111   -2.5909    2.4981 H   0  0  0  0  0  0  0  0  0  0  0  0
    2.2690   -2.9327    1.6539 H   0  0  0  0  0  0  0  0  0  0  0  0
    3.0333   -3.6710    0.2142 H   0  0  0  0  0  0  0  0  0  0  0  0
    3.7338   -0.8547    1.3088 H   0  0  0  0  0  0  0  0  0  0  0  0
    4.6863   -2.9247   -0.6556 H   0  0  0  0  0  0  0  0  0  0  0  0
    4.8450   -1.2869   -1.2637 H   0  0  0  0  0  0  0  0  0  0  0  0
    5.6975   -1.7123    0.2936 H   0  0  0  0  0  0  0  0  0  0  0  0
    2.8189   -1.6794   -1.4532 H   0  0  0  0  0  0  0  0  0  0  0  0
    2.2761    0.6960   -1.7459 H   0  0  0  0  0  0  0  0  0  0  0  0
    2.8630    2.1362   -2.9827 H   0  0  0  0  0  0  0  0  0  0  0  0
    3.1815    4.3476   -3.9543 H   0  0  0  0  0  0  0  0  0  0  0  0
    4.2223    6.6233   -3.8172 H   0  0  0  0  0  0  0  0  0  0  0  0
    5.3829    3.3149    0.2706 H   0  0  0  0  0  0  0  0  0  0  0  0
    0.4522   -1.9111    1.4265 H   0  0  0  0  0  0  0  0  0  0  0  0
   -1.3796   -0.9673   -0.7306 H   0  0  0  0  0  0  0  0  0  0  0  0
   -1.1464   -3.3980   -0.2005 H   0  0  0  0  0  0  0  0  0  0  0  0
   -1.4041   -3.0557    1.5191 H   0  0  0  0  0  0  0  0  0  0  0  0
   -3.8814   -3.1165    2.4324 H   0  0  0  0  0  0  0  0  0  0  0  0
   -6.2221   -3.4464    1.3776 H   0  0  0  0  0  0  0  0  0  0  0  0
   -7.2880   -3.5226   -1.1996 H   0  0  0  0  0  0  0  0  0  0  0  0
   -6.6502   -3.3399   -3.5958 H   0  0  0  0  0  0  0  0  0  0  0  0
   -4.3534   -2.9580   -4.1838 H   0  0  0  0  0  0  0  0  0  0  0  0
   -2.5702   -2.7338   -2.4271 H   0  0  0  0  0  0  0  0  0  0  0  0
   -3.7606   -0.1682    0.4980 H   0  0  0  0  0  0  0  0  0  0  0  0
   -3.2008    0.7746    3.2005 H   0  0  0  0  0  0  0  0  0  0  0  0
   -4.6891    1.0981    2.2132 H   0  0  0  0  0  0  0  0  0  0  0  0
   -4.1581    2.7255    0.0696 H   0  0  0  0  0  0  0  0  0  0  0  0
   -3.1978    4.9694   -0.4268 H   0  0  0  0  0  0  0  0  0  0  0  0
   -1.5054    5.9419    1.1166 H   0  0  0  0  0  0  0  0  0  0  0  0
   -0.8267    4.6471    3.1063 H   0  0  0  0  0  0  0  0  0  0  0  0
   -1.7676    2.4652    3.5854 H   0  0  0  0  0  0  0  0  0  0  0  0
  1  2  1  0
  2  3  1  0
  3  4  1  0
  3  5  1  0
  5  6  1  0
  6  7  1  0
  7  8  2  0
  7  9  1  0
  9 10  2  0
 10 11  1  0
 11 12  2  0
 12 13  1  0
 12 14  1  0
 14 15  1  0
 14 16  2  0
  5 17  1  0
 17 18  2  0
 17 19  1  0
 19 20  1  0
 20 21  1  0
 21 22  1  0
 22 23  2  0
 23 24  1  0
 24 25  1  0
 25 26  2  0
 26 27  1  0
 27 28  2  0
 28 29  1  0
 29 30  2  0
 20 31  1  0
 31 32  2  0
 31 33  1  0
 33 34  1  0
 34 35  1  0
 35 36  2  0
 36 37  1  0
 37 38  2  0
 38 39  1  0
 39 40  2  0
 16  9  1  0
 30 22  1  0
 40 35  1  0
 30 25  1  0
  1 41  1  0
  1 42  1  0
  1 43  1  0
  2 44  1  0
  2 45  1  0
  3 46  1  1
  4 47  1  0
  4 48  1  0
  4 49  1  0
  5 50  1  6
  6 51  1  0
 10 52  1  0
 11 53  1  0
 13 54  1  0
 16 55  1  0
 19 56  1  0
 20 57  1  6
 21 58  1  0
 21 59  1  0
 23 60  1  0
 24 61  1  0
 26 62  1  0
 27 63  1  0
 28 64  1  0
 29 65  1  0
 33 66  1  0
 34 67  1  0
 34 68  1  0
 36 69  1  0
 37 70  1  0
 38 71  1  0
 39 72  1  0
 40 73  1  0
M  END
$$$$
[H]c1nc(N2C([H])([H])C([H])([H])N(C([H])([H])[H])C([H])([H])C2([H])[H])c([H])c([H])c1N([H])c1nc([H])c2c(-c3c([H])c([H])c(C#N)c([H])c3[H])nn([H])c2n1
     RDKit          3D

 52 56  0  0  0  0  0  0  0  0999 V2000
   -7.9618   -0.8313   -1.7424 C   0  0  0  0  0  0  0  0  0  0  0  0
   -7.4133   -1.2387   -0.4667 N   0  0  0  0  0  0  0  0  0  0  0  0
   -7.2819   -0.1115    0.4004 C   0  0  0  0  0  0  0  0  0  0  0  0
   -6.0415    0.7032    0.0256 C   0  0  0  0  0  0  0  0  0  0  0  0
   -4.9023   -0.1608    0.2014 N   0  0  0  0  0  0  0  0  0  0  0  0
   -5.1060   -1.5816    0.2947 C   0  0  0  0  0  0  0  0  0  0  0  0
   -6.2462   -2.0500   -0.5806 C   0  0  0  0  0  0  0  0  0  0  0  0
   -3.5880    0.3537    0.2839 C   0  0  0  0  0  0  0  0  0  0  0  0
   -3.3400    1.7291    0.1920 C   0  0  0  0  0  0  0  0  0  0  0  0
   -2.0718    2.2266    0.2713 C   0  0  0  0  0  0  0  0  0  0  0  0
   -1.0018    1.3309    0.4489 C   0  0  0  0  0  0  0  0  0  0  0  0
    0.2933    1.8503    0.5500 N   0  0  0  0  0  0  0  0  0  0  0  0
    1.5345    1.1991    0.3494 C   0  0  0  0  0  0  0  0  0  0  0  0
    2.6928    1.9224    0.5210 N   0  0  0  0  0  0  0  0  0  0  0  0
    3.8916    1.3604    0.3275 C   0  0  0  0  0  0  0  0  0  0  0  0
    4.0435    0.0464   -0.0490 C   0  0  0  0  0  0  0  0  0  0  0  0
    5.0942   -0.8000   -0.3178 C   0  0  0  0  0  0  0  0  0  0  0  0
    4.5517   -1.9878   -0.6378 N   0  0  0  0  0  0  0  0  0  0  0  0
    3.2453   -1.9340   -0.5857 N   0  0  0  0  0  0  0  0  0  0  0  0
    2.8736   -0.6953   -0.2255 C   0  0  0  0  0  0  0  0  0  0  0  0
    1.7242   -0.0631   -0.0135 N   0  0  0  0  0  0  0  0  0  0  0  0
    6.4956   -0.4068   -0.2435 C   0  0  0  0  0  0  0  0  0  0  0  0
    7.4220   -1.2275    0.3996 C   0  0  0  0  0  0  0  0  0  0  0  0
    8.7535   -0.8751    0.4780 C   0  0  0  0  0  0  0  0  0  0  0  0
    9.2363    0.2964   -0.0699 C   0  0  0  0  0  0  0  0  0  0  0  0
    8.3256    1.1133   -0.7076 C   0  0  0  0  0  0  0  0  0  0  0  0
    6.9881    0.7604   -0.7871 C   0  0  0  0  0  0  0  0  0  0  0  0
   10.6241    0.6616    0.0130 C   0  0  0  0  0  0  0  0  0  0  0  0
   11.7395    0.9660    0.0709 N   0  0  0  0  0  0  0  0  0  0  0  0
   -1.2701   -0.0115    0.5367 C   0  0  0  0  0  0  0  0  0  0  0  0
   -2.5447   -0.4703    0.4532 N   0  0  0  0  0  0  0  0  0  0  0  0
   -8.9859   -0.4454   -1.6317 H   0  0  0  0  0  0  0  0  0  0  0  0
   -7.3135   -0.1218   -2.2915 H   0  0  0  0  0  0  0  0  0  0  0  0
   -8.0152   -1.7455   -2.3924 H   0  0  0  0  0  0  0  0  0  0  0  0
   -7.1641   -0.5096    1.4445 H   0  0  0  0  0  0  0  0  0  0  0  0
   -8.1535    0.5488    0.3331 H   0  0  0  0  0  0  0  0  0  0  0  0
   -6.1225    0.9503   -1.0323 H   0  0  0  0  0  0  0  0  0  0  0  0
   -5.9553    1.5995    0.6744 H   0  0  0  0  0  0  0  0  0  0  0  0
   -4.1904   -2.0837   -0.0855 H   0  0  0  0  0  0  0  0  0  0  0  0
   -5.2194   -1.9263    1.3476 H   0  0  0  0  0  0  0  0  0  0  0  0
   -5.8628   -2.1247   -1.6317 H   0  0  0  0  0  0  0  0  0  0  0  0
   -6.4960   -3.0833   -0.2564 H   0  0  0  0  0  0  0  0  0  0  0  0
   -4.1863    2.3996    0.0546 H   0  0  0  0  0  0  0  0  0  0  0  0
   -1.8453    3.2812    0.2031 H   0  0  0  0  0  0  0  0  0  0  0  0
    0.3413    2.8944    0.8264 H   0  0  0  0  0  0  0  0  0  0  0  0
    4.7918    1.9723    0.4770 H   0  0  0  0  0  0  0  0  0  0  0  0
    2.5981   -2.7085   -0.7861 H   0  0  0  0  0  0  0  0  0  0  0  0
    7.0373   -2.1550    0.8328 H   0  0  0  0  0  0  0  0  0  0  0  0
    9.4675   -1.5232    0.9821 H   0  0  0  0  0  0  0  0  0  0  0  0
    8.7002    2.0410   -1.1431 H   0  0  0  0  0  0  0  0  0  0  0  0
    6.2871    1.4248   -1.3006 H   0  0  0  0  0  0  0  0  0  0  0  0
   -0.4727   -0.7592    0.6900 H   0  0  0  0  0  0  0  0  0  0  0  0
  1  2  1  0
  2  3  1  0
  3  4  1  0
  4  5  1  0
  5  6  1  0
  6  7  1  0
  5  8  1  0
  8  9  2  0
  9 10  1  0
 10 11  2  0
 11 12  1  0
 12 13  1  0
 13 14  2  0
 14 15  1  0
 15 16  2  0
 16 17  1  0
 17 18  2  0
 18 19  1  0
 19 20  1  0
 20 21  2  0
 17 22  1  0
 22 23  2  0
 23 24  1  0
 24 25  2  0
 25 26  1  0
 26 27  2  0
 25 28  1  0
 28 29  3  0
 11 30  1  0
 30 31  2  0
  7  2  1  0
 31  8  1  0
 21 13  1  0
 27 22  1  0
 20 16  1  0
  1 32  1  0
  1 33  1  0
  1 34  1  0
  3 35  1  0
  3 36  1  0
  4 37  1  0
  4 38  1  0
  6 39  1  0
  6 40  1  0
  7 41  1  0
  7 42  1  0
  9 43  1  0
 10 44  1  0
 12 45  1  0
 15 46  1  0
 19 47  1  0
 23 48  1  0
 24 49  1  0
 26 50  1  0
 27 51  1  0
 30 52  1  0
M  END
$$$$
[H]N=C(N([H])[H])N([H])C([H])([H])C([H])([H])C([H])([H])[C@@]([H])(C(=O)N([H])[C@]([H])(C(=O)N([H])[H])C([H])([H])c1c([H])n([H])c2c([H])c([H])c([H])c([H])c12)N([H])C(=O)[C@@]([H])(N([H])C(=O)[C@@]([H])(N([H])C(=O)OC(C([H])([H])[H])(C([H])([H])[H])C([H])([H])[H])C([H])([H])c1c([H])c([H])c([H])c([H])c1[H])C([H])([H])C([H])([H])C([H])([H])N([H])C(=N[H])N([H])[H]
     RDKit          2D

109111  0  0  0  0  0  0  0  0999 V2000
   15.2010   12.3291    0.0000 C   0  0  0  0  0  0  0  0  0  0  0  0
   15.5129   10.8619    0.0000 C   0  0  0  0  0  0  0  0  0  0  0  0
   15.8248    9.3947    0.0000 C   0  0  0  0  0  0  0  0  0  0  0  0
   16.9801   11.1738    0.0000 C   0  0  0  0  0  0  0  0  0  0  0  0
   14.0457   10.5501    0.0000 O   0  0  0  0  0  0  0  0  0  0  0  0
   13.5821    9.1235    0.0000 C   0  0  0  0  0  0  0  0  0  0  0  0
   14.1748    8.4652    0.0000 O   0  0  0  0  0  0  0  0  0  0  0  0
   12.1149    8.8116    0.0000 N   0  0  0  0  0  0  0  0  0  0  0  0
   11.6514    7.3850    0.0000 C   0  0  0  0  0  0  0  0  0  0  0  0
   13.0780    6.9215    0.0000 C   0  0  0  0  0  0  0  0  0  0  0  0
   14.5046    6.4580    0.0000 C   0  0  0  0  0  0  0  0  0  0  0  0
   14.8164    4.9907    0.0000 C   0  0  0  0  0  0  0  0  0  0  0  0
   16.2430    4.5272    0.0000 C   0  0  0  0  0  0  0  0  0  0  0  0
   17.3577    5.5309    0.0000 C   0  0  0  0  0  0  0  0  0  0  0  0
   17.0459    6.9981    0.0000 C   0  0  0  0  0  0  0  0  0  0  0  0
   15.6193    7.4617    0.0000 C   0  0  0  0  0  0  0  0  0  0  0  0
   10.2248    7.8485    0.0000 C   0  0  0  0  0  0  0  0  0  0  0  0
   10.0941    9.3428    0.0000 O   0  0  0  0  0  0  0  0  0  0  0  0
    9.1101    6.8449    0.0000 N   0  0  0  0  0  0  0  0  0  0  0  0
    7.6835    7.3084    0.0000 C   0  0  0  0  0  0  0  0  0  0  0  0
    8.1470    8.7350    0.0000 C   0  0  0  0  0  0  0  0  0  0  0  0
    8.6106   10.1615    0.0000 C   0  0  0  0  0  0  0  0  0  0  0  0
    9.0741   11.5881    0.0000 C   0  0  0  0  0  0  0  0  0  0  0  0
    9.5376   13.0147    0.0000 N   0  0  0  0  0  0  0  0  0  0  0  0
   11.0048   13.3266    0.0000 C   0  0  0  0  0  0  0  0  0  0  0  0
   12.0085   12.2119    0.0000 N   0  0  0  0  0  0  0  0  0  0  0  0
   11.4684   14.7532    0.0000 N   0  0  0  0  0  0  0  0  0  0  0  0
    7.2200    5.8818    0.0000 C   0  0  0  0  0  0  0  0  0  0  0  0
    8.3521    4.8977    0.0000 O   0  0  0  0  0  0  0  0  0  0  0  0
    5.7528    5.5699    0.0000 N   0  0  0  0  0  0  0  0  0  0  0  0
    5.2892    4.1433    0.0000 C   0  0  0  0  0  0  0  0  0  0  0  0
    6.7158    3.6798    0.0000 C   0  0  0  0  0  0  0  0  0  0  0  0
    8.1424    3.2163    0.0000 C   0  0  0  0  0  0  0  0  0  0  0  0
    9.5690    2.7528    0.0000 C   0  0  0  0  0  0  0  0  0  0  0  0
   10.9956    2.2892    0.0000 N   0  0  0  0  0  0  0  0  0  0  0  0
   12.1103    3.2929    0.0000 C   0  0  0  0  0  0  0  0  0  0  0  0
   11.7984    4.7602    0.0000 N   0  0  0  0  0  0  0  0  0  0  0  0
   13.5369    2.8294    0.0000 N   0  0  0  0  0  0  0  0  0  0  0  0
    3.8627    4.6069    0.0000 C   0  0  0  0  0  0  0  0  0  0  0  0
    3.7674    5.6962    0.0000 O   0  0  0  0  0  0  0  0  0  0  0  0
    2.7479    3.6032    0.0000 N   0  0  0  0  0  0  0  0  0  0  0  0
    1.3213    4.0667    0.0000 C   0  0  0  0  0  0  0  0  0  0  0  0
    0.8578    2.6401    0.0000 C   0  0  0  0  0  0  0  0  0  0  0  0
    0.3943    1.2135    0.0000 C   0  0  0  0  0  0  0  0  0  0  0  0
    1.2760    0.0000    0.0000 C   0  0  0  0  0  0  0  0  0  0  0  0
    0.3943   -1.2135    0.0000 N   0  0  0  0  0  0  0  0  0  0  0  0
   -1.0323   -0.7500    0.0000 C   0  0  0  0  0  0  0  0  0  0  0  0
   -2.3313   -1.5000    0.0000 C   0  0  0  0  0  0  0  0  0  0  0  0
   -3.6304   -0.7500    0.0000 C   0  0  0  0  0  0  0  0  0  0  0  0
   -3.6304    0.7500    0.0000 C   0  0  0  0  0  0  0  0  0  0  0  0
   -2.3313    1.5000    0.0000 C   0  0  0  0  0  0  0  0  0  0  0  0
   -1.0323    0.7500    0.0000 C   0  0  0  0  0  0  0  0  0  0  0  0
    1.7849    5.4933    0.0000 C   0  0  0  0  0  0  0  0  0  0  0  0
    0.7812    6.6080    0.0000 N   0  0  0  0  0  0  0  0  0  0  0  0
    2.8188    5.8493    0.0000 O   0  0  0  0  0  0  0  0  0  0  0  0
   14.8892   13.7964    0.0000 H   0  0  0  0  0  0  0  0  0  0  0  0
   16.3498   12.7247    0.0000 H   0  0  0  0  0  0  0  0  0  0  0  0
   13.7067   12.1985    0.0000 H   0  0  0  0  0  0  0  0  0  0  0  0
   16.4824    8.0465    0.0000 H   0  0  0  0  0  0  0  0  0  0  0  0
   16.7071    9.4719    0.0000 H   0  0  0  0  0  0  0  0  0  0  0  0
   15.0287    9.0064    0.0000 H   0  0  0  0  0  0  0  0  0  0  0  0
   18.4473   11.4857    0.0000 H   0  0  0  0  0  0  0  0  0  0  0  0
   17.2685   10.3363    0.0000 H   0  0  0  0  0  0  0  0  0  0  0  0
   16.8742   12.3842    0.0000 H   0  0  0  0  0  0  0  0  0  0  0  0
   11.1112    9.9263    0.0000 H   0  0  0  0  0  0  0  0  0  0  0  0
   11.1879    5.9584    0.0000 H   0  0  0  0  0  0  0  0  0  0  0  0
   12.7918    5.4490    0.0000 H   0  0  0  0  0  0  0  0  0  0  0  0
   13.8729    8.1935    0.0000 H   0  0  0  0  0  0  0  0  0  0  0  0
   13.7017    3.9871    0.0000 H   0  0  0  0  0  0  0  0  0  0  0  0
   16.5549    3.0600    0.0000 H   0  0  0  0  0  0  0  0  0  0  0  0
   18.7843    5.0674    0.0000 H   0  0  0  0  0  0  0  0  0  0  0  0
   18.1606    8.0018    0.0000 H   0  0  0  0  0  0  0  0  0  0  0  0
   14.9617    8.8098    0.0000 H   0  0  0  0  0  0  0  0  0  0  0  0
    9.4220    5.3776    0.0000 H   0  0  0  0  0  0  0  0  0  0  0  0
    6.2569    7.7719    0.0000 H   0  0  0  0  0  0  0  0  0  0  0  0
    6.7204    9.1985    0.0000 H   0  0  0  0  0  0  0  0  0  0  0  0
    9.6434    8.6304    0.0000 H   0  0  0  0  0  0  0  0  0  0  0  0
   10.0830    9.8754    0.0000 H   0  0  0  0  0  0  0  0  0  0  0  0
    7.1840   10.6251    0.0000 H   0  0  0  0  0  0  0  0  0  0  0  0
    7.6475   12.0517    0.0000 H   0  0  0  0  0  0  0  0  0  0  0  0
   10.5007   11.1246    0.0000 H   0  0  0  0  0  0  0  0  0  0  0  0
    8.5339   14.1294    0.0000 H   0  0  0  0  0  0  0  0  0  0  0  0
   13.4268   12.7003    0.0000 H   0  0  0  0  0  0  0  0  0  0  0  0
   11.5450   10.7853    0.0000 H   0  0  0  0  0  0  0  0  0  0  0  0
   12.9356   15.0650    0.0000 H   0  0  0  0  0  0  0  0  0  0  0  0
    4.7491    6.6846    0.0000 H   0  0  0  0  0  0  0  0  0  0  0  0
    4.8257    2.7168    0.0000 H   0  0  0  0  0  0  0  0  0  0  0  0
    6.2523    2.2532    0.0000 H   0  0  0  0  0  0  0  0  0  0  0  0
    7.5108    4.9518    0.0000 H   0  0  0  0  0  0  0  0  0  0  0  0
    7.6789    1.7897    0.0000 H   0  0  0  0  0  0  0  0  0  0  0  0
    8.7764    4.5757    0.0000 H   0  0  0  0  0  0  0  0  0  0  0  0
    9.1055    1.3262    0.0000 H   0  0  0  0  0  0  0  0  0  0  0  0
   10.0325    4.1793    0.0000 H   0  0  0  0  0  0  0  0  0  0  0  0
   11.3074    0.8220    0.0000 H   0  0  0  0  0  0  0  0  0  0  0  0
   13.0272    5.6205    0.0000 H   0  0  0  0  0  0  0  0  0  0  0  0
   10.3718    5.2237    0.0000 H   0  0  0  0  0  0  0  0  0  0  0  0
   14.6516    3.8331    0.0000 H   0  0  0  0  0  0  0  0  0  0  0  0
    3.2363    2.1849    0.0000 H   0  0  0  0  0  0  0  0  0  0  0  0
   -0.1052    4.5302    0.0000 H   0  0  0  0  0  0  0  0  0  0  0  0
    2.2173    2.0061    0.0000 H   0  0  0  0  0  0  0  0  0  0  0  0
   -0.5688    3.1036    0.0000 H   0  0  0  0  0  0  0  0  0  0  0  0
    2.7760    0.0000    0.0000 H   0  0  0  0  0  0  0  0  0  0  0  0
    0.8578   -2.6401    0.0000 H   0  0  0  0  0  0  0  0  0  0  0  0
   -2.3313   -3.0000    0.0000 H   0  0  0  0  0  0  0  0  0  0  0  0
   -4.9294   -1.5000    0.0000 H   0  0  0  0  0  0  0  0  0  0  0  0
   -4.9294    1.5000    0.0000 H   0  0  0  0  0  0  0  0  0  0  0  0
   -2.3313    3.0000    0.0000 H   0  0  0  0  0  0  0  0  0  0  0  0
    1.2447    8.0346    0.0000 H   0  0  0  0  0  0  0  0  0  0  0  0
   -0.6860    6.2961    0.0000 H   0  0  0  0  0  0  0  0  0  0  0  0
  1  2  1  0
  2  3  1  0
  2  4  1  0
  2  5  1  0
  5  6  1  0
  6  7  2  0
  6  8  1  0
  8  9  1  0
  9 10  1  0
 10 11  1  0
 11 12  2  0
 12 13  1  0
 13 14  2  0
 14 15  1  0
 15 16  2  0
  9 17  1  0
 17 18  2  0
 17 19  1  0
 19 20  1  0
 20 21  1  0
 21 22  1  0
 22 23  1  0
 23 24  1  0
 24 25  1  0
 25 26  1  0
 25 27  2  3
 20 28  1  0
 28 29  2  0
 28 30  1  0
 30 31  1  0
 31 32  1  0
 32 33  1  0
 33 34  1  0
 34 35  1  0
 35 36  1  0
 36 37  1  0
 36 38  2  3
 31 39  1  0
 39 40  2  0
 39 41  1  0
 41 42  1  0
 42 43  1  0
 43 44  1  0
 44 45  2  0
 45 46  1  0
 46 47  1  0
 47 48  2  0
 48 49  1  0
 49 50  2  0
 50 51  1  0
 51 52  2  0
 42 53  1  0
 53 54  1  0
 53 55  2  0
 16 11  1  0
 52 44  1  0
 52 47  1  0
  1 56  1  0
  1 57  1  0
  1 58  1  0
  3 59  1  0
  3 60  1  0
  3 61  1  0
  4 62  1  0
  4 63  1  0
  4 64  1  0
  8 65  1  0
  9 66  1  6
 10 67  1  0
 10 68  1  0
 12 69  1  0
 13 70  1  0
 14 71  1  0
 15 72  1  0
 16 73  1  0
 19 74  1  0
 20 75  1  1
 21 76  1  0
 21 77  1  0
 22 78  1  0
 22 79  1  0
 23 80  1  0
 23 81  1  0
 24 82  1  0
 26 83  1  0
 26 84  1  0
 27 85  1  0
 30 86  1  0
 31 87  1  6
 32 88  1  0
 32 89  1  0
 33 90  1  0
 33 91  1  0
 34 92  1  0
 34 93  1  0
 35 94  1  0
 37 95  1  0
 37 96  1  0
 38 97  1  0
 41 98  1  0
 42 99  1  6
 43100  1  0
 43101  1  0
 45102  1  0
 46103  1  0
 48104  1  0
 49105  1  0
 50106  1  0
 51107  1  0
 54108  1  0
 54109  1  0
M  END
$$$$
[H]OC(=O)[C@@]([H])(N([H])C(=O)[C@@]([H])(N([H])C(=O)[C@@]([H])(N([H])C(=O)[C@@]([H])(N([H])C(=O)[C@@]([H])(N([H])C(=O)OC([H])([H])c1c([H])c([H])c([H])c([H])c1[H])C([H])([H])c1c([H])c([H])c([H])c([H])c1[H])C([H])([H])C([H])(C([H])([H])[H])C([H])([H])[H])C([H])([H])C([H])(C([H])([H])[H])C([H])([H])[H])C([H])([H])C([H])(C([H])([H])[H])C([H])([H])[H])C([H])([H])c1c([H])c([H])c([H])c([H])c1[H]
     RDKit          3D

116118  0  0  0  0  0  0  0  0999 V2000
    3.8865   -1.9927   -2.9945 C   0  0  0  0  0  0  0  0  0  0  0  0
    2.6863   -1.1488   -3.1612 C   0  0  0  0  0  0  0  0  0  0  0  0
    1.4792   -2.0802   -3.1429 C   0  0  0  0  0  0  0  0  0  0  0  0
    2.5506    0.0719   -2.3859 C   0  0  0  0  0  0  0  0  0  0  0  0
    2.5187    0.0857   -0.8980 C   0  0  2  0  0  0  0  0  0  0  0  0
    3.6957   -0.4504   -0.2691 N   0  0  0  0  0  0  0  0  0  0  0  0
    4.5699    0.3996    0.4543 C   0  0  0  0  0  0  0  0  0  0  0  0
    4.2661    1.6575    0.5398 O   0  0  0  0  0  0  0  0  0  0  0  0
    5.7978   -0.0345    1.1031 C   0  0  2  0  0  0  0  0  0  0  0  0
    5.6480   -0.8629    2.3282 C   0  0  0  0  0  0  0  0  0  0  0  0
    4.9631   -2.1372    2.1711 C   0  0  0  0  0  0  0  0  0  0  0  0
    3.6139   -2.3238    2.5314 C   0  0  0  0  0  0  0  0  0  0  0  0
    2.9830   -3.5344    2.3942 C   0  0  0  0  0  0  0  0  0  0  0  0
    3.6972   -4.6188    1.8812 C   0  0  0  0  0  0  0  0  0  0  0  0
    5.0051   -4.4545    1.5267 C   0  0  0  0  0  0  0  0  0  0  0  0
    5.6455   -3.2483    1.6592 C   0  0  0  0  0  0  0  0  0  0  0  0
    6.5684    1.1904    1.4977 N   0  0  0  0  0  0  0  0  0  0  0  0
    7.8842    1.3980    1.0800 C   0  0  0  0  0  0  0  0  0  0  0  0
    8.5302    0.5751    0.3378 O   0  0  0  0  0  0  0  0  0  0  0  0
    8.6190    2.5292    1.4393 O   0  0  0  0  0  0  0  0  0  0  0  0
    9.9402    2.7897    1.0634 C   0  0  0  0  0  0  0  0  0  0  0  0
   10.1257    2.8828   -0.4187 C   0  0  0  0  0  0  0  0  0  0  0  0
   11.3894    2.7053   -0.9484 C   0  0  0  0  0  0  0  0  0  0  0  0
   11.5628    2.8024   -2.3289 C   0  0  0  0  0  0  0  0  0  0  0  0
   10.5086    3.0699   -3.1721 C   0  0  0  0  0  0  0  0  0  0  0  0
    9.2418    3.2493   -2.6614 C   0  0  0  0  0  0  0  0  0  0  0  0
    9.0794    3.1506   -1.2786 C   0  0  0  0  0  0  0  0  0  0  0  0
    1.2585   -0.3734   -0.3239 C   0  0  0  0  0  0  0  0  0  0  0  0
    1.1268   -1.5659    0.0191 O   0  0  0  0  0  0  0  0  0  0  0  0
    0.1250    0.4733   -0.1224 N   0  0  0  0  0  0  0  0  0  0  0  0
   -1.1329    0.0353    0.4204 C   0  0  1  0  0  0  0  0  0  0  0  0
   -1.4397    0.5917    1.7838 C   0  0  0  0  0  0  0  0  0  0  0  0
   -0.5348    0.3277    2.9041 C   0  0  0  0  0  0  0  0  0  0  0  0
   -0.2855   -1.0680    3.3248 C   0  0  0  0  0  0  0  0  0  0  0  0
    0.8068    1.0645    2.8199 C   0  0  0  0  0  0  0  0  0  0  0  0
   -2.2572    0.5274   -0.5149 C   0  0  0  0  0  0  0  0  0  0  0  0
   -2.0055    1.3984   -1.3469 O   0  0  0  0  0  0  0  0  0  0  0  0
   -3.5069   -0.0541   -0.3499 N   0  0  0  0  0  0  0  0  0  0  0  0
   -4.7020    0.2860   -1.0959 C   0  0  1  0  0  0  0  0  0  0  0  0
   -5.1218   -0.7617   -2.0851 C   0  0  0  0  0  0  0  0  0  0  0  0
   -4.1140   -1.0614   -3.1669 C   0  0  0  0  0  0  0  0  0  0  0  0
   -4.7352   -2.1707   -4.0277 C   0  0  0  0  0  0  0  0  0  0  0  0
   -3.9575    0.1173   -4.1093 C   0  0  0  0  0  0  0  0  0  0  0  0
   -5.7857    0.3947   -0.0711 C   0  0  0  0  0  0  0  0  0  0  0  0
   -5.4537    0.6382    1.1269 O   0  0  0  0  0  0  0  0  0  0  0  0
   -7.1663    0.2371   -0.3311 N   0  0  0  0  0  0  0  0  0  0  0  0
   -8.1477    0.3366    0.7497 C   0  0  1  0  0  0  0  0  0  0  0  0
   -9.2751    1.2275    0.4106 C   0  0  0  0  0  0  0  0  0  0  0  0
  -10.3203    1.3911    1.4179 C   0  0  0  0  0  0  0  0  0  0  0  0
  -10.1804    2.3236    2.4138 C   0  0  0  0  0  0  0  0  0  0  0  0
  -11.1769    2.4777    3.3159 C   0  0  0  0  0  0  0  0  0  0  0  0
  -12.3606    1.7410    3.3073 C   0  0  0  0  0  0  0  0  0  0  0  0
  -12.4814    0.8046    2.2929 C   0  0  0  0  0  0  0  0  0  0  0  0
  -11.4716    0.6399    1.3673 C   0  0  0  0  0  0  0  0  0  0  0  0
   -8.5918   -1.0316    1.0729 C   0  0  0  0  0  0  0  0  0  0  0  0
   -9.4309   -1.3135    2.1364 O   0  0  0  0  0  0  0  0  0  0  0  0
   -8.1984   -2.0092    0.3645 O   0  0  0  0  0  0  0  0  0  0  0  0
    3.6530   -2.9907   -2.5127 H   0  0  0  0  0  0  0  0  0  0  0  0
    4.7850   -1.5079   -2.5840 H   0  0  0  0  0  0  0  0  0  0  0  0
    4.2176   -2.3426   -4.0273 H   0  0  0  0  0  0  0  0  0  0  0  0
    2.6964   -0.7912   -4.2558 H   0  0  0  0  0  0  0  0  0  0  0  0
    1.5996   -2.9201   -2.4462 H   0  0  0  0  0  0  0  0  0  0  0  0
    1.3595   -2.5439   -4.1505 H   0  0  0  0  0  0  0  0  0  0  0  0
    0.5635   -1.4809   -2.9835 H   0  0  0  0  0  0  0  0  0  0  0  0
    1.6009    0.5926   -2.7285 H   0  0  0  0  0  0  0  0  0  0  0  0
    3.3607    0.7901   -2.7165 H   0  0  0  0  0  0  0  0  0  0  0  0
    2.5195    1.2056   -0.6412 H   0  0  0  0  0  0  0  0  0  0  0  0
    3.9111   -1.4433   -0.3541 H   0  0  0  0  0  0  0  0  0  0  0  0
    6.4955   -0.6036    0.4141 H   0  0  0  0  0  0  0  0  0  0  0  0
    6.6617   -1.0110    2.8071 H   0  0  0  0  0  0  0  0  0  0  0  0
    5.0039   -0.2758    3.0750 H   0  0  0  0  0  0  0  0  0  0  0  0
    3.0767   -1.4786    2.9395 H   0  0  0  0  0  0  0  0  0  0  0  0
    1.9581   -3.6669    2.6632 H   0  0  0  0  0  0  0  0  0  0  0  0
    3.2130   -5.5824    1.7687 H   0  0  0  0  0  0  0  0  0  0  0  0
    5.6079   -5.2748    1.1218 H   0  0  0  0  0  0  0  0  0  0  0  0
    6.6911   -3.0908    1.3826 H   0  0  0  0  0  0  0  0  0  0  0  0
    6.0794    1.8796    2.1000 H   0  0  0  0  0  0  0  0  0  0  0  0
   10.6573    2.0503    1.4975 H   0  0  0  0  0  0  0  0  0  0  0  0
   10.2274    3.7541    1.5232 H   0  0  0  0  0  0  0  0  0  0  0  0
   12.2200    2.4935   -0.2991 H   0  0  0  0  0  0  0  0  0  0  0  0
   12.5417    2.6661   -2.7734 H   0  0  0  0  0  0  0  0  0  0  0  0
   10.7101    3.1256   -4.2349 H   0  0  0  0  0  0  0  0  0  0  0  0
    8.3949    3.4604   -3.2979 H   0  0  0  0  0  0  0  0  0  0  0  0
    8.0986    3.2883   -0.8503 H   0  0  0  0  0  0  0  0  0  0  0  0
    0.2261    1.4892   -0.4013 H   0  0  0  0  0  0  0  0  0  0  0  0
   -1.1936   -1.0461    0.4162 H   0  0  0  0  0  0  0  0  0  0  0  0
   -2.4674    0.1947    2.0463 H   0  0  0  0  0  0  0  0  0  0  0  0
   -1.5987    1.7107    1.7436 H   0  0  0  0  0  0  0  0  0  0  0  0
   -1.0041    0.8196    3.8447 H   0  0  0  0  0  0  0  0  0  0  0  0
    0.6485   -1.4366    2.8678 H   0  0  0  0  0  0  0  0  0  0  0  0
   -1.0831   -1.7818    3.0267 H   0  0  0  0  0  0  0  0  0  0  0  0
   -0.0847   -1.1594    4.4345 H   0  0  0  0  0  0  0  0  0  0  0  0
    0.7420    1.7289    1.9094 H   0  0  0  0  0  0  0  0  0  0  0  0
    0.9557    1.7909    3.6448 H   0  0  0  0  0  0  0  0  0  0  0  0
    1.6650    0.4196    2.7105 H   0  0  0  0  0  0  0  0  0  0  0  0
   -3.6348   -0.8085    0.3705 H   0  0  0  0  0  0  0  0  0  0  0  0
   -4.5151    1.2618   -1.5581 H   0  0  0  0  0  0  0  0  0  0  0  0
   -6.0871   -0.4735   -2.5750 H   0  0  0  0  0  0  0  0  0  0  0  0
   -5.3353   -1.7058   -1.5484 H   0  0  0  0  0  0  0  0  0  0  0  0
   -3.1442   -1.3860   -2.8088 H   0  0  0  0  0  0  0  0  0  0  0  0
   -5.8387   -1.9899   -4.0223 H   0  0  0  0  0  0  0  0  0  0  0  0
   -4.5501   -3.1421   -3.5689 H   0  0  0  0  0  0  0  0  0  0  0  0
   -4.4231   -2.0837   -5.0881 H   0  0  0  0  0  0  0  0  0  0  0  0
   -4.8986    0.7157   -4.1554 H   0  0  0  0  0  0  0  0  0  0  0  0
   -3.8124   -0.2935   -5.1365 H   0  0  0  0  0  0  0  0  0  0  0  0
   -3.0607    0.6885   -3.8542 H   0  0  0  0  0  0  0  0  0  0  0  0
   -7.5233    0.0486   -1.2814 H   0  0  0  0  0  0  0  0  0  0  0  0
   -7.5784    0.7428    1.6270 H   0  0  0  0  0  0  0  0  0  0  0  0
   -9.7819    0.9015   -0.5577 H   0  0  0  0  0  0  0  0  0  0  0  0
   -8.9121    2.2729    0.1538 H   0  0  0  0  0  0  0  0  0  0  0  0
   -9.2798    2.9522    2.5008 H   0  0  0  0  0  0  0  0  0  0  0  0
  -11.0953    3.2065    4.1193 H   0  0  0  0  0  0  0  0  0  0  0  0
  -13.1453    1.8804    4.0321 H   0  0  0  0  0  0  0  0  0  0  0  0
  -13.3652    0.2007    2.2233 H   0  0  0  0  0  0  0  0  0  0  0  0
  -11.6363   -0.1206    0.6002 H   0  0  0  0  0  0  0  0  0  0  0  0
   -9.0317   -1.1947    3.0625 H   0  0  0  0  0  0  0  0  0  0  0  0
  1  2  1  0
  2  3  1  0
  2  4  1  0
  4  5  1  0
  5  6  1  0
  6  7  1  0
  7  8  2  0
  7  9  1  0
  9 10  1  0
 10 11  1  0
 11 12  2  0
 12 13  1  0
 13 14  2  0
 14 15  1  0
 15 16  2  0
  9 17  1  0
 17 18  1  0
 18 19  2  0
 18 20  1  0
 20 21  1  0
 21 22  1  0
 22 23  2  0
 23 24  1  0
 24 25  2  0
 25 26  1  0
 26 27  2  0
  5 28  1  0
 28 29  2  0
 28 30  1  0
 30 31  1  0
 31 32  1  0
 32 33  1  0
 33 34  1  0
 33 35  1  0
 31 36  1  0
 36 37  2  0
 36 38  1  0
 38 39  1  0
 39 40  1  0
 40 41  1  0
 41 42  1  0
 41 43  1  0
 39 44  1  0
 44 45  2  0
 44 46  1  0
 46 47  1  0
 47 48  1  0
 48 49  1  0
 49 50  2  0
 50 51  1  0
 51 52  2  0
 52 53  1  0
 53 54  2  0
 47 55  1  0
 55 56  1  0
 55 57  2  0
 16 11  1  0
 27 22  1  0
 54 49  1  0
  1 58  1  0
  1 59  1  0
  1 60  1  0
  2 61  1  0
  3 62  1  0
  3 63  1  0
  3 64  1  0
  4 65  1  0
  4 66  1  0
  5 67  1  1
  6 68  1  0
  9 69  1  6
 10 70  1  0
 10 71  1  0
 12 72  1  0
 13 73  1  0
 14 74  1  0
 15 75  1  0
 16 76  1  0
 17 77  1  0
 21 78  1  0
 21 79  1  0
 23 80  1  0
 24 81  1  0
 25 82  1  0
 26 83  1  0
 27 84  1  0
 30 85  1  0
 31 86  1  1
 32 87  1  0
 32 88  1  0
 33 89  1  0
 34 90  1  0
 34 91  1  0
 34 92  1  0
 35 93  1  0
 35 94  1  0
 35 95  1  0
 38 96  1  0
 39 97  1  6
 40 98  1  0
 40 99  1  0
 41100  1  0
 42101  1  0
 42102  1  0
 42103  1  0
 43104  1  0
 43105  1  0
 43106  1  0
 46107  1  0
 47108  1  1
 48109  1  0
 48110  1  0
 50111  1  0
 51112  1  0
 52113  1  0
 53114  1  0
 54115  1  0
 56116  1  0
M  END
$$$$
[H]/C(=C1/C(=O)N([H])c2c([H])c(-c3c([H])nn(C([H])([H])[H])c3[H])c([H])c([H])c21)c1c([H])nc(N2C([H])([H])C([H])([H])N(C([H])([H])[H])C([H])([H])C2([H])[H])c([H])c1[H]
     RDKit          3D

 54 58  0  0  0  0  0  0  0  0999 V2000
   -8.7791    0.5519   -0.7745 C   0  0  0  0  0  0  0  0  0  0  0  0
   -7.9064    0.0200    0.2715 N   0  0  0  0  0  0  0  0  0  0  0  0
   -6.9760    1.0467    0.6779 C   0  0  0  0  0  0  0  0  0  0  0  0
   -5.7637    0.9547   -0.2566 C   0  0  0  0  0  0  0  0  0  0  0  0
   -5.0879   -0.2692    0.1219 N   0  0  0  0  0  0  0  0  0  0  0  0
   -5.9163   -1.4386    0.3226 C   0  0  0  0  0  0  0  0  0  0  0  0
   -7.3000   -1.1706   -0.2244 C   0  0  0  0  0  0  0  0  0  0  0  0
   -3.6797   -0.2876    0.2796 C   0  0  0  0  0  0  0  0  0  0  0  0
   -3.0437   -1.4438    0.6660 C   0  0  0  0  0  0  0  0  0  0  0  0
   -1.6919   -1.4767    0.8197 C   0  0  0  0  0  0  0  0  0  0  0  0
   -0.9489   -0.3451    0.5875 C   0  0  0  0  0  0  0  0  0  0  0  0
    0.4763   -0.3678    0.8201 C   0  0  0  0  0  0  0  0  0  0  0  0
    1.3591   -0.1316   -0.1184 C   0  0  0  0  0  0  0  0  0  0  0  0
    1.1712    0.1783   -1.5092 C   0  0  0  0  0  0  0  0  0  0  0  0
    0.0754    0.2642   -2.1438 O   0  0  0  0  0  0  0  0  0  0  0  0
    2.4725    0.3717   -2.0546 N   0  0  0  0  0  0  0  0  0  0  0  0
    3.4552    0.1909   -1.0498 C   0  0  0  0  0  0  0  0  0  0  0  0
    4.8572    0.2715   -1.0844 C   0  0  0  0  0  0  0  0  0  0  0  0
    5.5843    0.0467    0.0549 C   0  0  0  0  0  0  0  0  0  0  0  0
    4.9181   -0.2551    1.2149 C   0  0  0  0  0  0  0  0  0  0  0  0
    3.5420   -0.3428    1.2861 C   0  0  0  0  0  0  0  0  0  0  0  0
    2.8189   -0.1110    0.1174 C   0  0  0  0  0  0  0  0  0  0  0  0
    7.0307    0.1340   -0.0052 C   0  0  0  0  0  0  0  0  0  0  0  0
    7.8865   -0.1638   -1.0523 C   0  0  0  0  0  0  0  0  0  0  0  0
    9.1429    0.0764   -0.6336 N   0  0  0  0  0  0  0  0  0  0  0  0
    9.1546    0.5081    0.6104 N   0  0  0  0  0  0  0  0  0  0  0  0
   10.3243    0.8791    1.4208 C   0  0  0  0  0  0  0  0  0  0  0  0
    7.8702    0.5529    1.0208 C   0  0  0  0  0  0  0  0  0  0  0  0
   -1.5935    0.8004    0.2037 C   0  0  0  0  0  0  0  0  0  0  0  0
   -2.9177    0.8073    0.0599 N   0  0  0  0  0  0  0  0  0  0  0  0
   -8.8429    1.6571   -0.6881 H   0  0  0  0  0  0  0  0  0  0  0  0
   -9.7538    0.0572   -0.6954 H   0  0  0  0  0  0  0  0  0  0  0  0
   -8.3218    0.2610   -1.7438 H   0  0  0  0  0  0  0  0  0  0  0  0
   -7.4358    2.0551    0.6432 H   0  0  0  0  0  0  0  0  0  0  0  0
   -6.6075    0.7817    1.7038 H   0  0  0  0  0  0  0  0  0  0  0  0
   -6.1004    0.8321   -1.3097 H   0  0  0  0  0  0  0  0  0  0  0  0
   -5.1200    1.8440   -0.1587 H   0  0  0  0  0  0  0  0  0  0  0  0
   -5.4745   -2.2492   -0.3126 H   0  0  0  0  0  0  0  0  0  0  0  0
   -5.9544   -1.7726    1.3735 H   0  0  0  0  0  0  0  0  0  0  0  0
   -7.9450   -2.0340    0.0357 H   0  0  0  0  0  0  0  0  0  0  0  0
   -7.2117   -1.1820   -1.3441 H   0  0  0  0  0  0  0  0  0  0  0  0
   -3.6364   -2.3460    0.8510 H   0  0  0  0  0  0  0  0  0  0  0  0
   -1.2482   -2.4160    1.1257 H   0  0  0  0  0  0  0  0  0  0  0  0
    0.8144   -0.5953    1.8362 H   0  0  0  0  0  0  0  0  0  0  0  0
    2.6635    0.6160   -3.0698 H   0  0  0  0  0  0  0  0  0  0  0  0
    5.3050    0.5149   -2.0422 H   0  0  0  0  0  0  0  0  0  0  0  0
    5.4834   -0.4342    2.1165 H   0  0  0  0  0  0  0  0  0  0  0  0
    3.0253   -0.5818    2.2078 H   0  0  0  0  0  0  0  0  0  0  0  0
    7.5457   -0.5238   -2.0177 H   0  0  0  0  0  0  0  0  0  0  0  0
   10.0085    0.9003    2.4743 H   0  0  0  0  0  0  0  0  0  0  0  0
   11.1839    0.2444    1.2020 H   0  0  0  0  0  0  0  0  0  0  0  0
   10.5723    1.9458    1.1459 H   0  0  0  0  0  0  0  0  0  0  0  0
    7.5380    0.8681    2.0044 H   0  0  0  0  0  0  0  0  0  0  0  0
   -1.0220    1.7063    0.0284 H   0  0  0  0  0  0  0  0  0  0  0  0
  1  2  1  0
  2  3  1  0
  3  4  1  0
  4  5  1  0
  5  6  1  0
  6  7  1  0
  5  8  1  0
  8  9  2  0
  9 10  1  0
 10 11  2  0
 11 12  1  0
 12 13  2  0
 13 14  1  0
 14 15  2  0
 14 16  1  0
 16 17  1  0
 17 18  2  0
 18 19  1  0
 19 20  2  0
 20 21  1  0
 21 22  2  0
 19 23  1  0
 23 24  1  0
 24 25  2  0
 25 26  1  0
 26 27  1  0
 26 28  1  0
 11 29  1  0
 29 30  2  0
  7  2  1  0
 30  8  1  0
 22 13  1  0
 28 23  2  0
 22 17  1  0
  1 31  1  0
  1 32  1  0
  1 33  1  0
  3 34  1  0
  3 35  1  0
  4 36  1  0
  4 37  1  0
  6 38  1  0
  6 39  1  0
  7 40  1  0
  7 41  1  0
  9 42  1  0
 10 43  1  0
 12 44  1  0
 16 45  1  0
 18 46  1  0
 20 47  1  0
 21 48  1  0
 24 49  1  0
 27 50  1  0
 27 51  1  0
 27 52  1  0
 28 53  1  0
 29 54  1  0
M  END
$$$$
[H]c1nc(N([H])[H])c(C#N)c([H])c1-c1c([H])c(N([H])C(=O)c2c([H])c([H])c([H])c(C(F)(F)F)c2[H])c([H])c([H])c1C([H])([H])[H]
     RDKit          3D

 44 46  0  0  0  0  0  0  0  0999 V2000
    3.6925   -2.1490   -1.0830 C   0  0  0  0  0  0  0  0  0  0  0  0
    2.3495   -1.7404   -0.6359 C   0  0  0  0  0  0  0  0  0  0  0  0
    1.3413   -2.6631   -0.7155 C   0  0  0  0  0  0  0  0  0  0  0  0
    0.0578   -2.2862   -0.3032 C   0  0  0  0  0  0  0  0  0  0  0  0
   -0.2083   -1.0389    0.1703 C   0  0  0  0  0  0  0  0  0  0  0  0
   -1.5225   -0.6158    0.5096 N   0  0  0  0  0  0  0  0  0  0  0  0
   -2.6818   -1.1486   -0.0952 C   0  0  0  0  0  0  0  0  0  0  0  0
   -2.6117   -2.0462   -0.9998 O   0  0  0  0  0  0  0  0  0  0  0  0
   -4.0193   -0.7443    0.2407 C   0  0  0  0  0  0  0  0  0  0  0  0
   -4.9191   -1.7183    0.6888 C   0  0  0  0  0  0  0  0  0  0  0  0
   -6.2360   -1.4461    0.9598 C   0  0  0  0  0  0  0  0  0  0  0  0
   -6.7012   -0.1486    0.7865 C   0  0  0  0  0  0  0  0  0  0  0  0
   -5.8410    0.8273    0.3498 C   0  0  0  0  0  0  0  0  0  0  0  0
   -4.5114    0.5254    0.0806 C   0  0  0  0  0  0  0  0  0  0  0  0
   -6.3742    2.2137    0.1401 C   0  0  0  0  0  0  0  0  0  0  0  0
   -5.7491    3.0676    1.0030 F   0  0  0  0  0  0  0  0  0  0  0  0
   -6.1460    2.5311   -1.1907 F   0  0  0  0  0  0  0  0  0  0  0  0
   -7.7316    2.2240    0.3339 F   0  0  0  0  0  0  0  0  0  0  0  0
    0.8653   -0.1145    0.2356 C   0  0  0  0  0  0  0  0  0  0  0  0
    2.1413   -0.4477   -0.1602 C   0  0  0  0  0  0  0  0  0  0  0  0
    3.2877    0.4503   -0.1393 C   0  0  0  0  0  0  0  0  0  0  0  0
    3.9336    0.7580   -1.3421 C   0  0  0  0  0  0  0  0  0  0  0  0
    5.0259    1.5355   -1.3865 N   0  0  0  0  0  0  0  0  0  0  0  0
    5.5718    2.0700   -0.2761 C   0  0  0  0  0  0  0  0  0  0  0  0
    6.7338    2.8803   -0.3398 N   0  0  0  0  0  0  0  0  0  0  0  0
    4.9388    1.7726    0.9314 C   0  0  0  0  0  0  0  0  0  0  0  0
    3.8189    0.9817    1.0153 C   0  0  0  0  0  0  0  0  0  0  0  0
    5.5429    2.3538    2.1118 C   0  0  0  0  0  0  0  0  0  0  0  0
    6.0285    2.8333    3.0630 N   0  0  0  0  0  0  0  0  0  0  0  0
    4.5334   -1.6749   -0.5862 H   0  0  0  0  0  0  0  0  0  0  0  0
    3.7899   -3.2440   -0.8487 H   0  0  0  0  0  0  0  0  0  0  0  0
    3.7961   -2.0533   -2.1898 H   0  0  0  0  0  0  0  0  0  0  0  0
    1.4597   -3.6873   -1.0845 H   0  0  0  0  0  0  0  0  0  0  0  0
   -0.7193   -3.0345   -0.3443 H   0  0  0  0  0  0  0  0  0  0  0  0
   -1.6260    0.1292    1.2415 H   0  0  0  0  0  0  0  0  0  0  0  0
   -4.5809   -2.7407    0.8386 H   0  0  0  0  0  0  0  0  0  0  0  0
   -6.9636   -2.1700    1.3057 H   0  0  0  0  0  0  0  0  0  0  0  0
   -7.7366    0.1247    0.9838 H   0  0  0  0  0  0  0  0  0  0  0  0
   -3.8512    1.3056   -0.2662 H   0  0  0  0  0  0  0  0  0  0  0  0
    0.6601    0.8645    0.6046 H   0  0  0  0  0  0  0  0  0  0  0  0
    3.4971    0.3286   -2.2383 H   0  0  0  0  0  0  0  0  0  0  0  0
    6.9941    3.4656    0.4736 H   0  0  0  0  0  0  0  0  0  0  0  0
    7.3364    2.9148   -1.1835 H   0  0  0  0  0  0  0  0  0  0  0  0
    3.3343    0.7548    1.9775 H   0  0  0  0  0  0  0  0  0  0  0  0
  1  2  1  0
  2  3  2  0
  3  4  1  0
  4  5  2  0
  5  6  1  0
  6  7  1  0
  7  8  2  0
  7  9  1  0
  9 10  2  0
 10 11  1  0
 11 12  2  0
 12 13  1  0
 13 14  2  0
 13 15  1  0
 15 16  1  0
 15 17  1  0
 15 18  1  0
  5 19  1  0
 19 20  2  0
 20 21  1  0
 21 22  2  0
 22 23  1  0
 23 24  2  0
 24 25  1  0
 24 26  1  0
 26 27  2  0
 26 28  1  0
 28 29  3  0
 20  2  1  0
 27 21  1  0
 14  9  1  0
  1 30  1  0
  1 31  1  0
  1 32  1  0
  3 33  1  0
  4 34  1  0
  6 35  1  0
 10 36  1  0
 11 37  1  0
 12 38  1  0
 14 39  1  0
 19 40  1  0
 22 41  1  0
 25 42  1  0
 25 43  1  0
 27 44  1  0
M  END
$$$$
[H]N=C(N([H])[H])N([H])C([H])([H])C([H])([H])C([H])([H])[C@]1([H])C(=O)N([H])[C@@]([H])(C([H])([H])c2c([H])n([H])c3c([H])c([H])c([H])c([H])c23)C(=O)N([H])[C@@]([H])(C([H])(C([H])([H])[H])C([H])([H])[H])C(=O)N([H])[C@@]([H])(C([H])([H])c2c([H])c([H])c([H])c([H])c2[H])C(=O)N1[H]
     RDKit          3D

 83 86  0  0  0  0  0  0  0  0999 V2000
   -0.0711   -5.3852    1.4462 C   0  0  0  0  0  0  0  0  0  0  0  0
    0.7837   -4.7078    0.4176 C   0  0  0  0  0  0  0  0  0  0  0  0
    1.1082   -5.6229   -0.7400 C   0  0  0  0  0  0  0  0  0  0  0  0
    0.1510   -3.3994   -0.1024 C   0  0  2  0  0  0  0  0  0  0  0  0
    0.0134   -2.5633    1.0513 N   0  0  0  0  0  0  0  0  0  0  0  0
    0.8731   -1.4936    1.4054 C   0  0  0  0  0  0  0  0  0  0  0  0
    0.5650   -0.7994    2.4088 O   0  0  0  0  0  0  0  0  0  0  0  0
    2.1088   -1.1307    0.6870 C   0  0  2  0  0  0  0  0  0  0  0  0
    3.0427   -0.3542    1.5778 C   0  0  0  0  0  0  0  0  0  0  0  0
    4.3129    0.0631    0.9981 C   0  0  0  0  0  0  0  0  0  0  0  0
    5.4764   -0.6970    1.1135 C   0  0  0  0  0  0  0  0  0  0  0  0
    6.4194   -0.0513    0.4508 N   0  0  0  0  0  0  0  0  0  0  0  0
    5.9705    1.0774   -0.0935 C   0  0  0  0  0  0  0  0  0  0  0  0
    6.5438    2.0742   -0.8413 C   0  0  0  0  0  0  0  0  0  0  0  0
    5.8335    3.1704   -1.2708 C   0  0  0  0  0  0  0  0  0  0  0  0
    4.4955    3.2609   -0.9312 C   0  0  0  0  0  0  0  0  0  0  0  0
    3.9095    2.2596   -0.1778 C   0  0  0  0  0  0  0  0  0  0  0  0
    4.6216    1.1573    0.2535 C   0  0  0  0  0  0  0  0  0  0  0  0
    1.9683   -0.4961   -0.5768 N   0  0  0  0  0  0  0  0  0  0  0  0
    0.9301    0.0719   -1.2673 C   0  0  0  0  0  0  0  0  0  0  0  0
    1.1117    0.2997   -2.5385 O   0  0  0  0  0  0  0  0  0  0  0  0
   -0.4220    0.5012   -0.8465 C   0  0  1  0  0  0  0  0  0  0  0  0
   -0.3006    2.0385   -0.7461 C   0  0  0  0  0  0  0  0  0  0  0  0
   -1.5760    2.6917   -0.3306 C   0  0  0  0  0  0  0  0  0  0  0  0
   -1.3029    4.1901   -0.2872 C   0  0  0  0  0  0  0  0  0  0  0  0
   -0.2545    4.5235    0.6505 N   0  0  0  0  0  0  0  0  0  0  0  0
    0.0824    5.9002    0.7603 C   0  0  0  0  0  0  0  0  0  0  0  0
   -0.9192    6.8057    1.1874 N   0  0  0  0  0  0  0  0  0  0  0  0
    1.2540    6.3532    0.4887 N   0  0  0  0  0  0  0  0  0  0  0  0
   -1.4074    0.1712   -1.8759 N   0  0  0  0  0  0  0  0  0  0  0  0
   -2.6161   -0.4904   -1.7611 C   0  0  0  0  0  0  0  0  0  0  0  0
   -3.6501    0.1599   -2.1948 O   0  0  0  0  0  0  0  0  0  0  0  0
   -2.9065   -1.8417   -1.2127 C   0  0  2  0  0  0  0  0  0  0  0  0
   -3.3919   -1.8674    0.1959 C   0  0  0  0  0  0  0  0  0  0  0  0
   -4.6706   -1.1200    0.3840 C   0  0  0  0  0  0  0  0  0  0  0  0
   -4.6337    0.2129    0.7277 C   0  0  0  0  0  0  0  0  0  0  0  0
   -5.8083    0.9456    0.9093 C   0  0  0  0  0  0  0  0  0  0  0  0
   -7.0427    0.3225    0.7412 C   0  0  0  0  0  0  0  0  0  0  0  0
   -7.0879   -0.9938    0.4017 C   0  0  0  0  0  0  0  0  0  0  0  0
   -5.9182   -1.6851    0.2308 C   0  0  0  0  0  0  0  0  0  0  0  0
   -1.9245   -2.8303   -1.5911 N   0  0  0  0  0  0  0  0  0  0  0  0
   -1.0592   -3.6597   -0.8842 C   0  0  0  0  0  0  0  0  0  0  0  0
   -1.3950   -4.9175   -0.9328 O   0  0  0  0  0  0  0  0  0  0  0  0
   -0.4076   -6.3962    1.1165 H   0  0  0  0  0  0  0  0  0  0  0  0
   -0.9189   -4.7688    1.8016 H   0  0  0  0  0  0  0  0  0  0  0  0
    0.5464   -5.6010    2.3686 H   0  0  0  0  0  0  0  0  0  0  0  0
    1.7363   -4.4043    0.8813 H   0  0  0  0  0  0  0  0  0  0  0  0
    0.4980   -6.5293   -0.7805 H   0  0  0  0  0  0  0  0  0  0  0  0
    0.9776   -5.0473   -1.6995 H   0  0  0  0  0  0  0  0  0  0  0  0
    2.1966   -5.9137   -0.7522 H   0  0  0  0  0  0  0  0  0  0  0  0
    0.9934   -2.9725   -0.6923 H   0  0  0  0  0  0  0  0  0  0  0  0
   -0.7912   -2.7604    1.6885 H   0  0  0  0  0  0  0  0  0  0  0  0
    2.6724   -2.1229    0.5214 H   0  0  0  0  0  0  0  0  0  0  0  0
    3.2308   -0.9760    2.5081 H   0  0  0  0  0  0  0  0  0  0  0  0
    2.5066    0.5495    2.0139 H   0  0  0  0  0  0  0  0  0  0  0  0
    5.5748   -1.6241    1.6404 H   0  0  0  0  0  0  0  0  0  0  0  0
    7.4233   -0.3711    0.3480 H   0  0  0  0  0  0  0  0  0  0  0  0
    7.5943    1.9977   -1.1046 H   0  0  0  0  0  0  0  0  0  0  0  0
    6.3190    3.9394   -1.8598 H   0  0  0  0  0  0  0  0  0  0  0  0
    3.9087    4.1059   -1.2501 H   0  0  0  0  0  0  0  0  0  0  0  0
    2.8485    2.3379    0.0926 H   0  0  0  0  0  0  0  0  0  0  0  0
    2.9215   -0.4856   -1.1071 H   0  0  0  0  0  0  0  0  0  0  0  0
   -0.7581    0.1946    0.1258 H   0  0  0  0  0  0  0  0  0  0  0  0
    0.5004    2.1761    0.0364 H   0  0  0  0  0  0  0  0  0  0  0  0
    0.1225    2.3794   -1.6942 H   0  0  0  0  0  0  0  0  0  0  0  0
   -2.4398    2.4437   -0.9356 H   0  0  0  0  0  0  0  0  0  0  0  0
   -1.7712    2.3881    0.7327 H   0  0  0  0  0  0  0  0  0  0  0  0
   -2.2041    4.7688   -0.0627 H   0  0  0  0  0  0  0  0  0  0  0  0
   -0.9505    4.5503   -1.2951 H   0  0  0  0  0  0  0  0  0  0  0  0
    0.2591    3.8343    1.2385 H   0  0  0  0  0  0  0  0  0  0  0  0
   -1.9294    6.5447    1.1719 H   0  0  0  0  0  0  0  0  0  0  0  0
   -0.6467    7.7739    1.5326 H   0  0  0  0  0  0  0  0  0  0  0  0
    1.4553    7.3689    0.5836 H   0  0  0  0  0  0  0  0  0  0  0  0
   -1.1124    0.5104   -2.8460 H   0  0  0  0  0  0  0  0  0  0  0  0
   -3.8837   -2.1658   -1.7698 H   0  0  0  0  0  0  0  0  0  0  0  0
   -2.6995   -1.3803    0.9337 H   0  0  0  0  0  0  0  0  0  0  0  0
   -3.6101   -2.9087    0.4559 H   0  0  0  0  0  0  0  0  0  0  0  0
   -3.7087    0.7306    0.8686 H   0  0  0  0  0  0  0  0  0  0  0  0
   -5.8029    1.9887    1.1776 H   0  0  0  0  0  0  0  0  0  0  0  0
   -7.9578    0.8829    0.8800 H   0  0  0  0  0  0  0  0  0  0  0  0
   -8.0400   -1.5252    0.2590 H   0  0  0  0  0  0  0  0  0  0  0  0
   -5.9774   -2.7305   -0.0392 H   0  0  0  0  0  0  0  0  0  0  0  0
   -1.8926   -2.9259   -2.6808 H   0  0  0  0  0  0  0  0  0  0  0  0
  1  2  1  0
  2  3  1  0
  2  4  1  0
  4  5  1  0
  5  6  1  0
  6  7  2  0
  6  8  1  0
  8  9  1  0
  9 10  1  0
 10 11  2  0
 11 12  1  0
 12 13  1  0
 13 14  2  0
 14 15  1  0
 15 16  2  0
 16 17  1  0
 17 18  2  0
  8 19  1  0
 19 20  1  0
 20 21  2  0
 20 22  1  0
 22 23  1  0
 23 24  1  0
 24 25  1  0
 25 26  1  0
 26 27  1  0
 27 28  1  0
 27 29  2  3
 22 30  1  0
 30 31  1  0
 31 32  2  0
 31 33  1  0
 33 34  1  0
 34 35  1  0
 35 36  2  0
 36 37  1  0
 37 38  2  0
 38 39  1  0
 39 40  2  0
 33 41  1  0
 41 42  1  0
 42 43  2  0
 42  4  1  0
 18 10  1  0
 40 35  1  0
 18 13  1  0
  1 44  1  0
  1 45  1  0
  1 46  1  0
  2 47  1  0
  3 48  1  0
  3 49  1  0
  3 50  1  0
  4 51  1  6
  5 52  1  0
  8 53  1  6
  9 54  1  0
  9 55  1  0
 11 56  1  0
 12 57  1  0
 14 58  1  0
 15 59  1  0
 16 60  1  0
 17 61  1  0
 19 62  1  0
 22 63  1  1
 23 64  1  0
 23 65  1  0
 24 66  1  0
 24 67  1  0
 25 68  1  0
 25 69  1  0
 26 70  1  0
 28 71  1  0
 28 72  1  0
 29 73  1  0
 30 74  1  0
 33 75  1  6
 34 76  1  0
 34 77  1  0
 36 78  1  0
 37 79  1  0
 38 80  1  0
 39 81  1  0
 40 82  1  0
 41 83  1  0
M  END
$$$$
[H]c1c([H])c(C(F)(F)F)c([H])c([C@]2([H])C([H])([H])[C@@]3([H])N(S(=O)(=O)c4c([H])c([H])c(OC([H])([H])[H])c([H])c4[H])C([H])([H])[C@@]23[H])c1[H]
     RDKit          3D

 45 48  0  0  0  0  0  0  0  0999 V2000
   -8.1418   -0.6771    0.1850 C   0  0  0  0  0  0  0  0  0  0  0  0
   -7.2907    0.4248   -0.1072 O   0  0  0  0  0  0  0  0  0  0  0  0
   -5.9207    0.2377    0.1720 C   0  0  0  0  0  0  0  0  0  0  0  0
   -5.4184   -0.9207    0.6898 C   0  0  0  0  0  0  0  0  0  0  0  0
   -4.0586   -1.0483    0.9250 C   0  0  0  0  0  0  0  0  0  0  0  0
   -3.1670   -0.0436    0.6613 C   0  0  0  0  0  0  0  0  0  0  0  0
   -3.6916    1.1125    0.1505 C   0  0  0  0  0  0  0  0  0  0  0  0
   -5.0384    1.2590   -0.0991 C   0  0  0  0  0  0  0  0  0  0  0  0
   -1.4864   -0.3640    0.9378 S   0  0  0  0  0  0  0  0  0  0  0  0
   -1.1459    0.2746    2.2797 O   0  0  0  0  0  0  0  0  0  0  0  0
   -1.3638   -1.8545    1.2650 O   0  0  0  0  0  0  0  0  0  0  0  0
   -0.4680   -0.0620   -0.3115 N   0  0  0  0  0  0  0  0  0  0  0  0
   -0.1854    1.1789   -0.8971 C   0  0  0  0  0  0  0  0  0  0  0  0
    1.1463    0.6228   -1.3434 C   0  0  1  0  0  0  0  0  0  0  0  0
    2.3416    1.0811   -0.6666 C   0  0  1  0  0  0  0  0  0  0  0  0
    1.7080    0.5351    0.6666 C   0  0  0  0  0  0  0  0  0  0  0  0
    0.8945   -0.3699   -0.2277 C   0  0  1  0  0  0  0  0  0  0  0  0
    3.6022    0.2903   -0.8591 C   0  0  0  0  0  0  0  0  0  0  0  0
    3.6757   -0.8530   -1.6142 C   0  0  0  0  0  0  0  0  0  0  0  0
    4.8598   -1.6145   -1.6467 C   0  0  0  0  0  0  0  0  0  0  0  0
    5.9671   -1.2343   -0.9240 C   0  0  0  0  0  0  0  0  0  0  0  0
    5.8610   -0.0831   -0.1808 C   0  0  0  0  0  0  0  0  0  0  0  0
    4.6951    0.6991   -0.1297 C   0  0  0  0  0  0  0  0  0  0  0  0
    7.0253    0.3544    0.6234 C   0  0  0  0  0  0  0  0  0  0  0  0
    8.1618    0.3460   -0.1390 F   0  0  0  0  0  0  0  0  0  0  0  0
    7.1544   -0.4851    1.6798 F   0  0  0  0  0  0  0  0  0  0  0  0
    6.8079    1.6561    1.1238 F   0  0  0  0  0  0  0  0  0  0  0  0
   -7.7676   -1.6265   -0.2577 H   0  0  0  0  0  0  0  0  0  0  0  0
   -8.2227   -0.8030    1.2862 H   0  0  0  0  0  0  0  0  0  0  0  0
   -9.1471   -0.4679   -0.2177 H   0  0  0  0  0  0  0  0  0  0  0  0
   -6.1299   -1.6990    0.9040 H   0  0  0  0  0  0  0  0  0  0  0  0
   -3.7460   -2.0086    1.3268 H   0  0  0  0  0  0  0  0  0  0  0  0
   -3.0051    1.9007   -0.0620 H   0  0  0  0  0  0  0  0  0  0  0  0
   -5.4336    2.1746   -0.5138 H   0  0  0  0  0  0  0  0  0  0  0  0
   -0.1201    2.0758   -0.2564 H   0  0  0  0  0  0  0  0  0  0  0  0
   -0.7437    1.4786   -1.8342 H   0  0  0  0  0  0  0  0  0  0  0  0
    1.1812    0.2408   -2.3725 H   0  0  0  0  0  0  0  0  0  0  0  0
    2.5714    2.1431   -0.5754 H   0  0  0  0  0  0  0  0  0  0  0  0
    1.2014    1.3673    1.1376 H   0  0  0  0  0  0  0  0  0  0  0  0
    2.4197   -0.0068    1.2852 H   0  0  0  0  0  0  0  0  0  0  0  0
    1.2588   -1.3738   -0.3565 H   0  0  0  0  0  0  0  0  0  0  0  0
    2.7904   -1.1272   -2.1579 H   0  0  0  0  0  0  0  0  0  0  0  0
    4.8776   -2.5045   -2.2623 H   0  0  0  0  0  0  0  0  0  0  0  0
    6.8533   -1.8269   -0.9415 H   0  0  0  0  0  0  0  0  0  0  0  0
    4.6378    1.6010    0.4571 H   0  0  0  0  0  0  0  0  0  0  0  0
  1  2  1  0
  2  3  1  0
  3  4  2  0
  4  5  1  0
  5  6  2  0
  6  7  1  0
  7  8  2  0
  6  9  1  0
  9 10  2  0
  9 11  2  0
  9 12  1  0
 12 13  1  0
 13 14  1  0
 14 15  1  0
 15 16  1  0
 16 17  1  0
 15 18  1  0
 18 19  2  0
 19 20  1  0
 20 21  2  0
 21 22  1  0
 22 23  2  0
 22 24  1  0
 24 25  1  0
 24 26  1  0
 24 27  1  0
  8  3  1  0
 17 12  1  0
 23 18  1  0
 17 14  1  0
  1 28  1  0
  1 29  1  0
  1 30  1  0
  4 31  1  0
  5 32  1  0
  7 33  1  0
  8 34  1  0
 13 35  1  0
 13 36  1  0
 14 37  1  6
 15 38  1  1
 16 39  1  0
 16 40  1  0
 17 41  1  6
 19 42  1  0
 20 43  1  0
 21 44  1  0
 23 45  1  0
M  END
$$$$
[H]O[C@@]1([H])[C@]([H])(O[H])[C@]([H])(n2c([H])nc3c(N([H])[H])nc([H])nc32)O[C@@]1([H])n1c([H])nc2c(N([H])[H])nc([H])nc21
     RDKit          3D

 41 45  0  0  0  0  0  0  0  0999 V2000
   -6.6529   -0.6810   -0.8185 N   0  0  0  0  0  0  0  0  0  0  0  0
   -5.2819   -0.9852   -0.7074 C   0  0  0  0  0  0  0  0  0  0  0  0
   -4.8652   -2.2344   -0.4184 N   0  0  0  0  0  0  0  0  0  0  0  0
   -3.5414   -2.5251   -0.3118 C   0  0  0  0  0  0  0  0  0  0  0  0
   -2.5854   -1.5944   -0.4866 N   0  0  0  0  0  0  0  0  0  0  0  0
   -2.9439   -0.3403   -0.7748 C   0  0  0  0  0  0  0  0  0  0  0  0
   -2.1972    0.7572   -0.9931 N   0  0  0  0  0  0  0  0  0  0  0  0
   -3.0725    1.7478   -1.2398 C   0  0  0  0  0  0  0  0  0  0  0  0
   -4.3419    1.2658   -1.1740 N   0  0  0  0  0  0  0  0  0  0  0  0
   -4.2897   -0.0385   -0.8845 C   0  0  0  0  0  0  0  0  0  0  0  0
   -0.7339    0.8793   -0.9732 C   0  0  2  0  0  0  0  0  0  0  0  0
   -0.1716   -0.3617   -0.9621 O   0  0  0  0  0  0  0  0  0  0  0  0
    0.6170   -0.5234    0.1437 C   0  0  2  0  0  0  0  0  0  0  0  0
    0.1051    0.4641    1.1729 C   0  0  1  0  0  0  0  0  0  0  0  0
    1.0807    0.9283    2.0189 O   0  0  0  0  0  0  0  0  0  0  0  0
   -0.3103    1.6111    0.2718 C   0  0  2  0  0  0  0  0  0  0  0  0
   -1.4086    2.2864    0.7701 O   0  0  0  0  0  0  0  0  0  0  0  0
    2.0032   -0.2326   -0.1830 N   0  0  0  0  0  0  0  0  0  0  0  0
    2.4498    0.4070   -1.2793 C   0  0  0  0  0  0  0  0  0  0  0  0
    3.8018    0.4995   -1.2510 N   0  0  0  0  0  0  0  0  0  0  0  0
    4.2356   -0.0811   -0.1339 C   0  0  0  0  0  0  0  0  0  0  0  0
    5.5030   -0.2644    0.3828 C   0  0  0  0  0  0  0  0  0  0  0  0
    6.6708    0.1926   -0.2775 N   0  0  0  0  0  0  0  0  0  0  0  0
    5.5585   -0.9156    1.5731 N   0  0  0  0  0  0  0  0  0  0  0  0
    4.4564   -1.3537    2.2085 C   0  0  0  0  0  0  0  0  0  0  0  0
    3.2156   -1.1819    1.7164 N   0  0  0  0  0  0  0  0  0  0  0  0
    3.1183   -0.5386    0.5345 C   0  0  0  0  0  0  0  0  0  0  0  0
   -7.1857   -1.0055   -1.6365 H   0  0  0  0  0  0  0  0  0  0  0  0
   -7.1214   -0.1348   -0.0827 H   0  0  0  0  0  0  0  0  0  0  0  0
   -3.2672   -3.5436   -0.0783 H   0  0  0  0  0  0  0  0  0  0  0  0
   -2.7799    2.7813   -1.4585 H   0  0  0  0  0  0  0  0  0  0  0  0
   -0.4783    1.5133   -1.8363 H   0  0  0  0  0  0  0  0  0  0  0  0
    0.5722   -1.5505    0.5632 H   0  0  0  0  0  0  0  0  0  0  0  0
   -0.7283    0.0664    1.7619 H   0  0  0  0  0  0  0  0  0  0  0  0
    1.0042    0.5411    2.9330 H   0  0  0  0  0  0  0  0  0  0  0  0
    0.4904    2.3351    0.1057 H   0  0  0  0  0  0  0  0  0  0  0  0
   -1.5094    2.2142    1.7514 H   0  0  0  0  0  0  0  0  0  0  0  0
    1.7977    0.7936   -2.0760 H   0  0  0  0  0  0  0  0  0  0  0  0
    6.7515    1.0923   -0.7974 H   0  0  0  0  0  0  0  0  0  0  0  0
    7.5144   -0.4114   -0.2440 H   0  0  0  0  0  0  0  0  0  0  0  0
    4.5204   -1.8786    3.1707 H   0  0  0  0  0  0  0  0  0  0  0  0
  1  2  1  0
  2  3  2  0
  3  4  1  0
  4  5  2  0
  5  6  1  0
  6  7  1  0
  7  8  1  0
  8  9  2  0
  9 10  1  0
  7 11  1  0
 11 12  1  0
 12 13  1  0
 13 14  1  0
 14 15  1  0
 14 16  1  0
 16 17  1  0
 13 18  1  0
 18 19  1  0
 19 20  2  0
 20 21  1  0
 21 22  2  0
 22 23  1  0
 22 24  1  0
 24 25  2  0
 25 26  1  0
 26 27  2  0
 10  2  1  0
 16 11  1  0
 27 18  1  0
 10  6  2  0
 27 21  1  0
  1 28  1  0
  1 29  1  0
  4 30  1  0
  8 31  1  0
 11 32  1  6
 13 33  1  1
 14 34  1  1
 15 35  1  0
 16 36  1  6
 17 37  1  0
 19 38  1  0
 23 39  1  0
 23 40  1  0
 25 41  1  0
M  END
$$$$
[H]c1nc2c([H])c(OC([H])([H])[H])c(OC([H])([H])[H])c([H])c2c(Oc2c([H])c([H])c(N([H])C(=O)c3c([H])c(C(F)(F)F)n(C([H])([H])[H])c3[H])c([H])c2F)c1[H]
     RDKit          3D

 54 57  0  0  0  0  0  0  0  0999 V2000
   -5.2514   -2.3505    2.1383 C   0  0  0  0  0  0  0  0  0  0  0  0
   -5.8551   -2.0790    0.8489 O   0  0  0  0  0  0  0  0  0  0  0  0
   -5.3664   -0.9086    0.2227 C   0  0  0  0  0  0  0  0  0  0  0  0
   -4.2797   -0.2610    0.6781 C   0  0  0  0  0  0  0  0  0  0  0  0
   -3.8723    0.9455    0.0898 C   0  0  0  0  0  0  0  0  0  0  0  0
   -2.8484    1.5689    0.5868 C   0  0  0  0  0  0  0  0  0  0  0  0
   -1.9487    1.0426    1.6180 O   0  0  0  0  0  0  0  0  0  0  0  0
   -0.7271    0.7077    0.8463 C   0  0  0  0  0  0  0  0  0  0  0  0
   -0.7493    0.3114   -0.4526 C   0  0  0  0  0  0  0  0  0  0  0  0
    0.4764    0.1014   -1.1066 C   0  0  0  0  0  0  0  0  0  0  0  0
    1.6812    0.2790   -0.5086 C   0  0  0  0  0  0  0  0  0  0  0  0
    2.9493    0.4145   -1.0665 N   0  0  0  0  0  0  0  0  0  0  0  0
    4.1498    0.5543   -1.6201 C   0  0  0  0  0  0  0  0  0  0  0  0
    4.3948    0.9982   -2.7992 O   0  0  0  0  0  0  0  0  0  0  0  0
    5.3655    0.1827   -0.8547 C   0  0  0  0  0  0  0  0  0  0  0  0
    6.4058    0.9408   -0.3848 C   0  0  0  0  0  0  0  0  0  0  0  0
    7.2681    0.1159    0.3184 N   0  0  0  0  0  0  0  0  0  0  0  0
    8.4657    0.5590    0.9691 C   0  0  0  0  0  0  0  0  0  0  0  0
    6.7833   -1.1428    0.2987 C   0  0  0  0  0  0  0  0  0  0  0  0
    5.5779   -1.1036   -0.4431 C   0  0  0  0  0  0  0  0  0  0  0  0
    7.3383   -2.3594    0.9245 C   0  0  0  0  0  0  0  0  0  0  0  0
    8.4327   -2.8100    0.1991 F   0  0  0  0  0  0  0  0  0  0  0  0
    6.3825   -3.3803    0.8083 F   0  0  0  0  0  0  0  0  0  0  0  0
    7.6061   -2.2379    2.2651 F   0  0  0  0  0  0  0  0  0  0  0  0
    1.6356    0.6811    0.8824 C   0  0  0  0  0  0  0  0  0  0  0  0
    0.4515    0.8816    1.5203 C   0  0  0  0  0  0  0  0  0  0  0  0
    0.4105    1.2360    2.8175 F   0  0  0  0  0  0  0  0  0  0  0  0
   -2.4877    2.8334    0.0999 C   0  0  0  0  0  0  0  0  0  0  0  0
   -3.2446    3.3679   -0.9187 C   0  0  0  0  0  0  0  0  0  0  0  0
   -4.2848    2.6979   -1.4478 N   0  0  0  0  0  0  0  0  0  0  0  0
   -4.6131    1.4638   -0.9538 C   0  0  0  0  0  0  0  0  0  0  0  0
   -5.7142    0.8036   -1.4533 C   0  0  0  0  0  0  0  0  0  0  0  0
   -6.1355   -0.4382   -0.8894 C   0  0  0  0  0  0  0  0  0  0  0  0
   -7.0749   -1.2467   -1.2491 O   0  0  0  0  0  0  0  0  0  0  0  0
   -8.0706   -1.7602   -1.9472 C   0  0  0  0  0  0  0  0  0  0  0  0
   -5.1351   -1.2649    2.5394 H   0  0  0  0  0  0  0  0  0  0  0  0
   -4.3128   -2.7733    2.0125 H   0  0  0  0  0  0  0  0  0  0  0  0
   -6.0199   -2.7814    2.8094 H   0  0  0  0  0  0  0  0  0  0  0  0
   -3.6604   -0.6356    1.4935 H   0  0  0  0  0  0  0  0  0  0  0  0
   -1.6661    0.1051   -0.9766 H   0  0  0  0  0  0  0  0  0  0  0  0
    0.4637   -0.2430   -2.1292 H   0  0  0  0  0  0  0  0  0  0  0  0
    2.4130    1.4251   -1.9216 H   0  0  0  0  0  0  0  0  0  0  0  0
    6.5082    1.9940   -0.5725 H   0  0  0  0  0  0  0  0  0  0  0  0
    8.2771    0.7294    2.0669 H   0  0  0  0  0  0  0  0  0  0  0  0
    9.3035   -0.1553    0.8734 H   0  0  0  0  0  0  0  0  0  0  0  0
    8.8486    1.5281    0.5699 H   0  0  0  0  0  0  0  0  0  0  0  0
    4.9799   -1.9731   -0.6364 H   0  0  0  0  0  0  0  0  0  0  0  0
    2.5877    0.7928    1.3557 H   0  0  0  0  0  0  0  0  0  0  0  0
   -1.6658    3.3690    0.5097 H   0  0  0  0  0  0  0  0  0  0  0  0
   -3.0008    4.3899   -1.3042 H   0  0  0  0  0  0  0  0  0  0  0  0
   -6.3188    1.1793   -2.2625 H   0  0  0  0  0  0  0  0  0  0  0  0
   -8.6274   -2.5681   -1.3568 H   0  0  0  0  0  0  0  0  0  0  0  0
   -8.7271   -1.1853   -2.5919 H   0  0  0  0  0  0  0  0  0  0  0  0
   -7.4988   -2.5419   -2.6898 H   0  0  0  0  0  0  0  0  0  0  0  0
  1  2  1  0
  2  3  1  0
  3  4  2  0
  4  5  1  0
  5  6  2  0
  6  7  1  0
  7  8  1  0
  8  9  2  0
  9 10  1  0
 10 11  2  0
 11 12  1  0
 12 13  1  0
 13 14  2  0
 13 15  1  0
 15 16  2  0
 16 17  1  0
 17 18  1  0
 17 19  1  0
 19 20  2  0
 19 21  1  0
 21 22  1  0
 21 23  1  0
 21 24  1  0
 11 25  1  0
 25 26  2  0
 26 27  1  0
  6 28  1  0
 28 29  2  0
 29 30  1  0
 30 31  2  0
 31 32  1  0
 32 33  2  0
 33 34  1  0
 34 35  1  0
 33  3  1  0
 31  5  1  0
 26  8  1  0
 20 15  1  0
  1 36  1  0
  1 37  1  0
  1 38  1  0
  4 39  1  0
  9 40  1  0
 10 41  1  0
 12 42  1  0
 16 43  1  0
 18 44  1  0
 18 45  1  0
 18 46  1  0
 20 47  1  0
 25 48  1  0
 28 49  1  0
 29 50  1  0
 32 51  1  0
 35 52  1  0
 35 53  1  0
 35 54  1  0
M  END
$$$$
