[H]c1c([H])c([H])c(C([H])([H])[C@@]([H])(C(=O)N([H])[C@]([H])(C(=O)N([H])[C@]([H])(C(=O)N([H])[C@]([H])(C(=O)N([H])[C@]([H])(C([H])([H])[H])C([H])(C([H])([H])[H])C([H])([H])[H])C([H])([H])[H])C([H])([H])c2c([H])c([H])c([H])c([H])c2[H])C([H])([H])[H])N([H])C(=O)[C@@]([H])(N([H])C(=O)[C@@]([H])(N([H])C(=O)[C@@]([H])(N([H])C(=O)[C@@]([H])(N([H])C(=O)[C@@]([H])(N([H])C(=O)[C@@]([H])(N([H])C(=O)C([H])(C([H])([H])[H])C([H])([H])[H])C([H])([H])[H])C([H])([H])[H])C([H])([H])[H])C([H])([H])[H])C([H])([H])[H])C([H])([H])[H])c([H])c1[H]
     RDKit          3D

150151  0  0  0  0  0  0  0  0999 V2000
  -16.1039   -2.4553    0.8011 C   0  0  0  0  0  0  0  0  0  0  0  0
  -15.2960   -2.6975    2.0589 C   0  0  0  0  0  0  0  0  0  0  0  0
  -14.8918   -4.1595    2.1952 C   0  0  0  0  0  0  0  0  0  0  0  0
  -14.0978   -1.8104    2.1032 C   0  0  2  0  0  0  0  0  0  0  0  0
  -13.2267   -1.9941    0.9690 N   0  0  0  0  0  0  0  0  0  0  0  0
  -12.3394   -0.9435    0.6072 C   0  0  0  0  0  0  0  0  0  0  0  0
  -12.3548    0.0806    1.3094 O   0  0  0  0  0  0  0  0  0  0  0  0
  -11.4815   -1.1328   -0.5542 C   0  0  2  0  0  0  0  0  0  0  0  0
  -11.1894   -2.5959   -0.7704 C   0  0  0  0  0  0  0  0  0  0  0  0
  -10.3311   -0.3642   -0.7748 N   0  0  0  0  0  0  0  0  0  0  0  0
   -9.6814    0.6399   -0.1466 C   0  0  0  0  0  0  0  0  0  0  0  0
  -10.0497    1.1069    0.9870 O   0  0  0  0  0  0  0  0  0  0  0  0
   -8.4438    1.3284   -0.6736 C   0  0  2  0  0  0  0  0  0  0  0  0
   -8.0900    1.1844   -2.0967 C   0  0  0  0  0  0  0  0  0  0  0  0
   -8.9271    1.6959   -3.1595 C   0  0  0  0  0  0  0  0  0  0  0  0
   -9.7486    0.9553   -3.9502 C   0  0  0  0  0  0  0  0  0  0  0  0
  -10.5179    1.4967   -4.9644 C   0  0  0  0  0  0  0  0  0  0  0  0
  -10.4464    2.8558   -5.1844 C   0  0  0  0  0  0  0  0  0  0  0  0
   -9.6207    3.6202   -4.3938 C   0  0  0  0  0  0  0  0  0  0  0  0
   -8.8693    3.0910   -3.4003 C   0  0  0  0  0  0  0  0  0  0  0  0
   -7.3476    1.2859    0.1367 N   0  0  0  0  0  0  0  0  0  0  0  0
   -6.2286    1.1505    0.9429 C   0  0  0  0  0  0  0  0  0  0  0  0
   -5.6824    0.0143    1.1675 O   0  0  0  0  0  0  0  0  0  0  0  0
   -5.4709    2.2464    1.6521 C   0  0  2  0  0  0  0  0  0  0  0  0
   -5.9158    3.6140    1.3623 C   0  0  0  0  0  0  0  0  0  0  0  0
   -4.0861    1.9754    1.2850 N   0  0  0  0  0  0  0  0  0  0  0  0
   -3.2220    1.1866    2.0616 C   0  0  0  0  0  0  0  0  0  0  0  0
   -3.5688    0.6482    3.1474 O   0  0  0  0  0  0  0  0  0  0  0  0
   -1.8690    0.9814    1.6116 C   0  0  2  0  0  0  0  0  0  0  0  0
   -1.5665   -0.1826    0.6810 C   0  0  0  0  0  0  0  0  0  0  0  0
   -2.2065   -0.1858   -0.6091 C   0  0  0  0  0  0  0  0  0  0  0  0
   -3.2820   -0.9604   -0.9180 C   0  0  0  0  0  0  0  0  0  0  0  0
   -3.8968   -0.9631   -2.1262 C   0  0  0  0  0  0  0  0  0  0  0  0
   -3.4547   -0.1401   -3.1673 C   0  0  0  0  0  0  0  0  0  0  0  0
   -2.3742    0.6535   -2.8891 C   0  0  0  0  0  0  0  0  0  0  0  0
   -1.7692    0.6344   -1.6545 C   0  0  0  0  0  0  0  0  0  0  0  0
   -0.9018    0.8960    2.7178 N   0  0  0  0  0  0  0  0  0  0  0  0
    0.3378    1.4729    2.4871 C   0  0  0  0  0  0  0  0  0  0  0  0
    0.4553    2.0451    1.3124 O   0  0  0  0  0  0  0  0  0  0  0  0
    1.5522    1.5266    3.3828 C   0  0  2  0  0  0  0  0  0  0  0  0
    1.3713    2.2233    4.6445 C   0  0  0  0  0  0  0  0  0  0  0  0
    2.5249    2.2203    2.4827 N   0  0  0  0  0  0  0  0  0  0  0  0
    3.0425    1.5158    1.3855 C   0  0  0  0  0  0  0  0  0  0  0  0
    2.6518    0.2706    1.2561 O   0  0  0  0  0  0  0  0  0  0  0  0
    3.9408    2.0311    0.3707 C   0  0  2  0  0  0  0  0  0  0  0  0
    3.4795    3.3981   -0.1552 C   0  0  0  0  0  0  0  0  0  0  0  0
    4.0459    1.0657   -0.7147 N   0  0  0  0  0  0  0  0  0  0  0  0
    5.2112    0.6873   -1.3902 C   0  0  0  0  0  0  0  0  0  0  0  0
    6.2831    1.2504   -1.0416 O   0  0  0  0  0  0  0  0  0  0  0  0
    5.2118   -0.3487   -2.4889 C   0  0  2  0  0  0  0  0  0  0  0  0
    3.8861   -0.8615   -2.8520 C   0  0  0  0  0  0  0  0  0  0  0  0
    6.2663   -1.3137   -2.3407 N   0  0  0  0  0  0  0  0  0  0  0  0
    7.0315   -1.6030   -1.2308 C   0  0  0  0  0  0  0  0  0  0  0  0
    6.8495   -1.0393   -0.1057 O   0  0  0  0  0  0  0  0  0  0  0  0
    8.1808   -2.6185   -1.2167 C   0  0  2  0  0  0  0  0  0  0  0  0
    7.6720   -3.8268   -0.5361 C   0  0  0  0  0  0  0  0  0  0  0  0
    9.1816   -1.9726   -0.3598 N   0  0  0  0  0  0  0  0  0  0  0  0
   10.3952   -1.5015   -0.8307 C   0  0  0  0  0  0  0  0  0  0  0  0
   10.7034   -1.6680   -2.0546 O   0  0  0  0  0  0  0  0  0  0  0  0
   11.3501   -0.7985    0.0420 C   0  0  2  0  0  0  0  0  0  0  0  0
   10.7216    0.5528    0.4487 C   0  0  0  0  0  0  0  0  0  0  0  0
   12.6093   -0.4570   -0.6091 N   0  0  0  0  0  0  0  0  0  0  0  0
   13.8582   -0.5960   -0.0277 C   0  0  0  0  0  0  0  0  0  0  0  0
   13.9067   -1.0723    1.1627 O   0  0  0  0  0  0  0  0  0  0  0  0
   15.1582   -0.2332   -0.6724 C   0  0  2  0  0  0  0  0  0  0  0  0
   15.3406   -0.7909   -2.0471 C   0  0  0  0  0  0  0  0  0  0  0  0
   16.2859   -0.4312    0.2000 N   0  0  0  0  0  0  0  0  0  0  0  0
   17.0674    0.6040    0.7623 C   0  0  0  0  0  0  0  0  0  0  0  0
   16.7849    1.7854    0.4936 O   0  0  0  0  0  0  0  0  0  0  0  0
   18.1993    0.3186    1.6565 C   0  0  0  0  0  0  0  0  0  0  0  0
   17.6833   -0.3954    2.8615 C   0  0  0  0  0  0  0  0  0  0  0  0
   19.2816   -0.5044    0.9495 C   0  0  0  0  0  0  0  0  0  0  0  0
  -13.2969   -2.0955    3.4133 C   0  0  0  0  0  0  0  0  0  0  0  0
  -15.7343   -1.4706    0.3728 H   0  0  0  0  0  0  0  0  0  0  0  0
  -17.1615   -2.3796    1.0080 H   0  0  0  0  0  0  0  0  0  0  0  0
  -15.9228   -3.2713    0.0633 H   0  0  0  0  0  0  0  0  0  0  0  0
  -15.9416   -2.4567    2.9327 H   0  0  0  0  0  0  0  0  0  0  0  0
  -15.2492   -4.5173    3.1574 H   0  0  0  0  0  0  0  0  0  0  0  0
  -15.3341   -4.6655    1.3259 H   0  0  0  0  0  0  0  0  0  0  0  0
  -13.7681   -4.1918    2.1206 H   0  0  0  0  0  0  0  0  0  0  0  0
  -14.4121   -0.7476    2.1143 H   0  0  0  0  0  0  0  0  0  0  0  0
  -13.2848   -2.8620    0.4364 H   0  0  0  0  0  0  0  0  0  0  0  0
  -12.2851   -0.8059   -1.4069 H   0  0  0  0  0  0  0  0  0  0  0  0
  -11.4059   -3.2153    0.1392 H   0  0  0  0  0  0  0  0  0  0  0  0
  -11.6970   -2.9432   -1.6823 H   0  0  0  0  0  0  0  0  0  0  0  0
  -10.0821   -2.7774   -0.9615 H   0  0  0  0  0  0  0  0  0  0  0  0
   -9.7687   -0.7356   -1.6736 H   0  0  0  0  0  0  0  0  0  0  0  0
   -8.8337    2.4841   -0.6723 H   0  0  0  0  0  0  0  0  0  0  0  0
   -7.0437    1.6316   -2.2900 H   0  0  0  0  0  0  0  0  0  0  0  0
   -7.8445    0.0754   -2.3095 H   0  0  0  0  0  0  0  0  0  0  0  0
   -9.8508   -0.1204   -3.8566 H   0  0  0  0  0  0  0  0  0  0  0  0
  -11.1709    0.8703   -5.5715 H   0  0  0  0  0  0  0  0  0  0  0  0
  -11.0281    3.3261   -5.9923 H   0  0  0  0  0  0  0  0  0  0  0  0
   -9.6045    4.7122   -4.6268 H   0  0  0  0  0  0  0  0  0  0  0  0
   -8.2277    3.7053   -2.7787 H   0  0  0  0  0  0  0  0  0  0  0  0
   -7.2851   -0.0754   -0.1270 H   0  0  0  0  0  0  0  0  0  0  0  0
   -5.5489    2.0194    2.7365 H   0  0  0  0  0  0  0  0  0  0  0  0
   -5.5154    4.0191    0.3888 H   0  0  0  0  0  0  0  0  0  0  0  0
   -5.5336    4.2847    2.1811 H   0  0  0  0  0  0  0  0  0  0  0  0
   -7.0164    3.7513    1.3368 H   0  0  0  0  0  0  0  0  0  0  0  0
   -3.6967    2.4034    0.3926 H   0  0  0  0  0  0  0  0  0  0  0  0
   -1.5068    1.8557    0.9862 H   0  0  0  0  0  0  0  0  0  0  0  0
   -0.4470   -0.1954    0.5260 H   0  0  0  0  0  0  0  0  0  0  0  0
   -1.7339   -1.1518    1.2188 H   0  0  0  0  0  0  0  0  0  0  0  0
   -3.7089   -1.6617   -0.1628 H   0  0  0  0  0  0  0  0  0  0  0  0
   -4.7541   -1.5886   -2.3114 H   0  0  0  0  0  0  0  0  0  0  0  0
   -3.8982   -0.1270   -4.1214 H   0  0  0  0  0  0  0  0  0  0  0  0
   -2.0253    1.3062   -3.7186 H   0  0  0  0  0  0  0  0  0  0  0  0
   -0.9134    1.3101   -1.5274 H   0  0  0  0  0  0  0  0  0  0  0  0
   -1.1635    0.4218    3.5799 H   0  0  0  0  0  0  0  0  0  0  0  0
    1.8709    0.4660    3.4800 H   0  0  0  0  0  0  0  0  0  0  0  0
    1.5561    3.3337    4.5670 H   0  0  0  0  0  0  0  0  0  0  0  0
    2.0974    1.8863    5.4207 H   0  0  0  0  0  0  0  0  0  0  0  0
    0.3557    2.0874    5.1185 H   0  0  0  0  0  0  0  0  0  0  0  0
    2.7546    3.1907    2.7241 H   0  0  0  0  0  0  0  0  0  0  0  0
    4.9626    2.1831    0.7651 H   0  0  0  0  0  0  0  0  0  0  0  0
    2.4030    3.4349   -0.3000 H   0  0  0  0  0  0  0  0  0  0  0  0
    3.9150    4.1926    0.4698 H   0  0  0  0  0  0  0  0  0  0  0  0
    3.9340    3.4934   -1.1722 H   0  0  0  0  0  0  0  0  0  0  0  0
    3.1288    0.5968   -1.0266 H   0  0  0  0  0  0  0  0  0  0  0  0
    5.5943    0.2956   -3.3947 H   0  0  0  0  0  0  0  0  0  0  0  0
    3.2110   -0.0062   -3.1429 H   0  0  0  0  0  0  0  0  0  0  0  0
    3.9478   -1.4706   -3.8025 H   0  0  0  0  0  0  0  0  0  0  0  0
    3.3916   -1.4533   -2.0512 H   0  0  0  0  0  0  0  0  0  0  0  0
    6.4698   -1.8727   -3.2472 H   0  0  0  0  0  0  0  0  0  0  0  0
    8.5551   -2.8055   -2.2071 H   0  0  0  0  0  0  0  0  0  0  0  0
    7.6309   -3.6130    0.5563 H   0  0  0  0  0  0  0  0  0  0  0  0
    6.6309   -4.0798   -0.8305 H   0  0  0  0  0  0  0  0  0  0  0  0
    8.3368   -4.7038   -0.6322 H   0  0  0  0  0  0  0  0  0  0  0  0
    8.9402   -1.8588    0.6797 H   0  0  0  0  0  0  0  0  0  0  0  0
   11.4829   -1.3412    0.9829 H   0  0  0  0  0  0  0  0  0  0  0  0
    9.7207    0.4429    0.8864 H   0  0  0  0  0  0  0  0  0  0  0  0
   11.4081    0.9933    1.1904 H   0  0  0  0  0  0  0  0  0  0  0  0
   10.6039    1.1843   -0.4704 H   0  0  0  0  0  0  0  0  0  0  0  0
   12.5367   -0.0733   -1.5872 H   0  0  0  0  0  0  0  0  0  0  0  0
   15.0982    0.9040   -0.7997 H   0  0  0  0  0  0  0  0  0  0  0  0
   15.9479   -0.0710   -2.6701 H   0  0  0  0  0  0  0  0  0  0  0  0
   14.3693   -0.8935   -2.5815 H   0  0  0  0  0  0  0  0  0  0  0  0
   15.9157   -1.7331   -2.0889 H   0  0  0  0  0  0  0  0  0  0  0  0
   16.5841   -1.4201    0.4699 H   0  0  0  0  0  0  0  0  0  0  0  0
   18.6757    1.2821    1.9669 H   0  0  0  0  0  0  0  0  0  0  0  0
   18.3369   -1.2471    3.1549 H   0  0  0  0  0  0  0  0  0  0  0  0
   16.6681   -0.8576    2.6549 H   0  0  0  0  0  0  0  0  0  0  0  0
   17.6261    0.3186    3.6968 H   0  0  0  0  0  0  0  0  0  0  0  0
   18.7160   -1.2335    0.3031 H   0  0  0  0  0  0  0  0  0  0  0  0
   19.8748    0.0942    0.2448 H   0  0  0  0  0  0  0  0  0  0  0  0
   19.8649   -1.0471    1.6675 H   0  0  0  0  0  0  0  0  0  0  0  0
  -12.8383   -1.1028    3.6627 H   0  0  0  0  0  0  0  0  0  0  0  0
  -12.5606   -2.8893    3.2437 H   0  0  0  0  0  0  0  0  0  0  0  0
  -13.9936   -2.4199    4.1738 H   0  0  0  0  0  0  0  0  0  0  0  0
  1  2  1  0
  2  3  1  0
  2  4  1  0
  4  5  1  0
  5  6  1  0
  6  7  2  0
  6  8  1  0
  8  9  1  0
  8 10  1  0
 10 11  1  0
 11 12  2  0
 11 13  1  0
 13 14  1  0
 14 15  1  0
 15 16  2  0
 16 17  1  0
 17 18  2  0
 18 19  1  0
 19 20  2  0
 13 21  1  0
 21 22  1  0
 22 23  2  0
 22 24  1  0
 24 25  1  0
 24 26  1  0
 26 27  1  0
 27 28  2  0
 27 29  1  0
 29 30  1  0
 30 31  1  0
 31 32  2  0
 32 33  1  0
 33 34  2  0
 34 35  1  0
 35 36  2  0
 29 37  1  0
 37 38  1  0
 38 39  2  0
 38 40  1  0
 40 41  1  0
 40 42  1  0
 42 43  1  0
 43 44  2  0
 43 45  1  0
 45 46  1  0
 45 47  1  0
 47 48  1  0
 48 49  2  0
 48 50  1  0
 50 51  1  0
 50 52  1  0
 52 53  1  0
 53 54  2  0
 53 55  1  0
 55 56  1  0
 55 57  1  0
 57 58  1  0
 58 59  2  0
 58 60  1  0
 60 61  1  0
 60 62  1  0
 62 63  1  0
 63 64  2  0
 63 65  1  0
 65 66  1  0
 65 67  1  0
 67 68  1  0
 68 69  2  0
 68 70  1  0
 70 71  1  0
 70 72  1  0
  4 73  1  0
 20 15  1  0
 36 31  1  0
  1 74  1  0
  1 75  1  0
  1 76  1  0
  2 77  1  0
  3 78  1  0
  3 79  1  0
  3 80  1  0
  4 81  1  1
  5 82  1  0
  8 83  1  6
  9 84  1  0
  9 85  1  0
  9 86  1  0
 10 87  1  0
 13 88  1  6
 14 89  1  0
 14 90  1  0
 16 91  1  0
 17 92  1  0
 18 93  1  0
 19 94  1  0
 20 95  1  0
 21 96  1  0
 24 97  1  1
 25 98  1  0
 25 99  1  0
 25100  1  0
 26101  1  0
 29102  1  6
 30103  1  0
 30104  1  0
 32105  1  0
 33106  1  0
 34107  1  0
 35108  1  0
 36109  1  0
 37110  1  0
 40111  1  1
 41112  1  0
 41113  1  0
 41114  1  0
 42115  1  0
 45116  1  1
 46117  1  0
 46118  1  0
 46119  1  0
 47120  1  0
 50121  1  6
 51122  1  0
 51123  1  0
 51124  1  0
 52125  1  0
 55126  1  6
 56127  1  0
 56128  1  0
 56129  1  0
 57130  1  0
 60131  1  1
 61132  1  0
 61133  1  0
 61134  1  0
 62135  1  0
 65136  1  6
 66137  1  0
 66138  1  0
 66139  1  0
 67140  1  0
 70141  1  0
 71142  1  0
 71143  1  0
 71144  1  0
 72145  1  0
 72146  1  0
 72147  1  0
 73148  1  0
 73149  1  0
 73150  1  0
M  END
$$$$
[H]c1c([H])c([H])c(C([H])([H])[C@@]([H])(C(=O)N([H])[C@]([H])(C(=O)N([H])[C@]([H])(C(=O)N([H])[C@]([H])(C(=O)N([H])[C@]([H])(C(=O)N([H])[C@]([H])(C([H])([H])[H])C([H])(C([H])([H])[H])C([H])([H])[H])C([H])([H])[H])C([H])([H])c2c([H])c([H])c([H])c([H])c2[H])C([H])([H])[H])C([H])([H])[H])N([H])C(=O)[C@@]([H])(N([H])C(=O)[C@@]([H])(N([H])C(=O)[C@@]([H])(N([H])C(=O)[C@@]([H])(N([H])C(=O)[C@@]([H])(N([H])C(=O)C([H])(C([H])([H])[H])C([H])([H])[H])C([H])([H])[H])C([H])([H])[H])C([H])([H])[H])C([H])([H])[H])C([H])([H])[H])c([H])c1[H]
     RDKit          3D

150151  0  0  0  0  0  0  0  0999 V2000
  -14.0537    5.3422    2.1384 C   0  0  0  0  0  0  0  0  0  0  0  0
  -12.6127    4.9249    2.0480 C   0  0  0  0  0  0  0  0  0  0  0  0
  -11.7992    5.6442    3.1060 C   0  0  0  0  0  0  0  0  0  0  0  0
  -12.4237    3.4640    2.2478 C   0  0  2  0  0  0  0  0  0  0  0  0
  -13.1215    2.6368    1.2514 N   0  0  0  0  0  0  0  0  0  0  0  0
  -12.4722    1.4865    0.7700 C   0  0  0  0  0  0  0  0  0  0  0  0
  -11.3378    1.1812    1.1959 O   0  0  0  0  0  0  0  0  0  0  0  0
  -13.1184    0.5939   -0.2607 C   0  0  2  0  0  0  0  0  0  0  0  0
  -14.4543    0.1974    0.2179 C   0  0  0  0  0  0  0  0  0  0  0  0
  -12.2048   -0.5568   -0.3610 N   0  0  0  0  0  0  0  0  0  0  0  0
  -11.1496   -0.6262   -1.2674 C   0  0  0  0  0  0  0  0  0  0  0  0
  -11.0556    0.4151   -2.0500 O   0  0  0  0  0  0  0  0  0  0  0  0
  -10.1454   -1.6390   -1.4573 C   0  0  2  0  0  0  0  0  0  0  0  0
  -10.2463   -2.9808   -0.8626 C   0  0  0  0  0  0  0  0  0  0  0  0
  -11.3903   -3.8085   -1.4009 C   0  0  0  0  0  0  0  0  0  0  0  0
  -11.1646   -4.4201   -2.6470 C   0  0  0  0  0  0  0  0  0  0  0  0
  -12.1117   -5.2358   -3.2153 C   0  0  0  0  0  0  0  0  0  0  0  0
  -13.3039   -5.4672   -2.5668 C   0  0  0  0  0  0  0  0  0  0  0  0
  -13.5099   -4.8714   -1.3636 C   0  0  0  0  0  0  0  0  0  0  0  0
  -12.5646   -4.0474   -0.7793 C   0  0  0  0  0  0  0  0  0  0  0  0
   -8.8481   -1.0142   -1.4521 N   0  0  0  0  0  0  0  0  0  0  0  0
   -7.6319   -1.5911   -1.8602 C   0  0  0  0  0  0  0  0  0  0  0  0
   -7.5077   -2.7722   -2.2706 O   0  0  0  0  0  0  0  0  0  0  0  0
   -6.3822   -0.7864   -1.8140 C   0  0  2  0  0  0  0  0  0  0  0  0
   -5.9976   -0.5585   -3.2796 C   0  0  0  0  0  0  0  0  0  0  0  0
   -5.3576   -1.5748   -1.1447 N   0  0  0  0  0  0  0  0  0  0  0  0
   -4.5222   -0.8746   -0.2517 C   0  0  0  0  0  0  0  0  0  0  0  0
   -4.7295    0.3944   -0.1416 O   0  0  0  0  0  0  0  0  0  0  0  0
   -3.4422   -1.4205    0.5655 C   0  0  2  0  0  0  0  0  0  0  0  0
   -3.8714   -1.3622    2.0449 C   0  0  0  0  0  0  0  0  0  0  0  0
   -2.2966   -0.5177    0.3935 N   0  0  0  0  0  0  0  0  0  0  0  0
   -0.9720   -0.9900    0.5510 C   0  0  0  0  0  0  0  0  0  0  0  0
   -0.8239   -2.1941    0.8795 O   0  0  0  0  0  0  0  0  0  0  0  0
    0.2263   -0.1706    0.3522 C   0  0  2  0  0  0  0  0  0  0  0  0
    0.3633    0.1697   -1.1653 C   0  0  0  0  0  0  0  0  0  0  0  0
    0.4868   -1.0527   -1.9484 C   0  0  0  0  0  0  0  0  0  0  0  0
    1.7246   -1.6256   -2.1554 C   0  0  0  0  0  0  0  0  0  0  0  0
    1.8996   -2.7803   -2.8736 C   0  0  0  0  0  0  0  0  0  0  0  0
    0.8043   -3.4072   -3.4189 C   0  0  0  0  0  0  0  0  0  0  0  0
   -0.4458   -2.8728   -3.2391 C   0  0  0  0  0  0  0  0  0  0  0  0
   -0.5960   -1.6894   -2.4987 C   0  0  0  0  0  0  0  0  0  0  0  0
    1.4261   -0.8842    0.7435 N   0  0  0  0  0  0  0  0  0  0  0  0
    2.5756   -0.2829    1.2548 C   0  0  0  0  0  0  0  0  0  0  0  0
    2.6558    0.9456    1.4234 O   0  0  0  0  0  0  0  0  0  0  0  0
    3.7812   -1.1121    1.6183 C   0  0  2  0  0  0  0  0  0  0  0  0
    3.4787   -2.1265    2.6601 C   0  0  0  0  0  0  0  0  0  0  0  0
    4.8791   -0.2479    2.0059 N   0  0  0  0  0  0  0  0  0  0  0  0
    5.7703    0.3000    1.0772 C   0  0  0  0  0  0  0  0  0  0  0  0
    5.5967    0.0347   -0.1628 O   0  0  0  0  0  0  0  0  0  0  0  0
    6.9270    1.1829    1.3772 C   0  0  2  0  0  0  0  0  0  0  0  0
    6.5667    2.1497    2.4401 C   0  0  0  0  0  0  0  0  0  0  0  0
    7.5125    1.7374    0.2045 N   0  0  0  0  0  0  0  0  0  0  0  0
    8.6378    1.1926   -0.4492 C   0  0  0  0  0  0  0  0  0  0  0  0
    9.2442    0.1821   -0.1100 O   0  0  0  0  0  0  0  0  0  0  0  0
    9.1106    1.9498   -1.6719 C   0  0  2  0  0  0  0  0  0  0  0  0
    8.0505    2.2040   -2.6654 C   0  0  0  0  0  0  0  0  0  0  0  0
   10.2303    1.2071   -2.2148 N   0  0  0  0  0  0  0  0  0  0  0  0
   11.5031    1.2271   -1.6428 C   0  0  0  0  0  0  0  0  0  0  0  0
   11.7318    1.8941   -0.5962 O   0  0  0  0  0  0  0  0  0  0  0  0
   12.6796    0.4873   -2.1928 C   0  0  2  0  0  0  0  0  0  0  0  0
   12.2453   -0.4489   -3.2392 C   0  0  0  0  0  0  0  0  0  0  0  0
   13.3728   -0.1570   -1.1184 N   0  0  0  0  0  0  0  0  0  0  0  0
   14.4297    0.3862   -0.3729 C   0  0  0  0  0  0  0  0  0  0  0  0
   14.8140    1.5481   -0.6636 O   0  0  0  0  0  0  0  0  0  0  0  0
   15.0888   -0.3696    0.7360 C   0  0  2  0  0  0  0  0  0  0  0  0
   14.0378   -0.6993    1.7697 C   0  0  0  0  0  0  0  0  0  0  0  0
   16.0900    0.4595    1.3421 N   0  0  0  0  0  0  0  0  0  0  0  0
   17.4523    0.0246    1.4098 C   0  0  0  0  0  0  0  0  0  0  0  0
   17.7419   -1.0840    0.9302 O   0  0  0  0  0  0  0  0  0  0  0  0
   18.4917    0.8709    2.0331 C   0  0  0  0  0  0  0  0  0  0  0  0
   18.6016    2.2115    1.2930 C   0  0  0  0  0  0  0  0  0  0  0  0
   18.0769    1.1877    3.4565 C   0  0  0  0  0  0  0  0  0  0  0  0
  -12.9545    3.0605    3.6298 C   0  0  0  0  0  0  0  0  0  0  0  0
  -14.7168    4.4583    2.3460 H   0  0  0  0  0  0  0  0  0  0  0  0
  -14.2143    6.0871    2.9786 H   0  0  0  0  0  0  0  0  0  0  0  0
  -14.3614    5.8081    1.1893 H   0  0  0  0  0  0  0  0  0  0  0  0
  -12.2395    5.2151    1.0250 H   0  0  0  0  0  0  0  0  0  0  0  0
  -11.7121    6.7252    2.7945 H   0  0  0  0  0  0  0  0  0  0  0  0
  -12.2507    5.6127    4.0977 H   0  0  0  0  0  0  0  0  0  0  0  0
  -10.7674    5.2253    3.1252 H   0  0  0  0  0  0  0  0  0  0  0  0
  -11.3484    3.2014    2.2281 H   0  0  0  0  0  0  0  0  0  0  0  0
  -14.0511    2.9016    0.9318 H   0  0  0  0  0  0  0  0  0  0  0  0
  -13.0893    1.1705   -1.2042 H   0  0  0  0  0  0  0  0  0  0  0  0
  -14.6367   -0.9054    0.2477 H   0  0  0  0  0  0  0  0  0  0  0  0
  -15.2573    0.5947   -0.4666 H   0  0  0  0  0  0  0  0  0  0  0  0
  -14.6797    0.5397    1.2586 H   0  0  0  0  0  0  0  0  0  0  0  0
  -12.3899   -1.3028    0.3178 H   0  0  0  0  0  0  0  0  0  0  0  0
  -10.2376   -1.9165   -2.6241 H   0  0  0  0  0  0  0  0  0  0  0  0
  -10.4311   -2.8922    0.2616 H   0  0  0  0  0  0  0  0  0  0  0  0
   -9.3515   -3.5947   -1.0405 H   0  0  0  0  0  0  0  0  0  0  0  0
  -10.2194   -4.2376   -3.1563 H   0  0  0  0  0  0  0  0  0  0  0  0
  -11.9492   -5.7108   -4.1795 H   0  0  0  0  0  0  0  0  0  0  0  0
  -14.0361   -6.1215   -3.0572 H   0  0  0  0  0  0  0  0  0  0  0  0
  -14.4220   -5.0213   -0.8253 H   0  0  0  0  0  0  0  0  0  0  0  0
  -12.7511   -3.5908    0.1796 H   0  0  0  0  0  0  0  0  0  0  0  0
   -8.7752   -0.0018   -1.0986 H   0  0  0  0  0  0  0  0  0  0  0  0
   -6.5061    0.1987   -1.3783 H   0  0  0  0  0  0  0  0  0  0  0  0
   -6.9506   -0.3756   -3.8139 H   0  0  0  0  0  0  0  0  0  0  0  0
   -5.5682   -1.5125   -3.6713 H   0  0  0  0  0  0  0  0  0  0  0  0
   -5.3516    0.3147   -3.4254 H   0  0  0  0  0  0  0  0  0  0  0  0
   -5.2296   -2.5970   -1.3100 H   0  0  0  0  0  0  0  0  0  0  0  0
   -3.1141   -2.4343    0.3980 H   0  0  0  0  0  0  0  0  0  0  0  0
   -4.9180   -1.0057    2.0549 H   0  0  0  0  0  0  0  0  0  0  0  0
   -3.1983   -0.6894    2.6040 H   0  0  0  0  0  0  0  0  0  0  0  0
   -3.8929   -2.3926    2.4393 H   0  0  0  0  0  0  0  0  0  0  0  0
   -2.4696    0.4813    0.1535 H   0  0  0  0  0  0  0  0  0  0  0  0
    0.1470    0.7869    0.8309 H   0  0  0  0  0  0  0  0  0  0  0  0
   -0.5643    0.7257   -1.4021 H   0  0  0  0  0  0  0  0  0  0  0  0
    1.2028    0.8828   -1.2525 H   0  0  0  0  0  0  0  0  0  0  0  0
    2.6187   -1.1707   -1.7497 H   0  0  0  0  0  0  0  0  0  0  0  0
    2.8887   -3.2021   -3.0198 H   0  0  0  0  0  0  0  0  0  0  0  0
    0.9791   -4.3233   -3.9769 H   0  0  0  0  0  0  0  0  0  0  0  0
   -1.2859   -3.3787   -3.6731 H   0  0  0  0  0  0  0  0  0  0  0  0
   -1.6158   -1.3447   -2.4134 H   0  0  0  0  0  0  0  0  0  0  0  0
    1.4094   -1.9174    0.6313 H   0  0  0  0  0  0  0  0  0  0  0  0
    4.0048   -1.6414    0.6513 H   0  0  0  0  0  0  0  0  0  0  0  0
    3.6328   -3.1740    2.3256 H   0  0  0  0  0  0  0  0  0  0  0  0
    2.3855   -2.0900    2.9488 H   0  0  0  0  0  0  0  0  0  0  0  0
    4.0243   -1.9001    3.6186 H   0  0  0  0  0  0  0  0  0  0  0  0
    5.0300   -0.0129    3.0043 H   0  0  0  0  0  0  0  0  0  0  0  0
    7.7133    0.4571    1.7847 H   0  0  0  0  0  0  0  0  0  0  0  0
    6.7493    1.7735    3.4776 H   0  0  0  0  0  0  0  0  0  0  0  0
    7.1798    3.0890    2.3895 H   0  0  0  0  0  0  0  0  0  0  0  0
    5.5073    2.4733    2.4179 H   0  0  0  0  0  0  0  0  0  0  0  0
    7.0575    2.6082   -0.1711 H   0  0  0  0  0  0  0  0  0  0  0  0
    9.4970    2.9089   -1.2295 H   0  0  0  0  0  0  0  0  0  0  0  0
    8.3734    2.0241   -3.7262 H   0  0  0  0  0  0  0  0  0  0  0  0
    7.1615    1.5348   -2.5284 H   0  0  0  0  0  0  0  0  0  0  0  0
    7.6292    3.2320   -2.6070 H   0  0  0  0  0  0  0  0  0  0  0  0
   10.0158    0.6458   -3.0764 H   0  0  0  0  0  0  0  0  0  0  0  0
   13.3542    1.3094   -2.5740 H   0  0  0  0  0  0  0  0  0  0  0  0
   11.2833   -0.9668   -2.9749 H   0  0  0  0  0  0  0  0  0  0  0  0
   12.9887   -1.2703   -3.4610 H   0  0  0  0  0  0  0  0  0  0  0  0
   12.0985    0.0588   -4.2198 H   0  0  0  0  0  0  0  0  0  0  0  0
   13.0732   -1.1454   -0.8497 H   0  0  0  0  0  0  0  0  0  0  0  0
   15.5108   -1.3223    0.3449 H   0  0  0  0  0  0  0  0  0  0  0  0
   14.4598   -0.6626    2.7998 H   0  0  0  0  0  0  0  0  0  0  0  0
   13.6503   -1.7435    1.6213 H   0  0  0  0  0  0  0  0  0  0  0  0
   13.2078    0.0377    1.7474 H   0  0  0  0  0  0  0  0  0  0  0  0
   15.8574    1.3855    1.7425 H   0  0  0  0  0  0  0  0  0  0  0  0
   19.4717    0.3737    1.9819 H   0  0  0  0  0  0  0  0  0  0  0  0
   19.0220    2.9258    2.0234 H   0  0  0  0  0  0  0  0  0  0  0  0
   19.2144    2.1279    0.3845 H   0  0  0  0  0  0  0  0  0  0  0  0
   17.5898    2.5735    1.0091 H   0  0  0  0  0  0  0  0  0  0  0  0
   18.6593    0.5420    4.1723 H   0  0  0  0  0  0  0  0  0  0  0  0
   18.3146    2.2379    3.6950 H   0  0  0  0  0  0  0  0  0  0  0  0
   17.0204    0.9490    3.6404 H   0  0  0  0  0  0  0  0  0  0  0  0
  -13.7552    3.7012    3.9831 H   0  0  0  0  0  0  0  0  0  0  0  0
  -13.2603    1.9809    3.6378 H   0  0  0  0  0  0  0  0  0  0  0  0
  -12.1006    3.1159    4.3398 H   0  0  0  0  0  0  0  0  0  0  0  0
  1  2  1  0
  2  3  1  0
  2  4  1  0
  4  5  1  0
  5  6  1  0
  6  7  2  0
  6  8  1  0
  8  9  1  0
  8 10  1  0
 10 11  1  0
 11 12  2  0
 11 13  1  0
 13 14  1  0
 14 15  1  0
 15 16  2  0
 16 17  1  0
 17 18  2  0
 18 19  1  0
 19 20  2  0
 13 21  1  0
 21 22  1  0
 22 23  2  0
 22 24  1  0
 24 25  1  0
 24 26  1  0
 26 27  1  0
 27 28  2  0
 27 29  1  0
 29 30  1  0
 29 31  1  0
 31 32  1  0
 32 33  2  0
 32 34  1  0
 34 35  1  0
 35 36  1  0
 36 37  2  0
 37 38  1  0
 38 39  2  0
 39 40  1  0
 40 41  2  0
 34 42  1  0
 42 43  1  0
 43 44  2  0
 43 45  1  0
 45 46  1  0
 45 47  1  0
 47 48  1  0
 48 49  2  0
 48 50  1  0
 50 51  1  0
 50 52  1  0
 52 53  1  0
 53 54  2  0
 53 55  1  0
 55 56  1  0
 55 57  1  0
 57 58  1  0
 58 59  2  0
 58 60  1  0
 60 61  1  0
 60 62  1  0
 62 63  1  0
 63 64  2  0
 63 65  1  0
 65 66  1  0
 65 67  1  0
 67 68  1  0
 68 69  2  0
 68 70  1  0
 70 71  1  0
 70 72  1  0
  4 73  1  0
 20 15  1  0
 41 36  1  0
  1 74  1  0
  1 75  1  0
  1 76  1  0
  2 77  1  0
  3 78  1  0
  3 79  1  0
  3 80  1  0
  4 81  1  1
  5 82  1  0
  8 83  1  6
  9 84  1  0
  9 85  1  0
  9 86  1  0
 10 87  1  0
 13 88  1  6
 14 89  1  0
 14 90  1  0
 16 91  1  0
 17 92  1  0
 18 93  1  0
 19 94  1  0
 20 95  1  0
 21 96  1  0
 24 97  1  1
 25 98  1  0
 25 99  1  0
 25100  1  0
 26101  1  0
 29102  1  6
 30103  1  0
 30104  1  0
 30105  1  0
 31106  1  0
 34107  1  1
 35108  1  0
 35109  1  0
 37110  1  0
 38111  1  0
 39112  1  0
 40113  1  0
 41114  1  0
 42115  1  0
 45116  1  6
 46117  1  0
 46118  1  0
 46119  1  0
 47120  1  0
 50121  1  1
 51122  1  0
 51123  1  0
 51124  1  0
 52125  1  0
 55126  1  1
 56127  1  0
 56128  1  0
 56129  1  0
 57130  1  0
 60131  1  6
 61132  1  0
 61133  1  0
 61134  1  0
 62135  1  0
 65136  1  6
 66137  1  0
 66138  1  0
 66139  1  0
 67140  1  0
 70141  1  0
 71142  1  0
 71143  1  0
 71144  1  0
 72145  1  0
 72146  1  0
 72147  1  0
 73148  1  0
 73149  1  0
 73150  1  0
M  END
$$$$
[H]c1c([H])c([H])c(C([H])([H])[C@@]([H])(C(=O)N([H])[C@]([H])(C(=O)N([H])[C@]([H])(C([H])([H])[H])C([H])(C([H])([H])[H])C([H])([H])[H])C([H])([H])[H])N([H])C(=O)[C@@]([H])(N([H])C(=O)[C@@]([H])(N([H])C(=O)[C@@]([H])(N([H])C(=O)[C@@]([H])(N([H])C(=O)[C@@]([H])(N([H])C(=O)[C@@]([H])(N([H])C(=O)[C@@]([H])(N([H])C(=O)[C@@]([H])(N([H])C(=O)C([H])(C([H])([H])[H])C([H])([H])[H])C([H])([H])[H])C([H])([H])[H])C([H])([H])[H])C([H])([H])[H])C([H])([H])[H])C([H])([H])[H])C([H])([H])[H])C([H])([H])c2c([H])c([H])c([H])c([H])c2[H])c([H])c1[H]
     RDKit          3D

150151  0  0  0  0  0  0  0  0999 V2000
  -16.9334   -1.3048    0.1702 C   0  0  0  0  0  0  0  0  0  0  0  0
  -15.6835   -1.1315    0.9862 C   0  0  0  0  0  0  0  0  0  0  0  0
  -15.9804   -1.0724    2.4558 C   0  0  0  0  0  0  0  0  0  0  0  0
  -14.6236   -2.1036    0.6000 C   0  0  2  0  0  0  0  0  0  0  0  0
  -13.4048   -2.0069    1.3236 N   0  0  0  0  0  0  0  0  0  0  0  0
  -12.1633   -1.4717    0.9564 C   0  0  0  0  0  0  0  0  0  0  0  0
  -11.9766   -0.9504   -0.1518 O   0  0  0  0  0  0  0  0  0  0  0  0
  -11.0004   -1.5125    1.9070 C   0  0  2  0  0  0  0  0  0  0  0  0
  -11.2891   -2.0480    3.2484 C   0  0  0  0  0  0  0  0  0  0  0  0
  -10.2253   -0.3194    1.9707 N   0  0  0  0  0  0  0  0  0  0  0  0
   -9.2385    0.1092    1.0527 C   0  0  0  0  0  0  0  0  0  0  0  0
   -9.0559   -0.6248    0.0583 O   0  0  0  0  0  0  0  0  0  0  0  0
   -8.4438    1.3268    1.1990 C   0  0  2  0  0  0  0  0  0  0  0  0
   -9.3296    2.5143    1.4985 C   0  0  0  0  0  0  0  0  0  0  0  0
  -10.3062    2.8561    0.4697 C   0  0  0  0  0  0  0  0  0  0  0  0
   -9.9082    3.5927   -0.6469 C   0  0  0  0  0  0  0  0  0  0  0  0
  -10.7847    3.9866   -1.6233 C   0  0  0  0  0  0  0  0  0  0  0  0
  -12.1239    3.6435   -1.5034 C   0  0  0  0  0  0  0  0  0  0  0  0
  -12.5476    2.9247   -0.4283 C   0  0  0  0  0  0  0  0  0  0  0  0
  -11.6368    2.5374    0.5500 C   0  0  0  0  0  0  0  0  0  0  0  0
   -7.5988    1.6187    0.0682 N   0  0  0  0  0  0  0  0  0  0  0  0
   -6.2691    2.0673    0.1823 C   0  0  0  0  0  0  0  0  0  0  0  0
   -5.8179    2.1786    1.3369 O   0  0  0  0  0  0  0  0  0  0  0  0
   -5.4501    2.4061   -0.9955 C   0  0  2  0  0  0  0  0  0  0  0  0
   -5.3956    1.4692   -2.1235 C   0  0  0  0  0  0  0  0  0  0  0  0
   -4.8471    0.1466   -1.9971 C   0  0  0  0  0  0  0  0  0  0  0  0
   -5.5709   -0.9327   -1.5588 C   0  0  0  0  0  0  0  0  0  0  0  0
   -4.9956   -2.1792   -1.4799 C   0  0  0  0  0  0  0  0  0  0  0  0
   -3.6927   -2.4217   -1.8274 C   0  0  0  0  0  0  0  0  0  0  0  0
   -2.9307   -1.3357   -2.2787 C   0  0  0  0  0  0  0  0  0  0  0  0
   -3.5208   -0.1029   -2.3501 C   0  0  0  0  0  0  0  0  0  0  0  0
   -4.1830    2.9647   -0.6118 N   0  0  0  0  0  0  0  0  0  0  0  0
   -3.1964    2.4560    0.2413 C   0  0  0  0  0  0  0  0  0  0  0  0
   -3.2354    1.3734    0.8502 O   0  0  0  0  0  0  0  0  0  0  0  0
   -1.9600    3.2701    0.4506 C   0  0  2  0  0  0  0  0  0  0  0  0
   -1.3780    3.6886   -0.8992 C   0  0  0  0  0  0  0  0  0  0  0  0
   -0.9077    2.5659    1.1370 N   0  0  0  0  0  0  0  0  0  0  0  0
   -0.2349    1.4626    0.5268 C   0  0  0  0  0  0  0  0  0  0  0  0
   -0.6606    1.1364   -0.6341 O   0  0  0  0  0  0  0  0  0  0  0  0
    0.8548    0.7065    1.0801 C   0  0  2  0  0  0  0  0  0  0  0  0
    2.1673    1.5628    1.0215 C   0  0  0  0  0  0  0  0  0  0  0  0
    1.1443   -0.3990    0.1713 N   0  0  0  0  0  0  0  0  0  0  0  0
    2.2402   -1.2752    0.2684 C   0  0  0  0  0  0  0  0  0  0  0  0
    3.0737   -1.1331    1.1810 O   0  0  0  0  0  0  0  0  0  0  0  0
    2.4386   -2.3792   -0.7092 C   0  0  2  0  0  0  0  0  0  0  0  0
    2.1745   -3.6955    0.0678 C   0  0  0  0  0  0  0  0  0  0  0  0
    3.7835   -2.4133   -1.2113 N   0  0  0  0  0  0  0  0  0  0  0  0
    4.8446   -3.0032   -0.4966 C   0  0  0  0  0  0  0  0  0  0  0  0
    4.7591   -3.5399    0.6201 O   0  0  0  0  0  0  0  0  0  0  0  0
    6.1819   -2.9476   -1.1896 C   0  0  2  0  0  0  0  0  0  0  0  0
    6.3474   -4.2968   -1.8972 C   0  0  0  0  0  0  0  0  0  0  0  0
    7.2153   -2.7757   -0.2197 N   0  0  0  0  0  0  0  0  0  0  0  0
    8.1531   -1.7248   -0.3473 C   0  0  0  0  0  0  0  0  0  0  0  0
    8.0151   -0.9622   -1.3734 O   0  0  0  0  0  0  0  0  0  0  0  0
    9.2567   -1.4632    0.6023 C   0  0  2  0  0  0  0  0  0  0  0  0
    8.6516   -0.9226    1.8922 C   0  0  0  0  0  0  0  0  0  0  0  0
   10.1224   -0.4089    0.0329 N   0  0  0  0  0  0  0  0  0  0  0  0
   11.4559   -0.6926   -0.3186 C   0  0  0  0  0  0  0  0  0  0  0  0
   11.9059   -1.8485   -0.1209 O   0  0  0  0  0  0  0  0  0  0  0  0
   12.3679    0.3200   -0.9253 C   0  0  2  0  0  0  0  0  0  0  0  0
   11.7057    0.8807   -2.2087 C   0  0  0  0  0  0  0  0  0  0  0  0
   13.6358   -0.2633   -1.2531 N   0  0  0  0  0  0  0  0  0  0  0  0
   14.8797    0.3222   -1.0118 C   0  0  0  0  0  0  0  0  0  0  0  0
   14.9228    1.4759   -0.4623 O   0  0  0  0  0  0  0  0  0  0  0  0
   16.1799   -0.3278   -1.3622 C   0  0  2  0  0  0  0  0  0  0  0  0
   16.2857   -1.6680   -0.6373 C   0  0  0  0  0  0  0  0  0  0  0  0
   17.2910    0.5340   -1.0827 N   0  0  0  0  0  0  0  0  0  0  0  0
   17.6797    1.0054    0.1930 C   0  0  0  0  0  0  0  0  0  0  0  0
   17.1079    0.7342    1.2667 O   0  0  0  0  0  0  0  0  0  0  0  0
   18.8816    1.9108    0.2683 C   0  0  0  0  0  0  0  0  0  0  0  0
   19.0077    2.5478    1.6108 C   0  0  0  0  0  0  0  0  0  0  0  0
   20.0980    1.0624   -0.0899 C   0  0  0  0  0  0  0  0  0  0  0  0
  -14.3436   -1.8415   -0.9036 C   0  0  0  0  0  0  0  0  0  0  0  0
  -17.2109   -2.3793    0.0870 H   0  0  0  0  0  0  0  0  0  0  0  0
  -16.7517   -0.9508   -0.8547 H   0  0  0  0  0  0  0  0  0  0  0  0
  -17.7451   -0.6663    0.5903 H   0  0  0  0  0  0  0  0  0  0  0  0
  -15.2663   -0.1106    0.7038 H   0  0  0  0  0  0  0  0  0  0  0  0
  -15.1232   -1.5084    3.0075 H   0  0  0  0  0  0  0  0  0  0  0  0
  -16.0233   -0.0111    2.7708 H   0  0  0  0  0  0  0  0  0  0  0  0
  -16.9590   -1.5303    2.7336 H   0  0  0  0  0  0  0  0  0  0  0  0
  -14.9967   -3.1684    0.5440 H   0  0  0  0  0  0  0  0  0  0  0  0
  -13.4580   -2.4280    2.3198 H   0  0  0  0  0  0  0  0  0  0  0  0
  -10.3151   -2.2666    1.3537 H   0  0  0  0  0  0  0  0  0  0  0  0
  -11.2896   -3.1627    3.2753 H   0  0  0  0  0  0  0  0  0  0  0  0
  -10.5007   -1.6489    3.9497 H   0  0  0  0  0  0  0  0  0  0  0  0
  -12.2343   -1.6606    3.6486 H   0  0  0  0  0  0  0  0  0  0  0  0
  -10.3722    0.3451    2.7982 H   0  0  0  0  0  0  0  0  0  0  0  0
   -7.7735    1.2106    2.1139 H   0  0  0  0  0  0  0  0  0  0  0  0
   -8.7566    3.4289    1.7336 H   0  0  0  0  0  0  0  0  0  0  0  0
   -9.8756    2.2632    2.4529 H   0  0  0  0  0  0  0  0  0  0  0  0
   -8.8517    3.8608   -0.7507 H   0  0  0  0  0  0  0  0  0  0  0  0
  -10.4876    4.5673   -2.5001 H   0  0  0  0  0  0  0  0  0  0  0  0
  -12.8529    3.9452   -2.2727 H   0  0  0  0  0  0  0  0  0  0  0  0
  -13.6125    2.6639   -0.3628 H   0  0  0  0  0  0  0  0  0  0  0  0
  -12.0539    1.9798    1.3710 H   0  0  0  0  0  0  0  0  0  0  0  0
   -7.9929    1.4904   -0.8745 H   0  0  0  0  0  0  0  0  0  0  0  0
   -6.0225    3.3363   -1.4121 H   0  0  0  0  0  0  0  0  0  0  0  0
   -4.7930    2.0066   -2.9392 H   0  0  0  0  0  0  0  0  0  0  0  0
   -6.4179    1.4353   -2.6422 H   0  0  0  0  0  0  0  0  0  0  0  0
   -6.6002   -0.8562   -1.2735 H   0  0  0  0  0  0  0  0  0  0  0  0
   -5.5782   -3.0458   -1.1177 H   0  0  0  0  0  0  0  0  0  0  0  0
   -3.2232   -3.4082   -1.7685 H   0  0  0  0  0  0  0  0  0  0  0  0
   -1.9066   -1.5392   -2.5466 H   0  0  0  0  0  0  0  0  0  0  0  0
   -2.8744    0.7021   -2.7166 H   0  0  0  0  0  0  0  0  0  0  0  0
   -3.9087    3.9393   -1.0270 H   0  0  0  0  0  0  0  0  0  0  0  0
   -2.1413    4.2236    0.9839 H   0  0  0  0  0  0  0  0  0  0  0  0
   -1.5088    4.7775   -1.0371 H   0  0  0  0  0  0  0  0  0  0  0  0
   -1.9093    3.2103   -1.7384 H   0  0  0  0  0  0  0  0  0  0  0  0
   -0.2787    3.5071   -0.9610 H   0  0  0  0  0  0  0  0  0  0  0  0
   -0.6305    2.8526    2.0845 H   0  0  0  0  0  0  0  0  0  0  0  0
    0.8578    0.3604    2.0995 H   0  0  0  0  0  0  0  0  0  0  0  0
    2.5713    1.4009    0.0100 H   0  0  0  0  0  0  0  0  0  0  0  0
    2.8866    1.2289    1.7572 H   0  0  0  0  0  0  0  0  0  0  0  0
    1.9330    2.6230    1.1499 H   0  0  0  0  0  0  0  0  0  0  0  0
    0.4846   -0.5789   -0.6364 H   0  0  0  0  0  0  0  0  0  0  0  0
    1.6936   -2.3933   -1.5193 H   0  0  0  0  0  0  0  0  0  0  0  0
    2.6892   -4.5435   -0.3930 H   0  0  0  0  0  0  0  0  0  0  0  0
    2.4317   -3.5146    1.1076 H   0  0  0  0  0  0  0  0  0  0  0  0
    1.0590   -3.8383    0.0035 H   0  0  0  0  0  0  0  0  0  0  0  0
    3.9806   -1.9711   -2.1738 H   0  0  0  0  0  0  0  0  0  0  0  0
    6.1520   -2.1221   -1.9191 H   0  0  0  0  0  0  0  0  0  0  0  0
    7.4236   -4.4579   -2.0761 H   0  0  0  0  0  0  0  0  0  0  0  0
    5.9093   -5.0671   -1.2365 H   0  0  0  0  0  0  0  0  0  0  0  0
    5.8558   -4.3056   -2.8833 H   0  0  0  0  0  0  0  0  0  0  0  0
    7.2918   -3.4202    0.5869 H   0  0  0  0  0  0  0  0  0  0  0  0
    9.8439   -2.3297    0.8048 H   0  0  0  0  0  0  0  0  0  0  0  0
    9.1555   -1.3736    2.7561 H   0  0  0  0  0  0  0  0  0  0  0  0
    7.5883   -1.2253    1.9084 H   0  0  0  0  0  0  0  0  0  0  0  0
    8.7386    0.1898    1.9055 H   0  0  0  0  0  0  0  0  0  0  0  0
    9.7543    0.5507   -0.1081 H   0  0  0  0  0  0  0  0  0  0  0  0
   12.4911    1.1887   -0.2795 H   0  0  0  0  0  0  0  0  0  0  0  0
   12.1097    0.2740   -3.0381 H   0  0  0  0  0  0  0  0  0  0  0  0
   10.6054    0.8148   -2.1017 H   0  0  0  0  0  0  0  0  0  0  0  0
   12.0321    1.9228   -2.3545 H   0  0  0  0  0  0  0  0  0  0  0  0
   13.6433   -1.2074   -1.7128 H   0  0  0  0  0  0  0  0  0  0  0  0
   16.1953   -0.5703   -2.4638 H   0  0  0  0  0  0  0  0  0  0  0  0
   17.0989   -1.5641    0.1337 H   0  0  0  0  0  0  0  0  0  0  0  0
   16.6398   -2.4295   -1.3522 H   0  0  0  0  0  0  0  0  0  0  0  0
   15.3043   -1.9230   -0.1733 H   0  0  0  0  0  0  0  0  0  0  0  0
   17.8767    0.8469   -1.9173 H   0  0  0  0  0  0  0  0  0  0  0  0
   18.7849    2.6764   -0.5367 H   0  0  0  0  0  0  0  0  0  0  0  0
   20.0848    2.6603    1.8650 H   0  0  0  0  0  0  0  0  0  0  0  0
   18.5034    1.9896    2.4130 H   0  0  0  0  0  0  0  0  0  0  0  0
   18.4687    3.5301    1.5521 H   0  0  0  0  0  0  0  0  0  0  0  0
   20.2041    0.2654    0.6511 H   0  0  0  0  0  0  0  0  0  0  0  0
   20.9755    1.7449   -0.0735 H   0  0  0  0  0  0  0  0  0  0  0  0
   19.9101    0.6766   -1.1066 H   0  0  0  0  0  0  0  0  0  0  0  0
  -15.2387   -2.2006   -1.4795 H   0  0  0  0  0  0  0  0  0  0  0  0
  -13.4621   -2.3976   -1.2226 H   0  0  0  0  0  0  0  0  0  0  0  0
  -14.2161   -0.7729   -1.0690 H   0  0  0  0  0  0  0  0  0  0  0  0
  1  2  1  0
  2  3  1  0
  2  4  1  0
  4  5  1  0
  5  6  1  0
  6  7  2  0
  6  8  1  0
  8  9  1  0
  8 10  1  0
 10 11  1  0
 11 12  2  0
 11 13  1  0
 13 14  1  0
 14 15  1  0
 15 16  2  0
 16 17  1  0
 17 18  2  0
 18 19  1  0
 19 20  2  0
 13 21  1  0
 21 22  1  0
 22 23  2  0
 22 24  1  0
 24 25  1  0
 25 26  1  0
 26 27  2  0
 27 28  1  0
 28 29  2  0
 29 30  1  0
 30 31  2  0
 24 32  1  0
 32 33  1  0
 33 34  2  0
 33 35  1  0
 35 36  1  0
 35 37  1  0
 37 38  1  0
 38 39  2  0
 38 40  1  0
 40 41  1  0
 40 42  1  0
 42 43  1  0
 43 44  2  0
 43 45  1  0
 45 46  1  0
 45 47  1  0
 47 48  1  0
 48 49  2  0
 48 50  1  0
 50 51  1  0
 50 52  1  0
 52 53  1  0
 53 54  2  0
 53 55  1  0
 55 56  1  0
 55 57  1  0
 57 58  1  0
 58 59  2  0
 58 60  1  0
 60 61  1  0
 60 62  1  0
 62 63  1  0
 63 64  2  0
 63 65  1  0
 65 66  1  0
 65 67  1  0
 67 68  1  0
 68 69  2  0
 68 70  1  0
 70 71  1  0
 70 72  1  0
  4 73  1  0
 20 15  1  0
 31 26  1  0
  1 74  1  0
  1 75  1  0
  1 76  1  0
  2 77  1  0
  3 78  1  0
  3 79  1  0
  3 80  1  0
  4 81  1  6
  5 82  1  0
  8 83  1  6
  9 84  1  0
  9 85  1  0
  9 86  1  0
 10 87  1  0
 13 88  1  1
 14 89  1  0
 14 90  1  0
 16 91  1  0
 17 92  1  0
 18 93  1  0
 19 94  1  0
 20 95  1  0
 21 96  1  0
 24 97  1  6
 25 98  1  0
 25 99  1  0
 27100  1  0
 28101  1  0
 29102  1  0
 30103  1  0
 31104  1  0
 32105  1  0
 35106  1  1
 36107  1  0
 36108  1  0
 36109  1  0
 37110  1  0
 40111  1  1
 41112  1  0
 41113  1  0
 41114  1  0
 42115  1  0
 45116  1  6
 46117  1  0
 46118  1  0
 46119  1  0
 47120  1  0
 50121  1  6
 51122  1  0
 51123  1  0
 51124  1  0
 52125  1  0
 55126  1  1
 56127  1  0
 56128  1  0
 56129  1  0
 57130  1  0
 60131  1  1
 61132  1  0
 61133  1  0
 61134  1  0
 62135  1  0
 65136  1  6
 66137  1  0
 66138  1  0
 66139  1  0
 67140  1  0
 70141  1  0
 71142  1  0
 71143  1  0
 71144  1  0
 72145  1  0
 72146  1  0
 72147  1  0
 73148  1  0
 73149  1  0
 73150  1  0
M  END
$$$$
[H][C](N([H])C(=O)[C@@]([H])(N([H])C(=O)[C@@]([H])(N([H])C(=O)[C@@]([H])(N([H])C(=O)[C@@]([H])(N([H])C(=O)[C@@]([H])(N([H])C(=O)[C@@]([H])(N([H])C(=O)[C@@]([H])(N([H])C(=O)[C@@]([H])(N([H])C(=O)[C@]([H])(N([H])C(=O)[C@@]([H])(N([H])C(=O)C([H])(C([H])([H])[H])C([H])([H])[H])C([H])([H])[H])C([H])([H])[H])C([H])([H])[H])C([H])([H])[H])C([H])([H])[H])C([H])([H])[H])C([H])([H])c1c([H])c([H])c([H])c([H])c1[H])C([H])([H])[H])C([H])([H])c1c([H])c([H])c([H])c([H])c1[H])C([H])([H])[H])C([H])(C([H])([H])[H])C([H])([H])[H]
     RDKit          3D

146147  0  0  0  0  0  0  0  0999 V2000
  -15.7519   -5.6542   -3.3163 C   0  0  0  0  0  0  0  0  0  0  0  0
  -14.5281   -4.7984   -3.5069 C   0  0  0  0  0  0  0  0  0  0  0  0
  -14.9100   -3.6192   -4.4260 C   0  0  0  0  0  0  0  0  0  0  0  0
  -14.0172   -4.2466   -2.1873 C   0  0  0  0  0  3  0  0  0  0  0  0
  -12.7270   -3.6348   -2.3299 N   0  0  0  0  0  0  0  0  0  0  0  0
  -11.5204   -4.0762   -1.7474 C   0  0  0  0  0  0  0  0  0  0  0  0
  -11.4999   -5.0925   -1.0326 O   0  0  0  0  0  0  0  0  0  0  0  0
  -10.3001   -3.3027   -2.0080 C   0  0  2  0  0  0  0  0  0  0  0  0
  -10.0116   -3.2930   -3.5289 C   0  0  0  0  0  0  0  0  0  0  0  0
   -9.1260   -3.7975   -1.3072 N   0  0  0  0  0  0  0  0  0  0  0  0
   -8.1776   -2.8638   -0.8234 C   0  0  0  0  0  0  0  0  0  0  0  0
   -8.4311   -1.6368   -1.0383 O   0  0  0  0  0  0  0  0  0  0  0  0
   -6.9269   -3.1626   -0.1024 C   0  0  2  0  0  0  0  0  0  0  0  0
   -7.2271   -2.9181    1.4056 C   0  0  0  0  0  0  0  0  0  0  0  0
   -8.3193   -3.8034    1.8739 C   0  0  0  0  0  0  0  0  0  0  0  0
   -9.6447   -3.3864    1.8875 C   0  0  0  0  0  0  0  0  0  0  0  0
  -10.6709   -4.2092    2.3101 C   0  0  0  0  0  0  0  0  0  0  0  0
  -10.3998   -5.5111    2.7457 C   0  0  0  0  0  0  0  0  0  0  0  0
   -9.0972   -5.9453    2.7428 C   0  0  0  0  0  0  0  0  0  0  0  0
   -8.0890   -5.0820    2.3069 C   0  0  0  0  0  0  0  0  0  0  0  0
   -5.9566   -2.1996   -0.5394 N   0  0  0  0  0  0  0  0  0  0  0  0
   -4.5466   -2.2740   -0.5051 C   0  0  0  0  0  0  0  0  0  0  0  0
   -4.0196   -3.2853    0.0038 O   0  0  0  0  0  0  0  0  0  0  0  0
   -3.7097   -1.2067   -1.0481 C   0  0  2  0  0  0  0  0  0  0  0  0
   -3.0982   -1.6743   -2.4048 C   0  0  0  0  0  0  0  0  0  0  0  0
   -2.5692   -0.7698   -0.2877 N   0  0  0  0  0  0  0  0  0  0  0  0
   -2.1944    0.5977   -0.2965 C   0  0  0  0  0  0  0  0  0  0  0  0
   -2.9790    1.3190   -1.0489 O   0  0  0  0  0  0  0  0  0  0  0  0
   -1.0861    1.2759    0.3939 C   0  0  2  0  0  0  0  0  0  0  0  0
   -1.3440    1.5369    1.8564 C   0  0  0  0  0  0  0  0  0  0  0  0
   -1.5771    0.3669    2.6960 C   0  0  0  0  0  0  0  0  0  0  0  0
   -2.8280   -0.1516    2.9471 C   0  0  0  0  0  0  0  0  0  0  0  0
   -3.0294   -1.2408    3.7708 C   0  0  0  0  0  0  0  0  0  0  0  0
   -1.9312   -1.8548    4.3843 C   0  0  0  0  0  0  0  0  0  0  0  0
   -0.6725   -1.3503    4.1443 C   0  0  0  0  0  0  0  0  0  0  0  0
   -0.4965   -0.2619    3.3161 C   0  0  0  0  0  0  0  0  0  0  0  0
   -1.0144    2.6538   -0.2020 N   0  0  0  0  0  0  0  0  0  0  0  0
    0.1103    3.0886   -0.9337 C   0  0  0  0  0  0  0  0  0  0  0  0
    1.0656    2.2947   -1.0832 O   0  0  0  0  0  0  0  0  0  0  0  0
    0.1627    4.4314   -1.5049 C   0  0  2  0  0  0  0  0  0  0  0  0
   -1.0720    4.7248   -2.3040 C   0  0  0  0  0  0  0  0  0  0  0  0
    1.3913    4.7110   -2.2051 N   0  0  0  0  0  0  0  0  0  0  0  0
    2.4302    5.5072   -1.7052 C   0  0  0  0  0  0  0  0  0  0  0  0
    2.3094    6.0335   -0.5753 O   0  0  0  0  0  0  0  0  0  0  0  0
    3.6594    5.7319   -2.4732 C   0  0  2  0  0  0  0  0  0  0  0  0
    4.2231    4.3676   -2.9749 C   0  0  0  0  0  0  0  0  0  0  0  0
    4.7132    6.3380   -1.7130 N   0  0  0  0  0  0  0  0  0  0  0  0
    5.9214    6.8219   -2.2542 C   0  0  0  0  0  0  0  0  0  0  0  0
    6.2373    6.8073   -3.4515 O   0  0  0  0  0  0  0  0  0  0  0  0
    6.9848    7.4122   -1.3216 C   0  0  2  0  0  0  0  0  0  0  0  0
    7.1290    8.8484   -1.4777 C   0  0  0  0  0  0  0  0  0  0  0  0
    8.2495    6.7001   -1.6986 N   0  0  0  0  0  0  0  0  0  0  0  0
    8.3763    5.3860   -1.2165 C   0  0  0  0  0  0  0  0  0  0  0  0
    7.3816    4.9453   -0.5098 O   0  0  0  0  0  0  0  0  0  0  0  0
    9.4534    4.4119   -1.3846 C   0  0  2  0  0  0  0  0  0  0  0  0
   10.1394    4.3986   -2.7145 C   0  0  0  0  0  0  0  0  0  0  0  0
    8.9468    3.0802   -1.0131 N   0  0  0  0  0  0  0  0  0  0  0  0
    9.6294    2.1373   -0.2271 C   0  0  0  0  0  0  0  0  0  0  0  0
   10.7746    2.3497    0.2206 O   0  0  0  0  0  0  0  0  0  0  0  0
    8.8613    0.8578    0.0284 C   0  0  1  0  0  0  0  0  0  0  0  0
    7.9895    0.5061   -1.1202 C   0  0  0  0  0  0  0  0  0  0  0  0
    9.6106   -0.1733    0.6282 N   0  0  0  0  0  0  0  0  0  0  0  0
    9.7361   -0.4207    2.0236 C   0  0  0  0  0  0  0  0  0  0  0  0
    9.1852    0.2832    2.8980 O   0  0  0  0  0  0  0  0  0  0  0  0
   10.5621   -1.5759    2.4924 C   0  0  2  0  0  0  0  0  0  0  0  0
   10.0448   -2.8714    1.8620 C   0  0  0  0  0  0  0  0  0  0  0  0
   10.6210   -1.6597    3.9335 N   0  0  0  0  0  0  0  0  0  0  0  0
   11.8444   -1.4224    4.6138 C   0  0  0  0  0  0  0  0  0  0  0  0
   12.8788   -1.1260    3.9099 O   0  0  0  0  0  0  0  0  0  0  0  0
   11.9817   -1.4961    6.0742 C   0  0  0  0  0  0  0  0  0  0  0  0
   13.3624   -1.0040    6.4685 C   0  0  0  0  0  0  0  0  0  0  0  0
   11.9376   -2.9850    6.4704 C   0  0  0  0  0  0  0  0  0  0  0  0
  -15.4032   -6.7274   -3.2312 H   0  0  0  0  0  0  0  0  0  0  0  0
  -16.4274   -5.6032   -4.1720 H   0  0  0  0  0  0  0  0  0  0  0  0
  -16.2692   -5.4284   -2.3523 H   0  0  0  0  0  0  0  0  0  0  0  0
  -13.7806   -5.3727   -4.0668 H   0  0  0  0  0  0  0  0  0  0  0  0
  -15.4949   -2.9114   -3.7683 H   0  0  0  0  0  0  0  0  0  0  0  0
  -13.9991   -3.1017   -4.8194 H   0  0  0  0  0  0  0  0  0  0  0  0
  -15.4822   -3.9876   -5.2918 H   0  0  0  0  0  0  0  0  0  0  0  0
  -14.7426   -3.4749   -1.8737 H   0  0  0  0  0  0  0  0  0  0  0  0
  -12.6997   -2.7698   -2.9281 H   0  0  0  0  0  0  0  0  0  0  0  0
  -10.3797   -2.2132   -1.7587 H   0  0  0  0  0  0  0  0  0  0  0  0
  -10.5985   -4.0577   -4.0489 H   0  0  0  0  0  0  0  0  0  0  0  0
   -8.9272   -3.3747   -3.6543 H   0  0  0  0  0  0  0  0  0  0  0  0
  -10.3215   -2.2967   -3.8952 H   0  0  0  0  0  0  0  0  0  0  0  0
   -8.9422   -4.8181   -1.1372 H   0  0  0  0  0  0  0  0  0  0  0  0
   -6.5503   -4.1826   -0.1994 H   0  0  0  0  0  0  0  0  0  0  0  0
   -6.3229   -3.1438    1.9992 H   0  0  0  0  0  0  0  0  0  0  0  0
   -7.4790   -1.8464    1.5375 H   0  0  0  0  0  0  0  0  0  0  0  0
   -9.9089   -2.3779    1.5530 H   0  0  0  0  0  0  0  0  0  0  0  0
  -11.7082   -3.9154    2.3239 H   0  0  0  0  0  0  0  0  0  0  0  0
  -11.1716   -6.1866    3.0801 H   0  0  0  0  0  0  0  0  0  0  0  0
   -8.8810   -6.9481    3.0781 H   0  0  0  0  0  0  0  0  0  0  0  0
   -7.0643   -5.4440    2.3134 H   0  0  0  0  0  0  0  0  0  0  0  0
   -6.3377   -1.2916   -0.9451 H   0  0  0  0  0  0  0  0  0  0  0  0
   -4.2949   -0.2914   -1.3380 H   0  0  0  0  0  0  0  0  0  0  0  0
   -2.6745   -2.6740   -2.2925 H   0  0  0  0  0  0  0  0  0  0  0  0
   -2.3936   -0.8833   -2.7063 H   0  0  0  0  0  0  0  0  0  0  0  0
   -3.9012   -1.6819   -3.1496 H   0  0  0  0  0  0  0  0  0  0  0  0
   -2.0181   -1.4467    0.2480 H   0  0  0  0  0  0  0  0  0  0  0  0
   -0.1261    0.7723    0.2623 H   0  0  0  0  0  0  0  0  0  0  0  0
   -2.2282    2.2631    1.9472 H   0  0  0  0  0  0  0  0  0  0  0  0
   -0.5013    2.1811    2.2579 H   0  0  0  0  0  0  0  0  0  0  0  0
   -3.7337    0.2894    2.4977 H   0  0  0  0  0  0  0  0  0  0  0  0
   -4.0263   -1.6507    3.9709 H   0  0  0  0  0  0  0  0  0  0  0  0
   -2.0665   -2.7173    5.0402 H   0  0  0  0  0  0  0  0  0  0  0  0
    0.1358   -1.8550    4.6404 H   0  0  0  0  0  0  0  0  0  0  0  0
    0.4793    0.1146    3.1407 H   0  0  0  0  0  0  0  0  0  0  0  0
   -1.8685    3.2215   -0.0117 H   0  0  0  0  0  0  0  0  0  0  0  0
    0.1692    5.1378   -0.6145 H   0  0  0  0  0  0  0  0  0  0  0  0
   -1.9374    4.3424   -1.7163 H   0  0  0  0  0  0  0  0  0  0  0  0
   -1.1747    5.8193   -2.3640 H   0  0  0  0  0  0  0  0  0  0  0  0
   -1.0200    4.2932   -3.3250 H   0  0  0  0  0  0  0  0  0  0  0  0
    1.4657    4.2609   -3.1554 H   0  0  0  0  0  0  0  0  0  0  0  0
    3.4318    6.2255   -3.4375 H   0  0  0  0  0  0  0  0  0  0  0  0
    4.6290    3.8372   -2.1172 H   0  0  0  0  0  0  0  0  0  0  0  0
    3.4247    3.8263   -3.5092 H   0  0  0  0  0  0  0  0  0  0  0  0
    5.0480    4.6422   -3.6560 H   0  0  0  0  0  0  0  0  0  0  0  0
    4.5586    6.4308   -0.6842 H   0  0  0  0  0  0  0  0  0  0  0  0
    6.6990    7.0588   -0.3515 H   0  0  0  0  0  0  0  0  0  0  0  0
    6.5043    9.4431   -0.7527 H   0  0  0  0  0  0  0  0  0  0  0  0
    6.8236    9.2316   -2.4932 H   0  0  0  0  0  0  0  0  0  0  0  0
    8.1887    9.2227   -1.3057 H   0  0  0  0  0  0  0  0  0  0  0  0
    8.9521    7.1557   -2.2634 H   0  0  0  0  0  0  0  0  0  0  0  0
   10.2514    4.6189   -0.6145 H   0  0  0  0  0  0  0  0  0  0  0  0
   10.1601    5.3941   -3.2004 H   0  0  0  0  0  0  0  0  0  0  0  0
    9.6374    3.7205   -3.4471 H   0  0  0  0  0  0  0  0  0  0  0  0
   11.2217    4.1382   -2.5591 H   0  0  0  0  0  0  0  0  0  0  0  0
    7.9751    2.8102   -1.3818 H   0  0  0  0  0  0  0  0  0  0  0  0
    8.1536    1.2339    0.8713 H   0  0  0  0  0  0  0  0  0  0  0  0
    8.3748    0.8107   -2.1138 H   0  0  0  0  0  0  0  0  0  0  0  0
    7.7022   -0.5627   -1.0498 H   0  0  0  0  0  0  0  0  0  0  0  0
    7.0055    1.0617   -1.0031 H   0  0  0  0  0  0  0  0  0  0  0  0
   10.1375   -0.8542   -0.0070 H   0  0  0  0  0  0  0  0  0  0  0  0
   11.5869   -1.4161    2.0917 H   0  0  0  0  0  0  0  0  0  0  0  0
   10.5205   -3.1151    0.9181 H   0  0  0  0  0  0  0  0  0  0  0  0
   10.2674   -3.6779    2.5823 H   0  0  0  0  0  0  0  0  0  0  0  0
    8.9468   -2.7771    1.6532 H   0  0  0  0  0  0  0  0  0  0  0  0
    9.7496   -1.8969    4.4619 H   0  0  0  0  0  0  0  0  0  0  0  0
   11.1956   -0.9189    6.5931 H   0  0  0  0  0  0  0  0  0  0  0  0
   13.7868   -1.5696    7.3189 H   0  0  0  0  0  0  0  0  0  0  0  0
   14.0478   -1.0677    5.5786 H   0  0  0  0  0  0  0  0  0  0  0  0
   13.3353    0.0661    6.7658 H   0  0  0  0  0  0  0  0  0  0  0  0
   12.5889   -3.5145    5.7381 H   0  0  0  0  0  0  0  0  0  0  0  0
   10.9002   -3.3399    6.4813 H   0  0  0  0  0  0  0  0  0  0  0  0
   12.3977   -3.1270    7.4735 H   0  0  0  0  0  0  0  0  0  0  0  0
  1  2  1  0
  2  3  1  0
  2  4  1  0
  4  5  1  0
  5  6  1  0
  6  7  2  0
  6  8  1  0
  8  9  1  0
  8 10  1  0
 10 11  1  0
 11 12  2  0
 11 13  1  0
 13 14  1  0
 14 15  1  0
 15 16  2  0
 16 17  1  0
 17 18  2  0
 18 19  1  0
 19 20  2  0
 13 21  1  0
 21 22  1  0
 22 23  2  0
 22 24  1  0
 24 25  1  0
 24 26  1  0
 26 27  1  0
 27 28  2  0
 27 29  1  0
 29 30  1  0
 30 31  1  0
 31 32  2  0
 32 33  1  0
 33 34  2  0
 34 35  1  0
 35 36  2  0
 29 37  1  0
 37 38  1  0
 38 39  2  0
 38 40  1  0
 40 41  1  0
 40 42  1  0
 42 43  1  0
 43 44  2  0
 43 45  1  0
 45 46  1  0
 45 47  1  0
 47 48  1  0
 48 49  2  0
 48 50  1  0
 50 51  1  0
 50 52  1  0
 52 53  1  0
 53 54  2  0
 53 55  1  0
 55 56  1  0
 55 57  1  0
 57 58  1  0
 58 59  2  0
 58 60  1  0
 60 61  1  0
 60 62  1  0
 62 63  1  0
 63 64  2  0
 63 65  1  0
 65 66  1  0
 65 67  1  0
 67 68  1  0
 68 69  2  0
 68 70  1  0
 70 71  1  0
 70 72  1  0
 20 15  1  0
 36 31  1  0
  1 73  1  0
  1 74  1  0
  1 75  1  0
  2 76  1  0
  3 77  1  0
  3 78  1  0
  3 79  1  0
  4 80  1  0
  5 81  1  0
  8 82  1  1
  9 83  1  0
  9 84  1  0
  9 85  1  0
 10 86  1  0
 13 87  1  1
 14 88  1  0
 14 89  1  0
 16 90  1  0
 17 91  1  0
 18 92  1  0
 19 93  1  0
 20 94  1  0
 21 95  1  0
 24 96  1  6
 25 97  1  0
 25 98  1  0
 25 99  1  0
 26100  1  0
 29101  1  1
 30102  1  0
 30103  1  0
 32104  1  0
 33105  1  0
 34106  1  0
 35107  1  0
 36108  1  0
 37109  1  0
 40110  1  1
 41111  1  0
 41112  1  0
 41113  1  0
 42114  1  0
 45115  1  6
 46116  1  0
 46117  1  0
 46118  1  0
 47119  1  0
 50120  1  1
 51121  1  0
 51122  1  0
 51123  1  0
 52124  1  0
 55125  1  1
 56126  1  0
 56127  1  0
 56128  1  0
 57129  1  0
 60130  1  1
 61131  1  0
 61132  1  0
 61133  1  0
 62134  1  0
 65135  1  6
 66136  1  0
 66137  1  0
 66138  1  0
 67139  1  0
 70140  1  0
 71141  1  0
 71142  1  0
 71143  1  0
 72144  1  0
 72145  1  0
 72146  1  0
M  RAD  1   4   2
M  END
$$$$
