[H]c1nc2c([H])c(OC([H])([H])[H])c(OC([H])([H])[H])c([H])c2c(Oc2c([H])c([H])c(N([H])C(=O)N([H])c3c([H])c([H])c([H])c(C#N)c3[H])c([H])c2F)c1[H]
     RDKit          3D

 53 56  0  0  0  0  0  0  0  0999 V2000
   -9.0173   -0.3843   -0.9527 C   0  0  0  0  0  0  0  0  0  0  0  0
   -7.7532   -0.9161   -1.2665 O   0  0  0  0  0  0  0  0  0  0  0  0
   -6.5670   -0.3471   -0.8016 C   0  0  0  0  0  0  0  0  0  0  0  0
   -6.6403    0.7746   -0.0080 C   0  0  0  0  0  0  0  0  0  0  0  0
   -5.4851    1.3928    0.4903 C   0  0  0  0  0  0  0  0  0  0  0  0
   -5.5926    2.4934    1.2675 N   0  0  0  0  0  0  0  0  0  0  0  0
   -4.5136    3.1033    1.7564 C   0  0  0  0  0  0  0  0  0  0  0  0
   -3.2484    2.6182    1.4761 C   0  0  0  0  0  0  0  0  0  0  0  0
   -3.0768    1.4836    0.6780 C   0  0  0  0  0  0  0  0  0  0  0  0
   -1.9516    0.8984    0.3196 O   0  0  0  0  0  0  0  0  0  0  0  0
   -0.6318    0.9419    0.4228 C   0  0  0  0  0  0  0  0  0  0  0  0
    0.0948    1.8655    1.1295 C   0  0  0  0  0  0  0  0  0  0  0  0
    1.4808    1.8818    1.2174 C   0  0  0  0  0  0  0  0  0  0  0  0
    2.2259    0.9001    0.5497 C   0  0  0  0  0  0  0  0  0  0  0  0
    3.6168    0.9574    0.6450 N   0  0  0  0  0  0  0  0  0  0  0  0
    4.5239   -0.1000    0.3827 C   0  0  0  0  0  0  0  0  0  0  0  0
    4.1083   -1.2115    0.0379 O   0  0  0  0  0  0  0  0  0  0  0  0
    5.9177    0.0985    0.5108 N   0  0  0  0  0  0  0  0  0  0  0  0
    6.9009   -0.8787    0.2847 C   0  0  0  0  0  0  0  0  0  0  0  0
    8.1890   -0.3768    0.0359 C   0  0  0  0  0  0  0  0  0  0  0  0
    9.2118   -1.2607   -0.1735 C   0  0  0  0  0  0  0  0  0  0  0  0
    9.0724   -2.6298   -0.1587 C   0  0  0  0  0  0  0  0  0  0  0  0
    7.8097   -3.1109    0.0857 C   0  0  0  0  0  0  0  0  0  0  0  0
    6.7334   -2.2392    0.3058 C   0  0  0  0  0  0  0  0  0  0  0  0
    7.6141   -4.5316    0.1109 C   0  0  0  0  0  0  0  0  0  0  0  0
    7.4695   -5.6781    0.1425 N   0  0  0  0  0  0  0  0  0  0  0  0
    1.5131   -0.0127   -0.1496 C   0  0  0  0  0  0  0  0  0  0  0  0
    0.1510   -0.0365   -0.2413 C   0  0  0  0  0  0  0  0  0  0  0  0
   -0.5002   -0.9747   -0.9551 F   0  0  0  0  0  0  0  0  0  0  0  0
   -4.2676    0.8729    0.1828 C   0  0  0  0  0  0  0  0  0  0  0  0
   -4.2070   -0.2561   -0.6167 C   0  0  0  0  0  0  0  0  0  0  0  0
   -5.3439   -0.8860   -1.1224 C   0  0  0  0  0  0  0  0  0  0  0  0
   -5.2557   -2.0174   -1.9221 O   0  0  0  0  0  0  0  0  0  0  0  0
   -3.9618   -2.5128   -2.2082 C   0  0  0  0  0  0  0  0  0  0  0  0
   -9.8082   -0.7795   -1.5902 H   0  0  0  0  0  0  0  0  0  0  0  0
   -9.2792   -0.5414    0.1041 H   0  0  0  0  0  0  0  0  0  0  0  0
   -9.0314    0.7351   -1.0989 H   0  0  0  0  0  0  0  0  0  0  0  0
   -7.5874    1.2191    0.2598 H   0  0  0  0  0  0  0  0  0  0  0  0
   -4.5840    4.0008    2.3911 H   0  0  0  0  0  0  0  0  0  0  0  0
   -2.3955    3.1367    1.8875 H   0  0  0  0  0  0  0  0  0  0  0  0
   -0.4096    2.6487    1.6681 H   0  0  0  0  0  0  0  0  0  0  0  0
    1.9871    2.6451    1.7963 H   0  0  0  0  0  0  0  0  0  0  0  0
    4.0727    1.8770    0.9416 H   0  0  0  0  0  0  0  0  0  0  0  0
    6.2190    1.0864    0.8128 H   0  0  0  0  0  0  0  0  0  0  0  0
    8.3817    0.7026    0.0078 H   0  0  0  0  0  0  0  0  0  0  0  0
   10.2223   -0.8732   -0.3687 H   0  0  0  0  0  0  0  0  0  0  0  0
    9.9059   -3.3010   -0.3292 H   0  0  0  0  0  0  0  0  0  0  0  0
    5.7682   -2.6763    0.5080 H   0  0  0  0  0  0  0  0  0  0  0  0
    2.0366   -0.7977   -0.7098 H   0  0  0  0  0  0  0  0  0  0  0  0
   -3.2742   -0.6795   -0.8699 H   0  0  0  0  0  0  0  0  0  0  0  0
   -3.9901   -3.3206   -2.9672 H   0  0  0  0  0  0  0  0  0  0  0  0
   -3.4936   -2.8420   -1.2589 H   0  0  0  0  0  0  0  0  0  0  0  0
   -3.3594   -1.6913   -2.6397 H   0  0  0  0  0  0  0  0  0  0  0  0
  1  2  1  0
  2  3  1  0
  3  4  2  0
  4  5  1  0
  5  6  2  0
  6  7  1  0
  7  8  2  0
  8  9  1  0
  9 10  1  0
 10 11  1  0
 11 12  2  0
 12 13  1  0
 13 14  2  0
 14 15  1  0
 15 16  1  0
 16 17  2  0
 16 18  1  0
 18 19  1  0
 19 20  2  0
 20 21  1  0
 21 22  2  0
 22 23  1  0
 23 24  2  0
 23 25  1  0
 25 26  3  0
 14 27  1  0
 27 28  2  0
 28 29  1  0
  9 30  2  0
 30 31  1  0
 31 32  2  0
 32 33  1  0
 33 34  1  0
 32  3  1  0
 30  5  1  0
 28 11  1  0
 24 19  1  0
  1 35  1  0
  1 36  1  0
  1 37  1  0
  4 38  1  0
  7 39  1  0
  8 40  1  0
 12 41  1  0
 13 42  1  0
 15 43  1  0
 18 44  1  0
 20 45  1  0
 21 46  1  0
 22 47  1  0
 24 48  1  0
 27 49  1  0
 31 50  1  0
 34 51  1  0
 34 52  1  0
 34 53  1  0
M  END
$$$$
[H]c1c([H])c(N2C([H])([H])C([H])([H])C([H])([H])[C@@]([H])(C(=O)N3C([H])([H])C([H])([H])N(C(=O)c4c([H])c([H])c(OC([H])([H])[H])c([H])c4[H])C([H])([H])C3([H])[H])C2([H])[H])c([H])c([H])c1Cl
     RDKit          3D

 59 62  0  0  0  0  0  0  0  0999 V2000
   -7.0702    0.9497    3.9228 C   0  0  0  0  0  0  0  0  0  0  0  0
   -5.9189    1.5401    3.3369 O   0  0  0  0  0  0  0  0  0  0  0  0
   -5.2488    0.9403    2.2815 C   0  0  0  0  0  0  0  0  0  0  0  0
   -4.1392    1.4909    1.7041 C   0  0  0  0  0  0  0  0  0  0  0  0
   -3.4777    0.8599    0.6326 C   0  0  0  0  0  0  0  0  0  0  0  0
   -3.8961   -0.3299    0.1030 C   0  0  0  0  0  0  0  0  0  0  0  0
   -5.0390   -0.8767    0.7146 C   0  0  0  0  0  0  0  0  0  0  0  0
   -5.6788   -0.2567    1.7596 C   0  0  0  0  0  0  0  0  0  0  0  0
   -3.2883   -0.9936   -1.0351 C   0  0  0  0  0  0  0  0  0  0  0  0
   -3.7589   -2.2316   -1.1689 O   0  0  0  0  0  0  0  0  0  0  0  0
   -2.3553   -0.5917   -1.9614 N   0  0  0  0  0  0  0  0  0  0  0  0
   -1.9428   -1.6156   -2.9596 C   0  0  0  0  0  0  0  0  0  0  0  0
   -0.4615   -1.6816   -2.9974 C   0  0  0  0  0  0  0  0  0  0  0  0
    0.2652   -0.5937   -2.4288 N   0  0  0  0  0  0  0  0  0  0  0  0
   -0.2946    0.4865   -1.6356 C   0  0  0  0  0  0  0  0  0  0  0  0
   -1.7358    0.6570   -2.1592 C   0  0  0  0  0  0  0  0  0  0  0  0
    1.6747   -0.5580   -2.6694 C   0  0  0  0  0  0  0  0  0  0  0  0
    2.1922   -1.4514   -3.3678 O   0  0  0  0  0  0  0  0  0  0  0  0
    2.4999    0.5320   -2.0885 C   0  0  2  0  0  0  0  0  0  0  0  0
    3.8928    0.3813   -2.6653 C   0  0  0  0  0  0  0  0  0  0  0  0
    4.7836    1.3520   -1.9105 C   0  0  0  0  0  0  0  0  0  0  0  0
    4.9949    0.7453   -0.5449 C   0  0  0  0  0  0  0  0  0  0  0  0
    3.7430    0.4243    0.0576 N   0  0  0  0  0  0  0  0  0  0  0  0
    2.4831    0.5345   -0.5938 C   0  0  0  0  0  0  0  0  0  0  0  0
    3.7634   -0.0433    1.4194 C   0  0  0  0  0  0  0  0  0  0  0  0
    4.9696   -0.2618    2.0803 C   0  0  0  0  0  0  0  0  0  0  0  0
    5.0166   -0.7045    3.3833 C   0  0  0  0  0  0  0  0  0  0  0  0
    3.8604   -0.9514    4.0919 C   0  0  0  0  0  0  0  0  0  0  0  0
    3.8898   -1.5159    5.7531 Cl  0  0  0  0  0  0  0  0  0  0  0  0
    2.6584   -0.7408    3.4546 C   0  0  0  0  0  0  0  0  0  0  0  0
    2.6148   -0.2941    2.1400 C   0  0  0  0  0  0  0  0  0  0  0  0
   -7.3220    1.4041    4.8913 H   0  0  0  0  0  0  0  0  0  0  0  0
   -6.7533   -0.1068    4.1726 H   0  0  0  0  0  0  0  0  0  0  0  0
   -7.9121    0.8508    3.2346 H   0  0  0  0  0  0  0  0  0  0  0  0
   -3.7668    2.4309    2.0836 H   0  0  0  0  0  0  0  0  0  0  0  0
   -2.5834    1.3399    0.2491 H   0  0  0  0  0  0  0  0  0  0  0  0
   -5.4087   -1.8124    0.3336 H   0  0  0  0  0  0  0  0  0  0  0  0
   -6.5619   -0.6993    2.2161 H   0  0  0  0  0  0  0  0  0  0  0  0
   -2.4076   -2.5818   -2.7531 H   0  0  0  0  0  0  0  0  0  0  0  0
   -2.3316   -1.2050   -3.9254 H   0  0  0  0  0  0  0  0  0  0  0  0
   -0.1608   -1.7808   -4.0827 H   0  0  0  0  0  0  0  0  0  0  0  0
   -0.1596   -2.6709   -2.5515 H   0  0  0  0  0  0  0  0  0  0  0  0
    0.2024    1.4381   -1.8190 H   0  0  0  0  0  0  0  0  0  0  0  0
   -0.4130    0.1933   -0.5763 H   0  0  0  0  0  0  0  0  0  0  0  0
   -1.5152    0.7908   -3.3038 H   0  0  0  0  0  0  0  0  0  0  0  0
   -2.2191    1.5646   -1.8361 H   0  0  0  0  0  0  0  0  0  0  0  0
    2.1471    1.5482   -2.4300 H   0  0  0  0  0  0  0  0  0  0  0  0
    4.2897   -0.6435   -2.5678 H   0  0  0  0  0  0  0  0  0  0  0  0
    3.8397    0.6623   -3.7408 H   0  0  0  0  0  0  0  0  0  0  0  0
    5.7107    1.5066   -2.4661 H   0  0  0  0  0  0  0  0  0  0  0  0
    4.1800    2.2944   -1.8086 H   0  0  0  0  0  0  0  0  0  0  0  0
    5.5783   -0.1988   -0.6709 H   0  0  0  0  0  0  0  0  0  0  0  0
    5.5797    1.4760    0.0594 H   0  0  0  0  0  0  0  0  0  0  0  0
    1.8915   -0.3787   -0.2925 H   0  0  0  0  0  0  0  0  0  0  0  0
    1.8877    1.3847   -0.1507 H   0  0  0  0  0  0  0  0  0  0  0  0
    5.8826   -0.0643    1.5132 H   0  0  0  0  0  0  0  0  0  0  0  0
    5.9528   -0.8704    3.8861 H   0  0  0  0  0  0  0  0  0  0  0  0
    1.7254   -0.9269    3.9892 H   0  0  0  0  0  0  0  0  0  0  0  0
    1.6508   -0.1467    1.6974 H   0  0  0  0  0  0  0  0  0  0  0  0
  1  2  1  0
  2  3  1  0
  3  4  2  0
  4  5  1  0
  5  6  2  0
  6  7  1  0
  7  8  2  0
  6  9  1  0
  9 10  2  0
  9 11  1  0
 11 12  1  0
 12 13  1  0
 13 14  1  0
 14 15  1  0
 15 16  1  0
 14 17  1  0
 17 18  2  0
 17 19  1  0
 19 20  1  0
 20 21  1  0
 21 22  1  0
 22 23  1  0
 23 24  1  0
 23 25  1  0
 25 26  2  0
 26 27  1  0
 27 28  2  0
 28 29  1  0
 28 30  1  0
 30 31  2  0
  8  3  1  0
 16 11  1  0
 24 19  1  0
 31 25  1  0
  1 32  1  0
  1 33  1  0
  1 34  1  0
  4 35  1  0
  5 36  1  0
  7 37  1  0
  8 38  1  0
 12 39  1  0
 12 40  1  0
 13 41  1  0
 13 42  1  0
 15 43  1  0
 15 44  1  0
 16 45  1  0
 16 46  1  0
 19 47  1  6
 20 48  1  0
 20 49  1  0
 21 50  1  0
 21 51  1  0
 22 52  1  0
 22 53  1  0
 24 54  1  0
 24 55  1  0
 26 56  1  0
 27 57  1  0
 30 58  1  0
 31 59  1  0
M  END
$$$$
[H]OC(=O)C([H])([H])[C@@]([H])(C(=O)O[H])N([H])C(=O)[C@@]([H])(N([H])C(=O)[C@@]([H])(N([H])C(=O)[C@@]1([H])N(C(=O)[C@@]([H])(N([H])C(=O)[C@@]([H])(N([H])C(=O)[C@@]([H])(N([H])C(=O)C([H])([H])[H])C([H])([H])C([H])([H])C([H])([H])N=C(N([H])[H])N([H])[H])C([H])([H])C([H])([H])C([H])([H])N=C(N([H])[H])N([H])[H])C([H])([H])C([H])([H])C([H])([H])C([H])([H])N([H])[H])C([H])([H])C([H])([H])C1([H])[H])C([H])([H])C(=O)O[H])C([H])(C([H])([H])[H])C([H])([H])[H]
     RDKit          3D

131131  0  0  0  0  0  0  0  0999 V2000
    7.4378    1.7518   -2.7875 C   0  0  0  0  0  0  0  0  0  0  0  0
    7.2627    1.7704   -1.2747 C   0  0  0  0  0  0  0  0  0  0  0  0
    8.0307    2.9537   -0.7775 C   0  0  0  0  0  0  0  0  0  0  0  0
    7.6613    0.4853   -0.6213 C   0  0  2  0  0  0  0  0  0  0  0  0
    6.8655   -0.6509   -1.0118 N   0  0  0  0  0  0  0  0  0  0  0  0
    5.7216   -0.8072   -1.7525 C   0  0  0  0  0  0  0  0  0  0  0  0
    5.0822    0.1290   -2.2645 O   0  0  0  0  0  0  0  0  0  0  0  0
    5.1155   -2.1775   -2.0184 C   0  0  2  0  0  0  0  0  0  0  0  0
    6.1821   -2.9723   -2.7280 C   0  0  0  0  0  0  0  0  0  0  0  0
    6.6221   -2.3799   -4.0086 C   0  0  0  0  0  0  0  0  0  0  0  0
    7.6208   -3.0364   -4.7063 O   0  0  0  0  0  0  0  0  0  0  0  0
    6.1610   -1.3287   -4.5117 O   0  0  0  0  0  0  0  0  0  0  0  0
    3.8929   -2.0890   -2.7698 N   0  0  0  0  0  0  0  0  0  0  0  0
    2.6684   -2.6745   -2.3288 C   0  0  0  0  0  0  0  0  0  0  0  0
    2.7383   -3.2970   -1.2123 O   0  0  0  0  0  0  0  0  0  0  0  0
    1.4604   -2.5824   -3.0582 C   0  0  2  0  0  0  0  0  0  0  0  0
    1.3134   -1.6883   -4.2442 C   0  0  0  0  0  0  0  0  0  0  0  0
   -0.0959   -2.1605   -4.7241 C   0  0  0  0  0  0  0  0  0  0  0  0
   -0.5916   -3.1282   -3.6584 C   0  0  0  0  0  0  0  0  0  0  0  0
    0.1698   -2.4522   -2.4718 N   0  0  0  0  0  0  0  0  0  0  0  0
   -0.6142   -1.8942   -1.5087 C   0  0  0  0  0  0  0  0  0  0  0  0
   -1.7937   -2.4531   -1.3609 O   0  0  0  0  0  0  0  0  0  0  0  0
   -0.4325   -0.7642   -0.5821 C   0  0  2  0  0  0  0  0  0  0  0  0
    0.9386   -0.4028   -0.2654 C   0  0  0  0  0  0  0  0  0  0  0  0
    1.2434    0.7345    0.6376 C   0  0  0  0  0  0  0  0  0  0  0  0
    0.7841    0.7021    2.0398 C   0  0  0  0  0  0  0  0  0  0  0  0
    1.3024    1.9463    2.8086 C   0  0  0  0  0  0  0  0  0  0  0  0
    0.8233    1.8512    4.1707 N   0  0  0  0  0  0  0  0  0  0  0  0
   -1.3861   -0.7734    0.5172 N   0  0  0  0  0  0  0  0  0  0  0  0
   -2.6863   -0.2245    0.4594 C   0  0  0  0  0  0  0  0  0  0  0  0
   -3.0798    0.2699   -0.6306 O   0  0  0  0  0  0  0  0  0  0  0  0
   -3.6253   -0.1813    1.6094 C   0  0  2  0  0  0  0  0  0  0  0  0
   -3.7545   -1.4468    2.3527 C   0  0  0  0  0  0  0  0  0  0  0  0
   -4.2751   -2.5718    1.4993 C   0  0  0  0  0  0  0  0  0  0  0  0
   -4.3688   -3.8282    2.3749 C   0  0  0  0  0  0  0  0  0  0  0  0
   -5.2462   -3.6365    3.4843 N   0  0  0  0  0  0  0  0  0  0  0  0
   -6.5171   -3.7747    3.5003 C   0  0  0  0  0  0  0  0  0  0  0  0
   -7.1975   -3.5311    4.7216 N   0  0  0  0  0  0  0  0  0  0  0  0
   -7.2768   -4.1563    2.3697 N   0  0  0  0  0  0  0  0  0  0  0  0
   -4.9219    0.3162    1.2144 N   0  0  0  0  0  0  0  0  0  0  0  0
   -5.2427    1.6906    1.1755 C   0  0  0  0  0  0  0  0  0  0  0  0
   -4.3578    2.5168    1.4842 O   0  0  0  0  0  0  0  0  0  0  0  0
   -6.6389    2.1406    0.7626 C   0  0  2  0  0  0  0  0  0  0  0  0
   -7.4801    0.9804    0.4260 C   0  0  0  0  0  0  0  0  0  0  0  0
   -8.8718    1.2774    0.0244 C   0  0  0  0  0  0  0  0  0  0  0  0
   -9.1417    2.0269   -1.2189 C   0  0  0  0  0  0  0  0  0  0  0  0
  -10.6054    2.1911   -1.4148 N   0  0  0  0  0  0  0  0  0  0  0  0
  -11.2399    1.3167   -2.0903 C   0  0  0  0  0  0  0  0  0  0  0  0
  -10.5731    0.2056   -2.6479 N   0  0  0  0  0  0  0  0  0  0  0  0
  -12.6325    1.4607   -2.2844 N   0  0  0  0  0  0  0  0  0  0  0  0
   -6.5649    3.2605   -0.0788 N   0  0  0  0  0  0  0  0  0  0  0  0
   -6.7824    4.6238    0.3442 C   0  0  0  0  0  0  0  0  0  0  0  0
   -6.6985    5.7702   -0.5706 C   0  0  0  0  0  0  0  0  0  0  0  0
   -7.0526    4.7650    1.5643 O   0  0  0  0  0  0  0  0  0  0  0  0
    7.8018    0.5640    0.8145 C   0  0  0  0  0  0  0  0  0  0  0  0
    6.9874   -0.1893    1.4937 O   0  0  0  0  0  0  0  0  0  0  0  0
    8.6832    1.3225    1.6117 N   0  0  0  0  0  0  0  0  0  0  0  0
    8.6375    1.2473    3.0619 C   0  0  1  0  0  0  0  0  0  0  0  0
    9.9292    0.7321    3.6250 C   0  0  0  0  0  0  0  0  0  0  0  0
   11.1121    1.5535    3.3357 C   0  0  0  0  0  0  0  0  0  0  0  0
   12.4050    1.1537    3.7037 O   0  0  0  0  0  0  0  0  0  0  0  0
   11.0571    2.6602    2.7449 O   0  0  0  0  0  0  0  0  0  0  0  0
    8.3623    2.5740    3.6743 C   0  0  0  0  0  0  0  0  0  0  0  0
    8.3005    2.6048    5.0623 O   0  0  0  0  0  0  0  0  0  0  0  0
    8.1888    3.6261    3.0450 O   0  0  0  0  0  0  0  0  0  0  0  0
    6.6597    2.2863   -3.3270 H   0  0  0  0  0  0  0  0  0  0  0  0
    7.6841    0.7365   -3.1774 H   0  0  0  0  0  0  0  0  0  0  0  0
    8.3885    2.3352   -2.9948 H   0  0  0  0  0  0  0  0  0  0  0  0
    6.1838    2.0098   -1.1237 H   0  0  0  0  0  0  0  0  0  0  0  0
    7.7012    3.2479    0.2302 H   0  0  0  0  0  0  0  0  0  0  0  0
    7.7935    3.8738   -1.4081 H   0  0  0  0  0  0  0  0  0  0  0  0
    9.1274    2.8463   -0.9058 H   0  0  0  0  0  0  0  0  0  0  0  0
    8.6970    0.2966   -1.0904 H   0  0  0  0  0  0  0  0  0  0  0  0
    7.2817   -1.5839   -0.6190 H   0  0  0  0  0  0  0  0  0  0  0  0
    4.9419   -2.6908   -1.0426 H   0  0  0  0  0  0  0  0  0  0  0  0
    7.0769   -3.0040   -2.0570 H   0  0  0  0  0  0  0  0  0  0  0  0
    5.8401   -4.0238   -2.8482 H   0  0  0  0  0  0  0  0  0  0  0  0
    7.6042   -3.1379   -5.7089 H   0  0  0  0  0  0  0  0  0  0  0  0
    3.8881   -1.5802   -3.6707 H   0  0  0  0  0  0  0  0  0  0  0  0
    1.4050   -3.6583   -3.5964 H   0  0  0  0  0  0  0  0  0  0  0  0
    1.3072   -0.6248   -4.0155 H   0  0  0  0  0  0  0  0  0  0  0  0
    1.9841   -1.9005   -5.0743 H   0  0  0  0  0  0  0  0  0  0  0  0
   -0.7642   -1.2955   -4.8386 H   0  0  0  0  0  0  0  0  0  0  0  0
   -0.0200   -2.7171   -5.6655 H   0  0  0  0  0  0  0  0  0  0  0  0
   -1.6396   -3.0253   -3.5257 H   0  0  0  0  0  0  0  0  0  0  0  0
   -0.2454   -4.1366   -3.7471 H   0  0  0  0  0  0  0  0  0  0  0  0
   -0.8377    0.1791   -1.1849 H   0  0  0  0  0  0  0  0  0  0  0  0
    1.5246   -1.2738    0.1761 H   0  0  0  0  0  0  0  0  0  0  0  0
    1.5224   -0.1585   -1.2213 H   0  0  0  0  0  0  0  0  0  0  0  0
    0.8466    1.6737    0.1267 H   0  0  0  0  0  0  0  0  0  0  0  0
    2.3727    0.8632    0.6114 H   0  0  0  0  0  0  0  0  0  0  0  0
   -0.3349    0.8634    2.1037 H   0  0  0  0  0  0  0  0  0  0  0  0
    1.1251   -0.1946    2.5623 H   0  0  0  0  0  0  0  0  0  0  0  0
    2.4009    1.8909    2.7275 H   0  0  0  0  0  0  0  0  0  0  0  0
    0.8490    2.8089    2.2879 H   0  0  0  0  0  0  0  0  0  0  0  0
   -0.1166    1.4041    4.1767 H   0  0  0  0  0  0  0  0  0  0  0  0
    0.6933    2.8246    4.5361 H   0  0  0  0  0  0  0  0  0  0  0  0
   -1.0822   -1.2284    1.4008 H   0  0  0  0  0  0  0  0  0  0  0  0
   -3.1689    0.5977    2.3390 H   0  0  0  0  0  0  0  0  0  0  0  0
   -2.7956   -1.7836    2.8293 H   0  0  0  0  0  0  0  0  0  0  0  0
   -4.5126   -1.3344    3.1885 H   0  0  0  0  0  0  0  0  0  0  0  0
   -3.6217   -2.8500    0.6733 H   0  0  0  0  0  0  0  0  0  0  0  0
   -5.2850   -2.3464    1.0894 H   0  0  0  0  0  0  0  0  0  0  0  0
   -3.3464   -4.0410    2.7251 H   0  0  0  0  0  0  0  0  0  0  0  0
   -4.6987   -4.7098    1.7760 H   0  0  0  0  0  0  0  0  0  0  0  0
   -8.0898   -3.9989    4.9758 H   0  0  0  0  0  0  0  0  0  0  0  0
   -6.8193   -2.8523    5.4366 H   0  0  0  0  0  0  0  0  0  0  0  0
   -7.2946   -5.1451    2.0172 H   0  0  0  0  0  0  0  0  0  0  0  0
   -7.8272   -3.3892    1.9006 H   0  0  0  0  0  0  0  0  0  0  0  0
   -5.6512   -0.3716    0.9507 H   0  0  0  0  0  0  0  0  0  0  0  0
   -7.0404    2.5293    1.7688 H   0  0  0  0  0  0  0  0  0  0  0  0
   -7.0200    0.3463   -0.3972 H   0  0  0  0  0  0  0  0  0  0  0  0
   -7.5164    0.3054    1.3580 H   0  0  0  0  0  0  0  0  0  0  0  0
   -9.3997    1.8764    0.8553 H   0  0  0  0  0  0  0  0  0  0  0  0
   -9.5143    0.3427    0.0123 H   0  0  0  0  0  0  0  0  0  0  0  0
   -8.6666    2.9957   -1.3690 H   0  0  0  0  0  0  0  0  0  0  0  0
   -8.8124    1.3998   -2.0933 H   0  0  0  0  0  0  0  0  0  0  0  0
  -10.1053    0.2336   -3.5636 H   0  0  0  0  0  0  0  0  0  0  0  0
  -10.5509   -0.6903   -2.1084 H   0  0  0  0  0  0  0  0  0  0  0  0
  -13.2820    1.5635   -1.4850 H   0  0  0  0  0  0  0  0  0  0  0  0
  -13.0391    1.4669   -3.2398 H   0  0  0  0  0  0  0  0  0  0  0  0
   -6.3291    3.1490   -1.0986 H   0  0  0  0  0  0  0  0  0  0  0  0
   -6.0197    5.5975   -1.4338 H   0  0  0  0  0  0  0  0  0  0  0  0
   -6.3800    6.6783   -0.0666 H   0  0  0  0  0  0  0  0  0  0  0  0
   -7.7198    5.9645   -0.9968 H   0  0  0  0  0  0  0  0  0  0  0  0
    9.3898    1.9272    1.1895 H   0  0  0  0  0  0  0  0  0  0  0  0
    7.8392    0.5525    3.4067 H   0  0  0  0  0  0  0  0  0  0  0  0
   10.0635   -0.3289    3.3090 H   0  0  0  0  0  0  0  0  0  0  0  0
    9.8004    0.7594    4.7490 H   0  0  0  0  0  0  0  0  0  0  0  0
   12.7947    0.2656    3.4378 H   0  0  0  0  0  0  0  0  0  0  0  0
    7.9430    1.8522    5.6376 H   0  0  0  0  0  0  0  0  0  0  0  0
  1  2  1  0
  2  3  1  0
  2  4  1  0
  4  5  1  0
  5  6  1  0
  6  7  2  0
  6  8  1  0
  8  9  1  0
  9 10  1  0
 10 11  1  0
 10 12  2  0
  8 13  1  0
 13 14  1  0
 14 15  2  0
 14 16  1  0
 16 17  1  0
 17 18  1  0
 18 19  1  0
 19 20  1  0
 20 21  1  0
 21 22  2  0
 21 23  1  0
 23 24  1  0
 24 25  1  0
 25 26  1  0
 26 27  1  0
 27 28  1  0
 23 29  1  0
 29 30  1  0
 30 31  2  0
 30 32  1  0
 32 33  1  0
 33 34  1  0
 34 35  1  0
 35 36  1  0
 36 37  2  3
 37 38  1  0
 37 39  1  0
 32 40  1  0
 40 41  1  0
 41 42  2  0
 41 43  1  0
 43 44  1  0
 44 45  1  0
 45 46  1  0
 46 47  1  0
 47 48  2  3
 48 49  1  0
 48 50  1  0
 43 51  1  0
 51 52  1  0
 52 53  1  0
 52 54  2  0
  4 55  1  0
 55 56  2  0
 55 57  1  0
 57 58  1  0
 58 59  1  0
 59 60  1  0
 60 61  1  0
 60 62  2  0
 58 63  1  0
 63 64  1  0
 63 65  2  0
 20 16  1  0
  1 66  1  0
  1 67  1  0
  1 68  1  0
  2 69  1  0
  3 70  1  0
  3 71  1  0
  3 72  1  0
  4 73  1  6
  5 74  1  0
  8 75  1  1
  9 76  1  0
  9 77  1  0
 11 78  1  0
 13 79  1  0
 16 80  1  6
 17 81  1  0
 17 82  1  0
 18 83  1  0
 18 84  1  0
 19 85  1  0
 19 86  1  0
 23 87  1  6
 24 88  1  0
 24 89  1  0
 25 90  1  0
 25 91  1  0
 26 92  1  0
 26 93  1  0
 27 94  1  0
 27 95  1  0
 28 96  1  0
 28 97  1  0
 29 98  1  0
 32 99  1  1
 33100  1  0
 33101  1  0
 34102  1  0
 34103  1  0
 35104  1  0
 35105  1  0
 38106  1  0
 38107  1  0
 39108  1  0
 39109  1  0
 40110  1  0
 43111  1  1
 44112  1  0
 44113  1  0
 45114  1  0
 45115  1  0
 46116  1  0
 46117  1  0
 49118  1  0
 49119  1  0
 50120  1  0
 50121  1  0
 51122  1  0
 53123  1  0
 53124  1  0
 53125  1  0
 57126  1  0
 58127  1  6
 59128  1  0
 59129  1  0
 61130  1  0
 64131  1  0
M  END
$$$$
[H]O[C@@](C(=O)N(OC([H])([H])[H])C(=O)c1c([H])c([H])c2oc3c([H])c([H])c([H])c([H])c3c2c1[H])(C([H])([H])[H])C([H])([H])N1C([H])([H])C([H])([H])N(C([H])([H])[H])C([H])([H])C([H])([H])[C@@]1([H])C([H])([H])[H]
     RDKit          3D

 64 67  0  0  0  0  0  0  0  0999 V2000
    0.3781    1.1102   -1.5649 C   0  0  0  0  0  0  0  0  0  0  0  0
    0.5019    1.4422   -0.1894 O   0  0  0  0  0  0  0  0  0  0  0  0
    0.8293    0.2990    0.4277 N   0  0  0  0  0  0  0  0  0  0  0  0
    2.1458   -0.1082    0.5922 C   0  0  0  0  0  0  0  0  0  0  0  0
    2.2948   -1.3094    1.0948 O   0  0  0  0  0  0  0  0  0  0  0  0
    3.3882    0.5726    0.3062 C   0  0  0  0  0  0  0  0  0  0  0  0
    3.4810    1.8787   -0.0725 C   0  0  0  0  0  0  0  0  0  0  0  0
    4.7058    2.5030   -0.3526 C   0  0  0  0  0  0  0  0  0  0  0  0
    5.8873    1.8107   -0.2537 C   0  0  0  0  0  0  0  0  0  0  0  0
    5.8194    0.4933    0.1269 C   0  0  0  0  0  0  0  0  0  0  0  0
    4.6125   -0.1081    0.3980 C   0  0  0  0  0  0  0  0  0  0  0  0
    7.1356    0.0767    0.1379 C   0  0  0  0  0  0  0  0  0  0  0  0
    7.7221   -1.1344    0.4363 C   0  0  0  0  0  0  0  0  0  0  0  0
    9.1123   -1.2874    0.3677 C   0  0  0  0  0  0  0  0  0  0  0  0
    9.9244   -0.2443    0.0044 C   0  0  0  0  0  0  0  0  0  0  0  0
    9.3397    0.9681   -0.2948 C   0  0  0  0  0  0  0  0  0  0  0  0
    7.9521    1.1120   -0.2234 C   0  0  0  0  0  0  0  0  0  0  0  0
    7.1592    2.1461   -0.4535 O   0  0  0  0  0  0  0  0  0  0  0  0
   -0.2046   -0.4464    1.0164 C   0  0  0  0  0  0  0  0  0  0  0  0
    0.0510   -1.5826    1.5429 O   0  0  0  0  0  0  0  0  0  0  0  0
   -1.6434   -0.0571    1.1188 C   0  0  1  0  0  0  0  0  0  0  0  0
   -1.9343    0.0379    2.5912 C   0  0  0  0  0  0  0  0  0  0  0  0
   -1.7713    1.2286    0.5906 O   0  0  0  0  0  0  0  0  0  0  0  0
   -2.4362   -1.0637    0.3490 C   0  0  0  0  0  0  0  0  0  0  0  0
   -3.8129   -0.8880    0.2218 N   0  0  0  0  0  0  0  0  0  0  0  0
   -4.4160   -1.7625   -0.7913 C   0  0  2  0  0  0  0  0  0  0  0  0
   -3.5188   -2.8363   -1.2874 C   0  0  0  0  0  0  0  0  0  0  0  0
   -4.8483   -0.8162   -1.9106 C   0  0  0  0  0  0  0  0  0  0  0  0
   -5.8776    0.1600   -1.4106 C   0  0  0  0  0  0  0  0  0  0  0  0
   -5.5690    0.7689   -0.1496 N   0  0  0  0  0  0  0  0  0  0  0  0
   -6.2252    2.0482   -0.0076 C   0  0  0  0  0  0  0  0  0  0  0  0
   -5.8805   -0.0307    0.9991 C   0  0  0  0  0  0  0  0  0  0  0  0
   -4.6797   -0.9369    1.3347 C   0  0  0  0  0  0  0  0  0  0  0  0
   -0.4534    0.4211   -1.7245 H   0  0  0  0  0  0  0  0  0  0  0  0
    1.3189    0.6419   -1.8629 H   0  0  0  0  0  0  0  0  0  0  0  0
    0.1529    2.0159   -2.1774 H   0  0  0  0  0  0  0  0  0  0  0  0
    2.6240    2.5178   -0.1606 H   0  0  0  0  0  0  0  0  0  0  0  0
    4.7239    3.5293   -0.6474 H   0  0  0  0  0  0  0  0  0  0  0  0
    4.5966   -1.1353    0.6876 H   0  0  0  0  0  0  0  0  0  0  0  0
    7.0700   -1.9463    0.7234 H   0  0  0  0  0  0  0  0  0  0  0  0
    9.5628   -2.2382    0.6025 H   0  0  0  0  0  0  0  0  0  0  0  0
   11.0186   -0.3730   -0.0470 H   0  0  0  0  0  0  0  0  0  0  0  0
    9.9691    1.7816   -0.5791 H   0  0  0  0  0  0  0  0  0  0  0  0
   -1.0003    0.4409    3.0660 H   0  0  0  0  0  0  0  0  0  0  0  0
   -2.0946   -0.9343    3.0719 H   0  0  0  0  0  0  0  0  0  0  0  0
   -2.6987    0.8146    2.8220 H   0  0  0  0  0  0  0  0  0  0  0  0
   -1.4138    1.8465    1.2985 H   0  0  0  0  0  0  0  0  0  0  0  0
   -2.2033   -2.0882    0.7893 H   0  0  0  0  0  0  0  0  0  0  0  0
   -1.9932   -1.0495   -0.6965 H   0  0  0  0  0  0  0  0  0  0  0  0
   -5.3472   -2.2182   -0.4128 H   0  0  0  0  0  0  0  0  0  0  0  0
   -3.0311   -3.3978   -0.4931 H   0  0  0  0  0  0  0  0  0  0  0  0
   -2.8169   -2.4737   -2.0896 H   0  0  0  0  0  0  0  0  0  0  0  0
   -4.1494   -3.5985   -1.8353 H   0  0  0  0  0  0  0  0  0  0  0  0
   -5.3211   -1.3729   -2.7521 H   0  0  0  0  0  0  0  0  0  0  0  0
   -3.9681   -0.2971   -2.3701 H   0  0  0  0  0  0  0  0  0  0  0  0
   -6.8604   -0.3312   -1.4528 H   0  0  0  0  0  0  0  0  0  0  0  0
   -5.8716    1.0046   -2.1653 H   0  0  0  0  0  0  0  0  0  0  0  0
   -6.2714    2.2830    1.0688 H   0  0  0  0  0  0  0  0  0  0  0  0
   -5.6420    2.8533   -0.4891 H   0  0  0  0  0  0  0  0  0  0  0  0
   -7.2535    1.9440   -0.3751 H   0  0  0  0  0  0  0  0  0  0  0  0
   -6.8168   -0.5840    0.9116 H   0  0  0  0  0  0  0  0  0  0  0  0
   -5.9795    0.6580    1.8805 H   0  0  0  0  0  0  0  0  0  0  0  0
   -5.1466   -1.9758    1.3353 H   0  0  0  0  0  0  0  0  0  0  0  0
   -4.3264   -0.7827    2.3318 H   0  0  0  0  0  0  0  0  0  0  0  0
  1  2  1  0
  2  3  1  0
  3  4  1  0
  4  5  2  0
  4  6  1  0
  6  7  2  0
  7  8  1  0
  8  9  2  0
  9 10  1  0
 10 11  2  0
 10 12  1  0
 12 13  2  0
 13 14  1  0
 14 15  2  0
 15 16  1  0
 16 17  2  0
 17 18  1  0
  3 19  1  0
 19 20  2  0
 19 21  1  0
 21 22  1  0
 21 23  1  6
 21 24  1  0
 24 25  1  0
 25 26  1  0
 26 27  1  0
 26 28  1  0
 28 29  1  0
 29 30  1  0
 30 31  1  0
 30 32  1  0
 32 33  1  0
 11  6  1  0
 17 12  1  0
 33 25  1  0
 18  9  1  0
  1 34  1  0
  1 35  1  0
  1 36  1  0
  7 37  1  0
  8 38  1  0
 11 39  1  0
 13 40  1  0
 14 41  1  0
 15 42  1  0
 16 43  1  0
 22 44  1  0
 22 45  1  0
 22 46  1  0
 23 47  1  0
 24 48  1  0
 24 49  1  0
 26 50  1  1
 27 51  1  0
 27 52  1  0
 27 53  1  0
 28 54  1  0
 28 55  1  0
 29 56  1  0
 29 57  1  0
 31 58  1  0
 31 59  1  0
 31 60  1  0
 32 61  1  0
 32 62  1  0
 33 63  1  0
 33 64  1  0
M  END
$$$$
[H]OB(O[H])[C@@]1([H])N(C(=O)[C@@]2([H])N(C(=O)C(C([H])([H])[H])(C([H])([H])[H])C([H])([H])[H])C([H])([H])C([H])([H])C2([H])[H])C([H])([H])C([H])([H])C1([H])[H]
     RDKit          3D

 46 47  0  0  0  0  0  0  0  0999 V2000
    4.2087   -0.1606   -1.3212 C   0  0  0  0  0  0  0  0  0  0  0  0
    3.7624    0.5509   -0.0811 C   0  0  0  0  0  0  0  0  0  0  0  0
    4.3960    1.9574   -0.0964 C   0  0  0  0  0  0  0  0  0  0  0  0
    4.2316   -0.0700    1.2064 C   0  0  0  0  0  0  0  0  0  0  0  0
    2.2611    0.7411   -0.0488 C   0  0  0  0  0  0  0  0  0  0  0  0
    1.9373    1.9651    0.0377 O   0  0  0  0  0  0  0  0  0  0  0  0
    1.3627   -0.3202   -0.1089 N   0  0  0  0  0  0  0  0  0  0  0  0
    1.8060   -1.7296   -0.2036 C   0  0  0  0  0  0  0  0  0  0  0  0
    0.8651   -2.4037    0.8006 C   0  0  0  0  0  0  0  0  0  0  0  0
   -0.2105   -1.3863    1.1078 C   0  0  0  0  0  0  0  0  0  0  0  0
   -0.0411   -0.4568   -0.1174 C   0  0  1  0  0  0  0  0  0  0  0  0
   -0.9507    0.6391   -0.0890 C   0  0  0  0  0  0  0  0  0  0  0  0
   -0.6718    1.8198    0.1177 O   0  0  0  0  0  0  0  0  0  0  0  0
   -2.3495    0.3549   -0.3267 N   0  0  0  0  0  0  0  0  0  0  0  0
   -2.9867   -0.9155   -0.5969 C   0  0  0  0  0  0  0  0  0  0  0  0
   -4.1340   -0.6002   -1.5423 C   0  0  0  0  0  0  0  0  0  0  0  0
   -4.1973    0.8911   -1.5781 C   0  0  0  0  0  0  0  0  0  0  0  0
   -3.4560    1.3178   -0.3536 C   0  0  1  0  0  0  0  0  0  0  0  0
   -4.4155    1.0848    0.9006 B   0  0  0  0  0  0  0  0  0  0  0  0
   -3.8216    0.5600    2.1442 O   0  0  0  0  0  0  0  0  0  0  0  0
   -5.5181    2.0297    1.0559 O   0  0  0  0  0  0  0  0  0  0  0  0
    4.8271    0.5026   -1.9594 H   0  0  0  0  0  0  0  0  0  0  0  0
    4.8184   -1.0680   -1.0366 H   0  0  0  0  0  0  0  0  0  0  0  0
    3.3484   -0.4644   -1.9841 H   0  0  0  0  0  0  0  0  0  0  0  0
    5.4869    1.8169   -0.2429 H   0  0  0  0  0  0  0  0  0  0  0  0
    4.2643    2.4216    0.8963 H   0  0  0  0  0  0  0  0  0  0  0  0
    4.0188    2.5476   -0.9317 H   0  0  0  0  0  0  0  0  0  0  0  0
    4.8043    0.6044    1.8606 H   0  0  0  0  0  0  0  0  0  0  0  0
    4.8844   -0.9631    1.0289 H   0  0  0  0  0  0  0  0  0  0  0  0
    3.3236   -0.3662    1.8093 H   0  0  0  0  0  0  0  0  0  0  0  0
    1.5818   -2.1094   -1.2411 H   0  0  0  0  0  0  0  0  0  0  0  0
    2.8382   -1.9000    0.0288 H   0  0  0  0  0  0  0  0  0  0  0  0
    1.4381   -2.6913    1.7031 H   0  0  0  0  0  0  0  0  0  0  0  0
    0.3894   -3.2737    0.2963 H   0  0  0  0  0  0  0  0  0  0  0  0
   -1.2030   -1.8198    1.1722 H   0  0  0  0  0  0  0  0  0  0  0  0
    0.0032   -0.8434    2.0455 H   0  0  0  0  0  0  0  0  0  0  0  0
   -0.2919   -1.1635   -0.9788 H   0  0  0  0  0  0  0  0  0  0  0  0
   -3.3804   -1.3953    0.3272 H   0  0  0  0  0  0  0  0  0  0  0  0
   -2.2760   -1.5492   -1.1604 H   0  0  0  0  0  0  0  0  0  0  0  0
   -5.0321   -1.0915   -1.1731 H   0  0  0  0  0  0  0  0  0  0  0  0
   -3.9470   -1.0032   -2.5703 H   0  0  0  0  0  0  0  0  0  0  0  0
   -5.2618    1.2405   -1.5749 H   0  0  0  0  0  0  0  0  0  0  0  0
   -3.6845    1.2353   -2.5127 H   0  0  0  0  0  0  0  0  0  0  0  0
   -3.0970    2.3569   -0.4153 H   0  0  0  0  0  0  0  0  0  0  0  0
   -4.5086    0.2723    2.7735 H   0  0  0  0  0  0  0  0  0  0  0  0
   -5.4224    2.8347    0.5117 H   0  0  0  0  0  0  0  0  0  0  0  0
  1  2  1  0
  2  3  1  0
  2  4  1  0
  2  5  1  0
  5  6  2  0
  5  7  1  0
  7  8  1  0
  8  9  1  0
  9 10  1  0
 10 11  1  0
 11 12  1  0
 12 13  2  0
 12 14  1  0
 14 15  1  0
 15 16  1  0
 16 17  1  0
 17 18  1  0
 18 19  1  0
 19 20  1  0
 19 21  1  0
 11  7  1  0
 18 14  1  0
  1 22  1  0
  1 23  1  0
  1 24  1  0
  3 25  1  0
  3 26  1  0
  3 27  1  0
  4 28  1  0
  4 29  1  0
  4 30  1  0
  8 31  1  0
  8 32  1  0
  9 33  1  0
  9 34  1  0
 10 35  1  0
 10 36  1  0
 11 37  1  6
 15 38  1  0
 15 39  1  0
 16 40  1  0
 16 41  1  0
 17 42  1  0
 17 43  1  0
 18 44  1  6
 20 45  1  0
 21 46  1  0
M  END
$$$$
[H]N=C(N([H])[H])N([H])C([H])([H])C([H])([H])C([H])([H])[C@@]([H])(C(=O)c1nc2c([H])c([H])c([H])c([H])c2s1)N([H])C(=O)[C@@]([H])(N([H])C(=O)[C@@]1([H])N(C(=O)[C@@]([H])(N([H])C(=O)N([H])[H])C([H])([H])c2c([H])c([H])c([H])c([H])c2[H])C([H])([H])C([H])([H])C1([H])[H])C([H])([H])C([H])([H])C([H])([H])N([H])C(=N[H])N([H])[H]
     RDKit          3D

 98101  0  0  0  0  0  0  0  0999 V2000
    6.8486    2.0682   -1.5614 O   0  0  0  0  0  0  0  0  0  0  0  0
    7.3864    0.9708   -1.7733 C   0  0  0  0  0  0  0  0  0  0  0  0
    7.0372   -0.1739   -1.0632 N   0  0  0  0  0  0  0  0  0  0  0  0
    6.0815   -0.3688   -0.0254 C   0  0  1  0  0  0  0  0  0  0  0  0
    6.1182    0.6443    1.0996 C   0  0  0  0  0  0  0  0  0  0  0  0
    7.3916    0.6684    1.8401 C   0  0  0  0  0  0  0  0  0  0  0  0
    7.5509   -0.2829    2.8563 C   0  0  0  0  0  0  0  0  0  0  0  0
    8.7002   -0.3513    3.6183 C   0  0  0  0  0  0  0  0  0  0  0  0
    9.7454    0.5240    3.4039 C   0  0  0  0  0  0  0  0  0  0  0  0
    9.6027    1.4613    2.4119 C   0  0  0  0  0  0  0  0  0  0  0  0
    8.4281    1.5219    1.6438 C   0  0  0  0  0  0  0  0  0  0  0  0
    4.7455   -0.5748   -0.6075 C   0  0  0  0  0  0  0  0  0  0  0  0
    4.6124   -0.2750   -1.8429 O   0  0  0  0  0  0  0  0  0  0  0  0
    3.6106   -1.0770    0.0680 N   0  0  0  0  0  0  0  0  0  0  0  0
    3.4206   -1.5178    1.4345 C   0  0  0  0  0  0  0  0  0  0  0  0
    2.8206   -2.9153    1.1401 C   0  0  0  0  0  0  0  0  0  0  0  0
    1.7659   -2.5309    0.1400 C   0  0  0  0  0  0  0  0  0  0  0  0
    2.3273   -1.2974   -0.5508 C   0  0  1  0  0  0  0  0  0  0  0  0
    1.3551   -0.1942   -0.3474 C   0  0  0  0  0  0  0  0  0  0  0  0
    1.4824    0.7393    0.4701 O   0  0  0  0  0  0  0  0  0  0  0  0
    0.1545   -0.1727   -1.1475 N   0  0  0  0  0  0  0  0  0  0  0  0
   -0.8926    0.7827   -1.0940 C   0  0  2  0  0  0  0  0  0  0  0  0
   -2.1633    0.0141   -0.8063 C   0  0  0  0  0  0  0  0  0  0  0  0
   -2.0650   -1.2497   -0.6598 O   0  0  0  0  0  0  0  0  0  0  0  0
   -3.4242    0.6005   -0.6947 N   0  0  0  0  0  0  0  0  0  0  0  0
   -4.6112   -0.2425   -0.4255 C   0  0  1  0  0  0  0  0  0  0  0  0
   -5.2811    0.3993    0.7599 C   0  0  0  0  0  0  0  0  0  0  0  0
   -4.3968    0.4497    1.9638 C   0  0  0  0  0  0  0  0  0  0  0  0
   -5.0773    1.1558    3.1221 C   0  0  0  0  0  0  0  0  0  0  0  0
   -6.2933    0.5317    3.5559 N   0  0  0  0  0  0  0  0  0  0  0  0
   -6.2800   -0.7190    4.2175 C   0  0  0  0  0  0  0  0  0  0  0  0
   -5.8667   -0.7410    5.4265 N   0  0  0  0  0  0  0  0  0  0  0  0
   -6.6991   -1.9295    3.6247 N   0  0  0  0  0  0  0  0  0  0  0  0
   -5.5210   -0.1768   -1.6011 C   0  0  0  0  0  0  0  0  0  0  0  0
   -5.3171    0.6125   -2.5163 O   0  0  0  0  0  0  0  0  0  0  0  0
   -6.6675   -1.0752   -1.6450 C   0  0  0  0  0  0  0  0  0  0  0  0
   -7.0457   -2.0278   -0.8058 N   0  0  0  0  0  0  0  0  0  0  0  0
   -8.1157   -2.7289   -1.0460 C   0  0  0  0  0  0  0  0  0  0  0  0
   -8.6125   -3.7854   -0.2361 C   0  0  0  0  0  0  0  0  0  0  0  0
   -9.7333   -4.4417   -0.6171 C   0  0  0  0  0  0  0  0  0  0  0  0
  -10.4627   -4.1802   -1.7441 C   0  0  0  0  0  0  0  0  0  0  0  0
   -9.9865   -3.1484   -2.5443 C   0  0  0  0  0  0  0  0  0  0  0  0
   -8.8269   -2.4492   -2.1774 C   0  0  0  0  0  0  0  0  0  0  0  0
   -7.8992   -1.1706   -2.8463 S   0  0  0  0  0  0  0  0  0  0  0  0
   -1.1469    1.5425   -2.3600 C   0  0  0  0  0  0  0  0  0  0  0  0
   -0.0374    2.3859   -2.8708 C   0  0  0  0  0  0  0  0  0  0  0  0
    0.3345    3.5090   -1.9168 C   0  0  0  0  0  0  0  0  0  0  0  0
    1.4055    4.3225   -2.4350 N   0  0  0  0  0  0  0  0  0  0  0  0
    2.7382    3.8042   -2.5627 C   0  0  0  0  0  0  0  0  0  0  0  0
    3.1332    2.9922   -1.6568 N   0  0  0  0  0  0  0  0  0  0  0  0
    3.5564    4.2071   -3.6696 N   0  0  0  0  0  0  0  0  0  0  0  0
    8.3825    0.9218   -2.7824 N   0  0  0  0  0  0  0  0  0  0  0  0
    7.5766   -1.0620   -1.3433 H   0  0  0  0  0  0  0  0  0  0  0  0
    6.3824   -1.3278    0.5121 H   0  0  0  0  0  0  0  0  0  0  0  0
    6.0131    1.6798    0.6513 H   0  0  0  0  0  0  0  0  0  0  0  0
    5.2986    0.4829    1.7917 H   0  0  0  0  0  0  0  0  0  0  0  0
    6.7405   -0.9905    3.0452 H   0  0  0  0  0  0  0  0  0  0  0  0
    8.8256   -1.0955    4.4168 H   0  0  0  0  0  0  0  0  0  0  0  0
   10.6579    0.4643    4.0160 H   0  0  0  0  0  0  0  0  0  0  0  0
   10.3871    2.1709    2.1968 H   0  0  0  0  0  0  0  0  0  0  0  0
    8.3335    2.2883    0.8697 H   0  0  0  0  0  0  0  0  0  0  0  0
    4.3238   -1.6112    2.0329 H   0  0  0  0  0  0  0  0  0  0  0  0
    2.6576   -0.9732    1.9948 H   0  0  0  0  0  0  0  0  0  0  0  0
    2.4841   -3.4281    2.0270 H   0  0  0  0  0  0  0  0  0  0  0  0
    3.5983   -3.4802    0.5614 H   0  0  0  0  0  0  0  0  0  0  0  0
    1.6203   -3.3011   -0.6422 H   0  0  0  0  0  0  0  0  0  0  0  0
    0.8510   -2.2796    0.7132 H   0  0  0  0  0  0  0  0  0  0  0  0
    2.3998   -1.4534   -1.6494 H   0  0  0  0  0  0  0  0  0  0  0  0
    0.0402   -0.9668   -1.8629 H   0  0  0  0  0  0  0  0  0  0  0  0
   -0.6985    1.5500   -0.2931 H   0  0  0  0  0  0  0  0  0  0  0  0
   -3.5597    1.6163   -0.7965 H   0  0  0  0  0  0  0  0  0  0  0  0
   -4.2664   -1.2346   -0.1719 H   0  0  0  0  0  0  0  0  0  0  0  0
   -6.2199   -0.1811    0.9637 H   0  0  0  0  0  0  0  0  0  0  0  0
   -5.5695    1.4520    0.4632 H   0  0  0  0  0  0  0  0  0  0  0  0
   -3.4629    0.9852    1.7296 H   0  0  0  0  0  0  0  0  0  0  0  0
   -4.2196   -0.6101    2.2856 H   0  0  0  0  0  0  0  0  0  0  0  0
   -5.2873    2.2048    2.8018 H   0  0  0  0  0  0  0  0  0  0  0  0
   -4.3424    1.2374    3.9404 H   0  0  0  0  0  0  0  0  0  0  0  0
   -7.2164    1.0390    3.3652 H   0  0  0  0  0  0  0  0  0  0  0  0
   -5.5411    0.1113    5.9438 H   0  0  0  0  0  0  0  0  0  0  0  0
   -6.0491   -2.7355    3.4801 H   0  0  0  0  0  0  0  0  0  0  0  0
   -7.6964   -2.0950    3.2944 H   0  0  0  0  0  0  0  0  0  0  0  0
   -8.1201   -4.0814    0.6793 H   0  0  0  0  0  0  0  0  0  0  0  0
  -10.1070   -5.2622    0.0175 H   0  0  0  0  0  0  0  0  0  0  0  0
  -11.3489   -4.7230   -2.0163 H   0  0  0  0  0  0  0  0  0  0  0  0
  -10.4633   -2.8388   -3.4577 H   0  0  0  0  0  0  0  0  0  0  0  0
   -1.5366    0.8574   -3.1647 H   0  0  0  0  0  0  0  0  0  0  0  0
   -2.0277    2.2246   -2.1493 H   0  0  0  0  0  0  0  0  0  0  0  0
   -0.3634    2.8753   -3.8092 H   0  0  0  0  0  0  0  0  0  0  0  0
    0.8636    1.7869   -3.1278 H   0  0  0  0  0  0  0  0  0  0  0  0
   -0.5320    4.1675   -1.7335 H   0  0  0  0  0  0  0  0  0  0  0  0
    0.6666    3.1030   -0.9448 H   0  0  0  0  0  0  0  0  0  0  0  0
    1.2316    5.2986   -2.7253 H   0  0  0  0  0  0  0  0  0  0  0  0
    4.0587    2.5542   -1.6338 H   0  0  0  0  0  0  0  0  0  0  0  0
    3.4446    3.7435   -4.5853 H   0  0  0  0  0  0  0  0  0  0  0  0
    4.2671    4.9659   -3.5692 H   0  0  0  0  0  0  0  0  0  0  0  0
    8.2368    0.5711   -3.7365 H   0  0  0  0  0  0  0  0  0  0  0  0
    9.3558    1.2698   -2.5440 H   0  0  0  0  0  0  0  0  0  0  0  0
  1  2  2  0
  2  3  1  0
  3  4  1  0
  4  5  1  0
  5  6  1  0
  6  7  2  0
  7  8  1  0
  8  9  2  0
  9 10  1  0
 10 11  2  0
  4 12  1  0
 12 13  2  0
 12 14  1  0
 14 15  1  0
 15 16  1  0
 16 17  1  0
 17 18  1  0
 18 19  1  0
 19 20  2  0
 19 21  1  0
 21 22  1  0
 22 23  1  0
 23 24  2  0
 23 25  1  0
 25 26  1  0
 26 27  1  0
 27 28  1  0
 28 29  1  0
 29 30  1  0
 30 31  1  0
 31 32  2  3
 31 33  1  0
 26 34  1  0
 34 35  2  0
 34 36  1  0
 36 37  2  0
 37 38  1  0
 38 39  2  0
 39 40  1  0
 40 41  2  0
 41 42  1  0
 42 43  2  0
 43 44  1  0
 22 45  1  0
 45 46  1  0
 46 47  1  0
 47 48  1  0
 48 49  1  0
 49 50  2  3
 49 51  1  0
  2 52  1  0
 11  6  1  0
 18 14  1  0
 44 36  1  0
 43 38  1  0
  3 53  1  0
  4 54  1  1
  5 55  1  0
  5 56  1  0
  7 57  1  0
  8 58  1  0
  9 59  1  0
 10 60  1  0
 11 61  1  0
 15 62  1  0
 15 63  1  0
 16 64  1  0
 16 65  1  0
 17 66  1  0
 17 67  1  0
 18 68  1  6
 21 69  1  0
 22 70  1  1
 25 71  1  0
 26 72  1  1
 27 73  1  0
 27 74  1  0
 28 75  1  0
 28 76  1  0
 29 77  1  0
 29 78  1  0
 30 79  1  0
 32 80  1  0
 33 81  1  0
 33 82  1  0
 39 83  1  0
 40 84  1  0
 41 85  1  0
 42 86  1  0
 45 87  1  0
 45 88  1  0
 46 89  1  0
 46 90  1  0
 47 91  1  0
 47 92  1  0
 48 93  1  0
 50 94  1  0
 51 95  1  0
 51 96  1  0
 52 97  1  0
 52 98  1  0
M  END
$$$$
[H]c1c([H])c([H])c(C2([H])C([H])([H])N(C(=O)[C@]([H])(Oc3c([H])c([H])c([H])c(C([H])([H])C([H])([H])N4C([H])([H])C([H])([H])C(F)(F)C4([H])[H])c3[H])C([H])([H])[H])C([H])([H])C([H])([H])C2([H])[H])c([H])c1[H]
     RDKit          3D

 64 67  0  0  0  0  0  0  0  0999 V2000
   -0.9565   -2.1979   -0.1761 C   0  0  0  0  0  0  0  0  0  0  0  0
   -0.6625   -0.7818    0.3562 C   0  0  1  0  0  0  0  0  0  0  0  0
    0.4471   -0.2506   -0.3027 O   0  0  0  0  0  0  0  0  0  0  0  0
    1.6089    0.1943    0.2468 C   0  0  0  0  0  0  0  0  0  0  0  0
    1.8146    0.1609    1.6050 C   0  0  0  0  0  0  0  0  0  0  0  0
    3.0191    0.6269    2.1262 C   0  0  0  0  0  0  0  0  0  0  0  0
    3.9885    1.1161    1.2610 C   0  0  0  0  0  0  0  0  0  0  0  0
    3.8182    1.1633   -0.0895 C   0  0  0  0  0  0  0  0  0  0  0  0
    4.8351    1.6697   -1.0064 C   0  0  0  0  0  0  0  0  0  0  0  0
    5.7770    0.6671   -1.5687 C   0  0  0  0  0  0  0  0  0  0  0  0
    6.5285    0.0294   -0.5481 N   0  0  0  0  0  0  0  0  0  0  0  0
    7.4887    0.8465    0.1219 C   0  0  0  0  0  0  0  0  0  0  0  0
    8.7663   -0.0013    0.2049 C   0  0  0  0  0  0  0  0  0  0  0  0
    8.1713   -1.4108    0.1686 C   0  0  0  0  0  0  0  0  0  0  0  0
    9.0940   -2.3594   -0.1463 F   0  0  0  0  0  0  0  0  0  0  0  0
    7.5208   -1.6262    1.3580 F   0  0  0  0  0  0  0  0  0  0  0  0
    7.1257   -1.2131   -0.9259 C   0  0  0  0  0  0  0  0  0  0  0  0
    2.6239    0.7001   -0.5894 C   0  0  0  0  0  0  0  0  0  0  0  0
   -1.8858    0.0335    0.0711 C   0  0  0  0  0  0  0  0  0  0  0  0
   -1.7674    0.9769   -0.7660 O   0  0  0  0  0  0  0  0  0  0  0  0
   -3.1444   -0.1741    0.6644 N   0  0  0  0  0  0  0  0  0  0  0  0
   -3.3936   -1.1903    1.6411 C   0  0  0  0  0  0  0  0  0  0  0  0
   -4.5730   -2.0704    1.2280 C   0  0  0  0  0  0  0  0  0  0  0  0
   -5.7616   -1.1394    0.9992 C   0  0  0  0  0  0  0  0  0  0  0  0
   -5.3869   -0.2453   -0.1826 C   0  0  0  0  0  0  0  0  0  0  0  0
   -4.2756    0.6697    0.2861 C   0  0  0  0  0  0  0  0  0  0  0  0
   -6.5595    0.5014   -0.6605 C   0  0  0  0  0  0  0  0  0  0  0  0
   -7.2227    1.4194    0.1328 C   0  0  0  0  0  0  0  0  0  0  0  0
   -8.3217    2.1210   -0.3102 C   0  0  0  0  0  0  0  0  0  0  0  0
   -8.7909    1.9122   -1.5892 C   0  0  0  0  0  0  0  0  0  0  0  0
   -8.1346    0.9924   -2.3982 C   0  0  0  0  0  0  0  0  0  0  0  0
   -7.0238    0.2941   -1.9276 C   0  0  0  0  0  0  0  0  0  0  0  0
   -0.8044   -2.9220    0.6242 H   0  0  0  0  0  0  0  0  0  0  0  0
   -0.2126   -2.4274   -0.9717 H   0  0  0  0  0  0  0  0  0  0  0  0
   -1.9902   -2.2689   -0.5536 H   0  0  0  0  0  0  0  0  0  0  0  0
   -0.5566   -0.8485    1.4394 H   0  0  0  0  0  0  0  0  0  0  0  0
    1.0814   -0.2134    2.3098 H   0  0  0  0  0  0  0  0  0  0  0  0
    3.2133    0.6140    3.1982 H   0  0  0  0  0  0  0  0  0  0  0  0
    4.8909    1.4684    1.6971 H   0  0  0  0  0  0  0  0  0  0  0  0
    4.3232    2.2097   -1.8598 H   0  0  0  0  0  0  0  0  0  0  0  0
    5.4489    2.4814   -0.5211 H   0  0  0  0  0  0  0  0  0  0  0  0
    6.4424    1.1093   -2.3604 H   0  0  0  0  0  0  0  0  0  0  0  0
    5.2063   -0.1245   -2.1089 H   0  0  0  0  0  0  0  0  0  0  0  0
    7.6917    1.8199   -0.3646 H   0  0  0  0  0  0  0  0  0  0  0  0
    7.1724    0.9810    1.1758 H   0  0  0  0  0  0  0  0  0  0  0  0
    9.3767    0.2099   -0.6926 H   0  0  0  0  0  0  0  0  0  0  0  0
    9.3058    0.1627    1.1433 H   0  0  0  0  0  0  0  0  0  0  0  0
    6.3469   -2.0076   -0.8359 H   0  0  0  0  0  0  0  0  0  0  0  0
    7.6044   -1.2045   -1.9200 H   0  0  0  0  0  0  0  0  0  0  0  0
    2.4536    0.7223   -1.6533 H   0  0  0  0  0  0  0  0  0  0  0  0
   -3.6698   -0.6825    2.6130 H   0  0  0  0  0  0  0  0  0  0  0  0
   -2.5441   -1.8296    1.8655 H   0  0  0  0  0  0  0  0  0  0  0  0
   -4.3050   -2.5606    0.2897 H   0  0  0  0  0  0  0  0  0  0  0  0
   -4.7355   -2.7624    2.0658 H   0  0  0  0  0  0  0  0  0  0  0  0
   -5.8879   -0.5379    1.9090 H   0  0  0  0  0  0  0  0  0  0  0  0
   -6.6475   -1.7726    0.7602 H   0  0  0  0  0  0  0  0  0  0  0  0
   -5.0044   -0.8978   -0.9703 H   0  0  0  0  0  0  0  0  0  0  0  0
   -4.6004    1.1819    1.2133 H   0  0  0  0  0  0  0  0  0  0  0  0
   -3.9726    1.3711   -0.5078 H   0  0  0  0  0  0  0  0  0  0  0  0
   -6.8761    1.6023    1.1400 H   0  0  0  0  0  0  0  0  0  0  0  0
   -8.8254    2.8418    0.3438 H   0  0  0  0  0  0  0  0  0  0  0  0
   -9.6520    2.4484   -1.9641 H   0  0  0  0  0  0  0  0  0  0  0  0
   -8.4907    0.8147   -3.4093 H   0  0  0  0  0  0  0  0  0  0  0  0
   -6.5496   -0.4130   -2.6033 H   0  0  0  0  0  0  0  0  0  0  0  0
  1  2  1  0
  2  3  1  0
  3  4  1  0
  4  5  2  0
  5  6  1  0
  6  7  2  0
  7  8  1  0
  8  9  1  0
  9 10  1  0
 10 11  1  0
 11 12  1  0
 12 13  1  0
 13 14  1  0
 14 15  1  0
 14 16  1  0
 14 17  1  0
  8 18  2  0
  2 19  1  0
 19 20  2  0
 19 21  1  0
 21 22  1  0
 22 23  1  0
 23 24  1  0
 24 25  1  0
 25 26  1  0
 25 27  1  0
 27 28  2  0
 28 29  1  0
 29 30  2  0
 30 31  1  0
 31 32  2  0
 18  4  1  0
 26 21  1  0
 32 27  1  0
 17 11  1  0
  1 33  1  0
  1 34  1  0
  1 35  1  0
  2 36  1  1
  5 37  1  0
  6 38  1  0
  7 39  1  0
  9 40  1  0
  9 41  1  0
 10 42  1  0
 10 43  1  0
 12 44  1  0
 12 45  1  0
 13 46  1  0
 13 47  1  0
 17 48  1  0
 17 49  1  0
 18 50  1  0
 22 51  1  0
 22 52  1  0
 23 53  1  0
 23 54  1  0
 24 55  1  0
 24 56  1  0
 25 57  1  0
 26 58  1  0
 26 59  1  0
 28 60  1  0
 29 61  1  0
 30 62  1  0
 31 63  1  0
 32 64  1  0
M  END
$$$$
[H]OC1=C([H])C([H])(C([H])([H])c2c([H])c(=O)oc3c([H])c(O[H])c([H])c([H])c23)c2nc(C3=NOC(C([H])([H])[H])(C([H])([H])[H])C3([H])[H])n([H])c2C([H])=C1OC([H])([H])[H]
     RDKit          3D

 56 60  0  0  0  0  0  0  0  0999 V2000
    1.6193    1.4438   -0.7208 C   0  0  0  0  0  0  0  0  0  0  0  0
    2.3445    1.0026    0.5369 C   0  0  0  0  0  0  0  0  0  0  0  0
    2.2216   -0.4067    0.8584 C   0  0  0  0  0  0  0  0  0  0  0  0
    1.3133   -0.8405    1.7967 C   0  0  0  0  0  0  0  0  0  0  0  0
    1.1794   -2.2077    2.0833 C   0  0  0  0  0  0  0  0  0  0  0  0
    0.3319   -2.5909    2.9559 O   0  0  0  0  0  0  0  0  0  0  0  0
    1.9262   -3.0816    1.4523 O   0  0  0  0  0  0  0  0  0  0  0  0
    2.8101   -2.7219    0.5474 C   0  0  0  0  0  0  0  0  0  0  0  0
    3.5745   -3.6917   -0.0871 C   0  0  0  0  0  0  0  0  0  0  0  0
    4.5122   -3.3654   -1.0370 C   0  0  0  0  0  0  0  0  0  0  0  0
    5.2865   -4.3330   -1.6817 O   0  0  0  0  0  0  0  0  0  0  0  0
    4.6809   -2.0379   -1.3510 C   0  0  0  0  0  0  0  0  0  0  0  0
    3.9219   -1.0752   -0.7214 C   0  0  0  0  0  0  0  0  0  0  0  0
    2.9790   -1.3659    0.2278 C   0  0  0  0  0  0  0  0  0  0  0  0
    0.1653    1.1960   -0.6291 C   0  0  0  0  0  0  0  0  0  0  0  0
   -0.9080    1.9843   -0.3350 C   0  0  0  0  0  0  0  0  0  0  0  0
   -1.9983    1.2324   -0.3977 N   0  0  0  0  0  0  0  0  0  0  0  0
   -1.6716   -0.0302   -0.7253 C   0  0  0  0  0  0  0  0  0  0  0  0
   -2.5841   -1.1730   -0.8974 C   0  0  0  0  0  0  0  0  0  0  0  0
   -2.2261   -2.3703   -1.2126 N   0  0  0  0  0  0  0  0  0  0  0  0
   -3.3539   -3.1822   -1.2857 O   0  0  0  0  0  0  0  0  0  0  0  0
   -4.4475   -2.5409   -0.6882 C   0  0  0  0  0  0  0  0  0  0  0  0
   -4.6202   -2.9513    0.7597 C   0  0  0  0  0  0  0  0  0  0  0  0
   -5.7481   -2.7727   -1.4262 C   0  0  0  0  0  0  0  0  0  0  0  0
   -4.0566   -1.0894   -0.7267 C   0  0  0  0  0  0  0  0  0  0  0  0
   -0.3308   -0.0308   -0.8635 N   0  0  0  0  0  0  0  0  0  0  0  0
   -0.8530    3.4117   -0.0077 C   0  0  0  0  0  0  0  0  0  0  0  0
    0.1218    4.2703   -0.1891 C   0  0  0  0  0  0  0  0  0  0  0  0
   -0.1459    5.5576    0.2336 O   0  0  0  0  0  0  0  0  0  0  0  0
    0.1943    5.9421    1.5497 C   0  0  0  0  0  0  0  0  0  0  0  0
    1.4204    4.0057   -0.7756 C   0  0  0  0  0  0  0  0  0  0  0  0
    2.1666    5.1308   -1.1858 O   0  0  0  0  0  0  0  0  0  0  0  0
    1.9750    2.8455   -0.9661 C   0  0  0  0  0  0  0  0  0  0  0  0
    2.0043    0.8293   -1.5558 H   0  0  0  0  0  0  0  0  0  0  0  0
    1.9447    1.6774    1.3517 H   0  0  0  0  0  0  0  0  0  0  0  0
    3.4243    1.3263    0.4566 H   0  0  0  0  0  0  0  0  0  0  0  0
    0.6625   -0.1853    2.3590 H   0  0  0  0  0  0  0  0  0  0  0  0
    3.4629   -4.7462    0.1408 H   0  0  0  0  0  0  0  0  0  0  0  0
    6.1711   -4.5773   -1.2455 H   0  0  0  0  0  0  0  0  0  0  0  0
    5.4138   -1.7144   -2.1003 H   0  0  0  0  0  0  0  0  0  0  0  0
    4.0839   -0.0602   -0.9791 H   0  0  0  0  0  0  0  0  0  0  0  0
   -2.9664    1.5920   -0.2143 H   0  0  0  0  0  0  0  0  0  0  0  0
   -5.0104   -3.9725    0.8463 H   0  0  0  0  0  0  0  0  0  0  0  0
   -3.6321   -2.8296    1.2477 H   0  0  0  0  0  0  0  0  0  0  0  0
   -5.3313   -2.2193    1.2249 H   0  0  0  0  0  0  0  0  0  0  0  0
   -5.6530   -2.6702   -2.5085 H   0  0  0  0  0  0  0  0  0  0  0  0
   -6.2299   -3.7199   -1.1415 H   0  0  0  0  0  0  0  0  0  0  0  0
   -6.4477   -1.9623   -1.0737 H   0  0  0  0  0  0  0  0  0  0  0  0
   -4.4714   -0.6297   -1.6491 H   0  0  0  0  0  0  0  0  0  0  0  0
   -4.3441   -0.5392    0.1889 H   0  0  0  0  0  0  0  0  0  0  0  0
   -1.7602    3.8108    0.4544 H   0  0  0  0  0  0  0  0  0  0  0  0
    1.2758    5.8507    1.7604 H   0  0  0  0  0  0  0  0  0  0  0  0
   -0.0678    7.0208    1.6820 H   0  0  0  0  0  0  0  0  0  0  0  0
   -0.3522    5.3675    2.3244 H   0  0  0  0  0  0  0  0  0  0  0  0
    3.0511    5.2495   -0.6806 H   0  0  0  0  0  0  0  0  0  0  0  0
    2.9713    2.9381   -1.4329 H   0  0  0  0  0  0  0  0  0  0  0  0
  1  2  1  0
  2  3  1  0
  3  4  2  0
  4  5  1  0
  5  6  2  0
  5  7  1  0
  7  8  1  0
  8  9  2  0
  9 10  1  0
 10 11  1  0
 10 12  2  0
 12 13  1  0
 13 14  2  0
  1 15  1  0
 15 16  2  0
 16 17  1  0
 17 18  1  0
 18 19  1  0
 19 20  2  0
 20 21  1  0
 21 22  1  0
 22 23  1  0
 22 24  1  0
 22 25  1  0
 18 26  2  0
 16 27  1  0
 27 28  2  0
 28 29  1  0
 29 30  1  0
 28 31  1  0
 31 32  1  0
 31 33  2  0
 33  1  1  0
 14  3  1  0
 26 15  1  0
 14  8  1  0
 25 19  1  0
  1 34  1  0
  2 35  1  0
  2 36  1  0
  4 37  1  0
  9 38  1  0
 11 39  1  0
 12 40  1  0
 13 41  1  0
 17 42  1  0
 23 43  1  0
 23 44  1  0
 23 45  1  0
 24 46  1  0
 24 47  1  0
 24 48  1  0
 25 49  1  0
 25 50  1  0
 27 51  1  0
 30 52  1  0
 30 53  1  0
 30 54  1  0
 32 55  1  0
 33 56  1  0
M  END
$$$$
[H]OC(=O)[C@@]([H])(N([H])C(=O)[C@@]([H])(N([H])C(=O)[C@@]([H])(N([H])C(=O)[C@@]([H])(N([H])C(=O)[C@@]1([H])N(C(=O)[C@@]([H])(N([H])C(=O)OC([H])([H])c2c([H])c([H])c([H])c([H])c2[H])[C@@]([H])(C([H])([H])[H])C([H])([H])C([H])([H])[H])C([H])([H])C([H])([H])C1([H])[H])C([H])([H])C([H])(C([H])([H])[H])C([H])([H])[H])C([H])([H])O[H])C([H])([H])C([H])(C([H])([H])[H])C([H])([H])[H])C([H])([H])O[H]
     RDKit          3D

112113  0  0  0  0  0  0  0  0999 V2000
    7.1394    0.4995    3.1726 C   0  0  0  0  0  0  0  0  0  0  0  0
    6.0337   -0.3728    2.6944 C   0  0  0  0  0  0  0  0  0  0  0  0
    6.3045   -1.1814    1.4756 C   0  0  2  0  0  0  0  0  0  0  0  0
    7.4930   -2.1075    1.6394 C   0  0  0  0  0  0  0  0  0  0  0  0
    6.3182   -0.4461    0.1670 C   0  0  2  0  0  0  0  0  0  0  0  0
    7.3196    0.6065    0.1351 N   0  0  0  0  0  0  0  0  0  0  0  0
    8.4443    0.5563   -0.7687 C   0  0  0  0  0  0  0  0  0  0  0  0
    8.5913   -0.4017   -1.5496 O   0  0  0  0  0  0  0  0  0  0  0  0
    9.3597    1.5685   -0.7768 O   0  0  0  0  0  0  0  0  0  0  0  0
   10.4676    1.5716   -1.6438 C   0  0  0  0  0  0  0  0  0  0  0  0
   11.2987    0.3820   -1.3567 C   0  0  0  0  0  0  0  0  0  0  0  0
   12.0289   -0.1815   -2.3680 C   0  0  0  0  0  0  0  0  0  0  0  0
   12.8392   -1.2893   -2.1656 C   0  0  0  0  0  0  0  0  0  0  0  0
   12.9299   -1.8621   -0.9135 C   0  0  0  0  0  0  0  0  0  0  0  0
   12.2034   -1.3097    0.1126 C   0  0  0  0  0  0  0  0  0  0  0  0
   11.3980   -0.2002   -0.1102 C   0  0  0  0  0  0  0  0  0  0  0  0
    5.0104    0.1959   -0.0748 C   0  0  0  0  0  0  0  0  0  0  0  0
    4.8790    1.4646   -0.0533 O   0  0  0  0  0  0  0  0  0  0  0  0
    3.7929   -0.5359   -0.3552 N   0  0  0  0  0  0  0  0  0  0  0  0
    3.6334   -1.9668   -0.4700 C   0  0  0  0  0  0  0  0  0  0  0  0
    2.7396   -2.0598   -1.7041 C   0  0  0  0  0  0  0  0  0  0  0  0
    1.9034   -0.8037   -1.6756 C   0  0  0  0  0  0  0  0  0  0  0  0
    2.4937    0.0134   -0.5923 C   0  0  1  0  0  0  0  0  0  0  0  0
    1.6272    0.1641    0.5967 C   0  0  0  0  0  0  0  0  0  0  0  0
    2.0361   -0.2536    1.7003 O   0  0  0  0  0  0  0  0  0  0  0  0
    0.3801    0.7650    0.4680 N   0  0  0  0  0  0  0  0  0  0  0  0
   -0.6355    1.0335    1.4357 C   0  0  1  0  0  0  0  0  0  0  0  0
   -0.8623    2.4472    1.7560 C   0  0  0  0  0  0  0  0  0  0  0  0
   -1.2341    3.3994    0.7023 C   0  0  0  0  0  0  0  0  0  0  0  0
   -2.4675    3.1628   -0.0727 C   0  0  0  0  0  0  0  0  0  0  0  0
   -1.4404    4.7653    1.3927 C   0  0  0  0  0  0  0  0  0  0  0  0
   -1.8112    0.1496    1.3206 C   0  0  0  0  0  0  0  0  0  0  0  0
   -1.7237   -0.7732    0.4673 O   0  0  0  0  0  0  0  0  0  0  0  0
   -3.0044    0.2204    2.0497 N   0  0  0  0  0  0  0  0  0  0  0  0
   -4.1023   -0.7190    1.8805 C   0  0  1  0  0  0  0  0  0  0  0  0
   -4.6792   -0.9092    3.2695 C   0  0  0  0  0  0  0  0  0  0  0  0
   -5.1106    0.3498    3.7225 O   0  0  0  0  0  0  0  0  0  0  0  0
   -5.1692    0.0074    1.1000 C   0  0  0  0  0  0  0  0  0  0  0  0
   -5.2279    1.2717    1.1119 O   0  0  0  0  0  0  0  0  0  0  0  0
   -6.1019   -0.7161    0.3453 N   0  0  0  0  0  0  0  0  0  0  0  0
   -7.1707   -0.0343   -0.4689 C   0  0  1  0  0  0  0  0  0  0  0  0
   -6.7920   -0.2765   -1.8621 C   0  0  0  0  0  0  0  0  0  0  0  0
   -7.5503    0.2992   -2.9798 C   0  0  0  0  0  0  0  0  0  0  0  0
   -6.8994   -0.1122   -4.3273 C   0  0  0  0  0  0  0  0  0  0  0  0
   -7.5251    1.8208   -3.0047 C   0  0  0  0  0  0  0  0  0  0  0  0
   -8.4143   -0.5579    0.0885 C   0  0  0  0  0  0  0  0  0  0  0  0
   -8.4674   -0.6773    1.3927 O   0  0  0  0  0  0  0  0  0  0  0  0
   -9.5921   -0.9664   -0.5514 N   0  0  0  0  0  0  0  0  0  0  0  0
  -10.7143   -1.4456    0.2758 C   0  0  1  0  0  0  0  0  0  0  0  0
  -11.9706   -0.7516   -0.1631 C   0  0  0  0  0  0  0  0  0  0  0  0
  -12.1597   -1.0836   -1.5113 O   0  0  0  0  0  0  0  0  0  0  0  0
  -10.8551   -2.9088    0.1091 C   0  0  0  0  0  0  0  0  0  0  0  0
  -11.8642   -3.5852    0.7521 O   0  0  0  0  0  0  0  0  0  0  0  0
  -10.0518   -3.5262   -0.6200 O   0  0  0  0  0  0  0  0  0  0  0  0
    6.9556    1.5810    3.1363 H   0  0  0  0  0  0  0  0  0  0  0  0
    8.1140    0.3109    2.6695 H   0  0  0  0  0  0  0  0  0  0  0  0
    7.3410    0.2510    4.2561 H   0  0  0  0  0  0  0  0  0  0  0  0
    5.6778   -1.0486    3.5280 H   0  0  0  0  0  0  0  0  0  0  0  0
    5.1387    0.3085    2.5372 H   0  0  0  0  0  0  0  0  0  0  0  0
    5.4203   -1.9162    1.4258 H   0  0  0  0  0  0  0  0  0  0  0  0
    8.4007   -1.5672    1.9165 H   0  0  0  0  0  0  0  0  0  0  0  0
    7.2228   -2.9510    2.2913 H   0  0  0  0  0  0  0  0  0  0  0  0
    7.6935   -2.5401    0.6157 H   0  0  0  0  0  0  0  0  0  0  0  0
    6.5325   -1.2082   -0.6436 H   0  0  0  0  0  0  0  0  0  0  0  0
    7.2112    1.4082    0.7599 H   0  0  0  0  0  0  0  0  0  0  0  0
   10.1596    1.6093   -2.7150 H   0  0  0  0  0  0  0  0  0  0  0  0
   11.1172    2.4588   -1.3817 H   0  0  0  0  0  0  0  0  0  0  0  0
   11.9957    0.2325   -3.3884 H   0  0  0  0  0  0  0  0  0  0  0  0
   13.3818   -1.6818   -2.9859 H   0  0  0  0  0  0  0  0  0  0  0  0
   13.5482   -2.7301   -0.6953 H   0  0  0  0  0  0  0  0  0  0  0  0
   12.2573   -1.7473    1.1207 H   0  0  0  0  0  0  0  0  0  0  0  0
   10.8453    0.2003    0.7229 H   0  0  0  0  0  0  0  0  0  0  0  0
    3.2221   -2.4578    0.4003 H   0  0  0  0  0  0  0  0  0  0  0  0
    4.6659   -2.3478   -0.7442 H   0  0  0  0  0  0  0  0  0  0  0  0
    2.1640   -2.9887   -1.6787 H   0  0  0  0  0  0  0  0  0  0  0  0
    3.4344   -1.9722   -2.5718 H   0  0  0  0  0  0  0  0  0  0  0  0
    0.8437   -1.0480   -1.3780 H   0  0  0  0  0  0  0  0  0  0  0  0
    1.9203   -0.3064   -2.6726 H   0  0  0  0  0  0  0  0  0  0  0  0
    2.7013    1.0380   -1.0503 H   0  0  0  0  0  0  0  0  0  0  0  0
    0.1209    1.0908   -0.5264 H   0  0  0  0  0  0  0  0  0  0  0  0
   -0.1513    0.6259    2.4101 H   0  0  0  0  0  0  0  0  0  0  0  0
    0.0731    2.8397    2.2559 H   0  0  0  0  0  0  0  0  0  0  0  0
   -1.6346    2.5152    2.5687 H   0  0  0  0  0  0  0  0  0  0  0  0
   -0.4005    3.6305   -0.0252 H   0  0  0  0  0  0  0  0  0  0  0  0
   -2.5605    2.1079   -0.4708 H   0  0  0  0  0  0  0  0  0  0  0  0
   -3.4031    3.5115    0.4103 H   0  0  0  0  0  0  0  0  0  0  0  0
   -2.4070    3.7692   -1.0160 H   0  0  0  0  0  0  0  0  0  0  0  0
   -2.3367    4.6131    2.0553 H   0  0  0  0  0  0  0  0  0  0  0  0
   -0.5300    5.0266    1.9487 H   0  0  0  0  0  0  0  0  0  0  0  0
   -1.6828    5.5164    0.5960 H   0  0  0  0  0  0  0  0  0  0  0  0
   -3.1283    0.9777    2.7502 H   0  0  0  0  0  0  0  0  0  0  0  0
   -3.8331   -1.6275    1.3512 H   0  0  0  0  0  0  0  0  0  0  0  0
   -3.8073   -1.1532    3.9449 H   0  0  0  0  0  0  0  0  0  0  0  0
   -5.4264   -1.6924    3.3580 H   0  0  0  0  0  0  0  0  0  0  0  0
   -6.1083    0.3010    3.7173 H   0  0  0  0  0  0  0  0  0  0  0  0
   -6.0564   -1.7533    0.3411 H   0  0  0  0  0  0  0  0  0  0  0  0
   -7.0763    1.0368   -0.1542 H   0  0  0  0  0  0  0  0  0  0  0  0
   -5.6961   -0.0118   -2.0322 H   0  0  0  0  0  0  0  0  0  0  0  0
   -6.7692   -1.4136   -2.0033 H   0  0  0  0  0  0  0  0  0  0  0  0
   -8.5878   -0.0011   -3.0984 H   0  0  0  0  0  0  0  0  0  0  0  0
   -5.8143   -0.0724   -4.2218 H   0  0  0  0  0  0  0  0  0  0  0  0
   -7.2547   -1.1007   -4.6299 H   0  0  0  0  0  0  0  0  0  0  0  0
   -7.1799    0.6369   -5.1203 H   0  0  0  0  0  0  0  0  0  0  0  0
   -8.1321    2.2816   -2.2300 H   0  0  0  0  0  0  0  0  0  0  0  0
   -6.4646    2.1635   -3.0376 H   0  0  0  0  0  0  0  0  0  0  0  0
   -7.9489    2.1200   -3.9963 H   0  0  0  0  0  0  0  0  0  0  0  0
   -9.7073   -0.9564   -1.5762 H   0  0  0  0  0  0  0  0  0  0  0  0
  -10.5026   -1.1899    1.3443 H   0  0  0  0  0  0  0  0  0  0  0  0
  -12.8284   -1.1129    0.4436 H   0  0  0  0  0  0  0  0  0  0  0  0
  -11.9166    0.3487   -0.0260 H   0  0  0  0  0  0  0  0  0  0  0  0
  -12.1533   -2.0753   -1.5675 H   0  0  0  0  0  0  0  0  0  0  0  0
  -11.7287   -4.5393    1.0182 H   0  0  0  0  0  0  0  0  0  0  0  0
  1  2  1  0
  2  3  1  0
  3  4  1  0
  3  5  1  0
  5  6  1  0
  6  7  1  0
  7  8  2  0
  7  9  1  0
  9 10  1  0
 10 11  1  0
 11 12  2  0
 12 13  1  0
 13 14  2  0
 14 15  1  0
 15 16  2  0
  5 17  1  0
 17 18  2  0
 17 19  1  0
 19 20  1  0
 20 21  1  0
 21 22  1  0
 22 23  1  0
 23 24  1  0
 24 25  2  0
 24 26  1  0
 26 27  1  0
 27 28  1  0
 28 29  1  0
 29 30  1  0
 29 31  1  0
 27 32  1  0
 32 33  2  0
 32 34  1  0
 34 35  1  0
 35 36  1  0
 36 37  1  0
 35 38  1  0
 38 39  2  0
 38 40  1  0
 40 41  1  0
 41 42  1  0
 42 43  1  0
 43 44  1  0
 43 45  1  0
 41 46  1  0
 46 47  2  0
 46 48  1  0
 48 49  1  0
 49 50  1  0
 50 51  1  0
 49 52  1  0
 52 53  1  0
 52 54  2  0
 16 11  1  0
 23 19  1  0
  1 55  1  0
  1 56  1  0
  1 57  1  0
  2 58  1  0
  2 59  1  0
  3 60  1  6
  4 61  1  0
  4 62  1  0
  4 63  1  0
  5 64  1  6
  6 65  1  0
 10 66  1  0
 10 67  1  0
 12 68  1  0
 13 69  1  0
 14 70  1  0
 15 71  1  0
 16 72  1  0
 20 73  1  0
 20 74  1  0
 21 75  1  0
 21 76  1  0
 22 77  1  0
 22 78  1  0
 23 79  1  6
 26 80  1  0
 27 81  1  1
 28 82  1  0
 28 83  1  0
 29 84  1  0
 30 85  1  0
 30 86  1  0
 30 87  1  0
 31 88  1  0
 31 89  1  0
 31 90  1  0
 34 91  1  0
 35 92  1  6
 36 93  1  0
 36 94  1  0
 37 95  1  0
 40 96  1  0
 41 97  1  6
 42 98  1  0
 42 99  1  0
 43100  1  0
 44101  1  0
 44102  1  0
 44103  1  0
 45104  1  0
 45105  1  0
 45106  1  0
 48107  1  0
 49108  1  1
 50109  1  0
 50110  1  0
 51111  1  0
 53112  1  0
M  END
$$$$
[H]c1c([H])c([H])c2c(c1[H])c1c3c(c4c5c([H])c([H])c([H])c([H])c5n5c4c1n2[C@@]1(C([H])([H])[H])O[C@]5([H])C([H])([H])[C@@]([H])(N([H])C([H])([H])[H])[C@@]1([H])OC([H])([H])[H])C([H])([H])N([H])C3=O
     RDKit          3D

 61 68  0  0  0  0  0  0  0  0999 V2000
    4.6045    2.7034    0.2473 C   0  0  0  0  0  0  0  0  0  0  0  0
    4.1439    1.3532    0.4189 N   0  0  0  0  0  0  0  0  0  0  0  0
    3.0346    1.0168   -0.4174 C   0  0  2  0  0  0  0  0  0  0  0  0
    1.8051    1.8735   -0.1046 C   0  0  0  0  0  0  0  0  0  0  0  0
    0.8366    1.5499   -1.2298 C   0  0  1  0  0  0  0  0  0  0  0  0
    1.0893    0.3956   -1.8670 O   0  0  0  0  0  0  0  0  0  0  0  0
    1.4578   -0.7219   -1.1083 C   0  0  1  0  0  0  0  0  0  0  0  0
    2.0282   -1.6510   -2.1941 C   0  0  0  0  0  0  0  0  0  0  0  0
    2.5489   -0.4233   -0.1446 C   0  0  2  0  0  0  0  0  0  0  0  0
    2.2226   -0.4651    1.1858 O   0  0  0  0  0  0  0  0  0  0  0  0
    3.1388   -1.2103    1.9210 C   0  0  0  0  0  0  0  0  0  0  0  0
    0.2841   -1.3664   -0.4951 N   0  0  0  0  0  0  0  0  0  0  0  0
    0.1526   -2.6564   -0.1709 C   0  0  0  0  0  0  0  0  0  0  0  0
    1.0254   -3.7033   -0.2356 C   0  0  0  0  0  0  0  0  0  0  0  0
    0.6766   -4.9787    0.1758 C   0  0  0  0  0  0  0  0  0  0  0  0
   -0.5787   -5.2207    0.6680 C   0  0  0  0  0  0  0  0  0  0  0  0
   -1.4779   -4.1724    0.7432 C   0  0  0  0  0  0  0  0  0  0  0  0
   -1.1259   -2.9282    0.3377 C   0  0  0  0  0  0  0  0  0  0  0  0
   -1.7879   -1.7028    0.3133 C   0  0  0  0  0  0  0  0  0  0  0  0
   -3.0737   -1.3289    0.7013 C   0  0  0  0  0  0  0  0  0  0  0  0
   -4.2126   -2.0254    1.2472 C   0  0  0  0  0  0  0  0  0  0  0  0
   -4.4022   -3.2042    1.5500 O   0  0  0  0  0  0  0  0  0  0  0  0
   -5.2724   -1.0565    1.4323 N   0  0  0  0  0  0  0  0  0  0  0  0
   -4.8281    0.2358    1.0174 C   0  0  0  0  0  0  0  0  0  0  0  0
   -3.4230    0.0092    0.5586 C   0  0  0  0  0  0  0  0  0  0  0  0
   -2.5269    0.9258    0.0530 C   0  0  0  0  0  0  0  0  0  0  0  0
   -2.5706    2.2890   -0.1802 C   0  0  0  0  0  0  0  0  0  0  0  0
   -3.5421    3.2414   -0.0103 C   0  0  0  0  0  0  0  0  0  0  0  0
   -3.2903    4.5617   -0.3396 C   0  0  0  0  0  0  0  0  0  0  0  0
   -2.0546    4.9044   -0.8387 C   0  0  0  0  0  0  0  0  0  0  0  0
   -1.0568    3.9656   -1.0205 C   0  0  0  0  0  0  0  0  0  0  0  0
   -1.3436    2.6540   -0.6803 C   0  0  0  0  0  0  0  0  0  0  0  0
   -0.5556    1.5777   -0.7633 N   0  0  0  0  0  0  0  0  0  0  0  0
   -1.2568    0.5276   -0.3261 C   0  0  0  0  0  0  0  0  0  0  0  0
   -0.9019   -0.7953   -0.1918 C   0  0  0  0  0  0  0  0  0  0  0  0
    5.6621    2.7369    0.6307 H   0  0  0  0  0  0  0  0  0  0  0  0
    4.0426    3.4052    0.9117 H   0  0  0  0  0  0  0  0  0  0  0  0
    4.6034    3.0347   -0.7936 H   0  0  0  0  0  0  0  0  0  0  0  0
    4.9517    0.7307    0.1359 H   0  0  0  0  0  0  0  0  0  0  0  0
    3.2440    1.1594   -1.4957 H   0  0  0  0  0  0  0  0  0  0  0  0
    2.0304    2.9379   -0.0617 H   0  0  0  0  0  0  0  0  0  0  0  0
    1.3862    1.5324    0.8673 H   0  0  0  0  0  0  0  0  0  0  0  0
    0.9298    2.3884   -1.9504 H   0  0  0  0  0  0  0  0  0  0  0  0
    2.2342   -1.0687   -3.1546 H   0  0  0  0  0  0  0  0  0  0  0  0
    3.0506   -2.0095   -1.9376 H   0  0  0  0  0  0  0  0  0  0  0  0
    1.3207   -2.4167   -2.5195 H   0  0  0  0  0  0  0  0  0  0  0  0
    3.4833   -1.0381   -0.2915 H   0  0  0  0  0  0  0  0  0  0  0  0
    2.8815   -1.2531    2.9955 H   0  0  0  0  0  0  0  0  0  0  0  0
    3.1454   -2.2390    1.5163 H   0  0  0  0  0  0  0  0  0  0  0  0
    4.1968   -0.8496    1.7726 H   0  0  0  0  0  0  0  0  0  0  0  0
    2.0176   -3.5662   -0.5832 H   0  0  0  0  0  0  0  0  0  0  0  0
    1.4080   -5.7929    0.1065 H   0  0  0  0  0  0  0  0  0  0  0  0
   -0.8576   -6.2072    0.9892 H   0  0  0  0  0  0  0  0  0  0  0  0
   -2.4231   -4.4281    1.1312 H   0  0  0  0  0  0  0  0  0  0  0  0
   -6.2323   -1.2319    1.8091 H   0  0  0  0  0  0  0  0  0  0  0  0
   -5.4729    0.5895    0.1796 H   0  0  0  0  0  0  0  0  0  0  0  0
   -4.8832    0.9780    1.8274 H   0  0  0  0  0  0  0  0  0  0  0  0
   -4.5165    2.9446    0.3882 H   0  0  0  0  0  0  0  0  0  0  0  0
   -4.0525    5.3254   -0.2095 H   0  0  0  0  0  0  0  0  0  0  0  0
   -1.8436    5.9391   -1.1022 H   0  0  0  0  0  0  0  0  0  0  0  0
   -0.0743    4.2247   -1.4143 H   0  0  0  0  0  0  0  0  0  0  0  0
  1  2  1  0
  2  3  1  0
  3  4  1  0
  4  5  1  0
  5  6  1  0
  6  7  1  0
  7  8  1  6
  7  9  1  0
  9 10  1  0
 10 11  1  0
  7 12  1  0
 12 13  1  0
 13 14  2  0
 14 15  1  0
 15 16  2  0
 16 17  1  0
 17 18  2  0
 18 19  1  0
 19 20  2  0
 20 21  1  0
 21 22  2  0
 21 23  1  0
 23 24  1  0
 24 25  1  0
 25 26  2  0
 26 27  1  0
 27 28  2  0
 28 29  1  0
 29 30  2  0
 30 31  1  0
 31 32  2  0
 32 33  1  0
 33 34  1  0
 34 35  2  0
  9  3  1  0
 35 12  1  0
 33  5  1  0
 18 13  1  0
 35 19  1  0
 25 20  1  0
 34 26  1  0
 32 27  1  0
  1 36  1  0
  1 37  1  0
  1 38  1  0
  2 39  1  0
  3 40  1  6
  4 41  1  0
  4 42  1  0
  5 43  1  6
  8 44  1  0
  8 45  1  0
  8 46  1  0
  9 47  1  1
 11 48  1  0
 11 49  1  0
 11 50  1  0
 14 51  1  0
 15 52  1  0
 16 53  1  0
 17 54  1  0
 23 55  1  0
 24 56  1  0
 24 57  1  0
 28 58  1  0
 29 59  1  0
 30 60  1  0
 31 61  1  0
M  END
$$$$
[H]/C(C(=O)N([H])C([H])([H])C(=O)OC([H])([H])C([H])([H])[H])=C(/[H])c1sc([H])c([H])c1-c1c([H])c([H])c([H])c([H])c1[H]
     RDKit          3D

 39 40  0  0  0  0  0  0  0  0999 V2000
    5.9517    0.5479   -1.2401 C   0  0  0  0  0  0  0  0  0  0  0  0
    6.2011    0.2477    0.2164 C   0  0  0  0  0  0  0  0  0  0  0  0
    5.1448    0.7780    0.9758 O   0  0  0  0  0  0  0  0  0  0  0  0
    3.8502    0.3571    0.7644 C   0  0  0  0  0  0  0  0  0  0  0  0
    3.6179   -0.5005   -0.1081 O   0  0  0  0  0  0  0  0  0  0  0  0
    2.7686    0.9365    1.5814 C   0  0  0  0  0  0  0  0  0  0  0  0
    1.5061    0.3344    1.2541 N   0  0  0  0  0  0  0  0  0  0  0  0
    1.3125   -1.0450    1.4628 C   0  0  0  0  0  0  0  0  0  0  0  0
    2.1989   -1.8037    1.9373 O   0  0  0  0  0  0  0  0  0  0  0  0
    0.0327   -1.6499    1.1216 C   0  0  0  0  0  0  0  0  0  0  0  0
   -0.9946   -1.0015    0.6187 C   0  0  0  0  0  0  0  0  0  0  0  0
   -2.2395   -1.7422    0.3175 C   0  0  0  0  0  0  0  0  0  0  0  0
   -2.5407   -3.4251    0.5712 S   0  0  0  0  0  0  0  0  0  0  0  0
   -4.1432   -3.4988    0.0049 C   0  0  0  0  0  0  0  0  0  0  0  0
   -4.3967   -2.2102   -0.3657 C   0  0  0  0  0  0  0  0  0  0  0  0
   -3.4231   -1.3064   -0.2073 C   0  0  0  0  0  0  0  0  0  0  0  0
   -3.5745    0.1290   -0.5936 C   0  0  0  0  0  0  0  0  0  0  0  0
   -2.6600    0.7741   -1.3858 C   0  0  0  0  0  0  0  0  0  0  0  0
   -2.7894    2.1003   -1.7435 C   0  0  0  0  0  0  0  0  0  0  0  0
   -3.8937    2.7871   -1.2729 C   0  0  0  0  0  0  0  0  0  0  0  0
   -4.8045    2.1438   -0.4837 C   0  0  0  0  0  0  0  0  0  0  0  0
   -4.6623    0.8193   -0.1347 C   0  0  0  0  0  0  0  0  0  0  0  0
    6.9324    0.7516   -1.7159 H   0  0  0  0  0  0  0  0  0  0  0  0
    5.4978   -0.3342   -1.7386 H   0  0  0  0  0  0  0  0  0  0  0  0
    5.2529    1.3948   -1.3390 H   0  0  0  0  0  0  0  0  0  0  0  0
    7.1420    0.7789    0.5280 H   0  0  0  0  0  0  0  0  0  0  0  0
    6.3598   -0.8398    0.3842 H   0  0  0  0  0  0  0  0  0  0  0  0
    2.7488    2.0487    1.4896 H   0  0  0  0  0  0  0  0  0  0  0  0
    3.0484    0.7262    2.6568 H   0  0  0  0  0  0  0  0  0  0  0  0
    0.7789    0.9651    0.8687 H   0  0  0  0  0  0  0  0  0  0  0  0
   -0.1269   -2.7157    1.2788 H   0  0  0  0  0  0  0  0  0  0  0  0
   -0.9240    0.0410    0.4407 H   0  0  0  0  0  0  0  0  0  0  0  0
   -4.8286   -4.3622   -0.0576 H   0  0  0  0  0  0  0  0  0  0  0  0
   -5.3948   -1.9556   -0.7830 H   0  0  0  0  0  0  0  0  0  0  0  0
   -1.7976    0.2540   -1.7635 H   0  0  0  0  0  0  0  0  0  0  0  0
   -2.0660    2.5994   -2.3663 H   0  0  0  0  0  0  0  0  0  0  0  0
   -4.0162    3.8395   -1.5442 H   0  0  0  0  0  0  0  0  0  0  0  0
   -5.6696    2.7065   -0.1234 H   0  0  0  0  0  0  0  0  0  0  0  0
   -5.3997    0.3296    0.4940 H   0  0  0  0  0  0  0  0  0  0  0  0
  1  2  1  0
  2  3  1  0
  3  4  1  0
  4  5  2  0
  4  6  1  0
  6  7  1  0
  7  8  1  0
  8  9  2  0
  8 10  1  0
 10 11  2  0
 11 12  1  0
 12 13  1  0
 13 14  1  0
 14 15  2  0
 15 16  1  0
 16 17  1  0
 17 18  2  0
 18 19  1  0
 19 20  2  0
 20 21  1  0
 21 22  2  0
 16 12  2  0
 22 17  1  0
  1 23  1  0
  1 24  1  0
  1 25  1  0
  2 26  1  0
  2 27  1  0
  6 28  1  0
  6 29  1  0
  7 30  1  0
 10 31  1  0
 11 32  1  0
 14 33  1  0
 15 34  1  0
 18 35  1  0
 19 36  1  0
 20 37  1  0
 21 38  1  0
 22 39  1  0
M  END
$$$$
[H]c1nc(N2C([H])([H])C([H])([H])N(C([H])([H])[H])C([H])([H])C2([H])[H])c([H])c([H])c1-c1c([H])nc2c(c1[H])c([H])c([H])n2[H]
     RDKit          3D

 41 44  0  0  0  0  0  0  0  0999 V2000
   -5.8152    1.1259   -0.0773 C   0  0  0  0  0  0  0  0  0  0  0  0
   -5.3502   -0.2187    0.1986 N   0  0  0  0  0  0  0  0  0  0  0  0
   -4.5962   -0.2480    1.4265 C   0  0  0  0  0  0  0  0  0  0  0  0
   -3.2230    0.3696    1.1580 C   0  0  0  0  0  0  0  0  0  0  0  0
   -2.5383   -0.5489    0.2603 N   0  0  0  0  0  0  0  0  0  0  0  0
   -3.3659   -1.5055   -0.4466 C   0  0  0  0  0  0  0  0  0  0  0  0
   -4.6124   -0.7662   -0.9093 C   0  0  0  0  0  0  0  0  0  0  0  0
   -1.1303   -0.4921    0.1005 C   0  0  0  0  0  0  0  0  0  0  0  0
   -0.3808    0.4376    0.7840 C   0  0  0  0  0  0  0  0  0  0  0  0
    1.0099    0.4926    0.6256 C   0  0  0  0  0  0  0  0  0  0  0  0
    1.6414   -0.3914   -0.2229 C   0  0  0  0  0  0  0  0  0  0  0  0
    0.8450   -1.3146   -0.8938 C   0  0  0  0  0  0  0  0  0  0  0  0
   -0.4995   -1.3337   -0.7116 N   0  0  0  0  0  0  0  0  0  0  0  0
    3.1040   -0.3709   -0.4216 C   0  0  0  0  0  0  0  0  0  0  0  0
    3.7549   -1.5325   -0.6986 C   0  0  0  0  0  0  0  0  0  0  0  0
    5.0912   -1.5037   -0.8789 N   0  0  0  0  0  0  0  0  0  0  0  0
    5.7647   -0.3433   -0.7852 C   0  0  0  0  0  0  0  0  0  0  0  0
    7.0687   -0.0503   -0.9185 N   0  0  0  0  0  0  0  0  0  0  0  0
    7.2754    1.2746   -0.7337 C   0  0  0  0  0  0  0  0  0  0  0  0
    6.0528    1.8565   -0.4709 C   0  0  0  0  0  0  0  0  0  0  0  0
    5.1209    0.8602   -0.5024 C   0  0  0  0  0  0  0  0  0  0  0  0
    3.7627    0.8414   -0.3176 C   0  0  0  0  0  0  0  0  0  0  0  0
   -5.0545    1.7143   -0.6513 H   0  0  0  0  0  0  0  0  0  0  0  0
   -6.7036    1.0735   -0.7370 H   0  0  0  0  0  0  0  0  0  0  0  0
   -6.0171    1.6889    0.8496 H   0  0  0  0  0  0  0  0  0  0  0  0
   -4.4017   -1.2875    1.7456 H   0  0  0  0  0  0  0  0  0  0  0  0
   -5.0828    0.3558    2.2014 H   0  0  0  0  0  0  0  0  0  0  0  0
   -2.6546    0.4594    2.1262 H   0  0  0  0  0  0  0  0  0  0  0  0
   -3.2976    1.3334    0.6400 H   0  0  0  0  0  0  0  0  0  0  0  0
   -2.8792   -1.8951   -1.3636 H   0  0  0  0  0  0  0  0  0  0  0  0
   -3.6836   -2.3524    0.1618 H   0  0  0  0  0  0  0  0  0  0  0  0
   -4.3479    0.0557   -1.6251 H   0  0  0  0  0  0  0  0  0  0  0  0
   -5.2901   -1.4465   -1.4827 H   0  0  0  0  0  0  0  0  0  0  0  0
   -0.8552    1.1397    1.4537 H   0  0  0  0  0  0  0  0  0  0  0  0
    1.6179    1.2148    1.1526 H   0  0  0  0  0  0  0  0  0  0  0  0
    1.3621   -1.9974   -1.5537 H   0  0  0  0  0  0  0  0  0  0  0  0
    3.1881   -2.4541   -0.7684 H   0  0  0  0  0  0  0  0  0  0  0  0
    7.8168   -0.7405   -1.1330 H   0  0  0  0  0  0  0  0  0  0  0  0
    8.1954    1.8383   -0.7703 H   0  0  0  0  0  0  0  0  0  0  0  0
    5.8570    2.8951   -0.2767 H   0  0  0  0  0  0  0  0  0  0  0  0
    3.2505    1.7662   -0.0979 H   0  0  0  0  0  0  0  0  0  0  0  0
  1  2  1  0
  2  3  1  0
  3  4  1  0
  4  5  1  0
  5  6  1  0
  6  7  1  0
  5  8  1  0
  8  9  2  0
  9 10  1  0
 10 11  2  0
 11 12  1  0
 12 13  2  0
 11 14  1  0
 14 15  2  0
 15 16  1  0
 16 17  2  0
 17 18  1  0
 18 19  1  0
 19 20  2  0
 20 21  1  0
 21 22  2  0
  7  2  1  0
 13  8  1  0
 22 14  1  0
 21 17  1  0
  1 23  1  0
  1 24  1  0
  1 25  1  0
  3 26  1  0
  3 27  1  0
  4 28  1  0
  4 29  1  0
  6 30  1  0
  6 31  1  0
  7 32  1  0
  7 33  1  0
  9 34  1  0
 10 35  1  0
 12 36  1  0
 15 37  1  0
 18 38  1  0
 19 39  1  0
 20 40  1  0
 22 41  1  0
M  END
$$$$
[H]OC(=O)[C@@]([H])(N([H])C(=O)[C@]([H])(N([H])C(=O)[C@]([H])(N([H])C(=O)[C@]([H])(N([H])C(=O)[C@]([H])(N([H])C(=O)[C@]1([H])N([H])C(=O)[C@]2([H])N([H])C(=O)[C@@]([H])(C([H])(C([H])([H])[H])C([H])([H])[H])C([H])([H])C([H])=C([H])C([H])=C([H])C([H])=C([H])C(=C([H])C1([H])[H])C2([H])[H])C([H])([H])c1c([H])c([H])c([H])c([H])c1[H])C([H])([H])c1c([H])c([H])c([H])c([H])c1[H])C([H])([H])c1c([H])c([H])c([H])c([H])c1[H])C([H])([H])c1c([H])c([H])c([H])c([H])c1[H])C([H])([H])C([H])(C([H])([H])[H])C([H])([H])[H]
     RDKit          3D

151156  0  0  0  0  0  0  0  0999 V2000
  -14.2980   -0.6073    3.2281 C   0  0  0  0  0  0  0  0  0  0  0  0
  -14.1610   -0.4013    1.7648 C   0  0  0  0  0  0  0  0  0  0  0  0
  -14.5552    1.0038    1.3292 C   0  0  0  0  0  0  0  0  0  0  0  0
  -12.8672   -0.7423    1.1351 C   0  0  0  0  0  0  0  0  0  0  0  0
  -11.6412   -0.0370    1.5665 C   0  0  2  0  0  0  0  0  0  0  0  0
  -10.5123   -0.5793    0.7559 N   0  0  0  0  0  0  0  0  0  0  0  0
   -9.5143    0.2627    0.2053 C   0  0  0  0  0  0  0  0  0  0  0  0
   -9.6536    1.5127    0.4633 O   0  0  0  0  0  0  0  0  0  0  0  0
   -8.3932   -0.2045   -0.5952 C   0  0  1  0  0  0  0  0  0  0  0  0
   -8.6713    0.0444   -2.0733 C   0  0  0  0  0  0  0  0  0  0  0  0
   -9.8881   -0.6670   -2.5113 C   0  0  0  0  0  0  0  0  0  0  0  0
   -9.8688   -1.9843   -2.9334 C   0  0  0  0  0  0  0  0  0  0  0  0
  -11.0356   -2.5758   -3.3688 C   0  0  0  0  0  0  0  0  0  0  0  0
  -12.2261   -1.8777   -3.3922 C   0  0  0  0  0  0  0  0  0  0  0  0
  -12.2303   -0.5706   -2.9700 C   0  0  0  0  0  0  0  0  0  0  0  0
  -11.0717    0.0312   -2.5322 C   0  0  0  0  0  0  0  0  0  0  0  0
   -7.2016    0.5565   -0.2117 N   0  0  0  0  0  0  0  0  0  0  0  0
   -5.9254   -0.0610   -0.1727 C   0  0  0  0  0  0  0  0  0  0  0  0
   -5.9066   -1.2992   -0.4990 O   0  0  0  0  0  0  0  0  0  0  0  0
   -4.7148    0.6587    0.2074 C   0  0  1  0  0  0  0  0  0  0  0  0
   -4.7169    1.0715    1.6744 C   0  0  0  0  0  0  0  0  0  0  0  0
   -4.7915   -0.0563    2.6080 C   0  0  0  0  0  0  0  0  0  0  0  0
   -5.9758   -0.5665    3.0561 C   0  0  0  0  0  0  0  0  0  0  0  0
   -5.9612   -1.6304    3.9376 C   0  0  0  0  0  0  0  0  0  0  0  0
   -4.7795   -2.1875    4.3744 C   0  0  0  0  0  0  0  0  0  0  0  0
   -3.5728   -1.6909    3.9371 C   0  0  0  0  0  0  0  0  0  0  0  0
   -3.6123   -0.6263    3.0553 C   0  0  0  0  0  0  0  0  0  0  0  0
   -3.5153   -0.1314   -0.0211 N   0  0  0  0  0  0  0  0  0  0  0  0
   -2.3123    0.4333   -0.4852 C   0  0  0  0  0  0  0  0  0  0  0  0
   -2.3193    1.6874   -0.6719 O   0  0  0  0  0  0  0  0  0  0  0  0
   -1.0653   -0.2947   -0.7702 C   0  0  1  0  0  0  0  0  0  0  0  0
   -1.3629   -1.1066   -2.0289 C   0  0  0  0  0  0  0  0  0  0  0  0
   -0.2572   -1.9113   -2.4963 C   0  0  0  0  0  0  0  0  0  0  0  0
    0.6357   -1.3664   -3.4044 C   0  0  0  0  0  0  0  0  0  0  0  0
    1.7085   -2.0877   -3.8855 C   0  0  0  0  0  0  0  0  0  0  0  0
    1.9279   -3.3845   -3.4731 C   0  0  0  0  0  0  0  0  0  0  0  0
    1.0523   -3.9473   -2.5696 C   0  0  0  0  0  0  0  0  0  0  0  0
   -0.0308   -3.2014   -2.0926 C   0  0  0  0  0  0  0  0  0  0  0  0
   -0.0197    0.6924   -1.0669 N   0  0  0  0  0  0  0  0  0  0  0  0
    1.3245    0.4714   -0.5892 C   0  0  0  0  0  0  0  0  0  0  0  0
    1.6131   -0.5563    0.0468 O   0  0  0  0  0  0  0  0  0  0  0  0
    2.3763    1.4885   -0.8616 C   0  0  1  0  0  0  0  0  0  0  0  0
    2.3538    2.5472    0.2265 C   0  0  0  0  0  0  0  0  0  0  0  0
    3.3422    3.6232    0.0459 C   0  0  0  0  0  0  0  0  0  0  0  0
    3.0368    4.7199   -0.7759 C   0  0  0  0  0  0  0  0  0  0  0  0
    3.9074    5.7703   -0.9591 C   0  0  0  0  0  0  0  0  0  0  0  0
    5.1400    5.7887   -0.3294 C   0  0  0  0  0  0  0  0  0  0  0  0
    5.4640    4.7228    0.4839 C   0  0  0  0  0  0  0  0  0  0  0  0
    4.5712    3.6710    0.6562 C   0  0  0  0  0  0  0  0  0  0  0  0
    3.6286    0.8811   -1.1022 N   0  0  0  0  0  0  0  0  0  0  0  0
    4.4801    0.2015   -0.2191 C   0  0  0  0  0  0  0  0  0  0  0  0
    4.1483    0.0720    0.9832 O   0  0  0  0  0  0  0  0  0  0  0  0
    5.8015   -0.3827   -0.6932 C   0  0  1  0  0  0  0  0  0  0  0  0
    6.5909    0.8241   -1.1255 C   0  0  0  0  0  0  0  0  0  0  0  0
    7.8219    0.5892   -1.8498 C   0  0  0  0  0  0  0  0  0  0  0  0
    6.3675   -1.0773    0.4135 N   0  0  0  0  0  0  0  0  0  0  0  0
    7.6294   -1.4905    0.9171 C   0  0  0  0  0  0  0  0  0  0  0  0
    7.5773   -2.2855    1.8861 O   0  0  0  0  0  0  0  0  0  0  0  0
    9.0211   -1.1168    0.4614 C   0  0  1  0  0  0  0  0  0  0  0  0
    9.1051   -1.4088   -0.9988 C   0  0  0  0  0  0  0  0  0  0  0  0
    8.8858   -0.2517   -1.8914 C   0  0  0  0  0  0  0  0  0  0  0  0
    9.7393    0.1679   -2.9574 C   0  0  0  0  0  0  0  0  0  0  0  0
   10.8821   -0.2799   -3.4318 C   0  0  0  0  0  0  0  0  0  0  0  0
   11.7509   -1.3498   -3.0970 C   0  0  0  0  0  0  0  0  0  0  0  0
   12.8511   -1.4531   -2.3432 C   0  0  0  0  0  0  0  0  0  0  0  0
   13.5509   -0.4591   -1.5839 C   0  0  0  0  0  0  0  0  0  0  0  0
    9.3263    0.2146    0.8821 N   0  0  0  0  0  0  0  0  0  0  0  0
   10.4934    0.9597    0.8112 C   0  0  0  0  0  0  0  0  0  0  0  0
   10.4004    2.0876    0.1806 O   0  0  0  0  0  0  0  0  0  0  0  0
   11.8412    0.6792    1.3424 C   0  0  2  0  0  0  0  0  0  0  0  0
   12.5106   -0.5125    0.7096 C   0  0  0  0  0  0  0  0  0  0  0  0
   13.4546   -0.0380   -0.3545 C   0  0  0  0  0  0  0  0  0  0  0  0
   11.8870    0.6270    2.8529 C   0  0  0  0  0  0  0  0  0  0  0  0
   10.9934   -0.4368    3.4517 C   0  0  0  0  0  0  0  0  0  0  0  0
   11.5712    1.9930    3.4646 C   0  0  0  0  0  0  0  0  0  0  0  0
  -11.2161   -0.3045    2.9699 C   0  0  0  0  0  0  0  0  0  0  0  0
  -11.5311    0.5994    3.9521 O   0  0  0  0  0  0  0  0  0  0  0  0
  -10.5771   -1.3372    3.2443 O   0  0  0  0  0  0  0  0  0  0  0  0
  -14.3359    0.3516    3.7964 H   0  0  0  0  0  0  0  0  0  0  0  0
  -15.3178   -1.0643    3.4206 H   0  0  0  0  0  0  0  0  0  0  0  0
  -13.5878   -1.3485    3.5857 H   0  0  0  0  0  0  0  0  0  0  0  0
  -14.9337   -1.0681    1.2644 H   0  0  0  0  0  0  0  0  0  0  0  0
  -14.0172    1.7798    1.8788 H   0  0  0  0  0  0  0  0  0  0  0  0
  -15.6697    1.0920    1.3940 H   0  0  0  0  0  0  0  0  0  0  0  0
  -14.3254    1.0965    0.2466 H   0  0  0  0  0  0  0  0  0  0  0  0
  -12.6386   -1.8585    1.2407 H   0  0  0  0  0  0  0  0  0  0  0  0
  -12.9882   -0.5296    0.0263 H   0  0  0  0  0  0  0  0  0  0  0  0
  -11.6798    1.0523    1.4081 H   0  0  0  0  0  0  0  0  0  0  0  0
  -10.4387   -1.6024    0.5825 H   0  0  0  0  0  0  0  0  0  0  0  0
   -8.1716   -1.2571   -0.4750 H   0  0  0  0  0  0  0  0  0  0  0  0
   -7.7809   -0.2268   -2.6913 H   0  0  0  0  0  0  0  0  0  0  0  0
   -8.8233    1.1284   -2.2506 H   0  0  0  0  0  0  0  0  0  0  0  0
   -8.9285   -2.5125   -2.9048 H   0  0  0  0  0  0  0  0  0  0  0  0
  -11.0176   -3.5929   -3.6941 H   0  0  0  0  0  0  0  0  0  0  0  0
  -13.1354   -2.3715   -3.7415 H   0  0  0  0  0  0  0  0  0  0  0  0
  -13.1644   -0.0013   -2.9845 H   0  0  0  0  0  0  0  0  0  0  0  0
  -11.1231    1.0777   -2.2022 H   0  0  0  0  0  0  0  0  0  0  0  0
   -7.2647    1.5630    0.0324 H   0  0  0  0  0  0  0  0  0  0  0  0
   -4.6167    1.5957   -0.3563 H   0  0  0  0  0  0  0  0  0  0  0  0
   -5.5946    1.7276    1.8629 H   0  0  0  0  0  0  0  0  0  0  0  0
   -3.8120    1.6947    1.8231 H   0  0  0  0  0  0  0  0  0  0  0  0
   -6.9369   -0.1526    2.7348 H   0  0  0  0  0  0  0  0  0  0  0  0
   -6.8829   -2.0570    4.3148 H   0  0  0  0  0  0  0  0  0  0  0  0
   -4.7635   -3.0318    5.0694 H   0  0  0  0  0  0  0  0  0  0  0  0
   -2.6483   -2.1184    4.2715 H   0  0  0  0  0  0  0  0  0  0  0  0
   -2.6625   -0.2478    2.7143 H   0  0  0  0  0  0  0  0  0  0  0  0
   -3.5541   -1.1523    0.1683 H   0  0  0  0  0  0  0  0  0  0  0  0
   -0.7960   -0.9308    0.0623 H   0  0  0  0  0  0  0  0  0  0  0  0
   -1.7753   -0.3955   -2.7651 H   0  0  0  0  0  0  0  0  0  0  0  0
   -2.2159   -1.7766   -1.7580 H   0  0  0  0  0  0  0  0  0  0  0  0
    0.4878   -0.3440   -3.7537 H   0  0  0  0  0  0  0  0  0  0  0  0
    2.4072   -1.6714   -4.6021 H   0  0  0  0  0  0  0  0  0  0  0  0
    2.7665   -3.9898   -3.8305 H   0  0  0  0  0  0  0  0  0  0  0  0
    1.1957   -4.9628   -2.2256 H   0  0  0  0  0  0  0  0  0  0  0  0
   -0.7263   -3.6271   -1.3845 H   0  0  0  0  0  0  0  0  0  0  0  0
   -0.1771    1.5605   -1.6083 H   0  0  0  0  0  0  0  0  0  0  0  0
    2.0366    2.0501   -1.7899 H   0  0  0  0  0  0  0  0  0  0  0  0
    1.3586    3.0382    0.2904 H   0  0  0  0  0  0  0  0  0  0  0  0
    2.5495    2.1069    1.2270 H   0  0  0  0  0  0  0  0  0  0  0  0
    2.0853    4.7175   -1.2694 H   0  0  0  0  0  0  0  0  0  0  0  0
    3.6466    6.6139   -1.6047 H   0  0  0  0  0  0  0  0  0  0  0  0
    5.8312    6.6068   -0.4655 H   0  0  0  0  0  0  0  0  0  0  0  0
    6.4185    4.7132    0.9865 H   0  0  0  0  0  0  0  0  0  0  0  0
    4.8568    2.8499    1.3137 H   0  0  0  0  0  0  0  0  0  0  0  0
    4.0010    0.9361   -2.1134 H   0  0  0  0  0  0  0  0  0  0  0  0
    5.5555   -1.0351   -1.5371 H   0  0  0  0  0  0  0  0  0  0  0  0
    6.7396    1.4396   -0.1867 H   0  0  0  0  0  0  0  0  0  0  0  0
    5.9092    1.4437   -1.7442 H   0  0  0  0  0  0  0  0  0  0  0  0
    7.9642    1.3266   -2.6276 H   0  0  0  0  0  0  0  0  0  0  0  0
    5.6292   -1.3904    1.0831 H   0  0  0  0  0  0  0  0  0  0  0  0
    9.6674   -1.8305    1.0052 H   0  0  0  0  0  0  0  0  0  0  0  0
    8.2591   -2.1212   -1.2488 H   0  0  0  0  0  0  0  0  0  0  0  0
    9.9982   -1.9900   -1.1965 H   0  0  0  0  0  0  0  0  0  0  0  0
    9.3492    1.0798   -3.5006 H   0  0  0  0  0  0  0  0  0  0  0  0
   11.2276    0.3156   -4.3601 H   0  0  0  0  0  0  0  0  0  0  0  0
   11.4917   -2.3412   -3.5843 H   0  0  0  0  0  0  0  0  0  0  0  0
   13.3294   -2.4868   -2.3242 H   0  0  0  0  0  0  0  0  0  0  0  0
   14.3975    0.0682   -2.1403 H   0  0  0  0  0  0  0  0  0  0  0  0
    8.5053    0.7442    1.3417 H   0  0  0  0  0  0  0  0  0  0  0  0
   12.5483    1.5381    1.1108 H   0  0  0  0  0  0  0  0  0  0  0  0
   13.0953   -0.9962    1.5438 H   0  0  0  0  0  0  0  0  0  0  0  0
   11.8606   -1.2885    0.3302 H   0  0  0  0  0  0  0  0  0  0  0  0
   14.1477    0.7819   -0.0431 H   0  0  0  0  0  0  0  0  0  0  0  0
   12.9118    0.3847    3.2044 H   0  0  0  0  0  0  0  0  0  0  0  0
   11.0281   -1.3827    2.9171 H   0  0  0  0  0  0  0  0  0  0  0  0
   11.1570   -0.5353    4.5457 H   0  0  0  0  0  0  0  0  0  0  0  0
    9.9460   -0.0471    3.3669 H   0  0  0  0  0  0  0  0  0  0  0  0
   12.2746    2.2363    4.3052 H   0  0  0  0  0  0  0  0  0  0  0  0
   10.5537    1.9854    3.9545 H   0  0  0  0  0  0  0  0  0  0  0  0
   11.6746    2.7965    2.7257 H   0  0  0  0  0  0  0  0  0  0  0  0
  -11.1676    1.5396    3.9227 H   0  0  0  0  0  0  0  0  0  0  0  0
  1  2  1  0
  2  3  1  0
  2  4  1  0
  4  5  1  0
  5  6  1  0
  6  7  1  0
  7  8  2  0
  7  9  1  0
  9 10  1  0
 10 11  1  0
 11 12  2  0
 12 13  1  0
 13 14  2  0
 14 15  1  0
 15 16  2  0
  9 17  1  0
 17 18  1  0
 18 19  2  0
 18 20  1  0
 20 21  1  0
 21 22  1  0
 22 23  2  0
 23 24  1  0
 24 25  2  0
 25 26  1  0
 26 27  2  0
 20 28  1  0
 28 29  1  0
 29 30  2  0
 29 31  1  0
 31 32  1  0
 32 33  1  0
 33 34  2  0
 34 35  1  0
 35 36  2  0
 36 37  1  0
 37 38  2  0
 31 39  1  0
 39 40  1  0
 40 41  2  0
 40 42  1  0
 42 43  1  0
 43 44  1  0
 44 45  2  0
 45 46  1  0
 46 47  2  0
 47 48  1  0
 48 49  2  0
 42 50  1  0
 50 51  1  0
 51 52  2  0
 51 53  1  0
 53 54  1  0
 54 55  1  0
 53 56  1  0
 56 57  1  0
 57 58  2  0
 57 59  1  0
 59 60  1  0
 60 61  1  0
 61 62  1  0
 62 63  2  0
 63 64  1  0
 64 65  2  0
 65 66  1  0
 59 67  1  0
 67 68  1  0
 68 69  2  0
 68 70  1  0
 70 71  1  0
 71 72  1  0
 70 73  1  0
 73 74  1  0
 73 75  1  0
  5 76  1  0
 76 77  1  0
 76 78  2  0
 16 11  1  0
 27 22  1  0
 38 33  1  0
 49 44  1  0
 61 55  2  0
 72 66  2  0
  1 79  1  0
  1 80  1  0
  1 81  1  0
  2 82  1  0
  3 83  1  0
  3 84  1  0
  3 85  1  0
  4 86  1  0
  4 87  1  0
  5 88  1  1
  6 89  1  0
  9 90  1  6
 10 91  1  0
 10 92  1  0
 12 93  1  0
 13 94  1  0
 14 95  1  0
 15 96  1  0
 16 97  1  0
 17 98  1  0
 20 99  1  6
 21100  1  0
 21101  1  0
 23102  1  0
 24103  1  0
 25104  1  0
 26105  1  0
 27106  1  0
 28107  1  0
 31108  1  1
 32109  1  0
 32110  1  0
 34111  1  0
 35112  1  0
 36113  1  0
 37114  1  0
 38115  1  0
 39116  1  0
 42117  1  6
 43118  1  0
 43119  1  0
 45120  1  0
 46121  1  0
 47122  1  0
 48123  1  0
 49124  1  0
 50125  1  0
 53126  1  6
 54127  1  0
 54128  1  0
 55129  1  0
 56130  1  0
 59131  1  1
 60132  1  0
 60133  1  0
 62134  1  0
 63135  1  0
 64136  1  0
 65137  1  0
 66138  1  0
 67139  1  0
 70140  1  6
 71141  1  0
 71142  1  0
 72143  1  0
 73144  1  0
 74145  1  0
 74146  1  0
 74147  1  0
 75148  1  0
 75149  1  0
 75150  1  0
 77151  1  0
M  END
$$$$
[H]O[C@@]1([H])C([H])([H])N(S(=O)(=O)c2c([H])c([H])c(OC([H])([H])[H])c([H])c2[H])[C@]([H])(O[H])[C@@]([H])(O[H])[C@]1([H])O[H]
     RDKit          3D

 38 39  0  0  0  0  0  0  0  0999 V2000
    6.1395    0.3487    1.6476 C   0  0  0  0  0  0  0  0  0  0  0  0
    5.0398    1.2550    1.6359 O   0  0  0  0  0  0  0  0  0  0  0  0
    3.8614    0.9650    0.9385 C   0  0  0  0  0  0  0  0  0  0  0  0
    3.7169   -0.1956    0.2419 C   0  0  0  0  0  0  0  0  0  0  0  0
    2.5334   -0.4376   -0.4317 C   0  0  0  0  0  0  0  0  0  0  0  0
    1.5331    0.5196   -0.3703 C   0  0  0  0  0  0  0  0  0  0  0  0
    1.6670    1.6958    0.3299 C   0  0  0  0  0  0  0  0  0  0  0  0
    2.8685    1.9280    1.0065 C   0  0  0  0  0  0  0  0  0  0  0  0
    0.0488    0.2002   -1.2311 S   0  0  0  0  0  0  0  0  0  0  0  0
   -0.5558    1.5524   -1.5860 O   0  0  0  0  0  0  0  0  0  0  0  0
    0.3477   -0.4598   -2.5478 O   0  0  0  0  0  0  0  0  0  0  0  0
   -1.0691   -0.6688   -0.2966 N   0  0  0  0  0  0  0  0  0  0  0  0
   -1.4496    0.0453    0.8583 C   0  0  0  0  0  0  0  0  0  0  0  0
   -2.8188    0.6771    0.5642 C   0  0  2  0  0  0  0  0  0  0  0  0
   -3.1343    1.6114    1.5153 O   0  0  0  0  0  0  0  0  0  0  0  0
   -3.7601   -0.5334    0.6101 C   0  0  1  0  0  0  0  0  0  0  0  0
   -5.0654   -0.0781    0.5760 O   0  0  0  0  0  0  0  0  0  0  0  0
   -3.4291   -1.3727   -0.5844 C   0  0  2  0  0  0  0  0  0  0  0  0
   -3.9346   -2.6671   -0.3089 O   0  0  0  0  0  0  0  0  0  0  0  0
   -2.0220   -1.4280   -0.9871 C   0  0  1  0  0  0  0  0  0  0  0  0
   -1.9393   -1.0830   -2.3596 O   0  0  0  0  0  0  0  0  0  0  0  0
    6.8773    0.7764    2.3628 H   0  0  0  0  0  0  0  0  0  0  0  0
    5.7564   -0.6383    1.9491 H   0  0  0  0  0  0  0  0  0  0  0  0
    6.5526    0.2871    0.6064 H   0  0  0  0  0  0  0  0  0  0  0  0
    4.5461   -0.9204    0.2283 H   0  0  0  0  0  0  0  0  0  0  0  0
    2.3944   -1.3532   -0.9927 H   0  0  0  0  0  0  0  0  0  0  0  0
    0.8923    2.4456    0.3807 H   0  0  0  0  0  0  0  0  0  0  0  0
    3.0013    2.8510    1.5686 H   0  0  0  0  0  0  0  0  0  0  0  0
   -1.6225   -0.5848    1.7600 H   0  0  0  0  0  0  0  0  0  0  0  0
   -0.7384    0.8435    1.0868 H   0  0  0  0  0  0  0  0  0  0  0  0
   -2.8373    1.0461   -0.4755 H   0  0  0  0  0  0  0  0  0  0  0  0
   -3.6721    2.3184    1.1100 H   0  0  0  0  0  0  0  0  0  0  0  0
   -3.5628   -1.0608    1.5649 H   0  0  0  0  0  0  0  0  0  0  0  0
   -5.0669    0.7935    1.0818 H   0  0  0  0  0  0  0  0  0  0  0  0
   -4.0993   -1.0038   -1.4171 H   0  0  0  0  0  0  0  0  0  0  0  0
   -3.1714   -3.2934   -0.3301 H   0  0  0  0  0  0  0  0  0  0  0  0
   -1.6778   -2.5057   -0.9738 H   0  0  0  0  0  0  0  0  0  0  0  0
   -2.1498   -1.8756   -2.9325 H   0  0  0  0  0  0  0  0  0  0  0  0
  1  2  1  0
  2  3  1  0
  3  4  2  0
  4  5  1  0
  5  6  2  0
  6  7  1  0
  7  8  2  0
  6  9  1  0
  9 10  2  0
  9 11  2  0
  9 12  1  0
 12 13  1  0
 13 14  1  0
 14 15  1  0
 14 16  1  0
 16 17  1  0
 16 18  1  0
 18 19  1  0
 18 20  1  0
 20 21  1  0
  8  3  1  0
 20 12  1  0
  1 22  1  0
  1 23  1  0
  1 24  1  0
  4 25  1  0
  5 26  1  0
  7 27  1  0
  8 28  1  0
 13 29  1  0
 13 30  1  0
 14 31  1  6
 15 32  1  0
 16 33  1  1
 17 34  1  0
 18 35  1  6
 19 36  1  0
 20 37  1  6
 21 38  1  0
M  END
$$$$
[H]c1nc([H])c(-c2c(OC([H])([H])C3([H])C([H])([H])OC([H])([H])C3([H])[H])nc3sc(N([H])C(=O)N([H])C([H])([H])C([H])([H])[H])nc3c2[H])c([H])c1[H]
     RDKit          3D

 49 52  0  0  0  0  0  0  0  0999 V2000
    8.1217    0.1396   -0.1909 C   0  0  0  0  0  0  0  0  0  0  0  0
    8.0189   -0.6991    1.0827 C   0  0  0  0  0  0  0  0  0  0  0  0
    6.9433   -1.6471    0.9498 N   0  0  0  0  0  0  0  0  0  0  0  0
    5.5992   -1.2533    0.7331 C   0  0  0  0  0  0  0  0  0  0  0  0
    5.3808   -0.0022    0.6598 O   0  0  0  0  0  0  0  0  0  0  0  0
    4.5461   -2.1958    0.6035 N   0  0  0  0  0  0  0  0  0  0  0  0
    3.2105   -1.7728    0.3871 C   0  0  0  0  0  0  0  0  0  0  0  0
    2.7552   -0.5373    0.2784 N   0  0  0  0  0  0  0  0  0  0  0  0
    1.4896   -0.3278    0.0795 C   0  0  0  0  0  0  0  0  0  0  0  0
    0.8614    0.9251   -0.0561 C   0  0  0  0  0  0  0  0  0  0  0  0
   -0.4856    0.9724   -0.2621 C   0  0  0  0  0  0  0  0  0  0  0  0
   -1.1369    2.2913   -0.4056 C   0  0  0  0  0  0  0  0  0  0  0  0
   -2.0536    2.5665   -1.3971 C   0  0  0  0  0  0  0  0  0  0  0  0
   -2.6189    3.8269   -1.4607 C   0  0  0  0  0  0  0  0  0  0  0  0
   -2.2705    4.7940   -0.5456 C   0  0  0  0  0  0  0  0  0  0  0  0
   -1.3813    4.4922    0.3987 N   0  0  0  0  0  0  0  0  0  0  0  0
   -0.8147    3.2901    0.4932 C   0  0  0  0  0  0  0  0  0  0  0  0
   -1.3071   -0.1259   -0.3516 C   0  0  0  0  0  0  0  0  0  0  0  0
   -2.6733   -0.0691   -0.5605 O   0  0  0  0  0  0  0  0  0  0  0  0
   -3.4583   -1.2259   -0.6426 C   0  0  0  0  0  0  0  0  0  0  0  0
   -4.8960   -0.8370   -0.8730 C   0  0  0  0  0  0  0  0  0  0  0  0
   -5.8107   -2.0242   -0.9738 C   0  0  0  0  0  0  0  0  0  0  0  0
   -6.7012   -1.8823    0.2640 C   0  0  0  0  0  0  0  0  0  0  0  0
   -6.7620   -0.5127    0.4145 O   0  0  0  0  0  0  0  0  0  0  0  0
   -5.4094   -0.1448    0.3754 C   0  0  0  0  0  0  0  0  0  0  0  0
   -0.6841   -1.3245   -0.2186 N   0  0  0  0  0  0  0  0  0  0  0  0
    0.6645   -1.4155   -0.0109 C   0  0  0  0  0  0  0  0  0  0  0  0
    1.7906   -2.6995    0.2012 S   0  0  0  0  0  0  0  0  0  0  0  0
    9.1909    0.4207   -0.2991 H   0  0  0  0  0  0  0  0  0  0  0  0
    7.8457   -0.4406   -1.0827 H   0  0  0  0  0  0  0  0  0  0  0  0
    7.5063    1.0396   -0.0276 H   0  0  0  0  0  0  0  0  0  0  0  0
    8.9853   -1.2147    1.2453 H   0  0  0  0  0  0  0  0  0  0  0  0
    7.8768   -0.0054    1.9354 H   0  0  0  0  0  0  0  0  0  0  0  0
    7.1560   -2.6586    1.0145 H   0  0  0  0  0  0  0  0  0  0  0  0
    4.7483   -3.2008    0.6664 H   0  0  0  0  0  0  0  0  0  0  0  0
    1.4140    1.8504   -0.0019 H   0  0  0  0  0  0  0  0  0  0  0  0
   -2.3178    1.8032   -2.1085 H   0  0  0  0  0  0  0  0  0  0  0  0
   -3.3406    4.0826   -2.2217 H   0  0  0  0  0  0  0  0  0  0  0  0
   -2.7190    5.7976   -0.5941 H   0  0  0  0  0  0  0  0  0  0  0  0
   -0.0953    3.0556    1.2621 H   0  0  0  0  0  0  0  0  0  0  0  0
   -3.0731   -1.8337   -1.4980 H   0  0  0  0  0  0  0  0  0  0  0  0
   -3.3345   -1.8335    0.2618 H   0  0  0  0  0  0  0  0  0  0  0  0
   -4.9401   -0.1655   -1.7522 H   0  0  0  0  0  0  0  0  0  0  0  0
   -6.4297   -2.0285   -1.8913 H   0  0  0  0  0  0  0  0  0  0  0  0
   -5.2947   -2.9885   -0.8959 H   0  0  0  0  0  0  0  0  0  0  0  0
   -6.2377   -2.3870    1.1133 H   0  0  0  0  0  0  0  0  0  0  0  0
   -7.7023   -2.3370    0.0843 H   0  0  0  0  0  0  0  0  0  0  0  0
   -4.8574   -0.5049    1.2650 H   0  0  0  0  0  0  0  0  0  0  0  0
   -5.2994    0.9475    0.2113 H   0  0  0  0  0  0  0  0  0  0  0  0
  1  2  1  0
  2  3  1  0
  3  4  1  0
  4  5  2  0
  4  6  1  0
  6  7  1  0
  7  8  2  0
  8  9  1  0
  9 10  2  0
 10 11  1  0
 11 12  1  0
 12 13  2  0
 13 14  1  0
 14 15  2  0
 15 16  1  0
 16 17  2  0
 11 18  2  0
 18 19  1  0
 19 20  1  0
 20 21  1  0
 21 22  1  0
 22 23  1  0
 23 24  1  0
 24 25  1  0
 18 26  1  0
 26 27  2  0
 27 28  1  0
 28  7  1  0
 27  9  1  0
 17 12  1  0
 25 21  1  0
  1 29  1  0
  1 30  1  0
  1 31  1  0
  2 32  1  0
  2 33  1  0
  3 34  1  0
  6 35  1  0
 10 36  1  0
 13 37  1  0
 14 38  1  0
 15 39  1  0
 17 40  1  0
 20 41  1  0
 20 42  1  0
 21 43  1  0
 22 44  1  0
 22 45  1  0
 23 46  1  0
 23 47  1  0
 25 48  1  0
 25 49  1  0
M  END
$$$$
[H]/C(C(=O)N1C([H])([H])c2c(nc(C([H])([H])[H])c([H])c2[H])C([H])([H])C1([H])[H])=C(/[H])c1c([H])nc2c(c1[H])C([H])([H])C([H])([H])C(=O)N2[H]
     RDKit          3D

 46 49  0  0  0  0  0  0  0  0999 V2000
    2.0308    1.3818    0.5762 N   0  0  0  0  0  0  0  0  0  0  0  0
    0.6667    1.5516    0.9071 C   0  0  0  0  0  0  0  0  0  0  0  0
   -0.3822    0.7110    0.3492 C   0  0  0  0  0  0  0  0  0  0  0  0
   -1.6460    0.8719    0.6593 C   0  0  0  0  0  0  0  0  0  0  0  0
   -2.7591    0.0828    0.1534 C   0  0  0  0  0  0  0  0  0  0  0  0
   -4.0451    0.3596    0.5640 C   0  0  0  0  0  0  0  0  0  0  0  0
   -5.1478   -0.3718    0.1052 C   0  0  0  0  0  0  0  0  0  0  0  0
   -4.9416   -1.3965   -0.7807 C   0  0  0  0  0  0  0  0  0  0  0  0
   -3.6778   -1.6692   -1.1850 N   0  0  0  0  0  0  0  0  0  0  0  0
   -2.6294   -0.9597   -0.7372 C   0  0  0  0  0  0  0  0  0  0  0  0
   -6.0334   -2.1729   -1.2677 N   0  0  0  0  0  0  0  0  0  0  0  0
   -7.3325   -1.8564   -0.8106 C   0  0  0  0  0  0  0  0  0  0  0  0
   -8.3332   -2.2650   -1.4384 O   0  0  0  0  0  0  0  0  0  0  0  0
   -7.5439   -1.0391    0.4143 C   0  0  0  0  0  0  0  0  0  0  0  0
   -6.4967    0.0007    0.5959 C   0  0  0  0  0  0  0  0  0  0  0  0
    0.3424    2.4535    1.7062 O   0  0  0  0  0  0  0  0  0  0  0  0
    2.3742    0.3267   -0.3508 C   0  0  0  0  0  0  0  0  0  0  0  0
    3.8203    0.0338   -0.4111 C   0  0  0  0  0  0  0  0  0  0  0  0
    4.7105    1.0666   -0.2246 C   0  0  0  0  0  0  0  0  0  0  0  0
    6.0214    0.8150   -0.2799 N   0  0  0  0  0  0  0  0  0  0  0  0
    6.4499   -0.4452   -0.5171 C   0  0  0  0  0  0  0  0  0  0  0  0
    7.9129   -0.7496   -0.5832 C   0  0  0  0  0  0  0  0  0  0  0  0
    5.5797   -1.4960   -0.7070 C   0  0  0  0  0  0  0  0  0  0  0  0
    4.2139   -1.2651   -0.6553 C   0  0  0  0  0  0  0  0  0  0  0  0
    4.1320    2.4111    0.0319 C   0  0  0  0  0  0  0  0  0  0  0  0
    3.0771    2.2180    1.1255 C   0  0  0  0  0  0  0  0  0  0  0  0
   -0.1346   -0.0913   -0.3574 H   0  0  0  0  0  0  0  0  0  0  0  0
   -1.8654    1.6707    1.3583 H   0  0  0  0  0  0  0  0  0  0  0  0
   -4.2002    1.1705    1.2642 H   0  0  0  0  0  0  0  0  0  0  0  0
   -1.6106   -1.2011   -1.0810 H   0  0  0  0  0  0  0  0  0  0  0  0
   -5.8366   -2.9520   -1.9480 H   0  0  0  0  0  0  0  0  0  0  0  0
   -8.5220   -0.5295    0.3058 H   0  0  0  0  0  0  0  0  0  0  0  0
   -7.6243   -1.6800    1.3211 H   0  0  0  0  0  0  0  0  0  0  0  0
   -6.3753    0.2721    1.6714 H   0  0  0  0  0  0  0  0  0  0  0  0
   -6.8016    0.9239    0.0301 H   0  0  0  0  0  0  0  0  0  0  0  0
    1.8174   -0.6098   -0.1259 H   0  0  0  0  0  0  0  0  0  0  0  0
    1.9842    0.6675   -1.3541 H   0  0  0  0  0  0  0  0  0  0  0  0
    8.1615   -1.6523    0.0171 H   0  0  0  0  0  0  0  0  0  0  0  0
    8.1454   -0.9827   -1.6459 H   0  0  0  0  0  0  0  0  0  0  0  0
    8.4942    0.1387   -0.2438 H   0  0  0  0  0  0  0  0  0  0  0  0
    5.9086   -2.5097   -0.8977 H   0  0  0  0  0  0  0  0  0  0  0  0
    3.4922   -2.0712   -0.8007 H   0  0  0  0  0  0  0  0  0  0  0  0
    3.5948    2.7114   -0.8881 H   0  0  0  0  0  0  0  0  0  0  0  0
    4.8651    3.1513    0.3557 H   0  0  0  0  0  0  0  0  0  0  0  0
    2.6333    3.2235    1.3313 H   0  0  0  0  0  0  0  0  0  0  0  0
    3.5104    1.7520    2.0273 H   0  0  0  0  0  0  0  0  0  0  0  0
  1  2  1  0
  2  3  1  0
  3  4  2  0
  4  5  1  0
  5  6  2  0
  6  7  1  0
  7  8  2  0
  8  9  1  0
  9 10  2  0
  8 11  1  0
 11 12  1  0
 12 13  2  0
 12 14  1  0
 14 15  1  0
  2 16  2  0
  1 17  1  0
 17 18  1  0
 18 19  2  0
 19 20  1  0
 20 21  2  0
 21 22  1  0
 21 23  1  0
 23 24  2  0
 19 25  1  0
 25 26  1  0
 26  1  1  0
 10  5  1  0
 24 18  1  0
 15  7  1  0
  3 27  1  0
  4 28  1  0
  6 29  1  0
 10 30  1  0
 11 31  1  0
 14 32  1  0
 14 33  1  0
 15 34  1  0
 15 35  1  0
 17 36  1  0
 17 37  1  0
 22 38  1  0
 22 39  1  0
 22 40  1  0
 23 41  1  0
 24 42  1  0
 25 43  1  0
 25 44  1  0
 26 45  1  0
 26 46  1  0
M  END
$$$$
[H]c1nc(OC2([H])C([H])([H])C([H])([H])OC([H])([H])C2([H])[H])c(N2C([H])([H])C([H])([H])OC([H])([H])C2([H])[H])c([H])c1-c1c(C([H])([H])[H])nc([H])c(N([H])C(=O)c2c([H])c([H])c(OC([H])([H])[H])c([H])c2[H])c1[H]
     RDKit          3D

 69 73  0  0  0  0  0  0  0  0999 V2000
   11.0041    2.3572    2.2966 C   0  0  0  0  0  0  0  0  0  0  0  0
    9.8633    1.6736    2.6931 O   0  0  0  0  0  0  0  0  0  0  0  0
    8.8011    1.3167    1.8938 C   0  0  0  0  0  0  0  0  0  0  0  0
    7.7000    0.6295    2.3896 C   0  0  0  0  0  0  0  0  0  0  0  0
    6.6283    0.2747    1.5559 C   0  0  0  0  0  0  0  0  0  0  0  0
    6.6452    0.5983    0.2374 C   0  0  0  0  0  0  0  0  0  0  0  0
    7.7482    1.2808   -0.2315 C   0  0  0  0  0  0  0  0  0  0  0  0
    8.7982    1.6308    0.5743 C   0  0  0  0  0  0  0  0  0  0  0  0
    5.5542    0.2588   -0.6998 C   0  0  0  0  0  0  0  0  0  0  0  0
    5.7574    0.4500   -1.9137 O   0  0  0  0  0  0  0  0  0  0  0  0
    4.3422   -0.2571   -0.2341 N   0  0  0  0  0  0  0  0  0  0  0  0
    3.2691   -0.6133   -1.0702 C   0  0  0  0  0  0  0  0  0  0  0  0
    3.3947   -0.9765   -2.3725 C   0  0  0  0  0  0  0  0  0  0  0  0
    2.2991   -1.2858   -3.1342 N   0  0  0  0  0  0  0  0  0  0  0  0
    1.0428   -1.2468   -2.6326 C   0  0  0  0  0  0  0  0  0  0  0  0
   -0.0672   -1.6158   -3.5557 C   0  0  0  0  0  0  0  0  0  0  0  0
    0.8525   -0.8874   -1.3237 C   0  0  0  0  0  0  0  0  0  0  0  0
    1.9505   -0.5791   -0.5670 C   0  0  0  0  0  0  0  0  0  0  0  0
   -0.4843   -0.8266   -0.7663 C   0  0  0  0  0  0  0  0  0  0  0  0
   -0.8008   -1.4320    0.4364 C   0  0  0  0  0  0  0  0  0  0  0  0
   -2.0319   -1.3741    0.9631 N   0  0  0  0  0  0  0  0  0  0  0  0
   -3.0441   -0.7204    0.3533 C   0  0  0  0  0  0  0  0  0  0  0  0
   -4.3108   -0.6658    0.9031 O   0  0  0  0  0  0  0  0  0  0  0  0
   -4.6708   -1.2582    2.1176 C   0  0  0  0  0  0  0  0  0  0  0  0
   -5.7911   -2.2248    1.8792 C   0  0  0  0  0  0  0  0  0  0  0  0
   -6.8821   -2.0183    2.9009 C   0  0  0  0  0  0  0  0  0  0  0  0
   -6.3131   -1.8916    4.1521 O   0  0  0  0  0  0  0  0  0  0  0  0
   -5.6755   -0.6865    4.3481 C   0  0  0  0  0  0  0  0  0  0  0  0
   -5.0442   -0.1615    3.0938 C   0  0  0  0  0  0  0  0  0  0  0  0
   -2.8039   -0.0919   -0.8495 C   0  0  0  0  0  0  0  0  0  0  0  0
   -1.5379   -0.1493   -1.3947 C   0  0  0  0  0  0  0  0  0  0  0  0
   -3.8172    0.6013   -1.5289 N   0  0  0  0  0  0  0  0  0  0  0  0
   -4.5289    1.7059   -0.9551 C   0  0  0  0  0  0  0  0  0  0  0  0
   -5.0743    2.6573   -1.9784 C   0  0  0  0  0  0  0  0  0  0  0  0
   -5.6690    2.0646   -3.0598 O   0  0  0  0  0  0  0  0  0  0  0  0
   -5.5756    0.6987   -3.1246 C   0  0  0  0  0  0  0  0  0  0  0  0
   -4.1684    0.1918   -2.8754 C   0  0  0  0  0  0  0  0  0  0  0  0
   10.8389    3.4374    2.5109 H   0  0  0  0  0  0  0  0  0  0  0  0
   11.9138    2.0595    2.8772 H   0  0  0  0  0  0  0  0  0  0  0  0
   11.2832    2.2719    1.2435 H   0  0  0  0  0  0  0  0  0  0  0  0
    7.6728    0.3693    3.4260 H   0  0  0  0  0  0  0  0  0  0  0  0
    5.7866   -0.2626    1.9745 H   0  0  0  0  0  0  0  0  0  0  0  0
    7.7668    1.5422   -1.2790 H   0  0  0  0  0  0  0  0  0  0  0  0
    9.6119    2.1608    0.1210 H   0  0  0  0  0  0  0  0  0  0  0  0
    4.1739   -0.4074    0.8142 H   0  0  0  0  0  0  0  0  0  0  0  0
    4.3591   -1.0549   -2.8514 H   0  0  0  0  0  0  0  0  0  0  0  0
   -0.9022   -2.1211   -3.0612 H   0  0  0  0  0  0  0  0  0  0  0  0
    0.3431   -2.3608   -4.2905 H   0  0  0  0  0  0  0  0  0  0  0  0
   -0.3530   -0.7477   -4.1818 H   0  0  0  0  0  0  0  0  0  0  0  0
    1.8579   -0.2865    0.4809 H   0  0  0  0  0  0  0  0  0  0  0  0
   -0.0235   -1.9627    0.9558 H   0  0  0  0  0  0  0  0  0  0  0  0
   -3.7698   -1.7636    2.5394 H   0  0  0  0  0  0  0  0  0  0  0  0
   -5.3774   -3.2505    2.0006 H   0  0  0  0  0  0  0  0  0  0  0  0
   -6.1846   -2.1847    0.8367 H   0  0  0  0  0  0  0  0  0  0  0  0
   -7.5402   -1.1648    2.6261 H   0  0  0  0  0  0  0  0  0  0  0  0
   -7.5118   -2.9475    2.9151 H   0  0  0  0  0  0  0  0  0  0  0  0
   -6.4073    0.0844    4.7024 H   0  0  0  0  0  0  0  0  0  0  0  0
   -4.9102   -0.7741    5.1455 H   0  0  0  0  0  0  0  0  0  0  0  0
   -5.6650    0.6326    2.6192 H   0  0  0  0  0  0  0  0  0  0  0  0
   -4.0683    0.3464    3.3479 H   0  0  0  0  0  0  0  0  0  0  0  0
   -1.3743    0.3510   -2.3285 H   0  0  0  0  0  0  0  0  0  0  0  0
   -3.8455    2.2656   -0.2832 H   0  0  0  0  0  0  0  0  0  0  0  0
   -5.3846    1.3138   -0.3612 H   0  0  0  0  0  0  0  0  0  0  0  0
   -4.2176    3.2689   -2.3449 H   0  0  0  0  0  0  0  0  0  0  0  0
   -5.7384    3.3719   -1.4411 H   0  0  0  0  0  0  0  0  0  0  0  0
   -6.2658    0.1439   -2.4901 H   0  0  0  0  0  0  0  0  0  0  0  0
   -5.8191    0.4067   -4.1870 H   0  0  0  0  0  0  0  0  0  0  0  0
   -3.4446    0.7212   -3.5535 H   0  0  0  0  0  0  0  0  0  0  0  0
   -4.1647   -0.8859   -3.0236 H   0  0  0  0  0  0  0  0  0  0  0  0
  1  2  1  0
  2  3  1  0
  3  4  2  0
  4  5  1  0
  5  6  2  0
  6  7  1  0
  7  8  2  0
  6  9  1  0
  9 10  2  0
  9 11  1  0
 11 12  1  0
 12 13  2  0
 13 14  1  0
 14 15  2  0
 15 16  1  0
 15 17  1  0
 17 18  2  0
 17 19  1  0
 19 20  2  0
 20 21  1  0
 21 22  2  0
 22 23  1  0
 23 24  1  0
 24 25  1  0
 25 26  1  0
 26 27  1  0
 27 28  1  0
 28 29  1  0
 22 30  1  0
 30 31  2  0
 30 32  1  0
 32 33  1  0
 33 34  1  0
 34 35  1  0
 35 36  1  0
 36 37  1  0
  8  3  1  0
 18 12  1  0
 31 19  1  0
 37 32  1  0
 29 24  1  0
  1 38  1  0
  1 39  1  0
  1 40  1  0
  4 41  1  0
  5 42  1  0
  7 43  1  0
  8 44  1  0
 11 45  1  0
 13 46  1  0
 16 47  1  0
 16 48  1  0
 16 49  1  0
 18 50  1  0
 20 51  1  0
 24 52  1  0
 25 53  1  0
 25 54  1  0
 26 55  1  0
 26 56  1  0
 28 57  1  0
 28 58  1  0
 29 59  1  0
 29 60  1  0
 31 61  1  0
 33 62  1  0
 33 63  1  0
 34 64  1  0
 34 65  1  0
 36 66  1  0
 36 67  1  0
 37 68  1  0
 37 69  1  0
M  END
$$$$
[H]OC(c1nc2c(OC([H])([H])[H])c([H])c([H])c(C(=O)N([H])c3c(Cl)c([H])nc([H])c3Cl)c2c([H])c1[H])(C([H])([H])[H])C([H])([H])[H]
     RDKit          3D

 44 46  0  0  0  0  0  0  0  0999 V2000
    2.8194    3.8538    2.3697 C   0  0  0  0  0  0  0  0  0  0  0  0
    2.8160    2.6195    1.6555 O   0  0  0  0  0  0  0  0  0  0  0  0
    1.6104    2.0418    1.2643 C   0  0  0  0  0  0  0  0  0  0  0  0
    0.4542    2.6885    1.6179 C   0  0  0  0  0  0  0  0  0  0  0  0
   -0.7851    2.2157    1.3027 C   0  0  0  0  0  0  0  0  0  0  0  0
   -0.9462    1.0017    0.5727 C   0  0  0  0  0  0  0  0  0  0  0  0
   -2.2968    0.5376    0.3986 C   0  0  0  0  0  0  0  0  0  0  0  0
   -3.1818    1.5105    0.2877 O   0  0  0  0  0  0  0  0  0  0  0  0
   -2.8855   -0.7166    0.3304 N   0  0  0  0  0  0  0  0  0  0  0  0
   -4.3208   -0.8302    0.1701 C   0  0  0  0  0  0  0  0  0  0  0  0
   -5.0978   -0.8961    1.2867 C   0  0  0  0  0  0  0  0  0  0  0  0
   -4.3092   -0.8965    2.8637 Cl  0  0  0  0  0  0  0  0  0  0  0  0
   -6.4768   -0.9731    1.2357 C   0  0  0  0  0  0  0  0  0  0  0  0
   -7.0218   -0.9828   -0.0016 N   0  0  0  0  0  0  0  0  0  0  0  0
   -6.3072   -0.9222   -1.1418 C   0  0  0  0  0  0  0  0  0  0  0  0
   -4.9215   -0.8432   -1.0403 C   0  0  0  0  0  0  0  0  0  0  0  0
   -3.9975   -0.7748   -2.5183 Cl  0  0  0  0  0  0  0  0  0  0  0  0
    0.2142    0.3662    0.2186 C   0  0  0  0  0  0  0  0  0  0  0  0
    0.1283   -0.8039   -0.5261 C   0  0  0  0  0  0  0  0  0  0  0  0
    1.3077   -1.4317   -0.9010 C   0  0  0  0  0  0  0  0  0  0  0  0
    2.5124   -0.8838   -0.5344 C   0  0  0  0  0  0  0  0  0  0  0  0
    2.5891    0.2410    0.1768 N   0  0  0  0  0  0  0  0  0  0  0  0
    1.4764    0.8798    0.5621 C   0  0  0  0  0  0  0  0  0  0  0  0
    3.7953   -1.5531   -0.9547 C   0  0  0  0  0  0  0  0  0  0  0  0
    3.5118   -2.9009   -1.5424 C   0  0  0  0  0  0  0  0  0  0  0  0
    4.3372   -0.6683   -2.0848 C   0  0  0  0  0  0  0  0  0  0  0  0
    4.6708   -1.6549    0.1036 O   0  0  0  0  0  0  0  0  0  0  0  0
    2.1834    3.8305    3.2502 H   0  0  0  0  0  0  0  0  0  0  0  0
    3.8636    4.1556    2.5141 H   0  0  0  0  0  0  0  0  0  0  0  0
    2.3622    4.5876    1.6521 H   0  0  0  0  0  0  0  0  0  0  0  0
    0.5117    3.6301    2.1764 H   0  0  0  0  0  0  0  0  0  0  0  0
   -1.7008    2.7152    1.5793 H   0  0  0  0  0  0  0  0  0  0  0  0
   -2.4062   -1.6133    0.4119 H   0  0  0  0  0  0  0  0  0  0  0  0
   -7.0645   -1.0217    2.1355 H   0  0  0  0  0  0  0  0  0  0  0  0
   -6.7353   -0.9285   -2.1224 H   0  0  0  0  0  0  0  0  0  0  0  0
   -0.8190   -1.2050   -0.8500 H   0  0  0  0  0  0  0  0  0  0  0  0
    1.2220   -2.3482   -1.4748 H   0  0  0  0  0  0  0  0  0  0  0  0
    4.4868   -3.3662   -1.7938 H   0  0  0  0  0  0  0  0  0  0  0  0
    3.0444   -3.5935   -0.7941 H   0  0  0  0  0  0  0  0  0  0  0  0
    2.9244   -2.8332   -2.4805 H   0  0  0  0  0  0  0  0  0  0  0  0
    3.5106   -0.5778   -2.8264 H   0  0  0  0  0  0  0  0  0  0  0  0
    4.5979    0.3018   -1.6217 H   0  0  0  0  0  0  0  0  0  0  0  0
    5.1855   -1.1633   -2.5766 H   0  0  0  0  0  0  0  0  0  0  0  0
    5.1379   -0.7939    0.2863 H   0  0  0  0  0  0  0  0  0  0  0  0
  1  2  1  0
  2  3  1  0
  3  4  2  0
  4  5  1  0
  5  6  2  0
  6  7  1  0
  7  8  2  0
  7  9  1  0
  9 10  1  0
 10 11  2  0
 11 12  1  0
 11 13  1  0
 13 14  2  0
 14 15  1  0
 15 16  2  0
 16 17  1  0
  6 18  1  0
 18 19  2  0
 19 20  1  0
 20 21  2  0
 21 22  1  0
 22 23  2  0
 21 24  1  0
 24 25  1  0
 24 26  1  0
 24 27  1  0
 23  3  1  0
 16 10  1  0
 23 18  1  0
  1 28  1  0
  1 29  1  0
  1 30  1  0
  4 31  1  0
  5 32  1  0
  9 33  1  0
 13 34  1  0
 15 35  1  0
 19 36  1  0
 20 37  1  0
 25 38  1  0
 25 39  1  0
 25 40  1  0
 26 41  1  0
 26 42  1  0
 26 43  1  0
 27 44  1  0
M  END
$$$$
[H]OC(=O)[C@@]([H])(N([H])C(=O)[C@@]([H])(C([H])([H])C(=O)N([H])O[H])C([H])([H])C([H])(C([H])([H])[H])C([H])([H])[H])C([H])([H])c1c([H])n([H])c2c([H])c([H])c([H])c([H])c12
     RDKit          3D

 52 53  0  0  0  0  0  0  0  0999 V2000
   -3.8010    2.9589   -0.0614 C   0  0  0  0  0  0  0  0  0  0  0  0
   -3.4078    2.2079    1.2001 C   0  0  0  0  0  0  0  0  0  0  0  0
   -4.2608    2.6585    2.3773 C   0  0  0  0  0  0  0  0  0  0  0  0
   -3.6166    0.7394    0.9210 C   0  0  0  0  0  0  0  0  0  0  0  0
   -2.7716    0.3169   -0.2245 C   0  0  2  0  0  0  0  0  0  0  0  0
   -2.9700   -1.1435   -0.5956 C   0  0  0  0  0  0  0  0  0  0  0  0
   -2.6389   -2.1030    0.4508 C   0  0  0  0  0  0  0  0  0  0  0  0
   -2.1435   -1.7769    1.5568 O   0  0  0  0  0  0  0  0  0  0  0  0
   -2.8838   -3.4946    0.2247 N   0  0  0  0  0  0  0  0  0  0  0  0
   -2.5752   -4.3685    1.1947 O   0  0  0  0  0  0  0  0  0  0  0  0
   -1.3040    0.4970    0.0271 C   0  0  0  0  0  0  0  0  0  0  0  0
   -0.8352    0.7575    1.1451 O   0  0  0  0  0  0  0  0  0  0  0  0
   -0.4387    0.3529   -1.0875 N   0  0  0  0  0  0  0  0  0  0  0  0
    1.0222    0.5049   -0.9603 C   0  0  1  0  0  0  0  0  0  0  0  0
    1.6435   -0.7884   -1.4029 C   0  0  0  0  0  0  0  0  0  0  0  0
    3.1198   -0.8183   -1.3393 C   0  0  0  0  0  0  0  0  0  0  0  0
    4.0565   -0.7532   -2.3633 C   0  0  0  0  0  0  0  0  0  0  0  0
    5.2869   -0.8278   -1.8310 N   0  0  0  0  0  0  0  0  0  0  0  0
    5.2284   -0.9400   -0.4975 C   0  0  0  0  0  0  0  0  0  0  0  0
    6.1634   -1.0485    0.5144 C   0  0  0  0  0  0  0  0  0  0  0  0
    5.7448   -1.1503    1.8246 C   0  0  0  0  0  0  0  0  0  0  0  0
    4.4175   -1.1469    2.1541 C   0  0  0  0  0  0  0  0  0  0  0  0
    3.4959   -1.0376    1.1290 C   0  0  0  0  0  0  0  0  0  0  0  0
    3.8854   -0.9353   -0.1791 C   0  0  0  0  0  0  0  0  0  0  0  0
    1.4670    1.5845   -1.8617 C   0  0  0  0  0  0  0  0  0  0  0  0
    2.7802    1.9988   -1.9604 O   0  0  0  0  0  0  0  0  0  0  0  0
    0.6175    2.1631   -2.5784 O   0  0  0  0  0  0  0  0  0  0  0  0
   -2.8882    3.0634   -0.6822 H   0  0  0  0  0  0  0  0  0  0  0  0
   -4.1547    3.9771    0.2018 H   0  0  0  0  0  0  0  0  0  0  0  0
   -4.5513    2.3809   -0.6426 H   0  0  0  0  0  0  0  0  0  0  0  0
   -2.3746    2.4789    1.4266 H   0  0  0  0  0  0  0  0  0  0  0  0
   -3.9429    3.6454    2.7122 H   0  0  0  0  0  0  0  0  0  0  0  0
   -4.1607    1.8598    3.1576 H   0  0  0  0  0  0  0  0  0  0  0  0
   -5.3250    2.6123    2.0362 H   0  0  0  0  0  0  0  0  0  0  0  0
   -3.4103    0.2002    1.8829 H   0  0  0  0  0  0  0  0  0  0  0  0
   -4.6991    0.6097    0.6446 H   0  0  0  0  0  0  0  0  0  0  0  0
   -3.0303    0.9178   -1.1041 H   0  0  0  0  0  0  0  0  0  0  0  0
   -2.2759   -1.3267   -1.4659 H   0  0  0  0  0  0  0  0  0  0  0  0
   -3.9849   -1.2438   -1.0024 H   0  0  0  0  0  0  0  0  0  0  0  0
   -3.2929   -3.7959   -0.6805 H   0  0  0  0  0  0  0  0  0  0  0  0
   -3.4002   -4.8846    1.3951 H   0  0  0  0  0  0  0  0  0  0  0  0
   -0.8078    0.1357   -2.0295 H   0  0  0  0  0  0  0  0  0  0  0  0
    1.2082    0.7351    0.0999 H   0  0  0  0  0  0  0  0  0  0  0  0
    1.2438   -1.5918   -0.7132 H   0  0  0  0  0  0  0  0  0  0  0  0
    1.2605   -1.0885   -2.4057 H   0  0  0  0  0  0  0  0  0  0  0  0
    3.7771   -0.6571   -3.4104 H   0  0  0  0  0  0  0  0  0  0  0  0
    6.1969   -0.8043   -2.3620 H   0  0  0  0  0  0  0  0  0  0  0  0
    7.2264   -1.0507    0.2446 H   0  0  0  0  0  0  0  0  0  0  0  0
    6.5094   -1.2332    2.5845 H   0  0  0  0  0  0  0  0  0  0  0  0
    4.0592   -1.2268    3.1850 H   0  0  0  0  0  0  0  0  0  0  0  0
    2.4406   -1.0320    1.3578 H   0  0  0  0  0  0  0  0  0  0  0  0
    3.0948    2.9114   -2.2072 H   0  0  0  0  0  0  0  0  0  0  0  0
  1  2  1  0
  2  3  1  0
  2  4  1  0
  4  5  1  0
  5  6  1  0
  6  7  1  0
  7  8  2  0
  7  9  1  0
  9 10  1  0
  5 11  1  0
 11 12  2  0
 11 13  1  0
 13 14  1  0
 14 15  1  0
 15 16  1  0
 16 17  2  0
 17 18  1  0
 18 19  1  0
 19 20  2  0
 20 21  1  0
 21 22  2  0
 22 23  1  0
 23 24  2  0
 14 25  1  0
 25 26  1  0
 25 27  2  0
 24 16  1  0
 24 19  1  0
  1 28  1  0
  1 29  1  0
  1 30  1  0
  2 31  1  0
  3 32  1  0
  3 33  1  0
  3 34  1  0
  4 35  1  0
  4 36  1  0
  5 37  1  6
  6 38  1  0
  6 39  1  0
  9 40  1  0
 10 41  1  0
 13 42  1  0
 14 43  1  1
 15 44  1  0
 15 45  1  0
 17 46  1  0
 18 47  1  0
 20 48  1  0
 21 49  1  0
 22 50  1  0
 23 51  1  0
 26 52  1  0
M  END
$$$$
[H]c1c([H])c(C(=O)N([H])c2nc3c([H])nc(-c4oc5c(C([H])([H])N6C([H])([H])C([H])([H])C([H])([H])C6([H])[H])c([H])c(F)c([H])c5c4[H])nc3s2)c([H])c(C(C([H])([H])[H])(C([H])([H])[H])C([H])([H])[H])c1[H]
     RDKit          3D

 66 71  0  0  0  0  0  0  0  0999 V2000
   -3.2567   -1.0461   -2.2316 C   0  0  0  0  0  0  0  0  0  0  0  0
   -2.9439   -0.4501   -0.9976 C   0  0  0  0  0  0  0  0  0  0  0  0
   -1.5898   -0.0778   -0.6214 C   0  0  0  0  0  0  0  0  0  0  0  0
   -1.2730    0.6383    0.4710 N   0  0  0  0  0  0  0  0  0  0  0  0
    0.0422    0.9291    0.7539 C   0  0  0  0  0  0  0  0  0  0  0  0
    1.0769    0.5171   -0.0300 C   0  0  0  0  0  0  0  0  0  0  0  0
    0.7156   -0.2367   -1.1728 C   0  0  0  0  0  0  0  0  0  0  0  0
   -0.5728   -0.4733   -1.3804 N   0  0  0  0  0  0  0  0  0  0  0  0
    2.2682    0.8784    0.3218 N   0  0  0  0  0  0  0  0  0  0  0  0
    2.5200    1.6018    1.3662 C   0  0  0  0  0  0  0  0  0  0  0  0
    3.6735    2.1345    1.9540 N   0  0  0  0  0  0  0  0  0  0  0  0
    5.0049    2.0408    1.6357 C   0  0  0  0  0  0  0  0  0  0  0  0
    5.8270    2.7031    2.4226 O   0  0  0  0  0  0  0  0  0  0  0  0
    5.7241    1.3512    0.5997 C   0  0  0  0  0  0  0  0  0  0  0  0
    6.9375    0.7034    0.9274 C   0  0  0  0  0  0  0  0  0  0  0  0
    7.7042    0.0327    0.0247 C   0  0  0  0  0  0  0  0  0  0  0  0
    9.0009   -0.5523    0.3687 C   0  0  0  0  0  0  0  0  0  0  0  0
   10.0137    0.5935    0.3763 C   0  0  0  0  0  0  0  0  0  0  0  0
    9.4192   -1.5883   -0.6555 C   0  0  0  0  0  0  0  0  0  0  0  0
    8.9826   -1.1534    1.7334 C   0  0  0  0  0  0  0  0  0  0  0  0
    7.2599   -0.0115   -1.2819 C   0  0  0  0  0  0  0  0  0  0  0  0
    6.0910    0.6033   -1.6438 C   0  0  0  0  0  0  0  0  0  0  0  0
    5.3131    1.2941   -0.6992 C   0  0  0  0  0  0  0  0  0  0  0  0
    0.8701    1.8181    1.9540 S   0  0  0  0  0  0  0  0  0  0  0  0
   -4.0874   -0.3455   -0.3669 O   0  0  0  0  0  0  0  0  0  0  0  0
   -5.0949   -0.8169   -1.0735 C   0  0  0  0  0  0  0  0  0  0  0  0
   -6.4757   -0.9166   -0.8035 C   0  0  0  0  0  0  0  0  0  0  0  0
   -7.2907   -1.4632   -1.7405 C   0  0  0  0  0  0  0  0  0  0  0  0
   -6.7866   -1.9184   -2.9395 C   0  0  0  0  0  0  0  0  0  0  0  0
   -7.6540   -2.4671   -3.8563 F   0  0  0  0  0  0  0  0  0  0  0  0
   -5.4470   -1.8330   -3.2284 C   0  0  0  0  0  0  0  0  0  0  0  0
   -4.6290   -1.2727   -2.2637 C   0  0  0  0  0  0  0  0  0  0  0  0
   -6.9049   -0.3203    0.4614 C   0  0  0  0  0  0  0  0  0  0  0  0
   -8.1212   -0.3490    1.0187 N   0  0  0  0  0  0  0  0  0  0  0  0
   -8.4911    0.9369    1.7071 C   0  0  0  0  0  0  0  0  0  0  0  0
   -9.4620    1.5311    0.6827 C   0  0  0  0  0  0  0  0  0  0  0  0
  -10.1739    0.3016    0.1173 C   0  0  0  0  0  0  0  0  0  0  0  0
   -9.3522   -0.8838    0.6852 C   0  0  0  0  0  0  0  0  0  0  0  0
   -2.5547   -1.2775   -3.0133 H   0  0  0  0  0  0  0  0  0  0  0  0
    1.4606   -0.6032   -1.8665 H   0  0  0  0  0  0  0  0  0  0  0  0
    3.4732    2.7476    2.8365 H   0  0  0  0  0  0  0  0  0  0  0  0
    7.2249    0.7814    1.9655 H   0  0  0  0  0  0  0  0  0  0  0  0
   10.2176    0.8563   -0.7144 H   0  0  0  0  0  0  0  0  0  0  0  0
   10.8962    0.3804    0.9529 H   0  0  0  0  0  0  0  0  0  0  0  0
    9.4826    1.4921    0.7743 H   0  0  0  0  0  0  0  0  0  0  0  0
    9.6936   -1.0165   -1.5817 H   0  0  0  0  0  0  0  0  0  0  0  0
   10.2826   -2.1910   -0.2941 H   0  0  0  0  0  0  0  0  0  0  0  0
    8.5608   -2.2622   -0.8293 H   0  0  0  0  0  0  0  0  0  0  0  0
    9.9328   -1.7506    1.8896 H   0  0  0  0  0  0  0  0  0  0  0  0
    8.0932   -1.7497    1.9246 H   0  0  0  0  0  0  0  0  0  0  0  0
    9.0370   -0.3472    2.5275 H   0  0  0  0  0  0  0  0  0  0  0  0
    7.8008   -0.5166   -2.0408 H   0  0  0  0  0  0  0  0  0  0  0  0
    5.7467    0.5601   -2.6685 H   0  0  0  0  0  0  0  0  0  0  0  0
    4.4413    1.7826   -1.0996 H   0  0  0  0  0  0  0  0  0  0  0  0
   -8.3584   -1.5633   -1.6343 H   0  0  0  0  0  0  0  0  0  0  0  0
   -5.0336   -2.1734   -4.1582 H   0  0  0  0  0  0  0  0  0  0  0  0
   -6.0896   -0.5799    1.2362 H   0  0  0  0  0  0  0  0  0  0  0  0
   -6.6318    0.8229    0.3381 H   0  0  0  0  0  0  0  0  0  0  0  0
   -7.6089    1.5230    1.8461 H   0  0  0  0  0  0  0  0  0  0  0  0
   -9.0421    0.7318    2.6261 H   0  0  0  0  0  0  0  0  0  0  0  0
  -10.2060    2.1942    1.1291 H   0  0  0  0  0  0  0  0  0  0  0  0
   -8.8590    2.0427   -0.0998 H   0  0  0  0  0  0  0  0  0  0  0  0
  -10.1288    0.3235   -0.9860 H   0  0  0  0  0  0  0  0  0  0  0  0
  -11.2094    0.2235    0.4230 H   0  0  0  0  0  0  0  0  0  0  0  0
   -9.9373   -1.1298    1.6642 H   0  0  0  0  0  0  0  0  0  0  0  0
   -9.5218   -1.7341    0.0844 H   0  0  0  0  0  0  0  0  0  0  0  0
  1  2  2  0
  2  3  1  0
  3  4  2  0
  4  5  1  0
  5  6  2  0
  6  7  1  0
  7  8  2  0
  6  9  1  0
  9 10  2  0
 10 11  1  0
 11 12  1  0
 12 13  2  0
 12 14  1  0
 14 15  2  0
 15 16  1  0
 16 17  1  0
 17 18  1  0
 17 19  1  0
 17 20  1  0
 16 21  2  0
 21 22  1  0
 22 23  2  0
 10 24  1  0
  2 25  1  0
 25 26  1  0
 26 27  2  0
 27 28  1  0
 28 29  2  0
 29 30  1  0
 29 31  1  0
 31 32  2  0
 27 33  1  0
 33 34  1  0
 34 35  1  0
 35 36  1  0
 36 37  1  0
 37 38  1  0
 32  1  1  0
 38 34  1  0
  8  3  1  0
 23 14  1  0
 32 26  1  0
 24  5  1  0
  1 39  1  0
  7 40  1  0
 11 41  1  0
 15 42  1  0
 18 43  1  0
 18 44  1  0
 18 45  1  0
 19 46  1  0
 19 47  1  0
 19 48  1  0
 20 49  1  0
 20 50  1  0
 20 51  1  0
 21 52  1  0
 22 53  1  0
 23 54  1  0
 28 55  1  0
 31 56  1  0
 33 57  1  0
 33 58  1  0
 35 59  1  0
 35 60  1  0
 36 61  1  0
 36 62  1  0
 37 63  1  0
 37 64  1  0
 38 65  1  0
 38 66  1  0
M  END
$$$$
[H]c1c(C([H])([H])[H])c(OC([H])([H])[H])c(C([H])([H])[H])c([H])c1C([H])([H])N([H])[C@@]1([H])OC(C([H])([H])[H])(C([H])([H])[H])[C@@]1([H])Sc1c(C([H])([H])[H])n([H])c2c([H])c([H])c([H])c([H])c12
     RDKit          3D

 59 62  0  0  0  0  0  0  0  0999 V2000
    0.8251   -1.2594    1.9422 C   0  0  0  0  0  0  0  0  0  0  0  0
    1.4901    0.0449    2.2986 C   0  0  0  0  0  0  0  0  0  0  0  0
    2.6601   -0.0891    3.2222 C   0  0  0  0  0  0  0  0  0  0  0  0
    1.6366    1.0393    1.2008 C   0  0  1  0  0  0  0  0  0  0  0  0
    2.0147    0.4719   -0.4174 S   0  0  0  0  0  0  0  0  0  0  0  0
    3.6764   -0.1245   -0.6174 C   0  0  0  0  0  0  0  0  0  0  0  0
    4.2344   -1.3713   -0.5267 C   0  0  0  0  0  0  0  0  0  0  0  0
    3.5179   -2.6392   -0.2662 C   0  0  0  0  0  0  0  0  0  0  0  0
    5.5874   -1.3083   -0.7402 N   0  0  0  0  0  0  0  0  0  0  0  0
    5.9179   -0.0425   -0.9689 C   0  0  0  0  0  0  0  0  0  0  0  0
    7.1640    0.5218   -1.2370 C   0  0  0  0  0  0  0  0  0  0  0  0
    7.2450    1.8796   -1.4406 C   0  0  0  0  0  0  0  0  0  0  0  0
    6.0999    2.6392   -1.3742 C   0  0  0  0  0  0  0  0  0  0  0  0
    4.8726    2.0579   -1.1067 C   0  0  0  0  0  0  0  0  0  0  0  0
    4.7789    0.7119   -0.9028 C   0  0  0  0  0  0  0  0  0  0  0  0
    0.2224    1.4231    1.5558 C   0  0  1  0  0  0  0  0  0  0  0  0
   -0.8327    0.7291    0.9119 N   0  0  0  0  0  0  0  0  0  0  0  0
   -2.0874    1.3768    1.1005 C   0  0  0  0  0  0  0  0  0  0  0  0
   -3.2234    0.6941    0.4614 C   0  0  0  0  0  0  0  0  0  0  0  0
   -3.0982   -0.5573   -0.1244 C   0  0  0  0  0  0  0  0  0  0  0  0
   -4.1798   -1.1702   -0.7204 C   0  0  0  0  0  0  0  0  0  0  0  0
   -4.0128   -2.5051   -1.3365 C   0  0  0  0  0  0  0  0  0  0  0  0
   -5.3903   -0.4966   -0.7144 C   0  0  0  0  0  0  0  0  0  0  0  0
   -6.4696   -1.1301   -1.3201 O   0  0  0  0  0  0  0  0  0  0  0  0
   -6.7608   -0.9483   -2.7048 C   0  0  0  0  0  0  0  0  0  0  0  0
   -5.5555    0.7457   -0.1441 C   0  0  0  0  0  0  0  0  0  0  0  0
   -6.8862    1.4480   -0.1568 C   0  0  0  0  0  0  0  0  0  0  0  0
   -4.4445    1.3299    0.4458 C   0  0  0  0  0  0  0  0  0  0  0  0
    0.5474    0.9636    2.8646 O   0  0  0  0  0  0  0  0  0  0  0  0
   -0.1521   -1.4121    2.3990 H   0  0  0  0  0  0  0  0  0  0  0  0
    0.6905   -1.3564    0.8305 H   0  0  0  0  0  0  0  0  0  0  0  0
    1.5231   -2.0728    2.2879 H   0  0  0  0  0  0  0  0  0  0  0  0
    2.9547   -1.1690    3.2751 H   0  0  0  0  0  0  0  0  0  0  0  0
    3.5266    0.4558    2.7744 H   0  0  0  0  0  0  0  0  0  0  0  0
    2.4442    0.2872    4.2433 H   0  0  0  0  0  0  0  0  0  0  0  0
    2.3566    1.8782    1.4980 H   0  0  0  0  0  0  0  0  0  0  0  0
    2.5155   -2.6502   -0.7845 H   0  0  0  0  0  0  0  0  0  0  0  0
    3.4080   -2.8859    0.7941 H   0  0  0  0  0  0  0  0  0  0  0  0
    4.0720   -3.4781   -0.7519 H   0  0  0  0  0  0  0  0  0  0  0  0
    6.2266   -2.1325   -0.7201 H   0  0  0  0  0  0  0  0  0  0  0  0
    8.0695   -0.0828   -1.2894 H   0  0  0  0  0  0  0  0  0  0  0  0
    8.2272    2.3255   -1.6516 H   0  0  0  0  0  0  0  0  0  0  0  0
    6.1229    3.7095   -1.5283 H   0  0  0  0  0  0  0  0  0  0  0  0
    3.9639    2.6457   -1.0516 H   0  0  0  0  0  0  0  0  0  0  0  0
    0.0949    2.5196    1.4888 H   0  0  0  0  0  0  0  0  0  0  0  0
   -0.6374    0.4309   -0.0624 H   0  0  0  0  0  0  0  0  0  0  0  0
   -2.2899    1.4514    2.1870 H   0  0  0  0  0  0  0  0  0  0  0  0
   -2.0996    2.4293    0.7133 H   0  0  0  0  0  0  0  0  0  0  0  0
   -2.1136   -1.0011   -0.0771 H   0  0  0  0  0  0  0  0  0  0  0  0
   -4.8797   -3.1709   -1.1338 H   0  0  0  0  0  0  0  0  0  0  0  0
   -3.1313   -3.0178   -0.8495 H   0  0  0  0  0  0  0  0  0  0  0  0
   -3.7773   -2.3862   -2.3999 H   0  0  0  0  0  0  0  0  0  0  0  0
   -6.8326   -1.9332   -3.1998 H   0  0  0  0  0  0  0  0  0  0  0  0
   -5.9005   -0.4233   -3.1542 H   0  0  0  0  0  0  0  0  0  0  0  0
   -7.7297   -0.4345   -2.8570 H   0  0  0  0  0  0  0  0  0  0  0  0
   -6.7421    2.5428   -0.0561 H   0  0  0  0  0  0  0  0  0  0  0  0
   -7.3679    1.1709   -1.1144 H   0  0  0  0  0  0  0  0  0  0  0  0
   -7.4890    1.0217    0.6634 H   0  0  0  0  0  0  0  0  0  0  0  0
   -4.6030    2.3035    0.8848 H   0  0  0  0  0  0  0  0  0  0  0  0
  1  2  1  0
  2  3  1  0
  2  4  1  0
  4  5  1  0
  5  6  1  0
  6  7  2  0
  7  8  1  0
  7  9  1  0
  9 10  1  0
 10 11  2  0
 11 12  1  0
 12 13  2  0
 13 14  1  0
 14 15  2  0
  4 16  1  0
 16 17  1  0
 17 18  1  0
 18 19  1  0
 19 20  2  0
 20 21  1  0
 21 22  1  0
 21 23  2  0
 23 24  1  0
 24 25  1  0
 23 26  1  0
 26 27  1  0
 26 28  2  0
 16 29  1  0
 29  2  1  0
 15  6  1  0
 28 19  1  0
 15 10  1  0
  1 30  1  0
  1 31  1  0
  1 32  1  0
  3 33  1  0
  3 34  1  0
  3 35  1  0
  4 36  1  1
  8 37  1  0
  8 38  1  0
  8 39  1  0
  9 40  1  0
 11 41  1  0
 12 42  1  0
 13 43  1  0
 14 44  1  0
 16 45  1  1
 17 46  1  0
 18 47  1  0
 18 48  1  0
 20 49  1  0
 22 50  1  0
 22 51  1  0
 22 52  1  0
 25 53  1  0
 25 54  1  0
 25 55  1  0
 27 56  1  0
 27 57  1  0
 27 58  1  0
 28 59  1  0
M  END
$$$$
[H]OC(=O)[C@@]1([H])N(C(=O)[C@@]([H])(N([H])C(=O)[C@@]([H])(N([H])C(=O)[C@@]([H])(N([H])[H])C([H])([H])C([H])(C([H])([H])[H])C([H])([H])[H])C([H])([H])c2c([H])c([H])c([H])c([H])c2[H])C([H])([H])c2c([H])c([H])c([H])c([H])c2[H])C([H])([H])C([H])([H])C1([H])[H]
     RDKit          3D

 76 78  0  0  0  0  0  0  0  0999 V2000
    7.0553   -0.2865   -3.1959 C   0  0  0  0  0  0  0  0  0  0  0  0
    6.9174    0.7314   -2.1053 C   0  0  0  0  0  0  0  0  0  0  0  0
    8.2395    0.8344   -1.3663 C   0  0  0  0  0  0  0  0  0  0  0  0
    5.8781    0.3521   -1.0851 C   0  0  0  0  0  0  0  0  0  0  0  0
    4.5018    0.1910   -1.6896 C   0  0  2  0  0  0  0  0  0  0  0  0
    4.1128    1.4514   -2.2844 N   0  0  0  0  0  0  0  0  0  0  0  0
    3.5189   -0.2857   -0.7010 C   0  0  0  0  0  0  0  0  0  0  0  0
    3.7361   -1.3553   -0.0788 O   0  0  0  0  0  0  0  0  0  0  0  0
    2.3397    0.4431   -0.4456 N   0  0  0  0  0  0  0  0  0  0  0  0
    1.3551    0.0038    0.5177 C   0  0  1  0  0  0  0  0  0  0  0  0
    1.1709    1.1303    1.5267 C   0  0  0  0  0  0  0  0  0  0  0  0
    2.3924    1.4867    2.2415 C   0  0  0  0  0  0  0  0  0  0  0  0
    2.7029    0.8760    3.4333 C   0  0  0  0  0  0  0  0  0  0  0  0
    3.8520    1.2249    4.0812 C   0  0  0  0  0  0  0  0  0  0  0  0
    4.7041    2.1654    3.5785 C   0  0  0  0  0  0  0  0  0  0  0  0
    4.4186    2.7911    2.3900 C   0  0  0  0  0  0  0  0  0  0  0  0
    3.2611    2.4440    1.7310 C   0  0  0  0  0  0  0  0  0  0  0  0
    0.0257   -0.1996   -0.1025 C   0  0  0  0  0  0  0  0  0  0  0  0
   -0.1013    0.0698   -1.3204 O   0  0  0  0  0  0  0  0  0  0  0  0
   -1.0529   -0.6832    0.6730 N   0  0  0  0  0  0  0  0  0  0  0  0
   -2.4046   -0.8878    0.0631 C   0  0  1  0  0  0  0  0  0  0  0  0
   -2.5341   -2.3541   -0.0907 C   0  0  0  0  0  0  0  0  0  0  0  0
   -3.7622   -2.8809   -0.6820 C   0  0  0  0  0  0  0  0  0  0  0  0
   -4.8005   -3.2484    0.1427 C   0  0  0  0  0  0  0  0  0  0  0  0
   -5.9761   -3.7548   -0.3674 C   0  0  0  0  0  0  0  0  0  0  0  0
   -6.1826   -3.9225   -1.7207 C   0  0  0  0  0  0  0  0  0  0  0  0
   -5.1291   -3.5478   -2.5377 C   0  0  0  0  0  0  0  0  0  0  0  0
   -3.9526   -3.0424   -2.0413 C   0  0  0  0  0  0  0  0  0  0  0  0
   -3.4059   -0.1914    0.8763 C   0  0  0  0  0  0  0  0  0  0  0  0
   -3.1931   -0.2603    2.1482 O   0  0  0  0  0  0  0  0  0  0  0  0
   -4.5335    0.5253    0.4440 N   0  0  0  0  0  0  0  0  0  0  0  0
   -4.9372    0.7235   -0.9262 C   0  0  0  0  0  0  0  0  0  0  0  0
   -6.4660    0.8078   -0.8016 C   0  0  0  0  0  0  0  0  0  0  0  0
   -6.5176    1.8209    0.3474 C   0  0  0  0  0  0  0  0  0  0  0  0
   -5.4739    1.2253    1.2730 C   0  0  1  0  0  0  0  0  0  0  0  0
   -6.1611    0.4518    2.2930 C   0  0  0  0  0  0  0  0  0  0  0  0
   -7.0620    1.0963    3.1271 O   0  0  0  0  0  0  0  0  0  0  0  0
   -5.9691   -0.7651    2.4424 O   0  0  0  0  0  0  0  0  0  0  0  0
    6.6176   -1.2494   -2.8427 H   0  0  0  0  0  0  0  0  0  0  0  0
    8.1202   -0.4588   -3.3941 H   0  0  0  0  0  0  0  0  0  0  0  0
    6.6121    0.0521   -4.1598 H   0  0  0  0  0  0  0  0  0  0  0  0
    6.7358    1.7270   -2.5498 H   0  0  0  0  0  0  0  0  0  0  0  0
    9.0309    0.4723   -2.0485 H   0  0  0  0  0  0  0  0  0  0  0  0
    8.2168    0.1329   -0.4964 H   0  0  0  0  0  0  0  0  0  0  0  0
    8.4678    1.8664   -1.0408 H   0  0  0  0  0  0  0  0  0  0  0  0
    5.8010    1.2172   -0.3672 H   0  0  0  0  0  0  0  0  0  0  0  0
    6.1696   -0.5484   -0.5214 H   0  0  0  0  0  0  0  0  0  0  0  0
    4.5525   -0.6192   -2.4739 H   0  0  0  0  0  0  0  0  0  0  0  0
    3.9793    2.1591   -1.5408 H   0  0  0  0  0  0  0  0  0  0  0  0
    3.2107    1.3276   -2.8081 H   0  0  0  0  0  0  0  0  0  0  0  0
    2.1671    1.3227   -0.9617 H   0  0  0  0  0  0  0  0  0  0  0  0
    1.6505   -0.9298    1.0106 H   0  0  0  0  0  0  0  0  0  0  0  0
    0.3328    0.8093    2.1939 H   0  0  0  0  0  0  0  0  0  0  0  0
    0.7967    2.0482    1.0112 H   0  0  0  0  0  0  0  0  0  0  0  0
    2.0209    0.1388    3.8130 H   0  0  0  0  0  0  0  0  0  0  0  0
    4.0598    0.7178    5.0257 H   0  0  0  0  0  0  0  0  0  0  0  0
    5.5969    2.3840    4.1557 H   0  0  0  0  0  0  0  0  0  0  0  0
    5.0789    3.5185    2.0006 H   0  0  0  0  0  0  0  0  0  0  0  0
    2.9719    2.8991    0.7834 H   0  0  0  0  0  0  0  0  0  0  0  0
   -0.8974   -0.8947    1.6700 H   0  0  0  0  0  0  0  0  0  0  0  0
   -2.3290   -0.4502   -0.9414 H   0  0  0  0  0  0  0  0  0  0  0  0
   -2.2466   -2.9138    0.8548 H   0  0  0  0  0  0  0  0  0  0  0  0
   -1.7042   -2.6694   -0.7941 H   0  0  0  0  0  0  0  0  0  0  0  0
   -4.6716   -3.1296    1.2249 H   0  0  0  0  0  0  0  0  0  0  0  0
   -6.7926   -4.0442    0.3087 H   0  0  0  0  0  0  0  0  0  0  0  0
   -7.1125   -4.3227   -2.0992 H   0  0  0  0  0  0  0  0  0  0  0  0
   -5.2967   -3.6816   -3.6158 H   0  0  0  0  0  0  0  0  0  0  0  0
   -3.1718   -2.7693   -2.7007 H   0  0  0  0  0  0  0  0  0  0  0  0
   -4.7009   -0.0608   -1.6265 H   0  0  0  0  0  0  0  0  0  0  0  0
   -4.5492    1.7240   -1.2402 H   0  0  0  0  0  0  0  0  0  0  0  0
   -6.9391    1.2056   -1.7015 H   0  0  0  0  0  0  0  0  0  0  0  0
   -6.8318   -0.1729   -0.4816 H   0  0  0  0  0  0  0  0  0  0  0  0
   -6.2176    2.7947   -0.0871 H   0  0  0  0  0  0  0  0  0  0  0  0
   -7.4966    1.8758    0.8235 H   0  0  0  0  0  0  0  0  0  0  0  0
   -4.9504    2.1353    1.7109 H   0  0  0  0  0  0  0  0  0  0  0  0
   -6.8490    1.2058    4.1188 H   0  0  0  0  0  0  0  0  0  0  0  0
  1  2  1  0
  2  3  1  0
  2  4  1  0
  4  5  1  0
  5  6  1  0
  5  7  1  0
  7  8  2  0
  7  9  1  0
  9 10  1  0
 10 11  1  0
 11 12  1  0
 12 13  2  0
 13 14  1  0
 14 15  2  0
 15 16  1  0
 16 17  2  0
 10 18  1  0
 18 19  2  0
 18 20  1  0
 20 21  1  0
 21 22  1  0
 22 23  1  0
 23 24  2  0
 24 25  1  0
 25 26  2  0
 26 27  1  0
 27 28  2  0
 21 29  1  0
 29 30  2  0
 29 31  1  0
 31 32  1  0
 32 33  1  0
 33 34  1  0
 34 35  1  0
 35 36  1  0
 36 37  1  0
 36 38  2  0
 17 12  1  0
 28 23  1  0
 35 31  1  0
  1 39  1  0
  1 40  1  0
  1 41  1  0
  2 42  1  0
  3 43  1  0
  3 44  1  0
  3 45  1  0
  4 46  1  0
  4 47  1  0
  5 48  1  6
  6 49  1  0
  6 50  1  0
  9 51  1  0
 10 52  1  1
 11 53  1  0
 11 54  1  0
 13 55  1  0
 14 56  1  0
 15 57  1  0
 16 58  1  0
 17 59  1  0
 20 60  1  0
 21 61  1  6
 22 62  1  0
 22 63  1  0
 24 64  1  0
 25 65  1  0
 26 66  1  0
 27 67  1  0
 28 68  1  0
 32 69  1  0
 32 70  1  0
 33 71  1  0
 33 72  1  0
 34 73  1  0
 34 74  1  0
 35 75  1  1
 37 76  1  0
M  END
$$$$
[H]O[C@@]1([H])[C@]([H])(O[H])[C@@]([H])(O[H])[C@]([H])(n2c([H])nc3c(N([H])[H])nc([H])nc32)O[C@]1([H])C([H])([H])OP(=O)(O[H])O[H]
     RDKit          3D

 41 43  0  0  0  0  0  0  0  0999 V2000
   -5.9103    1.6927    1.8518 N   0  0  0  0  0  0  0  0  0  0  0  0
   -5.0970    0.6032    1.4304 C   0  0  0  0  0  0  0  0  0  0  0  0
   -5.5642   -0.6580    1.3989 N   0  0  0  0  0  0  0  0  0  0  0  0
   -4.7714   -1.6857    0.9932 C   0  0  0  0  0  0  0  0  0  0  0  0
   -3.4968   -1.4937    0.6082 N   0  0  0  0  0  0  0  0  0  0  0  0
   -2.9759   -0.2472    0.6202 C   0  0  0  0  0  0  0  0  0  0  0  0
   -1.7512    0.2049    0.2890 N   0  0  0  0  0  0  0  0  0  0  0  0
   -1.8045    1.5367    0.4993 C   0  0  0  0  0  0  0  0  0  0  0  0
   -3.0269    1.8907    0.9466 N   0  0  0  0  0  0  0  0  0  0  0  0
   -3.7854    0.7902    1.0327 C   0  0  0  0  0  0  0  0  0  0  0  0
   -0.6228   -0.5792   -0.1901 C   0  0  2  0  0  0  0  0  0  0  0  0
    0.4744   -0.3464    0.5727 O   0  0  0  0  0  0  0  0  0  0  0  0
    1.6889   -0.6987    0.1202 C   0  0  2  0  0  0  0  0  0  0  0  0
    2.7490    0.1305    0.8178 C   0  0  0  0  0  0  0  0  0  0  0  0
    4.0202   -0.2066    0.3746 O   0  0  0  0  0  0  0  0  0  0  0  0
    5.2413    0.6531    1.0864 P   0  0  0  0  0  0  0  0  0  0  0  0
    5.4661    0.3152    2.7145 O   0  0  0  0  0  0  0  0  0  0  0  0
    6.6914    0.3033    0.2801 O   0  0  0  0  0  0  0  0  0  0  0  0
    5.0049    2.1409    0.9303 O   0  0  0  0  0  0  0  0  0  0  0  0
    1.9127   -0.6902   -1.3506 C   0  0  1  0  0  0  0  0  0  0  0  0
    2.9442   -1.5796   -1.7207 O   0  0  0  0  0  0  0  0  0  0  0  0
    0.7247   -1.0171   -2.1792 C   0  0  2  0  0  0  0  0  0  0  0  0
    0.9472   -0.5688   -3.5003 O   0  0  0  0  0  0  0  0  0  0  0  0
   -0.4657   -0.3048   -1.6552 C   0  0  1  0  0  0  0  0  0  0  0  0
   -1.6041   -0.8456   -2.2935 O   0  0  0  0  0  0  0  0  0  0  0  0
   -6.0967    2.5046    1.2225 H   0  0  0  0  0  0  0  0  0  0  0  0
   -6.3530    1.7346    2.7926 H   0  0  0  0  0  0  0  0  0  0  0  0
   -5.1821   -2.6694    0.9836 H   0  0  0  0  0  0  0  0  0  0  0  0
   -0.9585    2.1869    0.3196 H   0  0  0  0  0  0  0  0  0  0  0  0
   -0.8953   -1.6568   -0.0885 H   0  0  0  0  0  0  0  0  0  0  0  0
    1.8842   -1.7602    0.4626 H   0  0  0  0  0  0  0  0  0  0  0  0
    2.5769    1.1938    0.4895 H   0  0  0  0  0  0  0  0  0  0  0  0
    2.6429    0.1287    1.9041 H   0  0  0  0  0  0  0  0  0  0  0  0
    5.2101   -0.6016    2.9655 H   0  0  0  0  0  0  0  0  0  0  0  0
    6.6636   -0.6842    0.0790 H   0  0  0  0  0  0  0  0  0  0  0  0
    2.2798    0.3187   -1.6549 H   0  0  0  0  0  0  0  0  0  0  0  0
    3.3373   -1.2528   -2.5579 H   0  0  0  0  0  0  0  0  0  0  0  0
    0.5023   -2.0933   -2.2635 H   0  0  0  0  0  0  0  0  0  0  0  0
    0.0909   -0.3545   -3.9416 H   0  0  0  0  0  0  0  0  0  0  0  0
   -0.4679    0.7753   -1.8267 H   0  0  0  0  0  0  0  0  0  0  0  0
   -2.2232   -0.1275   -2.5636 H   0  0  0  0  0  0  0  0  0  0  0  0
  1  2  1  0
  2  3  2  0
  3  4  1  0
  4  5  2  0
  5  6  1  0
  6  7  1  0
  7  8  1  0
  8  9  2  0
  9 10  1  0
  7 11  1  0
 11 12  1  0
 12 13  1  0
 13 14  1  0
 14 15  1  0
 15 16  1  0
 16 17  1  0
 16 18  1  0
 16 19  2  0
 13 20  1  0
 20 21  1  0
 20 22  1  0
 22 23  1  0
 22 24  1  0
 24 25  1  0
 10  2  1  0
 24 11  1  0
 10  6  2  0
  1 26  1  0
  1 27  1  0
  4 28  1  0
  8 29  1  0
 11 30  1  6
 13 31  1  1
 14 32  1  0
 14 33  1  0
 17 34  1  0
 18 35  1  0
 20 36  1  6
 21 37  1  0
 22 38  1  6
 23 39  1  0
 24 40  1  1
 25 41  1  0
M  END
$$$$
[H]c1nc(-c2c([H])c([H])c([H])c([H])c2N2C([H])([H])C([H])([H])N(C([H])([H])[H])C([H])([H])C2([H])[H])c2nc([H])c(N([H])C(=O)c3c([H])c([H])c(F)c(C(F)(F)F)c3[H])c([H])c2n1
     RDKit          3D

 59 63  0  0  0  0  0  0  0  0999 V2000
   -3.3692   -1.2702    1.0128 C   0  0  0  0  0  0  0  0  0  0  0  0
   -3.9649   -0.3852    0.1050 N   0  0  0  0  0  0  0  0  0  0  0  0
   -4.6592   -0.6273   -1.1074 C   0  0  0  0  0  0  0  0  0  0  0  0
   -6.0018    0.0988   -1.1691 C   0  0  0  0  0  0  0  0  0  0  0  0
   -5.9308    1.4610   -0.7461 N   0  0  0  0  0  0  0  0  0  0  0  0
   -7.2904    1.9485   -0.5990 C   0  0  0  0  0  0  0  0  0  0  0  0
   -5.3156    1.5092    0.5838 C   0  0  0  0  0  0  0  0  0  0  0  0
   -3.8630    1.0544    0.4751 C   0  0  0  0  0  0  0  0  0  0  0  0
   -2.2186   -1.9381    0.7875 C   0  0  0  0  0  0  0  0  0  0  0  0
   -1.4705   -1.8470   -0.4434 C   0  0  0  0  0  0  0  0  0  0  0  0
   -0.1903   -1.3312   -0.3855 C   0  0  0  0  0  0  0  0  0  0  0  0
    0.5562   -1.2137   -1.5360 C   0  0  0  0  0  0  0  0  0  0  0  0
    1.8200   -0.6985   -1.4785 C   0  0  0  0  0  0  0  0  0  0  0  0
    2.4299   -0.2641   -0.2772 C   0  0  0  0  0  0  0  0  0  0  0  0
    3.7399    0.2309   -0.3462 N   0  0  0  0  0  0  0  0  0  0  0  0
    4.4104    0.9212    0.6656 C   0  0  0  0  0  0  0  0  0  0  0  0
    3.9033    1.1894    1.7772 O   0  0  0  0  0  0  0  0  0  0  0  0
    5.7949    1.4009    0.5060 C   0  0  0  0  0  0  0  0  0  0  0  0
    6.5839    0.8003   -0.4246 C   0  0  0  0  0  0  0  0  0  0  0  0
    7.8806    1.1750   -0.6635 C   0  0  0  0  0  0  0  0  0  0  0  0
    8.7222    0.4898   -1.6968 C   0  0  0  0  0  0  0  0  0  0  0  0
    9.8497   -0.0677   -1.1288 F   0  0  0  0  0  0  0  0  0  0  0  0
    9.0325    1.3453   -2.7203 F   0  0  0  0  0  0  0  0  0  0  0  0
    7.9717   -0.5960   -2.1712 F   0  0  0  0  0  0  0  0  0  0  0  0
    8.4068    2.2218    0.0870 C   0  0  0  0  0  0  0  0  0  0  0  0
    9.6794    2.6257   -0.1137 F   0  0  0  0  0  0  0  0  0  0  0  0
    7.6264    2.8439    1.0342 C   0  0  0  0  0  0  0  0  0  0  0  0
    6.3142    2.4355    1.2490 C   0  0  0  0  0  0  0  0  0  0  0  0
    1.6392   -0.4063    0.8305 C   0  0  0  0  0  0  0  0  0  0  0  0
    0.3807   -0.9223    0.7561 N   0  0  0  0  0  0  0  0  0  0  0  0
   -0.0206   -1.6201   -2.6839 N   0  0  0  0  0  0  0  0  0  0  0  0
   -1.2655   -2.1196   -2.7246 C   0  0  0  0  0  0  0  0  0  0  0  0
   -1.9808   -2.2277   -1.5964 N   0  0  0  0  0  0  0  0  0  0  0  0
   -1.6773   -2.8021    1.7775 C   0  0  0  0  0  0  0  0  0  0  0  0
   -2.3032   -2.9756    2.9690 C   0  0  0  0  0  0  0  0  0  0  0  0
   -3.4787   -2.3068    3.2247 C   0  0  0  0  0  0  0  0  0  0  0  0
   -3.9906   -1.4766    2.2628 C   0  0  0  0  0  0  0  0  0  0  0  0
   -4.8835   -1.6565   -1.3707 H   0  0  0  0  0  0  0  0  0  0  0  0
   -4.0731   -0.1660   -1.9554 H   0  0  0  0  0  0  0  0  0  0  0  0
   -6.7022   -0.4567   -0.5293 H   0  0  0  0  0  0  0  0  0  0  0  0
   -6.2956    0.0449   -2.2611 H   0  0  0  0  0  0  0  0  0  0  0  0
   -7.5597    2.1604    0.4436 H   0  0  0  0  0  0  0  0  0  0  0  0
   -7.4615    2.8822   -1.1974 H   0  0  0  0  0  0  0  0  0  0  0  0
   -8.0336    1.2144   -1.0076 H   0  0  0  0  0  0  0  0  0  0  0  0
   -5.9242    0.8088    1.2105 H   0  0  0  0  0  0  0  0  0  0  0  0
   -5.4036    2.5010    1.0511 H   0  0  0  0  0  0  0  0  0  0  0  0
   -3.4141    1.1965    1.4568 H   0  0  0  0  0  0  0  0  0  0  0  0
   -3.4009    1.6389   -0.3275 H   0  0  0  0  0  0  0  0  0  0  0  0
    2.3953   -0.6102   -2.3938 H   0  0  0  0  0  0  0  0  0  0  0  0
    4.2743    0.0690   -1.2535 H   0  0  0  0  0  0  0  0  0  0  0  0
    6.2114   -0.0424   -1.0439 H   0  0  0  0  0  0  0  0  0  0  0  0
    8.0575    3.6667    1.6143 H   0  0  0  0  0  0  0  0  0  0  0  0
    5.7178    2.9215    1.9821 H   0  0  0  0  0  0  0  0  0  0  0  0
    2.0354   -0.1051    1.7938 H   0  0  0  0  0  0  0  0  0  0  0  0
   -1.6574   -2.4271   -3.7054 H   0  0  0  0  0  0  0  0  0  0  0  0
   -0.7568   -3.3091    1.5405 H   0  0  0  0  0  0  0  0  0  0  0  0
   -1.9276   -3.6232    3.7534 H   0  0  0  0  0  0  0  0  0  0  0  0
   -4.0183   -2.4094    4.1564 H   0  0  0  0  0  0  0  0  0  0  0  0
   -4.9304   -0.9541    2.4937 H   0  0  0  0  0  0  0  0  0  0  0  0
  1  2  1  0
  2  3  1  0
  3  4  1  0
  4  5  1  0
  5  6  1  0
  5  7  1  0
  7  8  1  0
  1  9  1  0
  9 10  1  0
 10 11  1  0
 11 12  1  0
 12 13  2  0
 13 14  1  0
 14 15  1  0
 15 16  1  0
 16 17  2  0
 16 18  1  0
 18 19  2  0
 19 20  1  0
 20 21  1  0
 21 22  1  0
 21 23  1  0
 21 24  1  0
 20 25  2  0
 25 26  1  0
 25 27  1  0
 27 28  2  0
 14 29  2  0
 29 30  1  0
 12 31  1  0
 31 32  2  0
 32 33  1  0
  9 34  2  0
 34 35  1  0
 35 36  2  0
 36 37  1  0
 37  1  2  0
  8  2  1  0
 33 10  2  0
 30 11  2  0
 28 18  1  0
  3 38  1  0
  3 39  1  0
  4 40  1  0
  4 41  1  0
  6 42  1  0
  6 43  1  0
  6 44  1  0
  7 45  1  0
  7 46  1  0
  8 47  1  0
  8 48  1  0
 13 49  1  0
 15 50  1  0
 19 51  1  0
 27 52  1  0
 28 53  1  0
 29 54  1  0
 32 55  1  0
 34 56  1  0
 35 57  1  0
 36 58  1  0
 37 59  1  0
M  END
$$$$
[H]OC(=O)[C@@]1([H])N(C(=O)[C@@]2([H])N(C(=O)[C@]([H])(N([H])C(=O)c3c([H])c([H])c(F)c([H])c3[H])C([H])([H])c3c([H])c([H])c([H])c([H])c3[H])C([H])([H])C([H])([H])C2([H])[H])C([H])([H])C([H])([H])C1([H])[H]
     RDKit          3D

 63 66  0  0  0  0  0  0  0  0999 V2000
   -6.2064    2.6348    2.4984 O   0  0  0  0  0  0  0  0  0  0  0  0
   -5.5110    1.9179    1.5509 C   0  0  0  0  0  0  0  0  0  0  0  0
   -5.3954    0.6861    1.7112 O   0  0  0  0  0  0  0  0  0  0  0  0
   -4.9051    2.5471    0.3673 C   0  0  2  0  0  0  0  0  0  0  0  0
   -5.9992    3.1629   -0.5213 C   0  0  0  0  0  0  0  0  0  0  0  0
   -6.3126    1.9736   -1.4093 C   0  0  0  0  0  0  0  0  0  0  0  0
   -4.8839    1.5321   -1.7616 C   0  0  0  0  0  0  0  0  0  0  0  0
   -4.2196    1.6076   -0.4861 N   0  0  0  0  0  0  0  0  0  0  0  0
   -3.0693    0.8804   -0.1284 C   0  0  0  0  0  0  0  0  0  0  0  0
   -2.5522    1.0336    1.0268 O   0  0  0  0  0  0  0  0  0  0  0  0
   -2.3885   -0.0863   -1.0299 C   0  0  2  0  0  0  0  0  0  0  0  0
   -3.2154   -1.3133   -1.3274 C   0  0  0  0  0  0  0  0  0  0  0  0
   -2.5012   -2.4947   -0.6465 C   0  0  0  0  0  0  0  0  0  0  0  0
   -1.6966   -1.7185    0.4041 C   0  0  0  0  0  0  0  0  0  0  0  0
   -1.2242   -0.6498   -0.4073 N   0  0  0  0  0  0  0  0  0  0  0  0
    0.1048   -0.1980   -0.5596 C   0  0  0  0  0  0  0  0  0  0  0  0
    0.3469    0.8471   -1.2815 O   0  0  0  0  0  0  0  0  0  0  0  0
    1.2990   -0.8311    0.0539 C   0  0  1  0  0  0  0  0  0  0  0  0
    1.6040   -2.1723   -0.6023 C   0  0  0  0  0  0  0  0  0  0  0  0
    2.7814   -2.8255   -0.0181 C   0  0  0  0  0  0  0  0  0  0  0  0
    2.6544   -3.6828    1.0548 C   0  0  0  0  0  0  0  0  0  0  0  0
    3.7830   -4.2692    1.5646 C   0  0  0  0  0  0  0  0  0  0  0  0
    5.0159   -4.0142    1.0255 C   0  0  0  0  0  0  0  0  0  0  0  0
    5.1580   -3.1543   -0.0531 C   0  0  0  0  0  0  0  0  0  0  0  0
    4.0332   -2.5561   -0.5784 C   0  0  0  0  0  0  0  0  0  0  0  0
    2.4498    0.0557   -0.2026 N   0  0  0  0  0  0  0  0  0  0  0  0
    3.1694    0.5630    0.8874 C   0  0  0  0  0  0  0  0  0  0  0  0
    2.8562    0.2792    2.0937 O   0  0  0  0  0  0  0  0  0  0  0  0
    4.3097    1.4397    0.7039 C   0  0  0  0  0  0  0  0  0  0  0  0
    4.8769    2.1105    1.7747 C   0  0  0  0  0  0  0  0  0  0  0  0
    5.9581    2.9433    1.6280 C   0  0  0  0  0  0  0  0  0  0  0  0
    6.4866    3.1074    0.3642 C   0  0  0  0  0  0  0  0  0  0  0  0
    7.5515    3.9192    0.1775 F   0  0  0  0  0  0  0  0  0  0  0  0
    5.9609    2.4648   -0.7299 C   0  0  0  0  0  0  0  0  0  0  0  0
    4.8578    1.6268   -0.5233 C   0  0  0  0  0  0  0  0  0  0  0  0
   -6.8023    2.2588    3.1945 H   0  0  0  0  0  0  0  0  0  0  0  0
   -4.2580    3.4086    0.6485 H   0  0  0  0  0  0  0  0  0  0  0  0
   -6.8537    3.5154    0.0547 H   0  0  0  0  0  0  0  0  0  0  0  0
   -5.5248    3.9225   -1.1718 H   0  0  0  0  0  0  0  0  0  0  0  0
   -6.8955    2.2416   -2.2881 H   0  0  0  0  0  0  0  0  0  0  0  0
   -6.8067    1.2198   -0.7553 H   0  0  0  0  0  0  0  0  0  0  0  0
   -4.9436    0.5487   -2.2154 H   0  0  0  0  0  0  0  0  0  0  0  0
   -4.5209    2.3133   -2.4676 H   0  0  0  0  0  0  0  0  0  0  0  0
   -2.1102    0.4320   -2.0020 H   0  0  0  0  0  0  0  0  0  0  0  0
   -4.2265   -1.2817   -0.8750 H   0  0  0  0  0  0  0  0  0  0  0  0
   -3.2313   -1.4531   -2.4206 H   0  0  0  0  0  0  0  0  0  0  0  0
   -3.2029   -3.1983   -0.1986 H   0  0  0  0  0  0  0  0  0  0  0  0
   -1.7976   -2.9310   -1.3804 H   0  0  0  0  0  0  0  0  0  0  0  0
   -2.4689   -1.3904    1.1485 H   0  0  0  0  0  0  0  0  0  0  0  0
   -0.9843   -2.3125    0.9506 H   0  0  0  0  0  0  0  0  0  0  0  0
    1.1443   -1.0144    1.1093 H   0  0  0  0  0  0  0  0  0  0  0  0
    0.7374   -2.8352   -0.5051 H   0  0  0  0  0  0  0  0  0  0  0  0
    1.7914   -2.0299   -1.6897 H   0  0  0  0  0  0  0  0  0  0  0  0
    1.6589   -3.8601    1.4556 H   0  0  0  0  0  0  0  0  0  0  0  0
    3.6414   -4.9441    2.4158 H   0  0  0  0  0  0  0  0  0  0  0  0
    5.8789   -4.5077    1.4705 H   0  0  0  0  0  0  0  0  0  0  0  0
    6.1528   -2.9823   -0.4460 H   0  0  0  0  0  0  0  0  0  0  0  0
    4.1411   -1.8763   -1.4309 H   0  0  0  0  0  0  0  0  0  0  0  0
    2.6860    0.2749   -1.1646 H   0  0  0  0  0  0  0  0  0  0  0  0
    4.4277    1.9524    2.7573 H   0  0  0  0  0  0  0  0  0  0  0  0
    6.3518    3.4383    2.5133 H   0  0  0  0  0  0  0  0  0  0  0  0
    6.3794    2.5980   -1.7145 H   0  0  0  0  0  0  0  0  0  0  0  0
    4.4592    1.1260   -1.4031 H   0  0  0  0  0  0  0  0  0  0  0  0
  1  2  1  0
  2  3  2  0
  2  4  1  0
  4  5  1  0
  5  6  1  0
  6  7  1  0
  7  8  1  0
  8  9  1  0
  9 10  2  0
  9 11  1  0
 11 12  1  0
 12 13  1  0
 13 14  1  0
 14 15  1  0
 15 16  1  0
 16 17  2  0
 16 18  1  0
 18 19  1  0
 19 20  1  0
 20 21  2  0
 21 22  1  0
 22 23  2  0
 23 24  1  0
 24 25  2  0
 18 26  1  0
 26 27  1  0
 27 28  2  0
 27 29  1  0
 29 30  2  0
 30 31  1  0
 31 32  2  0
 32 33  1  0
 32 34  1  0
 34 35  2  0
  8  4  1  0
 15 11  1  0
 25 20  1  0
 35 29  1  0
  1 36  1  0
  4 37  1  1
  5 38  1  0
  5 39  1  0
  6 40  1  0
  6 41  1  0
  7 42  1  0
  7 43  1  0
 11 44  1  6
 12 45  1  0
 12 46  1  0
 13 47  1  0
 13 48  1  0
 14 49  1  0
 14 50  1  0
 18 51  1  1
 19 52  1  0
 19 53  1  0
 21 54  1  0
 22 55  1  0
 23 56  1  0
 24 57  1  0
 25 58  1  0
 26 59  1  0
 30 60  1  0
 31 61  1  0
 34 62  1  0
 35 63  1  0
M  END
$$$$
[H]c1nc([H])c(-c2nc(-c3noc(=O)n3[H])c([H])c3nc(N4C([H])([H])C([H])([H])OC([H])([H])[C@@]4([H])C([H])([H])[H])n(C([H])([H])[C@]4([H])C([H])([H])C([H])([H])[C@@]([H])(C([H])([H])[H])C([H])([H])C4([H])[H])c23)c([H])c1Cl
     RDKit          3D

 67 72  0  0  0  0  0  0  0  0999 V2000
    5.5092    0.0920    1.3314 C   0  0  0  0  0  0  0  0  0  0  0  0
    4.2397   -0.6892    1.5857 C   0  0  1  0  0  0  0  0  0  0  0  0
    3.0868    0.1787    2.0396 C   0  0  0  0  0  0  0  0  0  0  0  0
    1.8235   -0.5008    1.4610 C   0  0  0  0  0  0  0  0  0  0  0  0
    1.7657   -0.1049    0.0558 C   0  0  2  0  0  0  0  0  0  0  0  0
    0.5580   -0.3734   -0.7842 C   0  0  0  0  0  0  0  0  0  0  0  0
   -0.6756    0.1626   -0.3413 N   0  0  0  0  0  0  0  0  0  0  0  0
   -1.0113    1.4882   -0.3964 C   0  0  0  0  0  0  0  0  0  0  0  0
   -2.2590    1.6817    0.0299 N   0  0  0  0  0  0  0  0  0  0  0  0
   -2.7749    0.4928    0.3725 C   0  0  0  0  0  0  0  0  0  0  0  0
   -4.0392    0.1421    0.8338 C   0  0  0  0  0  0  0  0  0  0  0  0
   -4.3285   -1.1714    1.0609 C   0  0  0  0  0  0  0  0  0  0  0  0
   -3.3860   -2.0654    0.8292 N   0  0  0  0  0  0  0  0  0  0  0  0
   -2.1303   -1.7394    0.3748 C   0  0  0  0  0  0  0  0  0  0  0  0
   -1.3090   -2.8745    0.0698 C   0  0  0  0  0  0  0  0  0  0  0  0
   -0.3626   -3.3603    0.8792 C   0  0  0  0  0  0  0  0  0  0  0  0
    0.3886   -4.4684    0.5744 N   0  0  0  0  0  0  0  0  0  0  0  0
    0.1756   -5.1164   -0.6004 C   0  0  0  0  0  0  0  0  0  0  0  0
   -0.7882   -4.6540   -1.4664 C   0  0  0  0  0  0  0  0  0  0  0  0
   -1.0558   -5.4950   -2.9749 Cl  0  0  0  0  0  0  0  0  0  0  0  0
   -1.5290   -3.5270   -1.1213 C   0  0  0  0  0  0  0  0  0  0  0  0
   -1.7726   -0.4496    0.1326 C   0  0  0  0  0  0  0  0  0  0  0  0
   -5.6571   -1.5867    1.5586 C   0  0  0  0  0  0  0  0  0  0  0  0
   -5.9841   -2.8619    1.8052 N   0  0  0  0  0  0  0  0  0  0  0  0
   -7.2304   -2.8959    2.2385 O   0  0  0  0  0  0  0  0  0  0  0  0
   -7.6745   -1.6672    2.2619 C   0  0  0  0  0  0  0  0  0  0  0  0
   -8.8282   -1.3427    2.6249 O   0  0  0  0  0  0  0  0  0  0  0  0
   -6.7199   -0.8243    1.8440 N   0  0  0  0  0  0  0  0  0  0  0  0
   -0.2154    2.6051   -0.8270 N   0  0  0  0  0  0  0  0  0  0  0  0
    0.0379    2.8705   -2.2226 C   0  0  0  0  0  0  0  0  0  0  0  0
    1.4982    3.2146   -2.3808 C   0  0  0  0  0  0  0  0  0  0  0  0
    1.7214    4.3707   -1.6349 O   0  0  0  0  0  0  0  0  0  0  0  0
    1.6105    4.1345   -0.2856 C   0  0  0  0  0  0  0  0  0  0  0  0
    0.3217    3.5297    0.1482 C   0  0  1  0  0  0  0  0  0  0  0  0
   -0.7085    4.6264    0.4436 C   0  0  0  0  0  0  0  0  0  0  0  0
    3.0175   -0.7191   -0.6245 C   0  0  0  0  0  0  0  0  0  0  0  0
    3.8780   -1.4529    0.3508 C   0  0  0  0  0  0  0  0  0  0  0  0
    5.4849    1.0883    1.7976 H   0  0  0  0  0  0  0  0  0  0  0  0
    5.7570    0.1325    0.2329 H   0  0  0  0  0  0  0  0  0  0  0  0
    6.3590   -0.5134    1.7670 H   0  0  0  0  0  0  0  0  0  0  0  0
    4.4092   -1.4267    2.4256 H   0  0  0  0  0  0  0  0  0  0  0  0
    3.1908    1.1544    1.5339 H   0  0  0  0  0  0  0  0  0  0  0  0
    3.0226    0.3025    3.1192 H   0  0  0  0  0  0  0  0  0  0  0  0
    0.9932   -0.1513    2.1044 H   0  0  0  0  0  0  0  0  0  0  0  0
    1.9980   -1.5713    1.6899 H   0  0  0  0  0  0  0  0  0  0  0  0
    2.0374    1.0012    0.0461 H   0  0  0  0  0  0  0  0  0  0  0  0
    0.5640   -1.3647   -1.2560 H   0  0  0  0  0  0  0  0  0  0  0  0
    0.7828    0.2482   -1.7386 H   0  0  0  0  0  0  0  0  0  0  0  0
   -4.7506    0.9299    0.9972 H   0  0  0  0  0  0  0  0  0  0  0  0
   -0.1114   -2.9172    1.8572 H   0  0  0  0  0  0  0  0  0  0  0  0
    0.7851   -5.9862   -0.8083 H   0  0  0  0  0  0  0  0  0  0  0  0
   -2.2791   -3.1787   -1.8114 H   0  0  0  0  0  0  0  0  0  0  0  0
   -6.8108    0.2089    1.7661 H   0  0  0  0  0  0  0  0  0  0  0  0
   -0.2960    2.0537   -2.8893 H   0  0  0  0  0  0  0  0  0  0  0  0
   -0.5695    3.7593   -2.5057 H   0  0  0  0  0  0  0  0  0  0  0  0
    2.1376    2.4034   -1.9329 H   0  0  0  0  0  0  0  0  0  0  0  0
    1.7584    3.4084   -3.4385 H   0  0  0  0  0  0  0  0  0  0  0  0
    1.7248    5.1258    0.2287 H   0  0  0  0  0  0  0  0  0  0  0  0
    2.4492    3.5142    0.0979 H   0  0  0  0  0  0  0  0  0  0  0  0
    0.4843    3.0236    1.1253 H   0  0  0  0  0  0  0  0  0  0  0  0
   -0.3566    5.2397    1.2948 H   0  0  0  0  0  0  0  0  0  0  0  0
   -0.8561    5.2798   -0.4200 H   0  0  0  0  0  0  0  0  0  0  0  0
   -1.6701    4.1817    0.7429 H   0  0  0  0  0  0  0  0  0  0  0  0
    2.6683   -1.4671   -1.3772 H   0  0  0  0  0  0  0  0  0  0  0  0
    3.6115    0.0126   -1.1611 H   0  0  0  0  0  0  0  0  0  0  0  0
    3.4564   -2.4607    0.5807 H   0  0  0  0  0  0  0  0  0  0  0  0
    4.8337   -1.6797   -0.1882 H   0  0  0  0  0  0  0  0  0  0  0  0
  1  2  1  0
  2  3  1  0
  3  4  1  0
  4  5  1  0
  5  6  1  0
  6  7  1  0
  7  8  1  0
  8  9  2  0
  9 10  1  0
 10 11  2  0
 11 12  1  0
 12 13  2  0
 13 14  1  0
 14 15  1  0
 15 16  2  0
 16 17  1  0
 17 18  2  0
 18 19  1  0
 19 20  1  0
 19 21  2  0
 14 22  2  0
 12 23  1  0
 23 24  2  0
 24 25  1  0
 25 26  1  0
 26 27  2  0
 26 28  1  0
  8 29  1  0
 29 30  1  0
 30 31  1  0
 31 32  1  0
 32 33  1  0
 33 34  1  0
 34 35  1  0
  5 36  1  0
 36 37  1  0
 37  2  1  0
 22  7  1  0
 28 23  1  0
 34 29  1  0
 22 10  1  0
 21 15  1  0
  1 38  1  0
  1 39  1  0
  1 40  1  0
  2 41  1  1
  3 42  1  0
  3 43  1  0
  4 44  1  0
  4 45  1  0
  5 46  1  1
  6 47  1  0
  6 48  1  0
 11 49  1  0
 16 50  1  0
 18 51  1  0
 21 52  1  0
 28 53  1  0
 30 54  1  0
 30 55  1  0
 31 56  1  0
 31 57  1  0
 33 58  1  0
 33 59  1  0
 34 60  1  1
 35 61  1  0
 35 62  1  0
 35 63  1  0
 36 64  1  0
 36 65  1  0
 37 66  1  0
 37 67  1  0
M  END
$$$$
[H]O[C@]1([H])C([H])([H])N(c2c([H])c([H])c(N([H])c3nc(N([H])C4([H])C([H])([H])C4([H])[H])c4nc([H])c(C#N)n4n3)c(OC([H])([H])[H])c2[H])C([H])([H])C1([H])[H]
     RDKit          3D

 52 56  0  0  0  0  0  0  0  0999 V2000
    1.3722    1.5030    3.5588 C   0  0  0  0  0  0  0  0  0  0  0  0
    0.5029    1.0471    2.5249 O   0  0  0  0  0  0  0  0  0  0  0  0
    1.0521    0.6701    1.3186 C   0  0  0  0  0  0  0  0  0  0  0  0
    2.3968    0.7165    1.0759 C   0  0  0  0  0  0  0  0  0  0  0  0
    2.9726    0.3510   -0.1054 C   0  0  0  0  0  0  0  0  0  0  0  0
    2.1370   -0.0870   -1.0986 C   0  0  0  0  0  0  0  0  0  0  0  0
    0.7509   -0.1427   -0.8704 C   0  0  0  0  0  0  0  0  0  0  0  0
    0.1635    0.2228    0.3144 C   0  0  0  0  0  0  0  0  0  0  0  0
   -1.2070    0.1963    0.6191 N   0  0  0  0  0  0  0  0  0  0  0  0
   -2.2773   -0.1991   -0.1876 C   0  0  0  0  0  0  0  0  0  0  0  0
   -3.5614   -0.1474    0.3102 N   0  0  0  0  0  0  0  0  0  0  0  0
   -4.6165   -0.5118   -0.4139 C   0  0  0  0  0  0  0  0  0  0  0  0
   -5.9530   -0.4628    0.0605 N   0  0  0  0  0  0  0  0  0  0  0  0
   -6.3616   -0.0438    1.3700 C   0  0  0  0  0  0  0  0  0  0  0  0
   -5.9552    1.2942    1.8888 C   0  0  0  0  0  0  0  0  0  0  0  0
   -5.5287   -0.0087    2.5716 C   0  0  0  0  0  0  0  0  0  0  0  0
   -4.3481   -0.9527   -1.7162 C   0  0  0  0  0  0  0  0  0  0  0  0
   -5.1642   -1.3828   -2.6890 N   0  0  0  0  0  0  0  0  0  0  0  0
   -4.4434   -1.7018   -3.7764 C   0  0  0  0  0  0  0  0  0  0  0  0
   -3.1104   -1.4606   -3.4719 C   0  0  0  0  0  0  0  0  0  0  0  0
   -1.9966   -1.6682   -4.3571 C   0  0  0  0  0  0  0  0  0  0  0  0
   -1.1055   -1.8396   -5.0726 N   0  0  0  0  0  0  0  0  0  0  0  0
   -3.1042   -1.0063   -2.2083 N   0  0  0  0  0  0  0  0  0  0  0  0
   -2.1228   -0.6315   -1.4348 N   0  0  0  0  0  0  0  0  0  0  0  0
    4.3818    0.4085   -0.3345 N   0  0  0  0  0  0  0  0  0  0  0  0
    5.0998    0.0587   -1.5452 C   0  0  0  0  0  0  0  0  0  0  0  0
    6.5239   -0.1704   -1.1554 C   0  0  0  0  0  0  0  0  0  0  0  0
    6.5263   -0.1144    0.3451 C   0  0  2  0  0  0  0  0  0  0  0  0
    6.1230   -1.3731    0.8124 O   0  0  0  0  0  0  0  0  0  0  0  0
    5.3812    0.8371    0.6238 C   0  0  0  0  0  0  0  0  0  0  0  0
    1.9198    2.4172    3.2014 H   0  0  0  0  0  0  0  0  0  0  0  0
    0.8322    1.7920    4.4624 H   0  0  0  0  0  0  0  0  0  0  0  0
    2.1504    0.7641    3.7968 H   0  0  0  0  0  0  0  0  0  0  0  0
    3.0567    1.0666    1.8705 H   0  0  0  0  0  0  0  0  0  0  0  0
    2.5179   -0.3881   -2.0459 H   0  0  0  0  0  0  0  0  0  0  0  0
    0.1315   -0.4930   -1.6781 H   0  0  0  0  0  0  0  0  0  0  0  0
   -1.4889    0.5197    1.5984 H   0  0  0  0  0  0  0  0  0  0  0  0
   -6.6798   -0.7738   -0.6548 H   0  0  0  0  0  0  0  0  0  0  0  0
   -7.4559   -0.2745    1.5638 H   0  0  0  0  0  0  0  0  0  0  0  0
   -6.7030    1.9403    2.3871 H   0  0  0  0  0  0  0  0  0  0  0  0
   -5.1564    1.8818    1.3867 H   0  0  0  0  0  0  0  0  0  0  0  0
   -6.0501   -0.1285    3.5734 H   0  0  0  0  0  0  0  0  0  0  0  0
   -4.4571   -0.1709    2.6210 H   0  0  0  0  0  0  0  0  0  0  0  0
   -4.8276   -2.0746   -4.7088 H   0  0  0  0  0  0  0  0  0  0  0  0
    4.7127   -0.8877   -1.9930 H   0  0  0  0  0  0  0  0  0  0  0  0
    5.0607    0.9141   -2.2404 H   0  0  0  0  0  0  0  0  0  0  0  0
    7.1999    0.6526   -1.5071 H   0  0  0  0  0  0  0  0  0  0  0  0
    6.9554   -1.1019   -1.5663 H   0  0  0  0  0  0  0  0  0  0  0  0
    7.4768    0.2074    0.7854 H   0  0  0  0  0  0  0  0  0  0  0  0
    5.5931   -1.8423    0.1096 H   0  0  0  0  0  0  0  0  0  0  0  0
    5.0431    0.6885    1.6677 H   0  0  0  0  0  0  0  0  0  0  0  0
    5.6404    1.8904    0.4138 H   0  0  0  0  0  0  0  0  0  0  0  0
  1  2  1  0
  2  3  1  0
  3  4  2  0
  4  5  1  0
  5  6  2  0
  6  7  1  0
  7  8  2  0
  8  9  1  0
  9 10  1  0
 10 11  1  0
 11 12  2  0
 12 13  1  0
 13 14  1  0
 14 15  1  0
 15 16  1  0
 12 17  1  0
 17 18  2  0
 18 19  1  0
 19 20  2  0
 20 21  1  0
 21 22  3  0
 20 23  1  0
 23 24  1  0
  5 25  1  0
 25 26  1  0
 26 27  1  0
 27 28  1  0
 28 29  1  0
 28 30  1  0
  8  3  1  0
 24 10  2  0
 30 25  1  0
 16 14  1  0
 23 17  1  0
  1 31  1  0
  1 32  1  0
  1 33  1  0
  4 34  1  0
  6 35  1  0
  7 36  1  0
  9 37  1  0
 13 38  1  0
 14 39  1  0
 15 40  1  0
 15 41  1  0
 16 42  1  0
 16 43  1  0
 19 44  1  0
 26 45  1  0
 26 46  1  0
 27 47  1  0
 27 48  1  0
 28 49  1  1
 29 50  1  0
 30 51  1  0
 30 52  1  0
M  END
$$$$
[H]c1nc([H])n(C([H])([H])[C@@]2(c3c([H])c([H])c([H])c([H])c3[H])OC([H])([H])[C@@]([H])(C([H])([H])Oc3c([H])c([H])c(N4C([H])([H])C([H])([H])N(S(=O)(=O)C([H])(C([H])([H])[H])C([H])([H])[H])C([H])([H])C4([H])[H])c([H])c3[H])O2)c1[H]
     RDKit          3D

 71 75  0  0  0  0  0  0  0  0999 V2000
   10.9409    0.1891    0.4003 C   0  0  0  0  0  0  0  0  0  0  0  0
    9.6028    0.0435   -0.3373 C   0  0  0  0  0  0  0  0  0  0  0  0
    9.3857    1.3613   -1.0251 C   0  0  0  0  0  0  0  0  0  0  0  0
    8.4017   -0.2747    0.9210 S   0  0  0  0  0  0  0  0  0  0  0  0
    8.3413    0.9424    1.7913 O   0  0  0  0  0  0  0  0  0  0  0  0
    8.8594   -1.4115    1.7846 O   0  0  0  0  0  0  0  0  0  0  0  0
    6.8554   -0.6275    0.2997 N   0  0  0  0  0  0  0  0  0  0  0  0
    6.2737    0.4486   -0.4656 C   0  0  0  0  0  0  0  0  0  0  0  0
    4.8658   -0.0229   -0.8556 C   0  0  0  0  0  0  0  0  0  0  0  0
    4.0707   -0.0992    0.3630 N   0  0  0  0  0  0  0  0  0  0  0  0
    4.7950   -0.2564    1.6116 C   0  0  0  0  0  0  0  0  0  0  0  0
    5.9881   -1.1089    1.3411 C   0  0  0  0  0  0  0  0  0  0  0  0
    2.6643    0.0125    0.2555 C   0  0  0  0  0  0  0  0  0  0  0  0
    2.1005    1.2352   -0.1100 C   0  0  0  0  0  0  0  0  0  0  0  0
    0.7540    1.3883   -0.2462 C   0  0  0  0  0  0  0  0  0  0  0  0
   -0.1432    0.3362   -0.0319 C   0  0  0  0  0  0  0  0  0  0  0  0
   -1.4940    0.5471   -0.1885 O   0  0  0  0  0  0  0  0  0  0  0  0
   -2.5319   -0.3793    0.0009 C   0  0  0  0  0  0  0  0  0  0  0  0
   -3.8320    0.3288   -0.3357 C   0  0  2  0  0  0  0  0  0  0  0  0
   -4.0714    1.5628    0.5065 C   0  0  0  0  0  0  0  0  0  0  0  0
   -5.4150    1.7818    0.1860 O   0  0  0  0  0  0  0  0  0  0  0  0
   -5.9719    0.4806    0.1446 C   0  0  2  0  0  0  0  0  0  0  0  0
   -6.4977    0.2780    1.5482 C   0  0  0  0  0  0  0  0  0  0  0  0
   -7.1444   -0.9444    1.8274 N   0  0  0  0  0  0  0  0  0  0  0  0
   -8.4795   -1.1679    1.7128 C   0  0  0  0  0  0  0  0  0  0  0  0
   -8.7503   -2.4705    2.0791 C   0  0  0  0  0  0  0  0  0  0  0  0
   -7.5673   -3.0219    2.4160 N   0  0  0  0  0  0  0  0  0  0  0  0
   -6.5978   -2.0885    2.2589 C   0  0  0  0  0  0  0  0  0  0  0  0
   -4.9676   -0.4141   -0.1329 O   0  0  0  0  0  0  0  0  0  0  0  0
   -7.0105    0.3915   -0.8958 C   0  0  0  0  0  0  0  0  0  0  0  0
   -7.0758   -0.6975   -1.7435 C   0  0  0  0  0  0  0  0  0  0  0  0
   -8.0206   -0.8265   -2.7490 C   0  0  0  0  0  0  0  0  0  0  0  0
   -8.9458    0.1586   -2.9343 C   0  0  0  0  0  0  0  0  0  0  0  0
   -8.9143    1.2675   -2.1053 C   0  0  0  0  0  0  0  0  0  0  0  0
   -7.9678    1.3717   -1.1157 C   0  0  0  0  0  0  0  0  0  0  0  0
    0.4074   -0.8762    0.3272 C   0  0  0  0  0  0  0  0  0  0  0  0
    1.7801   -1.0308    0.4659 C   0  0  0  0  0  0  0  0  0  0  0  0
   11.1337   -0.7805    0.9237 H   0  0  0  0  0  0  0  0  0  0  0  0
   11.7576    0.5080   -0.2467 H   0  0  0  0  0  0  0  0  0  0  0  0
   10.7673    0.9335    1.1989 H   0  0  0  0  0  0  0  0  0  0  0  0
    9.7482   -0.7857   -1.0327 H   0  0  0  0  0  0  0  0  0  0  0  0
    8.6373    2.0035   -0.4822 H   0  0  0  0  0  0  0  0  0  0  0  0
   10.2951    2.0062   -1.0747 H   0  0  0  0  0  0  0  0  0  0  0  0
    9.0968    1.2033   -2.0813 H   0  0  0  0  0  0  0  0  0  0  0  0
    6.1674    1.3793    0.1039 H   0  0  0  0  0  0  0  0  0  0  0  0
    6.8333    0.5370   -1.4148 H   0  0  0  0  0  0  0  0  0  0  0  0
    4.3792    0.6816   -1.5265 H   0  0  0  0  0  0  0  0  0  0  0  0
    4.9025   -1.0495   -1.2709 H   0  0  0  0  0  0  0  0  0  0  0  0
    4.2002   -0.7059    2.3997 H   0  0  0  0  0  0  0  0  0  0  0  0
    5.1349    0.7711    1.8837 H   0  0  0  0  0  0  0  0  0  0  0  0
    5.6622   -2.1414    1.0351 H   0  0  0  0  0  0  0  0  0  0  0  0
    6.5513   -1.2675    2.3102 H   0  0  0  0  0  0  0  0  0  0  0  0
    2.7642    2.0910   -0.2855 H   0  0  0  0  0  0  0  0  0  0  0  0
    0.2865    2.3433   -0.5258 H   0  0  0  0  0  0  0  0  0  0  0  0
   -2.3981   -1.2115   -0.7277 H   0  0  0  0  0  0  0  0  0  0  0  0
   -2.5645   -0.6761    1.0491 H   0  0  0  0  0  0  0  0  0  0  0  0
   -3.7752    0.7239   -1.3990 H   0  0  0  0  0  0  0  0  0  0  0  0
   -3.9803    1.3850    1.5983 H   0  0  0  0  0  0  0  0  0  0  0  0
   -3.4325    2.4274    0.1857 H   0  0  0  0  0  0  0  0  0  0  0  0
   -7.1459    1.1734    1.7771 H   0  0  0  0  0  0  0  0  0  0  0  0
   -5.5984    0.4474    2.2176 H   0  0  0  0  0  0  0  0  0  0  0  0
   -9.2150   -0.4515    1.3937 H   0  0  0  0  0  0  0  0  0  0  0  0
   -9.6789   -3.0082    2.1160 H   0  0  0  0  0  0  0  0  0  0  0  0
   -5.5451   -2.3091    2.4721 H   0  0  0  0  0  0  0  0  0  0  0  0
   -6.3273   -1.4813   -1.5849 H   0  0  0  0  0  0  0  0  0  0  0  0
   -7.9796   -1.7312   -3.3601 H   0  0  0  0  0  0  0  0  0  0  0  0
   -9.7035    0.0562   -3.7417 H   0  0  0  0  0  0  0  0  0  0  0  0
   -9.6771    2.0158   -2.3091 H   0  0  0  0  0  0  0  0  0  0  0  0
   -7.9579    2.2428   -0.4799 H   0  0  0  0  0  0  0  0  0  0  0  0
   -0.2393   -1.7447    0.5042 H   0  0  0  0  0  0  0  0  0  0  0  0
    2.2127   -1.9924    0.7452 H   0  0  0  0  0  0  0  0  0  0  0  0
  1  2  1  0
  2  3  1  0
  2  4  1  0
  4  5  2  0
  4  6  2  0
  4  7  1  0
  7  8  1  0
  8  9  1  0
  9 10  1  0
 10 11  1  0
 11 12  1  0
 10 13  1  0
 13 14  2  0
 14 15  1  0
 15 16  2  0
 16 17  1  0
 17 18  1  0
 18 19  1  0
 19 20  1  0
 20 21  1  0
 21 22  1  0
 22 23  1  1
 23 24  1  0
 24 25  1  0
 25 26  2  0
 26 27  1  0
 27 28  2  0
 22 29  1  0
 22 30  1  0
 30 31  2  0
 31 32  1  0
 32 33  2  0
 33 34  1  0
 34 35  2  0
 16 36  1  0
 36 37  2  0
 12  7  1  0
 37 13  1  0
 29 19  1  0
 35 30  1  0
 28 24  1  0
  1 38  1  0
  1 39  1  0
  1 40  1  0
  2 41  1  0
  3 42  1  0
  3 43  1  0
  3 44  1  0
  8 45  1  0
  8 46  1  0
  9 47  1  0
  9 48  1  0
 11 49  1  0
 11 50  1  0
 12 51  1  0
 12 52  1  0
 14 53  1  0
 15 54  1  0
 18 55  1  0
 18 56  1  0
 19 57  1  6
 20 58  1  0
 20 59  1  0
 23 60  1  0
 23 61  1  0
 25 62  1  0
 26 63  1  0
 28 64  1  0
 31 65  1  0
 32 66  1  0
 33 67  1  0
 34 68  1  0
 35 69  1  0
 36 70  1  0
 37 71  1  0
M  END
$$$$
[H]c1c([H])c([H])c(C2=Nc3c([H])c([H])c([H])c([H])c3N=C(N3C([H])([H])C([H])([H])N(C([H])([H])[H])C([H])([H])C3([H])[H])c3c([H])c([H])c([H])c([H])c32)c([H])c1[H]
     RDKit          3D

 53 57  0  0  0  0  0  0  0  0999 V2000
    0.1977    2.6545    1.6682 C   0  0  0  0  0  0  0  0  0  0  0  0
   -1.1470    2.8385    1.4522 C   0  0  0  0  0  0  0  0  0  0  0  0
   -1.9222    1.9139    0.8006 C   0  0  0  0  0  0  0  0  0  0  0  0
   -1.3054    0.7700    0.3541 C   0  0  0  0  0  0  0  0  0  0  0  0
    0.0595    0.5823    0.5779 C   0  0  0  0  0  0  0  0  0  0  0  0
    0.8321    1.5083    1.2302 C   0  0  0  0  0  0  0  0  0  0  0  0
    0.9201   -0.5754    0.2907 C   0  0  0  0  0  0  0  0  0  0  0  0
    2.2339   -0.1843    0.0029 N   0  0  0  0  0  0  0  0  0  0  0  0
    2.5105    0.6868   -1.1002 C   0  0  0  0  0  0  0  0  0  0  0  0
    3.7421    0.1722   -1.8071 C   0  0  0  0  0  0  0  0  0  0  0  0
    4.8915    0.0897   -0.9687 N   0  0  0  0  0  0  0  0  0  0  0  0
    5.9499    0.9939   -1.3305 C   0  0  0  0  0  0  0  0  0  0  0  0
    4.6338    0.0175    0.4306 C   0  0  0  0  0  0  0  0  0  0  0  0
    3.3394   -0.6755    0.7749 C   0  0  0  0  0  0  0  0  0  0  0  0
    0.6693   -1.8519    0.2685 N   0  0  0  0  0  0  0  0  0  0  0  0
   -0.5326   -2.6007    0.5146 C   0  0  0  0  0  0  0  0  0  0  0  0
   -0.1699   -3.7882    1.0926 C   0  0  0  0  0  0  0  0  0  0  0  0
   -1.0811   -4.7498    1.4619 C   0  0  0  0  0  0  0  0  0  0  0  0
   -2.4311   -4.5325    1.2509 C   0  0  0  0  0  0  0  0  0  0  0  0
   -2.8363   -3.3277    0.6613 C   0  0  0  0  0  0  0  0  0  0  0  0
   -1.9045   -2.3983    0.3084 C   0  0  0  0  0  0  0  0  0  0  0  0
   -2.5994   -1.2774   -0.2920 N   0  0  0  0  0  0  0  0  0  0  0  0
   -2.3689    0.0319   -0.2892 C   0  0  0  0  0  0  0  0  0  0  0  0
   -3.3408    0.7665   -1.0480 C   0  0  0  0  0  0  0  0  0  0  0  0
   -3.0974    1.9846   -1.5910 C   0  0  0  0  0  0  0  0  0  0  0  0
   -4.1051    2.6485   -2.2742 C   0  0  0  0  0  0  0  0  0  0  0  0
   -5.3719    2.1366   -2.4432 C   0  0  0  0  0  0  0  0  0  0  0  0
   -5.5772    0.8816   -1.8701 C   0  0  0  0  0  0  0  0  0  0  0  0
   -4.6073    0.2200   -1.2002 C   0  0  0  0  0  0  0  0  0  0  0  0
    0.8126    3.3758    2.1764 H   0  0  0  0  0  0  0  0  0  0  0  0
   -1.6555    3.7372    1.7915 H   0  0  0  0  0  0  0  0  0  0  0  0
   -2.9914    2.0206    0.6613 H   0  0  0  0  0  0  0  0  0  0  0  0
    1.8555    1.2901    1.3651 H   0  0  0  0  0  0  0  0  0  0  0  0
    2.5842    1.7319   -0.8130 H   0  0  0  0  0  0  0  0  0  0  0  0
    1.6770    0.6188   -1.8646 H   0  0  0  0  0  0  0  0  0  0  0  0
    3.9578    0.8710   -2.6406 H   0  0  0  0  0  0  0  0  0  0  0  0
    3.5381   -0.8202   -2.2553 H   0  0  0  0  0  0  0  0  0  0  0  0
    5.5654    2.0352   -1.1261 H   0  0  0  0  0  0  0  0  0  0  0  0
    6.8582    0.7764   -0.7413 H   0  0  0  0  0  0  0  0  0  0  0  0
    6.1308    0.9139   -2.4130 H   0  0  0  0  0  0  0  0  0  0  0  0
    5.4429   -0.4915    0.9927 H   0  0  0  0  0  0  0  0  0  0  0  0
    4.5726    1.0505    0.8314 H   0  0  0  0  0  0  0  0  0  0  0  0
    3.4326   -1.7722    0.5125 H   0  0  0  0  0  0  0  0  0  0  0  0
    3.1425   -0.6728    1.8665 H   0  0  0  0  0  0  0  0  0  0  0  0
    0.8834   -3.9933    1.2738 H   0  0  0  0  0  0  0  0  0  0  0  0
   -0.7790   -5.6926    1.9218 H   0  0  0  0  0  0  0  0  0  0  0  0
   -3.1608   -5.2795    1.5362 H   0  0  0  0  0  0  0  0  0  0  0  0
   -3.8887   -3.1559    0.4957 H   0  0  0  0  0  0  0  0  0  0  0  0
   -2.1093    2.4952   -1.5577 H   0  0  0  0  0  0  0  0  0  0  0  0
   -3.8892    3.6372   -2.7073 H   0  0  0  0  0  0  0  0  0  0  0  0
   -6.1490    2.6655   -2.9786 H   0  0  0  0  0  0  0  0  0  0  0  0
   -6.5960    0.4826   -2.0133 H   0  0  0  0  0  0  0  0  0  0  0  0
   -4.8163   -0.7595   -0.7695 H   0  0  0  0  0  0  0  0  0  0  0  0
  1  2  2  0
  2  3  1  0
  3  4  2  0
  4  5  1  0
  5  6  2  0
  5  7  1  0
  7  8  1  0
  8  9  1  0
  9 10  1  0
 10 11  1  0
 11 12  1  0
 11 13  1  0
 13 14  1  0
  7 15  2  0
 15 16  1  0
 16 17  2  0
 17 18  1  0
 18 19  2  0
 19 20  1  0
 20 21  2  0
 21 22  1  0
 22 23  2  0
 23 24  1  0
 24 25  2  0
 25 26  1  0
 26 27  2  0
 27 28  1  0
 28 29  2  0
  6  1  1  0
 14  8  1  0
 21 16  1  0
 29 24  1  0
 23  4  1  0
  1 30  1  0
  2 31  1  0
  3 32  1  0
  6 33  1  0
  9 34  1  0
  9 35  1  0
 10 36  1  0
 10 37  1  0
 12 38  1  0
 12 39  1  0
 12 40  1  0
 13 41  1  0
 13 42  1  0
 14 43  1  0
 14 44  1  0
 17 45  1  0
 18 46  1  0
 19 47  1  0
 20 48  1  0
 25 49  1  0
 26 50  1  0
 27 51  1  0
 28 52  1  0
 29 53  1  0
M  END
$$$$
[H]/C(C(=O)N1C([H])([H])C([H])([H])N(c2c([H])c([H])c([H])c([H])c2[H])C([H])([H])[C@@]1([H])C([H])([H])[H])=C(/[H])c1c([H])c([H])c([H])c([H])c1F
     RDKit          3D

 45 47  0  0  0  0  0  0  0  0999 V2000
    1.1112    1.4515   -1.8376 C   0  0  0  0  0  0  0  0  0  0  0  0
   -0.2890    1.1479   -1.5073 C   0  0  2  0  0  0  0  0  0  0  0  0
   -0.7582    1.6984   -0.1491 C   0  0  0  0  0  0  0  0  0  0  0  0
   -2.2027    1.5712   -0.1806 N   0  0  0  0  0  0  0  0  0  0  0  0
   -2.9084    0.8697   -1.1932 C   0  0  0  0  0  0  0  0  0  0  0  0
   -2.1900   -0.3143   -1.7858 C   0  0  0  0  0  0  0  0  0  0  0  0
   -0.7325   -0.1987   -1.4907 N   0  0  0  0  0  0  0  0  0  0  0  0
   -0.0701   -1.3776   -1.2056 C   0  0  0  0  0  0  0  0  0  0  0  0
   -0.6921   -2.5131   -1.3147 O   0  0  0  0  0  0  0  0  0  0  0  0
    1.3226   -1.5493   -0.7655 C   0  0  0  0  0  0  0  0  0  0  0  0
    1.8699   -2.6899   -0.5272 C   0  0  0  0  0  0  0  0  0  0  0  0
    3.2267   -2.9423   -0.0930 C   0  0  0  0  0  0  0  0  0  0  0  0
    3.6318   -4.2834    0.1158 C   0  0  0  0  0  0  0  0  0  0  0  0
    4.8712   -4.6432    0.5215 C   0  0  0  0  0  0  0  0  0  0  0  0
    5.8209   -3.6803    0.7553 C   0  0  0  0  0  0  0  0  0  0  0  0
    5.4945   -2.3699    0.5726 C   0  0  0  0  0  0  0  0  0  0  0  0
    4.1983   -2.0126    0.1494 C   0  0  0  0  0  0  0  0  0  0  0  0
    3.9511   -0.6928   -0.0099 F   0  0  0  0  0  0  0  0  0  0  0  0
   -2.8983    2.2083    0.9135 C   0  0  0  0  0  0  0  0  0  0  0  0
   -4.2632    2.3570    0.9072 C   0  0  0  0  0  0  0  0  0  0  0  0
   -4.9364    2.9627    1.9692 C   0  0  0  0  0  0  0  0  0  0  0  0
   -4.2484    3.4347    3.0660 C   0  0  0  0  0  0  0  0  0  0  0  0
   -2.8816    3.2877    3.0756 C   0  0  0  0  0  0  0  0  0  0  0  0
   -2.2190    2.6905    2.0285 C   0  0  0  0  0  0  0  0  0  0  0  0
    1.7373    1.6775   -0.9468 H   0  0  0  0  0  0  0  0  0  0  0  0
    1.5614    0.7278   -2.5215 H   0  0  0  0  0  0  0  0  0  0  0  0
    1.1344    2.4281   -2.4193 H   0  0  0  0  0  0  0  0  0  0  0  0
   -0.9574    1.7176   -2.2613 H   0  0  0  0  0  0  0  0  0  0  0  0
   -0.3892    1.0427    0.6634 H   0  0  0  0  0  0  0  0  0  0  0  0
   -0.4331    2.7486   -0.0289 H   0  0  0  0  0  0  0  0  0  0  0  0
   -3.8848    0.4819   -0.7925 H   0  0  0  0  0  0  0  0  0  0  0  0
   -3.1580    1.5698   -2.0163 H   0  0  0  0  0  0  0  0  0  0  0  0
   -2.2589   -0.3116   -2.8837 H   0  0  0  0  0  0  0  0  0  0  0  0
   -2.6008   -1.2550   -1.3950 H   0  0  0  0  0  0  0  0  0  0  0  0
    1.8785   -0.6591   -0.6329 H   0  0  0  0  0  0  0  0  0  0  0  0
    1.2007   -3.5746   -0.6802 H   0  0  0  0  0  0  0  0  0  0  0  0
    2.8923   -5.0361   -0.0663 H   0  0  0  0  0  0  0  0  0  0  0  0
    5.1381   -5.6745    0.6686 H   0  0  0  0  0  0  0  0  0  0  0  0
    6.8312   -3.9274    1.0833 H   0  0  0  0  0  0  0  0  0  0  0  0
    6.2181   -1.5819    0.7472 H   0  0  0  0  0  0  0  0  0  0  0  0
   -4.8494    2.0100    0.0765 H   0  0  0  0  0  0  0  0  0  0  0  0
   -6.0147    3.0761    1.9549 H   0  0  0  0  0  0  0  0  0  0  0  0
   -4.7892    3.9080    3.8931 H   0  0  0  0  0  0  0  0  0  0  0  0
   -2.3295    3.6498    3.9223 H   0  0  0  0  0  0  0  0  0  0  0  0
   -1.1353    2.5699    2.0282 H   0  0  0  0  0  0  0  0  0  0  0  0
  1  2  1  0
  2  3  1  0
  3  4  1  0
  4  5  1  0
  5  6  1  0
  6  7  1  0
  7  8  1  0
  8  9  2  0
  8 10  1  0
 10 11  2  0
 11 12  1  0
 12 13  2  0
 13 14  1  0
 14 15  2  0
 15 16  1  0
 16 17  2  0
 17 18  1  0
  4 19  1  0
 19 20  2  0
 20 21  1  0
 21 22  2  0
 22 23  1  0
 23 24  2  0
  7  2  1  0
 17 12  1  0
 24 19  1  0
  1 25  1  0
  1 26  1  0
  1 27  1  0
  2 28  1  6
  3 29  1  0
  3 30  1  0
  5 31  1  0
  5 32  1  0
  6 33  1  0
  6 34  1  0
 10 35  1  0
 11 36  1  0
 13 37  1  0
 14 38  1  0
 15 39  1  0
 16 40  1  0
 20 41  1  0
 21 42  1  0
 22 43  1  0
 23 44  1  0
 24 45  1  0
M  END
$$$$
[H]O[C@@]([H])(C([H])([H])N([H])C(=O)c1c(C([H])([H])[H])c(/C([H])=C2\C(=O)N([H])c3c([H])c([H])c(F)c([H])c32)n([H])c1C([H])([H])[H])C([H])([H])N(C([H])([H])[H])C([H])([H])[H]
     RDKit          3D

 54 56  0  0  0  0  0  0  0  0999 V2000
   -0.3067   -3.1506   -1.9619 C   0  0  0  0  0  0  0  0  0  0  0  0
    0.4775   -1.9405   -1.5823 C   0  0  0  0  0  0  0  0  0  0  0  0
    1.8298   -1.8935   -1.5310 N   0  0  0  0  0  0  0  0  0  0  0  0
    2.2574   -0.6777   -1.1756 C   0  0  0  0  0  0  0  0  0  0  0  0
    3.6566   -0.2969   -1.0813 C   0  0  0  0  0  0  0  0  0  0  0  0
    4.2948   -0.0974    0.0485 C   0  0  0  0  0  0  0  0  0  0  0  0
    3.7693   -0.2148    1.3905 C   0  0  0  0  0  0  0  0  0  0  0  0
    2.5974   -0.5597    1.6973 O   0  0  0  0  0  0  0  0  0  0  0  0
    4.8363    0.1313    2.2722 N   0  0  0  0  0  0  0  0  0  0  0  0
    5.9987    0.4560    1.5263 C   0  0  0  0  0  0  0  0  0  0  0  0
    7.2826    0.8474    1.8678 C   0  0  0  0  0  0  0  0  0  0  0  0
    8.2539    1.1065    0.9289 C   0  0  0  0  0  0  0  0  0  0  0  0
    7.9570    0.9767   -0.4204 C   0  0  0  0  0  0  0  0  0  0  0  0
    8.9137    1.2299   -1.3647 F   0  0  0  0  0  0  0  0  0  0  0  0
    6.6815    0.5880   -0.7590 C   0  0  0  0  0  0  0  0  0  0  0  0
    5.7103    0.3289    0.1819 C   0  0  0  0  0  0  0  0  0  0  0  0
    1.1414    0.0939   -0.9903 C   0  0  0  0  0  0  0  0  0  0  0  0
    1.0832    1.5546   -0.6209 C   0  0  0  0  0  0  0  0  0  0  0  0
    0.0002   -0.6931   -1.2429 C   0  0  0  0  0  0  0  0  0  0  0  0
   -1.3752   -0.2510   -1.1289 C   0  0  0  0  0  0  0  0  0  0  0  0
   -1.5262    1.0166   -0.9461 O   0  0  0  0  0  0  0  0  0  0  0  0
   -2.5344   -1.0267   -1.1908 N   0  0  0  0  0  0  0  0  0  0  0  0
   -3.8769   -0.4506   -1.0562 C   0  0  0  0  0  0  0  0  0  0  0  0
   -4.1202    0.2095    0.2586 C   0  0  2  0  0  0  0  0  0  0  0  0
   -3.9465   -0.7582    1.2719 O   0  0  0  0  0  0  0  0  0  0  0  0
   -5.5826    0.6704    0.3289 C   0  0  0  0  0  0  0  0  0  0  0  0
   -5.9022    1.2494    1.5988 N   0  0  0  0  0  0  0  0  0  0  0  0
   -5.9063    0.3119    2.7001 C   0  0  0  0  0  0  0  0  0  0  0  0
   -7.1948    1.8988    1.5713 C   0  0  0  0  0  0  0  0  0  0  0  0
   -0.9654   -2.9221   -2.8298 H   0  0  0  0  0  0  0  0  0  0  0  0
    0.4324   -3.8952   -2.3916 H   0  0  0  0  0  0  0  0  0  0  0  0
   -0.7955   -3.6506   -1.1244 H   0  0  0  0  0  0  0  0  0  0  0  0
    2.4544   -2.6917   -1.7387 H   0  0  0  0  0  0  0  0  0  0  0  0
    4.2661   -0.1546   -1.9948 H   0  0  0  0  0  0  0  0  0  0  0  0
    4.7632    0.1410    3.2960 H   0  0  0  0  0  0  0  0  0  0  0  0
    7.5405    0.9570    2.9232 H   0  0  0  0  0  0  0  0  0  0  0  0
    9.2592    1.4125    1.1824 H   0  0  0  0  0  0  0  0  0  0  0  0
    6.4446    0.4851   -1.8041 H   0  0  0  0  0  0  0  0  0  0  0  0
    0.4786    1.6878    0.2951 H   0  0  0  0  0  0  0  0  0  0  0  0
    0.7035    2.1367   -1.4615 H   0  0  0  0  0  0  0  0  0  0  0  0
    2.1325    1.9093   -0.4442 H   0  0  0  0  0  0  0  0  0  0  0  0
   -2.5465   -2.0617   -1.3265 H   0  0  0  0  0  0  0  0  0  0  0  0
   -4.6645   -1.2023   -1.2482 H   0  0  0  0  0  0  0  0  0  0  0  0
   -3.9805    0.2887   -1.8894 H   0  0  0  0  0  0  0  0  0  0  0  0
   -3.4472    1.0408    0.4688 H   0  0  0  0  0  0  0  0  0  0  0  0
   -4.2076   -1.6749    0.9364 H   0  0  0  0  0  0  0  0  0  0  0  0
   -6.1945   -0.2692    0.2281 H   0  0  0  0  0  0  0  0  0  0  0  0
   -5.7947    1.3784   -0.4901 H   0  0  0  0  0  0  0  0  0  0  0  0
   -4.9088    0.4038    3.2136 H   0  0  0  0  0  0  0  0  0  0  0  0
   -6.1372   -0.7178    2.3872 H   0  0  0  0  0  0  0  0  0  0  0  0
   -6.6383    0.6298    3.4982 H   0  0  0  0  0  0  0  0  0  0  0  0
   -7.2545    2.5614    0.7083 H   0  0  0  0  0  0  0  0  0  0  0  0
   -7.3956    2.4143    2.5441 H   0  0  0  0  0  0  0  0  0  0  0  0
   -8.0139    1.1347    1.4862 H   0  0  0  0  0  0  0  0  0  0  0  0
  1  2  1  0
  2  3  1  0
  3  4  1  0
  4  5  1  0
  5  6  2  0
  6  7  1  0
  7  8  2  0
  7  9  1  0
  9 10  1  0
 10 11  2  0
 11 12  1  0
 12 13  2  0
 13 14  1  0
 13 15  1  0
 15 16  2  0
  4 17  2  0
 17 18  1  0
 17 19  1  0
 19 20  1  0
 20 21  2  0
 20 22  1  0
 22 23  1  0
 23 24  1  0
 24 25  1  0
 24 26  1  0
 26 27  1  0
 27 28  1  0
 27 29  1  0
 19  2  2  0
 16  6  1  0
 16 10  1  0
  1 30  1  0
  1 31  1  0
  1 32  1  0
  3 33  1  0
  5 34  1  0
  9 35  1  0
 11 36  1  0
 12 37  1  0
 15 38  1  0
 18 39  1  0
 18 40  1  0
 18 41  1  0
 22 42  1  0
 23 43  1  0
 23 44  1  0
 24 45  1  1
 25 46  1  0
 26 47  1  0
 26 48  1  0
 28 49  1  0
 28 50  1  0
 28 51  1  0
 29 52  1  0
 29 53  1  0
 29 54  1  0
M  END
$$$$
[H]OC([H])([H])C([H])([H])C([H])([H])C([H])([H])Oc1nc2c([H])c(C([H])([H])N3C([H])([H])C([H])([H])C(C([H])([H])[H])(C([H])([H])[H])C3([H])[H])c([H])c([H])c2c(C([H])([H])[H])c1[H]
     RDKit          3D

 55 57  0  0  0  0  0  0  0  0999 V2000
    1.6176    1.5655    3.7315 C   0  0  0  0  0  0  0  0  0  0  0  0
    1.7942    0.8852    2.4209 C   0  0  0  0  0  0  0  0  0  0  0  0
    2.9791    0.2624    2.0966 C   0  0  0  0  0  0  0  0  0  0  0  0
    3.1294   -0.3638    0.8799 C   0  0  0  0  0  0  0  0  0  0  0  0
    4.3450   -0.9810    0.5940 O   0  0  0  0  0  0  0  0  0  0  0  0
    4.4602   -1.6143   -0.6682 C   0  0  0  0  0  0  0  0  0  0  0  0
    5.8303   -2.2181   -0.7930 C   0  0  0  0  0  0  0  0  0  0  0  0
    6.9240   -1.1978   -0.6795 C   0  0  0  0  0  0  0  0  0  0  0  0
    6.7774   -0.1630   -1.7791 C   0  0  0  0  0  0  0  0  0  0  0  0
    7.7874    0.7971   -1.6969 O   0  0  0  0  0  0  0  0  0  0  0  0
    2.0965   -0.3510    0.0234 N   0  0  0  0  0  0  0  0  0  0  0  0
    0.9144    0.2355    0.2720 C   0  0  0  0  0  0  0  0  0  0  0  0
   -0.1376    0.2281   -0.6438 C   0  0  0  0  0  0  0  0  0  0  0  0
   -1.3411    0.8389   -0.3615 C   0  0  0  0  0  0  0  0  0  0  0  0
   -2.4361    0.8157   -1.3578 C   0  0  0  0  0  0  0  0  0  0  0  0
   -3.7004    1.2666   -0.8707 N   0  0  0  0  0  0  0  0  0  0  0  0
   -4.6260    1.1858   -2.0054 C   0  0  0  0  0  0  0  0  0  0  0  0
   -5.1365   -0.2393   -1.9460 C   0  0  0  0  0  0  0  0  0  0  0  0
   -5.3850   -0.3789   -0.4590 C   0  0  0  0  0  0  0  0  0  0  0  0
   -5.4688   -1.8195   -0.0207 C   0  0  0  0  0  0  0  0  0  0  0  0
   -6.6800    0.3426   -0.1579 C   0  0  0  0  0  0  0  0  0  0  0  0
   -4.2129    0.3486    0.1266 C   0  0  0  0  0  0  0  0  0  0  0  0
   -1.4586    1.4564    0.8646 C   0  0  0  0  0  0  0  0  0  0  0  0
   -0.4268    1.4745    1.7862 C   0  0  0  0  0  0  0  0  0  0  0  0
    0.7575    0.8644    1.4890 C   0  0  0  0  0  0  0  0  0  0  0  0
    2.6490    1.7210    4.1627 H   0  0  0  0  0  0  0  0  0  0  0  0
    1.0581    0.9591    4.4575 H   0  0  0  0  0  0  0  0  0  0  0  0
    1.1863    2.5749    3.6379 H   0  0  0  0  0  0  0  0  0  0  0  0
    3.8166    0.2575    2.8030 H   0  0  0  0  0  0  0  0  0  0  0  0
    4.2342   -0.8548   -1.4399 H   0  0  0  0  0  0  0  0  0  0  0  0
    3.6665   -2.4190   -0.6500 H   0  0  0  0  0  0  0  0  0  0  0  0
    5.9095   -2.6462   -1.8304 H   0  0  0  0  0  0  0  0  0  0  0  0
    5.9489   -3.0507   -0.0890 H   0  0  0  0  0  0  0  0  0  0  0  0
    6.9246   -0.6961    0.3280 H   0  0  0  0  0  0  0  0  0  0  0  0
    7.9059   -1.7049   -0.7434 H   0  0  0  0  0  0  0  0  0  0  0  0
    5.8242    0.3681   -1.7193 H   0  0  0  0  0  0  0  0  0  0  0  0
    6.7982   -0.7082   -2.7427 H   0  0  0  0  0  0  0  0  0  0  0  0
    8.6333    0.3423   -1.3894 H   0  0  0  0  0  0  0  0  0  0  0  0
    0.0042   -0.2661   -1.5844 H   0  0  0  0  0  0  0  0  0  0  0  0
   -2.1232    1.4953   -2.2046 H   0  0  0  0  0  0  0  0  0  0  0  0
   -2.5078   -0.1971   -1.8511 H   0  0  0  0  0  0  0  0  0  0  0  0
   -5.5057    1.8396   -1.8204 H   0  0  0  0  0  0  0  0  0  0  0  0
   -4.1392    1.4231   -2.9572 H   0  0  0  0  0  0  0  0  0  0  0  0
   -4.3557   -0.9272   -2.3101 H   0  0  0  0  0  0  0  0  0  0  0  0
   -6.0666   -0.3646   -2.5352 H   0  0  0  0  0  0  0  0  0  0  0  0
   -6.4841   -2.2049   -0.2070 H   0  0  0  0  0  0  0  0  0  0  0  0
   -4.6628   -2.4165   -0.4619 H   0  0  0  0  0  0  0  0  0  0  0  0
   -5.3197   -1.8400    1.0842 H   0  0  0  0  0  0  0  0  0  0  0  0
   -7.2417   -0.1649    0.6272 H   0  0  0  0  0  0  0  0  0  0  0  0
   -6.4121    1.3920    0.1091 H   0  0  0  0  0  0  0  0  0  0  0  0
   -7.2988    0.4232   -1.0822 H   0  0  0  0  0  0  0  0  0  0  0  0
   -3.4290   -0.4014    0.3595 H   0  0  0  0  0  0  0  0  0  0  0  0
   -4.5160    0.9093    1.0421 H   0  0  0  0  0  0  0  0  0  0  0  0
   -2.3564    1.9507    1.1522 H   0  0  0  0  0  0  0  0  0  0  0  0
   -0.5443    1.9662    2.7422 H   0  0  0  0  0  0  0  0  0  0  0  0
  1  2  1  0
  2  3  2  0
  3  4  1  0
  4  5  1  0
  5  6  1  0
  6  7  1  0
  7  8  1  0
  8  9  1  0
  9 10  1  0
  4 11  2  0
 11 12  1  0
 12 13  2  0
 13 14  1  0
 14 15  1  0
 15 16  1  0
 16 17  1  0
 17 18  1  0
 18 19  1  0
 19 20  1  0
 19 21  1  0
 19 22  1  0
 14 23  2  0
 23 24  1  0
 24 25  2  0
 25  2  1  0
 25 12  1  0
 22 16  1  0
  1 26  1  0
  1 27  1  0
  1 28  1  0
  3 29  1  0
  6 30  1  0
  6 31  1  0
  7 32  1  0
  7 33  1  0
  8 34  1  0
  8 35  1  0
  9 36  1  0
  9 37  1  0
 10 38  1  0
 13 39  1  0
 15 40  1  0
 15 41  1  0
 17 42  1  0
 17 43  1  0
 18 44  1  0
 18 45  1  0
 20 46  1  0
 20 47  1  0
 20 48  1  0
 21 49  1  0
 21 50  1  0
 21 51  1  0
 22 52  1  0
 22 53  1  0
 23 54  1  0
 24 55  1  0
M  END
$$$$
[H]c1nc([C@@]2([H])C([H])([H])[C@]2([H])C([H])([H])Oc2nc(C([H])([H])[H])nc([H])c2-c2c([H])nn(C([H])([H])[H])c2[H])c([H])c([H])c1OC([H])([H])[H]
     RDKit          3D

 47 50  0  0  0  0  0  0  0  0999 V2000
    8.0068   -1.0242   -0.8836 C   0  0  0  0  0  0  0  0  0  0  0  0
    6.8984   -1.6738   -1.4736 O   0  0  0  0  0  0  0  0  0  0  0  0
    5.5992   -1.3170   -1.1032 C   0  0  0  0  0  0  0  0  0  0  0  0
    5.3340   -0.3388   -0.1678 C   0  0  0  0  0  0  0  0  0  0  0  0
    4.0087   -0.0516    0.1372 C   0  0  0  0  0  0  0  0  0  0  0  0
    2.9503   -0.7046   -0.4573 C   0  0  0  0  0  0  0  0  0  0  0  0
    3.2466   -1.6525   -1.3648 N   0  0  0  0  0  0  0  0  0  0  0  0
    4.5210   -1.9530   -1.6812 C   0  0  0  0  0  0  0  0  0  0  0  0
    1.5329   -0.3827   -0.1175 C   0  0  1  0  0  0  0  0  0  0  0  0
    1.1745   -0.1070    1.3218 C   0  0  0  0  0  0  0  0  0  0  0  0
    1.1891    1.0005    0.3378 C   0  0  2  0  0  0  0  0  0  0  0  0
   -0.0748    1.6584   -0.1229 C   0  0  0  0  0  0  0  0  0  0  0  0
   -1.2384    0.9481    0.2446 O   0  0  0  0  0  0  0  0  0  0  0  0
   -2.4573    1.4876   -0.1420 C   0  0  0  0  0  0  0  0  0  0  0  0
   -2.5731    2.6184   -0.8276 N   0  0  0  0  0  0  0  0  0  0  0  0
   -3.7588    3.1507   -1.2082 C   0  0  0  0  0  0  0  0  0  0  0  0
   -3.7827    4.4250   -1.9755 C   0  0  0  0  0  0  0  0  0  0  0  0
   -4.8680    2.4936   -0.8700 N   0  0  0  0  0  0  0  0  0  0  0  0
   -4.8023    1.3555   -0.1825 C   0  0  0  0  0  0  0  0  0  0  0  0
   -3.5880    0.7866    0.2215 C   0  0  0  0  0  0  0  0  0  0  0  0
   -3.5837   -0.4449    0.9619 C   0  0  0  0  0  0  0  0  0  0  0  0
   -2.8840   -0.8364    2.0845 C   0  0  0  0  0  0  0  0  0  0  0  0
   -3.2447   -2.0932    2.3765 N   0  0  0  0  0  0  0  0  0  0  0  0
   -4.1241   -2.5460    1.5297 N   0  0  0  0  0  0  0  0  0  0  0  0
   -4.7065   -3.8812    1.5870 C   0  0  0  0  0  0  0  0  0  0  0  0
   -4.3606   -1.5604    0.6410 C   0  0  0  0  0  0  0  0  0  0  0  0
    8.1649   -0.0097   -1.3218 H   0  0  0  0  0  0  0  0  0  0  0  0
    8.9363   -1.6266   -1.0093 H   0  0  0  0  0  0  0  0  0  0  0  0
    7.8909   -0.8837    0.2115 H   0  0  0  0  0  0  0  0  0  0  0  0
    6.1496    0.1745    0.2996 H   0  0  0  0  0  0  0  0  0  0  0  0
    3.7795    0.7117    0.8679 H   0  0  0  0  0  0  0  0  0  0  0  0
    4.7594   -2.7278   -2.4226 H   0  0  0  0  0  0  0  0  0  0  0  0
    0.7809   -0.9819   -0.6620 H   0  0  0  0  0  0  0  0  0  0  0  0
    2.0344   -0.2227    2.0153 H   0  0  0  0  0  0  0  0  0  0  0  0
    0.2239   -0.4699    1.7276 H   0  0  0  0  0  0  0  0  0  0  0  0
    2.0539    1.6943    0.4071 H   0  0  0  0  0  0  0  0  0  0  0  0
   -0.0685    1.7891   -1.2270 H   0  0  0  0  0  0  0  0  0  0  0  0
   -0.1310    2.6661    0.3494 H   0  0  0  0  0  0  0  0  0  0  0  0
   -2.7812    4.5735   -2.4736 H   0  0  0  0  0  0  0  0  0  0  0  0
   -4.5166    4.4027   -2.8043 H   0  0  0  0  0  0  0  0  0  0  0  0
   -4.0444    5.2868   -1.3286 H   0  0  0  0  0  0  0  0  0  0  0  0
   -5.7232    0.8329    0.0845 H   0  0  0  0  0  0  0  0  0  0  0  0
   -2.1889   -0.2216    2.6005 H   0  0  0  0  0  0  0  0  0  0  0  0
   -4.8733   -4.2242    2.6165 H   0  0  0  0  0  0  0  0  0  0  0  0
   -5.7077   -3.8351    1.0809 H   0  0  0  0  0  0  0  0  0  0  0  0
   -4.0945   -4.6129    1.0274 H   0  0  0  0  0  0  0  0  0  0  0  0
   -5.0589   -1.6727   -0.1793 H   0  0  0  0  0  0  0  0  0  0  0  0
  1  2  1  0
  2  3  1  0
  3  4  2  0
  4  5  1  0
  5  6  2  0
  6  7  1  0
  7  8  2  0
  6  9  1  0
  9 10  1  0
 10 11  1  0
 11 12  1  0
 12 13  1  0
 13 14  1  0
 14 15  2  0
 15 16  1  0
 16 17  1  0
 16 18  2  0
 18 19  1  0
 19 20  2  0
 20 21  1  0
 21 22  1  0
 22 23  2  0
 23 24  1  0
 24 25  1  0
 24 26  1  0
  8  3  1  0
 11  9  1  0
 20 14  1  0
 26 21  2  0
  1 27  1  0
  1 28  1  0
  1 29  1  0
  4 30  1  0
  5 31  1  0
  8 32  1  0
  9 33  1  6
 10 34  1  0
 10 35  1  0
 11 36  1  1
 12 37  1  0
 12 38  1  0
 17 39  1  0
 17 40  1  0
 17 41  1  0
 19 42  1  0
 22 43  1  0
 25 44  1  0
 25 45  1  0
 25 46  1  0
 26 47  1  0
M  END
$$$$
[H]c1nc2c(-c3c([H])c([H])c([H])c4c([H])c([H])c([H])c([H])c34)c([H])nn2c([H])c1-c1c([H])c([H])c(N2C([H])([H])C([H])([H])N([H])C([H])([H])C2([H])[H])c([H])c1[H]
     RDKit          3D

 54 59  0  0  0  0  0  0  0  0999 V2000
    8.0455   -0.7130   -0.4967 C   0  0  0  0  0  0  0  0  0  0  0  0
    6.5929   -1.0293   -0.2236 C   0  0  0  0  0  0  0  0  0  0  0  0
    5.7694    0.1558   -0.2224 N   0  0  0  0  0  0  0  0  0  0  0  0
    6.2551    1.5045   -0.4124 C   0  0  0  0  0  0  0  0  0  0  0  0
    7.7228    1.5861   -0.6631 C   0  0  0  0  0  0  0  0  0  0  0  0
    8.1720    0.4162   -1.4018 N   0  0  0  0  0  0  0  0  0  0  0  0
    4.3657    0.0062   -0.0314 C   0  0  0  0  0  0  0  0  0  0  0  0
    3.7121    0.2331    1.1414 C   0  0  0  0  0  0  0  0  0  0  0  0
    2.3287    0.0861    1.2857 C   0  0  0  0  0  0  0  0  0  0  0  0
    1.6280   -0.3078    0.1656 C   0  0  0  0  0  0  0  0  0  0  0  0
    2.2500   -0.5539   -1.0603 C   0  0  0  0  0  0  0  0  0  0  0  0
    3.6123   -0.3881   -1.1229 C   0  0  0  0  0  0  0  0  0  0  0  0
    0.1861   -0.4793    0.2103 C   0  0  0  0  0  0  0  0  0  0  0  0
   -0.5602    0.3150    1.0449 C   0  0  0  0  0  0  0  0  0  0  0  0
   -1.8943    0.1937    1.0998 N   0  0  0  0  0  0  0  0  0  0  0  0
   -2.5677   -0.7144    0.3384 C   0  0  0  0  0  0  0  0  0  0  0  0
   -3.9251   -1.0321    0.2062 C   0  0  0  0  0  0  0  0  0  0  0  0
   -3.9337   -2.0360   -0.7318 C   0  0  0  0  0  0  0  0  0  0  0  0
   -2.6702   -2.2747   -1.1091 N   0  0  0  0  0  0  0  0  0  0  0  0
   -1.8246   -1.4869   -0.4751 N   0  0  0  0  0  0  0  0  0  0  0  0
   -0.4878   -1.4038   -0.5663 C   0  0  0  0  0  0  0  0  0  0  0  0
   -4.9828   -0.3976    0.9687 C   0  0  0  0  0  0  0  0  0  0  0  0
   -4.9099   -0.3150    2.3564 C   0  0  0  0  0  0  0  0  0  0  0  0
   -5.8868    0.2483    3.1350 C   0  0  0  0  0  0  0  0  0  0  0  0
   -7.0046    0.7628    2.5106 C   0  0  0  0  0  0  0  0  0  0  0  0
   -7.1386    0.7116    1.1197 C   0  0  0  0  0  0  0  0  0  0  0  0
   -8.2622    1.2420    0.5393 C   0  0  0  0  0  0  0  0  0  0  0  0
   -8.4062    1.2087   -0.8138 C   0  0  0  0  0  0  0  0  0  0  0  0
   -7.4247    0.6441   -1.5909 C   0  0  0  0  0  0  0  0  0  0  0  0
   -6.2873    0.1090   -0.9812 C   0  0  0  0  0  0  0  0  0  0  0  0
   -6.1067    0.1237    0.3825 C   0  0  0  0  0  0  0  0  0  0  0  0
    8.6021   -1.5927   -0.8627 H   0  0  0  0  0  0  0  0  0  0  0  0
    8.5355   -0.4017    0.4622 H   0  0  0  0  0  0  0  0  0  0  0  0
    6.2345   -1.6768   -1.0556 H   0  0  0  0  0  0  0  0  0  0  0  0
    6.4915   -1.5395    0.7548 H   0  0  0  0  0  0  0  0  0  0  0  0
    6.0163    2.1606    0.4558 H   0  0  0  0  0  0  0  0  0  0  0  0
    5.7294    1.9137   -1.3264 H   0  0  0  0  0  0  0  0  0  0  0  0
    8.3339    1.6352    0.2713 H   0  0  0  0  0  0  0  0  0  0  0  0
    7.9691    2.5046   -1.2348 H   0  0  0  0  0  0  0  0  0  0  0  0
    7.6761    0.2576   -2.2856 H   0  0  0  0  0  0  0  0  0  0  0  0
    4.2958    0.5397    1.9983 H   0  0  0  0  0  0  0  0  0  0  0  0
    1.8517    0.2759    2.2301 H   0  0  0  0  0  0  0  0  0  0  0  0
    1.6522   -0.8604   -1.9069 H   0  0  0  0  0  0  0  0  0  0  0  0
    4.1349   -0.5711   -2.0688 H   0  0  0  0  0  0  0  0  0  0  0  0
   -0.0405    1.0517    1.6642 H   0  0  0  0  0  0  0  0  0  0  0  0
   -4.8347   -2.5312   -1.0888 H   0  0  0  0  0  0  0  0  0  0  0  0
    0.1037   -2.0221   -1.2194 H   0  0  0  0  0  0  0  0  0  0  0  0
   -4.0347   -0.7209    2.8253 H   0  0  0  0  0  0  0  0  0  0  0  0
   -5.8473    0.3194    4.2156 H   0  0  0  0  0  0  0  0  0  0  0  0
   -7.8002    1.2175    3.0978 H   0  0  0  0  0  0  0  0  0  0  0  0
   -9.0468    1.6897    1.1279 H   0  0  0  0  0  0  0  0  0  0  0  0
   -9.2916    1.6235   -1.3262 H   0  0  0  0  0  0  0  0  0  0  0  0
   -7.5454    0.6204   -2.6659 H   0  0  0  0  0  0  0  0  0  0  0  0
   -5.5527   -0.3081   -1.6491 H   0  0  0  0  0  0  0  0  0  0  0  0
  1  2  1  0
  2  3  1  0
  3  4  1  0
  4  5  1  0
  5  6  1  0
  3  7  1  0
  7  8  2  0
  8  9  1  0
  9 10  2  0
 10 11  1  0
 11 12  2  0
 10 13  1  0
 13 14  1  0
 14 15  2  0
 15 16  1  0
 16 17  2  0
 17 18  1  0
 18 19  2  0
 19 20  1  0
 20 21  1  0
 17 22  1  0
 22 23  2  0
 23 24  1  0
 24 25  2  0
 25 26  1  0
 26 27  2  0
 27 28  1  0
 28 29  2  0
 29 30  1  0
 30 31  2  0
  6  1  1  0
 12  7  1  0
 21 13  2  0
 31 22  1  0
 20 16  1  0
 31 26  1  0
  1 32  1  0
  1 33  1  0
  2 34  1  0
  2 35  1  0
  4 36  1  0
  4 37  1  0
  5 38  1  0
  5 39  1  0
  6 40  1  0
  8 41  1  0
  9 42  1  0
 11 43  1  0
 12 44  1  0
 14 45  1  0
 18 46  1  0
 21 47  1  0
 23 48  1  0
 24 49  1  0
 25 50  1  0
 27 51  1  0
 28 52  1  0
 29 53  1  0
 30 54  1  0
M  END
$$$$
[H]Oc1c([H])c([H])c(-c2c([H])c([H])c(C([H])([H])C([H])([H])C([H])([H])C(=O)N([H])C([H])([H])C([H])([H])C([H])([H])C([H])([H])C([H])([H])C([H])([H])C(=O)N(C([H])([H])[H])C([H])([H])[H])c([H])c2[H])c([H])c1[H]
     RDKit          3D

 64 65  0  0  0  0  0  0  0  0999 V2000
   -6.2775    3.3558   -1.6929 C   0  0  0  0  0  0  0  0  0  0  0  0
   -6.4801    2.8513   -0.3636 N   0  0  0  0  0  0  0  0  0  0  0  0
   -7.8012    2.9428    0.2273 C   0  0  0  0  0  0  0  0  0  0  0  0
   -5.4067    2.2589    0.3962 C   0  0  0  0  0  0  0  0  0  0  0  0
   -5.6335    1.8295    1.5569 O   0  0  0  0  0  0  0  0  0  0  0  0
   -4.0703    2.1657   -0.1913 C   0  0  0  0  0  0  0  0  0  0  0  0
   -3.0449    1.4900    0.6464 C   0  0  0  0  0  0  0  0  0  0  0  0
   -3.3146    0.0742    1.0084 C   0  0  0  0  0  0  0  0  0  0  0  0
   -3.4517   -0.8308   -0.1968 C   0  0  0  0  0  0  0  0  0  0  0  0
   -3.7241   -2.2552    0.2046 C   0  0  0  0  0  0  0  0  0  0  0  0
   -2.6321   -2.8393    1.0576 C   0  0  0  0  0  0  0  0  0  0  0  0
   -1.3515   -2.8532    0.3990 N   0  0  0  0  0  0  0  0  0  0  0  0
   -0.2281   -3.3680    1.0629 C   0  0  0  0  0  0  0  0  0  0  0  0
   -0.3460   -3.8147    2.2298 O   0  0  0  0  0  0  0  0  0  0  0  0
    1.0869   -3.3654    0.3460 C   0  0  0  0  0  0  0  0  0  0  0  0
    2.1041   -3.9606    1.2634 C   0  0  0  0  0  0  0  0  0  0  0  0
    3.4566   -3.9959    0.6058 C   0  0  0  0  0  0  0  0  0  0  0  0
    3.9360   -2.6447    0.2326 C   0  0  0  0  0  0  0  0  0  0  0  0
    4.6643   -1.9489    1.1809 C   0  0  0  0  0  0  0  0  0  0  0  0
    5.1603   -0.6853    0.9332 C   0  0  0  0  0  0  0  0  0  0  0  0
    4.9058   -0.1179   -0.3154 C   0  0  0  0  0  0  0  0  0  0  0  0
    4.1828   -0.7980   -1.2689 C   0  0  0  0  0  0  0  0  0  0  0  0
    3.6917   -2.0724   -0.9974 C   0  0  0  0  0  0  0  0  0  0  0  0
    5.4222    1.2043   -0.5795 C   0  0  0  0  0  0  0  0  0  0  0  0
    5.7922    1.5864   -1.8579 C   0  0  0  0  0  0  0  0  0  0  0  0
    6.2908    2.8575   -2.1279 C   0  0  0  0  0  0  0  0  0  0  0  0
    6.4289    3.7773   -1.1118 C   0  0  0  0  0  0  0  0  0  0  0  0
    6.9292    5.0549   -1.3787 O   0  0  0  0  0  0  0  0  0  0  0  0
    6.0723    3.4257    0.1519 C   0  0  0  0  0  0  0  0  0  0  0  0
    5.5794    2.1633    0.4079 C   0  0  0  0  0  0  0  0  0  0  0  0
   -5.6801    4.3000   -1.7192 H   0  0  0  0  0  0  0  0  0  0  0  0
   -7.2257    3.4336   -2.2601 H   0  0  0  0  0  0  0  0  0  0  0  0
   -5.6601    2.6173   -2.2815 H   0  0  0  0  0  0  0  0  0  0  0  0
   -7.7267    3.2466    1.2996 H   0  0  0  0  0  0  0  0  0  0  0  0
   -8.2520    1.9204    0.2482 H   0  0  0  0  0  0  0  0  0  0  0  0
   -8.4707    3.5965   -0.3323 H   0  0  0  0  0  0  0  0  0  0  0  0
   -4.1707    1.7378   -1.2099 H   0  0  0  0  0  0  0  0  0  0  0  0
   -3.7095    3.2205   -0.3521 H   0  0  0  0  0  0  0  0  0  0  0  0
   -2.0546    1.5338    0.1477 H   0  0  0  0  0  0  0  0  0  0  0  0
   -2.9475    2.0655    1.5923 H   0  0  0  0  0  0  0  0  0  0  0  0
   -2.3902   -0.2939    1.5471 H   0  0  0  0  0  0  0  0  0  0  0  0
   -4.1348   -0.0794    1.7258 H   0  0  0  0  0  0  0  0  0  0  0  0
   -2.5774   -0.8120   -0.8454 H   0  0  0  0  0  0  0  0  0  0  0  0
   -4.3308   -0.4854   -0.7833 H   0  0  0  0  0  0  0  0  0  0  0  0
   -4.6754   -2.3739    0.7633 H   0  0  0  0  0  0  0  0  0  0  0  0
   -3.7771   -2.8596   -0.7209 H   0  0  0  0  0  0  0  0  0  0  0  0
   -2.5825   -2.3403    2.0599 H   0  0  0  0  0  0  0  0  0  0  0  0
   -2.9070   -3.8968    1.2591 H   0  0  0  0  0  0  0  0  0  0  0  0
   -1.2690   -2.4826   -0.5609 H   0  0  0  0  0  0  0  0  0  0  0  0
    1.0088   -3.9442   -0.5825 H   0  0  0  0  0  0  0  0  0  0  0  0
    1.3180   -2.2897    0.1849 H   0  0  0  0  0  0  0  0  0  0  0  0
    1.8079   -4.9264    1.6929 H   0  0  0  0  0  0  0  0  0  0  0  0
    2.1933   -3.2539    2.1382 H   0  0  0  0  0  0  0  0  0  0  0  0
    4.1558   -4.4841    1.3239 H   0  0  0  0  0  0  0  0  0  0  0  0
    3.4333   -4.6663   -0.2868 H   0  0  0  0  0  0  0  0  0  0  0  0
    4.8645   -2.3908    2.1582 H   0  0  0  0  0  0  0  0  0  0  0  0
    5.7327   -0.1137    1.6506 H   0  0  0  0  0  0  0  0  0  0  0  0
    3.9837   -0.3598   -2.2401 H   0  0  0  0  0  0  0  0  0  0  0  0
    3.1165   -2.6346   -1.7321 H   0  0  0  0  0  0  0  0  0  0  0  0
    5.7132    0.9209   -2.7068 H   0  0  0  0  0  0  0  0  0  0  0  0
    6.5815    3.1619   -3.1241 H   0  0  0  0  0  0  0  0  0  0  0  0
    7.2025    5.3553   -2.2886 H   0  0  0  0  0  0  0  0  0  0  0  0
    6.1770    4.1500    0.9745 H   0  0  0  0  0  0  0  0  0  0  0  0
    5.3122    1.9396    1.4315 H   0  0  0  0  0  0  0  0  0  0  0  0
  1  2  1  0
  2  3  1  0
  2  4  1  0
  4  5  2  0
  4  6  1  0
  6  7  1  0
  7  8  1  0
  8  9  1  0
  9 10  1  0
 10 11  1  0
 11 12  1  0
 12 13  1  0
 13 14  2  0
 13 15  1  0
 15 16  1  0
 16 17  1  0
 17 18  1  0
 18 19  2  0
 19 20  1  0
 20 21  2  0
 21 22  1  0
 22 23  2  0
 21 24  1  0
 24 25  2  0
 25 26  1  0
 26 27  2  0
 27 28  1  0
 27 29  1  0
 29 30  2  0
 23 18  1  0
 30 24  1  0
  1 31  1  0
  1 32  1  0
  1 33  1  0
  3 34  1  0
  3 35  1  0
  3 36  1  0
  6 37  1  0
  6 38  1  0
  7 39  1  0
  7 40  1  0
  8 41  1  0
  8 42  1  0
  9 43  1  0
  9 44  1  0
 10 45  1  0
 10 46  1  0
 11 47  1  0
 11 48  1  0
 12 49  1  0
 15 50  1  0
 15 51  1  0
 16 52  1  0
 16 53  1  0
 17 54  1  0
 17 55  1  0
 19 56  1  0
 20 57  1  0
 22 58  1  0
 23 59  1  0
 25 60  1  0
 26 61  1  0
 28 62  1  0
 29 63  1  0
 30 64  1  0
M  END
$$$$
[H]c1nc2nc(N([H])[H])nc(N([H])[H])c2c(C([H])([H])[H])c1C([H])([H])N(c1c([H])c([H])c(Cl)c(Cl)c1[H])C([H])([H])[H]
     RDKit          3D

 40 42  0  0  0  0  0  0  0  0999 V2000
    2.3033   -1.9046   -0.8755 C   0  0  0  0  0  0  0  0  0  0  0  0
    2.1342   -0.7349   -0.0359 N   0  0  0  0  0  0  0  0  0  0  0  0
    0.9948   -0.6147    0.8442 C   0  0  0  0  0  0  0  0  0  0  0  0
   -0.3142   -0.4758    0.1624 C   0  0  0  0  0  0  0  0  0  0  0  0
   -0.4125   -0.4038   -1.1925 C   0  0  0  0  0  0  0  0  0  0  0  0
   -1.5894   -0.2566   -1.7950 N   0  0  0  0  0  0  0  0  0  0  0  0
   -2.7031   -0.1761   -1.0597 C   0  0  0  0  0  0  0  0  0  0  0  0
   -3.8923   -0.0264   -1.6462 N   0  0  0  0  0  0  0  0  0  0  0  0
   -5.0370    0.0615   -0.9642 C   0  0  0  0  0  0  0  0  0  0  0  0
   -6.2854    0.2228   -1.6733 N   0  0  0  0  0  0  0  0  0  0  0  0
   -4.9986   -0.0023    0.3650 N   0  0  0  0  0  0  0  0  0  0  0  0
   -3.8308   -0.1546    1.0581 C   0  0  0  0  0  0  0  0  0  0  0  0
   -3.8641   -0.2073    2.4582 N   0  0  0  0  0  0  0  0  0  0  0  0
   -2.6675   -0.2436    0.3479 C   0  0  0  0  0  0  0  0  0  0  0  0
   -1.4520   -0.3969    0.9771 C   0  0  0  0  0  0  0  0  0  0  0  0
   -1.3712   -0.4851    2.4345 C   0  0  0  0  0  0  0  0  0  0  0  0
    3.1627    0.2549   -0.1340 C   0  0  0  0  0  0  0  0  0  0  0  0
    3.0121    1.2349   -1.0895 C   0  0  0  0  0  0  0  0  0  0  0  0
    3.9767    2.2070   -1.2170 C   0  0  0  0  0  0  0  0  0  0  0  0
    5.0786    2.1994   -0.3991 C   0  0  0  0  0  0  0  0  0  0  0  0
    6.3343    3.4233   -0.5292 Cl  0  0  0  0  0  0  0  0  0  0  0  0
    5.2226    1.2026    0.5658 C   0  0  0  0  0  0  0  0  0  0  0  0
    6.6106    1.1471    1.6350 Cl  0  0  0  0  0  0  0  0  0  0  0  0
    4.2652    0.2324    0.6971 C   0  0  0  0  0  0  0  0  0  0  0  0
    3.1420   -2.4922   -0.4510 H   0  0  0  0  0  0  0  0  0  0  0  0
    1.3778   -2.4908   -0.9926 H   0  0  0  0  0  0  0  0  0  0  0  0
    2.5985   -1.5375   -1.8824 H   0  0  0  0  0  0  0  0  0  0  0  0
    1.1578    0.1891    1.5993 H   0  0  0  0  0  0  0  0  0  0  0  0
    0.9653   -1.5718    1.4062 H   0  0  0  0  0  0  0  0  0  0  0  0
    0.4529   -0.4492   -1.8471 H   0  0  0  0  0  0  0  0  0  0  0  0
   -6.3389    0.7146   -2.5789 H   0  0  0  0  0  0  0  0  0  0  0  0
   -7.1419   -0.1671   -1.2562 H   0  0  0  0  0  0  0  0  0  0  0  0
   -3.7881    0.7062    2.9961 H   0  0  0  0  0  0  0  0  0  0  0  0
   -3.9765   -1.0595    3.0374 H   0  0  0  0  0  0  0  0  0  0  0  0
   -1.7278   -1.4342    2.8896 H   0  0  0  0  0  0  0  0  0  0  0  0
   -0.2494   -0.6392    2.6482 H   0  0  0  0  0  0  0  0  0  0  0  0
   -1.5072    0.4318    3.0095 H   0  0  0  0  0  0  0  0  0  0  0  0
    2.1549    1.2814   -1.7624 H   0  0  0  0  0  0  0  0  0  0  0  0
    3.8939    2.9899   -1.9528 H   0  0  0  0  0  0  0  0  0  0  0  0
    4.3097   -0.5746    1.4251 H   0  0  0  0  0  0  0  0  0  0  0  0
  1  2  1  0
  2  3  1  0
  3  4  1  0
  4  5  2  0
  5  6  1  0
  6  7  2  0
  7  8  1  0
  8  9  2  0
  9 10  1  0
  9 11  1  0
 11 12  2  0
 12 13  1  0
 12 14  1  0
 14 15  2  0
 15 16  1  0
  2 17  1  0
 17 18  2  0
 18 19  1  0
 19 20  2  0
 20 21  1  0
 20 22  1  0
 22 23  1  0
 22 24  2  0
 15  4  1  0
 24 17  1  0
 14  7  1  0
  1 25  1  0
  1 26  1  0
  1 27  1  0
  3 28  1  0
  3 29  1  0
  5 30  1  0
 10 31  1  0
 10 32  1  0
 13 33  1  0
 13 34  1  0
 16 35  1  0
 16 36  1  0
 16 37  1  0
 18 38  1  0
 19 39  1  0
 24 40  1  0
M  END
$$$$
[H]c1nc(N([H])C(=O)c2c([H])c([H])c(-c3nc([C@@]4([H])C([H])([H])N(C5([H])C([H])([H])OC5([H])[H])C([H])([H])C4([H])[H])n4c([H])c([H])nc(N([H])[H])c34)c(F)c2[H])c([H])c(C(F)(F)F)c1[H]
     RDKit          3D

 62 67  0  0  0  0  0  0  0  0999 V2000
    0.1756   -4.3887   -0.6410 N   0  0  0  0  0  0  0  0  0  0  0  0
   -1.1116   -3.8169   -0.5615 C   0  0  0  0  0  0  0  0  0  0  0  0
   -2.2109   -4.6145   -0.5375 N   0  0  0  0  0  0  0  0  0  0  0  0
   -3.4599   -4.1590   -0.4193 C   0  0  0  0  0  0  0  0  0  0  0  0
   -3.6182   -2.7985   -0.3199 C   0  0  0  0  0  0  0  0  0  0  0  0
   -2.5605   -1.9710   -0.3394 N   0  0  0  0  0  0  0  0  0  0  0  0
   -2.5256   -0.6072   -0.2414 C   0  0  0  0  0  0  0  0  0  0  0  0
   -1.2383   -0.2738   -0.3057 N   0  0  0  0  0  0  0  0  0  0  0  0
   -0.4343   -1.3550   -0.4405 C   0  0  0  0  0  0  0  0  0  0  0  0
    1.0273   -1.4482   -0.5126 C   0  0  0  0  0  0  0  0  0  0  0  0
    1.6951   -1.9878   -1.5768 C   0  0  0  0  0  0  0  0  0  0  0  0
    3.0599   -2.1424   -1.5565 C   0  0  0  0  0  0  0  0  0  0  0  0
    3.8544   -1.7684   -0.4854 C   0  0  0  0  0  0  0  0  0  0  0  0
    3.1829   -1.2005    0.5924 C   0  0  0  0  0  0  0  0  0  0  0  0
    1.8124   -1.0457    0.5797 C   0  0  0  0  0  0  0  0  0  0  0  0
    1.1899   -0.4666    1.6393 F   0  0  0  0  0  0  0  0  0  0  0  0
    5.2493   -2.1727   -0.3968 C   0  0  0  0  0  0  0  0  0  0  0  0
    5.4129   -3.3667   -0.9600 O   0  0  0  0  0  0  0  0  0  0  0  0
    6.3592   -1.5993    0.1490 N   0  0  0  0  0  0  0  0  0  0  0  0
    6.7371   -0.3380    0.5892 C   0  0  0  0  0  0  0  0  0  0  0  0
    6.2110    0.8573    0.1673 C   0  0  0  0  0  0  0  0  0  0  0  0
    6.6411    2.0156    0.7638 C   0  0  0  0  0  0  0  0  0  0  0  0
    7.5781    1.9683    1.7637 C   0  0  0  0  0  0  0  0  0  0  0  0
    8.0959    0.7626    2.1778 C   0  0  0  0  0  0  0  0  0  0  0  0
    7.6789   -0.3332    1.5970 N   0  0  0  0  0  0  0  0  0  0  0  0
    6.1706    3.3435    0.2726 C   0  0  0  0  0  0  0  0  0  0  0  0
    4.8067    3.3972    0.2322 F   0  0  0  0  0  0  0  0  0  0  0  0
    6.6902    4.3794    1.0658 F   0  0  0  0  0  0  0  0  0  0  0  0
    6.7043    3.4861   -1.0177 F   0  0  0  0  0  0  0  0  0  0  0  0
   -1.2912   -2.4473   -0.4598 C   0  0  0  0  0  0  0  0  0  0  0  0
   -3.7481    0.1641   -0.0999 C   0  0  2  0  0  0  0  0  0  0  0  0
   -4.3198    0.7010   -1.3944 C   0  0  0  0  0  0  0  0  0  0  0  0
   -5.4866    1.5336   -0.8144 C   0  0  0  0  0  0  0  0  0  0  0  0
   -5.1045    1.8117    0.5148 N   0  0  0  0  0  0  0  0  0  0  0  0
   -3.7362    1.4200    0.7232 C   0  0  0  0  0  0  0  0  0  0  0  0
   -5.6205    2.8708    1.2335 C   0  0  0  0  0  0  0  0  0  0  0  0
   -7.1264    2.8122    1.5217 C   0  0  0  0  0  0  0  0  0  0  0  0
   -7.1292    4.1892    1.4760 O   0  0  0  0  0  0  0  0  0  0  0  0
   -6.1153    4.0967    0.4870 C   0  0  0  0  0  0  0  0  0  0  0  0
    0.4673   -4.8106   -1.5604 H   0  0  0  0  0  0  0  0  0  0  0  0
    0.7633   -4.3766    0.2278 H   0  0  0  0  0  0  0  0  0  0  0  0
   -4.3362   -4.8375   -0.4093 H   0  0  0  0  0  0  0  0  0  0  0  0
   -4.6080   -2.4143   -0.2280 H   0  0  0  0  0  0  0  0  0  0  0  0
    1.1390   -2.3069   -2.4556 H   0  0  0  0  0  0  0  0  0  0  0  0
    3.5892   -2.5739   -2.4181 H   0  0  0  0  0  0  0  0  0  0  0  0
    3.7625   -0.8920    1.4373 H   0  0  0  0  0  0  0  0  0  0  0  0
    7.2582   -2.2623    0.0704 H   0  0  0  0  0  0  0  0  0  0  0  0
    5.4657    0.8760   -0.6351 H   0  0  0  0  0  0  0  0  0  0  0  0
    7.9282    2.9020    2.2411 H   0  0  0  0  0  0  0  0  0  0  0  0
    8.8377    0.7134    2.9752 H   0  0  0  0  0  0  0  0  0  0  0  0
   -4.5719   -0.4762    0.3248 H   0  0  0  0  0  0  0  0  0  0  0  0
   -3.6483    1.4140   -1.8854 H   0  0  0  0  0  0  0  0  0  0  0  0
   -4.6951   -0.1045   -2.0207 H   0  0  0  0  0  0  0  0  0  0  0  0
   -6.3748    0.8301   -0.7984 H   0  0  0  0  0  0  0  0  0  0  0  0
   -5.7183    2.3769   -1.4818 H   0  0  0  0  0  0  0  0  0  0  0  0
   -3.4715    1.2710    1.7649 H   0  0  0  0  0  0  0  0  0  0  0  0
   -3.0961    2.2012    0.2272 H   0  0  0  0  0  0  0  0  0  0  0  0
   -5.1020    3.2128    2.1515 H   0  0  0  0  0  0  0  0  0  0  0  0
   -7.7191    2.4349    0.6407 H   0  0  0  0  0  0  0  0  0  0  0  0
   -7.3707    2.3410    2.4800 H   0  0  0  0  0  0  0  0  0  0  0  0
   -5.4612    5.0062    0.6310 H   0  0  0  0  0  0  0  0  0  0  0  0
   -6.5336    3.9678   -0.4974 H   0  0  0  0  0  0  0  0  0  0  0  0
  1  2  1  0
  2  3  2  0
  3  4  1  0
  4  5  2  0
  5  6  1  0
  6  7  1  0
  7  8  2  0
  8  9  1  0
  9 10  1  0
 10 11  2  0
 11 12  1  0
 12 13  2  0
 13 14  1  0
 14 15  2  0
 15 16  1  0
 13 17  1  0
 17 18  2  0
 17 19  1  0
 19 20  1  0
 20 21  2  0
 21 22  1  0
 22 23  2  0
 23 24  1  0
 24 25  2  0
 22 26  1  0
 26 27  1  0
 26 28  1  0
 26 29  1  0
  9 30  2  0
  7 31  1  0
 31 32  1  0
 32 33  1  0
 33 34  1  0
 34 35  1  0
 34 36  1  0
 36 37  1  0
 37 38  1  0
 38 39  1  0
 30  2  1  0
 35 31  1  0
 39 36  1  0
 30  6  1  0
 15 10  1  0
 25 20  1  0
  1 40  1  0
  1 41  1  0
  4 42  1  0
  5 43  1  0
 11 44  1  0
 12 45  1  0
 14 46  1  0
 19 47  1  0
 21 48  1  0
 23 49  1  0
 24 50  1  0
 31 51  1  1
 32 52  1  0
 32 53  1  0
 33 54  1  0
 33 55  1  0
 35 56  1  0
 35 57  1  0
 36 58  1  0
 37 59  1  0
 37 60  1  0
 39 61  1  0
 39 62  1  0
M  END
$$$$
[H]/C(C(=O)N([H])[C@@]12C([H])([H])C([H])([H])C(=O)[C@]3([H])Oc4c(N=C(N([H])[H])N([H])[H])c([H])c([H])c5c4[C@]13C([H])([H])C([H])([H])N(C([H])([H])C1([H])C([H])([H])C1([H])[H])C2([H])C5([H])[H])=C(/[H])c1c([H])oc([H])c1[H]
     RDKit          3D

 68 74  0  0  0  0  0  0  0  0999 V2000
   -6.8228   -3.5010    1.4585 N   0  0  0  0  0  0  0  0  0  0  0  0
   -5.7635   -2.6037    1.1489 C   0  0  0  0  0  0  0  0  0  0  0  0
   -5.1452   -1.7960    2.1256 N   0  0  0  0  0  0  0  0  0  0  0  0
   -5.3731   -2.5366   -0.0505 N   0  0  0  0  0  0  0  0  0  0  0  0
   -4.3435   -1.7204   -0.5801 C   0  0  0  0  0  0  0  0  0  0  0  0
   -4.6601   -0.9222   -1.6699 C   0  0  0  0  0  0  0  0  0  0  0  0
   -3.6885   -0.0912   -2.2390 C   0  0  0  0  0  0  0  0  0  0  0  0
   -2.4285   -0.0745   -1.7099 C   0  0  0  0  0  0  0  0  0  0  0  0
   -1.3435    0.7528   -2.2605 C   0  0  0  0  0  0  0  0  0  0  0  0
   -0.0955    0.6907   -1.5023 C   0  0  0  0  0  0  0  0  0  0  0  0
    0.0905    1.6231   -0.4705 N   0  0  0  0  0  0  0  0  0  0  0  0
    0.5849    2.8973   -0.8050 C   0  0  0  0  0  0  0  0  0  0  0  0
    0.7642    3.8377    0.3373 C   0  0  0  0  0  0  0  0  0  0  0  0
    1.2843    5.1961    0.0304 C   0  0  0  0  0  0  0  0  0  0  0  0
    2.1915    4.1895    0.6734 C   0  0  0  0  0  0  0  0  0  0  0  0
   -0.4392    1.4233    0.8011 C   0  0  0  0  0  0  0  0  0  0  0  0
   -0.8649    0.0574    1.1739 C   0  0  0  0  0  0  0  0  0  0  0  0
   -0.8305   -0.9453    0.0758 C   0  0  1  0  0  0  0  0  0  0  0  0
   -1.0123   -2.3724    0.5540 C   0  0  1  0  0  0  0  0  0  0  0  0
   -2.4213   -2.3277    0.9707 O   0  0  0  0  0  0  0  0  0  0  0  0
   -3.0803   -1.6854   -0.0723 C   0  0  0  0  0  0  0  0  0  0  0  0
   -2.1416   -0.8524   -0.6549 C   0  0  0  0  0  0  0  0  0  0  0  0
   -1.0409   -3.2792   -0.6289 C   0  0  0  0  0  0  0  0  0  0  0  0
   -1.7769   -4.2441   -0.5844 O   0  0  0  0  0  0  0  0  0  0  0  0
   -0.2077   -3.0295   -1.8267 C   0  0  0  0  0  0  0  0  0  0  0  0
    0.2844   -1.6552   -2.0351 C   0  0  0  0  0  0  0  0  0  0  0  0
    0.2614   -0.7068   -0.8990 C   0  0  1  0  0  0  0  0  0  0  0  0
    1.5701   -0.4269   -0.3120 N   0  0  0  0  0  0  0  0  0  0  0  0
    2.4761   -1.2921    0.3013 C   0  0  0  0  0  0  0  0  0  0  0  0
    2.1888   -2.5301    0.3894 O   0  0  0  0  0  0  0  0  0  0  0  0
    3.7510   -0.9074    0.8649 C   0  0  0  0  0  0  0  0  0  0  0  0
    4.2001    0.3203    0.8594 C   0  0  0  0  0  0  0  0  0  0  0  0
    5.5203    0.6452    1.4569 C   0  0  0  0  0  0  0  0  0  0  0  0
    6.3636   -0.2571    2.0468 C   0  0  0  0  0  0  0  0  0  0  0  0
    7.4853    0.4492    2.4731 C   0  0  0  0  0  0  0  0  0  0  0  0
    7.2908    1.6960    2.1418 O   0  0  0  0  0  0  0  0  0  0  0  0
    6.1329    1.8668    1.5326 C   0  0  0  0  0  0  0  0  0  0  0  0
   -6.5738   -4.4756    1.7625 H   0  0  0  0  0  0  0  0  0  0  0  0
   -7.8247   -3.2548    1.4032 H   0  0  0  0  0  0  0  0  0  0  0  0
   -5.0488   -2.1185    3.1005 H   0  0  0  0  0  0  0  0  0  0  0  0
   -4.7840   -0.8670    1.8579 H   0  0  0  0  0  0  0  0  0  0  0  0
   -5.6682   -0.9501   -2.0749 H   0  0  0  0  0  0  0  0  0  0  0  0
   -3.9023    0.5390   -3.0848 H   0  0  0  0  0  0  0  0  0  0  0  0
   -1.2316    0.5689   -3.3693 H   0  0  0  0  0  0  0  0  0  0  0  0
   -1.7156    1.8189   -2.2050 H   0  0  0  0  0  0  0  0  0  0  0  0
    0.7544    0.8363   -2.2400 H   0  0  0  0  0  0  0  0  0  0  0  0
   -0.0955    3.4085   -1.5459 H   0  0  0  0  0  0  0  0  0  0  0  0
    1.5452    2.7667   -1.3732 H   0  0  0  0  0  0  0  0  0  0  0  0
    0.0048    3.7965    1.1428 H   0  0  0  0  0  0  0  0  0  0  0  0
    1.4544    5.5072   -1.0108 H   0  0  0  0  0  0  0  0  0  0  0  0
    1.0310    6.0602    0.7014 H   0  0  0  0  0  0  0  0  0  0  0  0
    2.4837    4.2911    1.7393 H   0  0  0  0  0  0  0  0  0  0  0  0
    2.9929    3.7254    0.0633 H   0  0  0  0  0  0  0  0  0  0  0  0
    0.3130    1.7842    1.5651 H   0  0  0  0  0  0  0  0  0  0  0  0
   -1.2998    2.1439    0.9457 H   0  0  0  0  0  0  0  0  0  0  0  0
   -1.8885    0.0900    1.6323 H   0  0  0  0  0  0  0  0  0  0  0  0
   -0.2182   -0.3536    2.0056 H   0  0  0  0  0  0  0  0  0  0  0  0
   -0.4280   -2.6631    1.3915 H   0  0  0  0  0  0  0  0  0  0  0  0
    0.6764   -3.7284   -1.7738 H   0  0  0  0  0  0  0  0  0  0  0  0
   -0.7987   -3.4294   -2.7033 H   0  0  0  0  0  0  0  0  0  0  0  0
   -0.3084   -1.2364   -2.9044 H   0  0  0  0  0  0  0  0  0  0  0  0
    1.3369   -1.6634   -2.4555 H   0  0  0  0  0  0  0  0  0  0  0  0
    1.9402    0.5894   -0.3282 H   0  0  0  0  0  0  0  0  0  0  0  0
    4.4095   -1.6507    1.3318 H   0  0  0  0  0  0  0  0  0  0  0  0
    3.6287    1.1157    0.4261 H   0  0  0  0  0  0  0  0  0  0  0  0
    6.2410   -1.3172    2.1849 H   0  0  0  0  0  0  0  0  0  0  0  0
    8.3231    0.0026    2.9746 H   0  0  0  0  0  0  0  0  0  0  0  0
    5.6905    2.7754    1.1412 H   0  0  0  0  0  0  0  0  0  0  0  0
  1  2  1  0
  2  3  1  0
  2  4  2  3
  4  5  1  0
  5  6  2  0
  6  7  1  0
  7  8  2  0
  8  9  1  0
  9 10  1  0
 10 11  1  0
 11 12  1  0
 12 13  1  0
 13 14  1  0
 14 15  1  0
 11 16  1  0
 16 17  1  0
 18 17  1  1
 18 19  1  0
 19 20  1  0
 20 21  1  0
 21 22  2  0
 19 23  1  0
 23 24  2  0
 23 25  1  0
 25 26  1  0
 26 27  1  0
 27 28  1  1
 28 29  1  0
 29 30  2  0
 29 31  1  0
 31 32  2  0
 32 33  1  0
 33 34  1  0
 34 35  2  0
 35 36  1  0
 36 37  1  0
 21  5  1  0
 37 33  2  0
 22  8  1  0
 27 10  1  0
 15 13  1  0
 22 18  1  0
 27 18  1  0
  1 38  1  0
  1 39  1  0
  3 40  1  0
  3 41  1  0
  6 42  1  0
  7 43  1  0
  9 44  1  0
  9 45  1  0
 10 46  1  0
 12 47  1  0
 12 48  1  0
 13 49  1  0
 14 50  1  0
 14 51  1  0
 15 52  1  0
 15 53  1  0
 16 54  1  0
 16 55  1  0
 17 56  1  0
 17 57  1  0
 19 58  1  1
 25 59  1  0
 25 60  1  0
 26 61  1  0
 26 62  1  0
 28 63  1  0
 31 64  1  0
 32 65  1  0
 34 66  1  0
 35 67  1  0
 37 68  1  0
M  END
$$$$
[H]O[C@]1([H])C([H])([H])[C@@]([H])(N2C([H])([H])[C@]([H])(F)[C@@]([H])(OC([H])([H])[H])C2([H])[H])[C@@]([H])([C@@]2([H])C([H])([H])C([H])([H])[C@@]3(C([H])([H])[H])C([H])([H])C([H])([H])[C@@]([H])(O[H])C(=O)O[C@@]32[H])C1([H])[H]
     RDKit          3D

 59 62  0  0  0  0  0  0  0  0999 V2000
    6.1859    1.3235   -0.0339 C   0  0  0  0  0  0  0  0  0  0  0  0
    4.8888    1.5917   -0.3744 O   0  0  0  0  0  0  0  0  0  0  0  0
    3.9941    0.5434   -0.1274 C   0  0  1  0  0  0  0  0  0  0  0  0
    2.9673    0.8713    0.8778 C   0  0  0  0  0  0  0  0  0  0  0  0
    1.7357    0.2573    0.4379 N   0  0  0  0  0  0  0  0  0  0  0  0
    1.2758   -0.7868    1.2224 C   0  0  2  0  0  0  0  0  0  0  0  0
    2.1182   -2.0501    1.2789 C   0  0  0  0  0  0  0  0  0  0  0  0
    1.3811   -3.0373    0.3837 C   0  0  1  0  0  0  0  0  0  0  0  0
    1.3067   -4.2940    0.9785 O   0  0  0  0  0  0  0  0  0  0  0  0
   -0.0049   -2.4769    0.1774 C   0  0  0  0  0  0  0  0  0  0  0  0
   -0.0618   -1.3526    1.1469 C   0  0  2  0  0  0  0  0  0  0  0  0
   -1.2649   -0.5295    1.0934 C   0  0  1  0  0  0  0  0  0  0  0  0
   -1.4700    0.3750    2.2702 C   0  0  0  0  0  0  0  0  0  0  0  0
   -2.5502    1.3473    1.7874 C   0  0  0  0  0  0  0  0  0  0  0  0
   -2.9379    0.8727    0.3839 C   0  0  1  0  0  0  0  0  0  0  0  0
   -3.9595   -0.1972    0.5083 C   0  0  0  0  0  0  0  0  0  0  0  0
   -3.3057    2.0341   -0.4663 C   0  0  0  0  0  0  0  0  0  0  0  0
   -4.0748    1.6971   -1.6934 C   0  0  0  0  0  0  0  0  0  0  0  0
   -3.2360    1.0644   -2.7791 C   0  0  1  0  0  0  0  0  0  0  0  0
   -2.3400    1.9798   -3.3320 O   0  0  0  0  0  0  0  0  0  0  0  0
   -2.5918   -0.1821   -2.3600 C   0  0  0  0  0  0  0  0  0  0  0  0
   -2.7921   -1.2383   -3.0481 O   0  0  0  0  0  0  0  0  0  0  0  0
   -1.7608   -0.3686   -1.2704 O   0  0  0  0  0  0  0  0  0  0  0  0
   -1.5651    0.3187   -0.0734 C   0  0  2  0  0  0  0  0  0  0  0  0
    1.8194    0.2176   -0.9556 C   0  0  0  0  0  0  0  0  0  0  0  0
    3.2683    0.1152   -1.3427 C   0  0  2  0  0  0  0  0  0  0  0  0
    3.6254   -1.1278   -1.8100 F   0  0  0  0  0  0  0  0  0  0  0  0
    6.6231    0.4592   -0.5755 H   0  0  0  0  0  0  0  0  0  0  0  0
    6.2588    1.2094    1.0656 H   0  0  0  0  0  0  0  0  0  0  0  0
    6.7914    2.2102   -0.3088 H   0  0  0  0  0  0  0  0  0  0  0  0
    4.6489   -0.2607    0.3090 H   0  0  0  0  0  0  0  0  0  0  0  0
    3.2342    0.5563    1.9167 H   0  0  0  0  0  0  0  0  0  0  0  0
    2.7237    1.9853    0.8841 H   0  0  0  0  0  0  0  0  0  0  0  0
    1.3522   -0.3660    2.3150 H   0  0  0  0  0  0  0  0  0  0  0  0
    3.1572   -1.9385    1.0320 H   0  0  0  0  0  0  0  0  0  0  0  0
    2.0540   -2.4623    2.3124 H   0  0  0  0  0  0  0  0  0  0  0  0
    1.9243   -3.1716   -0.5752 H   0  0  0  0  0  0  0  0  0  0  0  0
    1.5771   -5.0078    0.3716 H   0  0  0  0  0  0  0  0  0  0  0  0
   -0.7784   -3.2793    0.4506 H   0  0  0  0  0  0  0  0  0  0  0  0
   -0.1493   -2.1839   -0.8642 H   0  0  0  0  0  0  0  0  0  0  0  0
   -0.1855   -1.9207    2.1650 H   0  0  0  0  0  0  0  0  0  0  0  0
   -2.1328   -1.2658    1.1567 H   0  0  0  0  0  0  0  0  0  0  0  0
   -0.5748    0.8825    2.6269 H   0  0  0  0  0  0  0  0  0  0  0  0
   -1.8732   -0.2166    3.1291 H   0  0  0  0  0  0  0  0  0  0  0  0
   -2.1575    2.3826    1.7751 H   0  0  0  0  0  0  0  0  0  0  0  0
   -3.4373    1.2705    2.4641 H   0  0  0  0  0  0  0  0  0  0  0  0
   -4.0172   -0.5969    1.5559 H   0  0  0  0  0  0  0  0  0  0  0  0
   -4.9898    0.1600    0.2901 H   0  0  0  0  0  0  0  0  0  0  0  0
   -3.7646   -1.0976   -0.1325 H   0  0  0  0  0  0  0  0  0  0  0  0
   -3.8385    2.8322    0.1062 H   0  0  0  0  0  0  0  0  0  0  0  0
   -2.3437    2.5194   -0.8022 H   0  0  0  0  0  0  0  0  0  0  0  0
   -4.9706    1.0878   -1.5225 H   0  0  0  0  0  0  0  0  0  0  0  0
   -4.4501    2.6696   -2.1313 H   0  0  0  0  0  0  0  0  0  0  0  0
   -3.9599    0.8033   -3.6062 H   0  0  0  0  0  0  0  0  0  0  0  0
   -2.6560    2.8852   -3.0877 H   0  0  0  0  0  0  0  0  0  0  0  0
   -0.9726    1.2521   -0.1802 H   0  0  0  0  0  0  0  0  0  0  0  0
    1.5097    1.2572   -1.3235 H   0  0  0  0  0  0  0  0  0  0  0  0
    1.2021   -0.4535   -1.5307 H   0  0  0  0  0  0  0  0  0  0  0  0
    3.5439    0.8304   -2.1656 H   0  0  0  0  0  0  0  0  0  0  0  0
  1  2  1  0
  2  3  1  0
  3  4  1  0
  4  5  1  0
  5  6  1  0
  6  7  1  0
  7  8  1  0
  8  9  1  0
  8 10  1  0
 10 11  1  0
 11 12  1  0
 12 13  1  0
 13 14  1  0
 14 15  1  0
 15 16  1  1
 15 17  1  0
 17 18  1  0
 18 19  1  0
 19 20  1  0
 19 21  1  0
 21 22  2  0
 21 23  1  0
 23 24  1  0
  5 25  1  0
 25 26  1  0
 26 27  1  0
 26  3  1  0
 11  6  1  0
 24 12  1  0
 24 15  1  0
  1 28  1  0
  1 29  1  0
  1 30  1  0
  3 31  1  1
  4 32  1  0
  4 33  1  0
  6 34  1  1
  7 35  1  0
  7 36  1  0
  8 37  1  6
  9 38  1  0
 10 39  1  0
 10 40  1  0
 11 41  1  1
 12 42  1  1
 13 43  1  0
 13 44  1  0
 14 45  1  0
 14 46  1  0
 16 47  1  0
 16 48  1  0
 16 49  1  0
 17 50  1  0
 17 51  1  0
 18 52  1  0
 18 53  1  0
 19 54  1  6
 20 55  1  0
 24 56  1  6
 25 57  1  0
 25 58  1  0
 26 59  1  6
M  END
$$$$
[H]c1nn(C([H])([H])[C@@]([H])(F)N2C([H])([H])C([H])([H])N(C([H])([H])[H])C([H])([H])C2([H])[H])c([H])c1-c1c([H])c2c3c(nc([H])c2n1C([H])([H])C([H])([H])F)SC(N([H])[H])=NC(N([H])C([H])([H])c1c([H])c([H])c([H])c([H])c1[H])=N3
     RDKit          3D

 73 78  0  0  0  0  0  0  0  0999 V2000
    9.8996   -0.9515    0.7518 C   0  0  0  0  0  0  0  0  0  0  0  0
    9.1170   -1.3484   -0.3767 N   0  0  0  0  0  0  0  0  0  0  0  0
    8.2124   -2.4354   -0.1313 C   0  0  0  0  0  0  0  0  0  0  0  0
    7.2213   -2.0985    0.9182 C   0  0  0  0  0  0  0  0  0  0  0  0
    6.6937   -0.7987    0.9516 N   0  0  0  0  0  0  0  0  0  0  0  0
    7.4244    0.2498    0.3234 C   0  0  0  0  0  0  0  0  0  0  0  0
    8.3084   -0.2141   -0.8064 C   0  0  0  0  0  0  0  0  0  0  0  0
    5.2673   -0.7021    0.7932 C   0  0  2  0  0  0  0  0  0  0  0  0
    4.6822   -1.4060    1.8273 F   0  0  0  0  0  0  0  0  0  0  0  0
    4.7733   -1.2031   -0.5480 C   0  0  0  0  0  0  0  0  0  0  0  0
    3.3332   -1.0444   -0.5565 N   0  0  0  0  0  0  0  0  0  0  0  0
    2.5996    0.0366   -0.9698 C   0  0  0  0  0  0  0  0  0  0  0  0
    1.2675   -0.2015   -0.8178 C   0  0  0  0  0  0  0  0  0  0  0  0
    1.2153   -1.4928   -0.2856 C   0  0  0  0  0  0  0  0  0  0  0  0
    2.4638   -1.9438   -0.1518 N   0  0  0  0  0  0  0  0  0  0  0  0
    0.0833    0.6024   -1.1100 C   0  0  0  0  0  0  0  0  0  0  0  0
   -1.2378    0.1853   -0.8681 C   0  0  0  0  0  0  0  0  0  0  0  0
   -2.1313    1.1516   -1.2422 C   0  0  0  0  0  0  0  0  0  0  0  0
   -1.3621    2.1797   -1.7220 C   0  0  0  0  0  0  0  0  0  0  0  0
   -2.0359    3.2975   -2.1721 C   0  0  0  0  0  0  0  0  0  0  0  0
   -3.3947    3.3514   -2.1304 N   0  0  0  0  0  0  0  0  0  0  0  0
   -4.1540    2.3503   -1.6622 C   0  0  0  0  0  0  0  0  0  0  0  0
   -5.9093    2.6714   -1.7117 S   0  0  0  0  0  0  0  0  0  0  0  0
   -6.6834    1.7615   -0.3946 C   0  0  0  0  0  0  0  0  0  0  0  0
   -7.8559    2.3614    0.1191 N   0  0  0  0  0  0  0  0  0  0  0  0
   -6.2825    0.6603    0.1013 N   0  0  0  0  0  0  0  0  0  0  0  0
   -5.2166   -0.1971   -0.1308 C   0  0  0  0  0  0  0  0  0  0  0  0
   -5.3652   -1.5331    0.2850 N   0  0  0  0  0  0  0  0  0  0  0  0
   -6.4559   -2.3670   -0.1075 C   0  0  0  0  0  0  0  0  0  0  0  0
   -7.7208   -1.8013    0.4133 C   0  0  0  0  0  0  0  0  0  0  0  0
   -8.7574   -1.5008   -0.4407 C   0  0  0  0  0  0  0  0  0  0  0  0
   -9.9414   -0.9764    0.0266 C   0  0  0  0  0  0  0  0  0  0  0  0
  -10.1373   -0.7308    1.3683 C   0  0  0  0  0  0  0  0  0  0  0  0
   -9.1044   -1.0289    2.2312 C   0  0  0  0  0  0  0  0  0  0  0  0
   -7.9301   -1.5506    1.7549 C   0  0  0  0  0  0  0  0  0  0  0  0
   -4.0861    0.0635   -0.6759 N   0  0  0  0  0  0  0  0  0  0  0  0
   -3.5299    1.2283   -1.2082 C   0  0  0  0  0  0  0  0  0  0  0  0
   -0.0404    1.8289   -1.6336 N   0  0  0  0  0  0  0  0  0  0  0  0
    0.9965    2.7220   -2.0878 C   0  0  0  0  0  0  0  0  0  0  0  0
    1.5191    3.6057   -0.9680 C   0  0  0  0  0  0  0  0  0  0  0  0
    0.4978    4.3935   -0.4347 F   0  0  0  0  0  0  0  0  0  0  0  0
    9.4259   -1.1687    1.7309 H   0  0  0  0  0  0  0  0  0  0  0  0
   10.9008   -1.4274    0.7825 H   0  0  0  0  0  0  0  0  0  0  0  0
   10.0440    0.1552    0.7004 H   0  0  0  0  0  0  0  0  0  0  0  0
    8.8403   -3.2969    0.2444 H   0  0  0  0  0  0  0  0  0  0  0  0
    7.7648   -2.7269   -1.1075 H   0  0  0  0  0  0  0  0  0  0  0  0
    7.6413   -2.3837    1.9156 H   0  0  0  0  0  0  0  0  0  0  0  0
    6.3550   -2.8140    0.7837 H   0  0  0  0  0  0  0  0  0  0  0  0
    8.0607    0.7673    1.0735 H   0  0  0  0  0  0  0  0  0  0  0  0
    6.7288    1.0016   -0.0853 H   0  0  0  0  0  0  0  0  0  0  0  0
    7.7301   -0.5532   -1.6780 H   0  0  0  0  0  0  0  0  0  0  0  0
    9.0065    0.5890   -1.0989 H   0  0  0  0  0  0  0  0  0  0  0  0
    4.9847    0.3621    0.9294 H   0  0  0  0  0  0  0  0  0  0  0  0
    5.1655   -0.6057   -1.3812 H   0  0  0  0  0  0  0  0  0  0  0  0
    4.9898   -2.2821   -0.6396 H   0  0  0  0  0  0  0  0  0  0  0  0
    3.0591    0.9142   -1.3410 H   0  0  0  0  0  0  0  0  0  0  0  0
    0.2914   -1.9973   -0.0407 H   0  0  0  0  0  0  0  0  0  0  0  0
   -1.5214   -0.7678   -0.4446 H   0  0  0  0  0  0  0  0  0  0  0  0
   -1.4864    4.1326   -2.5606 H   0  0  0  0  0  0  0  0  0  0  0  0
   -8.3672    1.9474    0.9244 H   0  0  0  0  0  0  0  0  0  0  0  0
   -8.2312    3.2316   -0.2997 H   0  0  0  0  0  0  0  0  0  0  0  0
   -4.6181   -1.9092    0.9176 H   0  0  0  0  0  0  0  0  0  0  0  0
   -6.2918   -3.4061    0.2593 H   0  0  0  0  0  0  0  0  0  0  0  0
   -6.5400   -2.4634   -1.2246 H   0  0  0  0  0  0  0  0  0  0  0  0
   -8.5904   -1.6987   -1.4925 H   0  0  0  0  0  0  0  0  0  0  0  0
  -10.7363   -0.7513   -0.6738 H   0  0  0  0  0  0  0  0  0  0  0  0
  -11.0848   -0.3112    1.7423 H   0  0  0  0  0  0  0  0  0  0  0  0
   -9.2589   -0.8357    3.2837 H   0  0  0  0  0  0  0  0  0  0  0  0
   -7.0961   -1.7951    2.4222 H   0  0  0  0  0  0  0  0  0  0  0  0
    1.8290    2.2711   -2.6063 H   0  0  0  0  0  0  0  0  0  0  0  0
    0.5231    3.3998   -2.8859 H   0  0  0  0  0  0  0  0  0  0  0  0
    2.3281    4.2667   -1.3207 H   0  0  0  0  0  0  0  0  0  0  0  0
    1.9104    2.9807   -0.1500 H   0  0  0  0  0  0  0  0  0  0  0  0
  1  2  1  0
  2  3  1  0
  3  4  1  0
  4  5  1  0
  5  6  1  0
  6  7  1  0
  5  8  1  0
  8  9  1  0
  8 10  1  0
 10 11  1  0
 11 12  1  0
 12 13  2  0
 13 14  1  0
 14 15  2  0
 13 16  1  0
 16 17  2  0
 17 18  1  0
 18 19  2  0
 19 20  1  0
 20 21  2  0
 21 22  1  0
 22 23  1  0
 23 24  1  0
 24 25  1  0
 24 26  2  0
 26 27  1  0
 27 28  1  0
 28 29  1  0
 29 30  1  0
 30 31  2  0
 31 32  1  0
 32 33  2  0
 33 34  1  0
 34 35  2  0
 27 36  2  0
 36 37  1  0
 19 38  1  0
 38 39  1  0
 39 40  1  0
 40 41  1  0
  7  2  1  0
 15 11  1  0
 38 16  1  0
 37 18  1  0
 37 22  2  0
 35 30  1  0
  1 42  1  0
  1 43  1  0
  1 44  1  0
  3 45  1  0
  3 46  1  0
  4 47  1  0
  4 48  1  0
  6 49  1  0
  6 50  1  0
  7 51  1  0
  7 52  1  0
  8 53  1  1
 10 54  1  0
 10 55  1  0
 12 56  1  0
 14 57  1  0
 17 58  1  0
 20 59  1  0
 25 60  1  0
 25 61  1  0
 28 62  1  0
 29 63  1  0
 29 64  1  0
 31 65  1  0
 32 66  1  0
 33 67  1  0
 34 68  1  0
 35 69  1  0
 39 70  1  0
 39 71  1  0
 40 72  1  0
 40 73  1  0
M  END
$$$$
[H]OC(=O)[C@@]([H])(N([H])C(=O)[C@@]([H])(N([H])C(=O)[C@@]([H])(N([H])C(=O)c1c([H])c(OC([H])([H])[H])c([H])c(OC([H])([H])[H])c1[H])C([H])([H])c1c([H])c([H])c([H])c([H])c1[H])C([H])([H])c1c([H])c([H])c([H])c([H])c1[H])C([H])([H])c1c([H])c([H])c([H])c([H])c1[H]
     RDKit          3D

 83 86  0  0  0  0  0  0  0  0999 V2000
   10.1027    1.9081   -2.4468 C   0  0  0  0  0  0  0  0  0  0  0  0
    8.9975    1.1006   -2.1637 O   0  0  0  0  0  0  0  0  0  0  0  0
    7.8808    1.4637   -1.4440 C   0  0  0  0  0  0  0  0  0  0  0  0
    7.7778    2.7303   -0.9214 C   0  0  0  0  0  0  0  0  0  0  0  0
    6.6566    3.1113   -0.1934 C   0  0  0  0  0  0  0  0  0  0  0  0
    6.5282    4.3925    0.3484 O   0  0  0  0  0  0  0  0  0  0  0  0
    5.3441    4.6751    1.0741 C   0  0  0  0  0  0  0  0  0  0  0  0
    5.6488    2.1603   -0.0183 C   0  0  0  0  0  0  0  0  0  0  0  0
    5.7230    0.8836   -0.5297 C   0  0  0  0  0  0  0  0  0  0  0  0
    6.8589    0.5647   -1.2420 C   0  0  0  0  0  0  0  0  0  0  0  0
    4.6539   -0.0963   -0.3454 C   0  0  0  0  0  0  0  0  0  0  0  0
    4.8851   -1.2780   -0.6996 O   0  0  0  0  0  0  0  0  0  0  0  0
    3.4013    0.2448    0.2054 N   0  0  0  0  0  0  0  0  0  0  0  0
    2.3173   -0.7664    0.3839 C   0  0  1  0  0  0  0  0  0  0  0  0
    2.1769   -0.9211    1.8526 C   0  0  0  0  0  0  0  0  0  0  0  0
    1.2048   -1.8427    2.3921 C   0  0  0  0  0  0  0  0  0  0  0  0
    1.4527   -3.1983    2.4941 C   0  0  0  0  0  0  0  0  0  0  0  0
    0.5386   -4.0392    3.0557 C   0  0  0  0  0  0  0  0  0  0  0  0
   -0.6514   -3.5390    3.5307 C   0  0  0  0  0  0  0  0  0  0  0  0
   -0.9303   -2.1883    3.4438 C   0  0  0  0  0  0  0  0  0  0  0  0
   -0.0067   -1.3344    2.8755 C   0  0  0  0  0  0  0  0  0  0  0  0
    1.1669   -0.2914   -0.3510 C   0  0  0  0  0  0  0  0  0  0  0  0
    1.2345    0.8850   -0.8850 O   0  0  0  0  0  0  0  0  0  0  0  0
   -0.0505   -1.0230   -0.5497 N   0  0  0  0  0  0  0  0  0  0  0  0
   -1.1227   -0.4172   -1.3501 C   0  0  1  0  0  0  0  0  0  0  0  0
   -1.2754   -1.2369   -2.6389 C   0  0  0  0  0  0  0  0  0  0  0  0
   -1.6090   -2.6295   -2.3704 C   0  0  0  0  0  0  0  0  0  0  0  0
   -2.9203   -3.0219   -2.2751 C   0  0  0  0  0  0  0  0  0  0  0  0
   -3.2762   -4.3437   -2.0118 C   0  0  0  0  0  0  0  0  0  0  0  0
   -2.2949   -5.2868   -1.8414 C   0  0  0  0  0  0  0  0  0  0  0  0
   -0.9614   -4.9193   -1.9325 C   0  0  0  0  0  0  0  0  0  0  0  0
   -0.6405   -3.5897   -2.1972 C   0  0  0  0  0  0  0  0  0  0  0  0
   -2.3933   -0.2578   -0.6605 C   0  0  0  0  0  0  0  0  0  0  0  0
   -2.5568   -0.7715    0.4671 O   0  0  0  0  0  0  0  0  0  0  0  0
   -3.4944    0.4602   -1.1833 N   0  0  0  0  0  0  0  0  0  0  0  0
   -4.7766    0.6145   -0.4830 C   0  0  1  0  0  0  0  0  0  0  0  0
   -4.7944    1.9531    0.2272 C   0  0  0  0  0  0  0  0  0  0  0  0
   -6.0002    2.2687    0.9786 C   0  0  0  0  0  0  0  0  0  0  0  0
   -6.9994    3.0324    0.4304 C   0  0  0  0  0  0  0  0  0  0  0  0
   -8.1540    3.3726    1.0858 C   0  0  0  0  0  0  0  0  0  0  0  0
   -8.3356    2.9177    2.3971 C   0  0  0  0  0  0  0  0  0  0  0  0
   -7.3302    2.1531    2.9384 C   0  0  0  0  0  0  0  0  0  0  0  0
   -6.1774    1.8179    2.2736 C   0  0  0  0  0  0  0  0  0  0  0  0
   -5.9053    0.3330   -1.3456 C   0  0  0  0  0  0  0  0  0  0  0  0
   -7.2111    0.3548   -0.9198 O   0  0  0  0  0  0  0  0  0  0  0  0
   -5.7260    0.0400   -2.5817 O   0  0  0  0  0  0  0  0  0  0  0  0
   10.5881    1.5116   -3.3699 H   0  0  0  0  0  0  0  0  0  0  0  0
   10.8776    1.9307   -1.6567 H   0  0  0  0  0  0  0  0  0  0  0  0
    9.7327    2.9383   -2.6822 H   0  0  0  0  0  0  0  0  0  0  0  0
    8.5796    3.4337   -1.0793 H   0  0  0  0  0  0  0  0  0  0  0  0
    5.3625    5.7125    1.4528 H   0  0  0  0  0  0  0  0  0  0  0  0
    4.4855    4.5397    0.3722 H   0  0  0  0  0  0  0  0  0  0  0  0
    5.1978    3.9039    1.8770 H   0  0  0  0  0  0  0  0  0  0  0  0
    4.7742    2.4456    0.5461 H   0  0  0  0  0  0  0  0  0  0  0  0
    6.9289   -0.4368   -1.6476 H   0  0  0  0  0  0  0  0  0  0  0  0
    3.2063    1.2159    0.4986 H   0  0  0  0  0  0  0  0  0  0  0  0
    2.7746   -1.7032   -0.0770 H   0  0  0  0  0  0  0  0  0  0  0  0
    2.0575    0.1293    2.2953 H   0  0  0  0  0  0  0  0  0  0  0  0
    3.1853   -1.2242    2.2827 H   0  0  0  0  0  0  0  0  0  0  0  0
    2.4086   -3.5534    2.1061 H   0  0  0  0  0  0  0  0  0  0  0  0
    0.8118   -5.0965    3.0987 H   0  0  0  0  0  0  0  0  0  0  0  0
   -1.3763   -4.1990    3.9748 H   0  0  0  0  0  0  0  0  0  0  0  0
   -1.8750   -1.8004    3.8225 H   0  0  0  0  0  0  0  0  0  0  0  0
   -0.2765   -0.2932    2.8326 H   0  0  0  0  0  0  0  0  0  0  0  0
   -0.1525   -1.9685   -0.1368 H   0  0  0  0  0  0  0  0  0  0  0  0
   -0.7633    0.5709   -1.6742 H   0  0  0  0  0  0  0  0  0  0  0  0
   -2.0111   -0.6898   -3.2719 H   0  0  0  0  0  0  0  0  0  0  0  0
   -0.2979   -1.1422   -3.1561 H   0  0  0  0  0  0  0  0  0  0  0  0
   -3.7473   -2.3105   -2.4018 H   0  0  0  0  0  0  0  0  0  0  0  0
   -4.3283   -4.6096   -1.9451 H   0  0  0  0  0  0  0  0  0  0  0  0
   -2.5468   -6.3420   -1.6295 H   0  0  0  0  0  0  0  0  0  0  0  0
   -0.2235   -5.6965   -1.7896 H   0  0  0  0  0  0  0  0  0  0  0  0
    0.4158   -3.3364   -2.2608 H   0  0  0  0  0  0  0  0  0  0  0  0
   -3.4106    0.9086   -2.1048 H   0  0  0  0  0  0  0  0  0  0  0  0
   -4.7169   -0.1376    0.3556 H   0  0  0  0  0  0  0  0  0  0  0  0
   -4.6502    2.7391   -0.5681 H   0  0  0  0  0  0  0  0  0  0  0  0
   -3.9267    2.0754    0.9028 H   0  0  0  0  0  0  0  0  0  0  0  0
   -6.9206    3.4214   -0.6062 H   0  0  0  0  0  0  0  0  0  0  0  0
   -8.9459    3.9889    0.6449 H   0  0  0  0  0  0  0  0  0  0  0  0
   -9.2566    3.1879    2.9243 H   0  0  0  0  0  0  0  0  0  0  0  0
   -7.4850    1.7983    3.9798 H   0  0  0  0  0  0  0  0  0  0  0  0
   -5.4217    1.2039    2.7728 H   0  0  0  0  0  0  0  0  0  0  0  0
   -8.0103    0.4385   -1.5557 H   0  0  0  0  0  0  0  0  0  0  0  0
  1  2  1  0
  2  3  1  0
  3  4  2  0
  4  5  1  0
  5  6  1  0
  6  7  1  0
  5  8  2  0
  8  9  1  0
  9 10  2  0
  9 11  1  0
 11 12  2  0
 11 13  1  0
 13 14  1  0
 14 15  1  0
 15 16  1  0
 16 17  2  0
 17 18  1  0
 18 19  2  0
 19 20  1  0
 20 21  2  0
 14 22  1  0
 22 23  2  0
 22 24  1  0
 24 25  1  0
 25 26  1  0
 26 27  1  0
 27 28  2  0
 28 29  1  0
 29 30  2  0
 30 31  1  0
 31 32  2  0
 25 33  1  0
 33 34  2  0
 33 35  1  0
 35 36  1  0
 36 37  1  0
 37 38  1  0
 38 39  2  0
 39 40  1  0
 40 41  2  0
 41 42  1  0
 42 43  2  0
 36 44  1  0
 44 45  1  0
 44 46  2  0
 10  3  1  0
 21 16  1  0
 32 27  1  0
 43 38  1  0
  1 47  1  0
  1 48  1  0
  1 49  1  0
  4 50  1  0
  7 51  1  0
  7 52  1  0
  7 53  1  0
  8 54  1  0
 10 55  1  0
 13 56  1  0
 14 57  1  6
 15 58  1  0
 15 59  1  0
 17 60  1  0
 18 61  1  0
 19 62  1  0
 20 63  1  0
 21 64  1  0
 24 65  1  0
 25 66  1  6
 26 67  1  0
 26 68  1  0
 28 69  1  0
 29 70  1  0
 30 71  1  0
 31 72  1  0
 32 73  1  0
 35 74  1  0
 36 75  1  1
 37 76  1  0
 37 77  1  0
 39 78  1  0
 40 79  1  0
 41 80  1  0
 42 81  1  0
 43 82  1  0
 45 83  1  0
M  END
$$$$
[H]c1c([H])c(C(=O)N([H])[H])c([H])c(C(=O)N([H])c2sc(N([H])c3c([H])c([H])c4c([H])c([H])c([H])c([H])c4c3[H])nc2C(=O)N([H])[H])c1[H]
     RDKit          3D

 48 51  0  0  0  0  0  0  0  0999 V2000
    0.6829   -4.9309    0.6175 N   0  0  0  0  0  0  0  0  0  0  0  0
    1.1969   -3.7308    0.0356 C   0  0  0  0  0  0  0  0  0  0  0  0
    2.3236   -3.7797   -0.4283 O   0  0  0  0  0  0  0  0  0  0  0  0
    0.3682   -2.4749    0.0088 C   0  0  0  0  0  0  0  0  0  0  0  0
   -0.9176   -2.5993    0.1872 N   0  0  0  0  0  0  0  0  0  0  0  0
   -1.7319   -1.5928   -0.0266 C   0  0  0  0  0  0  0  0  0  0  0  0
   -3.1685   -1.5859    0.1475 N   0  0  0  0  0  0  0  0  0  0  0  0
   -4.0167   -0.5216   -0.1109 C   0  0  0  0  0  0  0  0  0  0  0  0
   -3.7556    0.5585   -0.8846 C   0  0  0  0  0  0  0  0  0  0  0  0
   -4.7033    1.5801   -1.0302 C   0  0  0  0  0  0  0  0  0  0  0  0
   -5.9300    1.5394   -0.4047 C   0  0  0  0  0  0  0  0  0  0  0  0
   -6.8551    2.5529   -0.5555 C   0  0  0  0  0  0  0  0  0  0  0  0
   -8.0803    2.5111    0.0708 C   0  0  0  0  0  0  0  0  0  0  0  0
   -8.3493    1.4073    0.8616 C   0  0  0  0  0  0  0  0  0  0  0  0
   -7.4282    0.3963    1.0129 C   0  0  0  0  0  0  0  0  0  0  0  0
   -6.1989    0.4403    0.3833 C   0  0  0  0  0  0  0  0  0  0  0  0
   -5.2626   -0.5531    0.5179 C   0  0  0  0  0  0  0  0  0  0  0  0
   -0.6651   -0.3747   -0.5085 S   0  0  0  0  0  0  0  0  0  0  0  0
    0.8591   -1.2843   -0.3943 C   0  0  0  0  0  0  0  0  0  0  0  0
    2.1175   -0.6494   -0.5131 N   0  0  0  0  0  0  0  0  0  0  0  0
    3.3590   -0.8107    0.0488 C   0  0  0  0  0  0  0  0  0  0  0  0
    3.7048   -1.6308    0.9255 O   0  0  0  0  0  0  0  0  0  0  0  0
    4.4926    0.0710   -0.3932 C   0  0  0  0  0  0  0  0  0  0  0  0
    4.5269    0.6473   -1.6278 C   0  0  0  0  0  0  0  0  0  0  0  0
    5.6078    1.4546   -1.9309 C   0  0  0  0  0  0  0  0  0  0  0  0
    6.6444    1.7108   -1.0701 C   0  0  0  0  0  0  0  0  0  0  0  0
    6.5897    1.1185    0.1713 C   0  0  0  0  0  0  0  0  0  0  0  0
    5.5169    0.3049    0.4997 C   0  0  0  0  0  0  0  0  0  0  0  0
    7.6775    1.3661    1.1217 C   0  0  0  0  0  0  0  0  0  0  0  0
    8.7685    2.2004    0.7720 N   0  0  0  0  0  0  0  0  0  0  0  0
    7.6723    0.8491    2.2641 O   0  0  0  0  0  0  0  0  0  0  0  0
    1.0048   -5.3292    1.5165 H   0  0  0  0  0  0  0  0  0  0  0  0
   -0.0660   -5.4327    0.0953 H   0  0  0  0  0  0  0  0  0  0  0  0
   -3.5459   -2.5217    0.5101 H   0  0  0  0  0  0  0  0  0  0  0  0
   -2.8256    0.6564   -1.4164 H   0  0  0  0  0  0  0  0  0  0  0  0
   -4.5055    2.4524   -1.6480 H   0  0  0  0  0  0  0  0  0  0  0  0
   -6.6017    3.3934   -1.1816 H   0  0  0  0  0  0  0  0  0  0  0  0
   -8.8153    3.3073   -0.0437 H   0  0  0  0  0  0  0  0  0  0  0  0
   -9.3241    1.3556    1.3709 H   0  0  0  0  0  0  0  0  0  0  0  0
   -7.6645   -0.4360    1.6255 H   0  0  0  0  0  0  0  0  0  0  0  0
   -5.5172   -1.4039    1.1503 H   0  0  0  0  0  0  0  0  0  0  0  0
    2.0880    0.1817   -1.2472 H   0  0  0  0  0  0  0  0  0  0  0  0
    3.7293    0.4646   -2.3358 H   0  0  0  0  0  0  0  0  0  0  0  0
    5.6382    1.9098   -2.9009 H   0  0  0  0  0  0  0  0  0  0  0  0
    7.4706    2.3499   -1.3504 H   0  0  0  0  0  0  0  0  0  0  0  0
    5.5210   -0.1340    1.4811 H   0  0  0  0  0  0  0  0  0  0  0  0
    8.6495    3.2103    0.5392 H   0  0  0  0  0  0  0  0  0  0  0  0
    9.7188    1.7864    0.7482 H   0  0  0  0  0  0  0  0  0  0  0  0
  1  2  1  0
  2  3  2  0
  2  4  1  0
  4  5  1  0
  5  6  2  0
  6  7  1  0
  7  8  1  0
  8  9  2  0
  9 10  1  0
 10 11  2  0
 11 12  1  0
 12 13  2  0
 13 14  1  0
 14 15  2  0
 15 16  1  0
 16 17  2  0
  6 18  1  0
 18 19  1  0
 19 20  1  0
 20 21  1  0
 21 22  2  0
 21 23  1  0
 23 24  2  0
 24 25  1  0
 25 26  2  0
 26 27  1  0
 27 28  2  0
 27 29  1  0
 29 30  1  0
 29 31  2  0
 19  4  2  0
 28 23  1  0
 17  8  1  0
 16 11  1  0
  1 32  1  0
  1 33  1  0
  7 34  1  0
  9 35  1  0
 10 36  1  0
 12 37  1  0
 13 38  1  0
 14 39  1  0
 15 40  1  0
 17 41  1  0
 20 42  1  0
 24 43  1  0
 25 44  1  0
 26 45  1  0
 28 46  1  0
 30 47  1  0
 30 48  1  0
M  END
$$$$
[H]c1c([H])c([H])c(-c2c([H])c([H])c(C(=O)N([H])[C@]3([H])C([H])([H])[C@@]4([H])O[C@@]([H])(N([H])S(=O)(=O)c5c([H])c([H])c(OC([H])([H])[H])c([H])c5[H])C([H])([H])[C@@]43[H])c([H])c2[H])c([H])c1[H]
     RDKit          3D

 60 64  0  0  0  0  0  0  0  0999 V2000
    7.3824   -2.3427   -1.5835 C   0  0  0  0  0  0  0  0  0  0  0  0
    6.5933   -1.4136   -2.2928 O   0  0  0  0  0  0  0  0  0  0  0  0
    6.1775   -0.2523   -1.6744 C   0  0  0  0  0  0  0  0  0  0  0  0
    5.3964    0.6710   -2.3965 C   0  0  0  0  0  0  0  0  0  0  0  0
    4.9716    1.8430   -1.8046 C   0  0  0  0  0  0  0  0  0  0  0  0
    5.2740    2.1739   -0.5182 C   0  0  0  0  0  0  0  0  0  0  0  0
    6.0513    1.2538    0.2058 C   0  0  0  0  0  0  0  0  0  0  0  0
    6.4767    0.0812   -0.3832 C   0  0  0  0  0  0  0  0  0  0  0  0
    4.8246    3.6269    0.3081 S   0  0  0  0  0  0  0  0  0  0  0  0
    5.9430    3.9052    1.3294 O   0  0  0  0  0  0  0  0  0  0  0  0
    4.8395    4.7219   -0.7230 O   0  0  0  0  0  0  0  0  0  0  0  0
    3.3962    3.4474    1.1296 N   0  0  0  0  0  0  0  0  0  0  0  0
    2.1793    3.1709    0.4956 C   0  0  1  0  0  0  0  0  0  0  0  0
    1.6827    1.7207    0.8346 C   0  0  0  0  0  0  0  0  0  0  0  0
    0.8330    2.1204    1.9496 C   0  0  2  0  0  0  0  0  0  0  0  0
   -0.4891    1.7331    2.3304 C   0  0  1  0  0  0  0  0  0  0  0  0
   -0.7439    3.2672    2.3466 C   0  0  0  0  0  0  0  0  0  0  0  0
    0.1395    3.2427    1.1734 C   0  0  1  0  0  0  0  0  0  0  0  0
    1.1499    4.0143    0.8930 O   0  0  0  0  0  0  0  0  0  0  0  0
   -1.4064    1.0219    1.5258 N   0  0  0  0  0  0  0  0  0  0  0  0
   -2.0533   -0.1242    2.0360 C   0  0  0  0  0  0  0  0  0  0  0  0
   -1.7902   -0.5103    3.1973 O   0  0  0  0  0  0  0  0  0  0  0  0
   -3.0340   -0.9170    1.2948 C   0  0  0  0  0  0  0  0  0  0  0  0
   -4.0244   -0.2645    0.5494 C   0  0  0  0  0  0  0  0  0  0  0  0
   -4.9820   -0.9287   -0.1752 C   0  0  0  0  0  0  0  0  0  0  0  0
   -5.0129   -2.3125   -0.2053 C   0  0  0  0  0  0  0  0  0  0  0  0
   -4.0400   -2.9602    0.5259 C   0  0  0  0  0  0  0  0  0  0  0  0
   -3.0678   -2.2908    1.2630 C   0  0  0  0  0  0  0  0  0  0  0  0
   -6.0248   -3.0489   -0.9522 C   0  0  0  0  0  0  0  0  0  0  0  0
   -6.4786   -4.2827   -0.5704 C   0  0  0  0  0  0  0  0  0  0  0  0
   -7.4349   -4.8751   -1.3433 C   0  0  0  0  0  0  0  0  0  0  0  0
   -7.9733   -4.3172   -2.4777 C   0  0  0  0  0  0  0  0  0  0  0  0
   -7.5162   -3.0545   -2.8766 C   0  0  0  0  0  0  0  0  0  0  0  0
   -6.5531   -2.4697   -2.0904 C   0  0  0  0  0  0  0  0  0  0  0  0
    8.1262   -1.7404   -0.9943 H   0  0  0  0  0  0  0  0  0  0  0  0
    7.9844   -3.0009   -2.2721 H   0  0  0  0  0  0  0  0  0  0  0  0
    6.7455   -2.9250   -0.9019 H   0  0  0  0  0  0  0  0  0  0  0  0
    5.1743    0.3893   -3.4088 H   0  0  0  0  0  0  0  0  0  0  0  0
    4.3616    2.5338   -2.4081 H   0  0  0  0  0  0  0  0  0  0  0  0
    6.3212    1.4557    1.2312 H   0  0  0  0  0  0  0  0  0  0  0  0
    7.0783   -0.5989    0.2344 H   0  0  0  0  0  0  0  0  0  0  0  0
    3.4851    2.9094    1.9915 H   0  0  0  0  0  0  0  0  0  0  0  0
    2.2548    3.1666   -0.5838 H   0  0  0  0  0  0  0  0  0  0  0  0
    1.2122    1.2616   -0.0261 H   0  0  0  0  0  0  0  0  0  0  0  0
    2.5811    1.1835    1.1958 H   0  0  0  0  0  0  0  0  0  0  0  0
    1.4330    2.4952    2.8125 H   0  0  0  0  0  0  0  0  0  0  0  0
   -0.5302    1.3938    3.4016 H   0  0  0  0  0  0  0  0  0  0  0  0
   -1.7785    3.5037    2.0756 H   0  0  0  0  0  0  0  0  0  0  0  0
   -0.3945    3.7396    3.2622 H   0  0  0  0  0  0  0  0  0  0  0  0
   -0.3775    2.8293    0.2797 H   0  0  0  0  0  0  0  0  0  0  0  0
   -1.6272    1.3312    0.5406 H   0  0  0  0  0  0  0  0  0  0  0  0
   -3.9795    0.8334    0.5840 H   0  0  0  0  0  0  0  0  0  0  0  0
   -5.7373   -0.3725   -0.7459 H   0  0  0  0  0  0  0  0  0  0  0  0
   -4.0707   -4.0560    0.4997 H   0  0  0  0  0  0  0  0  0  0  0  0
   -2.3090   -2.8481    1.8299 H   0  0  0  0  0  0  0  0  0  0  0  0
   -6.0691   -4.7382    0.3256 H   0  0  0  0  0  0  0  0  0  0  0  0
   -7.7773   -5.8531   -1.0208 H   0  0  0  0  0  0  0  0  0  0  0  0
   -8.7238   -4.7845   -3.0789 H   0  0  0  0  0  0  0  0  0  0  0  0
   -7.8736   -2.5399   -3.7435 H   0  0  0  0  0  0  0  0  0  0  0  0
   -6.1956   -1.4813   -2.4009 H   0  0  0  0  0  0  0  0  0  0  0  0
  1  2  1  0
  2  3  1  0
  3  4  2  0
  4  5  1  0
  5  6  2  0
  6  7  1  0
  7  8  2  0
  6  9  1  0
  9 10  2  0
  9 11  2  0
  9 12  1  0
 12 13  1  0
 13 14  1  0
 14 15  1  0
 15 16  1  0
 16 17  1  0
 17 18  1  0
 18 19  1  0
 16 20  1  0
 20 21  1  0
 21 22  2  0
 21 23  1  0
 23 24  2  0
 24 25  1  0
 25 26  2  0
 26 27  1  0
 27 28  2  0
 26 29  1  0
 29 30  2  0
 30 31  1  0
 31 32  2  0
 32 33  1  0
 33 34  2  0
  8  3  1  0
 19 13  1  0
 28 23  1  0
 34 29  1  0
 18 15  1  0
  1 35  1  0
  1 36  1  0
  1 37  1  0
  4 38  1  0
  5 39  1  0
  7 40  1  0
  8 41  1  0
 12 42  1  0
 13 43  1  6
 14 44  1  0
 14 45  1  0
 15 46  1  1
 16 47  1  1
 17 48  1  0
 17 49  1  0
 18 50  1  6
 20 51  1  0
 24 52  1  0
 25 53  1  0
 27 54  1  0
 28 55  1  0
 30 56  1  0
 31 57  1  0
 32 58  1  0
 33 59  1  0
 34 60  1  0
M  END
$$$$
[H]C([H])([H])N(C([H])([H])[H])C([H])([H])C([H])([H])C([H])([H])[H]
     RDKit          3D

 19 18  0  0  0  0  0  0  0  0999 V2000
   -1.6508    0.2311    1.2065 C   0  0  0  0  0  0  0  0  0  0  0  0
   -1.1476    0.5560   -0.0823 N   0  0  0  0  0  0  0  0  0  0  0  0
   -1.7448   -0.1374   -1.1667 C   0  0  0  0  0  0  0  0  0  0  0  0
    0.2248    0.8636   -0.1625 C   0  0  0  0  0  0  0  0  0  0  0  0
    1.1645   -0.2785    0.0921 C   0  0  0  0  0  0  0  0  0  0  0  0
    2.5923    0.2659   -0.0385 C   0  0  0  0  0  0  0  0  0  0  0  0
   -2.6328    0.7425    1.3338 H   0  0  0  0  0  0  0  0  0  0  0  0
   -0.9605    0.7217    1.9525 H   0  0  0  0  0  0  0  0  0  0  0  0
   -1.7746   -0.8379    1.4022 H   0  0  0  0  0  0  0  0  0  0  0  0
   -2.0003   -1.2017   -0.8799 H   0  0  0  0  0  0  0  0  0  0  0  0
   -1.2036   -0.0988   -2.1043 H   0  0  0  0  0  0  0  0  0  0  0  0
   -2.7545    0.3272   -1.3795 H   0  0  0  0  0  0  0  0  0  0  0  0
    0.4540    1.6575    0.5860 H   0  0  0  0  0  0  0  0  0  0  0  0
    0.4223    1.3120   -1.1737 H   0  0  0  0  0  0  0  0  0  0  0  0
    1.0458   -0.5840    1.1517 H   0  0  0  0  0  0  0  0  0  0  0  0
    1.0816   -1.1045   -0.6233 H   0  0  0  0  0  0  0  0  0  0  0  0
    3.3331   -0.5642   -0.1502 H   0  0  0  0  0  0  0  0  0  0  0  0
    2.8478    0.7773    0.9109 H   0  0  0  0  0  0  0  0  0  0  0  0
    2.7034    0.9613   -0.8747 H   0  0  0  0  0  0  0  0  0  0  0  0
  1  2  1  0
  2  3  1  0
  2  4  1  0
  4  5  1  0
  5  6  1  0
  1  7  1  0
  1  8  1  0
  1  9  1  0
  3 10  1  0
  3 11  1  0
  3 12  1  0
  4 13  1  0
  4 14  1  0
  5 15  1  0
  5 16  1  0
  6 17  1  0
  6 18  1  0
  6 19  1  0
M  END
$$$$
[H]c1c([C@@]([H])(N([H])C(=O)C([H])([H])C([H])([H])[H])C([H])([H])[H])c([H])c2c(nc(C([H])([H])[H])c3c([H])c(OC([H])([H])[H])c([H])c([H])c32)c1[H]
     RDKit          3D

 46 48  0  0  0  0  0  0  0  0999 V2000
    6.9221   -0.5710    2.7129 C   0  0  0  0  0  0  0  0  0  0  0  0
    5.4896   -1.0086    2.8389 C   0  0  0  0  0  0  0  0  0  0  0  0
    4.7614   -0.9143    1.5450 C   0  0  0  0  0  0  0  0  0  0  0  0
    5.4182   -0.4989    0.5526 O   0  0  0  0  0  0  0  0  0  0  0  0
    3.3968   -1.2772    1.4483 N   0  0  0  0  0  0  0  0  0  0  0  0
    2.7418   -1.1676    0.1770 C   0  0  1  0  0  0  0  0  0  0  0  0
    2.2955   -2.5601   -0.2139 C   0  0  0  0  0  0  0  0  0  0  0  0
    1.5796   -0.2633    0.1989 C   0  0  0  0  0  0  0  0  0  0  0  0
    1.6911    0.9714    0.8254 C   0  0  0  0  0  0  0  0  0  0  0  0
    0.5882    1.7958    0.8305 C   0  0  0  0  0  0  0  0  0  0  0  0
   -0.6131    1.4467    0.2430 C   0  0  0  0  0  0  0  0  0  0  0  0
   -1.6458    2.3278    0.3021 N   0  0  0  0  0  0  0  0  0  0  0  0
   -2.8289    2.0417   -0.2464 C   0  0  0  0  0  0  0  0  0  0  0  0
   -3.9842    3.0026   -0.1918 C   0  0  0  0  0  0  0  0  0  0  0  0
   -2.9447    0.8209   -0.8675 C   0  0  0  0  0  0  0  0  0  0  0  0
   -4.1640    0.5148   -1.4347 C   0  0  0  0  0  0  0  0  0  0  0  0
   -4.3640   -0.6865   -2.0728 C   0  0  0  0  0  0  0  0  0  0  0  0
   -5.6134   -0.9780   -2.6431 O   0  0  0  0  0  0  0  0  0  0  0  0
   -6.6449   -0.0349   -2.5522 C   0  0  0  0  0  0  0  0  0  0  0  0
   -3.3324   -1.5862   -2.1416 C   0  0  0  0  0  0  0  0  0  0  0  0
   -2.0748   -1.3120   -1.5761 C   0  0  0  0  0  0  0  0  0  0  0  0
   -1.9140   -0.1127   -0.9523 C   0  0  0  0  0  0  0  0  0  0  0  0
   -0.6967    0.2125   -0.3734 C   0  0  0  0  0  0  0  0  0  0  0  0
    0.4020   -0.6529   -0.3994 C   0  0  0  0  0  0  0  0  0  0  0  0
    7.4322   -1.0052    1.8359 H   0  0  0  0  0  0  0  0  0  0  0  0
    7.4976   -0.8913    3.6069 H   0  0  0  0  0  0  0  0  0  0  0  0
    6.9467    0.5392    2.7258 H   0  0  0  0  0  0  0  0  0  0  0  0
    5.0040   -0.3826    3.6254 H   0  0  0  0  0  0  0  0  0  0  0  0
    5.4751   -2.0569    3.2102 H   0  0  0  0  0  0  0  0  0  0  0  0
    2.9262   -1.6105    2.3098 H   0  0  0  0  0  0  0  0  0  0  0  0
    3.4695   -0.8317   -0.6186 H   0  0  0  0  0  0  0  0  0  0  0  0
    1.3813   -2.7798    0.4047 H   0  0  0  0  0  0  0  0  0  0  0  0
    2.0151   -2.6734   -1.2587 H   0  0  0  0  0  0  0  0  0  0  0  0
    3.0515   -3.3137    0.0965 H   0  0  0  0  0  0  0  0  0  0  0  0
    2.6448    1.2020    1.2695 H   0  0  0  0  0  0  0  0  0  0  0  0
    0.6786    2.7561    1.3187 H   0  0  0  0  0  0  0  0  0  0  0  0
   -4.8033    2.6136    0.4484 H   0  0  0  0  0  0  0  0  0  0  0  0
   -3.6681    3.9657    0.2584 H   0  0  0  0  0  0  0  0  0  0  0  0
   -4.3740    3.1922   -1.2127 H   0  0  0  0  0  0  0  0  0  0  0  0
   -4.9808    1.2319   -1.3771 H   0  0  0  0  0  0  0  0  0  0  0  0
   -7.5341   -0.3429   -3.1031 H   0  0  0  0  0  0  0  0  0  0  0  0
   -6.3601    0.9781   -2.9299 H   0  0  0  0  0  0  0  0  0  0  0  0
   -6.8515    0.1311   -1.4555 H   0  0  0  0  0  0  0  0  0  0  0  0
   -3.4522   -2.5455   -2.6372 H   0  0  0  0  0  0  0  0  0  0  0  0
   -1.2900   -2.0192   -1.6392 H   0  0  0  0  0  0  0  0  0  0  0  0
    0.3260   -1.6220   -0.8875 H   0  0  0  0  0  0  0  0  0  0  0  0
  1  2  1  0
  2  3  1  0
  3  4  2  0
  3  5  1  0
  5  6  1  0
  6  7  1  0
  6  8  1  0
  8  9  2  0
  9 10  1  0
 10 11  2  0
 11 12  1  0
 12 13  2  0
 13 14  1  0
 13 15  1  0
 15 16  2  0
 16 17  1  0
 17 18  1  0
 18 19  1  0
 17 20  2  0
 20 21  1  0
 21 22  2  0
 22 23  1  0
 23 24  2  0
 24  8  1  0
 23 11  1  0
 22 15  1  0
  1 25  1  0
  1 26  1  0
  1 27  1  0
  2 28  1  0
  2 29  1  0
  5 30  1  0
  6 31  1  6
  7 32  1  0
  7 33  1  0
  7 34  1  0
  9 35  1  0
 10 36  1  0
 14 37  1  0
 14 38  1  0
 14 39  1  0
 16 40  1  0
 19 41  1  0
 19 42  1  0
 19 43  1  0
 20 44  1  0
 21 45  1  0
 24 46  1  0
M  END
$$$$
[H]C(C(=O)N(C([H])([H])c1c([H])c([H])c([H])c([H])c1[H])C([H])([H])C([H])([H])C([H])([H])C([H])([H])S(=O)(=O)N([H])[H])=C([H])c1c([H])c([H])c(OC(C([H])([H])[H])(C([H])([H])[H])C([H])([H])[H])c([H])c1[H]
     RDKit          3D

 63 64  0  0  0  0  0  0  0  0999 V2000
    7.2193    1.0168    0.1895 C   0  0  0  0  0  0  0  0  0  0  0  0
    7.1940   -0.1767   -0.7641 C   0  0  0  0  0  0  0  0  0  0  0  0
    8.4664   -0.1724   -1.5776 C   0  0  0  0  0  0  0  0  0  0  0  0
    7.1349   -1.4265    0.0824 C   0  0  0  0  0  0  0  0  0  0  0  0
    6.0816   -0.0583   -1.6253 O   0  0  0  0  0  0  0  0  0  0  0  0
    4.8034   -0.0165   -1.1063 C   0  0  0  0  0  0  0  0  0  0  0  0
    4.1976    1.1621   -0.7608 C   0  0  0  0  0  0  0  0  0  0  0  0
    2.9306    1.1375   -0.2520 C   0  0  0  0  0  0  0  0  0  0  0  0
    2.2001   -0.0399   -0.0586 C   0  0  0  0  0  0  0  0  0  0  0  0
    2.8344   -1.1900   -0.4131 C   0  0  0  0  0  0  0  0  0  0  0  0
    4.1189   -1.1904   -0.9312 C   0  0  0  0  0  0  0  0  0  0  0  0
    0.8576   -0.0062    0.4856 C   0  0  0  0  0  0  0  0  0  0  0  0
    0.1448   -1.0578    0.6827 C   0  0  0  0  0  0  0  0  0  0  0  0
   -1.1590   -1.3029    1.1879 C   0  0  0  0  0  0  0  0  0  0  0  0
   -1.4549   -2.6085    1.1991 O   0  0  0  0  0  0  0  0  0  0  0  0
   -2.1470   -0.4468    1.6593 N   0  0  0  0  0  0  0  0  0  0  0  0
   -2.0784    0.9630    1.7102 C   0  0  0  0  0  0  0  0  0  0  0  0
   -2.4378    1.7276    0.5269 C   0  0  0  0  0  0  0  0  0  0  0  0
   -2.7504    3.0802    0.7098 C   0  0  0  0  0  0  0  0  0  0  0  0
   -3.0914    3.8849   -0.3524 C   0  0  0  0  0  0  0  0  0  0  0  0
   -3.1395    3.3948   -1.6368 C   0  0  0  0  0  0  0  0  0  0  0  0
   -2.8373    2.0724   -1.8416 C   0  0  0  0  0  0  0  0  0  0  0  0
   -2.4986    1.2833   -0.7672 C   0  0  0  0  0  0  0  0  0  0  0  0
   -3.3444   -1.1461    2.2152 C   0  0  0  0  0  0  0  0  0  0  0  0
   -4.3077   -1.3572    1.0732 C   0  0  0  0  0  0  0  0  0  0  0  0
   -5.5296   -2.0943    1.5115 C   0  0  0  0  0  0  0  0  0  0  0  0
   -6.4709   -2.3499    0.3896 C   0  0  0  0  0  0  0  0  0  0  0  0
   -7.1400   -0.9717   -0.4385 S   0  0  0  0  0  0  0  0  0  0  0  0
   -6.0242    0.0451   -1.2227 N   0  0  0  0  0  0  0  0  0  0  0  0
   -7.9879   -0.1276    0.5134 O   0  0  0  0  0  0  0  0  0  0  0  0
   -8.1329   -1.4255   -1.5078 O   0  0  0  0  0  0  0  0  0  0  0  0
    7.2002    1.9171   -0.4332 H   0  0  0  0  0  0  0  0  0  0  0  0
    6.3370    1.0086    0.8536 H   0  0  0  0  0  0  0  0  0  0  0  0
    8.1122    0.9551    0.8395 H   0  0  0  0  0  0  0  0  0  0  0  0
    9.2923    0.1202   -0.9061 H   0  0  0  0  0  0  0  0  0  0  0  0
    8.6391   -1.1985   -1.9708 H   0  0  0  0  0  0  0  0  0  0  0  0
    8.3892    0.5548   -2.4121 H   0  0  0  0  0  0  0  0  0  0  0  0
    7.0997   -2.3435   -0.5285 H   0  0  0  0  0  0  0  0  0  0  0  0
    6.2960   -1.3346    0.7887 H   0  0  0  0  0  0  0  0  0  0  0  0
    8.0632   -1.4540    0.6861 H   0  0  0  0  0  0  0  0  0  0  0  0
    4.7256    2.1045   -0.8927 H   0  0  0  0  0  0  0  0  0  0  0  0
    2.4820    2.0772    0.0097 H   0  0  0  0  0  0  0  0  0  0  0  0
    2.3784   -2.1651   -0.3131 H   0  0  0  0  0  0  0  0  0  0  0  0
    4.5569   -2.1643   -1.1914 H   0  0  0  0  0  0  0  0  0  0  0  0
    0.5020    1.0048    0.7114 H   0  0  0  0  0  0  0  0  0  0  0  0
    0.6851   -2.0097    0.3824 H   0  0  0  0  0  0  0  0  0  0  0  0
   -1.1207    1.3092    2.1329 H   0  0  0  0  0  0  0  0  0  0  0  0
   -2.8426    1.3091    2.5178 H   0  0  0  0  0  0  0  0  0  0  0  0
   -2.7310    3.5256    1.6932 H   0  0  0  0  0  0  0  0  0  0  0  0
   -3.3391    4.9417   -0.2363 H   0  0  0  0  0  0  0  0  0  0  0  0
   -3.4152    4.0600   -2.4688 H   0  0  0  0  0  0  0  0  0  0  0  0
   -2.8746    1.6832   -2.8547 H   0  0  0  0  0  0  0  0  0  0  0  0
   -2.2571    0.2254   -0.9325 H   0  0  0  0  0  0  0  0  0  0  0  0
   -3.0044   -2.1125    2.5738 H   0  0  0  0  0  0  0  0  0  0  0  0
   -3.7765   -0.5453    3.0322 H   0  0  0  0  0  0  0  0  0  0  0  0
   -3.7817   -1.8686    0.2562 H   0  0  0  0  0  0  0  0  0  0  0  0
   -4.6112   -0.3197    0.7713 H   0  0  0  0  0  0  0  0  0  0  0  0
   -5.2297   -3.0820    1.9644 H   0  0  0  0  0  0  0  0  0  0  0  0
   -6.0545   -1.4773    2.2964 H   0  0  0  0  0  0  0  0  0  0  0  0
   -5.9914   -3.0186   -0.3998 H   0  0  0  0  0  0  0  0  0  0  0  0
   -7.3448   -2.9743    0.7641 H   0  0  0  0  0  0  0  0  0  0  0  0
   -6.2965    1.0330   -1.2540 H   0  0  0  0  0  0  0  0  0  0  0  0
   -5.7396   -0.3639   -2.1340 H   0  0  0  0  0  0  0  0  0  0  0  0
  1  2  1  0
  2  3  1  0
  2  4  1  0
  2  5  1  0
  5  6  1  0
  6  7  2  0
  7  8  1  0
  8  9  2  0
  9 10  1  0
 10 11  2  0
  9 12  1  0
 12 13  2  3
 13 14  1  0
 14 15  2  0
 14 16  1  0
 16 17  1  0
 17 18  1  0
 18 19  2  0
 19 20  1  0
 20 21  2  0
 21 22  1  0
 22 23  2  0
 16 24  1  0
 24 25  1  0
 25 26  1  0
 26 27  1  0
 27 28  1  0
 28 29  1  0
 28 30  2  0
 28 31  2  0
 11  6  1  0
 23 18  1  0
  1 32  1  0
  1 33  1  0
  1 34  1  0
  3 35  1  0
  3 36  1  0
  3 37  1  0
  4 38  1  0
  4 39  1  0
  4 40  1  0
  7 41  1  0
  8 42  1  0
 10 43  1  0
 11 44  1  0
 12 45  1  0
 13 46  1  0
 17 47  1  0
 17 48  1  0
 19 49  1  0
 20 50  1  0
 21 51  1  0
 22 52  1  0
 23 53  1  0
 24 54  1  0
 24 55  1  0
 25 56  1  0
 25 57  1  0
 26 58  1  0
 26 59  1  0
 27 60  1  0
 27 61  1  0
 29 62  1  0
 29 63  1  0
M  END
$$$$
[H]O[C@]1([H])C([H])([H])C([H])([H])[C@]([H])(c2nc(-c3c([H])c([H])c(C(=O)N([H])c4nc([H])c([H])c(C(F)(F)F)c4[H])c([H])c3F)c3c(N([H])[H])nc([H])c([H])n32)C([H])([H])C1([H])[H]
     RDKit          3D

 59 63  0  0  0  0  0  0  0  0999 V2000
   -1.3861   -3.9696    0.6723 N   0  0  0  0  0  0  0  0  0  0  0  0
   -2.5524   -3.2256    0.4455 C   0  0  0  0  0  0  0  0  0  0  0  0
   -3.7563   -3.8104    0.3577 N   0  0  0  0  0  0  0  0  0  0  0  0
   -4.8605   -3.0774    0.1931 C   0  0  0  0  0  0  0  0  0  0  0  0
   -4.7501   -1.7083    0.1140 C   0  0  0  0  0  0  0  0  0  0  0  0
   -3.5764   -1.0967    0.1969 N   0  0  0  0  0  0  0  0  0  0  0  0
   -3.2364    0.2198    0.1418 C   0  0  0  0  0  0  0  0  0  0  0  0
   -1.9156    0.2382    0.2711 N   0  0  0  0  0  0  0  0  0  0  0  0
   -1.4090   -1.0182    0.4008 C   0  0  0  0  0  0  0  0  0  0  0  0
    0.0316   -1.1986    0.4313 C   0  0  0  0  0  0  0  0  0  0  0  0
    0.6285   -1.8480   -0.6752 C   0  0  0  0  0  0  0  0  0  0  0  0
    1.9715   -1.8245   -0.7880 C   0  0  0  0  0  0  0  0  0  0  0  0
    2.8156   -1.1880    0.1364 C   0  0  0  0  0  0  0  0  0  0  0  0
    2.2451   -0.5781    1.2040 C   0  0  0  0  0  0  0  0  0  0  0  0
    0.8520   -0.5978    1.3242 C   0  0  0  0  0  0  0  0  0  0  0  0
    0.3517    0.0519    2.4328 F   0  0  0  0  0  0  0  0  0  0  0  0
    4.2203   -1.0390   -0.1884 C   0  0  0  0  0  0  0  0  0  0  0  0
    4.5973   -1.4399   -1.3809 O   0  0  0  0  0  0  0  0  0  0  0  0
    5.1830   -0.4830    0.6518 N   0  0  0  0  0  0  0  0  0  0  0  0
    6.4517   -0.1645    0.0350 C   0  0  0  0  0  0  0  0  0  0  0  0
    7.5139    0.2429    0.7379 C   0  0  0  0  0  0  0  0  0  0  0  0
    8.6893    0.6384    0.0828 C   0  0  0  0  0  0  0  0  0  0  0  0
    8.7572    0.6095   -1.3262 C   0  0  0  0  0  0  0  0  0  0  0  0
    7.6428    0.1837   -1.9974 C   0  0  0  0  0  0  0  0  0  0  0  0
    6.5467   -0.1856   -1.3246 N   0  0  0  0  0  0  0  0  0  0  0  0
    9.8963    1.0562    0.8347 C   0  0  0  0  0  0  0  0  0  0  0  0
    9.7390    0.8271    2.1714 F   0  0  0  0  0  0  0  0  0  0  0  0
   10.9577    0.3081    0.3377 F   0  0  0  0  0  0  0  0  0  0  0  0
   10.1375    2.4013    0.5426 F   0  0  0  0  0  0  0  0  0  0  0  0
   -2.4522   -1.8472    0.3630 C   0  0  0  0  0  0  0  0  0  0  0  0
   -4.1315    1.4143   -0.0307 C   0  0  2  0  0  0  0  0  0  0  0  0
   -4.9522    1.5908    1.1900 C   0  0  0  0  0  0  0  0  0  0  0  0
   -6.1894    2.4060    1.0336 C   0  0  0  0  0  0  0  0  0  0  0  0
   -6.1593    3.1153   -0.3029 C   0  0  2  0  0  0  0  0  0  0  0  0
   -7.3100    3.8572   -0.4689 O   0  0  0  0  0  0  0  0  0  0  0  0
   -6.2017    2.0085   -1.3430 C   0  0  0  0  0  0  0  0  0  0  0  0
   -4.8252    1.3739   -1.3242 C   0  0  0  0  0  0  0  0  0  0  0  0
   -1.1520   -4.7776    0.0716 H   0  0  0  0  0  0  0  0  0  0  0  0
   -0.7733   -3.7013    1.4444 H   0  0  0  0  0  0  0  0  0  0  0  0
   -5.8575   -3.5291    0.1084 H   0  0  0  0  0  0  0  0  0  0  0  0
   -5.6547   -1.1032   -0.0266 H   0  0  0  0  0  0  0  0  0  0  0  0
   -0.0144   -2.3206   -1.3985 H   0  0  0  0  0  0  0  0  0  0  0  0
    2.4797   -2.3260   -1.6313 H   0  0  0  0  0  0  0  0  0  0  0  0
    2.8584   -0.0713    1.9766 H   0  0  0  0  0  0  0  0  0  0  0  0
    5.0100   -0.1705    1.6046 H   0  0  0  0  0  0  0  0  0  0  0  0
    7.5123    0.2823    1.8317 H   0  0  0  0  0  0  0  0  0  0  0  0
    9.6357    0.9046   -1.8565 H   0  0  0  0  0  0  0  0  0  0  0  0
    7.6078    0.1232   -3.1008 H   0  0  0  0  0  0  0  0  0  0  0  0
   -3.4388    2.3002   -0.0786 H   0  0  0  0  0  0  0  0  0  0  0  0
   -5.2127    0.6444    1.7110 H   0  0  0  0  0  0  0  0  0  0  0  0
   -4.3030    2.1407    1.9468 H   0  0  0  0  0  0  0  0  0  0  0  0
   -6.3284    3.1204    1.8840 H   0  0  0  0  0  0  0  0  0  0  0  0
   -7.0725    1.7377    1.0346 H   0  0  0  0  0  0  0  0  0  0  0  0
   -5.2590    3.7153   -0.4444 H   0  0  0  0  0  0  0  0  0  0  0  0
   -7.1758    4.8421   -0.4227 H   0  0  0  0  0  0  0  0  0  0  0  0
   -6.3995    2.4690   -2.3400 H   0  0  0  0  0  0  0  0  0  0  0  0
   -6.9133    1.2172   -1.0593 H   0  0  0  0  0  0  0  0  0  0  0  0
   -4.8749    0.3317   -1.7809 H   0  0  0  0  0  0  0  0  0  0  0  0
   -4.2384    1.9283   -2.0980 H   0  0  0  0  0  0  0  0  0  0  0  0
  1  2  1  0
  2  3  2  0
  3  4  1  0
  4  5  2  0
  5  6  1  0
  6  7  1  0
  7  8  2  0
  8  9  1  0
  9 10  1  0
 10 11  2  0
 11 12  1  0
 12 13  2  0
 13 14  1  0
 14 15  2  0
 15 16  1  0
 13 17  1  0
 17 18  2  0
 17 19  1  0
 19 20  1  0
 20 21  2  0
 21 22  1  0
 22 23  2  0
 23 24  1  0
 24 25  2  0
 22 26  1  0
 26 27  1  0
 26 28  1  0
 26 29  1  0
  9 30  2  0
  7 31  1  0
 31 32  1  0
 32 33  1  0
 33 34  1  0
 34 35  1  0
 34 36  1  0
 36 37  1  0
 30  2  1  0
 37 31  1  0
 30  6  1  0
 15 10  1  0
 25 20  1  0
  1 38  1  0
  1 39  1  0
  4 40  1  0
  5 41  1  0
 11 42  1  0
 12 43  1  0
 14 44  1  0
 19 45  1  0
 21 46  1  0
 23 47  1  0
 24 48  1  0
 31 49  1  6
 32 50  1  0
 32 51  1  0
 33 52  1  0
 33 53  1  0
 34 54  1  1
 35 55  1  0
 36 56  1  0
 36 57  1  0
 37 58  1  0
 37 59  1  0
M  END
$$$$
[H]c1c([H])c([H])c(C([H])([H])OC(=O)N([H])[C@]([H])(C(=O)N([H])[C@]([H])(C(=O)N([H])[C@]([H])(C(=O)N([H])[C@@]([H])(C([H])([H])c2c([H])c([H])c([H])c([H])c2[H])C([H])(C([H])([H])[H])C([H])([H])[H])C([H])([H])C([H])(C([H])([H])[H])C([H])([H])[H])C([H])([H])c2c([H])c([H])c([H])c([H])c2[H])C([H])(C([H])([H])[H])C([H])([H])[H])c([H])c1[H]
     RDKit          3D

100102  0  0  0  0  0  0  0  0999 V2000
   -3.6873   -3.3549   -2.1347 C   0  0  0  0  0  0  0  0  0  0  0  0
   -4.5290   -2.4286   -1.2715 C   0  0  0  0  0  0  0  0  0  0  0  0
   -5.1416   -3.4415   -0.2407 C   0  0  0  0  0  0  0  0  0  0  0  0
   -3.7778   -1.4584   -0.4820 C   0  0  2  0  0  0  0  0  0  0  0  0
   -4.5716   -0.5184    0.2568 N   0  0  0  0  0  0  0  0  0  0  0  0
   -5.9205   -0.3847    0.5414 C   0  0  0  0  0  0  0  0  0  0  0  0
   -6.8501   -1.1216    0.1676 O   0  0  0  0  0  0  0  0  0  0  0  0
   -6.3880    0.6971    1.3480 O   0  0  0  0  0  0  0  0  0  0  0  0
   -7.7204    0.9044    1.6743 C   0  0  0  0  0  0  0  0  0  0  0  0
   -8.2445   -0.2500    2.4355 C   0  0  0  0  0  0  0  0  0  0  0  0
   -7.7035   -0.6092    3.6617 C   0  0  0  0  0  0  0  0  0  0  0  0
   -8.1854   -1.6778    4.3983 C   0  0  0  0  0  0  0  0  0  0  0  0
   -9.2467   -2.4252    3.9045 C   0  0  0  0  0  0  0  0  0  0  0  0
   -9.7956   -2.0950    2.7052 C   0  0  0  0  0  0  0  0  0  0  0  0
   -9.3013   -1.0215    1.9802 C   0  0  0  0  0  0  0  0  0  0  0  0
   -2.6087   -0.7824   -0.9727 C   0  0  0  0  0  0  0  0  0  0  0  0
   -2.0895    0.0416   -0.0968 O   0  0  0  0  0  0  0  0  0  0  0  0
   -1.8984   -0.7984   -2.1729 N   0  0  0  0  0  0  0  0  0  0  0  0
   -0.7174   -0.0078   -2.4566 C   0  0  1  0  0  0  0  0  0  0  0  0
   -0.9106    1.4761   -2.3512 C   0  0  0  0  0  0  0  0  0  0  0  0
   -1.9302    2.0156   -3.2868 C   0  0  0  0  0  0  0  0  0  0  0  0
   -3.2270    2.1888   -2.8687 C   0  0  0  0  0  0  0  0  0  0  0  0
   -4.2071    2.6816   -3.7344 C   0  0  0  0  0  0  0  0  0  0  0  0
   -3.8430    2.9907   -5.0177 C   0  0  0  0  0  0  0  0  0  0  0  0
   -2.5412    2.8156   -5.4302 C   0  0  0  0  0  0  0  0  0  0  0  0
   -1.5909    2.3343   -4.5802 C   0  0  0  0  0  0  0  0  0  0  0  0
    0.4729   -0.4671   -1.7311 C   0  0  0  0  0  0  0  0  0  0  0  0
    0.3563   -1.4984   -0.9965 O   0  0  0  0  0  0  0  0  0  0  0  0
    1.7086    0.1623   -1.8066 N   0  0  0  0  0  0  0  0  0  0  0  0
    2.9249   -0.2421   -1.1265 C   0  0  1  0  0  0  0  0  0  0  0  0
    4.0853   -0.3781   -2.0350 C   0  0  0  0  0  0  0  0  0  0  0  0
    4.4797    0.8297   -2.8075 C   0  0  0  0  0  0  0  0  0  0  0  0
    5.6887    0.4151   -3.6651 C   0  0  0  0  0  0  0  0  0  0  0  0
    4.9572    1.9920   -1.9807 C   0  0  0  0  0  0  0  0  0  0  0  0
    3.1513    0.5159    0.1177 C   0  0  0  0  0  0  0  0  0  0  0  0
    2.3065    1.3934    0.5161 O   0  0  0  0  0  0  0  0  0  0  0  0
    4.2855    0.3376    0.9507 N   0  0  0  0  0  0  0  0  0  0  0  0
    4.4980    1.0715    2.1878 C   0  0  1  0  0  0  0  0  0  0  0  0
    4.5358    0.1494    3.3419 C   0  0  0  0  0  0  0  0  0  0  0  0
    5.5276   -0.8976    3.3994 C   0  0  0  0  0  0  0  0  0  0  0  0
    5.3497   -2.1418    2.8420 C   0  0  0  0  0  0  0  0  0  0  0  0
    6.2889   -3.1368    2.9154 C   0  0  0  0  0  0  0  0  0  0  0  0
    7.4768   -2.9224    3.5674 C   0  0  0  0  0  0  0  0  0  0  0  0
    7.6947   -1.6699    4.1464 C   0  0  0  0  0  0  0  0  0  0  0  0
    6.7272   -0.7219    4.0416 C   0  0  0  0  0  0  0  0  0  0  0  0
    5.5689    2.0593    1.9772 C   0  0  0  0  0  0  0  0  0  0  0  0
    6.9168    1.5436    1.5745 C   0  0  0  0  0  0  0  0  0  0  0  0
    5.6646    3.1092    3.0724 C   0  0  0  0  0  0  0  0  0  0  0  0
   -2.6602   -3.4297   -1.7919 H   0  0  0  0  0  0  0  0  0  0  0  0
   -4.1113   -4.3784   -2.0766 H   0  0  0  0  0  0  0  0  0  0  0  0
   -3.8009   -3.1105   -3.2343 H   0  0  0  0  0  0  0  0  0  0  0  0
   -5.3668   -1.9968   -1.8044 H   0  0  0  0  0  0  0  0  0  0  0  0
   -6.1372   -3.7481   -0.5178 H   0  0  0  0  0  0  0  0  0  0  0  0
   -5.0125   -3.0849    0.7907 H   0  0  0  0  0  0  0  0  0  0  0  0
   -4.5254   -4.3991   -0.2596 H   0  0  0  0  0  0  0  0  0  0  0  0
   -3.3699   -2.1390    0.4092 H   0  0  0  0  0  0  0  0  0  0  0  0
   -3.9708    0.3081    0.7243 H   0  0  0  0  0  0  0  0  0  0  0  0
   -8.3636    1.0078    0.7632 H   0  0  0  0  0  0  0  0  0  0  0  0
   -7.8809    1.8168    2.2840 H   0  0  0  0  0  0  0  0  0  0  0  0
   -6.8815   -0.0467    4.0653 H   0  0  0  0  0  0  0  0  0  0  0  0
   -7.7187   -1.9021    5.3452 H   0  0  0  0  0  0  0  0  0  0  0  0
   -9.5986   -3.2641    4.5232 H   0  0  0  0  0  0  0  0  0  0  0  0
  -10.6243   -2.6923    2.3339 H   0  0  0  0  0  0  0  0  0  0  0  0
   -9.7861   -0.8136    1.0336 H   0  0  0  0  0  0  0  0  0  0  0  0
   -2.2276   -1.4064   -2.9481 H   0  0  0  0  0  0  0  0  0  0  0  0
   -0.4828   -0.1627   -3.5744 H   0  0  0  0  0  0  0  0  0  0  0  0
    0.1010    1.9300   -2.5979 H   0  0  0  0  0  0  0  0  0  0  0  0
   -1.1544    1.8611   -1.3632 H   0  0  0  0  0  0  0  0  0  0  0  0
   -3.5860    1.9805   -1.8727 H   0  0  0  0  0  0  0  0  0  0  0  0
   -5.2179    2.8162   -3.4068 H   0  0  0  0  0  0  0  0  0  0  0  0
   -4.6009    3.3809   -5.7217 H   0  0  0  0  0  0  0  0  0  0  0  0
   -2.2926    3.0704   -6.4430 H   0  0  0  0  0  0  0  0  0  0  0  0
   -0.5758    2.1982   -4.9012 H   0  0  0  0  0  0  0  0  0  0  0  0
    1.8447    1.0331   -2.4118 H   0  0  0  0  0  0  0  0  0  0  0  0
    2.6768   -1.2972   -0.7525 H   0  0  0  0  0  0  0  0  0  0  0  0
    4.9778   -0.6392   -1.3853 H   0  0  0  0  0  0  0  0  0  0  0  0
    4.0070   -1.2814   -2.7085 H   0  0  0  0  0  0  0  0  0  0  0  0
    3.6387    1.1483   -3.4680 H   0  0  0  0  0  0  0  0  0  0  0  0
    6.3248   -0.3274   -3.1412 H   0  0  0  0  0  0  0  0  0  0  0  0
    6.3342    1.3146   -3.8478 H   0  0  0  0  0  0  0  0  0  0  0  0
    5.3692    0.0696   -4.6636 H   0  0  0  0  0  0  0  0  0  0  0  0
    5.3963    2.7302   -2.7105 H   0  0  0  0  0  0  0  0  0  0  0  0
    5.7965    1.6365   -1.3297 H   0  0  0  0  0  0  0  0  0  0  0  0
    4.1982    2.4835   -1.3760 H   0  0  0  0  0  0  0  0  0  0  0  0
    5.0007   -0.3577    0.6530 H   0  0  0  0  0  0  0  0  0  0  0  0
    3.5456    1.7023    2.2893 H   0  0  0  0  0  0  0  0  0  0  0  0
    3.5123   -0.3339    3.3919 H   0  0  0  0  0  0  0  0  0  0  0  0
    4.5380    0.7896    4.2766 H   0  0  0  0  0  0  0  0  0  0  0  0
    4.4189   -2.3950    2.3007 H   0  0  0  0  0  0  0  0  0  0  0  0
    6.1225   -4.1250    2.4562 H   0  0  0  0  0  0  0  0  0  0  0  0
    8.2469   -3.6981    3.6471 H   0  0  0  0  0  0  0  0  0  0  0  0
    8.6412   -1.5099    4.6598 H   0  0  0  0  0  0  0  0  0  0  0  0
    6.9662    0.2453    4.5248 H   0  0  0  0  0  0  0  0  0  0  0  0
    5.2169    2.6572    1.0707 H   0  0  0  0  0  0  0  0  0  0  0  0
    6.9155    0.5164    1.1585 H   0  0  0  0  0  0  0  0  0  0  0  0
    7.7035    1.6938    2.3726 H   0  0  0  0  0  0  0  0  0  0  0  0
    7.3590    2.1665    0.7255 H   0  0  0  0  0  0  0  0  0  0  0  0
    5.5049    4.1393    2.6925 H   0  0  0  0  0  0  0  0  0  0  0  0
    4.8683    2.9135    3.8075 H   0  0  0  0  0  0  0  0  0  0  0  0
    6.6825    3.1177    3.5317 H   0  0  0  0  0  0  0  0  0  0  0  0
  1  2  1  0
  2  3  1  0
  2  4  1  0
  4  5  1  0
  5  6  1  0
  6  7  2  0
  6  8  1  0
  8  9  1  0
  9 10  1  0
 10 11  2  0
 11 12  1  0
 12 13  2  0
 13 14  1  0
 14 15  2  0
  4 16  1  0
 16 17  2  0
 16 18  1  0
 18 19  1  0
 19 20  1  0
 20 21  1  0
 21 22  2  0
 22 23  1  0
 23 24  2  0
 24 25  1  0
 25 26  2  0
 19 27  1  0
 27 28  2  0
 27 29  1  0
 29 30  1  0
 30 31  1  0
 31 32  1  0
 32 33  1  0
 32 34  1  0
 30 35  1  0
 35 36  2  0
 35 37  1  0
 37 38  1  0
 38 39  1  0
 39 40  1  0
 40 41  2  0
 41 42  1  0
 42 43  2  0
 43 44  1  0
 44 45  2  0
 38 46  1  0
 46 47  1  0
 46 48  1  0
 15 10  1  0
 26 21  1  0
 45 40  1  0
  1 49  1  0
  1 50  1  0
  1 51  1  0
  2 52  1  0
  3 53  1  0
  3 54  1  0
  3 55  1  0
  4 56  1  1
  5 57  1  0
  9 58  1  0
  9 59  1  0
 11 60  1  0
 12 61  1  0
 13 62  1  0
 14 63  1  0
 15 64  1  0
 18 65  1  0
 19 66  1  6
 20 67  1  0
 20 68  1  0
 22 69  1  0
 23 70  1  0
 24 71  1  0
 25 72  1  0
 26 73  1  0
 29 74  1  0
 30 75  1  1
 31 76  1  0
 31 77  1  0
 32 78  1  0
 33 79  1  0
 33 80  1  0
 33 81  1  0
 34 82  1  0
 34 83  1  0
 34 84  1  0
 37 85  1  0
 38 86  1  1
 39 87  1  0
 39 88  1  0
 41 89  1  0
 42 90  1  0
 43 91  1  0
 44 92  1  0
 45 93  1  0
 46 94  1  0
 47 95  1  0
 47 96  1  0
 47 97  1  0
 48 98  1  0
 48 99  1  0
 48100  1  0
M  END
$$$$
[H]c1nc(N([H])c2c([H])c(OC([H])([H])[H])c(OC([H])([H])[H])c(OC([H])([H])[H])c2[H])nc(-c2c([H])c([H])c3c(c2[H])OC([H])([H])O3)c1[H]
     RDKit          3D

 47 50  0  0  0  0  0  0  0  0999 V2000
    6.8983   -0.0687   -0.8410 C   0  0  0  0  0  0  0  0  0  0  0  0
    6.1689    0.3164    0.3096 O   0  0  0  0  0  0  0  0  0  0  0  0
    4.7807    0.3811    0.2861 C   0  0  0  0  0  0  0  0  0  0  0  0
    4.0309   -0.7150    0.6151 C   0  0  0  0  0  0  0  0  0  0  0  0
    4.5819   -1.9190    0.9802 O   0  0  0  0  0  0  0  0  0  0  0  0
    3.8157   -3.0524    1.3203 C   0  0  0  0  0  0  0  0  0  0  0  0
    2.6337   -0.6112    0.5798 C   0  0  0  0  0  0  0  0  0  0  0  0
    1.9889    0.5248    0.2343 C   0  0  0  0  0  0  0  0  0  0  0  0
    0.6092    0.7313    0.1449 N   0  0  0  0  0  0  0  0  0  0  0  0
   -0.3732   -0.2803    0.0650 C   0  0  0  0  0  0  0  0  0  0  0  0
   -0.1634   -1.5997    0.0491 N   0  0  0  0  0  0  0  0  0  0  0  0
   -1.1231   -2.5285   -0.0277 C   0  0  0  0  0  0  0  0  0  0  0  0
   -2.4493   -2.1105   -0.0973 C   0  0  0  0  0  0  0  0  0  0  0  0
   -2.7146   -0.7650   -0.0841 C   0  0  0  0  0  0  0  0  0  0  0  0
   -1.6745    0.0911   -0.0042 N   0  0  0  0  0  0  0  0  0  0  0  0
   -4.0747   -0.2468   -0.1536 C   0  0  0  0  0  0  0  0  0  0  0  0
   -4.2865    1.1263   -0.1366 C   0  0  0  0  0  0  0  0  0  0  0  0
   -5.5538    1.6637   -0.2002 C   0  0  0  0  0  0  0  0  0  0  0  0
   -6.6394    0.8152   -0.2828 C   0  0  0  0  0  0  0  0  0  0  0  0
   -8.0213    0.9827   -0.3612 O   0  0  0  0  0  0  0  0  0  0  0  0
   -8.6832   -0.2218   -0.0237 C   0  0  0  0  0  0  0  0  0  0  0  0
   -7.6905   -1.1901   -0.3881 O   0  0  0  0  0  0  0  0  0  0  0  0
   -6.4634   -0.5553   -0.3018 C   0  0  0  0  0  0  0  0  0  0  0  0
   -5.1603   -1.0751   -0.2357 C   0  0  0  0  0  0  0  0  0  0  0  0
    2.8098    1.6187   -0.0935 C   0  0  0  0  0  0  0  0  0  0  0  0
    4.1717    1.5837   -0.0788 C   0  0  0  0  0  0  0  0  0  0  0  0
    4.9387    2.6655   -0.4030 O   0  0  0  0  0  0  0  0  0  0  0  0
    4.4579    3.9206   -0.7833 C   0  0  0  0  0  0  0  0  0  0  0  0
    6.2391   -0.2607   -1.7115 H   0  0  0  0  0  0  0  0  0  0  0  0
    7.6017    0.7623   -1.1327 H   0  0  0  0  0  0  0  0  0  0  0  0
    7.5469   -0.9434   -0.6485 H   0  0  0  0  0  0  0  0  0  0  0  0
    3.0353   -3.2623    0.5523 H   0  0  0  0  0  0  0  0  0  0  0  0
    4.4679   -3.9349    1.4313 H   0  0  0  0  0  0  0  0  0  0  0  0
    3.3008   -2.8399    2.2972 H   0  0  0  0  0  0  0  0  0  0  0  0
    2.0777   -1.4875    0.8588 H   0  0  0  0  0  0  0  0  0  0  0  0
    0.2352    1.7340    0.1388 H   0  0  0  0  0  0  0  0  0  0  0  0
   -0.8316   -3.5630   -0.0326 H   0  0  0  0  0  0  0  0  0  0  0  0
   -3.2200   -2.8616   -0.1590 H   0  0  0  0  0  0  0  0  0  0  0  0
   -3.4299    1.7895   -0.0716 H   0  0  0  0  0  0  0  0  0  0  0  0
   -5.7502    2.7228   -0.1891 H   0  0  0  0  0  0  0  0  0  0  0  0
   -8.8186   -0.2569    1.0581 H   0  0  0  0  0  0  0  0  0  0  0  0
   -9.6119   -0.3685   -0.6096 H   0  0  0  0  0  0  0  0  0  0  0  0
   -5.0611   -2.1471   -0.2529 H   0  0  0  0  0  0  0  0  0  0  0  0
    2.3381    2.5583   -0.3793 H   0  0  0  0  0  0  0  0  0  0  0  0
    4.2697    4.4962    0.1693 H   0  0  0  0  0  0  0  0  0  0  0  0
    5.2651    4.4938   -1.3046 H   0  0  0  0  0  0  0  0  0  0  0  0
    3.5306    3.8871   -1.3766 H   0  0  0  0  0  0  0  0  0  0  0  0
  1  2  1  0
  2  3  1  0
  3  4  2  0
  4  5  1  0
  5  6  1  0
  4  7  1  0
  7  8  2  0
  8  9  1  0
  9 10  1  0
 10 11  2  0
 11 12  1  0
 12 13  2  0
 13 14  1  0
 14 15  2  0
 14 16  1  0
 16 17  2  0
 17 18  1  0
 18 19  2  0
 19 20  1  0
 20 21  1  0
 21 22  1  0
 22 23  1  0
 23 24  2  0
  8 25  1  0
 25 26  2  0
 26 27  1  0
 27 28  1  0
 26  3  1  0
 15 10  1  0
 24 16  1  0
 23 19  1  0
  1 29  1  0
  1 30  1  0
  1 31  1  0
  6 32  1  0
  6 33  1  0
  6 34  1  0
  7 35  1  0
  9 36  1  0
 12 37  1  0
 13 38  1  0
 17 39  1  0
 18 40  1  0
 21 41  1  0
 21 42  1  0
 24 43  1  0
 25 44  1  0
 28 45  1  0
 28 46  1  0
 28 47  1  0
M  END
$$$$
[H]Oc1c([H])c([H])c(C([H])([H])[C@@]([H])(C(=O)N([H])[C@]([H])(C(=O)N([H])[C@]([H])(C(=O)N([H])[C@]([H])(C(=O)N([H])[C@]([H])(C(=O)N([H])[H])C([H])([H])C([H])(C([H])([H])[H])C([H])([H])[H])C([H])([H])c2c([H])c([H])c([H])c([H])c2[H])C([H])([H])c2c([H])c([H])c([H])c([H])c2[H])C([H])([H])c2c([H])c([H])c([H])c([H])c2[H])N([H])[H])c([H])c1[H]
     RDKit          3D

104107  0  0  0  0  0  0  0  0999 V2000
   -7.8980    4.7348   -0.4807 C   0  0  0  0  0  0  0  0  0  0  0  0
   -7.1688    3.7372   -1.2708 C   0  0  0  0  0  0  0  0  0  0  0  0
   -6.0616    4.5382   -2.0305 C   0  0  0  0  0  0  0  0  0  0  0  0
   -6.5221    2.5511   -0.7463 C   0  0  0  0  0  0  0  0  0  0  0  0
   -5.4274    2.5093    0.2117 C   0  0  2  0  0  0  0  0  0  0  0  0
   -5.0914    1.0145    0.2890 N   0  0  0  0  0  0  0  0  0  0  0  0
   -3.8276    0.5519   -0.0185 C   0  0  0  0  0  0  0  0  0  0  0  0
   -2.9715    1.4734   -0.3598 O   0  0  0  0  0  0  0  0  0  0  0  0
   -3.3426   -0.7910   -0.0225 C   0  0  2  0  0  0  0  0  0  0  0  0
   -3.4004   -1.5270    1.2749 C   0  0  0  0  0  0  0  0  0  0  0  0
   -4.7390   -1.6954    1.8891 C   0  0  0  0  0  0  0  0  0  0  0  0
   -5.6125   -2.6332    1.3416 C   0  0  0  0  0  0  0  0  0  0  0  0
   -6.8402   -2.9423    1.8788 C   0  0  0  0  0  0  0  0  0  0  0  0
   -7.2146   -2.2630    3.0445 C   0  0  0  0  0  0  0  0  0  0  0  0
   -6.3869   -1.3310    3.6199 C   0  0  0  0  0  0  0  0  0  0  0  0
   -5.1493   -1.0488    3.0396 C   0  0  0  0  0  0  0  0  0  0  0  0
   -2.0158   -0.8896   -0.6296 N   0  0  0  0  0  0  0  0  0  0  0  0
   -0.8721   -1.5537   -0.2320 C   0  0  0  0  0  0  0  0  0  0  0  0
   -0.8086   -2.1940    0.8394 O   0  0  0  0  0  0  0  0  0  0  0  0
    0.3816   -1.5329   -1.1080 C   0  0  2  0  0  0  0  0  0  0  0  0
    0.0132   -2.5329   -2.2051 C   0  0  0  0  0  0  0  0  0  0  0  0
    0.9951   -2.7641   -3.2243 C   0  0  0  0  0  0  0  0  0  0  0  0
    1.0104   -2.0726   -4.4057 C   0  0  0  0  0  0  0  0  0  0  0  0
    1.9352   -2.2856   -5.3968 C   0  0  0  0  0  0  0  0  0  0  0  0
    2.9280   -3.2542   -5.2176 C   0  0  0  0  0  0  0  0  0  0  0  0
    2.9342   -3.9539   -4.0517 C   0  0  0  0  0  0  0  0  0  0  0  0
    1.9816   -3.7212   -3.0541 C   0  0  0  0  0  0  0  0  0  0  0  0
    1.4758   -2.1471   -0.4013 N   0  0  0  0  0  0  0  0  0  0  0  0
    2.7858   -1.5705   -0.3722 C   0  0  0  0  0  0  0  0  0  0  0  0
    2.9136   -0.4859   -1.0006 O   0  0  0  0  0  0  0  0  0  0  0  0
    3.9464   -2.1410    0.3067 C   0  0  2  0  0  0  0  0  0  0  0  0
    3.8255   -2.4472    1.7462 C   0  0  0  0  0  0  0  0  0  0  0  0
    3.5442   -1.3504    2.6630 C   0  0  0  0  0  0  0  0  0  0  0  0
    2.2480   -1.0037    2.9624 C   0  0  0  0  0  0  0  0  0  0  0  0
    1.9345    0.0313    3.8369 C   0  0  0  0  0  0  0  0  0  0  0  0
    2.9418    0.7302    4.4209 C   0  0  0  0  0  0  0  0  0  0  0  0
    4.2633    0.4059    4.1412 C   0  0  0  0  0  0  0  0  0  0  0  0
    4.5703   -0.6394    3.2578 C   0  0  0  0  0  0  0  0  0  0  0  0
    5.1532   -1.3236    0.0539 N   0  0  0  0  0  0  0  0  0  0  0  0
    5.9185   -1.5243   -1.1268 C   0  0  0  0  0  0  0  0  0  0  0  0
    5.4847   -2.4327   -1.9393 O   0  0  0  0  0  0  0  0  0  0  0  0
    7.1262   -0.8301   -1.5127 C   0  0  1  0  0  0  0  0  0  0  0  0
    7.6358   -1.4717   -2.7592 N   0  0  0  0  0  0  0  0  0  0  0  0
    7.0672    0.6194   -1.7973 C   0  0  0  0  0  0  0  0  0  0  0  0
    6.6514    1.5295   -0.7429 C   0  0  0  0  0  0  0  0  0  0  0  0
    5.3721    2.0260   -0.6734 C   0  0  0  0  0  0  0  0  0  0  0  0
    4.9076    2.8716    0.3222 C   0  0  0  0  0  0  0  0  0  0  0  0
    5.7701    3.2509    1.3161 C   0  0  0  0  0  0  0  0  0  0  0  0
    5.3134    4.0912    2.3129 O   0  0  0  0  0  0  0  0  0  0  0  0
    7.0724    2.7613    1.2675 C   0  0  0  0  0  0  0  0  0  0  0  0
    7.5204    1.9266    0.2808 C   0  0  0  0  0  0  0  0  0  0  0  0
   -5.6741    2.8979    1.5876 C   0  0  0  0  0  0  0  0  0  0  0  0
   -6.6275    3.7325    2.1350 N   0  0  0  0  0  0  0  0  0  0  0  0
   -4.8743    2.3876    2.5161 O   0  0  0  0  0  0  0  0  0  0  0  0
   -7.2950    5.5281    0.0106 H   0  0  0  0  0  0  0  0  0  0  0  0
   -8.4806    5.3625   -1.2734 H   0  0  0  0  0  0  0  0  0  0  0  0
   -8.7023    4.3623    0.1879 H   0  0  0  0  0  0  0  0  0  0  0  0
   -7.8701    3.3798   -2.1200 H   0  0  0  0  0  0  0  0  0  0  0  0
   -5.7291    3.8726   -2.8400 H   0  0  0  0  0  0  0  0  0  0  0  0
   -5.2840    4.8674   -1.3404 H   0  0  0  0  0  0  0  0  0  0  0  0
   -6.5676    5.4462   -2.4355 H   0  0  0  0  0  0  0  0  0  0  0  0
   -7.3566    1.8599   -0.2858 H   0  0  0  0  0  0  0  0  0  0  0  0
   -6.2652    1.8912   -1.6656 H   0  0  0  0  0  0  0  0  0  0  0  0
   -4.4595    2.9458   -0.1651 H   0  0  0  0  0  0  0  0  0  0  0  0
   -5.9292    0.4722    0.5646 H   0  0  0  0  0  0  0  0  0  0  0  0
   -3.9765   -1.4096   -0.7782 H   0  0  0  0  0  0  0  0  0  0  0  0
   -2.9782   -2.5988    1.1200 H   0  0  0  0  0  0  0  0  0  0  0  0
   -2.7442   -1.1111    2.0659 H   0  0  0  0  0  0  0  0  0  0  0  0
   -5.3016   -3.1367    0.4460 H   0  0  0  0  0  0  0  0  0  0  0  0
   -7.4624   -3.6716    1.4062 H   0  0  0  0  0  0  0  0  0  0  0  0
   -8.1867   -2.5120    3.4722 H   0  0  0  0  0  0  0  0  0  0  0  0
   -6.7202   -0.8363    4.5128 H   0  0  0  0  0  0  0  0  0  0  0  0
   -4.5199   -0.3213    3.5030 H   0  0  0  0  0  0  0  0  0  0  0  0
   -1.9579   -0.3393   -1.5375 H   0  0  0  0  0  0  0  0  0  0  0  0
    0.5533   -0.5581   -1.5308 H   0  0  0  0  0  0  0  0  0  0  0  0
   -0.9054   -2.0873   -2.6824 H   0  0  0  0  0  0  0  0  0  0  0  0
   -0.3530   -3.4473   -1.6641 H   0  0  0  0  0  0  0  0  0  0  0  0
    0.2522   -1.3219   -4.5667 H   0  0  0  0  0  0  0  0  0  0  0  0
    1.9577   -1.7555   -6.3284 H   0  0  0  0  0  0  0  0  0  0  0  0
    3.6591   -3.4178   -6.0051 H   0  0  0  0  0  0  0  0  0  0  0  0
    3.7197   -4.7150   -3.9232 H   0  0  0  0  0  0  0  0  0  0  0  0
    2.0377   -4.3063   -2.1414 H   0  0  0  0  0  0  0  0  0  0  0  0
    1.3214   -3.0293    0.1044 H   0  0  0  0  0  0  0  0  0  0  0  0
    4.1664   -3.0911   -0.2885 H   0  0  0  0  0  0  0  0  0  0  0  0
    3.0568   -3.2748    1.8748 H   0  0  0  0  0  0  0  0  0  0  0  0
    4.7832   -2.9819    2.0464 H   0  0  0  0  0  0  0  0  0  0  0  0
    1.4047   -1.5212    2.5341 H   0  0  0  0  0  0  0  0  0  0  0  0
    0.8877    0.2574    4.0325 H   0  0  0  0  0  0  0  0  0  0  0  0
    2.6783    1.5336    5.1017 H   0  0  0  0  0  0  0  0  0  0  0  0
    5.0344    0.9850    4.6250 H   0  0  0  0  0  0  0  0  0  0  0  0
    5.6219   -0.8283    3.1009 H   0  0  0  0  0  0  0  0  0  0  0  0
    5.4385   -0.6280    0.7422 H   0  0  0  0  0  0  0  0  0  0  0  0
    7.9679   -1.0014   -0.7625 H   0  0  0  0  0  0  0  0  0  0  0  0
    7.5006   -2.5080   -2.7108 H   0  0  0  0  0  0  0  0  0  0  0  0
    7.0678   -1.0383   -3.5267 H   0  0  0  0  0  0  0  0  0  0  0  0
    6.4983    0.7834   -2.7454 H   0  0  0  0  0  0  0  0  0  0  0  0
    8.1302    0.9267   -2.0740 H   0  0  0  0  0  0  0  0  0  0  0  0
    4.6852    1.7400   -1.4518 H   0  0  0  0  0  0  0  0  0  0  0  0
    3.8807    3.2154    0.3006 H   0  0  0  0  0  0  0  0  0  0  0  0
    5.3596    5.1016    2.2625 H   0  0  0  0  0  0  0  0  0  0  0  0
    7.7265    3.0857    2.0792 H   0  0  0  0  0  0  0  0  0  0  0  0
    8.5184    1.5621    0.2586 H   0  0  0  0  0  0  0  0  0  0  0  0
   -6.3511    4.7519    2.2903 H   0  0  0  0  0  0  0  0  0  0  0  0
   -7.6072    3.4989    2.4251 H   0  0  0  0  0  0  0  0  0  0  0  0
  1  2  1  0
  2  3  1  0
  2  4  1  0
  4  5  1  0
  5  6  1  0
  6  7  1  0
  7  8  2  0
  7  9  1  0
  9 10  1  0
 10 11  1  0
 11 12  2  0
 12 13  1  0
 13 14  2  0
 14 15  1  0
 15 16  2  0
  9 17  1  0
 17 18  1  0
 18 19  2  0
 18 20  1  0
 20 21  1  0
 21 22  1  0
 22 23  2  0
 23 24  1  0
 24 25  2  0
 25 26  1  0
 26 27  2  0
 20 28  1  0
 28 29  1  0
 29 30  2  0
 29 31  1  0
 31 32  1  0
 32 33  1  0
 33 34  2  0
 34 35  1  0
 35 36  2  0
 36 37  1  0
 37 38  2  0
 31 39  1  0
 39 40  1  0
 40 41  2  0
 40 42  1  0
 42 43  1  0
 42 44  1  0
 44 45  1  0
 45 46  2  0
 46 47  1  0
 47 48  2  0
 48 49  1  0
 48 50  1  0
 50 51  2  0
  5 52  1  0
 52 53  1  0
 52 54  2  0
 16 11  1  0
 27 22  1  0
 38 33  1  0
 51 45  1  0
  1 55  1  0
  1 56  1  0
  1 57  1  0
  2 58  1  0
  3 59  1  0
  3 60  1  0
  3 61  1  0
  4 62  1  0
  4 63  1  0
  5 64  1  6
  6 65  1  0
  9 66  1  6
 10 67  1  0
 10 68  1  0
 12 69  1  0
 13 70  1  0
 14 71  1  0
 15 72  1  0
 16 73  1  0
 17 74  1  0
 20 75  1  6
 21 76  1  0
 21 77  1  0
 23 78  1  0
 24 79  1  0
 25 80  1  0
 26 81  1  0
 27 82  1  0
 28 83  1  0
 31 84  1  6
 32 85  1  0
 32 86  1  0
 34 87  1  0
 35 88  1  0
 36 89  1  0
 37 90  1  0
 38 91  1  0
 39 92  1  0
 42 93  1  1
 43 94  1  0
 43 95  1  0
 44 96  1  0
 44 97  1  0
 46 98  1  0
 47 99  1  0
 49100  1  0
 50101  1  0
 51102  1  0
 53103  1  0
 53104  1  0
M  END
$$$$
[H]OC(=O)c1c([H])c([H])c(-c2nc([C@]3([H])C([H])([H])N([C@@](c4nc([H])c([H])c([H])c4[H])(c4c([H])c([H])c([H])c([H])c4[H])C([H])([H])[H])C([H])([H])C3([H])[H])no2)c([H])c1[H]
     RDKit          3D

 57 61  0  0  0  0  0  0  0  0999 V2000
   -2.0645    2.0796   -0.4333 C   0  0  0  0  0  0  0  0  0  0  0  0
   -2.8256    0.8302   -0.0602 C   0  0  2  0  0  0  0  0  0  0  0  0
   -1.9508   -0.1170    0.5758 N   0  0  0  0  0  0  0  0  0  0  0  0
   -1.3582    0.2619    1.8008 C   0  0  0  0  0  0  0  0  0  0  0  0
   -0.4066   -0.9240    2.0467 C   0  0  0  0  0  0  0  0  0  0  0  0
    0.0955   -1.2688    0.6754 C   0  0  1  0  0  0  0  0  0  0  0  0
   -0.8511   -0.5411   -0.2490 C   0  0  0  0  0  0  0  0  0  0  0  0
    1.4923   -0.7162    0.5855 C   0  0  0  0  0  0  0  0  0  0  0  0
    1.8496    0.5765    0.7852 N   0  0  0  0  0  0  0  0  0  0  0  0
    3.1325    0.7008    0.6280 O   0  0  0  0  0  0  0  0  0  0  0  0
    3.6395   -0.4678    0.3303 C   0  0  0  0  0  0  0  0  0  0  0  0
    2.6353   -1.3602    0.2994 N   0  0  0  0  0  0  0  0  0  0  0  0
    5.0450   -0.8035    0.0667 C   0  0  0  0  0  0  0  0  0  0  0  0
    5.4197   -2.0968   -0.2322 C   0  0  0  0  0  0  0  0  0  0  0  0
    6.7276   -2.4515   -0.4856 C   0  0  0  0  0  0  0  0  0  0  0  0
    7.7333   -1.4915   -0.4465 C   0  0  0  0  0  0  0  0  0  0  0  0
    7.3465   -0.2018   -0.1465 C   0  0  0  0  0  0  0  0  0  0  0  0
    6.0388    0.1415    0.1048 C   0  0  0  0  0  0  0  0  0  0  0  0
    9.1081   -1.8557   -0.7093 C   0  0  0  0  0  0  0  0  0  0  0  0
   10.1052   -0.9183   -0.6767 O   0  0  0  0  0  0  0  0  0  0  0  0
    9.3870   -3.0484   -0.9708 O   0  0  0  0  0  0  0  0  0  0  0  0
   -3.3264    0.2008   -1.3011 C   0  0  0  0  0  0  0  0  0  0  0  0
   -3.3000    0.8973   -2.4717 C   0  0  0  0  0  0  0  0  0  0  0  0
   -3.7579    0.3619   -3.6706 C   0  0  0  0  0  0  0  0  0  0  0  0
   -4.2572   -0.9182   -3.6815 C   0  0  0  0  0  0  0  0  0  0  0  0
   -4.2710   -1.6006   -2.4777 C   0  0  0  0  0  0  0  0  0  0  0  0
   -3.8209   -1.0524   -1.3397 N   0  0  0  0  0  0  0  0  0  0  0  0
   -3.9452    1.2427    0.8509 C   0  0  0  0  0  0  0  0  0  0  0  0
   -4.8724    0.3258    1.3022 C   0  0  0  0  0  0  0  0  0  0  0  0
   -5.9062    0.6736    2.1410 C   0  0  0  0  0  0  0  0  0  0  0  0
   -6.0350    1.9796    2.5550 C   0  0  0  0  0  0  0  0  0  0  0  0
   -5.1337    2.9318    2.1314 C   0  0  0  0  0  0  0  0  0  0  0  0
   -4.1091    2.5404    1.2888 C   0  0  0  0  0  0  0  0  0  0  0  0
   -2.7520    2.8760   -0.8165 H   0  0  0  0  0  0  0  0  0  0  0  0
   -1.3398    1.9234   -1.2555 H   0  0  0  0  0  0  0  0  0  0  0  0
   -1.4506    2.4811    0.4227 H   0  0  0  0  0  0  0  0  0  0  0  0
   -2.0622    0.2057    2.6826 H   0  0  0  0  0  0  0  0  0  0  0  0
   -0.7702    1.1798    1.8091 H   0  0  0  0  0  0  0  0  0  0  0  0
    0.3661   -0.6882    2.7773 H   0  0  0  0  0  0  0  0  0  0  0  0
   -0.9852   -1.8137    2.4180 H   0  0  0  0  0  0  0  0  0  0  0  0
    0.1648   -2.3355    0.4645 H   0  0  0  0  0  0  0  0  0  0  0  0
   -1.1658   -1.2787   -1.0171 H   0  0  0  0  0  0  0  0  0  0  0  0
   -0.2707    0.2967   -0.6877 H   0  0  0  0  0  0  0  0  0  0  0  0
    4.6456   -2.8639   -0.2675 H   0  0  0  0  0  0  0  0  0  0  0  0
    7.0147   -3.4624   -0.7189 H   0  0  0  0  0  0  0  0  0  0  0  0
    8.1353    0.5534   -0.1143 H   0  0  0  0  0  0  0  0  0  0  0  0
    5.7747    1.1759    0.3388 H   0  0  0  0  0  0  0  0  0  0  0  0
   10.0010    0.0758   -0.7788 H   0  0  0  0  0  0  0  0  0  0  0  0
   -2.9214    1.8993   -2.5370 H   0  0  0  0  0  0  0  0  0  0  0  0
   -3.7208    0.9531   -4.5929 H   0  0  0  0  0  0  0  0  0  0  0  0
   -4.6108   -1.3286   -4.6134 H   0  0  0  0  0  0  0  0  0  0  0  0
   -4.6755   -2.6263   -2.5035 H   0  0  0  0  0  0  0  0  0  0  0  0
   -4.8142   -0.7136    1.0081 H   0  0  0  0  0  0  0  0  0  0  0  0
   -6.6428   -0.0443    2.5022 H   0  0  0  0  0  0  0  0  0  0  0  0
   -6.8279    2.3135    3.2146 H   0  0  0  0  0  0  0  0  0  0  0  0
   -5.2230    3.9820    2.4535 H   0  0  0  0  0  0  0  0  0  0  0  0
   -3.4333    3.3289    0.9962 H   0  0  0  0  0  0  0  0  0  0  0  0
  2  1  1  6
  2  3  1  0
  3  4  1  0
  4  5  1  0
  5  6  1  0
  6  7  1  0
  6  8  1  0
  8  9  2  0
  9 10  1  0
 10 11  1  0
 11 12  2  0
 11 13  1  0
 13 14  2  0
 14 15  1  0
 15 16  2  0
 16 17  1  0
 17 18  2  0
 16 19  1  0
 19 20  1  0
 19 21  2  0
  2 22  1  0
 22 23  2  0
 23 24  1  0
 24 25  2  0
 25 26  1  0
 26 27  2  0
  2 28  1  0
 28 29  2  0
 29 30  1  0
 30 31  2  0
 31 32  1  0
 32 33  2  0
  7  3  1  0
 12  8  1  0
 18 13  1  0
 27 22  1  0
 33 28  1  0
  1 34  1  0
  1 35  1  0
  1 36  1  0
  4 37  1  0
  4 38  1  0
  5 39  1  0
  5 40  1  0
  6 41  1  6
  7 42  1  0
  7 43  1  0
 14 44  1  0
 15 45  1  0
 17 46  1  0
 18 47  1  0
 20 48  1  0
 23 49  1  0
 24 50  1  0
 25 51  1  0
 26 52  1  0
 29 53  1  0
 30 54  1  0
 31 55  1  0
 32 56  1  0
 33 57  1  0
M  END
$$$$
[H]OC(=O)[C@]1([H])[C@]([H])(O[H])[C@@]([H])(O[H])C(=O)[C@@]([H])(O[H])[C@@]2([H])N(C(=O)[C@]1([H])O[H])[C@@]([H])(C([H])([H])C([H])([H])C([H])([H])[C@]([H])(N([H])[H])C([H])([H])[H])/C(=C(/[H])C([H])([H])[H])C([H])([H])C2([H])[H]
     RDKit          3D

 62 63  0  0  0  0  0  0  0  0999 V2000
   -6.0782    1.2158   -1.4076 O   0  0  0  0  0  0  0  0  0  0  0  0
   -5.0167    1.7854   -1.0697 C   0  0  0  0  0  0  0  0  0  0  0  0
   -4.9679    3.1716   -1.2647 O   0  0  0  0  0  0  0  0  0  0  0  0
   -3.8291    1.0556   -0.4800 C   0  0  2  0  0  0  0  0  0  0  0  0
   -3.5329    1.5900    0.8620 C   0  0  2  0  0  0  0  0  0  0  0  0
   -2.2952    2.1164    1.0881 O   0  0  0  0  0  0  0  0  0  0  0  0
   -3.8255    0.5863    1.9793 C   0  0  1  0  0  0  0  0  0  0  0  0
   -5.1929    0.4400    2.1993 O   0  0  0  0  0  0  0  0  0  0  0  0
   -3.1944   -0.7316    1.6805 C   0  0  0  0  0  0  0  0  0  0  0  0
   -3.9160   -1.7045    1.5652 O   0  0  0  0  0  0  0  0  0  0  0  0
   -1.7236   -0.8870    1.5215 C   0  0  1  0  0  0  0  0  0  0  0  0
   -1.3214   -1.8728    2.4183 O   0  0  0  0  0  0  0  0  0  0  0  0
   -1.3491   -1.2409    0.0834 C   0  0  2  0  0  0  0  0  0  0  0  0
   -0.7022   -2.5673    0.0506 C   0  0  0  0  0  0  0  0  0  0  0  0
    0.8107   -2.5800    0.0496 C   0  0  0  0  0  0  0  0  0  0  0  0
    1.1769   -1.5787   -0.9921 C   0  0  0  0  0  0  0  0  0  0  0  0
    1.7174   -2.0035   -2.1130 C   0  0  0  0  0  0  0  0  0  0  0  0
    2.0729   -0.9655   -3.1388 C   0  0  0  0  0  0  0  0  0  0  0  0
    0.8356   -0.2029   -0.6853 C   0  0  2  0  0  0  0  0  0  0  0  0
    1.4341    0.4205    0.4937 C   0  0  0  0  0  0  0  0  0  0  0  0
    2.8989    0.5845    0.6189 C   0  0  0  0  0  0  0  0  0  0  0  0
    3.7722   -0.6040    0.6736 C   0  0  0  0  0  0  0  0  0  0  0  0
    5.2314   -0.1165    0.8491 C   0  0  1  0  0  0  0  0  0  0  0  0
    5.6201    0.7546   -0.3093 C   0  0  0  0  0  0  0  0  0  0  0  0
    5.3709    0.5289    2.1254 N   0  0  0  0  0  0  0  0  0  0  0  0
   -0.6712   -0.1538   -0.5692 N   0  0  0  0  0  0  0  0  0  0  0  0
   -1.3742    0.9343   -1.0953 C   0  0  0  0  0  0  0  0  0  0  0  0
   -0.6732    2.0057   -1.2348 O   0  0  0  0  0  0  0  0  0  0  0  0
   -2.7772    1.0224   -1.5056 C   0  0  2  0  0  0  0  0  0  0  0  0
   -2.9821    2.1490   -2.3556 O   0  0  0  0  0  0  0  0  0  0  0  0
   -5.1322    3.4647   -2.2385 H   0  0  0  0  0  0  0  0  0  0  0  0
   -4.2268    0.0192   -0.3369 H   0  0  0  0  0  0  0  0  0  0  0  0
   -4.2570    2.4336    1.0750 H   0  0  0  0  0  0  0  0  0  0  0  0
   -2.2711    3.0719    1.3251 H   0  0  0  0  0  0  0  0  0  0  0  0
   -3.3897    0.9406    2.9354 H   0  0  0  0  0  0  0  0  0  0  0  0
   -5.4445   -0.4363    2.5312 H   0  0  0  0  0  0  0  0  0  0  0  0
   -1.1947    0.0409    1.8233 H   0  0  0  0  0  0  0  0  0  0  0  0
   -0.9962   -1.5032    3.2732 H   0  0  0  0  0  0  0  0  0  0  0  0
   -2.3174   -1.3658   -0.4882 H   0  0  0  0  0  0  0  0  0  0  0  0
   -1.0398   -3.1794    0.8945 H   0  0  0  0  0  0  0  0  0  0  0  0
   -1.0006   -3.1414   -0.8734 H   0  0  0  0  0  0  0  0  0  0  0  0
    1.1260   -3.5870   -0.2514 H   0  0  0  0  0  0  0  0  0  0  0  0
    1.2368   -2.3740    1.0289 H   0  0  0  0  0  0  0  0  0  0  0  0
    1.9253   -3.0328   -2.3544 H   0  0  0  0  0  0  0  0  0  0  0  0
    2.5027   -1.4173   -4.0428 H   0  0  0  0  0  0  0  0  0  0  0  0
    1.1490   -0.4128   -3.4721 H   0  0  0  0  0  0  0  0  0  0  0  0
    2.8259   -0.2608   -2.7295 H   0  0  0  0  0  0  0  0  0  0  0  0
    1.1139    0.4176   -1.5877 H   0  0  0  0  0  0  0  0  0  0  0  0
    1.1416   -0.2192    1.4134 H   0  0  0  0  0  0  0  0  0  0  0  0
    0.9318    1.4055    0.7639 H   0  0  0  0  0  0  0  0  0  0  0  0
    3.2159    1.1450   -0.3349 H   0  0  0  0  0  0  0  0  0  0  0  0
    3.1717    1.3456    1.4083 H   0  0  0  0  0  0  0  0  0  0  0  0
    3.8124   -1.2107   -0.2329 H   0  0  0  0  0  0  0  0  0  0  0  0
    3.5712   -1.2592    1.5406 H   0  0  0  0  0  0  0  0  0  0  0  0
    5.9004   -1.0098    0.8352 H   0  0  0  0  0  0  0  0  0  0  0  0
    5.1677    0.3320   -1.2228 H   0  0  0  0  0  0  0  0  0  0  0  0
    6.7293    0.6806   -0.4495 H   0  0  0  0  0  0  0  0  0  0  0  0
    5.3585    1.8269   -0.1530 H   0  0  0  0  0  0  0  0  0  0  0  0
    5.3225    1.5618    2.0838 H   0  0  0  0  0  0  0  0  0  0  0  0
    4.6676    0.1038    2.7846 H   0  0  0  0  0  0  0  0  0  0  0  0
   -3.0443    0.1702   -2.2160 H   0  0  0  0  0  0  0  0  0  0  0  0
   -2.0744    2.2977   -2.7698 H   0  0  0  0  0  0  0  0  0  0  0  0
  1  2  2  0
  2  3  1  0
  2  4  1  0
  4  5  1  0
  5  6  1  0
  5  7  1  0
  7  8  1  0
  7  9  1  0
  9 10  2  0
  9 11  1  0
 11 12  1  0
 11 13  1  0
 13 14  1  0
 14 15  1  0
 15 16  1  0
 16 17  2  0
 17 18  1  0
 16 19  1  0
 19 20  1  0
 20 21  1  0
 21 22  1  0
 22 23  1  0
 23 24  1  0
 23 25  1  0
 13 26  1  0
 26 27  1  0
 27 28  2  0
 27 29  1  0
 29 30  1  0
 29  4  1  0
 26 19  1  0
  3 31  1  0
  4 32  1  1
  5 33  1  1
  6 34  1  0
  7 35  1  1
  8 36  1  0
 11 37  1  1
 12 38  1  0
 13 39  1  6
 14 40  1  0
 14 41  1  0
 15 42  1  0
 15 43  1  0
 17 44  1  0
 18 45  1  0
 18 46  1  0
 18 47  1  0
 19 48  1  6
 20 49  1  0
 20 50  1  0
 21 51  1  0
 21 52  1  0
 22 53  1  0
 22 54  1  0
 23 55  1  1
 24 56  1  0
 24 57  1  0
 24 58  1  0
 25 59  1  0
 25 60  1  0
 29 61  1  6
 30 62  1  0
M  END
$$$$
[H]OC(=O)c1c([H])c(C(=O)c2c([H])c3c([H])c(O[H])c(O[H])c([H])c3n2[H])c([H])c2c([H])c([H])c([H])c([H])c12
     RDKit          3D

 39 42  0  0  0  0  0  0  0  0999 V2000
   -4.5669    2.4496    2.4459 O   0  0  0  0  0  0  0  0  0  0  0  0
   -4.7889    1.4889    1.4088 C   0  0  0  0  0  0  0  0  0  0  0  0
   -5.9920    1.2435    1.2606 O   0  0  0  0  0  0  0  0  0  0  0  0
   -3.6362    0.9568    0.7059 C   0  0  0  0  0  0  0  0  0  0  0  0
   -2.3784    1.5424    0.9760 C   0  0  0  0  0  0  0  0  0  0  0  0
   -1.2427    1.1085    0.3380 C   0  0  0  0  0  0  0  0  0  0  0  0
   -1.2964    0.0970   -0.5774 C   0  0  0  0  0  0  0  0  0  0  0  0
   -2.5163   -0.4936   -0.8594 C   0  0  0  0  0  0  0  0  0  0  0  0
   -2.5847   -1.5265   -1.7848 C   0  0  0  0  0  0  0  0  0  0  0  0
   -3.7764   -2.1294   -2.0771 C   0  0  0  0  0  0  0  0  0  0  0  0
   -4.9092   -1.7023   -1.4447 C   0  0  0  0  0  0  0  0  0  0  0  0
   -4.8962   -0.6628   -0.5017 C   0  0  0  0  0  0  0  0  0  0  0  0
   -3.6885   -0.0599   -0.2137 C   0  0  0  0  0  0  0  0  0  0  0  0
    0.0559    1.7233    0.6096 C   0  0  0  0  0  0  0  0  0  0  0  0
    0.0672    2.9441    0.9924 O   0  0  0  0  0  0  0  0  0  0  0  0
    1.3275    1.0424    0.4745 C   0  0  0  0  0  0  0  0  0  0  0  0
    1.5766   -0.3017    0.6092 C   0  0  0  0  0  0  0  0  0  0  0  0
    2.9252   -0.5175    0.3977 C   0  0  0  0  0  0  0  0  0  0  0  0
    3.7020   -1.6556    0.4119 C   0  0  0  0  0  0  0  0  0  0  0  0
    5.0421   -1.6280    0.1705 C   0  0  0  0  0  0  0  0  0  0  0  0
    5.8078   -2.7840    0.1893 O   0  0  0  0  0  0  0  0  0  0  0  0
    5.6271   -0.3944   -0.0983 C   0  0  0  0  0  0  0  0  0  0  0  0
    6.9924   -0.3956   -0.3403 O   0  0  0  0  0  0  0  0  0  0  0  0
    4.8504    0.7368   -0.1116 C   0  0  0  0  0  0  0  0  0  0  0  0
    3.4775    0.7171    0.1347 C   0  0  0  0  0  0  0  0  0  0  0  0
    2.4994    1.6389    0.1861 N   0  0  0  0  0  0  0  0  0  0  0  0
   -4.0914    3.3045    2.2074 H   0  0  0  0  0  0  0  0  0  0  0  0
   -2.3197    2.3325    1.6873 H   0  0  0  0  0  0  0  0  0  0  0  0
   -0.4439   -0.2649   -1.0952 H   0  0  0  0  0  0  0  0  0  0  0  0
   -1.6510   -1.8194   -2.2523 H   0  0  0  0  0  0  0  0  0  0  0  0
   -3.7790   -2.9385   -2.8132 H   0  0  0  0  0  0  0  0  0  0  0  0
   -5.8536   -2.1702   -1.6669 H   0  0  0  0  0  0  0  0  0  0  0  0
   -5.7911   -0.3640   -0.0289 H   0  0  0  0  0  0  0  0  0  0  0  0
    0.8236   -1.0379    0.8420 H   0  0  0  0  0  0  0  0  0  0  0  0
    3.2142   -2.5979    0.6245 H   0  0  0  0  0  0  0  0  0  0  0  0
    6.7975   -2.7127    0.0044 H   0  0  0  0  0  0  0  0  0  0  0  0
    7.4361    0.4864   -0.5364 H   0  0  0  0  0  0  0  0  0  0  0  0
    5.3349    1.6738   -0.3225 H   0  0  0  0  0  0  0  0  0  0  0  0
    2.6449    2.6702    0.0222 H   0  0  0  0  0  0  0  0  0  0  0  0
  1  2  1  0
  2  3  2  0
  2  4  1  0
  4  5  2  0
  5  6  1  0
  6  7  2  0
  7  8  1  0
  8  9  2  0
  9 10  1  0
 10 11  2  0
 11 12  1  0
 12 13  2  0
  6 14  1  0
 14 15  2  0
 14 16  1  0
 16 17  2  0
 17 18  1  0
 18 19  2  0
 19 20  1  0
 20 21  1  0
 20 22  2  0
 22 23  1  0
 22 24  1  0
 24 25  2  0
 25 26  1  0
 13  4  1  0
 26 16  1  0
 13  8  1  0
 25 18  1  0
  1 27  1  0
  5 28  1  0
  7 29  1  0
  9 30  1  0
 10 31  1  0
 11 32  1  0
 12 33  1  0
 17 34  1  0
 19 35  1  0
 21 36  1  0
 23 37  1  0
 24 38  1  0
 26 39  1  0
M  END
$$$$
[H]c1nc(Oc2nc([H])c(-c3c([H])c([H])c(C#N)c([H])c3[H])c(C(F)(F)F)c2[H])c(C([H])([H])[H])c(N([H])C(=O)N([H])C2([H])C([H])([H])C([H])([H])N(C([H])([H])[H])C([H])([H])C2([H])[H])n1
     RDKit          3D

 61 64  0  0  0  0  0  0  0  0999 V2000
    8.9586    1.6984    1.8775 C   0  0  0  0  0  0  0  0  0  0  0  0
    7.7000    1.4582    1.3865 C   0  0  0  0  0  0  0  0  0  0  0  0
    7.4821    0.9351    0.1208 C   0  0  0  0  0  0  0  0  0  0  0  0
    6.1060    0.7421   -0.3171 C   0  0  0  0  0  0  0  0  0  0  0  0
    5.3607    1.8223   -0.8161 C   0  0  0  0  0  0  0  0  0  0  0  0
    4.0940    1.6470   -1.2312 N   0  0  0  0  0  0  0  0  0  0  0  0
    3.4826    0.4471   -1.1912 C   0  0  0  0  0  0  0  0  0  0  0  0
    2.1688    0.2729   -1.6239 O   0  0  0  0  0  0  0  0  0  0  0  0
    1.0708    0.2969   -0.8001 C   0  0  0  0  0  0  0  0  0  0  0  0
   -0.1812    0.1121   -1.3357 C   0  0  0  0  0  0  0  0  0  0  0  0
   -0.2978   -0.1097   -2.7987 C   0  0  0  0  0  0  0  0  0  0  0  0
   -1.3215    0.1304   -0.5269 C   0  0  0  0  0  0  0  0  0  0  0  0
   -2.5998   -0.0665   -1.1284 N   0  0  0  0  0  0  0  0  0  0  0  0
   -3.7743   -0.0493   -0.3111 C   0  0  0  0  0  0  0  0  0  0  0  0
   -5.0455   -0.2408   -0.8756 N   0  0  0  0  0  0  0  0  0  0  0  0
   -6.2288   -0.2220   -0.0461 C   0  0  0  0  0  0  0  0  0  0  0  0
   -7.1742    0.9008   -0.4564 C   0  0  0  0  0  0  0  0  0  0  0  0
   -8.1711    1.0841    0.6633 C   0  0  0  0  0  0  0  0  0  0  0  0
   -8.3554   -0.1232    1.4334 N   0  0  0  0  0  0  0  0  0  0  0  0
   -9.6117   -0.0582    2.1167 C   0  0  0  0  0  0  0  0  0  0  0  0
   -8.3391   -1.2814    0.5635 C   0  0  0  0  0  0  0  0  0  0  0  0
   -7.0111   -1.5064   -0.1006 C   0  0  0  0  0  0  0  0  0  0  0  0
   -3.6657    0.1385    0.9195 O   0  0  0  0  0  0  0  0  0  0  0  0
   -1.1753    0.3331    0.7938 N   0  0  0  0  0  0  0  0  0  0  0  0
    0.0488    0.5127    1.3107 C   0  0  0  0  0  0  0  0  0  0  0  0
    1.1664    0.4952    0.5209 N   0  0  0  0  0  0  0  0  0  0  0  0
    4.2037   -0.6151   -0.7043 C   0  0  0  0  0  0  0  0  0  0  0  0
    5.5295   -0.4983   -0.2554 C   0  0  0  0  0  0  0  0  0  0  0  0
    6.2503   -1.6605    0.2617 C   0  0  0  0  0  0  0  0  0  0  0  0
    6.7068   -1.5055    1.5571 F   0  0  0  0  0  0  0  0  0  0  0  0
    5.2922   -2.6999    0.3737 F   0  0  0  0  0  0  0  0  0  0  0  0
    7.1912   -2.1071   -0.6188 F   0  0  0  0  0  0  0  0  0  0  0  0
    8.5743    0.6527   -0.6583 C   0  0  0  0  0  0  0  0  0  0  0  0
    9.8348    0.8891   -0.1759 C   0  0  0  0  0  0  0  0  0  0  0  0
   10.0425    1.4082    1.0817 C   0  0  0  0  0  0  0  0  0  0  0  0
   11.3874    1.6485    1.5670 C   0  0  0  0  0  0  0  0  0  0  0  0
   12.4561    1.8590    1.9552 N   0  0  0  0  0  0  0  0  0  0  0  0
    9.1293    2.1101    2.8738 H   0  0  0  0  0  0  0  0  0  0  0  0
    6.8587    1.6898    2.0194 H   0  0  0  0  0  0  0  0  0  0  0  0
    5.8855    2.7658   -0.8318 H   0  0  0  0  0  0  0  0  0  0  0  0
    0.6779    0.0233   -3.2935 H   0  0  0  0  0  0  0  0  0  0  0  0
   -0.6117   -1.1785   -2.9265 H   0  0  0  0  0  0  0  0  0  0  0  0
   -1.0528    0.5615   -3.2670 H   0  0  0  0  0  0  0  0  0  0  0  0
   -2.6588   -0.2208   -2.1608 H   0  0  0  0  0  0  0  0  0  0  0  0
   -5.1304   -0.3981   -1.9073 H   0  0  0  0  0  0  0  0  0  0  0  0
   -5.9329   -0.0399    1.0088 H   0  0  0  0  0  0  0  0  0  0  0  0
   -6.5315    1.7949   -0.5922 H   0  0  0  0  0  0  0  0  0  0  0  0
   -7.6570    0.6887   -1.4138 H   0  0  0  0  0  0  0  0  0  0  0  0
   -7.7527    1.8543    1.3532 H   0  0  0  0  0  0  0  0  0  0  0  0
   -9.1539    1.4694    0.2668 H   0  0  0  0  0  0  0  0  0  0  0  0
   -9.4985    0.1803    3.1954 H   0  0  0  0  0  0  0  0  0  0  0  0
  -10.1749   -1.0291    1.9989 H   0  0  0  0  0  0  0  0  0  0  0  0
  -10.2479    0.7202    1.6579 H   0  0  0  0  0  0  0  0  0  0  0  0
   -9.1699   -1.2709   -0.1789 H   0  0  0  0  0  0  0  0  0  0  0  0
   -8.5345   -2.1812    1.2050 H   0  0  0  0  0  0  0  0  0  0  0  0
   -6.4358   -2.3308    0.3702 H   0  0  0  0  0  0  0  0  0  0  0  0
   -7.2046   -1.7879   -1.1640 H   0  0  0  0  0  0  0  0  0  0  0  0
    0.1426    0.6735    2.3715 H   0  0  0  0  0  0  0  0  0  0  0  0
    3.7294   -1.5829   -0.6654 H   0  0  0  0  0  0  0  0  0  0  0  0
    8.4517    0.2516   -1.6619 H   0  0  0  0  0  0  0  0  0  0  0  0
   10.7176    0.6670   -0.7889 H   0  0  0  0  0  0  0  0  0  0  0  0
  1  2  2  0
  2  3  1  0
  3  4  1  0
  4  5  2  0
  5  6  1  0
  6  7  2  0
  7  8  1  0
  8  9  1  0
  9 10  2  0
 10 11  1  0
 10 12  1  0
 12 13  1  0
 13 14  1  0
 14 15  1  0
 15 16  1  0
 16 17  1  0
 17 18  1  0
 18 19  1  0
 19 20  1  0
 19 21  1  0
 21 22  1  0
 14 23  2  0
 12 24  2  0
 24 25  1  0
 25 26  2  0
  7 27  1  0
 27 28  2  0
 28 29  1  0
 29 30  1  0
 29 31  1  0
 29 32  1  0
  3 33  2  0
 33 34  1  0
 34 35  2  0
 35 36  1  0
 36 37  3  0
 35  1  1  0
 28  4  1  0
 26  9  1  0
 22 16  1  0
  1 38  1  0
  2 39  1  0
  5 40  1  0
 11 41  1  0
 11 42  1  0
 11 43  1  0
 13 44  1  0
 15 45  1  0
 16 46  1  0
 17 47  1  0
 17 48  1  0
 18 49  1  0
 18 50  1  0
 20 51  1  0
 20 52  1  0
 20 53  1  0
 21 54  1  0
 21 55  1  0
 22 56  1  0
 22 57  1  0
 25 58  1  0
 27 59  1  0
 33 60  1  0
 34 61  1  0
M  END
$$$$
[H]ON([H])C(=O)S(=O)(=O)c1c([H])c([H])c(N([H])c2nnc(N([H])C(=O)C([H])([H])c3c([H])c([H])c(Cl)c([H])c3[H])n2[H])c([H])c1[H]
     RDKit          3D

 45 47  0  0  0  0  0  0  0  0999 V2000
    7.0292    0.6768    2.0901 O   0  0  0  0  0  0  0  0  0  0  0  0
    7.0811    0.2425    0.8749 C   0  0  0  0  0  0  0  0  0  0  0  0
    7.5834    0.8878   -0.2222 N   0  0  0  0  0  0  0  0  0  0  0  0
    8.0645    1.5390   -1.1806 O   0  0  0  0  0  0  0  0  0  0  0  0
    6.4324   -1.3956    0.7008 S   0  0  0  0  0  0  0  0  0  0  0  0
    7.0322   -1.9632   -0.5831 O   0  0  0  0  0  0  0  0  0  0  0  0
    6.9167   -2.2463    1.8585 O   0  0  0  0  0  0  0  0  0  0  0  0
    4.7222   -1.3992    0.6367 C   0  0  0  0  0  0  0  0  0  0  0  0
    3.9712   -0.5232    1.3866 C   0  0  0  0  0  0  0  0  0  0  0  0
    2.5808   -0.6043    1.4704 C   0  0  0  0  0  0  0  0  0  0  0  0
    1.8760   -1.5780    0.8012 C   0  0  0  0  0  0  0  0  0  0  0  0
    0.4841   -1.7211    0.9201 N   0  0  0  0  0  0  0  0  0  0  0  0
   -0.5094   -0.7882    0.5847 C   0  0  0  0  0  0  0  0  0  0  0  0
   -1.8445   -1.0377    0.7728 N   0  0  0  0  0  0  0  0  0  0  0  0
   -2.5533   -0.0433    0.3339 N   0  0  0  0  0  0  0  0  0  0  0  0
   -1.7588    0.8877   -0.1540 C   0  0  0  0  0  0  0  0  0  0  0  0
   -2.1072    2.0951   -0.7689 N   0  0  0  0  0  0  0  0  0  0  0  0
   -3.3191    2.7131   -1.0577 C   0  0  0  0  0  0  0  0  0  0  0  0
   -3.1304    3.7791   -1.8566 O   0  0  0  0  0  0  0  0  0  0  0  0
   -4.7007    2.5167   -0.7253 C   0  0  0  0  0  0  0  0  0  0  0  0
   -5.3464    1.2110   -0.8053 C   0  0  0  0  0  0  0  0  0  0  0  0
   -5.3963    0.4872   -1.9804 C   0  0  0  0  0  0  0  0  0  0  0  0
   -6.0582   -0.7434   -2.0536 C   0  0  0  0  0  0  0  0  0  0  0  0
   -6.6781   -1.2385   -0.9097 C   0  0  0  0  0  0  0  0  0  0  0  0
   -7.5129   -2.7692   -0.9726 Cl  0  0  0  0  0  0  0  0  0  0  0  0
   -6.6161   -0.5047    0.2390 C   0  0  0  0  0  0  0  0  0  0  0  0
   -5.9857    0.6929    0.3598 C   0  0  0  0  0  0  0  0  0  0  0  0
   -0.4739    0.4064    0.0130 N   0  0  0  0  0  0  0  0  0  0  0  0
    2.6361   -2.4576    0.0392 C   0  0  0  0  0  0  0  0  0  0  0  0
    4.0051   -2.3829   -0.0497 C   0  0  0  0  0  0  0  0  0  0  0  0
    7.9288    1.9460    0.5940 H   0  0  0  0  0  0  0  0  0  0  0  0
    7.4443    2.1724   -1.6563 H   0  0  0  0  0  0  0  0  0  0  0  0
    4.4613    0.2849    1.9497 H   0  0  0  0  0  0  0  0  0  0  0  0
    2.0215    0.0977    2.0626 H   0  0  0  0  0  0  0  0  0  0  0  0
    0.1695   -2.6564    1.3111 H   0  0  0  0  0  0  0  0  0  0  0  0
   -1.2453    2.6288   -1.2347 H   0  0  0  0  0  0  0  0  0  0  0  0
   -5.3555    3.2235   -1.4004 H   0  0  0  0  0  0  0  0  0  0  0  0
   -4.9319    2.9796    0.3117 H   0  0  0  0  0  0  0  0  0  0  0  0
   -4.9109    0.8831   -2.8662 H   0  0  0  0  0  0  0  0  0  0  0  0
   -6.0906   -1.2923   -2.9797 H   0  0  0  0  0  0  0  0  0  0  0  0
   -7.1087   -0.9072    1.1220 H   0  0  0  0  0  0  0  0  0  0  0  0
   -5.9057    1.3010    1.2375 H   0  0  0  0  0  0  0  0  0  0  0  0
    0.3980    0.9044   -0.2707 H   0  0  0  0  0  0  0  0  0  0  0  0
    2.1021   -3.2371   -0.5045 H   0  0  0  0  0  0  0  0  0  0  0  0
    4.5991   -3.0671   -0.6355 H   0  0  0  0  0  0  0  0  0  0  0  0
  1  2  2  0
  2  3  1  0
  3  4  1  0
  2  5  1  0
  5  6  2  0
  5  7  2  0
  5  8  1  0
  8  9  2  0
  9 10  1  0
 10 11  2  0
 11 12  1  0
 12 13  1  0
 13 14  2  0
 14 15  1  0
 15 16  2  0
 16 17  1  0
 17 18  1  0
 18 19  2  0
 18 20  1  0
 20 21  1  0
 21 22  2  0
 22 23  1  0
 23 24  2  0
 24 25  1  0
 24 26  1  0
 26 27  2  0
 16 28  1  0
 11 29  1  0
 29 30  2  0
 30  8  1  0
 28 13  1  0
 27 21  1  0
  3 31  1  0
  4 32  1  0
  9 33  1  0
 10 34  1  0
 12 35  1  0
 17 36  1  0
 20 37  1  0
 20 38  1  0
 22 39  1  0
 23 40  1  0
 26 41  1  0
 27 42  1  0
 28 43  1  0
 29 44  1  0
 30 45  1  0
M  END
$$$$
[H]OC([H])([H])[C@@]1([H])O[C@]([H])(C([H])([H])O[H])[C@]([H])(O[H])[C@@]([H])(O[H])[C@]1([H])O[H]
     RDKit          3D

 27 27  0  0  0  0  0  0  0  0999 V2000
   -2.6648    0.9222    1.3206 O   0  0  0  0  0  0  0  0  0  0  0  0
   -2.2545    1.3113    0.0286 C   0  0  0  0  0  0  0  0  0  0  0  0
   -0.9364    0.6084   -0.3179 C   0  0  1  0  0  0  0  0  0  0  0  0
   -0.0220    0.9937    0.6158 O   0  0  0  0  0  0  0  0  0  0  0  0
    1.2030    0.3992    0.5471 C   0  0  2  0  0  0  0  0  0  0  0  0
    2.3396    1.3282    0.2355 C   0  0  0  0  0  0  0  0  0  0  0  0
    2.2109    1.9744   -0.9676 O   0  0  0  0  0  0  0  0  0  0  0  0
    1.1844   -0.8037   -0.3918 C   0  0  1  0  0  0  0  0  0  0  0  0
    2.3565   -1.5173   -0.3404 O   0  0  0  0  0  0  0  0  0  0  0  0
   -0.0128   -1.6304    0.0998 C   0  0  2  0  0  0  0  0  0  0  0  0
    0.0267   -2.9234   -0.3632 O   0  0  0  0  0  0  0  0  0  0  0  0
   -1.2243   -0.8576   -0.3654 C   0  0  1  0  0  0  0  0  0  0  0  0
   -2.3768   -1.2162    0.3164 O   0  0  0  0  0  0  0  0  0  0  0  0
   -2.2800    1.5345    2.0167 H   0  0  0  0  0  0  0  0  0  0  0  0
   -2.1015    2.4067    0.0195 H   0  0  0  0  0  0  0  0  0  0  0  0
   -3.0566    1.0015   -0.6818 H   0  0  0  0  0  0  0  0  0  0  0  0
   -0.6534    1.0159   -1.3258 H   0  0  0  0  0  0  0  0  0  0  0  0
    1.4209   -0.0336    1.5682 H   0  0  0  0  0  0  0  0  0  0  0  0
    2.4068    2.0487    1.0903 H   0  0  0  0  0  0  0  0  0  0  0  0
    3.2772    0.7173    0.2805 H   0  0  0  0  0  0  0  0  0  0  0  0
    1.8219    2.8804   -0.8528 H   0  0  0  0  0  0  0  0  0  0  0  0
    0.9532   -0.4165   -1.4055 H   0  0  0  0  0  0  0  0  0  0  0  0
    2.8332   -1.4395   -1.2174 H   0  0  0  0  0  0  0  0  0  0  0  0
   -0.0330   -1.5847    1.2280 H   0  0  0  0  0  0  0  0  0  0  0  0
   -0.2859   -3.5163    0.3913 H   0  0  0  0  0  0  0  0  0  0  0  0
   -1.3875   -1.1638   -1.4382 H   0  0  0  0  0  0  0  0  0  0  0  0
   -2.7448   -2.0396   -0.0904 H   0  0  0  0  0  0  0  0  0  0  0  0
  1  2  1  0
  2  3  1  0
  3  4  1  0
  4  5  1  0
  5  6  1  0
  6  7  1  0
  5  8  1  0
  8  9  1  0
  8 10  1  0
 10 11  1  0
 10 12  1  0
 12 13  1  0
 12  3  1  0
  1 14  1  0
  2 15  1  0
  2 16  1  0
  3 17  1  6
  5 18  1  1
  6 19  1  0
  6 20  1  0
  7 21  1  0
  8 22  1  6
  9 23  1  0
 10 24  1  1
 11 25  1  0
 12 26  1  6
 13 27  1  0
M  END
$$$$
[H]c1nc([H])c(-n2c([H])c(C(=O)OC3([H])C([H])([H])C4([H])N([H])C([H])(C([H])([H])OC4([H])[H])C3([H])[H])c3c([H])c([H])c([H])nc32)c([H])c1[H]
     RDKit          3D

 47 51  0  0  0  0  0  0  0  0999 V2000
   -0.6487   -0.1407   -1.7408 O   0  0  0  0  0  0  0  0  0  0  0  0
   -0.2262   -0.0770   -0.5609 C   0  0  0  0  0  0  0  0  0  0  0  0
   -1.1293    0.0367    0.4515 O   0  0  0  0  0  0  0  0  0  0  0  0
   -2.5218    0.0918    0.3114 C   0  0  0  0  0  0  0  0  0  0  0  0
   -3.2280   -1.0751    0.9591 C   0  0  0  0  0  0  0  0  0  0  0  0
   -4.7084   -0.9449    0.6866 C   0  0  0  0  0  0  0  0  0  0  0  0
   -5.0428   -0.9605   -0.7677 C   0  0  0  0  0  0  0  0  0  0  0  0
   -5.6357    0.2033   -1.2103 O   0  0  0  0  0  0  0  0  0  0  0  0
   -4.9731    1.3515   -0.8406 C   0  0  0  0  0  0  0  0  0  0  0  0
   -4.5863    1.4010    0.6062 C   0  0  0  0  0  0  0  0  0  0  0  0
   -3.0919    1.4266    0.7642 C   0  0  0  0  0  0  0  0  0  0  0  0
   -5.2131    0.2937    1.2881 N   0  0  0  0  0  0  0  0  0  0  0  0
    1.2022   -0.1219   -0.2548 C   0  0  0  0  0  0  0  0  0  0  0  0
    2.2353   -0.2365   -1.1948 C   0  0  0  0  0  0  0  0  0  0  0  0
    3.4240   -0.2486   -0.5819 N   0  0  0  0  0  0  0  0  0  0  0  0
    4.6935   -0.3523   -1.2115 C   0  0  0  0  0  0  0  0  0  0  0  0
    4.8937    0.2757   -2.4224 C   0  0  0  0  0  0  0  0  0  0  0  0
    6.1131    0.1810   -3.0356 C   0  0  0  0  0  0  0  0  0  0  0  0
    7.1280   -0.5288   -2.4573 C   0  0  0  0  0  0  0  0  0  0  0  0
    6.9289   -1.1364   -1.2824 N   0  0  0  0  0  0  0  0  0  0  0  0
    5.7420   -1.0580   -0.6618 C   0  0  0  0  0  0  0  0  0  0  0  0
    3.2068   -0.1446    0.7455 C   0  0  0  0  0  0  0  0  0  0  0  0
    4.0438   -0.1086    1.8073 N   0  0  0  0  0  0  0  0  0  0  0  0
    3.6253    0.0006    3.0752 C   0  0  0  0  0  0  0  0  0  0  0  0
    2.2716    0.0799    3.3046 C   0  0  0  0  0  0  0  0  0  0  0  0
    1.3726    0.0472    2.2493 C   0  0  0  0  0  0  0  0  0  0  0  0
    1.8322   -0.0647    0.9696 C   0  0  0  0  0  0  0  0  0  0  0  0
   -2.7335    0.0246   -0.7777 H   0  0  0  0  0  0  0  0  0  0  0  0
   -3.0976   -1.1012    2.0529 H   0  0  0  0  0  0  0  0  0  0  0  0
   -2.8718   -1.9916    0.4575 H   0  0  0  0  0  0  0  0  0  0  0  0
   -5.2210   -1.7727    1.2552 H   0  0  0  0  0  0  0  0  0  0  0  0
   -5.8004   -1.7832   -0.9237 H   0  0  0  0  0  0  0  0  0  0  0  0
   -4.1737   -1.2742   -1.4165 H   0  0  0  0  0  0  0  0  0  0  0  0
   -4.0795    1.5726   -1.4836 H   0  0  0  0  0  0  0  0  0  0  0  0
   -5.6779    2.2076   -1.0532 H   0  0  0  0  0  0  0  0  0  0  0  0
   -4.9972    2.3332    1.0926 H   0  0  0  0  0  0  0  0  0  0  0  0
   -2.7099    2.1789    0.0167 H   0  0  0  0  0  0  0  0  0  0  0  0
   -2.7525    1.7200    1.7577 H   0  0  0  0  0  0  0  0  0  0  0  0
   -6.2289    0.3509    1.1062 H   0  0  0  0  0  0  0  0  0  0  0  0
    2.0843   -0.3049   -2.2611 H   0  0  0  0  0  0  0  0  0  0  0  0
    4.0830    0.8459   -2.8898 H   0  0  0  0  0  0  0  0  0  0  0  0
    6.2657    0.6762   -3.9871 H   0  0  0  0  0  0  0  0  0  0  0  0
    8.1186   -0.6192   -2.9322 H   0  0  0  0  0  0  0  0  0  0  0  0
    5.5922   -1.5627    0.3044 H   0  0  0  0  0  0  0  0  0  0  0  0
    4.2822    0.0307    3.9343 H   0  0  0  0  0  0  0  0  0  0  0  0
    1.8946    0.1700    4.3301 H   0  0  0  0  0  0  0  0  0  0  0  0
    0.3150    0.1087    2.4215 H   0  0  0  0  0  0  0  0  0  0  0  0
  1  2  2  0
  2  3  1  0
  3  4  1  0
  4  5  1  0
  5  6  1  0
  6  7  1  0
  7  8  1  0
  8  9  1  0
  9 10  1  0
 10 11  1  0
 10 12  1  0
  2 13  1  0
 13 14  2  0
 14 15  1  0
 15 16  1  0
 16 17  2  0
 17 18  1  0
 18 19  2  0
 19 20  1  0
 20 21  2  0
 15 22  1  0
 22 23  2  0
 23 24  1  0
 24 25  2  0
 25 26  1  0
 26 27  2  0
 11  4  1  0
 27 13  1  0
 12  6  1  0
 21 16  1  0
 27 22  1  0
  4 28  1  0
  5 29  1  0
  5 30  1  0
  6 31  1  0
  7 32  1  0
  7 33  1  0
  9 34  1  0
  9 35  1  0
 10 36  1  0
 11 37  1  0
 11 38  1  0
 12 39  1  0
 14 40  1  0
 17 41  1  0
 18 42  1  0
 19 43  1  0
 21 44  1  0
 24 45  1  0
 25 46  1  0
 26 47  1  0
M  END
$$$$
[H]OC(=O)O[C@@]1([H])[C@@]([H])(C([H])(O[H])c2nsnc2C([H])(O[H])c2c([H])c([H])c([H])c([H])c2[H])[C@@]([H])(O[H])[C@@]1([H])O[H]
     RDKit          3D

 41 43  0  0  0  0  0  0  0  0999 V2000
    5.2089    1.8319    1.2217 C   0  0  0  0  0  0  0  0  0  0  0  0
    5.8986    1.5543    0.0731 C   0  0  0  0  0  0  0  0  0  0  0  0
    5.2921    0.8030   -0.8989 C   0  0  0  0  0  0  0  0  0  0  0  0
    3.9824    0.3276   -0.7142 C   0  0  0  0  0  0  0  0  0  0  0  0
    3.2887    0.6041    0.4361 C   0  0  0  0  0  0  0  0  0  0  0  0
    1.9068    0.0935    0.6280 C   0  0  0  0  0  0  0  0  0  0  0  0
    0.9594    0.7121   -0.3956 C   0  0  0  0  0  0  0  0  0  0  0  0
    1.2902    1.9027   -0.8998 N   0  0  0  0  0  0  0  0  0  0  0  0
    0.0714    2.2537   -1.9872 S   0  0  0  0  0  0  0  0  0  0  0  0
   -0.8496    0.8729   -1.7848 N   0  0  0  0  0  0  0  0  0  0  0  0
   -0.1918    0.1578   -0.8703 C   0  0  0  0  0  0  0  0  0  0  0  0
   -0.7547   -1.1788   -0.4229 C   0  0  0  0  0  0  0  0  0  0  0  0
   -0.7979   -1.1977    0.9825 O   0  0  0  0  0  0  0  0  0  0  0  0
   -2.1003   -1.3728   -1.0194 C   0  0  2  0  0  0  0  0  0  0  0  0
   -3.1828   -0.3921   -0.6858 C   0  0  2  0  0  0  0  0  0  0  0  0
   -3.1959    0.1463    0.6119 O   0  0  0  0  0  0  0  0  0  0  0  0
   -3.5180    1.4834    0.7793 C   0  0  0  0  0  0  0  0  0  0  0  0
   -3.7965    2.2032   -0.2336 O   0  0  0  0  0  0  0  0  0  0  0  0
   -3.5499    2.0824    2.0339 O   0  0  0  0  0  0  0  0  0  0  0  0
   -4.1819   -1.5756   -0.7377 C   0  0  2  0  0  0  0  0  0  0  0  0
   -5.0687   -1.5975    0.3349 O   0  0  0  0  0  0  0  0  0  0  0  0
   -2.9569   -2.4658   -0.4835 C   0  0  2  0  0  0  0  0  0  0  0  0
   -2.8392   -2.7510    0.8715 O   0  0  0  0  0  0  0  0  0  0  0  0
    1.9456   -1.2708    0.3061 O   0  0  0  0  0  0  0  0  0  0  0  0
    3.9260    1.3643    1.3990 C   0  0  0  0  0  0  0  0  0  0  0  0
    5.6865    2.4226    1.9855 H   0  0  0  0  0  0  0  0  0  0  0  0
    6.9059    1.9392   -0.0305 H   0  0  0  0  0  0  0  0  0  0  0  0
    5.8234    0.5711   -1.8194 H   0  0  0  0  0  0  0  0  0  0  0  0
    3.5260   -0.2591   -1.4987 H   0  0  0  0  0  0  0  0  0  0  0  0
    1.5387    0.2295    1.6416 H   0  0  0  0  0  0  0  0  0  0  0  0
   -0.1084   -2.0020   -0.7507 H   0  0  0  0  0  0  0  0  0  0  0  0
   -0.8225   -0.2467    1.3105 H   0  0  0  0  0  0  0  0  0  0  0  0
   -2.0015   -1.4605   -2.1374 H   0  0  0  0  0  0  0  0  0  0  0  0
   -3.4207    0.3402   -1.4736 H   0  0  0  0  0  0  0  0  0  0  0  0
   -3.4989    3.0903    2.1171 H   0  0  0  0  0  0  0  0  0  0  0  0
   -4.6220   -1.6672   -1.7377 H   0  0  0  0  0  0  0  0  0  0  0  0
   -5.0728   -0.6933    0.7304 H   0  0  0  0  0  0  0  0  0  0  0  0
   -3.0222   -3.3552   -1.1364 H   0  0  0  0  0  0  0  0  0  0  0  0
   -3.2761   -3.6298    1.0236 H   0  0  0  0  0  0  0  0  0  0  0  0
    2.1975   -1.4554   -0.6165 H   0  0  0  0  0  0  0  0  0  0  0  0
    3.3810    1.5853    2.3109 H   0  0  0  0  0  0  0  0  0  0  0  0
  1  2  2  0
  2  3  1  0
  3  4  2  0
  4  5  1  0
  5  6  1  0
  6  7  1  0
  7  8  2  0
  8  9  1  0
  9 10  1  0
 10 11  2  0
 11 12  1  0
 12 13  1  0
 12 14  1  0
 14 15  1  0
 15 16  1  0
 16 17  1  0
 17 18  2  0
 17 19  1  0
 15 20  1  0
 20 21  1  0
 20 22  1  0
 22 23  1  0
  6 24  1  0
  5 25  2  0
 25  1  1  0
 11  7  1  0
 22 14  1  0
  1 26  1  0
  2 27  1  0
  3 28  1  0
  4 29  1  0
  6 30  1  0
 12 31  1  0
 13 32  1  0
 14 33  1  6
 15 34  1  6
 19 35  1  0
 20 36  1  6
 21 37  1  0
 22 38  1  6
 23 39  1  0
 24 40  1  0
 25 41  1  0
M  END
$$$$
[H]c1c([H])c(OC(F)(F)F)c([H])c(C(=O)N([H])C(c2c([H])c([H])c(OC([H])([H])C([H])([H])C([H])([H])C([H])([H])C([H])([H])N(C(F)(F)F)C([H])([H])C([H])([H])C([H])([H])[H])c([H])c2[H])(C([H])([H])[H])C([H])([H])[H])c1[H]
     RDKit          3D

 69 70  0  0  0  0  0  0  0  0999 V2000
   -9.3997    1.2045   -0.7018 C   0  0  0  0  0  0  0  0  0  0  0  0
   -9.2723   -0.0281    0.1732 C   0  0  0  0  0  0  0  0  0  0  0  0
   -8.2431   -0.9461   -0.4531 C   0  0  0  0  0  0  0  0  0  0  0  0
   -6.9523   -0.2457   -0.5496 N   0  0  0  0  0  0  0  0  0  0  0  0
   -6.4197   -0.0192    0.7538 C   0  0  0  0  0  0  0  0  0  0  0  0
   -5.0647    0.6123    0.6998 C   0  0  0  0  0  0  0  0  0  0  0  0
   -4.6164    0.8606    2.1415 C   0  0  0  0  0  0  0  0  0  0  0  0
   -3.2419    1.5031    2.1661 C   0  0  0  0  0  0  0  0  0  0  0  0
   -2.2127    0.6620    1.4942 C   0  0  0  0  0  0  0  0  0  0  0  0
   -0.9427    1.3207    1.5841 O   0  0  0  0  0  0  0  0  0  0  0  0
    0.1516    0.6687    0.9931 C   0  0  0  0  0  0  0  0  0  0  0  0
    1.4148    1.2052    1.0359 C   0  0  0  0  0  0  0  0  0  0  0  0
    2.4642    0.5046    0.4290 C   0  0  0  0  0  0  0  0  0  0  0  0
    2.2773   -0.6830   -0.1996 C   0  0  0  0  0  0  0  0  0  0  0  0
    1.0043   -1.2035   -0.2333 C   0  0  0  0  0  0  0  0  0  0  0  0
   -0.0620   -0.5522    0.3503 C   0  0  0  0  0  0  0  0  0  0  0  0
    3.3721   -1.4613   -0.8203 C   0  0  0  0  0  0  0  0  0  0  0  0
    3.3908   -2.7905   -0.0108 C   0  0  0  0  0  0  0  0  0  0  0  0
    2.9665   -1.7263   -2.2555 C   0  0  0  0  0  0  0  0  0  0  0  0
    4.6671   -0.8851   -0.6837 N   0  0  0  0  0  0  0  0  0  0  0  0
    5.1478    0.2749   -1.3614 C   0  0  0  0  0  0  0  0  0  0  0  0
    4.4108    0.8713   -2.1676 O   0  0  0  0  0  0  0  0  0  0  0  0
    6.4839    0.7916   -1.1438 C   0  0  0  0  0  0  0  0  0  0  0  0
    7.1551    1.4478   -2.1373 C   0  0  0  0  0  0  0  0  0  0  0  0
    8.4483    1.9606   -1.9304 C   0  0  0  0  0  0  0  0  0  0  0  0
    9.0399    1.7896   -0.6923 C   0  0  0  0  0  0  0  0  0  0  0  0
    8.3733    1.1216    0.3402 C   0  0  0  0  0  0  0  0  0  0  0  0
    8.9989    0.9722    1.5637 O   0  0  0  0  0  0  0  0  0  0  0  0
    9.8164   -0.1119    1.9371 C   0  0  0  0  0  0  0  0  0  0  0  0
   10.2990    0.0472    3.2339 F   0  0  0  0  0  0  0  0  0  0  0  0
    9.0976   -1.3078    1.9409 F   0  0  0  0  0  0  0  0  0  0  0  0
   10.9078   -0.2854    1.1112 F   0  0  0  0  0  0  0  0  0  0  0  0
    7.1070    0.6359    0.0927 C   0  0  0  0  0  0  0  0  0  0  0  0
   -6.1307   -0.9412   -1.4786 C   0  0  0  0  0  0  0  0  0  0  0  0
   -5.6311   -2.1414   -1.0328 F   0  0  0  0  0  0  0  0  0  0  0  0
   -5.0929   -0.1673   -1.9425 F   0  0  0  0  0  0  0  0  0  0  0  0
   -6.9176   -1.3202   -2.6148 F   0  0  0  0  0  0  0  0  0  0  0  0
  -10.4466    1.4294   -0.9712 H   0  0  0  0  0  0  0  0  0  0  0  0
   -8.8384    1.0811   -1.6617 H   0  0  0  0  0  0  0  0  0  0  0  0
   -9.0246    2.1118   -0.1626 H   0  0  0  0  0  0  0  0  0  0  0  0
   -9.1216    0.1793    1.2298 H   0  0  0  0  0  0  0  0  0  0  0  0
  -10.2550   -0.5729    0.1005 H   0  0  0  0  0  0  0  0  0  0  0  0
   -8.5740   -1.1285   -1.4889 H   0  0  0  0  0  0  0  0  0  0  0  0
   -8.1734   -1.8890    0.0844 H   0  0  0  0  0  0  0  0  0  0  0  0
   -6.3152   -0.9729    1.3466 H   0  0  0  0  0  0  0  0  0  0  0  0
   -7.1401    0.5837    1.3729 H   0  0  0  0  0  0  0  0  0  0  0  0
   -4.3495   -0.1410    0.2648 H   0  0  0  0  0  0  0  0  0  0  0  0
   -5.0078    1.5157    0.0842 H   0  0  0  0  0  0  0  0  0  0  0  0
   -5.3275    1.5877    2.5708 H   0  0  0  0  0  0  0  0  0  0  0  0
   -4.6313   -0.0704    2.7251 H   0  0  0  0  0  0  0  0  0  0  0  0
   -3.3263    2.4615    1.6573 H   0  0  0  0  0  0  0  0  0  0  0  0
   -2.9860    1.6495    3.2206 H   0  0  0  0  0  0  0  0  0  0  0  0
   -2.1539   -0.3156    2.0134 H   0  0  0  0  0  0  0  0  0  0  0  0
   -2.4399    0.4507    0.4269 H   0  0  0  0  0  0  0  0  0  0  0  0
    1.6087    2.1581    1.5296 H   0  0  0  0  0  0  0  0  0  0  0  0
    3.4312    0.9863    0.5130 H   0  0  0  0  0  0  0  0  0  0  0  0
    0.7946   -2.1515   -0.7219 H   0  0  0  0  0  0  0  0  0  0  0  0
   -1.0361   -1.0173    0.2908 H   0  0  0  0  0  0  0  0  0  0  0  0
    2.8184   -3.5262   -0.5861 H   0  0  0  0  0  0  0  0  0  0  0  0
    4.4342   -3.1418    0.1160 H   0  0  0  0  0  0  0  0  0  0  0  0
    2.9980   -2.6077    1.0137 H   0  0  0  0  0  0  0  0  0  0  0  0
    3.8684   -1.6234   -2.8951 H   0  0  0  0  0  0  0  0  0  0  0  0
    2.2443   -0.9330   -2.5867 H   0  0  0  0  0  0  0  0  0  0  0  0
    2.5515   -2.7470   -2.4135 H   0  0  0  0  0  0  0  0  0  0  0  0
    5.3584   -1.3395   -0.0204 H   0  0  0  0  0  0  0  0  0  0  0  0
    6.6878    1.5794   -3.1019 H   0  0  0  0  0  0  0  0  0  0  0  0
    8.9587    2.4762   -2.7426 H   0  0  0  0  0  0  0  0  0  0  0  0
   10.0374    2.1700   -0.5000 H   0  0  0  0  0  0  0  0  0  0  0  0
    6.5610    0.1192    0.8618 H   0  0  0  0  0  0  0  0  0  0  0  0
  1  2  1  0
  2  3  1  0
  3  4  1  0
  4  5  1  0
  5  6  1  0
  6  7  1  0
  7  8  1  0
  8  9  1  0
  9 10  1  0
 10 11  1  0
 11 12  2  0
 12 13  1  0
 13 14  2  0
 14 15  1  0
 15 16  2  0
 14 17  1  0
 17 18  1  0
 17 19  1  0
 17 20  1  0
 20 21  1  0
 21 22  2  0
 21 23  1  0
 23 24  2  0
 24 25  1  0
 25 26  2  0
 26 27  1  0
 27 28  1  0
 28 29  1  0
 29 30  1  0
 29 31  1  0
 29 32  1  0
 27 33  2  0
  4 34  1  0
 34 35  1  0
 34 36  1  0
 34 37  1  0
 16 11  1  0
 33 23  1  0
  1 38  1  0
  1 39  1  0
  1 40  1  0
  2 41  1  0
  2 42  1  0
  3 43  1  0
  3 44  1  0
  5 45  1  0
  5 46  1  0
  6 47  1  0
  6 48  1  0
  7 49  1  0
  7 50  1  0
  8 51  1  0
  8 52  1  0
  9 53  1  0
  9 54  1  0
 12 55  1  0
 13 56  1  0
 15 57  1  0
 16 58  1  0
 18 59  1  0
 18 60  1  0
 18 61  1  0
 19 62  1  0
 19 63  1  0
 19 64  1  0
 20 65  1  0
 24 66  1  0
 25 67  1  0
 26 68  1  0
 33 69  1  0
M  END
$$$$
[H]c1nc(N([H])c2c([H])c([H])c(N3C([H])([H])C([H])([H])C([H])(N4C([H])([H])C([H])([H])OC([H])([H])C4([H])[H])C([H])([H])C3([H])[H])c([H])c2OC([H])([H])[H])nc(N([H])c2c([H])c([H])c([H])c([H])c2S(=O)(=O)C([H])(C([H])([H])[H])C([H])([H])[H])c1Cl
     RDKit          3D

 78 82  0  0  0  0  0  0  0  0999 V2000
   -2.7990   -4.7366   -1.3510 C   0  0  0  0  0  0  0  0  0  0  0  0
   -1.4818   -4.2815   -1.0963 O   0  0  0  0  0  0  0  0  0  0  0  0
   -1.2626   -2.9268   -0.9115 C   0  0  0  0  0  0  0  0  0  0  0  0
   -2.2756   -1.9993   -0.9649 C   0  0  0  0  0  0  0  0  0  0  0  0
   -2.0617   -0.6368   -0.7804 C   0  0  0  0  0  0  0  0  0  0  0  0
   -0.7814   -0.2202   -0.5369 C   0  0  0  0  0  0  0  0  0  0  0  0
    0.2811   -1.1355   -0.4738 C   0  0  0  0  0  0  0  0  0  0  0  0
    0.0363   -2.4736   -0.6602 C   0  0  0  0  0  0  0  0  0  0  0  0
    1.0486   -3.4282   -0.5632 N   0  0  0  0  0  0  0  0  0  0  0  0
    2.4501   -3.2971   -0.5441 C   0  0  0  0  0  0  0  0  0  0  0  0
    3.1806   -4.4584   -0.3853 N   0  0  0  0  0  0  0  0  0  0  0  0
    4.4963   -4.5095   -0.3751 C   0  0  0  0  0  0  0  0  0  0  0  0
    5.2173   -3.3469   -0.5311 C   0  0  0  0  0  0  0  0  0  0  0  0
    6.9576   -3.3296   -0.5341 Cl  0  0  0  0  0  0  0  0  0  0  0  0
    4.5356   -2.1282   -0.6989 C   0  0  0  0  0  0  0  0  0  0  0  0
    5.3043   -0.9689   -0.8278 N   0  0  0  0  0  0  0  0  0  0  0  0
    4.9428    0.3708   -1.0715 C   0  0  0  0  0  0  0  0  0  0  0  0
    3.7071    0.7399   -1.5352 C   0  0  0  0  0  0  0  0  0  0  0  0
    3.4274    2.0598   -1.8188 C   0  0  0  0  0  0  0  0  0  0  0  0
    4.3635    3.0489   -1.6512 C   0  0  0  0  0  0  0  0  0  0  0  0
    5.6208    2.6944   -1.1820 C   0  0  0  0  0  0  0  0  0  0  0  0
    5.9101    1.3798   -0.8961 C   0  0  0  0  0  0  0  0  0  0  0  0
    7.5019    1.0371   -0.2945 S   0  0  0  0  0  0  0  0  0  0  0  0
    8.2978    0.1131   -1.1647 O   0  0  0  0  0  0  0  0  0  0  0  0
    8.2966    2.3490   -0.2987 O   0  0  0  0  0  0  0  0  0  0  0  0
    7.4681    0.4327    1.3549 C   0  0  0  0  0  0  0  0  0  0  0  0
    8.8634   -0.1388    1.7159 C   0  0  0  0  0  0  0  0  0  0  0  0
    7.0596    1.4683    2.3670 C   0  0  0  0  0  0  0  0  0  0  0  0
    3.1822   -2.2006   -0.6916 N   0  0  0  0  0  0  0  0  0  0  0  0
   -3.1115    0.3177   -0.8518 N   0  0  0  0  0  0  0  0  0  0  0  0
   -4.3569    0.0033   -1.5564 C   0  0  0  0  0  0  0  0  0  0  0  0
   -5.4456    0.9770   -1.1084 C   0  0  0  0  0  0  0  0  0  0  0  0
   -5.4163    1.0960    0.3875 C   0  0  0  0  0  0  0  0  0  0  0  0
   -4.1724    1.8834    0.7406 C   0  0  0  0  0  0  0  0  0  0  0  0
   -3.0537    1.6221   -0.2518 C   0  0  0  0  0  0  0  0  0  0  0  0
   -6.5566    1.8175    0.8825 N   0  0  0  0  0  0  0  0  0  0  0  0
   -6.4174    2.0469    2.3263 C   0  0  0  0  0  0  0  0  0  0  0  0
   -7.6213    2.8766    2.7374 C   0  0  0  0  0  0  0  0  0  0  0  0
   -8.8104    2.1862    2.5319 O   0  0  0  0  0  0  0  0  0  0  0  0
   -8.9221    1.9916    1.1601 C   0  0  0  0  0  0  0  0  0  0  0  0
   -7.7951    1.0731    0.7374 C   0  0  0  0  0  0  0  0  0  0  0  0
   -2.8361   -5.8616   -1.3099 H   0  0  0  0  0  0  0  0  0  0  0  0
   -3.1900   -4.3824   -2.3292 H   0  0  0  0  0  0  0  0  0  0  0  0
   -3.5377   -4.4041   -0.5867 H   0  0  0  0  0  0  0  0  0  0  0  0
   -3.2912   -2.3704   -1.1607 H   0  0  0  0  0  0  0  0  0  0  0  0
   -0.5304    0.8148   -0.3940 H   0  0  0  0  0  0  0  0  0  0  0  0
    1.2667   -0.7437   -0.2556 H   0  0  0  0  0  0  0  0  0  0  0  0
    0.7052   -4.4618   -0.4798 H   0  0  0  0  0  0  0  0  0  0  0  0
    5.0715   -5.4367   -0.2489 H   0  0  0  0  0  0  0  0  0  0  0  0
    6.3584   -1.1165   -0.7423 H   0  0  0  0  0  0  0  0  0  0  0  0
    2.9114   -0.0041   -1.7193 H   0  0  0  0  0  0  0  0  0  0  0  0
    2.4405    2.3544   -2.1905 H   0  0  0  0  0  0  0  0  0  0  0  0
    4.1803    4.0991   -1.8612 H   0  0  0  0  0  0  0  0  0  0  0  0
    6.3509    3.4879   -1.0554 H   0  0  0  0  0  0  0  0  0  0  0  0
    6.8109   -0.4447    1.4204 H   0  0  0  0  0  0  0  0  0  0  0  0
    8.9078   -1.1290    1.2165 H   0  0  0  0  0  0  0  0  0  0  0  0
    8.8703   -0.2948    2.7926 H   0  0  0  0  0  0  0  0  0  0  0  0
    9.6590    0.5303    1.3215 H   0  0  0  0  0  0  0  0  0  0  0  0
    6.3760    2.2282    1.9706 H   0  0  0  0  0  0  0  0  0  0  0  0
    8.0149    1.9242    2.7543 H   0  0  0  0  0  0  0  0  0  0  0  0
    6.5683    1.0168    3.2596 H   0  0  0  0  0  0  0  0  0  0  0  0
   -4.2295    0.1961   -2.6622 H   0  0  0  0  0  0  0  0  0  0  0  0
   -4.6789   -1.0320   -1.4555 H   0  0  0  0  0  0  0  0  0  0  0  0
   -6.3764    0.6017   -1.5329 H   0  0  0  0  0  0  0  0  0  0  0  0
   -5.2359    1.9773   -1.5346 H   0  0  0  0  0  0  0  0  0  0  0  0
   -5.4040    0.1109    0.8986 H   0  0  0  0  0  0  0  0  0  0  0  0
   -4.4001    2.9747    0.6779 H   0  0  0  0  0  0  0  0  0  0  0  0
   -3.8424    1.6927    1.7865 H   0  0  0  0  0  0  0  0  0  0  0  0
   -3.1634    2.3692   -1.0913 H   0  0  0  0  0  0  0  0  0  0  0  0
   -2.0806    1.8030    0.1914 H   0  0  0  0  0  0  0  0  0  0  0  0
   -6.4486    1.0642    2.8141 H   0  0  0  0  0  0  0  0  0  0  0  0
   -5.5199    2.6190    2.5767 H   0  0  0  0  0  0  0  0  0  0  0  0
   -7.6190    3.7806    2.0982 H   0  0  0  0  0  0  0  0  0  0  0  0
   -7.5723    3.1645    3.7921 H   0  0  0  0  0  0  0  0  0  0  0  0
   -8.6856    2.9938    0.6972 H   0  0  0  0  0  0  0  0  0  0  0  0
   -9.9176    1.6194    0.8580 H   0  0  0  0  0  0  0  0  0  0  0  0
   -7.9512    0.6460   -0.2539 H   0  0  0  0  0  0  0  0  0  0  0  0
   -7.7886    0.2449    1.4991 H   0  0  0  0  0  0  0  0  0  0  0  0
  1  2  1  0
  2  3  1  0
  3  4  2  0
  4  5  1  0
  5  6  2  0
  6  7  1  0
  7  8  2  0
  8  9  1  0
  9 10  1  0
 10 11  2  0
 11 12  1  0
 12 13  2  0
 13 14  1  0
 13 15  1  0
 15 16  1  0
 16 17  1  0
 17 18  2  0
 18 19  1  0
 19 20  2  0
 20 21  1  0
 21 22  2  0
 22 23  1  0
 23 24  2  0
 23 25  2  0
 23 26  1  0
 26 27  1  0
 26 28  1  0
 15 29  2  0
  5 30  1  0
 30 31  1  0
 31 32  1  0
 32 33  1  0
 33 34  1  0
 34 35  1  0
 33 36  1  0
 36 37  1  0
 37 38  1  0
 38 39  1  0
 39 40  1  0
 40 41  1  0
  8  3  1  0
 29 10  1  0
 35 30  1  0
 41 36  1  0
 22 17  1  0
  1 42  1  0
  1 43  1  0
  1 44  1  0
  4 45  1  0
  6 46  1  0
  7 47  1  0
  9 48  1  0
 12 49  1  0
 16 50  1  0
 18 51  1  0
 19 52  1  0
 20 53  1  0
 21 54  1  0
 26 55  1  0
 27 56  1  0
 27 57  1  0
 27 58  1  0
 28 59  1  0
 28 60  1  0
 28 61  1  0
 31 62  1  0
 31 63  1  0
 32 64  1  0
 32 65  1  0
 33 66  1  0
 34 67  1  0
 34 68  1  0
 35 69  1  0
 35 70  1  0
 37 71  1  0
 37 72  1  0
 38 73  1  0
 38 74  1  0
 40 75  1  0
 40 76  1  0
 41 77  1  0
 41 78  1  0
M  END
$$$$
[H]OC(=O)c1c([H])c([H])c2c(nc(N([H])c3c([H])c([H])c([H])c(Cl)c3[H])c3c([H])c([H])nc([H])c32)c1[H]
     RDKit          3D

 37 40  0  0  0  0  0  0  0  0999 V2000
   -3.4146    3.9437   -0.0682 O   0  0  0  0  0  0  0  0  0  0  0  0
   -4.1350    2.7925   -0.1302 C   0  0  0  0  0  0  0  0  0  0  0  0
   -5.3837    2.8270   -0.1958 O   0  0  0  0  0  0  0  0  0  0  0  0
   -3.4739    1.5010   -0.1217 C   0  0  0  0  0  0  0  0  0  0  0  0
   -4.1468    0.3110   -0.1820 C   0  0  0  0  0  0  0  0  0  0  0  0
   -3.4773   -0.9061   -0.1715 C   0  0  0  0  0  0  0  0  0  0  0  0
   -2.1073   -0.9361   -0.0993 C   0  0  0  0  0  0  0  0  0  0  0  0
   -1.4105    0.2721   -0.0374 C   0  0  0  0  0  0  0  0  0  0  0  0
   -2.1071    1.4592   -0.0500 C   0  0  0  0  0  0  0  0  0  0  0  0
   -0.0791    0.2363    0.0325 N   0  0  0  0  0  0  0  0  0  0  0  0
    0.6747   -0.8649    0.0497 C   0  0  0  0  0  0  0  0  0  0  0  0
    2.0790   -0.8229    0.0949 N   0  0  0  0  0  0  0  0  0  0  0  0
    2.8969    0.3350    0.1894 C   0  0  0  0  0  0  0  0  0  0  0  0
    2.5044    1.5250    0.7226 C   0  0  0  0  0  0  0  0  0  0  0  0
    3.3695    2.6328    0.7467 C   0  0  0  0  0  0  0  0  0  0  0  0
    4.6439    2.5731    0.2395 C   0  0  0  0  0  0  0  0  0  0  0  0
    5.0552    1.3775   -0.3016 C   0  0  0  0  0  0  0  0  0  0  0  0
    6.6791    1.2877   -0.9516 Cl  0  0  0  0  0  0  0  0  0  0  0  0
    4.2074    0.3035   -0.3220 C   0  0  0  0  0  0  0  0  0  0  0  0
    0.0131   -2.0812   -0.0102 C   0  0  0  0  0  0  0  0  0  0  0  0
    0.7017   -3.2670    0.0039 C   0  0  0  0  0  0  0  0  0  0  0  0
   -0.0190   -4.4547   -0.0572 C   0  0  0  0  0  0  0  0  0  0  0  0
   -1.3471   -4.4577   -0.1280 N   0  0  0  0  0  0  0  0  0  0  0  0
   -2.0701   -3.3073   -0.1445 C   0  0  0  0  0  0  0  0  0  0  0  0
   -1.3814   -2.1258   -0.0852 C   0  0  0  0  0  0  0  0  0  0  0  0
   -3.6409    4.7797    0.4453 H   0  0  0  0  0  0  0  0  0  0  0  0
   -5.2350    0.3443   -0.2391 H   0  0  0  0  0  0  0  0  0  0  0  0
   -4.0443   -1.8025   -0.2201 H   0  0  0  0  0  0  0  0  0  0  0  0
   -1.5490    2.4034   -0.0009 H   0  0  0  0  0  0  0  0  0  0  0  0
    2.6357   -1.7310    0.0588 H   0  0  0  0  0  0  0  0  0  0  0  0
    1.5233    1.6252    1.1521 H   0  0  0  0  0  0  0  0  0  0  0  0
    3.0097    3.5611    1.1823 H   0  0  0  0  0  0  0  0  0  0  0  0
    5.3161    3.4357    0.2583 H   0  0  0  0  0  0  0  0  0  0  0  0
    4.5137   -0.6450   -0.7449 H   0  0  0  0  0  0  0  0  0  0  0  0
    1.7832   -3.3285    0.0623 H   0  0  0  0  0  0  0  0  0  0  0  0
    0.5577   -5.3882   -0.0443 H   0  0  0  0  0  0  0  0  0  0  0  0
   -3.1421   -3.4081   -0.2035 H   0  0  0  0  0  0  0  0  0  0  0  0
  1  2  1  0
  2  3  2  0
  2  4  1  0
  4  5  2  0
  5  6  1  0
  6  7  2  0
  7  8  1  0
  8  9  2  0
  8 10  1  0
 10 11  2  0
 11 12  1  0
 12 13  1  0
 13 14  2  0
 14 15  1  0
 15 16  2  0
 16 17  1  0
 17 18  1  0
 17 19  2  0
 11 20  1  0
 20 21  2  0
 21 22  1  0
 22 23  2  0
 23 24  1  0
 24 25  2  0
  9  4  1  0
 19 13  1  0
 25 20  1  0
 25  7  1  0
  1 26  1  0
  5 27  1  0
  6 28  1  0
  9 29  1  0
 12 30  1  0
 14 31  1  0
 15 32  1  0
 16 33  1  0
 19 34  1  0
 21 35  1  0
 22 36  1  0
 24 37  1  0
M  END
$$$$
[H]c1c([H])c([H])c2c(nc(N([H])C(=O)N(C([H])([H])C(C([H])([H])[H])(C([H])([H])[H])C([H])([H])[H])C3([H])C([H])([H])C([H])([H])C([H])([H])C([H])([H])C3([H])[H])n2C2([H])C([H])([H])C([H])([H])N(C(=O)OC(C([H])([H])[H])(C([H])([H])[H])C([H])([H])[H])C([H])([H])C2([H])[H])c1[H]
     RDKit          3D

 82 85  0  0  0  0  0  0  0  0999 V2000
    7.6345   -0.2664    2.0768 C   0  0  0  0  0  0  0  0  0  0  0  0
    7.0884   -1.1080    0.9259 C   0  0  0  0  0  0  0  0  0  0  0  0
    7.5811   -2.5248    1.1316 C   0  0  0  0  0  0  0  0  0  0  0  0
    7.7036   -0.5910   -0.3406 C   0  0  0  0  0  0  0  0  0  0  0  0
    5.6918   -1.0176    0.9582 O   0  0  0  0  0  0  0  0  0  0  0  0
    4.8639   -1.6570    0.0569 C   0  0  0  0  0  0  0  0  0  0  0  0
    5.3809   -2.3571   -0.8416 O   0  0  0  0  0  0  0  0  0  0  0  0
    3.4561   -1.5359    0.1307 N   0  0  0  0  0  0  0  0  0  0  0  0
    2.6375   -2.2281   -0.8394 C   0  0  0  0  0  0  0  0  0  0  0  0
    1.4290   -1.3923   -1.2859 C   0  0  0  0  0  0  0  0  0  0  0  0
    1.6776   -0.0114   -0.7738 C   0  0  0  0  0  0  0  0  0  0  0  0
    1.6006   -0.0407    0.7216 C   0  0  0  0  0  0  0  0  0  0  0  0
    2.9065   -0.7117    1.1940 C   0  0  0  0  0  0  0  0  0  0  0  0
    0.9197    1.0320   -1.4135 N   0  0  0  0  0  0  0  0  0  0  0  0
   -0.3830    1.2644   -1.3959 C   0  0  0  0  0  0  0  0  0  0  0  0
   -1.3921    0.5099   -0.7139 N   0  0  0  0  0  0  0  0  0  0  0  0
   -2.7403    0.9150   -0.8134 C   0  0  0  0  0  0  0  0  0  0  0  0
   -3.0114    1.9628   -1.5214 O   0  0  0  0  0  0  0  0  0  0  0  0
   -3.8648    0.2812   -0.2028 N   0  0  0  0  0  0  0  0  0  0  0  0
   -5.1469    0.9073   -0.3512 C   0  0  0  0  0  0  0  0  0  0  0  0
   -5.6307    1.8878    0.6238 C   0  0  0  0  0  0  0  0  0  0  0  0
   -4.7185    3.0734    0.7759 C   0  0  0  0  0  0  0  0  0  0  0  0
   -6.9197    2.5410   -0.0318 C   0  0  0  0  0  0  0  0  0  0  0  0
   -6.1086    1.4212    1.9490 C   0  0  0  0  0  0  0  0  0  0  0  0
   -3.6919   -0.9938    0.4229 C   0  0  0  0  0  0  0  0  0  0  0  0
   -4.6115   -2.0670   -0.1645 C   0  0  0  0  0  0  0  0  0  0  0  0
   -4.3835   -3.3760    0.5924 C   0  0  0  0  0  0  0  0  0  0  0  0
   -3.0794   -3.3342    1.3548 C   0  0  0  0  0  0  0  0  0  0  0  0
   -3.0024   -2.2583    2.3854 C   0  0  0  0  0  0  0  0  0  0  0  0
   -3.8643   -1.0703    1.9021 C   0  0  0  0  0  0  0  0  0  0  0  0
   -0.6088    2.3754   -2.1593 N   0  0  0  0  0  0  0  0  0  0  0  0
    0.5381    2.8512   -2.6618 C   0  0  0  0  0  0  0  0  0  0  0  0
    0.8646    3.9231   -3.4753 C   0  0  0  0  0  0  0  0  0  0  0  0
    2.1682    4.1814   -3.8445 C   0  0  0  0  0  0  0  0  0  0  0  0
    3.1489    3.3330   -3.3757 C   0  0  0  0  0  0  0  0  0  0  0  0
    2.8188    2.2669   -2.5659 C   0  0  0  0  0  0  0  0  0  0  0  0
    1.5065    1.9973   -2.1874 C   0  0  0  0  0  0  0  0  0  0  0  0
    8.6406   -0.6088    2.3859 H   0  0  0  0  0  0  0  0  0  0  0  0
    6.8815   -0.3312    2.8969 H   0  0  0  0  0  0  0  0  0  0  0  0
    7.6323    0.7839    1.7137 H   0  0  0  0  0  0  0  0  0  0  0  0
    7.0126   -3.0576    1.9155 H   0  0  0  0  0  0  0  0  0  0  0  0
    7.5643   -3.0717    0.1633 H   0  0  0  0  0  0  0  0  0  0  0  0
    8.6436   -2.4750    1.4600 H   0  0  0  0  0  0  0  0  0  0  0  0
    8.6969   -0.1561   -0.0963 H   0  0  0  0  0  0  0  0  0  0  0  0
    7.8172   -1.3936   -1.1018 H   0  0  0  0  0  0  0  0  0  0  0  0
    7.0588    0.2443   -0.7023 H   0  0  0  0  0  0  0  0  0  0  0  0
    3.2511   -2.3749   -1.7518 H   0  0  0  0  0  0  0  0  0  0  0  0
    2.3308   -3.2295   -0.5027 H   0  0  0  0  0  0  0  0  0  0  0  0
    1.3428   -1.3622   -2.3857 H   0  0  0  0  0  0  0  0  0  0  0  0
    0.5100   -1.8624   -0.8865 H   0  0  0  0  0  0  0  0  0  0  0  0
    2.7769    0.1825   -0.9998 H   0  0  0  0  0  0  0  0  0  0  0  0
    1.4756    0.9483    1.1845 H   0  0  0  0  0  0  0  0  0  0  0  0
    0.8197   -0.7813    1.0664 H   0  0  0  0  0  0  0  0  0  0  0  0
    2.7852   -1.2382    2.1375 H   0  0  0  0  0  0  0  0  0  0  0  0
    3.6114    0.1341    1.3436 H   0  0  0  0  0  0  0  0  0  0  0  0
   -1.1112   -0.2996   -0.1751 H   0  0  0  0  0  0  0  0  0  0  0  0
   -5.9634    0.1347   -0.4739 H   0  0  0  0  0  0  0  0  0  0  0  0
   -5.2035    1.4304   -1.3764 H   0  0  0  0  0  0  0  0  0  0  0  0
   -3.7000    2.8441    1.0812 H   0  0  0  0  0  0  0  0  0  0  0  0
   -5.1698    3.6860    1.6192 H   0  0  0  0  0  0  0  0  0  0  0  0
   -4.7610    3.7103   -0.1291 H   0  0  0  0  0  0  0  0  0  0  0  0
   -7.5743    1.6808   -0.2410 H   0  0  0  0  0  0  0  0  0  0  0  0
   -7.3535    3.2232    0.7142 H   0  0  0  0  0  0  0  0  0  0  0  0
   -6.6419    3.0101   -0.9732 H   0  0  0  0  0  0  0  0  0  0  0  0
   -5.3327    1.5056    2.7424 H   0  0  0  0  0  0  0  0  0  0  0  0
   -6.5862    0.4231    1.9074 H   0  0  0  0  0  0  0  0  0  0  0  0
   -6.9319    2.1337    2.2868 H   0  0  0  0  0  0  0  0  0  0  0  0
   -2.6145   -1.3075    0.2503 H   0  0  0  0  0  0  0  0  0  0  0  0
   -4.3694   -2.1607   -1.2226 H   0  0  0  0  0  0  0  0  0  0  0  0
   -5.6736   -1.8122   -0.0048 H   0  0  0  0  0  0  0  0  0  0  0  0
   -4.2719   -4.1630   -0.1817 H   0  0  0  0  0  0  0  0  0  0  0  0
   -5.2301   -3.6524    1.2191 H   0  0  0  0  0  0  0  0  0  0  0  0
   -3.0047   -4.3137    1.8885 H   0  0  0  0  0  0  0  0  0  0  0  0
   -2.2289   -3.3204    0.6410 H   0  0  0  0  0  0  0  0  0  0  0  0
   -1.9631   -1.8461    2.4315 H   0  0  0  0  0  0  0  0  0  0  0  0
   -3.3844   -2.5455    3.3844 H   0  0  0  0  0  0  0  0  0  0  0  0
   -4.9079   -1.3893    2.1990 H   0  0  0  0  0  0  0  0  0  0  0  0
   -3.5236   -0.2192    2.4825 H   0  0  0  0  0  0  0  0  0  0  0  0
    0.0307    4.5413   -3.7999 H   0  0  0  0  0  0  0  0  0  0  0  0
    2.3679    5.0333   -4.4827 H   0  0  0  0  0  0  0  0  0  0  0  0
    4.1802    3.5347   -3.6661 H   0  0  0  0  0  0  0  0  0  0  0  0
    3.6128    1.6048   -2.2040 H   0  0  0  0  0  0  0  0  0  0  0  0
  1  2  1  0
  2  3  1  0
  2  4  1  0
  2  5  1  0
  5  6  1  0
  6  7  2  0
  6  8  1  0
  8  9  1  0
  9 10  1  0
 10 11  1  0
 11 12  1  0
 12 13  1  0
 11 14  1  0
 14 15  1  0
 15 16  1  0
 16 17  1  0
 17 18  2  0
 17 19  1  0
 19 20  1  0
 20 21  1  0
 21 22  1  0
 21 23  1  0
 21 24  1  0
 19 25  1  0
 25 26  1  0
 26 27  1  0
 27 28  1  0
 28 29  1  0
 29 30  1  0
 15 31  2  0
 31 32  1  0
 32 33  2  0
 33 34  1  0
 34 35  2  0
 35 36  1  0
 36 37  2  0
 13  8  1  0
 37 14  1  0
 30 25  1  0
 37 32  1  0
  1 38  1  0
  1 39  1  0
  1 40  1  0
  3 41  1  0
  3 42  1  0
  3 43  1  0
  4 44  1  0
  4 45  1  0
  4 46  1  0
  9 47  1  0
  9 48  1  0
 10 49  1  0
 10 50  1  0
 11 51  1  0
 12 52  1  0
 12 53  1  0
 13 54  1  0
 13 55  1  0
 16 56  1  0
 20 57  1  0
 20 58  1  0
 22 59  1  0
 22 60  1  0
 22 61  1  0
 23 62  1  0
 23 63  1  0
 23 64  1  0
 24 65  1  0
 24 66  1  0
 24 67  1  0
 25 68  1  0
 26 69  1  0
 26 70  1  0
 27 71  1  0
 27 72  1  0
 28 73  1  0
 28 74  1  0
 29 75  1  0
 29 76  1  0
 30 77  1  0
 30 78  1  0
 33 79  1  0
 34 80  1  0
 35 81  1  0
 36 82  1  0
M  END
$$$$
[H]OC(=O)[C@@]([H])(N([H])C(=O)[C@@]([H])(N([H])C(=O)[C@@]([H])(N([H])C(=O)[C@@]([H])(N([H])C(=O)OC([H])([H])c1c([H])c([H])c([H])c([H])c1[H])C([H])([H])C([H])(C([H])([H])[H])C([H])([H])[H])C([H])(C([H])([H])[H])C([H])([H])[H])C([H])([H])[H])C([H])([H])C([H])(C([H])([H])[H])C([H])([H])[H]
     RDKit          3D

 83 83  0  0  0  0  0  0  0  0999 V2000
    1.5912    2.4553    2.3210 C   0  0  0  0  0  0  0  0  0  0  0  0
    0.4767    1.4921    2.3475 C   0  0  0  0  0  0  0  0  0  0  0  0
    0.6253    0.4227    3.4115 C   0  0  0  0  0  0  0  0  0  0  0  0
    0.1544    0.8918    0.9942 C   0  0  2  0  0  0  0  0  0  0  0  0
   -0.9913   -0.0322    1.2030 N   0  0  0  0  0  0  0  0  0  0  0  0
   -2.2426    0.2186    0.6287 C   0  0  0  0  0  0  0  0  0  0  0  0
   -2.3932    1.2272   -0.0790 O   0  0  0  0  0  0  0  0  0  0  0  0
   -3.3760   -0.6900    0.8507 C   0  0  2  0  0  0  0  0  0  0  0  0
   -3.0203   -2.1356    0.7709 C   0  0  0  0  0  0  0  0  0  0  0  0
   -2.4515   -2.6468   -0.4839 C   0  0  0  0  0  0  0  0  0  0  0  0
   -3.2677   -2.5246   -1.7153 C   0  0  0  0  0  0  0  0  0  0  0  0
   -2.2106   -4.1544   -0.2761 C   0  0  0  0  0  0  0  0  0  0  0  0
   -4.5722   -0.3149    0.1572 N   0  0  0  0  0  0  0  0  0  0  0  0
   -5.6957    0.2397    0.8665 C   0  0  0  0  0  0  0  0  0  0  0  0
   -5.6403    0.4077    2.1064 O   0  0  0  0  0  0  0  0  0  0  0  0
   -6.8605    0.6052    0.2247 O   0  0  0  0  0  0  0  0  0  0  0  0
   -7.9976    1.1614    0.8665 C   0  0  0  0  0  0  0  0  0  0  0  0
   -9.0945    1.4412   -0.0490 C   0  0  0  0  0  0  0  0  0  0  0  0
   -8.9998    2.4579   -0.9677 C   0  0  0  0  0  0  0  0  0  0  0  0
  -10.0540    2.7331   -1.8489 C   0  0  0  0  0  0  0  0  0  0  0  0
  -11.2028    1.9705   -1.7911 C   0  0  0  0  0  0  0  0  0  0  0  0
  -11.3060    0.9440   -0.8674 C   0  0  0  0  0  0  0  0  0  0  0  0
  -10.2476    0.6997   -0.0135 C   0  0  0  0  0  0  0  0  0  0  0  0
    1.2603    0.1950    0.3356 C   0  0  0  0  0  0  0  0  0  0  0  0
    1.2062   -1.0821    0.1829 O   0  0  0  0  0  0  0  0  0  0  0  0
    2.4165    0.8186   -0.1695 N   0  0  0  0  0  0  0  0  0  0  0  0
    3.5191    0.1801   -0.8221 C   0  0  1  0  0  0  0  0  0  0  0  0
    3.5562    0.5253   -2.3220 C   0  0  0  0  0  0  0  0  0  0  0  0
    4.8245    0.5497   -0.2240 C   0  0  0  0  0  0  0  0  0  0  0  0
    4.9217    0.9794    0.9669 O   0  0  0  0  0  0  0  0  0  0  0  0
    6.0224    0.4433   -0.9704 N   0  0  0  0  0  0  0  0  0  0  0  0
    7.2924    0.8065   -0.4022 C   0  0  1  0  0  0  0  0  0  0  0  0
    8.4708    0.0582   -0.8864 C   0  0  0  0  0  0  0  0  0  0  0  0
    8.5013   -1.4098   -0.6893 C   0  0  0  0  0  0  0  0  0  0  0  0
    7.3905   -2.1681   -1.3511 C   0  0  0  0  0  0  0  0  0  0  0  0
    8.5959   -1.8248    0.7590 C   0  0  0  0  0  0  0  0  0  0  0  0
    7.5289    2.2518   -0.8155 C   0  0  0  0  0  0  0  0  0  0  0  0
    8.6771    2.9184   -0.4093 O   0  0  0  0  0  0  0  0  0  0  0  0
    6.7127    2.8724   -1.5217 O   0  0  0  0  0  0  0  0  0  0  0  0
    1.5122    3.2531    1.5743 H   0  0  0  0  0  0  0  0  0  0  0  0
    1.5608    3.0036    3.3232 H   0  0  0  0  0  0  0  0  0  0  0  0
    2.6045    2.0004    2.3083 H   0  0  0  0  0  0  0  0  0  0  0  0
   -0.4529    2.0633    2.6460 H   0  0  0  0  0  0  0  0  0  0  0  0
    1.3329   -0.3687    3.1467 H   0  0  0  0  0  0  0  0  0  0  0  0
   -0.3711   -0.0213    3.6902 H   0  0  0  0  0  0  0  0  0  0  0  0
    0.9575    0.9672    4.3399 H   0  0  0  0  0  0  0  0  0  0  0  0
   -0.2036    1.7045    0.3483 H   0  0  0  0  0  0  0  0  0  0  0  0
   -0.8083   -0.8575    1.7881 H   0  0  0  0  0  0  0  0  0  0  0  0
   -3.6279   -0.5382    1.9605 H   0  0  0  0  0  0  0  0  0  0  0  0
   -2.2907   -2.3424    1.5897 H   0  0  0  0  0  0  0  0  0  0  0  0
   -3.9390   -2.7117    1.0643 H   0  0  0  0  0  0  0  0  0  0  0  0
   -1.4488   -2.2064   -0.6859 H   0  0  0  0  0  0  0  0  0  0  0  0
   -4.3409   -2.7844   -1.5631 H   0  0  0  0  0  0  0  0  0  0  0  0
   -2.9023   -3.3042   -2.4468 H   0  0  0  0  0  0  0  0  0  0  0  0
   -3.1390   -1.5639   -2.2542 H   0  0  0  0  0  0  0  0  0  0  0  0
   -3.0679   -4.7428   -0.6221 H   0  0  0  0  0  0  0  0  0  0  0  0
   -1.2981   -4.5103   -0.7497 H   0  0  0  0  0  0  0  0  0  0  0  0
   -2.1059   -4.3714    0.8270 H   0  0  0  0  0  0  0  0  0  0  0  0
   -4.6977   -0.4167   -0.8851 H   0  0  0  0  0  0  0  0  0  0  0  0
   -8.3209    0.4938    1.7229 H   0  0  0  0  0  0  0  0  0  0  0  0
   -7.6147    2.0928    1.3767 H   0  0  0  0  0  0  0  0  0  0  0  0
   -8.1353    3.1052   -1.0831 H   0  0  0  0  0  0  0  0  0  0  0  0
  -10.0131    3.5213   -2.5806 H   0  0  0  0  0  0  0  0  0  0  0  0
  -12.0448    2.1530   -2.4613 H   0  0  0  0  0  0  0  0  0  0  0  0
  -12.1978    0.3284   -0.7955 H   0  0  0  0  0  0  0  0  0  0  0  0
  -10.3720   -0.1097    0.6883 H   0  0  0  0  0  0  0  0  0  0  0  0
    2.4765    1.8763   -0.0726 H   0  0  0  0  0  0  0  0  0  0  0  0
    3.4159   -0.9048   -0.7926 H   0  0  0  0  0  0  0  0  0  0  0  0
    4.1036   -0.2938   -2.8770 H   0  0  0  0  0  0  0  0  0  0  0  0
    2.5687    0.6081   -2.7665 H   0  0  0  0  0  0  0  0  0  0  0  0
    4.2030    1.4340   -2.4705 H   0  0  0  0  0  0  0  0  0  0  0  0
    5.9784    0.1064   -1.9436 H   0  0  0  0  0  0  0  0  0  0  0  0
    7.1902    0.8922    0.7078 H   0  0  0  0  0  0  0  0  0  0  0  0
    8.5159    0.2310   -2.0075 H   0  0  0  0  0  0  0  0  0  0  0  0
    9.4417    0.5057   -0.5381 H   0  0  0  0  0  0  0  0  0  0  0  0
    9.4533   -1.8054   -1.1614 H   0  0  0  0  0  0  0  0  0  0  0  0
    7.6706   -3.2555   -1.4856 H   0  0  0  0  0  0  0  0  0  0  0  0
    7.2714   -1.7969   -2.4116 H   0  0  0  0  0  0  0  0  0  0  0  0
    6.4405   -2.1078   -0.7919 H   0  0  0  0  0  0  0  0  0  0  0  0
    9.1908   -1.0976    1.3592 H   0  0  0  0  0  0  0  0  0  0  0  0
    7.5760   -1.9846    1.1816 H   0  0  0  0  0  0  0  0  0  0  0  0
    9.1163   -2.7972    0.8028 H   0  0  0  0  0  0  0  0  0  0  0  0
    8.6919    3.5697    0.3754 H   0  0  0  0  0  0  0  0  0  0  0  0
  1  2  1  0
  2  3  1  0
  2  4  1  0
  4  5  1  0
  5  6  1  0
  6  7  2  0
  6  8  1  0
  8  9  1  0
  9 10  1  0
 10 11  1  0
 10 12  1  0
  8 13  1  0
 13 14  1  0
 14 15  2  0
 14 16  1  0
 16 17  1  0
 17 18  1  0
 18 19  2  0
 19 20  1  0
 20 21  2  0
 21 22  1  0
 22 23  2  0
  4 24  1  0
 24 25  2  0
 24 26  1  0
 26 27  1  0
 27 28  1  0
 27 29  1  0
 29 30  2  0
 29 31  1  0
 31 32  1  0
 32 33  1  0
 33 34  1  0
 34 35  1  0
 34 36  1  0
 32 37  1  0
 37 38  1  0
 37 39  2  0
 23 18  1  0
  1 40  1  0
  1 41  1  0
  1 42  1  0
  2 43  1  0
  3 44  1  0
  3 45  1  0
  3 46  1  0
  4 47  1  6
  5 48  1  0
  8 49  1  1
  9 50  1  0
  9 51  1  0
 10 52  1  0
 11 53  1  0
 11 54  1  0
 11 55  1  0
 12 56  1  0
 12 57  1  0
 12 58  1  0
 13 59  1  0
 17 60  1  0
 17 61  1  0
 19 62  1  0
 20 63  1  0
 21 64  1  0
 22 65  1  0
 23 66  1  0
 26 67  1  0
 27 68  1  6
 28 69  1  0
 28 70  1  0
 28 71  1  0
 31 72  1  0
 32 73  1  1
 33 74  1  0
 33 75  1  0
 34 76  1  0
 35 77  1  0
 35 78  1  0
 35 79  1  0
 36 80  1  0
 36 81  1  0
 36 82  1  0
 38 83  1  0
M  END
$$$$
[H]c1c([H])c(O[C@]2([H])C([H])([H])C([H])([H])[C@@]([H])(N([H])S(=O)(=O)c3c([H])c([H])c(OC([H])([H])[H])c([H])c3[H])C([H])([H])C2([H])[H])c([H])c(Cl)c1Cl
     RDKit          3D

 48 50  0  0  0  0  0  0  0  0999 V2000
   -6.6303    0.8859    2.7486 C   0  0  0  0  0  0  0  0  0  0  0  0
   -6.1593   -0.2810    2.1337 O   0  0  0  0  0  0  0  0  0  0  0  0
   -5.3118   -0.3276    1.0545 C   0  0  0  0  0  0  0  0  0  0  0  0
   -4.8450    0.8216    0.4756 C   0  0  0  0  0  0  0  0  0  0  0  0
   -3.9885    0.6837   -0.6162 C   0  0  0  0  0  0  0  0  0  0  0  0
   -3.6254   -0.5434   -1.0946 C   0  0  0  0  0  0  0  0  0  0  0  0
   -4.1004   -1.6999   -0.5054 C   0  0  0  0  0  0  0  0  0  0  0  0
   -4.9497   -1.5761    0.5771 C   0  0  0  0  0  0  0  0  0  0  0  0
   -2.5488   -0.6737   -2.4666 S   0  0  0  0  0  0  0  0  0  0  0  0
   -2.7964    0.4424   -3.4462 O   0  0  0  0  0  0  0  0  0  0  0  0
   -2.8742   -1.9589   -3.1737 O   0  0  0  0  0  0  0  0  0  0  0  0
   -0.9012   -0.7362   -1.9881 N   0  0  0  0  0  0  0  0  0  0  0  0
   -0.4495    0.4181   -1.2937 C   0  0  1  0  0  0  0  0  0  0  0  0
    0.0571   -0.0059    0.0675 C   0  0  0  0  0  0  0  0  0  0  0  0
    1.3228   -0.7880   -0.1229 C   0  0  0  0  0  0  0  0  0  0  0  0
    2.4727    0.1191   -0.5634 C   0  0  1  0  0  0  0  0  0  0  0  0
    1.8336    1.4076   -1.0411 C   0  0  0  0  0  0  0  0  0  0  0  0
    0.7173    1.1068   -1.9914 C   0  0  0  0  0  0  0  0  0  0  0  0
    3.2755    0.3325    0.5434 O   0  0  0  0  0  0  0  0  0  0  0  0
    4.5906    0.0804    0.7464 C   0  0  0  0  0  0  0  0  0  0  0  0
    5.1338    0.4066    1.9817 C   0  0  0  0  0  0  0  0  0  0  0  0
    6.4724    0.1708    2.2437 C   0  0  0  0  0  0  0  0  0  0  0  0
    7.2573   -0.3892    1.2692 C   0  0  0  0  0  0  0  0  0  0  0  0
    8.9595   -0.6944    1.5882 Cl  0  0  0  0  0  0  0  0  0  0  0  0
    6.7349   -0.7152    0.0483 C   0  0  0  0  0  0  0  0  0  0  0  0
    7.7161   -1.4323   -1.2160 Cl  0  0  0  0  0  0  0  0  0  0  0  0
    5.3836   -0.4753   -0.2112 C   0  0  0  0  0  0  0  0  0  0  0  0
   -7.6588    0.6603    3.1416 H   0  0  0  0  0  0  0  0  0  0  0  0
   -5.9418    1.1472    3.5961 H   0  0  0  0  0  0  0  0  0  0  0  0
   -6.7217    1.7510    2.0780 H   0  0  0  0  0  0  0  0  0  0  0  0
   -5.1097    1.8193    0.8257 H   0  0  0  0  0  0  0  0  0  0  0  0
   -3.5972    1.5658   -1.1025 H   0  0  0  0  0  0  0  0  0  0  0  0
   -3.7960   -2.6632   -0.9054 H   0  0  0  0  0  0  0  0  0  0  0  0
   -5.3230   -2.4698    1.0404 H   0  0  0  0  0  0  0  0  0  0  0  0
   -0.7803   -1.5930   -1.4078 H   0  0  0  0  0  0  0  0  0  0  0  0
   -1.2228    1.2005   -1.1563 H   0  0  0  0  0  0  0  0  0  0  0  0
    0.1913    0.8418    0.7624 H   0  0  0  0  0  0  0  0  0  0  0  0
   -0.6910   -0.6801    0.5285 H   0  0  0  0  0  0  0  0  0  0  0  0
    1.5931   -1.3209    0.8219 H   0  0  0  0  0  0  0  0  0  0  0  0
    1.1948   -1.5430   -0.9006 H   0  0  0  0  0  0  0  0  0  0  0  0
    3.0362   -0.3296   -1.3908 H   0  0  0  0  0  0  0  0  0  0  0  0
    1.5584    2.0226   -0.1837 H   0  0  0  0  0  0  0  0  0  0  0  0
    2.6195    1.9460   -1.6265 H   0  0  0  0  0  0  0  0  0  0  0  0
    1.0933    0.4579   -2.7905 H   0  0  0  0  0  0  0  0  0  0  0  0
    0.4030    2.0717   -2.4533 H   0  0  0  0  0  0  0  0  0  0  0  0
    4.5299    0.8484    2.7608 H   0  0  0  0  0  0  0  0  0  0  0  0
    6.8966    0.4293    3.2182 H   0  0  0  0  0  0  0  0  0  0  0  0
    4.9794   -0.7408   -1.1913 H   0  0  0  0  0  0  0  0  0  0  0  0
  1  2  1  0
  2  3  1  0
  3  4  2  0
  4  5  1  0
  5  6  2  0
  6  7  1  0
  7  8  2  0
  6  9  1  0
  9 10  2  0
  9 11  2  0
  9 12  1  0
 12 13  1  0
 13 14  1  0
 14 15  1  0
 15 16  1  0
 16 17  1  0
 17 18  1  0
 16 19  1  0
 19 20  1  0
 20 21  2  0
 21 22  1  0
 22 23  2  0
 23 24  1  0
 23 25  1  0
 25 26  1  0
 25 27  2  0
  8  3  1  0
 18 13  1  0
 27 20  1  0
  1 28  1  0
  1 29  1  0
  1 30  1  0
  4 31  1  0
  5 32  1  0
  7 33  1  0
  8 34  1  0
 12 35  1  0
 13 36  1  1
 14 37  1  0
 14 38  1  0
 15 39  1  0
 15 40  1  0
 16 41  1  6
 17 42  1  0
 17 43  1  0
 18 44  1  0
 18 45  1  0
 21 46  1  0
 22 47  1  0
 27 48  1  0
M  END
$$$$
[H]c1c([H])c(C([H])([H])[H])c(C([H])([H])N([H])C([H])([H])[H])c([H])c1C(=O)N1c2c([H])c(N(C([H])([H])[H])C([H])([H])[H])c(OC([H])([H])[H])c([H])c2C([H])([H])C1([H])[H]
     RDKit          3D

 53 55  0  0  0  0  0  0  0  0999 V2000
   -6.6609    0.3539    1.8832 C   0  0  0  0  0  0  0  0  0  0  0  0
   -6.0064   -0.0722    0.7096 O   0  0  0  0  0  0  0  0  0  0  0  0
   -4.6151    0.0656    0.6227 C   0  0  0  0  0  0  0  0  0  0  0  0
   -3.8798    0.5982    1.6815 C   0  0  0  0  0  0  0  0  0  0  0  0
   -2.4857    0.6977    1.5123 C   0  0  0  0  0  0  0  0  0  0  0  0
   -1.5021    1.2669    2.4775 C   0  0  0  0  0  0  0  0  0  0  0  0
   -0.3659    1.5944    1.5126 C   0  0  0  0  0  0  0  0  0  0  0  0
   -0.4258    0.5134    0.5349 N   0  0  0  0  0  0  0  0  0  0  0  0
    0.6484   -0.2068    0.0310 C   0  0  0  0  0  0  0  0  0  0  0  0
    0.4870   -1.4607   -0.2656 O   0  0  0  0  0  0  0  0  0  0  0  0
    1.9968    0.2999   -0.2341 C   0  0  0  0  0  0  0  0  0  0  0  0
    2.2333    1.6442   -0.3279 C   0  0  0  0  0  0  0  0  0  0  0  0
    3.5109    2.1080   -0.6438 C   0  0  0  0  0  0  0  0  0  0  0  0
    4.5641    1.2696   -0.8665 C   0  0  0  0  0  0  0  0  0  0  0  0
    5.9185    1.8065   -1.1640 C   0  0  0  0  0  0  0  0  0  0  0  0
    4.3446   -0.1141   -0.7641 C   0  0  0  0  0  0  0  0  0  0  0  0
    5.3494   -1.0738   -1.1715 C   0  0  0  0  0  0  0  0  0  0  0  0
    6.1157   -1.5837    0.0148 N   0  0  0  0  0  0  0  0  0  0  0  0
    6.9355   -2.7277   -0.3533 C   0  0  0  0  0  0  0  0  0  0  0  0
    3.0388   -0.5595   -0.4452 C   0  0  0  0  0  0  0  0  0  0  0  0
   -1.8349    0.3004    0.3850 C   0  0  0  0  0  0  0  0  0  0  0  0
   -2.5931   -0.2113   -0.6218 C   0  0  0  0  0  0  0  0  0  0  0  0
   -3.9633   -0.3435   -0.5410 C   0  0  0  0  0  0  0  0  0  0  0  0
   -4.7171   -0.8248   -1.6090 N   0  0  0  0  0  0  0  0  0  0  0  0
   -5.4691   -2.0972   -1.6135 C   0  0  0  0  0  0  0  0  0  0  0  0
   -4.7769   -0.0512   -2.8661 C   0  0  0  0  0  0  0  0  0  0  0  0
   -6.3132    1.3015    2.3075 H   0  0  0  0  0  0  0  0  0  0  0  0
   -7.7277    0.5028    1.6409 H   0  0  0  0  0  0  0  0  0  0  0  0
   -6.5769   -0.4347    2.6984 H   0  0  0  0  0  0  0  0  0  0  0  0
   -4.3385    0.9439    2.6002 H   0  0  0  0  0  0  0  0  0  0  0  0
   -1.8689    2.1113    3.0198 H   0  0  0  0  0  0  0  0  0  0  0  0
   -1.1671    0.4451    3.1665 H   0  0  0  0  0  0  0  0  0  0  0  0
    0.5535    1.4613    2.0592 H   0  0  0  0  0  0  0  0  0  0  0  0
   -0.5738    2.5640    1.0587 H   0  0  0  0  0  0  0  0  0  0  0  0
    1.4237    2.3364   -0.1992 H   0  0  0  0  0  0  0  0  0  0  0  0
    3.6654    3.2009   -0.6781 H   0  0  0  0  0  0  0  0  0  0  0  0
    5.7934    2.8017   -1.7180 H   0  0  0  0  0  0  0  0  0  0  0  0
    6.4810    2.0058   -0.2472 H   0  0  0  0  0  0  0  0  0  0  0  0
    6.4744    1.1549   -1.8728 H   0  0  0  0  0  0  0  0  0  0  0  0
    5.9949   -0.8152   -1.9757 H   0  0  0  0  0  0  0  0  0  0  0  0
    4.7780   -2.0736   -1.4583 H   0  0  0  0  0  0  0  0  0  0  0  0
    6.8108   -0.7345    0.1453 H   0  0  0  0  0  0  0  0  0  0  0  0
    7.9484   -2.5845    0.0473 H   0  0  0  0  0  0  0  0  0  0  0  0
    6.9980   -2.6574   -1.5016 H   0  0  0  0  0  0  0  0  0  0  0  0
    6.4646   -3.6776   -0.0856 H   0  0  0  0  0  0  0  0  0  0  0  0
    2.8360   -1.6448   -0.3515 H   0  0  0  0  0  0  0  0  0  0  0  0
   -2.1021   -0.5518   -1.5546 H   0  0  0  0  0  0  0  0  0  0  0  0
   -5.7390   -2.3201   -2.6627 H   0  0  0  0  0  0  0  0  0  0  0  0
   -4.9400   -2.9171   -1.1648 H   0  0  0  0  0  0  0  0  0  0  0  0
   -6.4462   -1.9760   -1.0507 H   0  0  0  0  0  0  0  0  0  0  0  0
   -5.7468    0.3971   -3.0510 H   0  0  0  0  0  0  0  0  0  0  0  0
   -4.0138    0.7210   -2.8776 H   0  0  0  0  0  0  0  0  0  0  0  0
   -4.5148   -0.7525   -3.7020 H   0  0  0  0  0  0  0  0  0  0  0  0
  1  2  1  0
  2  3  1  0
  3  4  2  0
  4  5  1  0
  5  6  1  0
  6  7  1  0
  7  8  1  0
  8  9  1  0
  9 10  2  0
  9 11  1  0
 11 12  2  0
 12 13  1  0
 13 14  2  0
 14 15  1  0
 14 16  1  0
 16 17  1  0
 17 18  1  0
 18 19  1  0
 16 20  2  0
  8 21  1  0
 21 22  1  0
 22 23  2  0
 23 24  1  0
 24 25  1  0
 24 26  1  0
 23  3  1  0
 21  5  2  0
 20 11  1  0
  1 27  1  0
  1 28  1  0
  1 29  1  0
  4 30  1  0
  6 31  1  0
  6 32  1  0
  7 33  1  0
  7 34  1  0
 12 35  1  0
 13 36  1  0
 15 37  1  0
 15 38  1  0
 15 39  1  0
 17 40  1  0
 17 41  1  0
 18 42  1  0
 19 43  1  0
 19 44  1  0
 19 45  1  0
 20 46  1  0
 22 47  1  0
 25 48  1  0
 25 49  1  0
 25 50  1  0
 26 51  1  0
 26 52  1  0
 26 53  1  0
M  END
$$$$
[H]c1c([H])c(C(=O)N([H])[C@]2([H])C([H])([H])C([H])([H])[C@]([H])(N([H])S(=O)(=O)c3c([H])c([H])c(OC([H])([H])[H])c([H])c3[H])C([H])([H])C2([H])[H])c([H])c([H])c1C#N
     RDKit          3D

 52 54  0  0  0  0  0  0  0  0999 V2000
   -6.6350    2.7903   -1.8697 C   0  0  0  0  0  0  0  0  0  0  0  0
   -6.5162    1.4028   -2.1123 O   0  0  0  0  0  0  0  0  0  0  0  0
   -5.8035    0.5624   -1.2524 C   0  0  0  0  0  0  0  0  0  0  0  0
   -5.1739    1.0297   -0.1188 C   0  0  0  0  0  0  0  0  0  0  0  0
   -4.4678    0.1754    0.7264 C   0  0  0  0  0  0  0  0  0  0  0  0
   -4.3742   -1.1730    0.4563 C   0  0  0  0  0  0  0  0  0  0  0  0
   -5.0121   -1.6312   -0.6875 C   0  0  0  0  0  0  0  0  0  0  0  0
   -5.7107   -0.7862   -1.5238 C   0  0  0  0  0  0  0  0  0  0  0  0
   -3.4948   -2.2912    1.4887 S   0  0  0  0  0  0  0  0  0  0  0  0
   -4.1791   -3.6224    1.3590 O   0  0  0  0  0  0  0  0  0  0  0  0
   -3.6548   -1.8324    2.8862 O   0  0  0  0  0  0  0  0  0  0  0  0
   -1.8546   -2.4649    1.0158 N   0  0  0  0  0  0  0  0  0  0  0  0
   -1.1085   -1.2233    1.0913 C   0  0  2  0  0  0  0  0  0  0  0  0
   -0.7270   -0.8579   -0.3167 C   0  0  0  0  0  0  0  0  0  0  0  0
    0.7472   -1.2065   -0.5637 C   0  0  0  0  0  0  0  0  0  0  0  0
    1.5041   -0.2357    0.3278 C   0  0  1  0  0  0  0  0  0  0  0  0
    1.2580   -0.6221    1.7397 C   0  0  0  0  0  0  0  0  0  0  0  0
    0.0292   -1.3724    2.0295 C   0  0  0  0  0  0  0  0  0  0  0  0
    2.9037   -0.2105    0.0372 N   0  0  0  0  0  0  0  0  0  0  0  0
    3.5565    0.9764   -0.3738 C   0  0  0  0  0  0  0  0  0  0  0  0
    2.8575    2.0345   -0.4794 O   0  0  0  0  0  0  0  0  0  0  0  0
    4.9714    1.0739   -0.6846 C   0  0  0  0  0  0  0  0  0  0  0  0
    5.4893    2.3131   -1.0531 C   0  0  0  0  0  0  0  0  0  0  0  0
    6.8174    2.4017   -1.3446 C   0  0  0  0  0  0  0  0  0  0  0  0
    7.6378    1.2929   -1.2786 C   0  0  0  0  0  0  0  0  0  0  0  0
    7.1199    0.0681   -0.9131 C   0  0  0  0  0  0  0  0  0  0  0  0
    5.7822   -0.0285   -0.6179 C   0  0  0  0  0  0  0  0  0  0  0  0
    9.0294    1.4052   -1.5880 C   0  0  0  0  0  0  0  0  0  0  0  0
   10.1684    1.4780   -1.8432 N   0  0  0  0  0  0  0  0  0  0  0  0
   -7.0970    3.2292   -2.7938 H   0  0  0  0  0  0  0  0  0  0  0  0
   -5.6364    3.2788   -1.7544 H   0  0  0  0  0  0  0  0  0  0  0  0
   -7.2852    3.0151   -1.0079 H   0  0  0  0  0  0  0  0  0  0  0  0
   -5.2417    2.0874    0.1019 H   0  0  0  0  0  0  0  0  0  0  0  0
   -3.9796    0.5553    1.6124 H   0  0  0  0  0  0  0  0  0  0  0  0
   -4.9347   -2.7005   -0.8966 H   0  0  0  0  0  0  0  0  0  0  0  0
   -6.1997   -1.1800   -2.4137 H   0  0  0  0  0  0  0  0  0  0  0  0
   -1.7943   -2.9216    0.0789 H   0  0  0  0  0  0  0  0  0  0  0  0
   -1.8097   -0.4424    1.4501 H   0  0  0  0  0  0  0  0  0  0  0  0
   -0.7842    0.2542   -0.4580 H   0  0  0  0  0  0  0  0  0  0  0  0
   -1.3832   -1.3022   -1.0851 H   0  0  0  0  0  0  0  0  0  0  0  0
    0.9828   -1.0861   -1.6222 H   0  0  0  0  0  0  0  0  0  0  0  0
    0.8954   -2.2310   -0.1778 H   0  0  0  0  0  0  0  0  0  0  0  0
    1.0590    0.7837    0.1756 H   0  0  0  0  0  0  0  0  0  0  0  0
    1.3411    0.3175    2.3624 H   0  0  0  0  0  0  0  0  0  0  0  0
    2.1475   -1.2333    2.0770 H   0  0  0  0  0  0  0  0  0  0  0  0
   -0.3354   -1.0655    3.0549 H   0  0  0  0  0  0  0  0  0  0  0  0
    0.2547   -2.4642    2.1406 H   0  0  0  0  0  0  0  0  0  0  0  0
    3.4443   -1.0884    0.1332 H   0  0  0  0  0  0  0  0  0  0  0  0
    4.8485    3.1906   -1.1072 H   0  0  0  0  0  0  0  0  0  0  0  0
    7.2260    3.3653   -1.6324 H   0  0  0  0  0  0  0  0  0  0  0  0
    7.7340   -0.8250   -0.8502 H   0  0  0  0  0  0  0  0  0  0  0  0
    5.3878   -0.9830   -0.3352 H   0  0  0  0  0  0  0  0  0  0  0  0
  1  2  1  0
  2  3  1  0
  3  4  2  0
  4  5  1  0
  5  6  2  0
  6  7  1  0
  7  8  2  0
  6  9  1  0
  9 10  2  0
  9 11  2  0
  9 12  1  0
 12 13  1  0
 13 14  1  0
 14 15  1  0
 15 16  1  0
 16 17  1  0
 17 18  1  0
 16 19  1  0
 19 20  1  0
 20 21  2  0
 20 22  1  0
 22 23  2  0
 23 24  1  0
 24 25  2  0
 25 26  1  0
 26 27  2  0
 25 28  1  0
 28 29  3  0
  8  3  1  0
 18 13  1  0
 27 22  1  0
  1 30  1  0
  1 31  1  0
  1 32  1  0
  4 33  1  0
  5 34  1  0
  7 35  1  0
  8 36  1  0
 12 37  1  0
 13 38  1  1
 14 39  1  0
 14 40  1  0
 15 41  1  0
 15 42  1  0
 16 43  1  1
 17 44  1  0
 17 45  1  0
 18 46  1  0
 18 47  1  0
 19 48  1  0
 23 49  1  0
 24 50  1  0
 26 51  1  0
 27 52  1  0
M  END
$$$$
[H]OC(=O)c1c([H])c([H])c([C@]([H])(N([H])C(=O)c2c([H])c([H])c([H])c(C(F)(F)F)c2[H])C([H])([H])[H])c([H])c1[H]
     RDKit          3D

 38 39  0  0  0  0  0  0  0  0999 V2000
   -1.0876   -1.8294    2.1954 C   0  0  0  0  0  0  0  0  0  0  0  0
   -0.9775   -0.4484    1.4925 C   0  0  1  0  0  0  0  0  0  0  0  0
    0.3233   -0.1803    1.1487 N   0  0  0  0  0  0  0  0  0  0  0  0
    1.1272    0.8252    0.6470 C   0  0  0  0  0  0  0  0  0  0  0  0
    0.6984    1.9703    0.2832 O   0  0  0  0  0  0  0  0  0  0  0  0
    2.5983    0.7053    0.4855 C   0  0  0  0  0  0  0  0  0  0  0  0
    3.3924    0.9918    1.6041 C   0  0  0  0  0  0  0  0  0  0  0  0
    4.7623    0.9593    1.5432 C   0  0  0  0  0  0  0  0  0  0  0  0
    5.3795    0.6308    0.3417 C   0  0  0  0  0  0  0  0  0  0  0  0
    4.6220    0.3480   -0.7680 C   0  0  0  0  0  0  0  0  0  0  0  0
    3.2077    0.3846   -0.6930 C   0  0  0  0  0  0  0  0  0  0  0  0
    5.3499    0.0068   -2.0130 C   0  0  0  0  0  0  0  0  0  0  0  0
    6.7253   -0.2097   -1.6890 F   0  0  0  0  0  0  0  0  0  0  0  0
    4.8966   -1.0968   -2.6589 F   0  0  0  0  0  0  0  0  0  0  0  0
    5.4007    1.0890   -2.9175 F   0  0  0  0  0  0  0  0  0  0  0  0
   -2.1320   -0.3224    0.6026 C   0  0  0  0  0  0  0  0  0  0  0  0
   -2.3083    0.4648   -0.4846 C   0  0  0  0  0  0  0  0  0  0  0  0
   -3.5208    0.6536   -1.1526 C   0  0  0  0  0  0  0  0  0  0  0  0
   -4.6196   -0.0156   -0.6705 C   0  0  0  0  0  0  0  0  0  0  0  0
   -4.5049   -0.8474    0.4445 C   0  0  0  0  0  0  0  0  0  0  0  0
   -3.3063   -1.0014    1.0644 C   0  0  0  0  0  0  0  0  0  0  0  0
   -5.9339    0.1842   -1.2348 C   0  0  0  0  0  0  0  0  0  0  0  0
   -6.2263    1.0938   -2.2424 O   0  0  0  0  0  0  0  0  0  0  0  0
   -6.9248   -0.5122   -0.8077 O   0  0  0  0  0  0  0  0  0  0  0  0
   -1.5675   -2.5264    1.4967 H   0  0  0  0  0  0  0  0  0  0  0  0
   -0.0660   -2.1848    2.4846 H   0  0  0  0  0  0  0  0  0  0  0  0
   -1.7250   -1.7178    3.0929 H   0  0  0  0  0  0  0  0  0  0  0  0
   -1.2486    0.3768    2.3019 H   0  0  0  0  0  0  0  0  0  0  0  0
    1.0057   -1.1054    1.3454 H   0  0  0  0  0  0  0  0  0  0  0  0
    2.8682    1.2245    2.4969 H   0  0  0  0  0  0  0  0  0  0  0  0
    5.3791    1.1691    2.3993 H   0  0  0  0  0  0  0  0  0  0  0  0
    6.4513    0.5878    0.3203 H   0  0  0  0  0  0  0  0  0  0  0  0
    2.6513    0.1350   -1.6163 H   0  0  0  0  0  0  0  0  0  0  0  0
   -1.4499    0.9993   -0.9016 H   0  0  0  0  0  0  0  0  0  0  0  0
   -3.5571    1.3051   -1.9929 H   0  0  0  0  0  0  0  0  0  0  0  0
   -5.3793   -1.3459    0.7999 H   0  0  0  0  0  0  0  0  0  0  0  0
   -3.2318   -1.6228    1.9136 H   0  0  0  0  0  0  0  0  0  0  0  0
   -7.0722    0.8615   -2.8630 H   0  0  0  0  0  0  0  0  0  0  0  0
  1  2  1  0
  2  3  1  0
  3  4  1  0
  4  5  2  0
  4  6  1  0
  6  7  2  0
  7  8  1  0
  8  9  2  0
  9 10  1  0
 10 11  2  0
 10 12  1  0
 12 13  1  0
 12 14  1  0
 12 15  1  0
  2 16  1  0
 16 17  2  0
 17 18  1  0
 18 19  2  0
 19 20  1  0
 20 21  2  0
 19 22  1  0
 22 23  1  0
 22 24  2  0
 11  6  1  0
 21 16  1  0
  1 25  1  0
  1 26  1  0
  1 27  1  0
  2 28  1  1
  3 29  1  0
  7 30  1  0
  8 31  1  0
  9 32  1  0
 11 33  1  0
 17 34  1  0
 18 35  1  0
 20 36  1  0
 21 37  1  0
 23 38  1  0
M  END
$$$$
[H]c1nc(N([H])c2c([H])c([H])c(N3C([H])([H])C([H])([H])N(C([H])([H])[H])C([H])([H])C3([H])[H])c(OC([H])([H])[H])c2[H])nc(N([H])c2c([H])c([H])c([H])c([H])c2C(=O)N([H])c2c([H])c([H])c([H])c([H])c2[H])c1Cl
     RDKit          3D

 69 73  0  0  0  0  0  0  0  0999 V2000
    5.2431   -3.1945    1.8166 C   0  0  0  0  0  0  0  0  0  0  0  0
    5.6159   -1.9747    1.2024 O   0  0  0  0  0  0  0  0  0  0  0  0
    4.7310   -1.1220    0.6074 C   0  0  0  0  0  0  0  0  0  0  0  0
    3.3815   -1.4922    0.6109 C   0  0  0  0  0  0  0  0  0  0  0  0
    2.4272   -0.6954    0.0325 C   0  0  0  0  0  0  0  0  0  0  0  0
    1.0473   -1.0348   -0.0039 N   0  0  0  0  0  0  0  0  0  0  0  0
    0.0529   -0.0306    0.2461 C   0  0  0  0  0  0  0  0  0  0  0  0
    0.4557    1.2267    0.5848 N   0  0  0  0  0  0  0  0  0  0  0  0
   -0.4308    2.2051    0.7403 C   0  0  0  0  0  0  0  0  0  0  0  0
   -1.7597    1.9191    0.5514 C   0  0  0  0  0  0  0  0  0  0  0  0
   -2.9712    3.1960    0.7316 Cl  0  0  0  0  0  0  0  0  0  0  0  0
   -2.1761    0.6239    0.2030 C   0  0  0  0  0  0  0  0  0  0  0  0
   -3.5694    0.4470   -0.0103 N   0  0  0  0  0  0  0  0  0  0  0  0
   -4.2206   -0.7316   -0.3600 C   0  0  0  0  0  0  0  0  0  0  0  0
   -3.5459   -1.7843   -0.9816 C   0  0  0  0  0  0  0  0  0  0  0  0
   -4.2355   -2.8795   -1.4925 C   0  0  0  0  0  0  0  0  0  0  0  0
   -5.5974   -2.9456   -1.3956 C   0  0  0  0  0  0  0  0  0  0  0  0
   -6.2423   -1.8996   -0.7775 C   0  0  0  0  0  0  0  0  0  0  0  0
   -5.6089   -0.7991   -0.2538 C   0  0  0  0  0  0  0  0  0  0  0  0
   -6.3520    0.1881    0.5616 C   0  0  0  0  0  0  0  0  0  0  0  0
   -5.5974    0.8688    1.3533 O   0  0  0  0  0  0  0  0  0  0  0  0
   -7.6824    0.3885    0.4877 N   0  0  0  0  0  0  0  0  0  0  0  0
   -9.0163    0.5901    0.4142 C   0  0  0  0  0  0  0  0  0  0  0  0
   -9.9076   -0.4990    0.3120 C   0  0  0  0  0  0  0  0  0  0  0  0
  -11.2308   -0.2773    0.1604 C   0  0  0  0  0  0  0  0  0  0  0  0
  -11.8011    0.9674    0.0969 C   0  0  0  0  0  0  0  0  0  0  0  0
  -10.9651    2.0532    0.1941 C   0  0  0  0  0  0  0  0  0  0  0  0
   -9.6192    1.8566    0.3479 C   0  0  0  0  0  0  0  0  0  0  0  0
   -1.2363   -0.3158    0.0632 N   0  0  0  0  0  0  0  0  0  0  0  0
    2.8413    0.4707   -0.5491 C   0  0  0  0  0  0  0  0  0  0  0  0
    4.1827    0.8386   -0.5517 C   0  0  0  0  0  0  0  0  0  0  0  0
    5.1560    0.0356    0.0366 C   0  0  0  0  0  0  0  0  0  0  0  0
    6.4946    0.5249    0.0269 N   0  0  0  0  0  0  0  0  0  0  0  0
    6.7761    1.6486   -0.8523 C   0  0  0  0  0  0  0  0  0  0  0  0
    8.1948    2.0424   -0.9479 C   0  0  0  0  0  0  0  0  0  0  0  0
    9.1384    1.2943   -0.1971 N   0  0  0  0  0  0  0  0  0  0  0  0
    9.8818    0.3488   -0.9563 C   0  0  0  0  0  0  0  0  0  0  0  0
    8.6660    0.8996    1.0808 C   0  0  0  0  0  0  0  0  0  0  0  0
    7.4782   -0.0656    0.8780 C   0  0  0  0  0  0  0  0  0  0  0  0
    6.1001   -3.6119    2.4193 H   0  0  0  0  0  0  0  0  0  0  0  0
    4.9675   -3.9492    1.0402 H   0  0  0  0  0  0  0  0  0  0  0  0
    4.4205   -3.0469    2.5297 H   0  0  0  0  0  0  0  0  0  0  0  0
    3.0951   -2.4208    1.0774 H   0  0  0  0  0  0  0  0  0  0  0  0
    0.7485   -1.9989   -0.2094 H   0  0  0  0  0  0  0  0  0  0  0  0
   -0.1678    3.2220    1.0106 H   0  0  0  0  0  0  0  0  0  0  0  0
   -4.1838    1.3302    0.0251 H   0  0  0  0  0  0  0  0  0  0  0  0
   -2.4815   -1.8159   -1.1140 H   0  0  0  0  0  0  0  0  0  0  0  0
   -3.6691   -3.6654   -1.9565 H   0  0  0  0  0  0  0  0  0  0  0  0
   -6.1593   -3.8038   -1.7975 H   0  0  0  0  0  0  0  0  0  0  0  0
   -7.3213   -1.9343   -0.6926 H   0  0  0  0  0  0  0  0  0  0  0  0
   -7.6599    1.2538    1.5754 H   0  0  0  0  0  0  0  0  0  0  0  0
   -9.4532   -1.4707    0.3627 H   0  0  0  0  0  0  0  0  0  0  0  0
  -11.9249   -1.1166    0.0735 H   0  0  0  0  0  0  0  0  0  0  0  0
  -12.8657    1.0614   -0.0289 H   0  0  0  0  0  0  0  0  0  0  0  0
  -11.4114    3.0450    0.1428 H   0  0  0  0  0  0  0  0  0  0  0  0
   -9.0098    2.7563    0.4201 H   0  0  0  0  0  0  0  0  0  0  0  0
    2.1470    1.1275   -1.0533 H   0  0  0  0  0  0  0  0  0  0  0  0
    4.4174    1.7863   -1.0365 H   0  0  0  0  0  0  0  0  0  0  0  0
    6.2174    2.5310   -0.4212 H   0  0  0  0  0  0  0  0  0  0  0  0
    6.2969    1.4541   -1.8525 H   0  0  0  0  0  0  0  0  0  0  0  0
    8.4795    2.0018   -2.0485 H   0  0  0  0  0  0  0  0  0  0  0  0
    8.3663    3.1256   -0.6880 H   0  0  0  0  0  0  0  0  0  0  0  0
   10.7418    0.8890   -1.4519 H   0  0  0  0  0  0  0  0  0  0  0  0
    9.3305   -0.1277   -1.7853 H   0  0  0  0  0  0  0  0  0  0  0  0
   10.3584   -0.4111   -0.2965 H   0  0  0  0  0  0  0  0  0  0  0  0
    9.3901    0.3659    1.6994 H   0  0  0  0  0  0  0  0  0  0  0  0
    8.2362    1.7952    1.5887 H   0  0  0  0  0  0  0  0  0  0  0  0
    7.9161   -1.0100    0.5168 H   0  0  0  0  0  0  0  0  0  0  0  0
    7.0796   -0.2545    1.9203 H   0  0  0  0  0  0  0  0  0  0  0  0
  1  2  1  0
  2  3  1  0
  3  4  2  0
  4  5  1  0
  5  6  1  0
  6  7  1  0
  7  8  2  0
  8  9  1  0
  9 10  2  0
 10 11  1  0
 10 12  1  0
 12 13  1  0
 13 14  1  0
 14 15  2  0
 15 16  1  0
 16 17  2  0
 17 18  1  0
 18 19  2  0
 19 20  1  0
 20 21  2  0
 20 22  1  0
 22 23  1  0
 23 24  2  0
 24 25  1  0
 25 26  2  0
 26 27  1  0
 27 28  2  0
 12 29  2  0
  5 30  2  0
 30 31  1  0
 31 32  2  0
 32 33  1  0
 33 34  1  0
 34 35  1  0
 35 36  1  0
 36 37  1  0
 36 38  1  0
 38 39  1  0
 32  3  1  0
 39 33  1  0
 29  7  1  0
 19 14  1  0
 28 23  1  0
  1 40  1  0
  1 41  1  0
  1 42  1  0
  4 43  1  0
  6 44  1  0
  9 45  1  0
 13 46  1  0
 15 47  1  0
 16 48  1  0
 17 49  1  0
 18 50  1  0
 22 51  1  0
 24 52  1  0
 25 53  1  0
 26 54  1  0
 27 55  1  0
 28 56  1  0
 30 57  1  0
 31 58  1  0
 34 59  1  0
 34 60  1  0
 35 61  1  0
 35 62  1  0
 37 63  1  0
 37 64  1  0
 37 65  1  0
 38 66  1  0
 38 67  1  0
 39 68  1  0
 39 69  1  0
M  END
$$$$
[H]c1c([H])c(C2([H])C([H])([H])C([H])([H])N(C(=O)c3c([H])c([H])c(C(F)(F)F)c([H])c3[H])C([H])([H])C2([H])[H])c([H])c([H])c1C#N
     RDKit          3D

 43 45  0  0  0  0  0  0  0  0999 V2000
    7.9773    0.5515   -0.0082 F   0  0  0  0  0  0  0  0  0  0  0  0
    7.1053    0.0552    0.9091 C   0  0  0  0  0  0  0  0  0  0  0  0
    7.4633   -1.2449    1.2500 F   0  0  0  0  0  0  0  0  0  0  0  0
    7.1620    0.8085    2.0449 F   0  0  0  0  0  0  0  0  0  0  0  0
    5.7231    0.0685    0.3463 C   0  0  0  0  0  0  0  0  0  0  0  0
    5.4414   -0.5086   -0.8740 C   0  0  0  0  0  0  0  0  0  0  0  0
    4.1775   -0.5161   -1.3817 C   0  0  0  0  0  0  0  0  0  0  0  0
    3.0964    0.0630   -0.6942 C   0  0  0  0  0  0  0  0  0  0  0  0
    3.3948    0.6252    0.5025 C   0  0  0  0  0  0  0  0  0  0  0  0
    4.6931    0.6425    1.0433 C   0  0  0  0  0  0  0  0  0  0  0  0
    1.7921    0.0319   -1.2657 C   0  0  0  0  0  0  0  0  0  0  0  0
    1.7840   -0.4595   -2.4974 O   0  0  0  0  0  0  0  0  0  0  0  0
    0.5626    0.4244   -0.7445 N   0  0  0  0  0  0  0  0  0  0  0  0
   -0.5969    0.2387   -1.6759 C   0  0  0  0  0  0  0  0  0  0  0  0
   -1.4338   -0.8234   -0.9806 C   0  0  0  0  0  0  0  0  0  0  0  0
   -1.9731   -0.2591    0.3413 C   0  0  0  0  0  0  0  0  0  0  0  0
   -1.3463    1.0498    0.6542 C   0  0  0  0  0  0  0  0  0  0  0  0
    0.1762    0.9471    0.5214 C   0  0  0  0  0  0  0  0  0  0  0  0
   -3.4217   -0.2453    0.2158 C   0  0  0  0  0  0  0  0  0  0  0  0
   -4.0689   -1.4865    0.2812 C   0  0  0  0  0  0  0  0  0  0  0  0
   -5.4351   -1.6009    0.1789 C   0  0  0  0  0  0  0  0  0  0  0  0
   -6.2157   -0.4657    0.0050 C   0  0  0  0  0  0  0  0  0  0  0  0
   -5.6035    0.7619   -0.0625 C   0  0  0  0  0  0  0  0  0  0  0  0
   -4.2200    0.8615    0.0426 C   0  0  0  0  0  0  0  0  0  0  0  0
   -7.6550   -0.5440   -0.1034 C   0  0  0  0  0  0  0  0  0  0  0  0
   -8.8195   -0.5921   -0.1692 N   0  0  0  0  0  0  0  0  0  0  0  0
    6.2923   -0.9595   -1.4074 H   0  0  0  0  0  0  0  0  0  0  0  0
    4.0204   -0.9766   -2.3369 H   0  0  0  0  0  0  0  0  0  0  0  0
    2.6605    1.1184    1.1258 H   0  0  0  0  0  0  0  0  0  0  0  0
    4.8501    1.1160    2.0161 H   0  0  0  0  0  0  0  0  0  0  0  0
   -1.1831    1.1685   -1.6922 H   0  0  0  0  0  0  0  0  0  0  0  0
   -0.2521   -0.1097   -2.6544 H   0  0  0  0  0  0  0  0  0  0  0  0
   -0.7183   -1.6298   -0.7098 H   0  0  0  0  0  0  0  0  0  0  0  0
   -2.2515   -1.1956   -1.6162 H   0  0  0  0  0  0  0  0  0  0  0  0
   -1.7266   -0.9916    1.1467 H   0  0  0  0  0  0  0  0  0  0  0  0
   -1.5320    1.2714    1.7228 H   0  0  0  0  0  0  0  0  0  0  0  0
   -1.6927    1.9163    0.0919 H   0  0  0  0  0  0  0  0  0  0  0  0
    0.5700    1.9837    0.6298 H   0  0  0  0  0  0  0  0  0  0  0  0
    0.5686    0.3632    1.4002 H   0  0  0  0  0  0  0  0  0  0  0  0
   -3.5036   -2.3747    0.4128 H   0  0  0  0  0  0  0  0  0  0  0  0
   -5.9549   -2.5483    0.2225 H   0  0  0  0  0  0  0  0  0  0  0  0
   -6.1910    1.6489   -0.1969 H   0  0  0  0  0  0  0  0  0  0  0  0
   -3.7155    1.8161   -0.0065 H   0  0  0  0  0  0  0  0  0  0  0  0
  1  2  1  0
  2  3  1  0
  2  4  1  0
  2  5  1  0
  5  6  2  0
  6  7  1  0
  7  8  2  0
  8  9  1  0
  9 10  2  0
  8 11  1  0
 11 12  2  0
 11 13  1  0
 13 14  1  0
 14 15  1  0
 15 16  1  0
 16 17  1  0
 17 18  1  0
 16 19  1  0
 19 20  2  0
 20 21  1  0
 21 22  2  0
 22 23  1  0
 23 24  2  0
 22 25  1  0
 25 26  3  0
 10  5  1  0
 18 13  1  0
 24 19  1  0
  6 27  1  0
  7 28  1  0
  9 29  1  0
 10 30  1  0
 14 31  1  0
 14 32  1  0
 15 33  1  0
 15 34  1  0
 16 35  1  0
 17 36  1  0
 17 37  1  0
 18 38  1  0
 18 39  1  0
 20 40  1  0
 21 41  1  0
 23 42  1  0
 24 43  1  0
M  END
$$$$
[H]Oc1c([H])c([H])c(C([H])([H])[C@@]2([H])C(=O)N([H])[C@@]([H])([C@@]([H])(C([H])([H])[H])C([H])([H])C([H])([H])[H])C(=O)N([H])[C@@]([H])([C@@]([H])(C([H])([H])[H])C([H])([H])C([H])([H])[H])C(=O)N([H])[C@@]([H])([C@@]([H])(C([H])([H])[H])C([H])([H])C([H])([H])[H])C(=O)N2[H])c([H])c1[H]
     RDKit          3D

 78 79  0  0  0  0  0  0  0  0999 V2000
   -1.0742    5.3745    1.0477 C   0  0  0  0  0  0  0  0  0  0  0  0
   -0.7081    4.2993    0.0427 C   0  0  0  0  0  0  0  0  0  0  0  0
   -0.4817    2.9737    0.6855 C   0  0  2  0  0  0  0  0  0  0  0  0
    0.6567    3.0893    1.6814 C   0  0  0  0  0  0  0  0  0  0  0  0
   -0.2502    1.8390   -0.2860 C   0  0  2  0  0  0  0  0  0  0  0  0
    0.9239    2.1104   -1.0891 N   0  0  0  0  0  0  0  0  0  0  0  0
    1.6006    1.0883   -1.8322 C   0  0  0  0  0  0  0  0  0  0  0  0
    1.9711    1.3362   -3.0076 O   0  0  0  0  0  0  0  0  0  0  0  0
    1.8938   -0.2616   -1.2923 C   0  0  2  0  0  0  0  0  0  0  0  0
    3.3725   -0.4546   -1.1137 C   0  0  0  0  0  0  0  0  0  0  0  0
    3.9682    0.5268   -0.1732 C   0  0  0  0  0  0  0  0  0  0  0  0
    4.4753    1.7312   -0.6073 C   0  0  0  0  0  0  0  0  0  0  0  0
    5.0319    2.6525    0.2878 C   0  0  0  0  0  0  0  0  0  0  0  0
    5.0909    2.3833    1.6380 C   0  0  0  0  0  0  0  0  0  0  0  0
    5.6432    3.2939    2.5389 O   0  0  0  0  0  0  0  0  0  0  0  0
    4.5827    1.1767    2.0709 C   0  0  0  0  0  0  0  0  0  0  0  0
    4.0357    0.2727    1.1863 C   0  0  0  0  0  0  0  0  0  0  0  0
    1.4519   -1.1997   -2.3213 N   0  0  0  0  0  0  0  0  0  0  0  0
    0.2108   -1.8710   -2.2940 C   0  0  0  0  0  0  0  0  0  0  0  0
   -0.4725   -1.8796   -3.3746 O   0  0  0  0  0  0  0  0  0  0  0  0
   -0.3253   -2.5545   -1.0866 C   0  0  1  0  0  0  0  0  0  0  0  0
   -1.7519   -2.6636   -1.2244 N   0  0  0  0  0  0  0  0  0  0  0  0
   -2.6311   -1.5488   -1.2025 C   0  0  0  0  0  0  0  0  0  0  0  0
   -3.5930   -1.4482   -2.0400 O   0  0  0  0  0  0  0  0  0  0  0  0
   -2.5211   -0.4230   -0.2311 C   0  0  1  0  0  0  0  0  0  0  0  0
   -2.5565    0.8682   -0.8878 N   0  0  0  0  0  0  0  0  0  0  0  0
   -1.4258    1.6675   -1.1788 C   0  0  0  0  0  0  0  0  0  0  0  0
   -1.4038    2.2836   -2.2731 O   0  0  0  0  0  0  0  0  0  0  0  0
   -3.6514   -0.5650    0.7688 C   0  0  1  0  0  0  0  0  0  0  0  0
   -3.5957   -1.8560    1.5161 C   0  0  0  0  0  0  0  0  0  0  0  0
   -3.5971    0.5571    1.7844 C   0  0  0  0  0  0  0  0  0  0  0  0
   -4.7142    0.4245    2.7780 C   0  0  0  0  0  0  0  0  0  0  0  0
    0.4002   -3.7975   -0.7373 C   0  0  1  0  0  0  0  0  0  0  0  0
   -0.2143   -4.4464    0.5061 C   0  0  0  0  0  0  0  0  0  0  0  0
    0.6299   -4.7878   -1.8146 C   0  0  0  0  0  0  0  0  0  0  0  0
   -0.5909   -5.3606   -2.4664 C   0  0  0  0  0  0  0  0  0  0  0  0
   -0.1456    5.7315    1.5835 H   0  0  0  0  0  0  0  0  0  0  0  0
   -1.8637    5.0809    1.7379 H   0  0  0  0  0  0  0  0  0  0  0  0
   -1.4239    6.2570    0.4713 H   0  0  0  0  0  0  0  0  0  0  0  0
    0.2274    4.6403   -0.4392 H   0  0  0  0  0  0  0  0  0  0  0  0
   -1.5175    4.2892   -0.7124 H   0  0  0  0  0  0  0  0  0  0  0  0
   -1.4029    2.7592    1.3048 H   0  0  0  0  0  0  0  0  0  0  0  0
    0.4141    3.9072    2.3828 H   0  0  0  0  0  0  0  0  0  0  0  0
    0.7879    2.1684    2.2848 H   0  0  0  0  0  0  0  0  0  0  0  0
    1.6148    3.3446    1.1769 H   0  0  0  0  0  0  0  0  0  0  0  0
   -0.0402    0.8984    0.2767 H   0  0  0  0  0  0  0  0  0  0  0  0
    1.2801    3.0868   -1.1206 H   0  0  0  0  0  0  0  0  0  0  0  0
    1.3648   -0.4461   -0.3318 H   0  0  0  0  0  0  0  0  0  0  0  0
    3.8477   -0.3762   -2.1340 H   0  0  0  0  0  0  0  0  0  0  0  0
    3.5837   -1.4906   -0.7743 H   0  0  0  0  0  0  0  0  0  0  0  0
    4.4447    1.9710   -1.6679 H   0  0  0  0  0  0  0  0  0  0  0  0
    5.4235    3.5949   -0.0878 H   0  0  0  0  0  0  0  0  0  0  0  0
    6.6347    3.2139    2.7255 H   0  0  0  0  0  0  0  0  0  0  0  0
    4.6332    0.9737    3.1320 H   0  0  0  0  0  0  0  0  0  0  0  0
    3.6410   -0.6663    1.5289 H   0  0  0  0  0  0  0  0  0  0  0  0
    2.1110   -1.3629   -3.1112 H   0  0  0  0  0  0  0  0  0  0  0  0
   -0.1543   -1.7973   -0.2412 H   0  0  0  0  0  0  0  0  0  0  0  0
   -2.1801   -3.6007   -1.3455 H   0  0  0  0  0  0  0  0  0  0  0  0
   -1.5657   -0.4544    0.3357 H   0  0  0  0  0  0  0  0  0  0  0  0
   -3.5258    1.2093   -1.1576 H   0  0  0  0  0  0  0  0  0  0  0  0
   -4.5963   -0.4887    0.2199 H   0  0  0  0  0  0  0  0  0  0  0  0
   -3.3463   -2.7298    0.8585 H   0  0  0  0  0  0  0  0  0  0  0  0
   -4.6416   -2.0725    1.8793 H   0  0  0  0  0  0  0  0  0  0  0  0
   -2.9725   -1.8298    2.4230 H   0  0  0  0  0  0  0  0  0  0  0  0
   -2.6375    0.5469    2.3549 H   0  0  0  0  0  0  0  0  0  0  0  0
   -3.6724    1.5620    1.3220 H   0  0  0  0  0  0  0  0  0  0  0  0
   -4.5398    1.1589    3.6103 H   0  0  0  0  0  0  0  0  0  0  0  0
   -5.7050    0.6979    2.3260 H   0  0  0  0  0  0  0  0  0  0  0  0
   -4.7557   -0.5647    3.2619 H   0  0  0  0  0  0  0  0  0  0  0  0
    1.4372   -3.4958   -0.3718 H   0  0  0  0  0  0  0  0  0  0  0  0
   -1.1405   -4.9711    0.1868 H   0  0  0  0  0  0  0  0  0  0  0  0
    0.5401   -5.1122    0.9325 H   0  0  0  0  0  0  0  0  0  0  0  0
   -0.4211   -3.6251    1.2194 H   0  0  0  0  0  0  0  0  0  0  0  0
    1.1974   -5.6793   -1.4082 H   0  0  0  0  0  0  0  0  0  0  0  0
    1.2817   -4.4180   -2.6348 H   0  0  0  0  0  0  0  0  0  0  0  0
   -0.2525   -6.2605   -3.0642 H   0  0  0  0  0  0  0  0  0  0  0  0
   -1.3088   -5.7925   -1.7364 H   0  0  0  0  0  0  0  0  0  0  0  0
   -1.0364   -4.6884   -3.1950 H   0  0  0  0  0  0  0  0  0  0  0  0
  1  2  1  0
  2  3  1  0
  3  4  1  0
  3  5  1  0
  5  6  1  0
  6  7  1  0
  7  8  2  0
  7  9  1  0
  9 10  1  0
 10 11  1  0
 11 12  2  0
 12 13  1  0
 13 14  2  0
 14 15  1  0
 14 16  1  0
 16 17  2  0
  9 18  1  0
 18 19  1  0
 19 20  2  0
 19 21  1  0
 21 22  1  0
 22 23  1  0
 23 24  2  0
 23 25  1  0
 25 26  1  0
 26 27  1  0
 27 28  2  0
 25 29  1  0
 29 30  1  0
 29 31  1  0
 31 32  1  0
 21 33  1  0
 33 34  1  0
 33 35  1  0
 35 36  1  0
 27  5  1  0
 17 11  1  0
  1 37  1  0
  1 38  1  0
  1 39  1  0
  2 40  1  0
  2 41  1  0
  3 42  1  1
  4 43  1  0
  4 44  1  0
  4 45  1  0
  5 46  1  1
  6 47  1  0
  9 48  1  1
 10 49  1  0
 10 50  1  0
 12 51  1  0
 13 52  1  0
 15 53  1  0
 16 54  1  0
 17 55  1  0
 18 56  1  0
 21 57  1  1
 22 58  1  0
 25 59  1  1
 26 60  1  0
 29 61  1  6
 30 62  1  0
 30 63  1  0
 30 64  1  0
 31 65  1  0
 31 66  1  0
 32 67  1  0
 32 68  1  0
 32 69  1  0
 33 70  1  1
 34 71  1  0
 34 72  1  0
 34 73  1  0
 35 74  1  0
 35 75  1  0
 36 76  1  0
 36 77  1  0
 36 78  1  0
M  END
$$$$
[H]Oc1c([H])c([H])c(C(=O)N([H])[C@@]([H])(C(=O)N([H])[C@]([H])(C(=O)N([H])[C@]([H])(C(=O)N([H])[C@@]([H])(C([H])([H])C([H])(C([H])([H])[H])C([H])([H])[H])C([H])(C([H])([H])[H])C([H])([H])[H])C([H])([H])C([H])(C([H])([H])[H])C([H])([H])[H])C([H])([H])c2c([H])c([H])c(O[H])c([H])c2[H])C([H])([H])c2c([H])c([H])c([H])c([H])c2[H])c([H])c1[H]
     RDKit          3D

101103  0  0  0  0  0  0  0  0999 V2000
    4.6143    4.4396    0.8620 C   0  0  0  0  0  0  0  0  0  0  0  0
    4.8220    2.9821    1.3111 C   0  0  0  0  0  0  0  0  0  0  0  0
    6.0358    3.0113    2.2032 C   0  0  0  0  0  0  0  0  0  0  0  0
    4.9301    2.1693    0.0799 C   0  0  0  0  0  0  0  0  0  0  0  0
    5.1230    0.7032    0.2230 C   0  0  2  0  0  0  0  0  0  0  0  0
    4.0711    0.0543    0.9551 N   0  0  0  0  0  0  0  0  0  0  0  0
    3.0396   -0.7358    0.3373 C   0  0  0  0  0  0  0  0  0  0  0  0
    3.0293   -0.8808   -0.9031 O   0  0  0  0  0  0  0  0  0  0  0  0
    1.9824   -1.3842    1.1506 C   0  0  2  0  0  0  0  0  0  0  0  0
    2.6130   -2.4218    2.0612 C   0  0  0  0  0  0  0  0  0  0  0  0
    1.6050   -3.1213    2.9249 C   0  0  0  0  0  0  0  0  0  0  0  0
    2.2869   -4.1595    3.8081 C   0  0  0  0  0  0  0  0  0  0  0  0
    0.9250   -2.1638    3.8860 C   0  0  0  0  0  0  0  0  0  0  0  0
    1.0678   -2.0482    0.2470 N   0  0  0  0  0  0  0  0  0  0  0  0
   -0.3084   -1.7177    0.1619 C   0  0  0  0  0  0  0  0  0  0  0  0
   -0.7077   -0.8096    0.9202 O   0  0  0  0  0  0  0  0  0  0  0  0
   -1.2457   -2.3936   -0.7642 C   0  0  2  0  0  0  0  0  0  0  0  0
   -0.6998   -2.4665   -2.1594 C   0  0  0  0  0  0  0  0  0  0  0  0
   -1.6001   -3.1408   -3.1186 C   0  0  0  0  0  0  0  0  0  0  0  0
   -2.5171   -2.4776   -3.9214 C   0  0  0  0  0  0  0  0  0  0  0  0
   -3.3545   -3.1160   -4.8047 C   0  0  0  0  0  0  0  0  0  0  0  0
   -3.3062   -4.4778   -4.9229 C   0  0  0  0  0  0  0  0  0  0  0  0
   -4.1487   -5.1504   -5.8153 O   0  0  0  0  0  0  0  0  0  0  0  0
   -2.4059   -5.1626   -4.1391 C   0  0  0  0  0  0  0  0  0  0  0  0
   -1.5664   -4.5364   -3.2553 C   0  0  0  0  0  0  0  0  0  0  0  0
   -2.5597   -1.8650   -0.6307 N   0  0  0  0  0  0  0  0  0  0  0  0
   -2.9708   -0.5415   -0.8851 C   0  0  0  0  0  0  0  0  0  0  0  0
   -2.0456    0.2491   -1.2764 O   0  0  0  0  0  0  0  0  0  0  0  0
   -4.3069   -0.0019   -0.7520 C   0  0  1  0  0  0  0  0  0  0  0  0
   -5.1059   -0.2818    0.4517 C   0  0  0  0  0  0  0  0  0  0  0  0
   -4.6132    0.1320    1.7478 C   0  0  0  0  0  0  0  0  0  0  0  0
   -3.8870   -0.7204    2.5419 C   0  0  0  0  0  0  0  0  0  0  0  0
   -3.3982   -0.3535    3.7804 C   0  0  0  0  0  0  0  0  0  0  0  0
   -3.6359    0.9006    4.2514 C   0  0  0  0  0  0  0  0  0  0  0  0
   -4.3582    1.7867    3.4902 C   0  0  0  0  0  0  0  0  0  0  0  0
   -4.8320    1.3925    2.2604 C   0  0  0  0  0  0  0  0  0  0  0  0
   -4.2587    1.4337   -1.0761 N   0  0  0  0  0  0  0  0  0  0  0  0
   -4.8766    2.0320   -2.1627 C   0  0  0  0  0  0  0  0  0  0  0  0
   -5.5415    1.3367   -2.9602 O   0  0  0  0  0  0  0  0  0  0  0  0
   -4.7725    3.4565   -2.4011 C   0  0  0  0  0  0  0  0  0  0  0  0
   -5.5841    4.0947   -3.3511 C   0  0  0  0  0  0  0  0  0  0  0  0
   -5.4884    5.4432   -3.5834 C   0  0  0  0  0  0  0  0  0  0  0  0
   -4.6054    6.2500   -2.9128 C   0  0  0  0  0  0  0  0  0  0  0  0
   -4.5032    7.6194   -3.1433 O   0  0  0  0  0  0  0  0  0  0  0  0
   -3.7864    5.6361   -1.9618 C   0  0  0  0  0  0  0  0  0  0  0  0
   -3.8884    4.2773   -1.7331 C   0  0  0  0  0  0  0  0  0  0  0  0
    6.4698    0.2223    0.6244 C   0  0  0  0  0  0  0  0  0  0  0  0
    7.5781    0.5986   -0.3494 C   0  0  0  0  0  0  0  0  0  0  0  0
    6.4330   -1.3124    0.5895 C   0  0  0  0  0  0  0  0  0  0  0  0
    5.5617    4.8797    0.4915 H   0  0  0  0  0  0  0  0  0  0  0  0
    4.3321    5.0020    1.7749 H   0  0  0  0  0  0  0  0  0  0  0  0
    3.7897    4.5047    0.1203 H   0  0  0  0  0  0  0  0  0  0  0  0
    3.9246    2.7513    1.9298 H   0  0  0  0  0  0  0  0  0  0  0  0
    6.1099    4.0119    2.7373 H   0  0  0  0  0  0  0  0  0  0  0  0
    5.8793    2.2137    2.9825 H   0  0  0  0  0  0  0  0  0  0  0  0
    6.9697    2.9124    1.6488 H   0  0  0  0  0  0  0  0  0  0  0  0
    5.7674    2.6057   -0.5295 H   0  0  0  0  0  0  0  0  0  0  0  0
    4.0106    2.3888   -0.5476 H   0  0  0  0  0  0  0  0  0  0  0  0
    4.9836    0.2976   -0.8559 H   0  0  0  0  0  0  0  0  0  0  0  0
    4.0476    0.1589    2.0009 H   0  0  0  0  0  0  0  0  0  0  0  0
    1.4580   -0.6018    1.7100 H   0  0  0  0  0  0  0  0  0  0  0  0
    3.3340   -1.8542    2.7192 H   0  0  0  0  0  0  0  0  0  0  0  0
    3.2239   -3.1160    1.4658 H   0  0  0  0  0  0  0  0  0  0  0  0
    0.8899   -3.6649    2.2804 H   0  0  0  0  0  0  0  0  0  0  0  0
    1.5603   -4.8946    4.2032 H   0  0  0  0  0  0  0  0  0  0  0  0
    3.0872   -4.7024    3.3032 H   0  0  0  0  0  0  0  0  0  0  0  0
    2.7568   -3.6735    4.7104 H   0  0  0  0  0  0  0  0  0  0  0  0
    0.6158   -1.2205    3.4476 H   0  0  0  0  0  0  0  0  0  0  0  0
    0.0306   -2.6962    4.2659 H   0  0  0  0  0  0  0  0  0  0  0  0
    1.5972   -2.0428    4.7687 H   0  0  0  0  0  0  0  0  0  0  0  0
    1.4392   -2.7971   -0.3626 H   0  0  0  0  0  0  0  0  0  0  0  0
   -1.2717   -3.4811   -0.4130 H   0  0  0  0  0  0  0  0  0  0  0  0
   -0.4404   -1.4752   -2.5767 H   0  0  0  0  0  0  0  0  0  0  0  0
    0.2492   -3.0490   -2.1705 H   0  0  0  0  0  0  0  0  0  0  0  0
   -2.5279   -1.3825   -3.8154 H   0  0  0  0  0  0  0  0  0  0  0  0
   -4.0424   -2.5492   -5.3982 H   0  0  0  0  0  0  0  0  0  0  0  0
   -4.1033   -6.1529   -5.8929 H   0  0  0  0  0  0  0  0  0  0  0  0
   -2.3691   -6.2504   -4.2363 H   0  0  0  0  0  0  0  0  0  0  0  0
   -0.8563   -5.0723   -2.6376 H   0  0  0  0  0  0  0  0  0  0  0  0
   -3.3163   -2.5098   -0.3104 H   0  0  0  0  0  0  0  0  0  0  0  0
   -4.8933   -0.4140   -1.6452 H   0  0  0  0  0  0  0  0  0  0  0  0
   -6.1184    0.2034    0.2738 H   0  0  0  0  0  0  0  0  0  0  0  0
   -5.3953   -1.3818    0.4490 H   0  0  0  0  0  0  0  0  0  0  0  0
   -3.6784   -1.7217    2.2025 H   0  0  0  0  0  0  0  0  0  0  0  0
   -2.8296   -1.0709    4.3637 H   0  0  0  0  0  0  0  0  0  0  0  0
   -3.2373    1.1660    5.2337 H   0  0  0  0  0  0  0  0  0  0  0  0
   -4.5380    2.7708    3.8713 H   0  0  0  0  0  0  0  0  0  0  0  0
   -5.4118    2.0987    1.6447 H   0  0  0  0  0  0  0  0  0  0  0  0
   -3.7026    2.0114   -0.4034 H   0  0  0  0  0  0  0  0  0  0  0  0
   -6.2845    3.4462   -3.8806 H   0  0  0  0  0  0  0  0  0  0  0  0
   -6.1317    5.8891   -4.3207 H   0  0  0  0  0  0  0  0  0  0  0  0
   -3.9008    8.0508   -3.8104 H   0  0  0  0  0  0  0  0  0  0  0  0
   -3.0693    6.2320   -1.4047 H   0  0  0  0  0  0  0  0  0  0  0  0
   -3.2256    3.8723   -0.9881 H   0  0  0  0  0  0  0  0  0  0  0  0
    6.8221    0.5400    1.6144 H   0  0  0  0  0  0  0  0  0  0  0  0
    7.4876    1.5906   -0.7788 H   0  0  0  0  0  0  0  0  0  0  0  0
    8.5633    0.5729    0.1914 H   0  0  0  0  0  0  0  0  0  0  0  0
    7.6930   -0.1461   -1.1672 H   0  0  0  0  0  0  0  0  0  0  0  0
    5.4644   -1.7109    0.8851 H   0  0  0  0  0  0  0  0  0  0  0  0
    7.2636   -1.6427    1.2699 H   0  0  0  0  0  0  0  0  0  0  0  0
    6.6845   -1.6765   -0.4332 H   0  0  0  0  0  0  0  0  0  0  0  0
  1  2  1  0
  2  3  1  0
  2  4  1  0
  4  5  1  0
  5  6  1  0
  6  7  1  0
  7  8  2  0
  7  9  1  0
  9 10  1  0
 10 11  1  0
 11 12  1  0
 11 13  1  0
  9 14  1  0
 14 15  1  0
 15 16  2  0
 15 17  1  0
 17 18  1  0
 18 19  1  0
 19 20  2  0
 20 21  1  0
 21 22  2  0
 22 23  1  0
 22 24  1  0
 24 25  2  0
 17 26  1  0
 26 27  1  0
 27 28  2  0
 27 29  1  0
 29 30  1  0
 30 31  1  0
 31 32  2  0
 32 33  1  0
 33 34  2  0
 34 35  1  0
 35 36  2  0
 29 37  1  0
 37 38  1  0
 38 39  2  0
 38 40  1  0
 40 41  2  0
 41 42  1  0
 42 43  2  0
 43 44  1  0
 43 45  1  0
 45 46  2  0
  5 47  1  0
 47 48  1  0
 47 49  1  0
 25 19  1  0
 36 31  1  0
 46 40  1  0
  1 50  1  0
  1 51  1  0
  1 52  1  0
  2 53  1  0
  3 54  1  0
  3 55  1  0
  3 56  1  0
  4 57  1  0
  4 58  1  0
  5 59  1  6
  6 60  1  0
  9 61  1  1
 10 62  1  0
 10 63  1  0
 11 64  1  0
 12 65  1  0
 12 66  1  0
 12 67  1  0
 13 68  1  0
 13 69  1  0
 13 70  1  0
 14 71  1  0
 17 72  1  1
 18 73  1  0
 18 74  1  0
 20 75  1  0
 21 76  1  0
 23 77  1  0
 24 78  1  0
 25 79  1  0
 26 80  1  0
 29 81  1  6
 30 82  1  0
 30 83  1  0
 32 84  1  0
 33 85  1  0
 34 86  1  0
 35 87  1  0
 36 88  1  0
 37 89  1  0
 41 90  1  0
 42 91  1  0
 44 92  1  0
 45 93  1  0
 46 94  1  0
 47 95  1  0
 48 96  1  0
 48 97  1  0
 48 98  1  0
 49 99  1  0
 49100  1  0
 49101  1  0
M  END
$$$$
[H]N=C(N([H])[H])N([H])C([H])([H])C([H])([H])C([H])([H])[C@@]([H])(C([H])=O)N([H])C(=O)[C@@]([H])(N([H])C(=O)[C@]([H])(N([H])C(=O)[C@@]([H])(N([H])[H])C([H])([H])[H])C([H])([H])C([H])(C([H])([H])[H])C([H])([H])[H])C([H])([H])c1c([H])n([H])c2c([H])c([H])c([H])c([H])c12
     RDKit          3D

 78 79  0  0  0  0  0  0  0  0999 V2000
   -6.8868   -1.6814   -1.5958 C   0  0  0  0  0  0  0  0  0  0  0  0
   -5.6805   -1.8566   -2.4772 C   0  0  2  0  0  0  0  0  0  0  0  0
   -5.9219   -2.9358   -3.4049 N   0  0  0  0  0  0  0  0  0  0  0  0
   -4.4675   -2.0956   -1.6630 C   0  0  0  0  0  0  0  0  0  0  0  0
   -3.8302   -3.1750   -1.8791 O   0  0  0  0  0  0  0  0  0  0  0  0
   -4.0524   -1.1554   -0.6975 N   0  0  0  0  0  0  0  0  0  0  0  0
   -2.8687   -1.3919    0.0817 C   0  0  2  0  0  0  0  0  0  0  0  0
   -2.9193   -1.0668    1.5173 C   0  0  0  0  0  0  0  0  0  0  0  0
   -3.9234   -1.7803    2.3540 C   0  0  0  0  0  0  0  0  0  0  0  0
   -5.3525   -1.5847    1.9761 C   0  0  0  0  0  0  0  0  0  0  0  0
   -3.6222   -3.2788    2.4244 C   0  0  0  0  0  0  0  0  0  0  0  0
   -1.7983   -0.5402   -0.5582 C   0  0  0  0  0  0  0  0  0  0  0  0
   -1.7668   -0.5053   -1.8220 O   0  0  0  0  0  0  0  0  0  0  0  0
   -0.8501    0.2049    0.1565 N   0  0  0  0  0  0  0  0  0  0  0  0
    0.1781    0.9977   -0.4872 C   0  0  1  0  0  0  0  0  0  0  0  0
   -0.2413    2.4300   -0.6209 C   0  0  0  0  0  0  0  0  0  0  0  0
   -0.6083    3.1400    0.5952 C   0  0  0  0  0  0  0  0  0  0  0  0
   -1.9433    3.2461    1.0754 C   0  0  0  0  0  0  0  0  0  0  0  0
   -1.9149    3.9049    2.2253 N   0  0  0  0  0  0  0  0  0  0  0  0
   -0.6276    4.2302    2.5103 C   0  0  0  0  0  0  0  0  0  0  0  0
   -0.0990    4.9116    3.5798 C   0  0  0  0  0  0  0  0  0  0  0  0
    1.2520    5.1288    3.6490 C   0  0  0  0  0  0  0  0  0  0  0  0
    2.1197    4.6847    2.6707 C   0  0  0  0  0  0  0  0  0  0  0  0
    1.5619    4.0031    1.6066 C   0  0  0  0  0  0  0  0  0  0  0  0
    0.2130    3.7603    1.4982 C   0  0  0  0  0  0  0  0  0  0  0  0
    1.5145    0.8149    0.0338 C   0  0  0  0  0  0  0  0  0  0  0  0
    1.7298    0.2840    1.1690 O   0  0  0  0  0  0  0  0  0  0  0  0
    2.7062    1.2061   -0.6789 N   0  0  0  0  0  0  0  0  0  0  0  0
    4.0150    1.0124   -0.1233 C   0  0  1  0  0  0  0  0  0  0  0  0
    4.6556   -0.2531   -0.6627 C   0  0  0  0  0  0  0  0  0  0  0  0
    4.8400   -0.2798   -2.1418 C   0  0  0  0  0  0  0  0  0  0  0  0
    5.4981   -1.6229   -2.4707 C   0  0  0  0  0  0  0  0  0  0  0  0
    6.7676   -1.7265   -1.8020 N   0  0  0  0  0  0  0  0  0  0  0  0
    7.5354   -2.8971   -1.9050 C   0  0  0  0  0  0  0  0  0  0  0  0
    8.3364   -3.3071   -0.8181 N   0  0  0  0  0  0  0  0  0  0  0  0
    7.5111   -3.5946   -2.9773 N   0  0  0  0  0  0  0  0  0  0  0  0
    4.9125    2.1706   -0.2157 C   0  0  0  0  0  0  0  0  0  0  0  0
    4.6175    3.2433   -0.7201 O   0  0  0  0  0  0  0  0  0  0  0  0
   -6.6554   -0.9049   -0.8091 H   0  0  0  0  0  0  0  0  0  0  0  0
   -6.9617   -2.6456   -1.0069 H   0  0  0  0  0  0  0  0  0  0  0  0
   -7.8027   -1.4423   -2.1400 H   0  0  0  0  0  0  0  0  0  0  0  0
   -5.5641   -0.9320   -3.0963 H   0  0  0  0  0  0  0  0  0  0  0  0
   -6.0326   -3.8464   -2.9526 H   0  0  0  0  0  0  0  0  0  0  0  0
   -6.5718   -2.7027   -4.1588 H   0  0  0  0  0  0  0  0  0  0  0  0
   -4.6191   -0.2912   -0.5610 H   0  0  0  0  0  0  0  0  0  0  0  0
   -2.5085   -2.4412   -0.1280 H   0  0  0  0  0  0  0  0  0  0  0  0
   -2.9633    0.0360    1.6247 H   0  0  0  0  0  0  0  0  0  0  0  0
   -1.9117   -1.3641    1.9512 H   0  0  0  0  0  0  0  0  0  0  0  0
   -3.7916   -1.4006    3.3995 H   0  0  0  0  0  0  0  0  0  0  0  0
   -5.5967   -0.5340    1.7819 H   0  0  0  0  0  0  0  0  0  0  0  0
   -5.7100   -2.3016    1.2170 H   0  0  0  0  0  0  0  0  0  0  0  0
   -5.9496   -1.8550    2.9047 H   0  0  0  0  0  0  0  0  0  0  0  0
   -3.8394   -3.7295    1.4316 H   0  0  0  0  0  0  0  0  0  0  0  0
   -2.5570   -3.3836    2.7057 H   0  0  0  0  0  0  0  0  0  0  0  0
   -4.2423   -3.6902    3.2415 H   0  0  0  0  0  0  0  0  0  0  0  0
   -0.8970    0.1859    1.2096 H   0  0  0  0  0  0  0  0  0  0  0  0
    0.1704    0.6110   -1.5654 H   0  0  0  0  0  0  0  0  0  0  0  0
   -1.1111    2.5003   -1.3389 H   0  0  0  0  0  0  0  0  0  0  0  0
    0.5712    3.0129   -1.1395 H   0  0  0  0  0  0  0  0  0  0  0  0
   -2.7959    2.8428    0.5518 H   0  0  0  0  0  0  0  0  0  0  0  0
   -2.7300    4.1536    2.8464 H   0  0  0  0  0  0  0  0  0  0  0  0
   -0.7500    5.2866    4.3840 H   0  0  0  0  0  0  0  0  0  0  0  0
    1.6746    5.6602    4.4840 H   0  0  0  0  0  0  0  0  0  0  0  0
    3.1755    4.8395    2.6947 H   0  0  0  0  0  0  0  0  0  0  0  0
    2.2171    3.6745    0.8251 H   0  0  0  0  0  0  0  0  0  0  0  0
    2.5722    1.6324   -1.6097 H   0  0  0  0  0  0  0  0  0  0  0  0
    3.8381    0.8201    0.9886 H   0  0  0  0  0  0  0  0  0  0  0  0
    3.9467   -1.0864   -0.4099 H   0  0  0  0  0  0  0  0  0  0  0  0
    5.5952   -0.3928   -0.0969 H   0  0  0  0  0  0  0  0  0  0  0  0
    5.4946    0.5115   -2.5341 H   0  0  0  0  0  0  0  0  0  0  0  0
    3.8887   -0.2339   -2.6981 H   0  0  0  0  0  0  0  0  0  0  0  0
    4.8174   -2.4630   -2.1859 H   0  0  0  0  0  0  0  0  0  0  0  0
    5.6911   -1.7226   -3.5576 H   0  0  0  0  0  0  0  0  0  0  0  0
    7.1622   -0.9320   -1.2216 H   0  0  0  0  0  0  0  0  0  0  0  0
    7.9293   -3.7476    0.0579 H   0  0  0  0  0  0  0  0  0  0  0  0
    9.3493   -3.1697   -0.8868 H   0  0  0  0  0  0  0  0  0  0  0  0
    6.9371   -3.3253   -3.7873 H   0  0  0  0  0  0  0  0  0  0  0  0
    5.9412    2.1260    0.1827 H   0  0  0  0  0  0  0  0  0  0  0  0
  1  2  1  0
  2  3  1  0
  2  4  1  0
  4  5  2  0
  4  6  1  0
  6  7  1  0
  7  8  1  0
  8  9  1  0
  9 10  1  0
  9 11  1  0
  7 12  1  0
 12 13  2  0
 12 14  1  0
 14 15  1  0
 15 16  1  0
 16 17  1  0
 17 18  2  0
 18 19  1  0
 19 20  1  0
 20 21  2  0
 21 22  1  0
 22 23  2  0
 23 24  1  0
 24 25  2  0
 15 26  1  0
 26 27  2  0
 26 28  1  0
 28 29  1  0
 29 30  1  0
 30 31  1  0
 31 32  1  0
 32 33  1  0
 33 34  1  0
 34 35  1  0
 34 36  2  3
 29 37  1  0
 37 38  2  0
 25 17  1  0
 25 20  1  0
  1 39  1  0
  1 40  1  0
  1 41  1  0
  2 42  1  6
  3 43  1  0
  3 44  1  0
  6 45  1  0
  7 46  1  1
  8 47  1  0
  8 48  1  0
  9 49  1  0
 10 50  1  0
 10 51  1  0
 10 52  1  0
 11 53  1  0
 11 54  1  0
 11 55  1  0
 14 56  1  0
 15 57  1  6
 16 58  1  0
 16 59  1  0
 18 60  1  0
 19 61  1  0
 21 62  1  0
 22 63  1  0
 23 64  1  0
 24 65  1  0
 28 66  1  0
 29 67  1  1
 30 68  1  0
 30 69  1  0
 31 70  1  0
 31 71  1  0
 32 72  1  0
 32 73  1  0
 33 74  1  0
 35 75  1  0
 35 76  1  0
 36 77  1  0
 37 78  1  0
M  END
$$$$
[H]Oc1c([H])c([H])c(C(=O)C2([H])N(C(=O)[C@@]3([H])Oc4c([H])c([H])c(F)c([H])c4C(=O)N(c4c([H])c([H])c(F)c([H])c4[H])C3([H])[H])C([H])([H])C2(C([H])([H])[H])C([H])([H])[H])c([H])c1[H]
     RDKit          3D

 61 65  0  0  0  0  0  0  0  0999 V2000
   -2.9492   -1.7615    2.3093 C   0  0  0  0  0  0  0  0  0  0  0  0
   -2.8221   -1.4284    0.8259 C   0  0  0  0  0  0  0  0  0  0  0  0
   -3.9091   -2.0388   -0.0251 C   0  0  0  0  0  0  0  0  0  0  0  0
   -1.4316   -1.6711    0.3399 C   0  0  0  0  0  0  0  0  0  0  0  0
   -1.0837   -0.3097    0.6562 N   0  0  0  0  0  0  0  0  0  0  0  0
   -2.5173    0.0176    0.6070 C   0  0  0  0  0  0  0  0  0  0  0  0
   -2.8816    0.6034   -0.6939 C   0  0  0  0  0  0  0  0  0  0  0  0
   -2.0882    0.6517   -1.6741 O   0  0  0  0  0  0  0  0  0  0  0  0
   -4.2176    1.1625   -0.8838 C   0  0  0  0  0  0  0  0  0  0  0  0
   -4.5868    1.6979   -2.0992 C   0  0  0  0  0  0  0  0  0  0  0  0
   -5.8351    2.2312   -2.2749 C   0  0  0  0  0  0  0  0  0  0  0  0
   -6.7611    2.2499   -1.2454 C   0  0  0  0  0  0  0  0  0  0  0  0
   -8.0221    2.7817   -1.4000 O   0  0  0  0  0  0  0  0  0  0  0  0
   -6.3683    1.7107   -0.0465 C   0  0  0  0  0  0  0  0  0  0  0  0
   -5.1251    1.1639    0.1772 C   0  0  0  0  0  0  0  0  0  0  0  0
    0.0505    0.4951    0.9114 C   0  0  0  0  0  0  0  0  0  0  0  0
   -0.1138    1.7229    1.1720 O   0  0  0  0  0  0  0  0  0  0  0  0
    1.4203   -0.0473    0.8835 C   0  0  2  0  0  0  0  0  0  0  0  0
    2.1846    0.7414   -0.1562 C   0  0  0  0  0  0  0  0  0  0  0  0
    3.6032    0.5168   -0.1006 N   0  0  0  0  0  0  0  0  0  0  0  0
    4.3071   -0.6982    0.0670 C   0  0  0  0  0  0  0  0  0  0  0  0
    5.5723   -0.6773    0.1271 O   0  0  0  0  0  0  0  0  0  0  0  0
    3.7190   -2.0542    0.1864 C   0  0  0  0  0  0  0  0  0  0  0  0
    4.6340   -3.0735    0.0504 C   0  0  0  0  0  0  0  0  0  0  0  0
    4.2333   -4.3980    0.1357 C   0  0  0  0  0  0  0  0  0  0  0  0
    5.1062   -5.4252    0.0057 F   0  0  0  0  0  0  0  0  0  0  0  0
    2.9106   -4.7126    0.3584 C   0  0  0  0  0  0  0  0  0  0  0  0
    1.9993   -3.6725    0.4939 C   0  0  0  0  0  0  0  0  0  0  0  0
    2.3900   -2.3568    0.4103 C   0  0  0  0  0  0  0  0  0  0  0  0
    1.3552   -1.4229    0.5681 O   0  0  0  0  0  0  0  0  0  0  0  0
    4.4012    1.6701   -0.2315 C   0  0  0  0  0  0  0  0  0  0  0  0
    4.6476    2.5597    0.7911 C   0  0  0  0  0  0  0  0  0  0  0  0
    5.4401    3.6784    0.6069 C   0  0  0  0  0  0  0  0  0  0  0  0
    6.0179    3.9499   -0.6129 C   0  0  0  0  0  0  0  0  0  0  0  0
    6.8023    5.0504   -0.8123 F   0  0  0  0  0  0  0  0  0  0  0  0
    5.7799    3.0676   -1.6471 C   0  0  0  0  0  0  0  0  0  0  0  0
    4.9791    1.9407   -1.4533 C   0  0  0  0  0  0  0  0  0  0  0  0
   -3.6944   -2.5672    2.4730 H   0  0  0  0  0  0  0  0  0  0  0  0
   -3.3413   -0.8586    2.8078 H   0  0  0  0  0  0  0  0  0  0  0  0
   -1.9589   -1.9837    2.7447 H   0  0  0  0  0  0  0  0  0  0  0  0
   -3.9828   -1.5069   -0.9910 H   0  0  0  0  0  0  0  0  0  0  0  0
   -3.7546   -3.1347   -0.1654 H   0  0  0  0  0  0  0  0  0  0  0  0
   -4.8642   -1.9352    0.5095 H   0  0  0  0  0  0  0  0  0  0  0  0
   -1.3307   -1.9422   -0.7349 H   0  0  0  0  0  0  0  0  0  0  0  0
   -0.8485   -2.4091    0.9494 H   0  0  0  0  0  0  0  0  0  0  0  0
   -2.7557    0.6654    1.4790 H   0  0  0  0  0  0  0  0  0  0  0  0
   -3.8652    1.6819   -2.8955 H   0  0  0  0  0  0  0  0  0  0  0  0
   -6.1037    2.6429   -3.2289 H   0  0  0  0  0  0  0  0  0  0  0  0
   -8.1383    3.7581   -1.1918 H   0  0  0  0  0  0  0  0  0  0  0  0
   -7.0642    1.6974    0.8091 H   0  0  0  0  0  0  0  0  0  0  0  0
   -4.8307    0.7408    1.1349 H   0  0  0  0  0  0  0  0  0  0  0  0
    1.8915    0.1458    1.8662 H   0  0  0  0  0  0  0  0  0  0  0  0
    1.7522    0.5018   -1.1527 H   0  0  0  0  0  0  0  0  0  0  0  0
    1.9457    1.8097    0.0213 H   0  0  0  0  0  0  0  0  0  0  0  0
    5.6610   -2.8263   -0.1229 H   0  0  0  0  0  0  0  0  0  0  0  0
    2.5889   -5.7569    0.4266 H   0  0  0  0  0  0  0  0  0  0  0  0
    0.9767   -3.9134    0.6660 H   0  0  0  0  0  0  0  0  0  0  0  0
    4.1769    2.3265    1.7585 H   0  0  0  0  0  0  0  0  0  0  0  0
    5.6204    4.3625    1.4243 H   0  0  0  0  0  0  0  0  0  0  0  0
    6.2399    3.2912   -2.6005 H   0  0  0  0  0  0  0  0  0  0  0  0
    4.8388    1.2946   -2.3138 H   0  0  0  0  0  0  0  0  0  0  0  0
  1  2  1  0
  2  3  1  0
  2  4  1  0
  4  5  1  0
  5  6  1  0
  6  7  1  0
  7  8  2  0
  7  9  1  0
  9 10  2  0
 10 11  1  0
 11 12  2  0
 12 13  1  0
 12 14  1  0
 14 15  2  0
  5 16  1  0
 16 17  2  0
 16 18  1  0
 18 19  1  0
 19 20  1  0
 20 21  1  0
 21 22  2  0
 21 23  1  0
 23 24  2  0
 24 25  1  0
 25 26  1  0
 25 27  2  0
 27 28  1  0
 28 29  2  0
 29 30  1  0
 20 31  1  0
 31 32  2  0
 32 33  1  0
 33 34  2  0
 34 35  1  0
 34 36  1  0
 36 37  2  0
  6  2  1  0
 15  9  1  0
 30 18  1  0
 37 31  1  0
 29 23  1  0
  1 38  1  0
  1 39  1  0
  1 40  1  0
  3 41  1  0
  3 42  1  0
  3 43  1  0
  4 44  1  0
  4 45  1  0
  6 46  1  0
 10 47  1  0
 11 48  1  0
 13 49  1  0
 14 50  1  0
 15 51  1  0
 18 52  1  1
 19 53  1  0
 19 54  1  0
 24 55  1  0
 27 56  1  0
 28 57  1  0
 32 58  1  0
 33 59  1  0
 36 60  1  0
 37 61  1  0
M  END
$$$$
[H]OC(=O)C([H])(Oc1c(Br)c([H])c(-c2c([H])c([H])c(-c3c(C([H])([H])c4c([H])c([H])c([H])c([H])c4[H])oc4c([H])c([H])c([H])c([H])c34)c([H])c2[H])c([H])c1Br)C([H])([H])c1c([H])c([H])c([H])c([H])c1[H]
     RDKit          3D

 68 73  0  0  0  0  0  0  0  0999 V2000
    6.7380    0.9469    3.4400 O   0  0  0  0  0  0  0  0  0  0  0  0
    5.7598    0.9104    2.4045 C   0  0  0  0  0  0  0  0  0  0  0  0
    5.0157    1.8729    2.3637 O   0  0  0  0  0  0  0  0  0  0  0  0
    5.7452   -0.2614    1.5053 C   0  0  0  0  0  0  0  0  0  0  0  0
    7.1662   -0.7112    1.3445 C   0  0  0  0  0  0  0  0  0  0  0  0
    7.2288   -1.8897    0.4774 C   0  0  0  0  0  0  0  0  0  0  0  0
    7.1865   -3.1663    1.0533 C   0  0  0  0  0  0  0  0  0  0  0  0
    7.2443   -4.2904    0.2624 C   0  0  0  0  0  0  0  0  0  0  0  0
    7.3424   -4.1312   -1.0874 C   0  0  0  0  0  0  0  0  0  0  0  0
    7.3848   -2.8733   -1.6712 C   0  0  0  0  0  0  0  0  0  0  0  0
    7.3273   -1.7638   -0.8765 C   0  0  0  0  0  0  0  0  0  0  0  0
    5.0164   -0.2458    0.3561 O   0  0  0  0  0  0  0  0  0  0  0  0
    3.7080    0.0239    0.1619 C   0  0  0  0  0  0  0  0  0  0  0  0
    3.3276    1.2528   -0.3591 C   0  0  0  0  0  0  0  0  0  0  0  0
    4.6544    2.4690   -0.9889 Br  0  0  0  0  0  0  0  0  0  0  0  0
    1.9820    1.5376   -0.5398 C   0  0  0  0  0  0  0  0  0  0  0  0
    1.0146    0.6130   -0.2130 C   0  0  0  0  0  0  0  0  0  0  0  0
    1.3901   -0.6096    0.2996 C   0  0  0  0  0  0  0  0  0  0  0  0
    2.7325   -0.9269    0.4956 C   0  0  0  0  0  0  0  0  0  0  0  0
    3.2220   -2.6388    1.1815 Br  0  0  0  0  0  0  0  0  0  0  0  0
   -0.3873    0.9294   -0.3881 C   0  0  0  0  0  0  0  0  0  0  0  0
   -0.9394    2.1675   -0.2410 C   0  0  0  0  0  0  0  0  0  0  0  0
   -2.2925    2.4190   -0.4319 C   0  0  0  0  0  0  0  0  0  0  0  0
   -3.1043    1.3679   -0.7850 C   0  0  0  0  0  0  0  0  0  0  0  0
   -2.5768    0.0987   -0.9426 C   0  0  0  0  0  0  0  0  0  0  0  0
   -1.2324   -0.1241   -0.7474 C   0  0  0  0  0  0  0  0  0  0  0  0
   -4.5245    1.6205   -1.0009 C   0  0  0  0  0  0  0  0  0  0  0  0
   -5.5582    1.7764   -0.1251 C   0  0  0  0  0  0  0  0  0  0  0  0
   -5.4938    1.7287    1.3445 C   0  0  0  0  0  0  0  0  0  0  0  0
   -5.4071    0.3626    1.9078 C   0  0  0  0  0  0  0  0  0  0  0  0
   -4.2387   -0.1067    2.4450 C   0  0  0  0  0  0  0  0  0  0  0  0
   -4.1888   -1.3750    2.9576 C   0  0  0  0  0  0  0  0  0  0  0  0
   -5.2888   -2.1904    2.9450 C   0  0  0  0  0  0  0  0  0  0  0  0
   -6.4849   -1.7290    2.4021 C   0  0  0  0  0  0  0  0  0  0  0  0
   -6.5279   -0.4728    1.8963 C   0  0  0  0  0  0  0  0  0  0  0  0
   -6.6626    1.9862   -0.8516 O   0  0  0  0  0  0  0  0  0  0  0  0
   -6.3860    1.9723   -2.1283 C   0  0  0  0  0  0  0  0  0  0  0  0
   -7.1447    2.1345   -3.2726 C   0  0  0  0  0  0  0  0  0  0  0  0
   -6.5820    2.0727   -4.5406 C   0  0  0  0  0  0  0  0  0  0  0  0
   -5.2321    1.8430   -4.6829 C   0  0  0  0  0  0  0  0  0  0  0  0
   -4.4603    1.6785   -3.5521 C   0  0  0  0  0  0  0  0  0  0  0  0
   -5.0403    1.7445   -2.3038 C   0  0  0  0  0  0  0  0  0  0  0  0
    7.3048    1.8131    3.4811 H   0  0  0  0  0  0  0  0  0  0  0  0
    5.2349   -1.1045    2.1531 H   0  0  0  0  0  0  0  0  0  0  0  0
    7.8213    0.1077    0.9791 H   0  0  0  0  0  0  0  0  0  0  0  0
    7.5251   -1.0066    2.3756 H   0  0  0  0  0  0  0  0  0  0  0  0
    7.1085   -3.2417    2.1246 H   0  0  0  0  0  0  0  0  0  0  0  0
    7.2086   -5.2389    0.7847 H   0  0  0  0  0  0  0  0  0  0  0  0
    7.3877   -5.0134   -1.7063 H   0  0  0  0  0  0  0  0  0  0  0  0
    7.4623   -2.8265   -2.7307 H   0  0  0  0  0  0  0  0  0  0  0  0
    7.3567   -0.7791   -1.3197 H   0  0  0  0  0  0  0  0  0  0  0  0
    1.7413    2.5157   -0.9470 H   0  0  0  0  0  0  0  0  0  0  0  0
    0.6605   -1.3605    0.5655 H   0  0  0  0  0  0  0  0  0  0  0  0
   -0.2668    2.9916    0.0406 H   0  0  0  0  0  0  0  0  0  0  0  0
   -2.6160    3.4347   -0.2874 H   0  0  0  0  0  0  0  0  0  0  0  0
   -3.2639   -0.7096   -1.2239 H   0  0  0  0  0  0  0  0  0  0  0  0
   -0.8288   -1.1181   -0.8738 H   0  0  0  0  0  0  0  0  0  0  0  0
   -4.5942    2.2912    1.7351 H   0  0  0  0  0  0  0  0  0  0  0  0
   -6.3530    2.2981    1.8111 H   0  0  0  0  0  0  0  0  0  0  0  0
   -3.3430    0.5200    2.4668 H   0  0  0  0  0  0  0  0  0  0  0  0
   -3.2667   -1.7780    3.3972 H   0  0  0  0  0  0  0  0  0  0  0  0
   -5.3083   -3.2040    3.3378 H   0  0  0  0  0  0  0  0  0  0  0  0
   -7.3447   -2.3639    2.3859 H   0  0  0  0  0  0  0  0  0  0  0  0
   -7.4288   -0.0674    1.4646 H   0  0  0  0  0  0  0  0  0  0  0  0
   -8.2213    2.3163   -3.1241 H   0  0  0  0  0  0  0  0  0  0  0  0
   -7.2310    2.2087   -5.4198 H   0  0  0  0  0  0  0  0  0  0  0  0
   -4.7792    1.7940   -5.6874 H   0  0  0  0  0  0  0  0  0  0  0  0
   -3.3994    1.4984   -3.6573 H   0  0  0  0  0  0  0  0  0  0  0  0
  1  2  1  0
  2  3  2  0
  2  4  1  0
  4  5  1  0
  5  6  1  0
  6  7  2  0
  7  8  1  0
  8  9  2  0
  9 10  1  0
 10 11  2  0
  4 12  1  0
 12 13  1  0
 13 14  2  0
 14 15  1  0
 14 16  1  0
 16 17  2  0
 17 18  1  0
 18 19  2  0
 19 20  1  0
 17 21  1  0
 21 22  2  0
 22 23  1  0
 23 24  2  0
 24 25  1  0
 25 26  2  0
 24 27  1  0
 27 28  2  0
 28 29  1  0
 29 30  1  0
 30 31  2  0
 31 32  1  0
 32 33  2  0
 33 34  1  0
 34 35  2  0
 28 36  1  0
 36 37  1  0
 37 38  2  0
 38 39  1  0
 39 40  2  0
 40 41  1  0
 41 42  2  0
 11  6  1  0
 19 13  1  0
 26 21  1  0
 42 27  1  0
 35 30  1  0
 42 37  1  0
  1 43  1  0
  4 44  1  0
  5 45  1  0
  5 46  1  0
  7 47  1  0
  8 48  1  0
  9 49  1  0
 10 50  1  0
 11 51  1  0
 16 52  1  0
 18 53  1  0
 22 54  1  0
 23 55  1  0
 25 56  1  0
 26 57  1  0
 29 58  1  0
 29 59  1  0
 31 60  1  0
 32 61  1  0
 33 62  1  0
 34 63  1  0
 35 64  1  0
 38 65  1  0
 39 66  1  0
 40 67  1  0
 41 68  1  0
M  END
$$$$
[H]OC(=O)c1c([H])c([H])c(C(=O)N2C([H])([H])C([H])([H])N(c3c([H])c([H])c(Cl)c([H])c3[H])C([H])([H])C2([H])[H])c([H])c1[H]
     RDKit          3D

 41 43  0  0  0  0  0  0  0  0999 V2000
    6.8079   -2.0410    1.5653 O   0  0  0  0  0  0  0  0  0  0  0  0
    6.6080   -1.5634    0.2779 C   0  0  0  0  0  0  0  0  0  0  0  0
    7.5155   -1.6351   -0.5715 O   0  0  0  0  0  0  0  0  0  0  0  0
    5.3060   -0.9747   -0.0544 C   0  0  0  0  0  0  0  0  0  0  0  0
    5.0971   -0.5003   -1.3209 C   0  0  0  0  0  0  0  0  0  0  0  0
    3.9027    0.0521   -1.6661 C   0  0  0  0  0  0  0  0  0  0  0  0
    2.8469    0.1511   -0.7284 C   0  0  0  0  0  0  0  0  0  0  0  0
    3.0584   -0.3234    0.5369 C   0  0  0  0  0  0  0  0  0  0  0  0
    4.2953   -0.8845    0.8587 C   0  0  0  0  0  0  0  0  0  0  0  0
    1.6072    0.7585   -1.1366 C   0  0  0  0  0  0  0  0  0  0  0  0
    1.6556    1.2305   -2.3660 O   0  0  0  0  0  0  0  0  0  0  0  0
    0.3670    0.9667   -0.5442 N   0  0  0  0  0  0  0  0  0  0  0  0
   -0.6523    1.6768   -1.3545 C   0  0  0  0  0  0  0  0  0  0  0  0
   -1.8917    0.8136   -1.3875 C   0  0  0  0  0  0  0  0  0  0  0  0
   -2.3670    0.5931   -0.0060 N   0  0  0  0  0  0  0  0  0  0  0  0
   -1.4942    0.8532    1.0991 C   0  0  0  0  0  0  0  0  0  0  0  0
   -0.0314    0.5601    0.7504 C   0  0  0  0  0  0  0  0  0  0  0  0
   -3.6856    0.1245    0.1533 C   0  0  0  0  0  0  0  0  0  0  0  0
   -4.4789   -0.2270   -0.9487 C   0  0  0  0  0  0  0  0  0  0  0  0
   -5.7675   -0.6813   -0.8093 C   0  0  0  0  0  0  0  0  0  0  0  0
   -6.3221   -0.8049    0.4421 C   0  0  0  0  0  0  0  0  0  0  0  0
   -7.9628   -1.3810    0.6597 Cl  0  0  0  0  0  0  0  0  0  0  0  0
   -5.5821   -0.4713    1.5650 C   0  0  0  0  0  0  0  0  0  0  0  0
   -4.2923   -0.0186    1.3900 C   0  0  0  0  0  0  0  0  0  0  0  0
    7.1863   -1.4518    2.3031 H   0  0  0  0  0  0  0  0  0  0  0  0
    5.9216   -0.5786   -2.0501 H   0  0  0  0  0  0  0  0  0  0  0  0
    3.7459    0.4261   -2.6784 H   0  0  0  0  0  0  0  0  0  0  0  0
    2.3186   -0.2837    1.3238 H   0  0  0  0  0  0  0  0  0  0  0  0
    4.4451   -1.2565    1.8684 H   0  0  0  0  0  0  0  0  0  0  0  0
   -0.8875    2.6512   -0.9348 H   0  0  0  0  0  0  0  0  0  0  0  0
   -0.2862    1.7655   -2.3894 H   0  0  0  0  0  0  0  0  0  0  0  0
   -2.6373    1.3505   -2.0008 H   0  0  0  0  0  0  0  0  0  0  0  0
   -1.6916   -0.1641   -1.8232 H   0  0  0  0  0  0  0  0  0  0  0  0
   -1.7041    0.1745    1.9493 H   0  0  0  0  0  0  0  0  0  0  0  0
   -1.6107    1.8967    1.4478 H   0  0  0  0  0  0  0  0  0  0  0  0
    0.5564    1.0966    1.5126 H   0  0  0  0  0  0  0  0  0  0  0  0
    0.1592   -0.5267    0.8568 H   0  0  0  0  0  0  0  0  0  0  0  0
   -4.0286   -0.1264   -1.9413 H   0  0  0  0  0  0  0  0  0  0  0  0
   -6.3241   -0.9344   -1.6900 H   0  0  0  0  0  0  0  0  0  0  0  0
   -6.0102   -0.5641    2.5732 H   0  0  0  0  0  0  0  0  0  0  0  0
   -3.6924    0.2512    2.2506 H   0  0  0  0  0  0  0  0  0  0  0  0
  1  2  1  0
  2  3  2  0
  2  4  1  0
  4  5  2  0
  5  6  1  0
  6  7  2  0
  7  8  1  0
  8  9  2  0
  7 10  1  0
 10 11  2  0
 10 12  1  0
 12 13  1  0
 13 14  1  0
 14 15  1  0
 15 16  1  0
 16 17  1  0
 15 18  1  0
 18 19  2  0
 19 20  1  0
 20 21  2  0
 21 22  1  0
 21 23  1  0
 23 24  2  0
  9  4  1  0
 17 12  1  0
 24 18  1  0
  1 25  1  0
  5 26  1  0
  6 27  1  0
  8 28  1  0
  9 29  1  0
 13 30  1  0
 13 31  1  0
 14 32  1  0
 14 33  1  0
 16 34  1  0
 16 35  1  0
 17 36  1  0
 17 37  1  0
 19 38  1  0
 20 39  1  0
 23 40  1  0
 24 41  1  0
M  END
$$$$
[H]O[C@]1([H])[C@]([H])(c2c([H])c([H])c(C#N)c([H])c2[H])[C@]([H])(c2c([H])c([H])c(C#N)c([H])c2[H])[C@@]([H])(c2c([H])c([H])c(C(F)(F)F)c([H])c2[H])[C@@]1([H])O[H]
     RDKit          3D

 52 55  0  0  0  0  0  0  0  0999 V2000
    3.9416   -0.4802    1.7353 C   0  0  0  0  0  0  0  0  0  0  0  0
    4.9016    0.3911    1.2519 C   0  0  0  0  0  0  0  0  0  0  0  0
    6.1871    0.6406    1.9617 C   0  0  0  0  0  0  0  0  0  0  0  0
    6.0542    0.6132    3.3102 F   0  0  0  0  0  0  0  0  0  0  0  0
    6.6829    1.8550    1.5202 F   0  0  0  0  0  0  0  0  0  0  0  0
    7.0734   -0.3361    1.5531 F   0  0  0  0  0  0  0  0  0  0  0  0
    4.6281    1.0351    0.0657 C   0  0  0  0  0  0  0  0  0  0  0  0
    3.4518    0.8087   -0.5959 C   0  0  0  0  0  0  0  0  0  0  0  0
    2.4674   -0.0661   -0.1268 C   0  0  0  0  0  0  0  0  0  0  0  0
    1.2051   -0.2624   -0.8882 C   0  0  2  0  0  0  0  0  0  0  0  0
   -0.0284   -0.2650   -0.0518 C   0  0  1  0  0  0  0  0  0  0  0  0
   -0.7448    0.9761    0.1034 C   0  0  0  0  0  0  0  0  0  0  0  0
   -1.3504    1.3284    1.3194 C   0  0  0  0  0  0  0  0  0  0  0  0
   -2.0235    2.5094    1.5050 C   0  0  0  0  0  0  0  0  0  0  0  0
   -2.1007    3.3915    0.4433 C   0  0  0  0  0  0  0  0  0  0  0  0
   -2.8112    4.6170    0.6452 C   0  0  0  0  0  0  0  0  0  0  0  0
   -3.3785    5.6076    0.8108 N   0  0  0  0  0  0  0  0  0  0  0  0
   -1.5209    3.1018   -0.7837 C   0  0  0  0  0  0  0  0  0  0  0  0
   -0.8494    1.8833   -0.9184 C   0  0  0  0  0  0  0  0  0  0  0  0
   -0.7855   -1.4484   -0.5791 C   0  0  1  0  0  0  0  0  0  0  0  0
   -2.2270   -1.4229   -0.3890 C   0  0  0  0  0  0  0  0  0  0  0  0
   -3.1446   -0.7715   -1.1992 C   0  0  0  0  0  0  0  0  0  0  0  0
   -4.5099   -0.7731   -0.9719 C   0  0  0  0  0  0  0  0  0  0  0  0
   -5.0131   -1.4641    0.1180 C   0  0  0  0  0  0  0  0  0  0  0  0
   -6.4126   -1.5341    0.4284 C   0  0  0  0  0  0  0  0  0  0  0  0
   -7.5456   -1.5787    0.7006 N   0  0  0  0  0  0  0  0  0  0  0  0
   -4.1386   -2.1339    0.9592 C   0  0  0  0  0  0  0  0  0  0  0  0
   -2.8150   -2.0973    0.6902 C   0  0  0  0  0  0  0  0  0  0  0  0
   -0.2515   -1.8002   -1.9168 C   0  0  1  0  0  0  0  0  0  0  0  0
   -0.5603   -0.9842   -2.9540 O   0  0  0  0  0  0  0  0  0  0  0  0
    1.2565   -1.6151   -1.6279 C   0  0  2  0  0  0  0  0  0  0  0  0
    1.6661   -2.6282   -0.8059 O   0  0  0  0  0  0  0  0  0  0  0  0
    2.7557   -0.7055    1.0630 C   0  0  0  0  0  0  0  0  0  0  0  0
    4.1807   -0.9619    2.6727 H   0  0  0  0  0  0  0  0  0  0  0  0
    5.4043    1.7286   -0.3099 H   0  0  0  0  0  0  0  0  0  0  0  0
    3.2581    1.3328   -1.5270 H   0  0  0  0  0  0  0  0  0  0  0  0
    1.2260    0.4712   -1.7151 H   0  0  0  0  0  0  0  0  0  0  0  0
    0.3256   -0.5153    1.0098 H   0  0  0  0  0  0  0  0  0  0  0  0
   -1.2444    0.5864    2.1146 H   0  0  0  0  0  0  0  0  0  0  0  0
   -2.4851    2.7231    2.4697 H   0  0  0  0  0  0  0  0  0  0  0  0
   -1.5879    3.7871   -1.6201 H   0  0  0  0  0  0  0  0  0  0  0  0
   -0.4063    1.6360   -1.8496 H   0  0  0  0  0  0  0  0  0  0  0  0
   -0.3991   -2.3171    0.0612 H   0  0  0  0  0  0  0  0  0  0  0  0
   -2.7879   -0.2520   -2.0568 H   0  0  0  0  0  0  0  0  0  0  0  0
   -5.2099   -0.2595   -1.6098 H   0  0  0  0  0  0  0  0  0  0  0  0
   -4.5051   -2.6828    1.8162 H   0  0  0  0  0  0  0  0  0  0  0  0
   -2.1417   -2.6435    1.3846 H   0  0  0  0  0  0  0  0  0  0  0  0
   -0.4138   -2.8837   -2.1628 H   0  0  0  0  0  0  0  0  0  0  0  0
    0.1918   -0.4468   -3.3222 H   0  0  0  0  0  0  0  0  0  0  0  0
    1.8540   -1.5797   -2.5390 H   0  0  0  0  0  0  0  0  0  0  0  0
    2.6188   -2.7057   -0.7023 H   0  0  0  0  0  0  0  0  0  0  0  0
    2.0620   -1.4089    1.5103 H   0  0  0  0  0  0  0  0  0  0  0  0
  1  2  2  0
  2  3  1  0
  3  4  1  0
  3  5  1  0
  3  6  1  0
  2  7  1  0
  7  8  2  0
  8  9  1  0
  9 10  1  0
 10 11  1  0
 11 12  1  0
 12 13  2  0
 13 14  1  0
 14 15  2  0
 15 16  1  0
 16 17  3  0
 15 18  1  0
 18 19  2  0
 11 20  1  0
 20 21  1  0
 21 22  2  0
 22 23  1  0
 23 24  2  0
 24 25  1  0
 25 26  3  0
 24 27  1  0
 27 28  2  0
 20 29  1  0
 29 30  1  0
 29 31  1  0
 31 32  1  0
  9 33  2  0
 33  1  1  0
 31 10  1  0
 19 12  1  0
 28 21  1  0
  1 34  1  0
  7 35  1  0
  8 36  1  0
 10 37  1  6
 11 38  1  1
 13 39  1  0
 14 40  1  0
 18 41  1  0
 19 42  1  0
 20 43  1  1
 22 44  1  0
 23 45  1  0
 27 46  1  0
 28 47  1  0
 29 48  1  6
 30 49  1  0
 31 50  1  6
 32 51  1  0
 33 52  1  0
M  END
$$$$
[H]c1nc(N([H])c2c([H])c([H])c([H])c(-n3c([H])nc4c([H])c([H])c([H])c([H])c43)c2[H])nc(N([H])c2c([H])c([H])c([H])c([H])c2S(=O)(=O)N([H])[H])c1[H]
     RDKit          3D

 52 56  0  0  0  0  0  0  0  0999 V2000
   -6.2342    2.7067   -0.1087 N   0  0  0  0  0  0  0  0  0  0  0  0
   -6.4234    1.5870    1.1812 S   0  0  0  0  0  0  0  0  0  0  0  0
   -7.7223    1.8577    1.8392 O   0  0  0  0  0  0  0  0  0  0  0  0
   -5.3416    1.7621    2.2113 O   0  0  0  0  0  0  0  0  0  0  0  0
   -6.4169   -0.0700    0.5634 C   0  0  0  0  0  0  0  0  0  0  0  0
   -7.5939   -0.7871    0.5936 C   0  0  0  0  0  0  0  0  0  0  0  0
   -7.6847   -2.0659    0.0921 C   0  0  0  0  0  0  0  0  0  0  0  0
   -6.5488   -2.6244   -0.4534 C   0  0  0  0  0  0  0  0  0  0  0  0
   -5.3600   -1.9332   -0.4978 C   0  0  0  0  0  0  0  0  0  0  0  0
   -5.2662   -0.6532    0.0071 C   0  0  0  0  0  0  0  0  0  0  0  0
   -4.1210    0.1377   -0.0197 N   0  0  0  0  0  0  0  0  0  0  0  0
   -2.7493   -0.2087   -0.1110 C   0  0  0  0  0  0  0  0  0  0  0  0
   -2.2867   -1.4685    0.0789 C   0  0  0  0  0  0  0  0  0  0  0  0
   -0.9196   -1.7228   -0.1067 C   0  0  0  0  0  0  0  0  0  0  0  0
   -0.1380   -0.7034   -0.4611 N   0  0  0  0  0  0  0  0  0  0  0  0
   -0.5617    0.5418   -0.6523 C   0  0  0  0  0  0  0  0  0  0  0  0
    0.3208    1.5560   -1.0220 N   0  0  0  0  0  0  0  0  0  0  0  0
    1.6918    1.4135   -1.2133 C   0  0  0  0  0  0  0  0  0  0  0  0
    2.2758    2.3794   -2.0605 C   0  0  0  0  0  0  0  0  0  0  0  0
    3.6062    2.3844   -2.3258 C   0  0  0  0  0  0  0  0  0  0  0  0
    4.4227    1.4392   -1.7699 C   0  0  0  0  0  0  0  0  0  0  0  0
    3.8983    0.4832   -0.9414 C   0  0  0  0  0  0  0  0  0  0  0  0
    2.5412    0.4965   -0.6841 C   0  0  0  0  0  0  0  0  0  0  0  0
    4.7409   -0.5275   -0.3408 N   0  0  0  0  0  0  0  0  0  0  0  0
    4.5068   -1.8506   -0.3344 C   0  0  0  0  0  0  0  0  0  0  0  0
    5.5063   -2.4960    0.3182 N   0  0  0  0  0  0  0  0  0  0  0  0
    6.3975   -1.5712    0.7378 C   0  0  0  0  0  0  0  0  0  0  0  0
    7.5743   -1.7004    1.4380 C   0  0  0  0  0  0  0  0  0  0  0  0
    8.2912   -0.5641    1.7332 C   0  0  0  0  0  0  0  0  0  0  0  0
    7.8095    0.6698    1.3190 C   0  0  0  0  0  0  0  0  0  0  0  0
    6.6298    0.7633    0.6210 C   0  0  0  0  0  0  0  0  0  0  0  0
    5.9012   -0.3572    0.3173 C   0  0  0  0  0  0  0  0  0  0  0  0
   -1.8904    0.7804   -0.4713 N   0  0  0  0  0  0  0  0  0  0  0  0
   -5.3894    3.3039   -0.0419 H   0  0  0  0  0  0  0  0  0  0  0  0
   -6.1903    2.1770   -1.0016 H   0  0  0  0  0  0  0  0  0  0  0  0
   -8.4952   -0.3370    1.0282 H   0  0  0  0  0  0  0  0  0  0  0  0
   -8.6340   -2.6160    0.1291 H   0  0  0  0  0  0  0  0  0  0  0  0
   -6.5899   -3.6381   -0.8604 H   0  0  0  0  0  0  0  0  0  0  0  0
   -4.4940   -2.4075   -0.9919 H   0  0  0  0  0  0  0  0  0  0  0  0
   -4.2914    1.1970    0.0447 H   0  0  0  0  0  0  0  0  0  0  0  0
   -2.9217   -2.2923    0.4176 H   0  0  0  0  0  0  0  0  0  0  0  0
   -0.5872   -2.7379    0.0513 H   0  0  0  0  0  0  0  0  0  0  0  0
   -0.1150    2.5200   -1.1593 H   0  0  0  0  0  0  0  0  0  0  0  0
    1.6771    3.1534   -2.5295 H   0  0  0  0  0  0  0  0  0  0  0  0
    4.0436    3.1528   -2.9944 H   0  0  0  0  0  0  0  0  0  0  0  0
    5.4909    1.4342   -1.9765 H   0  0  0  0  0  0  0  0  0  0  0  0
    2.1659   -0.2634   -0.0101 H   0  0  0  0  0  0  0  0  0  0  0  0
    3.6495   -2.3318   -0.7822 H   0  0  0  0  0  0  0  0  0  0  0  0
    7.9699   -2.6455    1.7708 H   0  0  0  0  0  0  0  0  0  0  0  0
    9.2389   -0.6071    2.2904 H   0  0  0  0  0  0  0  0  0  0  0  0
    8.3807    1.5586    1.5560 H   0  0  0  0  0  0  0  0  0  0  0  0
    6.2362    1.7251    0.2876 H   0  0  0  0  0  0  0  0  0  0  0  0
  1  2  1  0
  2  3  2  0
  2  4  2  0
  2  5  1  0
  5  6  2  0
  6  7  1  0
  7  8  2  0
  8  9  1  0
  9 10  2  0
 10 11  1  0
 11 12  1  0
 12 13  2  0
 13 14  1  0
 14 15  2  0
 15 16  1  0
 16 17  1  0
 17 18  1  0
 18 19  2  0
 19 20  1  0
 20 21  2  0
 21 22  1  0
 22 23  2  0
 22 24  1  0
 24 25  1  0
 25 26  2  0
 26 27  1  0
 27 28  2  0
 28 29  1  0
 29 30  2  0
 30 31  1  0
 31 32  2  0
 16 33  2  0
 10  5  1  0
 33 12  1  0
 23 18  1  0
 32 24  1  0
 32 27  1  0
  1 34  1  0
  1 35  1  0
  6 36  1  0
  7 37  1  0
  8 38  1  0
  9 39  1  0
 11 40  1  0
 13 41  1  0
 14 42  1  0
 17 43  1  0
 19 44  1  0
 20 45  1  0
 21 46  1  0
 23 47  1  0
 25 48  1  0
 28 49  1  0
 29 50  1  0
 30 51  1  0
 31 52  1  0
M  END
$$$$
[H]ON([H])C(=O)[C@@]([H])(O[H])[C@]([H])(C(=O)N([H])[C@]([H])(C(=O)N([H])C([H])([H])[H])C([H])([H])c1c([H])c([H])c([H])c([H])c1[H])C([H])([H])C([H])(C([H])([H])[H])C([H])([H])[H]
     RDKit          3D

 53 53  0  0  0  0  0  0  0  0999 V2000
    3.4059   -0.6922   -3.2903 C   0  0  0  0  0  0  0  0  0  0  0  0
    3.0402   -0.0939   -2.0090 N   0  0  0  0  0  0  0  0  0  0  0  0
    1.9612   -0.5482   -1.2388 C   0  0  0  0  0  0  0  0  0  0  0  0
    1.2794   -1.5262   -1.7141 O   0  0  0  0  0  0  0  0  0  0  0  0
    1.5377   -0.0044    0.0590 C   0  0  2  0  0  0  0  0  0  0  0  0
    2.4600   -0.4170    1.1871 C   0  0  0  0  0  0  0  0  0  0  0  0
    3.8504   -0.0231    1.0680 C   0  0  0  0  0  0  0  0  0  0  0  0
    4.3260    1.2230    1.4757 C   0  0  0  0  0  0  0  0  0  0  0  0
    5.6387    1.5917    1.3984 C   0  0  0  0  0  0  0  0  0  0  0  0
    6.5715    0.7187    0.8988 C   0  0  0  0  0  0  0  0  0  0  0  0
    6.1378   -0.5276    0.4838 C   0  0  0  0  0  0  0  0  0  0  0  0
    4.8187   -0.8974    0.5618 C   0  0  0  0  0  0  0  0  0  0  0  0
    0.2305   -0.5767    0.4451 N   0  0  0  0  0  0  0  0  0  0  0  0
   -0.9010    0.2961    0.6988 C   0  0  0  0  0  0  0  0  0  0  0  0
   -0.6220    1.5044    0.5532 O   0  0  0  0  0  0  0  0  0  0  0  0
   -2.1976   -0.2912    1.0807 C   0  0  2  0  0  0  0  0  0  0  0  0
   -2.7647   -1.2051    0.0435 C   0  0  0  0  0  0  0  0  0  0  0  0
   -3.0338   -0.7258   -1.3064 C   0  0  0  0  0  0  0  0  0  0  0  0
   -4.0216    0.3959   -1.4437 C   0  0  0  0  0  0  0  0  0  0  0  0
   -3.6104   -1.8761   -2.1594 C   0  0  0  0  0  0  0  0  0  0  0  0
   -3.1044    0.4188    1.9768 C   0  0  2  0  0  0  0  0  0  0  0  0
   -4.2385   -0.4681    2.1179 O   0  0  0  0  0  0  0  0  0  0  0  0
   -3.5546    1.7680    1.7855 C   0  0  0  0  0  0  0  0  0  0  0  0
   -2.8027    2.7402    1.6246 O   0  0  0  0  0  0  0  0  0  0  0  0
   -4.9490    2.0631    1.7748 N   0  0  0  0  0  0  0  0  0  0  0  0
   -5.4571    3.3130    1.6025 O   0  0  0  0  0  0  0  0  0  0  0  0
    3.0443   -1.7524   -3.3204 H   0  0  0  0  0  0  0  0  0  0  0  0
    4.5009   -0.7428   -3.4247 H   0  0  0  0  0  0  0  0  0  0  0  0
    2.9377   -0.1832   -4.1430 H   0  0  0  0  0  0  0  0  0  0  0  0
    3.6335    0.7109   -1.7219 H   0  0  0  0  0  0  0  0  0  0  0  0
    1.4915    1.0799    0.0189 H   0  0  0  0  0  0  0  0  0  0  0  0
    2.0197   -0.0020    2.1385 H   0  0  0  0  0  0  0  0  0  0  0  0
    2.3849   -1.5396    1.2993 H   0  0  0  0  0  0  0  0  0  0  0  0
    3.5909    1.9320    1.8776 H   0  0  0  0  0  0  0  0  0  0  0  0
    5.9738    2.5727    1.7263 H   0  0  0  0  0  0  0  0  0  0  0  0
    7.6138    0.9858    0.8272 H   0  0  0  0  0  0  0  0  0  0  0  0
    6.8921   -1.2034    0.0915 H   0  0  0  0  0  0  0  0  0  0  0  0
    4.5201   -1.8878    0.2239 H   0  0  0  0  0  0  0  0  0  0  0  0
    0.0877   -1.5971    0.5438 H   0  0  0  0  0  0  0  0  0  0  0  0
   -1.7978   -1.1287    1.8348 H   0  0  0  0  0  0  0  0  0  0  0  0
   -3.7487   -1.5719    0.4752 H   0  0  0  0  0  0  0  0  0  0  0  0
   -2.1778   -2.1752   -0.0343 H   0  0  0  0  0  0  0  0  0  0  0  0
   -2.1372   -0.4127   -1.8913 H   0  0  0  0  0  0  0  0  0  0  0  0
   -3.5800    1.4012   -1.2960 H   0  0  0  0  0  0  0  0  0  0  0  0
   -4.7905    0.2594   -0.6569 H   0  0  0  0  0  0  0  0  0  0  0  0
   -4.5242    0.3934   -2.4432 H   0  0  0  0  0  0  0  0  0  0  0  0
   -3.9574   -1.4484   -3.1236 H   0  0  0  0  0  0  0  0  0  0  0  0
   -2.8662   -2.6762   -2.2714 H   0  0  0  0  0  0  0  0  0  0  0  0
   -4.5262   -2.1917   -1.6020 H   0  0  0  0  0  0  0  0  0  0  0  0
   -2.6807    0.3495    3.0484 H   0  0  0  0  0  0  0  0  0  0  0  0
   -4.7005   -0.1746    2.9297 H   0  0  0  0  0  0  0  0  0  0  0  0
   -5.6433    1.3082    1.9022 H   0  0  0  0  0  0  0  0  0  0  0  0
   -5.5610    3.5350    0.6431 H   0  0  0  0  0  0  0  0  0  0  0  0
  1  2  1  0
  2  3  1  0
  3  4  2  0
  3  5  1  0
  5  6  1  0
  6  7  1  0
  7  8  2  0
  8  9  1  0
  9 10  2  0
 10 11  1  0
 11 12  2  0
  5 13  1  0
 13 14  1  0
 14 15  2  0
 14 16  1  0
 16 17  1  0
 17 18  1  0
 18 19  1  0
 18 20  1  0
 16 21  1  0
 21 22  1  0
 21 23  1  0
 23 24  2  0
 23 25  1  0
 25 26  1  0
 12  7  1  0
  1 27  1  0
  1 28  1  0
  1 29  1  0
  2 30  1  0
  5 31  1  6
  6 32  1  0
  6 33  1  0
  8 34  1  0
  9 35  1  0
 10 36  1  0
 11 37  1  0
 12 38  1  0
 13 39  1  0
 16 40  1  1
 17 41  1  0
 17 42  1  0
 18 43  1  0
 19 44  1  0
 19 45  1  0
 19 46  1  0
 20 47  1  0
 20 48  1  0
 20 49  1  0
 21 50  1  1
 22 51  1  0
 25 52  1  0
 26 53  1  0
M  END
$$$$
[H]OC([H])([H])[C@]1([H])O[C@]([H])(C([H])([H])O[H])[C@]([H])(O[H])[C@]([H])(O[H])[C@]1([H])O[H]
     RDKit          3D

 27 27  0  0  0  0  0  0  0  0999 V2000
   -2.5813    0.9241    1.3959 O   0  0  0  0  0  0  0  0  0  0  0  0
   -2.2918    1.3574    0.1123 C   0  0  0  0  0  0  0  0  0  0  0  0
   -1.0816    0.6480   -0.4572 C   0  0  1  0  0  0  0  0  0  0  0  0
   -0.0117    0.9200    0.3689 O   0  0  0  0  0  0  0  0  0  0  0  0
    1.1608    0.5989   -0.2889 C   0  0  1  0  0  0  0  0  0  0  0  0
    2.3264    0.9613    0.6076 C   0  0  0  0  0  0  0  0  0  0  0  0
    2.2644    2.3291    0.8639 O   0  0  0  0  0  0  0  0  0  0  0  0
    1.2076   -0.8514   -0.7037 C   0  0  1  0  0  0  0  0  0  0  0  0
    2.3472   -1.4659   -0.1924 O   0  0  0  0  0  0  0  0  0  0  0  0
   -0.0001   -1.5931   -0.1966 C   0  0  1  0  0  0  0  0  0  0  0  0
    0.1136   -1.8543    1.1605 O   0  0  0  0  0  0  0  0  0  0  0  0
   -1.2844   -0.8485   -0.5052 C   0  0  1  0  0  0  0  0  0  0  0  0
   -2.2495   -1.2252    0.4285 O   0  0  0  0  0  0  0  0  0  0  0  0
   -2.2005    1.5495    2.0831 H   0  0  0  0  0  0  0  0  0  0  0  0
   -2.0793    2.4461    0.0788 H   0  0  0  0  0  0  0  0  0  0  0  0
   -3.1729    1.1147   -0.5503 H   0  0  0  0  0  0  0  0  0  0  0  0
   -0.8551    1.0299   -1.4532 H   0  0  0  0  0  0  0  0  0  0  0  0
    1.2326    1.2594   -1.1858 H   0  0  0  0  0  0  0  0  0  0  0  0
    3.2949    0.6439    0.1979 H   0  0  0  0  0  0  0  0  0  0  0  0
    2.1289    0.4628    1.6020 H   0  0  0  0  0  0  0  0  0  0  0  0
    2.3219    2.8596    0.0261 H   0  0  0  0  0  0  0  0  0  0  0  0
    1.1853   -0.9363   -1.8282 H   0  0  0  0  0  0  0  0  0  0  0  0
    2.9272   -1.8386   -0.8765 H   0  0  0  0  0  0  0  0  0  0  0  0
   -0.0408   -2.5651   -0.7432 H   0  0  0  0  0  0  0  0  0  0  0  0
   -0.5241   -2.6036    1.3683 H   0  0  0  0  0  0  0  0  0  0  0  0
   -1.6231   -1.1582   -1.5179 H   0  0  0  0  0  0  0  0  0  0  0  0
   -2.5144   -2.1647    0.2052 H   0  0  0  0  0  0  0  0  0  0  0  0
  1  2  1  0
  2  3  1  0
  3  4  1  0
  4  5  1  0
  5  6  1  0
  6  7  1  0
  5  8  1  0
  8  9  1  0
  8 10  1  0
 10 11  1  0
 10 12  1  0
 12 13  1  0
 12  3  1  0
  1 14  1  0
  2 15  1  0
  2 16  1  0
  3 17  1  6
  5 18  1  6
  6 19  1  0
  6 20  1  0
  7 21  1  0
  8 22  1  6
  9 23  1  0
 10 24  1  6
 11 25  1  0
 12 26  1  6
 13 27  1  0
M  END
$$$$
[H]OC(=O)C([H])([H])[C@@]([H])(C(=O)N([H])[C@]([H])(C(=O)N([H])[H])C([H])([H])c1c([H])c([H])c(O[H])c([H])c1[H])N([H])C(=O)[C@@]([H])(N([H])C(=O)[C@]([H])(N([H])C(=O)[C@]([H])(N([H])C(=O)c1c([H])c([H])c(O[H])c([H])c1[H])C([H])([H])c1c([H])c([H])c(O[H])c([H])c1[H])C([H])([H])[H])C([H])([H])c1c([H])c([H])c(O[H])c([H])c1[H]
     RDKit          3D

103106  0  0  0  0  0  0  0  0999 V2000
   -2.2584   -1.3705    2.3368 C   0  0  0  0  0  0  0  0  0  0  0  0
   -2.4531   -0.9675    0.8959 C   0  0  1  0  0  0  0  0  0  0  0  0
   -3.6038   -0.1020    0.8065 N   0  0  0  0  0  0  0  0  0  0  0  0
   -4.8635   -0.4840    0.2815 C   0  0  0  0  0  0  0  0  0  0  0  0
   -5.0890   -1.6361   -0.1586 O   0  0  0  0  0  0  0  0  0  0  0  0
   -5.9897    0.5053    0.2406 C   0  0  1  0  0  0  0  0  0  0  0  0
   -5.5590    1.7384   -0.5199 C   0  0  0  0  0  0  0  0  0  0  0  0
   -6.6389    2.7529   -0.5899 C   0  0  0  0  0  0  0  0  0  0  0  0
   -7.4766    2.6818   -1.6880 C   0  0  0  0  0  0  0  0  0  0  0  0
   -8.5105    3.5840   -1.8227 C   0  0  0  0  0  0  0  0  0  0  0  0
   -8.7503    4.5756   -0.8906 C   0  0  0  0  0  0  0  0  0  0  0  0
   -9.7987    5.4887   -1.0286 O   0  0  0  0  0  0  0  0  0  0  0  0
   -7.8841    4.6037    0.1900 C   0  0  0  0  0  0  0  0  0  0  0  0
   -6.8386    3.7120    0.3511 C   0  0  0  0  0  0  0  0  0  0  0  0
   -7.1924   -0.1054   -0.2760 N   0  0  0  0  0  0  0  0  0  0  0  0
   -8.3753   -0.2047    0.4748 C   0  0  0  0  0  0  0  0  0  0  0  0
   -8.4120    0.2421    1.6352 O   0  0  0  0  0  0  0  0  0  0  0  0
   -9.5853   -0.8253   -0.0745 C   0  0  0  0  0  0  0  0  0  0  0  0
   -9.6202   -1.4120   -1.3134 C   0  0  0  0  0  0  0  0  0  0  0  0
  -10.7873   -1.9735   -1.8002 C   0  0  0  0  0  0  0  0  0  0  0  0
  -11.9584   -1.9726   -1.0758 C   0  0  0  0  0  0  0  0  0  0  0  0
  -13.1533   -2.5386   -1.5567 O   0  0  0  0  0  0  0  0  0  0  0  0
  -11.8985   -1.3776    0.1656 C   0  0  0  0  0  0  0  0  0  0  0  0
  -10.7595   -0.8147    0.6731 C   0  0  0  0  0  0  0  0  0  0  0  0
   -1.2675   -0.3749    0.2666 C   0  0  0  0  0  0  0  0  0  0  0  0
   -1.4013    0.6684   -0.4299 O   0  0  0  0  0  0  0  0  0  0  0  0
    0.0192   -0.9092    0.3985 N   0  0  0  0  0  0  0  0  0  0  0  0
    1.1888   -0.3416   -0.2406 C   0  0  1  0  0  0  0  0  0  0  0  0
    1.7693    0.6743    0.7600 C   0  0  0  0  0  0  0  0  0  0  0  0
    2.1725    0.0593    2.0326 C   0  0  0  0  0  0  0  0  0  0  0  0
    3.4413   -0.4207    2.1860 C   0  0  0  0  0  0  0  0  0  0  0  0
    3.8253   -1.0092    3.3609 C   0  0  0  0  0  0  0  0  0  0  0  0
    2.9624   -1.1511    4.4497 C   0  0  0  0  0  0  0  0  0  0  0  0
    3.3522   -1.7490    5.6414 O   0  0  0  0  0  0  0  0  0  0  0  0
    1.6949   -0.6514    4.2467 C   0  0  0  0  0  0  0  0  0  0  0  0
    1.2823   -0.0538    3.0742 C   0  0  0  0  0  0  0  0  0  0  0  0
    2.1955   -1.2972   -0.6622 C   0  0  0  0  0  0  0  0  0  0  0  0
    2.1448   -2.5034   -0.3397 O   0  0  0  0  0  0  0  0  0  0  0  0
    3.2768   -0.8744   -1.4654 N   0  0  0  0  0  0  0  0  0  0  0  0
    4.3521   -1.7245   -1.9265 C   0  0  1  0  0  0  0  0  0  0  0  0
    4.2073   -2.0771   -3.3907 C   0  0  0  0  0  0  0  0  0  0  0  0
    2.9709   -2.7943   -3.7186 C   0  0  0  0  0  0  0  0  0  0  0  0
    3.0275   -4.1277   -4.0747 O   0  0  0  0  0  0  0  0  0  0  0  0
    1.8665   -2.1965   -3.6759 O   0  0  0  0  0  0  0  0  0  0  0  0
    5.6175   -0.9859   -1.7192 C   0  0  0  0  0  0  0  0  0  0  0  0
    5.5825    0.2866   -1.9431 O   0  0  0  0  0  0  0  0  0  0  0  0
    6.8407   -1.5551   -1.2996 N   0  0  0  0  0  0  0  0  0  0  0  0
    8.0185   -0.6837   -1.1475 C   0  0  1  0  0  0  0  0  0  0  0  0
    8.0717   -0.1562    0.2593 C   0  0  0  0  0  0  0  0  0  0  0  0
    9.1794    0.7596    0.5569 C   0  0  0  0  0  0  0  0  0  0  0  0
   10.3763    0.4428    1.1429 C   0  0  0  0  0  0  0  0  0  0  0  0
   11.3661    1.4081    1.3823 C   0  0  0  0  0  0  0  0  0  0  0  0
   11.1698    2.7211    1.0335 C   0  0  0  0  0  0  0  0  0  0  0  0
   12.1610    3.6593    1.2776 O   0  0  0  0  0  0  0  0  0  0  0  0
    9.9584    3.0694    0.4342 C   0  0  0  0  0  0  0  0  0  0  0  0
    9.0023    2.1121    0.2082 C   0  0  0  0  0  0  0  0  0  0  0  0
    9.2213   -1.3305   -1.6474 C   0  0  0  0  0  0  0  0  0  0  0  0
   10.5014   -0.7441   -1.7375 N   0  0  0  0  0  0  0  0  0  0  0  0
    9.1463   -2.5423   -2.0535 O   0  0  0  0  0  0  0  0  0  0  0  0
   -2.2438   -0.5477    3.0505 H   0  0  0  0  0  0  0  0  0  0  0  0
   -1.2694   -1.8915    2.4017 H   0  0  0  0  0  0  0  0  0  0  0  0
   -3.0755   -2.0697    2.6396 H   0  0  0  0  0  0  0  0  0  0  0  0
   -2.7593   -1.9283    0.3803 H   0  0  0  0  0  0  0  0  0  0  0  0
   -3.5158    0.8985    1.1566 H   0  0  0  0  0  0  0  0  0  0  0  0
   -6.1832    0.8505    1.2843 H   0  0  0  0  0  0  0  0  0  0  0  0
   -4.7064    2.1886    0.0182 H   0  0  0  0  0  0  0  0  0  0  0  0
   -5.2036    1.4983   -1.5451 H   0  0  0  0  0  0  0  0  0  0  0  0
   -7.3365    1.9156   -2.4669 H   0  0  0  0  0  0  0  0  0  0  0  0
   -9.1757    3.5450   -2.6788 H   0  0  0  0  0  0  0  0  0  0  0  0
  -10.6771    5.2319   -0.6252 H   0  0  0  0  0  0  0  0  0  0  0  0
   -8.0791    5.3870    0.9263 H   0  0  0  0  0  0  0  0  0  0  0  0
   -6.2156    3.7950    1.2035 H   0  0  0  0  0  0  0  0  0  0  0  0
   -7.1691   -0.4835   -1.2451 H   0  0  0  0  0  0  0  0  0  0  0  0
   -8.7373   -1.4539   -1.9417 H   0  0  0  0  0  0  0  0  0  0  0  0
  -10.8058   -2.4333   -2.7801 H   0  0  0  0  0  0  0  0  0  0  0  0
  -13.9789   -2.5039   -0.9744 H   0  0  0  0  0  0  0  0  0  0  0  0
  -12.7978   -1.3596    0.7639 H   0  0  0  0  0  0  0  0  0  0  0  0
  -10.7234   -0.3476    1.6618 H   0  0  0  0  0  0  0  0  0  0  0  0
    0.1657   -1.7518    0.9752 H   0  0  0  0  0  0  0  0  0  0  0  0
    0.8501    0.2849   -1.0811 H   0  0  0  0  0  0  0  0  0  0  0  0
    0.9235    1.3855    0.9857 H   0  0  0  0  0  0  0  0  0  0  0  0
    2.5623    1.2379    0.2739 H   0  0  0  0  0  0  0  0  0  0  0  0
    4.1448   -0.3338    1.3824 H   0  0  0  0  0  0  0  0  0  0  0  0
    4.8359   -1.4110    3.5286 H   0  0  0  0  0  0  0  0  0  0  0  0
    3.1940   -2.7700    5.6722 H   0  0  0  0  0  0  0  0  0  0  0  0
    0.9796   -0.7395    5.0640 H   0  0  0  0  0  0  0  0  0  0  0  0
    0.2502    0.3335    2.9848 H   0  0  0  0  0  0  0  0  0  0  0  0
    3.3288    0.1401   -1.7709 H   0  0  0  0  0  0  0  0  0  0  0  0
    4.3848   -2.6750   -1.3847 H   0  0  0  0  0  0  0  0  0  0  0  0
    4.2592   -1.1940   -4.0596 H   0  0  0  0  0  0  0  0  0  0  0  0
    5.1033   -2.6978   -3.6706 H   0  0  0  0  0  0  0  0  0  0  0  0
    2.2625   -4.6178   -4.5625 H   0  0  0  0  0  0  0  0  0  0  0  0
    6.8890   -2.5687   -1.1060 H   0  0  0  0  0  0  0  0  0  0  0  0
    7.8119    0.2375   -1.7774 H   0  0  0  0  0  0  0  0  0  0  0  0
    7.1029    0.3291    0.5474 H   0  0  0  0  0  0  0  0  0  0  0  0
    8.1558   -1.0354    0.9551 H   0  0  0  0  0  0  0  0  0  0  0  0
   10.5582   -0.5742    1.4183 H   0  0  0  0  0  0  0  0  0  0  0  0
   12.3167    1.1358    1.8578 H   0  0  0  0  0  0  0  0  0  0  0  0
   12.8670    3.8526    0.5849 H   0  0  0  0  0  0  0  0  0  0  0  0
    9.8055    4.1198    0.1568 H   0  0  0  0  0  0  0  0  0  0  0  0
    8.0550    2.3846   -0.2623 H   0  0  0  0  0  0  0  0  0  0  0  0
   11.3121   -1.2541   -1.3207 H   0  0  0  0  0  0  0  0  0  0  0  0
   10.6970    0.1833   -2.2052 H   0  0  0  0  0  0  0  0  0  0  0  0
  1  2  1  0
  2  3  1  0
  3  4  1  0
  4  5  2  0
  4  6  1  0
  6  7  1  0
  7  8  1  0
  8  9  2  0
  9 10  1  0
 10 11  2  0
 11 12  1  0
 11 13  1  0
 13 14  2  0
  6 15  1  0
 15 16  1  0
 16 17  2  0
 16 18  1  0
 18 19  2  0
 19 20  1  0
 20 21  2  0
 21 22  1  0
 21 23  1  0
 23 24  2  0
  2 25  1  0
 25 26  2  0
 25 27  1  0
 27 28  1  0
 28 29  1  0
 29 30  1  0
 30 31  2  0
 31 32  1  0
 32 33  2  0
 33 34  1  0
 33 35  1  0
 35 36  2  0
 28 37  1  0
 37 38  2  0
 37 39  1  0
 39 40  1  0
 40 41  1  0
 41 42  1  0
 42 43  1  0
 42 44  2  0
 40 45  1  0
 45 46  2  0
 45 47  1  0
 47 48  1  0
 48 49  1  0
 49 50  1  0
 50 51  2  0
 51 52  1  0
 52 53  2  0
 53 54  1  0
 53 55  1  0
 55 56  2  0
 48 57  1  0
 57 58  1  0
 57 59  2  0
 14  8  1  0
 24 18  1  0
 36 30  1  0
 56 50  1  0
  1 60  1  0
  1 61  1  0
  1 62  1  0
  2 63  1  6
  3 64  1  0
  6 65  1  1
  7 66  1  0
  7 67  1  0
  9 68  1  0
 10 69  1  0
 12 70  1  0
 13 71  1  0
 14 72  1  0
 15 73  1  0
 19 74  1  0
 20 75  1  0
 22 76  1  0
 23 77  1  0
 24 78  1  0
 27 79  1  0
 28 80  1  6
 29 81  1  0
 29 82  1  0
 31 83  1  0
 32 84  1  0
 34 85  1  0
 35 86  1  0
 36 87  1  0
 39 88  1  0
 40 89  1  1
 41 90  1  0
 41 91  1  0
 43 92  1  0
 47 93  1  0
 48 94  1  6
 49 95  1  0
 49 96  1  0
 51 97  1  0
 52 98  1  0
 54 99  1  0
 55100  1  0
 56101  1  0
 58102  1  0
 58103  1  0
M  END
$$$$
[H]c1nc(N([H])c2c([H])c([H])c(N3C([H])([H])C([H])([H])N(c4c([H])c([H])c([H])c(C(F)(F)F)c4[H])C([H])([H])C3([H])[H])c([H])c2OC([H])([H])[H])nc(N([H])c2c([H])c([H])c([H])c([H])c2C(=O)N([H])[H])c1Cl
     RDKit          3D

 69 73  0  0  0  0  0  0  0  0999 V2000
   -0.6848   -2.9788   -2.1593 C   0  0  0  0  0  0  0  0  0  0  0  0
   -1.1953   -1.9245   -1.3678 O   0  0  0  0  0  0  0  0  0  0  0  0
   -0.3514   -0.9242   -0.9663 C   0  0  0  0  0  0  0  0  0  0  0  0
    0.9876   -0.8580   -1.2744 C   0  0  0  0  0  0  0  0  0  0  0  0
    1.8245    0.1493   -0.8727 C   0  0  0  0  0  0  0  0  0  0  0  0
    1.2332    1.1331   -0.1126 C   0  0  0  0  0  0  0  0  0  0  0  0
   -0.1200    1.1267    0.2342 C   0  0  0  0  0  0  0  0  0  0  0  0
   -0.9319    0.1112   -0.1825 C   0  0  0  0  0  0  0  0  0  0  0  0
   -2.3123    0.0043    0.0901 N   0  0  0  0  0  0  0  0  0  0  0  0
   -3.1643    1.0263    0.5064 C   0  0  0  0  0  0  0  0  0  0  0  0
   -2.8007    2.2997    0.7182 N   0  0  0  0  0  0  0  0  0  0  0  0
   -3.6339    3.3001    1.0036 C   0  0  0  0  0  0  0  0  0  0  0  0
   -4.9913    3.0283    1.0916 C   0  0  0  0  0  0  0  0  0  0  0  0
   -6.1287    4.2801    1.4536 Cl  0  0  0  0  0  0  0  0  0  0  0  0
   -5.4222    1.7181    0.8808 C   0  0  0  0  0  0  0  0  0  0  0  0
   -6.8218    1.4704    0.8507 N   0  0  0  0  0  0  0  0  0  0  0  0
   -7.4939    0.2544    0.7995 C   0  0  0  0  0  0  0  0  0  0  0  0
   -6.9396   -0.8496    1.4316 C   0  0  0  0  0  0  0  0  0  0  0  0
   -7.6177   -2.0578    1.5725 C   0  0  0  0  0  0  0  0  0  0  0  0
   -8.8966   -2.1594    1.0635 C   0  0  0  0  0  0  0  0  0  0  0  0
   -9.4421   -1.0518    0.4318 C   0  0  0  0  0  0  0  0  0  0  0  0
   -8.7671    0.1499    0.2887 C   0  0  0  0  0  0  0  0  0  0  0  0
   -9.4408    1.2059   -0.4617 C   0  0  0  0  0  0  0  0  0  0  0  0
  -10.7850    0.9750   -0.9306 N   0  0  0  0  0  0  0  0  0  0  0  0
   -8.9847    2.3210   -0.7599 O   0  0  0  0  0  0  0  0  0  0  0  0
   -4.5010    0.8008    0.6069 N   0  0  0  0  0  0  0  0  0  0  0  0
    3.1909    0.1595   -1.2293 N   0  0  0  0  0  0  0  0  0  0  0  0
    3.8625    1.4490   -1.4676 C   0  0  0  0  0  0  0  0  0  0  0  0
    5.0376    1.4864   -0.5268 C   0  0  0  0  0  0  0  0  0  0  0  0
    5.8548    0.2724   -0.6500 N   0  0  0  0  0  0  0  0  0  0  0  0
    5.4418   -0.6871   -1.6208 C   0  0  0  0  0  0  0  0  0  0  0  0
    3.9647   -1.0301   -1.3636 C   0  0  0  0  0  0  0  0  0  0  0  0
    6.9856    0.0904    0.1655 C   0  0  0  0  0  0  0  0  0  0  0  0
    7.3001    1.0596    1.0573 C   0  0  0  0  0  0  0  0  0  0  0  0
    8.3912    1.0160    1.9398 C   0  0  0  0  0  0  0  0  0  0  0  0
    9.1727   -0.1315    1.8388 C   0  0  0  0  0  0  0  0  0  0  0  0
    8.8836   -1.1067    0.9629 C   0  0  0  0  0  0  0  0  0  0  0  0
    7.7857   -1.0383    0.0927 C   0  0  0  0  0  0  0  0  0  0  0  0
    9.7567   -2.3153    0.8689 C   0  0  0  0  0  0  0  0  0  0  0  0
    9.1097   -3.3808    1.4551 F   0  0  0  0  0  0  0  0  0  0  0  0
    9.9169   -2.6439   -0.4799 F   0  0  0  0  0  0  0  0  0  0  0  0
   10.9599   -2.1206    1.4880 F   0  0  0  0  0  0  0  0  0  0  0  0
    0.1070   -3.4801   -1.6045 H   0  0  0  0  0  0  0  0  0  0  0  0
   -1.4984   -3.6582   -2.5156 H   0  0  0  0  0  0  0  0  0  0  0  0
   -0.2189   -2.5504   -3.1063 H   0  0  0  0  0  0  0  0  0  0  0  0
    1.4351   -1.6509   -1.8719 H   0  0  0  0  0  0  0  0  0  0  0  0
    1.8869    1.9539    0.2311 H   0  0  0  0  0  0  0  0  0  0  0  0
   -0.4753    1.9232    0.8464 H   0  0  0  0  0  0  0  0  0  0  0  0
   -2.7870   -0.9535   -0.0137 H   0  0  0  0  0  0  0  0  0  0  0  0
   -3.2945    4.2971    1.1741 H   0  0  0  0  0  0  0  0  0  0  0  0
   -7.4406    2.3430    0.8892 H   0  0  0  0  0  0  0  0  0  0  0  0
   -5.9302   -0.8426    1.8676 H   0  0  0  0  0  0  0  0  0  0  0  0
   -7.1491   -2.8817    2.0673 H   0  0  0  0  0  0  0  0  0  0  0  0
   -9.4847   -3.0735    1.1508 H   0  0  0  0  0  0  0  0  0  0  0  0
  -10.4371   -1.1468    0.0402 H   0  0  0  0  0  0  0  0  0  0  0  0
  -10.9012    1.0256   -1.9817 H   0  0  0  0  0  0  0  0  0  0  0  0
  -11.5615    0.7749   -0.3026 H   0  0  0  0  0  0  0  0  0  0  0  0
    3.1847    2.2799   -1.2290 H   0  0  0  0  0  0  0  0  0  0  0  0
    4.2014    1.4963   -2.5361 H   0  0  0  0  0  0  0  0  0  0  0  0
    5.6537    2.4013   -0.6629 H   0  0  0  0  0  0  0  0  0  0  0  0
    4.6495    1.5086    0.5046 H   0  0  0  0  0  0  0  0  0  0  0  0
    5.9950   -1.6241   -1.6733 H   0  0  0  0  0  0  0  0  0  0  0  0
    5.4127   -0.1724   -2.6308 H   0  0  0  0  0  0  0  0  0  0  0  0
    3.9228   -1.6376   -0.4256 H   0  0  0  0  0  0  0  0  0  0  0  0
    3.5921   -1.6904   -2.1739 H   0  0  0  0  0  0  0  0  0  0  0  0
    6.6664    1.9519    1.0890 H   0  0  0  0  0  0  0  0  0  0  0  0
    8.6040    1.7799    2.6265 H   0  0  0  0  0  0  0  0  0  0  0  0
   10.0379   -0.1764    2.5383 H   0  0  0  0  0  0  0  0  0  0  0  0
    7.5967   -1.8271   -0.5821 H   0  0  0  0  0  0  0  0  0  0  0  0
  1  2  1  0
  2  3  1  0
  3  4  2  0
  4  5  1  0
  5  6  2  0
  6  7  1  0
  7  8  2  0
  8  9  1  0
  9 10  1  0
 10 11  2  0
 11 12  1  0
 12 13  2  0
 13 14  1  0
 13 15  1  0
 15 16  1  0
 16 17  1  0
 17 18  2  0
 18 19  1  0
 19 20  2  0
 20 21  1  0
 21 22  2  0
 22 23  1  0
 23 24  1  0
 23 25  2  0
 15 26  2  0
  5 27  1  0
 27 28  1  0
 28 29  1  0
 29 30  1  0
 30 31  1  0
 31 32  1  0
 30 33  1  0
 33 34  2  0
 34 35  1  0
 35 36  2  0
 36 37  1  0
 37 38  2  0
 37 39  1  0
 39 40  1  0
 39 41  1  0
 39 42  1  0
  8  3  1  0
 26 10  1  0
 32 27  1  0
 38 33  1  0
 22 17  1  0
  1 43  1  0
  1 44  1  0
  1 45  1  0
  4 46  1  0
  6 47  1  0
  7 48  1  0
  9 49  1  0
 12 50  1  0
 16 51  1  0
 18 52  1  0
 19 53  1  0
 20 54  1  0
 21 55  1  0
 24 56  1  0
 24 57  1  0
 28 58  1  0
 28 59  1  0
 29 60  1  0
 29 61  1  0
 31 62  1  0
 31 63  1  0
 32 64  1  0
 32 65  1  0
 34 66  1  0
 35 67  1  0
 36 68  1  0
 38 69  1  0
M  END
$$$$
[H]OC(=O)[C@@]([H])(N([H])C(=O)[C@@]([H])(N([H])C(=O)[C@@]([H])(N([H])C(=O)[C@@]([H])(N([H])[H])C([H])([H])c1c([H])c([H])c(O[H])c([H])c1[H])C([H])([H])c1c([H])c([H])c(O[H])c([H])c1[H])C([H])([H])c1c([H])c([H])c(O[H])c([H])c1[H])[C@@]([H])(C([H])([H])[H])C([H])([H])C([H])([H])[H]
     RDKit          3D

 85 87  0  0  0  0  0  0  0  0999 V2000
    7.6271   -3.9581    0.8329 C   0  0  0  0  0  0  0  0  0  0  0  0
    6.1799   -4.1541    0.4528 C   0  0  0  0  0  0  0  0  0  0  0  0
    5.4867   -2.9596   -0.0442 C   0  0  2  0  0  0  0  0  0  0  0  0
    6.2121   -2.3879   -1.2720 C   0  0  0  0  0  0  0  0  0  0  0  0
    4.9784   -1.9126    0.8743 C   0  0  2  0  0  0  0  0  0  0  0  0
    4.3657   -0.8949   -0.0155 N   0  0  0  0  0  0  0  0  0  0  0  0
    3.0552   -0.4209    0.1203 C   0  0  0  0  0  0  0  0  0  0  0  0
    2.3827   -0.8719    1.1086 O   0  0  0  0  0  0  0  0  0  0  0  0
    2.4408    0.5131   -0.7826 C   0  0  2  0  0  0  0  0  0  0  0  0
    3.0852    1.7565   -1.2029 C   0  0  0  0  0  0  0  0  0  0  0  0
    3.4341    2.7693   -0.2083 C   0  0  0  0  0  0  0  0  0  0  0  0
    4.6846    2.7924    0.3563 C   0  0  0  0  0  0  0  0  0  0  0  0
    5.0213    3.7369    1.2768 C   0  0  0  0  0  0  0  0  0  0  0  0
    4.0910    4.6956    1.6558 C   0  0  0  0  0  0  0  0  0  0  0  0
    4.4610    5.6451    2.5956 O   0  0  0  0  0  0  0  0  0  0  0  0
    2.8349    4.6628    1.0800 C   0  0  0  0  0  0  0  0  0  0  0  0
    2.5015    3.7140    0.1574 C   0  0  0  0  0  0  0  0  0  0  0  0
    1.0620    0.8412   -0.3522 N   0  0  0  0  0  0  0  0  0  0  0  0
   -0.0604    0.1962   -0.9095 C   0  0  0  0  0  0  0  0  0  0  0  0
    0.1080   -0.6918   -1.7735 O   0  0  0  0  0  0  0  0  0  0  0  0
   -1.4723    0.5069   -0.5279 C   0  0  2  0  0  0  0  0  0  0  0  0
   -1.5952    0.8610    0.8939 C   0  0  0  0  0  0  0  0  0  0  0  0
   -2.9186    1.2037    1.3976 C   0  0  0  0  0  0  0  0  0  0  0  0
   -3.4503    2.4537    1.4477 C   0  0  0  0  0  0  0  0  0  0  0  0
   -4.7160    2.6841    1.9419 C   0  0  0  0  0  0  0  0  0  0  0  0
   -5.5150    1.6662    2.4129 C   0  0  0  0  0  0  0  0  0  0  0  0
   -6.7834    1.8627    2.9140 O   0  0  0  0  0  0  0  0  0  0  0  0
   -4.9890    0.3984    2.3677 C   0  0  0  0  0  0  0  0  0  0  0  0
   -3.7198    0.1699    1.8712 C   0  0  0  0  0  0  0  0  0  0  0  0
   -2.2786   -0.6251   -0.8893 N   0  0  0  0  0  0  0  0  0  0  0  0
   -3.0946   -0.7509   -2.0519 C   0  0  0  0  0  0  0  0  0  0  0  0
   -3.1007    0.2274   -2.8268 O   0  0  0  0  0  0  0  0  0  0  0  0
   -3.8845   -1.9588   -2.3297 C   0  0  1  0  0  0  0  0  0  0  0  0
   -3.7972   -2.9206   -1.2265 N   0  0  0  0  0  0  0  0  0  0  0  0
   -5.2536   -1.7698   -2.8543 C   0  0  0  0  0  0  0  0  0  0  0  0
   -6.1919   -1.0144   -2.0093 C   0  0  0  0  0  0  0  0  0  0  0  0
   -6.9313   -1.6355   -1.0139 C   0  0  0  0  0  0  0  0  0  0  0  0
   -7.8264   -0.9066   -0.2417 C   0  0  0  0  0  0  0  0  0  0  0  0
   -8.0310    0.4457   -0.4122 C   0  0  0  0  0  0  0  0  0  0  0  0
   -8.9283    1.1680    0.3630 O   0  0  0  0  0  0  0  0  0  0  0  0
   -7.2894    1.0551   -1.4066 C   0  0  0  0  0  0  0  0  0  0  0  0
   -6.4104    0.3388   -2.1649 C   0  0  0  0  0  0  0  0  0  0  0  0
    5.9123   -1.2619    1.7683 C   0  0  0  0  0  0  0  0  0  0  0  0
    6.4803   -1.9967    2.8485 O   0  0  0  0  0  0  0  0  0  0  0  0
    6.2988   -0.0842    1.7139 O   0  0  0  0  0  0  0  0  0  0  0  0
    8.2630   -4.6437    0.1753 H   0  0  0  0  0  0  0  0  0  0  0  0
    7.9896   -2.9203    0.6368 H   0  0  0  0  0  0  0  0  0  0  0  0
    7.8236   -4.3042    1.8551 H   0  0  0  0  0  0  0  0  0  0  0  0
    5.6866   -4.6388    1.3313 H   0  0  0  0  0  0  0  0  0  0  0  0
    6.1674   -4.9919   -0.3206 H   0  0  0  0  0  0  0  0  0  0  0  0
    4.5158   -3.3773   -0.5422 H   0  0  0  0  0  0  0  0  0  0  0  0
    6.8307   -3.1712   -1.7485 H   0  0  0  0  0  0  0  0  0  0  0  0
    5.4721   -2.0444   -2.0167 H   0  0  0  0  0  0  0  0  0  0  0  0
    6.8486   -1.5257   -0.9430 H   0  0  0  0  0  0  0  0  0  0  0  0
    4.0904   -2.2703    1.4831 H   0  0  0  0  0  0  0  0  0  0  0  0
    4.9721   -0.5322   -0.7686 H   0  0  0  0  0  0  0  0  0  0  0  0
    2.2959   -0.0954   -1.7710 H   0  0  0  0  0  0  0  0  0  0  0  0
    3.9916    1.5482   -1.8873 H   0  0  0  0  0  0  0  0  0  0  0  0
    2.4037    2.2936   -1.9466 H   0  0  0  0  0  0  0  0  0  0  0  0
    5.4504    2.0526    0.0676 H   0  0  0  0  0  0  0  0  0  0  0  0
    6.0276    3.7176    1.6960 H   0  0  0  0  0  0  0  0  0  0  0  0
    4.3029    5.4401    3.5850 H   0  0  0  0  0  0  0  0  0  0  0  0
    2.1107    5.4231    1.3876 H   0  0  0  0  0  0  0  0  0  0  0  0
    1.4970    3.7634   -0.2549 H   0  0  0  0  0  0  0  0  0  0  0  0
    0.9720    1.5647    0.3903 H   0  0  0  0  0  0  0  0  0  0  0  0
   -1.7335    1.3391   -1.2359 H   0  0  0  0  0  0  0  0  0  0  0  0
   -0.9104    1.7209    1.1707 H   0  0  0  0  0  0  0  0  0  0  0  0
   -1.2135   -0.0027    1.5047 H   0  0  0  0  0  0  0  0  0  0  0  0
   -2.8827    3.2796    1.0967 H   0  0  0  0  0  0  0  0  0  0  0  0
   -5.1445    3.6734    1.9859 H   0  0  0  0  0  0  0  0  0  0  0  0
   -6.8585    2.0438    3.9138 H   0  0  0  0  0  0  0  0  0  0  0  0
   -5.6213   -0.4126    2.7397 H   0  0  0  0  0  0  0  0  0  0  0  0
   -3.3772   -0.8611    1.8680 H   0  0  0  0  0  0  0  0  0  0  0  0
   -2.2628   -1.4468   -0.2223 H   0  0  0  0  0  0  0  0  0  0  0  0
   -3.3127   -2.4880   -3.1636 H   0  0  0  0  0  0  0  0  0  0  0  0
   -4.1559   -2.4044   -0.3761 H   0  0  0  0  0  0  0  0  0  0  0  0
   -2.8347   -3.2269   -1.0369 H   0  0  0  0  0  0  0  0  0  0  0  0
   -5.1508   -1.2923   -3.8674 H   0  0  0  0  0  0  0  0  0  0  0  0
   -5.6653   -2.7928   -3.1070 H   0  0  0  0  0  0  0  0  0  0  0  0
   -6.8287   -2.7063   -0.8138 H   0  0  0  0  0  0  0  0  0  0  0  0
   -8.3960   -1.3960    0.5279 H   0  0  0  0  0  0  0  0  0  0  0  0
   -9.9067    1.2899    0.1076 H   0  0  0  0  0  0  0  0  0  0  0  0
   -7.4773    2.1363   -1.5181 H   0  0  0  0  0  0  0  0  0  0  0  0
   -5.8645    0.8984   -2.9445 H   0  0  0  0  0  0  0  0  0  0  0  0
    7.4197   -1.8283    3.1741 H   0  0  0  0  0  0  0  0  0  0  0  0
  1  2  1  0
  2  3  1  0
  3  4  1  0
  3  5  1  0
  5  6  1  0
  6  7  1  0
  7  8  2  0
  7  9  1  0
  9 10  1  0
 10 11  1  0
 11 12  2  0
 12 13  1  0
 13 14  2  0
 14 15  1  0
 14 16  1  0
 16 17  2  0
  9 18  1  0
 18 19  1  0
 19 20  2  0
 19 21  1  0
 21 22  1  0
 22 23  1  0
 23 24  2  0
 24 25  1  0
 25 26  2  0
 26 27  1  0
 26 28  1  0
 28 29  2  0
 21 30  1  0
 30 31  1  0
 31 32  2  0
 31 33  1  0
 33 34  1  0
 33 35  1  0
 35 36  1  0
 36 37  2  0
 37 38  1  0
 38 39  2  0
 39 40  1  0
 39 41  1  0
 41 42  2  0
  5 43  1  0
 43 44  1  0
 43 45  2  0
 17 11  1  0
 29 23  1  0
 42 36  1  0
  1 46  1  0
  1 47  1  0
  1 48  1  0
  2 49  1  0
  2 50  1  0
  3 51  1  6
  4 52  1  0
  4 53  1  0
  4 54  1  0
  5 55  1  1
  6 56  1  0
  9 57  1  6
 10 58  1  0
 10 59  1  0
 12 60  1  0
 13 61  1  0
 15 62  1  0
 16 63  1  0
 17 64  1  0
 18 65  1  0
 21 66  1  6
 22 67  1  0
 22 68  1  0
 24 69  1  0
 25 70  1  0
 27 71  1  0
 28 72  1  0
 29 73  1  0
 30 74  1  0
 33 75  1  6
 34 76  1  0
 34 77  1  0
 35 78  1  0
 35 79  1  0
 37 80  1  0
 38 81  1  0
 40 82  1  0
 41 83  1  0
 42 84  1  0
 44 85  1  0
M  END
$$$$
[H]c1nc([H])c(N([H])c2nc(-c3c([H])c([H])c(N([H])C(=O)C([H])([H])[H])c([H])c3[H])c(C([H])([H])[H])c([H])c2[H])c(C(=O)N([H])[H])n1
     RDKit          3D

 45 47  0  0  0  0  0  0  0  0999 V2000
   -7.8616    1.3539   -1.6547 C   0  0  0  0  0  0  0  0  0  0  0  0
   -6.6564    0.5984   -1.1538 C   0  0  0  0  0  0  0  0  0  0  0  0
   -6.8283   -0.6086   -0.9398 O   0  0  0  0  0  0  0  0  0  0  0  0
   -5.4614    1.2711   -0.9659 N   0  0  0  0  0  0  0  0  0  0  0  0
   -4.2089    0.8048   -0.5146 C   0  0  0  0  0  0  0  0  0  0  0  0
   -3.1248    1.7022   -0.4073 C   0  0  0  0  0  0  0  0  0  0  0  0
   -1.8903    1.3012    0.0250 C   0  0  0  0  0  0  0  0  0  0  0  0
   -1.6640   -0.0360    0.3795 C   0  0  0  0  0  0  0  0  0  0  0  0
   -2.7149   -0.8796    0.2694 C   0  0  0  0  0  0  0  0  0  0  0  0
   -3.9924   -0.4979   -0.1705 C   0  0  0  0  0  0  0  0  0  0  0  0
   -0.3128   -0.3825    0.8077 C   0  0  0  0  0  0  0  0  0  0  0  0
    0.7636   -0.0140    0.0878 N   0  0  0  0  0  0  0  0  0  0  0  0
    2.0524   -0.3110    0.4664 C   0  0  0  0  0  0  0  0  0  0  0  0
    3.1303    0.0533   -0.3695 N   0  0  0  0  0  0  0  0  0  0  0  0
    4.4922    0.0652   -0.1595 C   0  0  0  0  0  0  0  0  0  0  0  0
    5.0177    0.3342    1.0885 C   0  0  0  0  0  0  0  0  0  0  0  0
    6.3582    0.4721    1.2648 N   0  0  0  0  0  0  0  0  0  0  0  0
    7.2160    0.3582    0.2620 C   0  0  0  0  0  0  0  0  0  0  0  0
    6.7273    0.0983   -0.9538 N   0  0  0  0  0  0  0  0  0  0  0  0
    5.3812   -0.0549   -1.2023 C   0  0  0  0  0  0  0  0  0  0  0  0
    5.0694   -0.3910   -2.5646 C   0  0  0  0  0  0  0  0  0  0  0  0
    6.0625   -0.4537   -3.5891 N   0  0  0  0  0  0  0  0  0  0  0  0
    3.8993   -0.6476   -2.9221 O   0  0  0  0  0  0  0  0  0  0  0  0
    2.2241   -1.0099    1.6211 C   0  0  0  0  0  0  0  0  0  0  0  0
    1.1429   -1.4270    2.4257 C   0  0  0  0  0  0  0  0  0  0  0  0
   -0.1257   -1.0816    1.9663 C   0  0  0  0  0  0  0  0  0  0  0  0
   -1.2716   -1.4887    2.8013 C   0  0  0  0  0  0  0  0  0  0  0  0
   -8.4604    1.7070   -0.8020 H   0  0  0  0  0  0  0  0  0  0  0  0
   -8.5040    0.7102   -2.2705 H   0  0  0  0  0  0  0  0  0  0  0  0
   -7.5687    2.2286   -2.2588 H   0  0  0  0  0  0  0  0  0  0  0  0
   -5.4901    2.3257   -1.2029 H   0  0  0  0  0  0  0  0  0  0  0  0
   -3.2771    2.7424   -0.6765 H   0  0  0  0  0  0  0  0  0  0  0  0
   -1.0726    2.0107    0.0988 H   0  0  0  0  0  0  0  0  0  0  0  0
   -2.5744   -1.9181    0.5257 H   0  0  0  0  0  0  0  0  0  0  0  0
   -4.7587   -1.2451   -0.2217 H   0  0  0  0  0  0  0  0  0  0  0  0
    2.8065    0.4226   -1.3327 H   0  0  0  0  0  0  0  0  0  0  0  0
    4.4472    0.4872    1.9913 H   0  0  0  0  0  0  0  0  0  0  0  0
    8.2912    0.4639    0.3717 H   0  0  0  0  0  0  0  0  0  0  0  0
    6.5690    0.4107   -3.8292 H   0  0  0  0  0  0  0  0  0  0  0  0
    6.2577   -1.3448   -4.0673 H   0  0  0  0  0  0  0  0  0  0  0  0
    3.2090   -1.3094    1.9468 H   0  0  0  0  0  0  0  0  0  0  0  0
    1.3129   -1.9797    3.3385 H   0  0  0  0  0  0  0  0  0  0  0  0
   -1.5817   -2.5339    2.5801 H   0  0  0  0  0  0  0  0  0  0  0  0
   -0.9345   -1.5475    3.8861 H   0  0  0  0  0  0  0  0  0  0  0  0
   -2.0955   -0.7595    2.8269 H   0  0  0  0  0  0  0  0  0  0  0  0
  1  2  1  0
  2  3  2  0
  2  4  1  0
  4  5  1  0
  5  6  2  0
  6  7  1  0
  7  8  2  0
  8  9  1  0
  9 10  2  0
  8 11  1  0
 11 12  2  0
 12 13  1  0
 13 14  1  0
 14 15  1  0
 15 16  2  0
 16 17  1  0
 17 18  2  0
 18 19  1  0
 19 20  2  0
 20 21  1  0
 21 22  1  0
 21 23  2  0
 13 24  2  0
 24 25  1  0
 25 26  2  0
 26 27  1  0
 10  5  1  0
 26 11  1  0
 20 15  1  0
  1 28  1  0
  1 29  1  0
  1 30  1  0
  4 31  1  0
  6 32  1  0
  7 33  1  0
  9 34  1  0
 10 35  1  0
 14 36  1  0
 16 37  1  0
 18 38  1  0
 22 39  1  0
 22 40  1  0
 24 41  1  0
 25 42  1  0
 27 43  1  0
 27 44  1  0
 27 45  1  0
M  END
$$$$
