[H]OC(=O)c1c([H])c([H])c(-c2nc(=O)c(C([H])([H])OC(=O)N([H])C([H])([H])C3([H])C([H])([H])C3([H])[H])c([H])n2-c2c([H])c([H])c([H])c(C([H])([H])OC([H])([H])[H])c2[H])c([H])c1[H]
     RDKit          3D

 59 62  0  0  0  0  0  0  0  0999 V2000
   -3.7924   -5.3247    2.0051 C   0  0  0  0  0  0  0  0  0  0  0  0
   -3.4647   -4.4937    0.8986 O   0  0  0  0  0  0  0  0  0  0  0  0
   -3.8445   -3.2270    1.3012 C   0  0  0  0  0  0  0  0  0  0  0  0
   -3.6372   -2.1548    0.3094 C   0  0  0  0  0  0  0  0  0  0  0  0
   -4.6887   -1.8262   -0.5332 C   0  0  0  0  0  0  0  0  0  0  0  0
   -4.5627   -0.8296   -1.4435 C   0  0  0  0  0  0  0  0  0  0  0  0
   -3.3522   -0.1277   -1.5295 C   0  0  0  0  0  0  0  0  0  0  0  0
   -2.2795   -0.4384   -0.6966 C   0  0  0  0  0  0  0  0  0  0  0  0
   -2.4423   -1.4453    0.2069 C   0  0  0  0  0  0  0  0  0  0  0  0
   -1.0731    0.2699   -0.8789 N   0  0  0  0  0  0  0  0  0  0  0  0
   -0.0656   -0.4994   -1.4825 C   0  0  0  0  0  0  0  0  0  0  0  0
    1.1099    0.0666   -1.8760 C   0  0  0  0  0  0  0  0  0  0  0  0
    2.1341   -0.7562   -2.5759 C   0  0  0  0  0  0  0  0  0  0  0  0
    3.4034   -0.6287   -2.0889 O   0  0  0  0  0  0  0  0  0  0  0  0
    3.9522   -0.7963   -0.8479 C   0  0  0  0  0  0  0  0  0  0  0  0
    3.1843   -1.1300    0.0714 O   0  0  0  0  0  0  0  0  0  0  0  0
    5.3288   -0.5947   -0.5962 N   0  0  0  0  0  0  0  0  0  0  0  0
    5.8742   -0.7304    0.7180 C   0  0  0  0  0  0  0  0  0  0  0  0
    7.3676   -0.4611    0.7376 C   0  0  0  0  0  0  0  0  0  0  0  0
    8.1931   -1.3655   -0.1042 C   0  0  0  0  0  0  0  0  0  0  0  0
    8.2436   -1.3931    1.4533 C   0  0  0  0  0  0  0  0  0  0  0  0
    1.2542    1.4028   -1.6544 C   0  0  0  0  0  0  0  0  0  0  0  0
    2.3455    1.9536   -2.0183 O   0  0  0  0  0  0  0  0  0  0  0  0
    0.2852    2.1017   -1.0778 N   0  0  0  0  0  0  0  0  0  0  0  0
   -0.9198    1.5626   -0.6626 C   0  0  0  0  0  0  0  0  0  0  0  0
   -1.8838    2.4527   -0.0690 C   0  0  0  0  0  0  0  0  0  0  0  0
   -1.7300    3.8074   -0.3774 C   0  0  0  0  0  0  0  0  0  0  0  0
   -2.5058    4.7675    0.1642 C   0  0  0  0  0  0  0  0  0  0  0  0
   -3.5000    4.4602    1.0575 C   0  0  0  0  0  0  0  0  0  0  0  0
   -3.6662    3.1398    1.3729 C   0  0  0  0  0  0  0  0  0  0  0  0
   -2.8551    2.1323    0.8085 C   0  0  0  0  0  0  0  0  0  0  0  0
   -4.3301    5.5213    1.6218 C   0  0  0  0  0  0  0  0  0  0  0  0
   -4.1602    6.8514    1.2823 O   0  0  0  0  0  0  0  0  0  0  0  0
   -5.2222    5.2077    2.4388 O   0  0  0  0  0  0  0  0  0  0  0  0
   -3.5434   -6.3725    1.8331 H   0  0  0  0  0  0  0  0  0  0  0  0
   -3.2804   -4.8844    2.8777 H   0  0  0  0  0  0  0  0  0  0  0  0
   -4.9044   -5.2833    2.1730 H   0  0  0  0  0  0  0  0  0  0  0  0
   -3.3559   -3.0170    2.2846 H   0  0  0  0  0  0  0  0  0  0  0  0
   -4.9368   -3.2984    1.5407 H   0  0  0  0  0  0  0  0  0  0  0  0
   -5.6278   -2.3915   -0.4463 H   0  0  0  0  0  0  0  0  0  0  0  0
   -5.3903   -0.5892   -2.0888 H   0  0  0  0  0  0  0  0  0  0  0  0
   -3.2866    0.6550   -2.2517 H   0  0  0  0  0  0  0  0  0  0  0  0
   -1.6250   -1.7252    0.8765 H   0  0  0  0  0  0  0  0  0  0  0  0
   -0.2435   -1.5568   -1.6320 H   0  0  0  0  0  0  0  0  0  0  0  0
    1.7411   -1.7779   -2.6732 H   0  0  0  0  0  0  0  0  0  0  0  0
    2.1367   -0.3559   -3.6381 H   0  0  0  0  0  0  0  0  0  0  0  0
    5.9456   -0.3422   -1.3890 H   0  0  0  0  0  0  0  0  0  0  0  0
    5.6576   -1.6944    1.1695 H   0  0  0  0  0  0  0  0  0  0  0  0
    5.3998    0.0577    1.3722 H   0  0  0  0  0  0  0  0  0  0  0  0
    7.6472    0.6282    0.6457 H   0  0  0  0  0  0  0  0  0  0  0  0
    9.0883   -0.9502   -0.6190 H   0  0  0  0  0  0  0  0  0  0  0  0
    7.7905   -2.2919   -0.5679 H   0  0  0  0  0  0  0  0  0  0  0  0
    7.7849   -2.2622    1.9493 H   0  0  0  0  0  0  0  0  0  0  0  0
    9.1839   -1.0609    1.9341 H   0  0  0  0  0  0  0  0  0  0  0  0
   -0.9409    4.1147   -1.0924 H   0  0  0  0  0  0  0  0  0  0  0  0
   -2.3586    5.8357   -0.0922 H   0  0  0  0  0  0  0  0  0  0  0  0
   -4.4303    2.8457    2.0640 H   0  0  0  0  0  0  0  0  0  0  0  0
   -3.0526    1.1499    1.1666 H   0  0  0  0  0  0  0  0  0  0  0  0
   -4.0990    7.0925    0.2809 H   0  0  0  0  0  0  0  0  0  0  0  0
  1  2  1  0
  2  3  1  0
  3  4  1  0
  4  5  2  0
  5  6  1  0
  6  7  2  0
  7  8  1  0
  8  9  2  0
  8 10  1  0
 10 11  1  0
 11 12  2  0
 12 13  1  0
 13 14  1  0
 14 15  1  0
 15 16  2  0
 15 17  1  0
 17 18  1  0
 18 19  1  0
 19 20  1  0
 20 21  1  0
 12 22  1  0
 22 23  2  0
 22 24  1  0
 24 25  2  0
 25 26  1  0
 26 27  2  0
 27 28  1  0
 28 29  2  0
 29 30  1  0
 30 31  2  0
 29 32  1  0
 32 33  1  0
 32 34  2  0
  9  4  1  0
 25 10  1  0
 31 26  1  0
 21 19  1  0
  1 35  1  0
  1 36  1  0
  1 37  1  0
  3 38  1  0
  3 39  1  0
  5 40  1  0
  6 41  1  0
  7 42  1  0
  9 43  1  0
 11 44  1  0
 13 45  1  0
 13 46  1  0
 17 47  1  0
 18 48  1  0
 18 49  1  0
 19 50  1  0
 20 51  1  0
 20 52  1  0
 21 53  1  0
 21 54  1  0
 27 55  1  0
 28 56  1  0
 30 57  1  0
 31 58  1  0
 33 59  1  0
M  END
$$$$
[H]c1nn(-c2c([H])c([H])c(Br)c([H])c2[H])c(C([H])([H])[H])c1C(=O)N([H])C([H])(N([H])C(=O)c1c([H])c([H])c2c([H])c([H])c([H])c([H])c2c1[H])C1([H])C([H])([H])C([H])([H])C([H])([H])C1([H])[H]
     RDKit          3D

 62 66  0  0  0  0  0  0  0  0999 V2000
   -3.5773    0.0051    0.2897 C   0  0  0  0  0  0  0  0  0  0  0  0
   -3.6069    0.6587   -1.0219 C   0  0  0  0  0  0  0  0  0  0  0  0
   -2.6746    0.5017   -2.0308 C   0  0  0  0  0  0  0  0  0  0  0  0
   -3.1021    1.2852   -3.1051 C   0  0  0  0  0  0  0  0  0  0  0  0
   -4.2353    1.8693   -2.7239 N   0  0  0  0  0  0  0  0  0  0  0  0
   -4.5356    1.5034   -1.4988 N   0  0  0  0  0  0  0  0  0  0  0  0
   -5.7089    1.9758   -0.8168 C   0  0  0  0  0  0  0  0  0  0  0  0
   -6.9577    1.8533   -1.3939 C   0  0  0  0  0  0  0  0  0  0  0  0
   -8.0659    2.3039   -0.7339 C   0  0  0  0  0  0  0  0  0  0  0  0
   -7.9316    2.8783    0.5046 C   0  0  0  0  0  0  0  0  0  0  0  0
   -9.4631    3.5173    1.4597 Br  0  0  0  0  0  0  0  0  0  0  0  0
   -6.6659    3.0017    1.0875 C   0  0  0  0  0  0  0  0  0  0  0  0
   -5.5506    2.5495    0.4254 C   0  0  0  0  0  0  0  0  0  0  0  0
   -1.4447   -0.2642   -2.0651 C   0  0  0  0  0  0  0  0  0  0  0  0
   -0.9094   -0.4439   -3.2152 O   0  0  0  0  0  0  0  0  0  0  0  0
   -0.7516   -0.8397   -1.0031 N   0  0  0  0  0  0  0  0  0  0  0  0
    0.4789   -1.5975   -1.1221 C   0  0  0  0  0  0  0  0  0  0  0  0
    1.6100   -0.8961   -0.4885 N   0  0  0  0  0  0  0  0  0  0  0  0
    2.7084   -0.4310   -1.2307 C   0  0  0  0  0  0  0  0  0  0  0  0
    2.7569   -0.6048   -2.4669 O   0  0  0  0  0  0  0  0  0  0  0  0
    3.8111    0.2584   -0.5889 C   0  0  0  0  0  0  0  0  0  0  0  0
    5.0442    0.3293   -1.2589 C   0  0  0  0  0  0  0  0  0  0  0  0
    6.0739    0.9906   -0.6395 C   0  0  0  0  0  0  0  0  0  0  0  0
    5.9409    1.5831    0.6081 C   0  0  0  0  0  0  0  0  0  0  0  0
    7.0158    2.2366    1.1896 C   0  0  0  0  0  0  0  0  0  0  0  0
    6.8327    2.8010    2.4224 C   0  0  0  0  0  0  0  0  0  0  0  0
    5.6358    2.7454    3.0992 C   0  0  0  0  0  0  0  0  0  0  0  0
    4.5849    2.0828    2.4837 C   0  0  0  0  0  0  0  0  0  0  0  0
    4.7237    1.4985    1.2407 C   0  0  0  0  0  0  0  0  0  0  0  0
    3.6632    0.8328    0.6323 C   0  0  0  0  0  0  0  0  0  0  0  0
    0.3661   -3.0034   -0.6514 C   0  0  0  0  0  0  0  0  0  0  0  0
    1.7095   -3.6771   -0.8275 C   0  0  0  0  0  0  0  0  0  0  0  0
    1.6673   -4.7719    0.2174 C   0  0  0  0  0  0  0  0  0  0  0  0
    1.1077   -4.0388    1.4140 C   0  0  0  0  0  0  0  0  0  0  0  0
    0.0283   -3.1723    0.7916 C   0  0  0  0  0  0  0  0  0  0  0  0
   -3.4434   -1.0973    0.2003 H   0  0  0  0  0  0  0  0  0  0  0  0
   -4.5933    0.1191    0.7572 H   0  0  0  0  0  0  0  0  0  0  0  0
   -2.8872    0.4578    1.0234 H   0  0  0  0  0  0  0  0  0  0  0  0
   -2.5958    1.3935   -4.0750 H   0  0  0  0  0  0  0  0  0  0  0  0
   -7.0326    1.3865   -2.3890 H   0  0  0  0  0  0  0  0  0  0  0  0
   -9.0548    2.1983   -1.2111 H   0  0  0  0  0  0  0  0  0  0  0  0
   -6.5454    3.4506    2.0599 H   0  0  0  0  0  0  0  0  0  0  0  0
   -4.5598    2.6415    0.8718 H   0  0  0  0  0  0  0  0  0  0  0  0
   -1.1112   -0.7310   -0.0331 H   0  0  0  0  0  0  0  0  0  0  0  0
    0.7181   -1.6278   -2.2031 H   0  0  0  0  0  0  0  0  0  0  0  0
    1.6141   -0.7349    0.5442 H   0  0  0  0  0  0  0  0  0  0  0  0
    5.1896   -0.1204   -2.2317 H   0  0  0  0  0  0  0  0  0  0  0  0
    7.0612    1.0719   -1.1241 H   0  0  0  0  0  0  0  0  0  0  0  0
    7.9570    2.3016    0.6991 H   0  0  0  0  0  0  0  0  0  0  0  0
    7.6556    3.3168    2.8982 H   0  0  0  0  0  0  0  0  0  0  0  0
    5.4815    3.1820    4.0641 H   0  0  0  0  0  0  0  0  0  0  0  0
    3.6321    2.0283    3.0029 H   0  0  0  0  0  0  0  0  0  0  0  0
    2.7056    0.7926    1.1709 H   0  0  0  0  0  0  0  0  0  0  0  0
   -0.3301   -3.5368   -1.3379 H   0  0  0  0  0  0  0  0  0  0  0  0
    2.5428   -3.0012   -0.5188 H   0  0  0  0  0  0  0  0  0  0  0  0
    1.8627   -4.1084   -1.8328 H   0  0  0  0  0  0  0  0  0  0  0  0
    0.9862   -5.5710   -0.0826 H   0  0  0  0  0  0  0  0  0  0  0  0
    2.6878   -5.1667    0.4262 H   0  0  0  0  0  0  0  0  0  0  0  0
    0.6560   -4.7458    2.1581 H   0  0  0  0  0  0  0  0  0  0  0  0
    1.8568   -3.4223    1.9337 H   0  0  0  0  0  0  0  0  0  0  0  0
   -0.9097   -3.7736    0.8547 H   0  0  0  0  0  0  0  0  0  0  0  0
   -0.1223   -2.2241    1.3387 H   0  0  0  0  0  0  0  0  0  0  0  0
  1  2  1  0
  2  3  2  0
  3  4  1  0
  4  5  2  0
  5  6  1  0
  6  7  1  0
  7  8  2  0
  8  9  1  0
  9 10  2  0
 10 11  1  0
 10 12  1  0
 12 13  2  0
  3 14  1  0
 14 15  2  0
 14 16  1  0
 16 17  1  0
 17 18  1  0
 18 19  1  0
 19 20  2  0
 19 21  1  0
 21 22  2  0
 22 23  1  0
 23 24  2  0
 24 25  1  0
 25 26  2  0
 26 27  1  0
 27 28  2  0
 28 29  1  0
 29 30  2  0
 17 31  1  0
 31 32  1  0
 32 33  1  0
 33 34  1  0
 34 35  1  0
  6  2  1  0
 13  7  1  0
 30 21  1  0
 35 31  1  0
 29 24  1  0
  1 36  1  0
  1 37  1  0
  1 38  1  0
  4 39  1  0
  8 40  1  0
  9 41  1  0
 12 42  1  0
 13 43  1  0
 16 44  1  0
 17 45  1  0
 18 46  1  0
 22 47  1  0
 23 48  1  0
 25 49  1  0
 26 50  1  0
 27 51  1  0
 28 52  1  0
 30 53  1  0
 31 54  1  0
 32 55  1  0
 32 56  1  0
 33 57  1  0
 33 58  1  0
 34 59  1  0
 34 60  1  0
 35 61  1  0
 35 62  1  0
M  END
$$$$
[H]OC(=O)c1c([H])c([H])c(N(C(=O)N2[C@@]([H])(C(C([H])([H])[H])(C([H])([H])[H])C([H])([H])[H])C([H])([H])[C@]([H])(O[H])[C@@]2([H])O[H])c2c([H])c([H])c(OC([H])([H])c3nc([H])c([H])c([H])c3[H])c([H])c2[H])c([H])c1[H]
     RDKit          3D

 68 71  0  0  0  0  0  0  0  0999 V2000
   -2.8421   -0.0197    2.6739 O   0  0  0  0  0  0  0  0  0  0  0  0
   -3.1161   -0.8355    1.6334 C   0  0  2  0  0  0  0  0  0  0  0  0
   -3.2454   -2.2909    2.1865 C   0  0  1  0  0  0  0  0  0  0  0  0
   -4.5505   -2.5453    2.5846 O   0  0  0  0  0  0  0  0  0  0  0  0
   -2.8083   -3.1105    1.0200 C   0  0  0  0  0  0  0  0  0  0  0  0
   -2.7809   -2.0971   -0.1398 C   0  0  1  0  0  0  0  0  0  0  0  0
   -2.1539   -0.9948    0.5791 N   0  0  0  0  0  0  0  0  0  0  0  0
   -1.0173   -0.2508    0.2693 C   0  0  0  0  0  0  0  0  0  0  0  0
   -0.2042   -0.8453   -0.6332 O   0  0  0  0  0  0  0  0  0  0  0  0
   -0.4588    0.9579    0.6195 N   0  0  0  0  0  0  0  0  0  0  0  0
    0.8980    1.2867    0.1295 C   0  0  0  0  0  0  0  0  0  0  0  0
    0.9845    2.3630   -0.7091 C   0  0  0  0  0  0  0  0  0  0  0  0
    2.2369    2.6842   -1.1830 C   0  0  0  0  0  0  0  0  0  0  0  0
    3.3681    1.9324   -0.8149 C   0  0  0  0  0  0  0  0  0  0  0  0
    4.5711    2.3227   -1.3315 O   0  0  0  0  0  0  0  0  0  0  0  0
    5.8286    1.7762   -1.1634 C   0  0  0  0  0  0  0  0  0  0  0  0
    5.8476    0.3871   -1.6953 C   0  0  0  0  0  0  0  0  0  0  0  0
    6.8014   -0.5242   -1.3535 C   0  0  0  0  0  0  0  0  0  0  0  0
    6.7839   -1.7950   -1.8828 C   0  0  0  0  0  0  0  0  0  0  0  0
    5.7689   -2.1373   -2.7796 C   0  0  0  0  0  0  0  0  0  0  0  0
    4.8301   -1.2015   -3.1003 C   0  0  0  0  0  0  0  0  0  0  0  0
    4.8763    0.0202   -2.5700 N   0  0  0  0  0  0  0  0  0  0  0  0
    3.2314    0.8571    0.0328 C   0  0  0  0  0  0  0  0  0  0  0  0
    1.9805    0.5407    0.5029 C   0  0  0  0  0  0  0  0  0  0  0  0
   -1.0115    2.0252    1.3161 C   0  0  0  0  0  0  0  0  0  0  0  0
   -2.1059    2.7400    0.7958 C   0  0  0  0  0  0  0  0  0  0  0  0
   -2.6422    3.8378    1.4250 C   0  0  0  0  0  0  0  0  0  0  0  0
   -2.1154    4.2886    2.6154 C   0  0  0  0  0  0  0  0  0  0  0  0
   -1.0459    3.6192    3.1583 C   0  0  0  0  0  0  0  0  0  0  0  0
   -0.5107    2.5183    2.5241 C   0  0  0  0  0  0  0  0  0  0  0  0
   -2.7050    5.4569    3.2628 C   0  0  0  0  0  0  0  0  0  0  0  0
   -3.7806    6.0954    2.6889 O   0  0  0  0  0  0  0  0  0  0  0  0
   -2.2421    5.8906    4.3422 O   0  0  0  0  0  0  0  0  0  0  0  0
   -2.2831   -2.7250   -1.3232 C   0  0  0  0  0  0  0  0  0  0  0  0
   -2.2256   -1.8253   -2.5734 C   0  0  0  0  0  0  0  0  0  0  0  0
   -3.4455   -3.7222   -1.7175 C   0  0  0  0  0  0  0  0  0  0  0  0
   -1.0924   -3.6292   -1.2603 C   0  0  0  0  0  0  0  0  0  0  0  0
   -3.3219   -0.3855    3.4834 H   0  0  0  0  0  0  0  0  0  0  0  0
   -4.0970   -0.6357    1.1329 H   0  0  0  0  0  0  0  0  0  0  0  0
   -2.5242   -2.3209    3.0366 H   0  0  0  0  0  0  0  0  0  0  0  0
   -4.5090   -2.7624    3.5686 H   0  0  0  0  0  0  0  0  0  0  0  0
   -3.5255   -3.9149    0.8106 H   0  0  0  0  0  0  0  0  0  0  0  0
   -1.7843   -3.4651    1.2363 H   0  0  0  0  0  0  0  0  0  0  0  0
   -3.8575   -1.7805   -0.3266 H   0  0  0  0  0  0  0  0  0  0  0  0
    0.1564    2.9794   -1.0300 H   0  0  0  0  0  0  0  0  0  0  0  0
    2.3698    3.5303   -1.8545 H   0  0  0  0  0  0  0  0  0  0  0  0
    6.2147    1.8304   -0.1226 H   0  0  0  0  0  0  0  0  0  0  0  0
    6.5464    2.4163   -1.7558 H   0  0  0  0  0  0  0  0  0  0  0  0
    7.5882   -0.2734   -0.6642 H   0  0  0  0  0  0  0  0  0  0  0  0
    7.5155   -2.5642   -1.6493 H   0  0  0  0  0  0  0  0  0  0  0  0
    5.7341   -3.1232   -3.2048 H   0  0  0  0  0  0  0  0  0  0  0  0
    4.0264   -1.4167   -3.7880 H   0  0  0  0  0  0  0  0  0  0  0  0
    4.1116    0.2623    0.3344 H   0  0  0  0  0  0  0  0  0  0  0  0
    1.8887   -0.3046    1.1663 H   0  0  0  0  0  0  0  0  0  0  0  0
   -2.5702    2.4358   -0.1433 H   0  0  0  0  0  0  0  0  0  0  0  0
   -3.5017    4.3474    0.9585 H   0  0  0  0  0  0  0  0  0  0  0  0
   -0.6561    4.0045    4.0988 H   0  0  0  0  0  0  0  0  0  0  0  0
    0.3201    2.0313    2.9855 H   0  0  0  0  0  0  0  0  0  0  0  0
   -3.7105    6.3880    1.7202 H   0  0  0  0  0  0  0  0  0  0  0  0
   -2.5094   -0.7761   -2.3311 H   0  0  0  0  0  0  0  0  0  0  0  0
   -2.9586   -2.1320   -3.3505 H   0  0  0  0  0  0  0  0  0  0  0  0
   -1.2380   -1.9074   -3.0823 H   0  0  0  0  0  0  0  0  0  0  0  0
   -4.4098   -3.2004   -1.5775 H   0  0  0  0  0  0  0  0  0  0  0  0
   -3.3363   -3.9890   -2.7794 H   0  0  0  0  0  0  0  0  0  0  0  0
   -3.3250   -4.6275   -1.0910 H   0  0  0  0  0  0  0  0  0  0  0  0
   -0.3929   -3.3273   -2.1010 H   0  0  0  0  0  0  0  0  0  0  0  0
   -1.3067   -4.7035   -1.5066 H   0  0  0  0  0  0  0  0  0  0  0  0
   -0.5612   -3.6659   -0.3031 H   0  0  0  0  0  0  0  0  0  0  0  0
  1  2  1  0
  2  3  1  0
  3  4  1  0
  3  5  1  0
  5  6  1  0
  6  7  1  0
  7  8  1  0
  8  9  2  0
  8 10  1  0
 10 11  1  0
 11 12  2  0
 12 13  1  0
 13 14  2  0
 14 15  1  0
 15 16  1  0
 16 17  1  0
 17 18  2  0
 18 19  1  0
 19 20  2  0
 20 21  1  0
 21 22  2  0
 14 23  1  0
 23 24  2  0
 10 25  1  0
 25 26  2  0
 26 27  1  0
 27 28  2  0
 28 29  1  0
 29 30  2  0
 28 31  1  0
 31 32  1  0
 31 33  2  0
  6 34  1  0
 34 35  1  0
 34 36  1  0
 34 37  1  0
  7  2  1  0
 24 11  1  0
 30 25  1  0
 22 17  1  0
  1 38  1  0
  2 39  1  6
  3 40  1  1
  4 41  1  0
  5 42  1  0
  5 43  1  0
  6 44  1  6
 12 45  1  0
 13 46  1  0
 16 47  1  0
 16 48  1  0
 18 49  1  0
 19 50  1  0
 20 51  1  0
 21 52  1  0
 23 53  1  0
 24 54  1  0
 26 55  1  0
 27 56  1  0
 29 57  1  0
 30 58  1  0
 32 59  1  0
 35 60  1  0
 35 61  1  0
 35 62  1  0
 36 63  1  0
 36 64  1  0
 36 65  1  0
 37 66  1  0
 37 67  1  0
 37 68  1  0
M  END
$$$$
[H]c1c([H])c(-c2noc(C([H])([H])[H])n2)c([H])c([H])c1C(=O)N([H])C(C([H])([H])[H])(C([H])([H])[H])C([H])([H])[H]
     RDKit          3D

 36 37  0  0  0  0  0  0  0  0999 V2000
    7.5200   -0.0446   -0.9426 C   0  0  0  0  0  0  0  0  0  0  0  0
    6.1748    0.0011   -0.2719 C   0  0  0  0  0  0  0  0  0  0  0  0
    4.9585   -0.0417   -0.8407 N   0  0  0  0  0  0  0  0  0  0  0  0
    4.0011    0.0254    0.1189 C   0  0  0  0  0  0  0  0  0  0  0  0
    4.7100    0.1100    1.2826 N   0  0  0  0  0  0  0  0  0  0  0  0
    5.9706    0.0931    1.0165 O   0  0  0  0  0  0  0  0  0  0  0  0
    2.5667    0.0126   -0.0244 C   0  0  0  0  0  0  0  0  0  0  0  0
    1.7679    0.0908    1.0839 C   0  0  0  0  0  0  0  0  0  0  0  0
    0.3688    0.0807    0.9767 C   0  0  0  0  0  0  0  0  0  0  0  0
   -0.2421   -0.0085   -0.2496 C   0  0  0  0  0  0  0  0  0  0  0  0
    0.5822   -0.0876   -1.3712 C   0  0  0  0  0  0  0  0  0  0  0  0
    1.9683   -0.0766   -1.2519 C   0  0  0  0  0  0  0  0  0  0  0  0
   -1.7019   -0.0235   -0.4208 C   0  0  0  0  0  0  0  0  0  0  0  0
   -2.2076   -0.1064   -1.5819 O   0  0  0  0  0  0  0  0  0  0  0  0
   -2.5933    0.0510    0.6599 N   0  0  0  0  0  0  0  0  0  0  0  0
   -4.0363    0.0370    0.5015 C   0  0  0  0  0  0  0  0  0  0  0  0
   -4.7054    0.1300    1.8392 C   0  0  0  0  0  0  0  0  0  0  0  0
   -4.3929   -1.2584   -0.2027 C   0  0  0  0  0  0  0  0  0  0  0  0
   -4.5003    1.1804   -0.3749 C   0  0  0  0  0  0  0  0  0  0  0  0
    7.9974    0.9356   -0.9756 H   0  0  0  0  0  0  0  0  0  0  0  0
    8.1606   -0.8260   -0.4434 H   0  0  0  0  0  0  0  0  0  0  0  0
    7.3437   -0.4236   -1.9720 H   0  0  0  0  0  0  0  0  0  0  0  0
    2.1570    0.1642    2.0958 H   0  0  0  0  0  0  0  0  0  0  0  0
   -0.2309    0.1442    1.8765 H   0  0  0  0  0  0  0  0  0  0  0  0
    0.0805   -0.1575   -2.3307 H   0  0  0  0  0  0  0  0  0  0  0  0
    2.5466   -0.1416   -2.1711 H   0  0  0  0  0  0  0  0  0  0  0  0
   -2.2173    0.1189    1.6129 H   0  0  0  0  0  0  0  0  0  0  0  0
   -5.4482    0.9667    1.8966 H   0  0  0  0  0  0  0  0  0  0  0  0
   -5.2519   -0.8366    2.0353 H   0  0  0  0  0  0  0  0  0  0  0  0
   -3.9719    0.2073    2.6879 H   0  0  0  0  0  0  0  0  0  0  0  0
   -3.6358   -2.0215    0.0682 H   0  0  0  0  0  0  0  0  0  0  0  0
   -5.4033   -1.5572    0.1916 H   0  0  0  0  0  0  0  0  0  0  0  0
   -4.4372   -1.1289   -1.3079 H   0  0  0  0  0  0  0  0  0  0  0  0
   -3.8763    2.0903   -0.2215 H   0  0  0  0  0  0  0  0  0  0  0  0
   -5.5727    1.3739   -0.1434 H   0  0  0  0  0  0  0  0  0  0  0  0
   -4.4494    0.9268   -1.4460 H   0  0  0  0  0  0  0  0  0  0  0  0
  1  2  1  0
  2  3  2  0
  3  4  1  0
  4  5  2  0
  5  6  1  0
  4  7  1  0
  7  8  2  0
  8  9  1  0
  9 10  2  0
 10 11  1  0
 11 12  2  0
 10 13  1  0
 13 14  2  0
 13 15  1  0
 15 16  1  0
 16 17  1  0
 16 18  1  0
 16 19  1  0
  6  2  1  0
 12  7  1  0
  1 20  1  0
  1 21  1  0
  1 22  1  0
  8 23  1  0
  9 24  1  0
 11 25  1  0
 12 26  1  0
 15 27  1  0
 17 28  1  0
 17 29  1  0
 17 30  1  0
 18 31  1  0
 18 32  1  0
 18 33  1  0
 19 34  1  0
 19 35  1  0
 19 36  1  0
M  END
$$$$
[H]OC(=O)C([H])([H])N([H])C(=O)C(=O)N([H])C([H])([H])c1c([H])c([H])c([H])c2c1c([H])c([H])n2S(=O)(=O)c1c([H])c([H])c([H])c(C(F)(F)F)c1[H]
     RDKit          3D

 49 51  0  0  0  0  0  0  0  0999 V2000
    9.5197    1.5009    0.4272 O   0  0  0  0  0  0  0  0  0  0  0  0
    8.2175    1.0842    0.7037 C   0  0  0  0  0  0  0  0  0  0  0  0
    7.6522    1.6332    1.6701 O   0  0  0  0  0  0  0  0  0  0  0  0
    7.5115    0.0303   -0.1133 C   0  0  0  0  0  0  0  0  0  0  0  0
    6.1734   -0.1298    0.3974 N   0  0  0  0  0  0  0  0  0  0  0  0
    5.2667   -1.0845   -0.1413 C   0  0  0  0  0  0  0  0  0  0  0  0
    5.6023   -1.8150   -1.0671 O   0  0  0  0  0  0  0  0  0  0  0  0
    3.9669   -1.1452    0.4575 C   0  0  0  0  0  0  0  0  0  0  0  0
    3.6096   -0.3282    1.3274 O   0  0  0  0  0  0  0  0  0  0  0  0
    3.0403   -2.1867    0.0467 N   0  0  0  0  0  0  0  0  0  0  0  0
    1.7346   -2.1767    0.7092 C   0  0  0  0  0  0  0  0  0  0  0  0
    0.9785   -1.0019    0.2068 C   0  0  0  0  0  0  0  0  0  0  0  0
    1.4008   -0.2324   -0.8693 C   0  0  0  0  0  0  0  0  0  0  0  0
    0.6118    0.8225   -1.3428 C   0  0  0  0  0  0  0  0  0  0  0  0
   -0.5821    1.0692   -0.7138 C   0  0  0  0  0  0  0  0  0  0  0  0
   -1.0394    0.3293    0.3575 C   0  0  0  0  0  0  0  0  0  0  0  0
   -2.1359    0.4285    1.1450 N   0  0  0  0  0  0  0  0  0  0  0  0
   -2.0255   -0.5664    2.1087 C   0  0  0  0  0  0  0  0  0  0  0  0
   -0.8658   -1.2254    1.8594 C   0  0  0  0  0  0  0  0  0  0  0  0
   -0.2291   -0.6943    0.7834 C   0  0  0  0  0  0  0  0  0  0  0  0
   -3.4841    1.4654    1.0063 S   0  0  0  0  0  0  0  0  0  0  0  0
   -4.3349    1.3413    2.2515 O   0  0  0  0  0  0  0  0  0  0  0  0
   -2.9532    2.9045    1.0118 O   0  0  0  0  0  0  0  0  0  0  0  0
   -4.4349    1.1789   -0.4063 C   0  0  0  0  0  0  0  0  0  0  0  0
   -4.1630    1.6700   -1.6440 C   0  0  0  0  0  0  0  0  0  0  0  0
   -5.0294    1.4023   -2.7112 C   0  0  0  0  0  0  0  0  0  0  0  0
   -6.1677    0.6369   -2.5066 C   0  0  0  0  0  0  0  0  0  0  0  0
   -6.4353    0.1416   -1.2374 C   0  0  0  0  0  0  0  0  0  0  0  0
   -5.5913    0.4043   -0.2111 C   0  0  0  0  0  0  0  0  0  0  0  0
   -7.6610   -0.6697   -0.9603 C   0  0  0  0  0  0  0  0  0  0  0  0
   -7.4887   -1.3510    0.2486 F   0  0  0  0  0  0  0  0  0  0  0  0
   -8.7586    0.1728   -0.7419 F   0  0  0  0  0  0  0  0  0  0  0  0
   -7.9900   -1.5042   -1.9945 F   0  0  0  0  0  0  0  0  0  0  0  0
   10.1394    1.5393    1.2568 H   0  0  0  0  0  0  0  0  0  0  0  0
    7.4801    0.4153   -1.1464 H   0  0  0  0  0  0  0  0  0  0  0  0
    8.1238   -0.8725   -0.0327 H   0  0  0  0  0  0  0  0  0  0  0  0
    5.8648    0.4717    1.1845 H   0  0  0  0  0  0  0  0  0  0  0  0
    3.2595   -2.8807   -0.6460 H   0  0  0  0  0  0  0  0  0  0  0  0
    1.1981   -3.1010    0.4901 H   0  0  0  0  0  0  0  0  0  0  0  0
    1.9331   -2.1158    1.8027 H   0  0  0  0  0  0  0  0  0  0  0  0
    2.3308   -0.4748   -1.3356 H   0  0  0  0  0  0  0  0  0  0  0  0
    0.9895    1.3770   -2.1827 H   0  0  0  0  0  0  0  0  0  0  0  0
   -1.1647    1.8993   -1.0754 H   0  0  0  0  0  0  0  0  0  0  0  0
   -2.7559   -0.7590    2.8954 H   0  0  0  0  0  0  0  0  0  0  0  0
   -0.5026   -2.0703    2.4473 H   0  0  0  0  0  0  0  0  0  0  0  0
   -3.2899    2.2802   -1.8527 H   0  0  0  0  0  0  0  0  0  0  0  0
   -4.8492    1.7640   -3.7094 H   0  0  0  0  0  0  0  0  0  0  0  0
   -6.8758    0.3954   -3.2889 H   0  0  0  0  0  0  0  0  0  0  0  0
   -5.7968    0.0272    0.7939 H   0  0  0  0  0  0  0  0  0  0  0  0
  1  2  1  0
  2  3  2  0
  2  4  1  0
  4  5  1  0
  5  6  1  0
  6  7  2  0
  6  8  1  0
  8  9  2  0
  8 10  1  0
 10 11  1  0
 11 12  1  0
 12 13  2  0
 13 14  1  0
 14 15  2  0
 15 16  1  0
 16 17  1  0
 17 18  1  0
 18 19  2  0
 19 20  1  0
 17 21  1  0
 21 22  2  0
 21 23  2  0
 21 24  1  0
 24 25  2  0
 25 26  1  0
 26 27  2  0
 27 28  1  0
 28 29  2  0
 28 30  1  0
 30 31  1  0
 30 32  1  0
 30 33  1  0
 20 12  1  0
 29 24  1  0
 20 16  2  0
  1 34  1  0
  4 35  1  0
  4 36  1  0
  5 37  1  0
 10 38  1  0
 11 39  1  0
 11 40  1  0
 13 41  1  0
 14 42  1  0
 15 43  1  0
 18 44  1  0
 19 45  1  0
 25 46  1  0
 26 47  1  0
 27 48  1  0
 29 49  1  0
M  END
$$$$
[H]c1nc([H])c(C([H])([H])N([H])C(=O)N([H])C23C([H])([H])C4([H])C([H])([H])C([H])(C([H])([H])C([H])(C4([H])[H])C2([H])[H])C3([H])[H])c([H])c1[H]
     RDKit          3D

 44 47  0  0  0  0  0  0  0  0999 V2000
    1.1087    1.2194    0.3331 O   0  0  0  0  0  0  0  0  0  0  0  0
    1.1788    0.5745   -0.7272 C   0  0  0  0  0  0  0  0  0  0  0  0
    0.0625   -0.1353   -1.1921 N   0  0  0  0  0  0  0  0  0  0  0  0
   -1.2144   -0.1920   -0.5435 C   0  0  0  0  0  0  0  0  0  0  0  0
   -1.1670   -0.7405    0.8530 C   0  0  0  0  0  0  0  0  0  0  0  0
   -2.5822   -0.7748    1.3909 C   0  0  0  0  0  0  0  0  0  0  0  0
   -3.2020    0.6109    1.4181 C   0  0  0  0  0  0  0  0  0  0  0  0
   -3.2470    1.1117    0.0054 C   0  0  0  0  0  0  0  0  0  0  0  0
   -4.0536    0.2561   -0.9122 C   0  0  0  0  0  0  0  0  0  0  0  0
   -3.5109   -1.1557   -0.8566 C   0  0  0  0  0  0  0  0  0  0  0  0
   -3.4845   -1.6585    0.5828 C   0  0  0  0  0  0  0  0  0  0  0  0
   -2.0933   -1.1596   -1.3485 C   0  0  0  0  0  0  0  0  0  0  0  0
   -1.8272    1.1804   -0.5144 C   0  0  0  0  0  0  0  0  0  0  0  0
    2.3763    0.5582   -1.4568 N   0  0  0  0  0  0  0  0  0  0  0  0
    3.5221    1.2910   -0.9638 C   0  0  0  0  0  0  0  0  0  0  0  0
    4.1877    0.5771    0.1580 C   0  0  0  0  0  0  0  0  0  0  0  0
    5.2034    1.1724    0.8712 C   0  0  0  0  0  0  0  0  0  0  0  0
    5.8021    0.4663    1.9138 C   0  0  0  0  0  0  0  0  0  0  0  0
    5.4127   -0.8033    2.2534 C   0  0  0  0  0  0  0  0  0  0  0  0
    4.4262   -1.3653    1.5514 N   0  0  0  0  0  0  0  0  0  0  0  0
    3.8325   -0.7125    0.5454 C   0  0  0  0  0  0  0  0  0  0  0  0
    0.1752   -0.6734   -2.0996 H   0  0  0  0  0  0  0  0  0  0  0  0
   -0.5902   -0.0897    1.5445 H   0  0  0  0  0  0  0  0  0  0  0  0
   -0.7465   -1.7479    0.9272 H   0  0  0  0  0  0  0  0  0  0  0  0
   -2.6139   -1.1440    2.4464 H   0  0  0  0  0  0  0  0  0  0  0  0
   -4.1785    0.5191    1.9071 H   0  0  0  0  0  0  0  0  0  0  0  0
   -2.5098    1.2617    1.9815 H   0  0  0  0  0  0  0  0  0  0  0  0
   -3.6783    2.1368    0.0335 H   0  0  0  0  0  0  0  0  0  0  0  0
   -3.9109    0.6156   -1.9504 H   0  0  0  0  0  0  0  0  0  0  0  0
   -5.1415    0.2792   -0.7152 H   0  0  0  0  0  0  0  0  0  0  0  0
   -4.0972   -1.8002   -1.5196 H   0  0  0  0  0  0  0  0  0  0  0  0
   -3.1671   -2.7176    0.5706 H   0  0  0  0  0  0  0  0  0  0  0  0
   -4.4849   -1.6162    1.0103 H   0  0  0  0  0  0  0  0  0  0  0  0
   -1.6714   -2.1777   -1.1093 H   0  0  0  0  0  0  0  0  0  0  0  0
   -1.9992   -0.9608   -2.4372 H   0  0  0  0  0  0  0  0  0  0  0  0
   -1.2506    1.8126    0.1558 H   0  0  0  0  0  0  0  0  0  0  0  0
   -1.8877    1.6337   -1.5331 H   0  0  0  0  0  0  0  0  0  0  0  0
    2.4676    0.0345   -2.3440 H   0  0  0  0  0  0  0  0  0  0  0  0
    4.2462    1.4448   -1.7586 H   0  0  0  0  0  0  0  0  0  0  0  0
    3.2294    2.3112   -0.6000 H   0  0  0  0  0  0  0  0  0  0  0  0
    5.5405    2.1729    0.6347 H   0  0  0  0  0  0  0  0  0  0  0  0
    6.6134    0.9359    2.4873 H   0  0  0  0  0  0  0  0  0  0  0  0
    5.8956   -1.3416    3.0762 H   0  0  0  0  0  0  0  0  0  0  0  0
    3.0289   -1.2098   -0.0059 H   0  0  0  0  0  0  0  0  0  0  0  0
  1  2  2  0
  2  3  1  0
  3  4  1  0
  4  5  1  0
  5  6  1  0
  6  7  1  0
  7  8  1  0
  8  9  1  0
  9 10  1  0
 10 11  1  0
 10 12  1  0
  8 13  1  0
  2 14  1  0
 14 15  1  0
 15 16  1  0
 16 17  2  0
 17 18  1  0
 18 19  2  0
 19 20  1  0
 20 21  2  0
 12  4  1  0
 21 16  1  0
 13  4  1  0
 11  6  1  0
  3 22  1  0
  5 23  1  0
  5 24  1  0
  6 25  1  0
  7 26  1  0
  7 27  1  0
  8 28  1  0
  9 29  1  0
  9 30  1  0
 10 31  1  0
 11 32  1  0
 11 33  1  0
 12 34  1  0
 12 35  1  0
 13 36  1  0
 13 37  1  0
 14 38  1  0
 15 39  1  0
 15 40  1  0
 17 41  1  0
 18 42  1  0
 19 43  1  0
 21 44  1  0
M  END
$$$$
[H]O[C@@]([H])(C(F)(F)F)C([H])([H])[C@@]1([H])C([H])([H])O[C@]1([H])[C@@]1([H])C(F)=C([H])c2c([H])nc(OC([H])([H])[H])c(c2[H])C(=O)N1[H]
     RDKit          2D

 42 44  0  0  0  0  0  0  0  0999 V2000
    3.7500   -1.2990    0.0000 C   0  0  0  0  0  0  0  0  0  0  0  0
    3.0000    0.0000    0.0000 O   0  0  0  0  0  0  0  0  0  0  0  0
    1.5000    0.0000    0.0000 C   0  0  0  0  0  0  0  0  0  0  0  0
    0.7500   -1.2990    0.0000 N   0  0  0  0  0  0  0  0  0  0  0  0
   -0.7500   -1.2990    0.0000 C   0  0  0  0  0  0  0  0  0  0  0  0
   -1.5000    0.0000    0.0000 C   0  0  0  0  0  0  0  0  0  0  0  0
   -0.7500    1.2990    0.0000 C   0  0  0  0  0  0  0  0  0  0  0  0
    0.7500    1.2990    0.0000 C   0  0  0  0  0  0  0  0  0  0  0  0
    0.7045    2.8730    0.0000 C   0  0  0  0  0  0  0  0  0  0  0  0
    2.0036    3.6230    0.0000 O   0  0  0  0  0  0  0  0  0  0  0  0
   -0.4855    3.7861    0.0000 N   0  0  0  0  0  0  0  0  0  0  0  0
   -1.9727    3.5903    0.0000 C   0  0  0  0  0  0  0  0  0  0  0  0
   -3.3585    4.1644    0.0000 C   0  0  0  0  0  0  0  0  0  0  0  0
   -3.9325    2.7785    0.0000 O   0  0  0  0  0  0  0  0  0  0  0  0
   -5.3183    3.3526    0.0000 C   0  0  0  0  0  0  0  0  0  0  0  0
   -4.7443    4.7384    0.0000 C   0  0  0  0  0  0  0  0  0  0  0  0
   -4.1703    6.1242    0.0000 C   0  0  0  0  0  0  0  0  0  0  0  0
   -3.5963    7.5100    0.0000 C   0  0  0  0  0  0  0  0  0  0  0  0
   -4.9821    8.0841    0.0000 O   0  0  0  0  0  0  0  0  0  0  0  0
   -3.0222    8.8958    0.0000 C   0  0  0  0  0  0  0  0  0  0  0  0
   -2.4482   10.2817    0.0000 F   0  0  0  0  0  0  0  0  0  0  0  0
   -4.3278    9.6345    0.0000 F   0  0  0  0  0  0  0  0  0  0  0  0
   -1.6364    8.3218    0.0000 F   0  0  0  0  0  0  0  0  0  0  0  0
   -2.6900    0.9131    0.0000 C   0  0  0  0  0  0  0  0  0  0  0  0
   -2.8858    2.4003    0.0000 C   0  0  0  0  0  0  0  0  0  0  0  0
   -3.6829    2.4142    0.0000 F   0  0  0  0  0  0  0  0  0  0  0  0
    4.5000   -2.5981    0.0000 H   0  0  0  0  0  0  0  0  0  0  0  0
    5.0490   -0.5490    0.0000 H   0  0  0  0  0  0  0  0  0  0  0  0
    2.4510   -2.0490    0.0000 H   0  0  0  0  0  0  0  0  0  0  0  0
   -1.5000   -2.5981    0.0000 H   0  0  0  0  0  0  0  0  0  0  0  0
   -1.5000    2.5981    0.0000 H   0  0  0  0  0  0  0  0  0  0  0  0
   -0.0973    5.2350    0.0000 H   0  0  0  0  0  0  0  0  0  0  0  0
   -1.7769    5.0775    0.0000 H   0  0  0  0  0  0  0  0  0  0  0  0
   -2.6198    5.4699    0.0000 H   0  0  0  0  0  0  0  0  0  0  0  0
   -6.7042    3.9266    0.0000 H   0  0  0  0  0  0  0  0  0  0  0  0
   -5.8924    1.9668    0.0000 H   0  0  0  0  0  0  0  0  0  0  0  0
   -6.1301    5.3124    0.0000 H   0  0  0  0  0  0  0  0  0  0  0  0
   -5.5561    6.6982    0.0000 H   0  0  0  0  0  0  0  0  0  0  0  0
   -2.7248    5.7234    0.0000 H   0  0  0  0  0  0  0  0  0  0  0  0
   -2.2104    6.9360    0.0000 H   0  0  0  0  0  0  0  0  0  0  0  0
   -5.3577    9.5363    0.0000 H   0  0  0  0  0  0  0  0  0  0  0  0
   -3.9891    0.1631    0.0000 H   0  0  0  0  0  0  0  0  0  0  0  0
  1  2  1  0
  2  3  1  0
  3  4  2  0
  4  5  1  0
  5  6  2  0
  6  7  1  0
  7  8  2  0
  8  9  1  0
  9 10  2  0
  9 11  1  0
 11 12  1  0
 12 13  1  0
 13 14  1  0
 14 15  1  0
 15 16  1  0
 16 17  1  0
 17 18  1  0
 18 19  1  0
 18 20  1  0
 20 21  1  0
 20 22  1  0
 20 23  1  0
  6 24  1  0
 24 25  2  0
 25 26  1  0
  8  3  1  0
 25 12  1  0
 16 13  1  0
  1 27  1  0
  1 28  1  0
  1 29  1  0
  5 30  1  0
  7 31  1  0
 11 32  1  0
 12 33  1  1
 13 34  1  6
 15 35  1  0
 15 36  1  0
 16 37  1  1
 17 38  1  0
 17 39  1  0
 18 40  1  6
 19 41  1  0
 24 42  1  0
M  END
$$$$
[H]OC(=O)C([H])([H])N([H])C(=O)[C@]1([H])c2c([H])c([H])c(Cl)c([H])c2N(c2c([H])c([H])c(S(=O)(=O)C([H])([H])[H])c([H])c2Cl)C([H])([H])C([H])([H])N1c1nc([H])n([H])c(=O)n1
     RDKit          3D

 57 60  0  0  0  0  0  0  0  0999 V2000
    7.1397    0.7897   -1.8888 C   0  0  0  0  0  0  0  0  0  0  0  0
    6.5389    1.0175   -0.2559 S   0  0  0  0  0  0  0  0  0  0  0  0
    7.3682    0.2718    0.7488 O   0  0  0  0  0  0  0  0  0  0  0  0
    6.6047    2.4924    0.0695 O   0  0  0  0  0  0  0  0  0  0  0  0
    4.8590    0.5388   -0.0835 C   0  0  0  0  0  0  0  0  0  0  0  0
    3.8182    1.4203   -0.2874 C   0  0  0  0  0  0  0  0  0  0  0  0
    2.5143    0.9943   -0.1390 C   0  0  0  0  0  0  0  0  0  0  0  0
    2.1696   -0.2972    0.2112 C   0  0  0  0  0  0  0  0  0  0  0  0
    0.8405   -0.7347    0.3634 N   0  0  0  0  0  0  0  0  0  0  0  0
    0.3981   -1.8208   -0.4736 C   0  0  0  0  0  0  0  0  0  0  0  0
   -0.8478   -1.4622   -1.2501 C   0  0  0  0  0  0  0  0  0  0  0  0
   -1.9347   -1.2703   -0.3168 N   0  0  0  0  0  0  0  0  0  0  0  0
   -2.2978   -0.0677    0.4314 C   0  0  2  0  0  0  0  0  0  0  0  0
   -2.5645    1.0563   -0.4790 C   0  0  0  0  0  0  0  0  0  0  0  0
   -2.5639    0.8166   -1.7349 O   0  0  0  0  0  0  0  0  0  0  0  0
   -2.8212    2.3759   -0.1010 N   0  0  0  0  0  0  0  0  0  0  0  0
   -3.0864    3.4478   -1.0442 C   0  0  0  0  0  0  0  0  0  0  0  0
   -4.3132    3.1223   -1.7915 C   0  0  0  0  0  0  0  0  0  0  0  0
   -4.6918    4.0442   -2.7827 O   0  0  0  0  0  0  0  0  0  0  0  0
   -5.0494    2.1394   -1.6539 O   0  0  0  0  0  0  0  0  0  0  0  0
   -1.2567    0.2463    1.4363 C   0  0  0  0  0  0  0  0  0  0  0  0
   -1.7571    0.9000    2.5256 C   0  0  0  0  0  0  0  0  0  0  0  0
   -0.9278    1.2982    3.5806 C   0  0  0  0  0  0  0  0  0  0  0  0
    0.4180    1.0198    3.5092 C   0  0  0  0  0  0  0  0  0  0  0  0
    1.5363    1.4773    4.7763 Cl  0  0  0  0  0  0  0  0  0  0  0  0
    0.8971    0.3679    2.4195 C   0  0  0  0  0  0  0  0  0  0  0  0
    0.0973   -0.0426    1.3529 C   0  0  0  0  0  0  0  0  0  0  0  0
   -2.7717   -2.3825   -0.0802 C   0  0  0  0  0  0  0  0  0  0  0  0
   -3.8046   -2.3008    0.7645 N   0  0  0  0  0  0  0  0  0  0  0  0
   -4.6198   -3.3432    1.0104 C   0  0  0  0  0  0  0  0  0  0  0  0
   -5.5994   -3.2535    1.8160 O   0  0  0  0  0  0  0  0  0  0  0  0
   -4.4070   -4.5189    0.3961 N   0  0  0  0  0  0  0  0  0  0  0  0
   -3.3712   -4.5940   -0.4483 C   0  0  0  0  0  0  0  0  0  0  0  0
   -2.5516   -3.5499   -0.6971 N   0  0  0  0  0  0  0  0  0  0  0  0
    3.2317   -1.1733    0.4131 C   0  0  0  0  0  0  0  0  0  0  0  0
    2.8787   -2.8408    0.8628 Cl  0  0  0  0  0  0  0  0  0  0  0  0
    4.5345   -0.7498    0.2654 C   0  0  0  0  0  0  0  0  0  0  0  0
    7.5054   -0.2230   -2.1053 H   0  0  0  0  0  0  0  0  0  0  0  0
    6.3862    1.1458   -2.6137 H   0  0  0  0  0  0  0  0  0  0  0  0
    8.0275    1.4755   -2.0181 H   0  0  0  0  0  0  0  0  0  0  0  0
    4.0909    2.4308   -0.5615 H   0  0  0  0  0  0  0  0  0  0  0  0
    1.7072    1.7045   -0.3042 H   0  0  0  0  0  0  0  0  0  0  0  0
    1.2121   -2.1698   -1.1498 H   0  0  0  0  0  0  0  0  0  0  0  0
    0.1139   -2.7338    0.1306 H   0  0  0  0  0  0  0  0  0  0  0  0
   -1.0857   -2.3781   -1.8682 H   0  0  0  0  0  0  0  0  0  0  0  0
   -0.6629   -0.6220   -1.9312 H   0  0  0  0  0  0  0  0  0  0  0  0
   -3.2225   -0.2855    1.0300 H   0  0  0  0  0  0  0  0  0  0  0  0
   -2.8351    2.6631    0.8999 H   0  0  0  0  0  0  0  0  0  0  0  0
   -3.2721    4.3899   -0.5121 H   0  0  0  0  0  0  0  0  0  0  0  0
   -2.2166    3.6326   -1.7098 H   0  0  0  0  0  0  0  0  0  0  0  0
   -5.3809    4.7531   -2.6381 H   0  0  0  0  0  0  0  0  0  0  0  0
   -2.7991    1.1164    2.6183 H   0  0  0  0  0  0  0  0  0  0  0  0
   -1.3378    1.8184    4.4423 H   0  0  0  0  0  0  0  0  0  0  0  0
    1.9484    0.1468    2.3444 H   0  0  0  0  0  0  0  0  0  0  0  0
   -5.0257   -5.3393    0.5717 H   0  0  0  0  0  0  0  0  0  0  0  0
   -3.1318   -5.5153   -0.9870 H   0  0  0  0  0  0  0  0  0  0  0  0
    5.3715   -1.4441    0.4254 H   0  0  0  0  0  0  0  0  0  0  0  0
  1  2  1  0
  2  3  2  0
  2  4  2  0
  2  5  1  0
  5  6  2  0
  6  7  1  0
  7  8  2  0
  8  9  1  0
  9 10  1  0
 10 11  1  0
 11 12  1  0
 12 13  1  0
 13 14  1  0
 14 15  2  0
 14 16  1  0
 16 17  1  0
 17 18  1  0
 18 19  1  0
 18 20  2  0
 13 21  1  0
 21 22  2  0
 22 23  1  0
 23 24  2  0
 24 25  1  0
 24 26  1  0
 26 27  2  0
 12 28  1  0
 28 29  2  0
 29 30  1  0
 30 31  2  0
 30 32  1  0
 32 33  1  0
 33 34  2  0
  8 35  1  0
 35 36  1  0
 35 37  2  0
 37  5  1  0
 27  9  1  0
 34 28  1  0
 27 21  1  0
  1 38  1  0
  1 39  1  0
  1 40  1  0
  6 41  1  0
  7 42  1  0
 10 43  1  0
 10 44  1  0
 11 45  1  0
 11 46  1  0
 13 47  1  1
 16 48  1  0
 17 49  1  0
 17 50  1  0
 19 51  1  0
 22 52  1  0
 23 53  1  0
 26 54  1  0
 32 55  1  0
 33 56  1  0
 37 57  1  0
M  END
$$$$
[H]OC(=O)C([H])([H])[C@@]([H])(C(=O)N([H])[C@@]([H])(Oc1c([H])c([H])c(-c2c([H])c([H])c([H])c([H])c2[H])c([H])c1[H])C(=O)N([H])[C@@]([H])(C(C([H])([H])[H])(C([H])([H])[H])C([H])([H])[H])[C@]([H])(C([H])([H])[H])C([H])([H])C([H])([H])[H])N([H])C(=O)[C@@]([H])(N([H])C(=O)[C@@]([H])(N([H])C(=O)C(=O)N([H])[H])C([H])([H])C([H])([H])C([H])([H])C([H])([H])C([H])([H])S[H])C([H])([H])c1c([H])c([H])c(O[H])c([H])c1[H]
     RDKit          3D

122124  0  0  0  0  0  0  0  0999 V2000
   -9.2426   -1.3347    1.5095 C   0  0  0  0  0  0  0  0  0  0  0  0
   -8.0231   -1.5967    2.3206 C   0  0  0  0  0  0  0  0  0  0  0  0
   -7.3920   -2.9649    2.0818 C   0  0  1  0  0  0  0  0  0  0  0  0
   -8.3963   -3.9864    2.4508 C   0  0  0  0  0  0  0  0  0  0  0  0
   -6.6511   -3.0700    0.8250 C   0  0  1  0  0  0  0  0  0  0  0  0
   -5.5698   -2.1403    0.7934 N   0  0  0  0  0  0  0  0  0  0  0  0
   -4.2004   -2.2330    0.6573 C   0  0  0  0  0  0  0  0  0  0  0  0
   -3.5425   -3.2641    0.5423 O   0  0  0  0  0  0  0  0  0  0  0  0
   -3.3431   -0.9858    0.6341 C   0  0  1  0  0  0  0  0  0  0  0  0
   -1.9420   -1.3328    0.4957 N   0  0  0  0  0  0  0  0  0  0  0  0
   -0.8428   -0.5713    0.8518 C   0  0  0  0  0  0  0  0  0  0  0  0
   -1.0385    0.5740    1.3389 O   0  0  0  0  0  0  0  0  0  0  0  0
    0.5330   -1.0493    0.6806 C   0  0  2  0  0  0  0  0  0  0  0  0
    1.1401   -1.6688    1.9222 C   0  0  0  0  0  0  0  0  0  0  0  0
    1.2644   -0.8116    3.0844 C   0  0  0  0  0  0  0  0  0  0  0  0
    1.8060   -1.4457    4.2364 O   0  0  0  0  0  0  0  0  0  0  0  0
    0.9803    0.3779    3.2423 O   0  0  0  0  0  0  0  0  0  0  0  0
    1.4442    0.0090    0.1991 N   0  0  0  0  0  0  0  0  0  0  0  0
    2.4742   -0.3762   -0.6964 C   0  0  0  0  0  0  0  0  0  0  0  0
    2.6041   -1.6049   -1.0460 O   0  0  0  0  0  0  0  0  0  0  0  0
    3.4702    0.5346   -1.3025 C   0  0  2  0  0  0  0  0  0  0  0  0
    3.0623    0.6533   -2.7703 C   0  0  0  0  0  0  0  0  0  0  0  0
    3.9370    1.5306   -3.5538 C   0  0  0  0  0  0  0  0  0  0  0  0
    5.0453    0.9692   -4.1722 C   0  0  0  0  0  0  0  0  0  0  0  0
    5.9144    1.7375   -4.9368 C   0  0  0  0  0  0  0  0  0  0  0  0
    5.6079    3.0889   -5.0432 C   0  0  0  0  0  0  0  0  0  0  0  0
    6.4594    3.8924   -5.8037 O   0  0  0  0  0  0  0  0  0  0  0  0
    4.5103    3.6487   -4.4323 C   0  0  0  0  0  0  0  0  0  0  0  0
    3.6505    2.8771   -3.6728 C   0  0  0  0  0  0  0  0  0  0  0  0
    4.7969   -0.0907   -1.2715 N   0  0  0  0  0  0  0  0  0  0  0  0
    5.9273    0.6730   -0.8931 C   0  0  0  0  0  0  0  0  0  0  0  0
    5.7683    1.9070   -0.6087 O   0  0  0  0  0  0  0  0  0  0  0  0
    7.2845    0.0735   -0.8179 C   0  0  2  0  0  0  0  0  0  0  0  0
    7.3018   -1.1359    0.0706 C   0  0  0  0  0  0  0  0  0  0  0  0
    6.8959   -0.9754    1.4747 C   0  0  0  0  0  0  0  0  0  0  0  0
    7.6865   -0.0887    2.3590 C   0  0  0  0  0  0  0  0  0  0  0  0
    9.1365   -0.5015    2.5093 C   0  0  0  0  0  0  0  0  0  0  0  0
    9.2427   -1.8874    3.1237 C   0  0  0  0  0  0  0  0  0  0  0  0
    8.4590   -1.8616    4.7656 S   0  0  0  0  0  0  0  0  0  0  0  0
    8.2311    1.0900   -0.5152 N   0  0  0  0  0  0  0  0  0  0  0  0
    9.4985    1.1849   -1.1516 C   0  0  0  0  0  0  0  0  0  0  0  0
    9.7843    0.3161   -2.0191 O   0  0  0  0  0  0  0  0  0  0  0  0
   10.4637    2.2203   -0.8505 C   0  0  0  0  0  0  0  0  0  0  0  0
   11.7255    2.2634   -1.5011 N   0  0  0  0  0  0  0  0  0  0  0  0
   10.2388    3.1300   -0.0044 O   0  0  0  0  0  0  0  0  0  0  0  0
   -3.7127   -0.2440   -0.5043 O   0  0  0  0  0  0  0  0  0  0  0  0
   -4.2106    1.0231   -0.4819 C   0  0  0  0  0  0  0  0  0  0  0  0
   -4.4423    1.7329    0.6636 C   0  0  0  0  0  0  0  0  0  0  0  0
   -4.9542    3.0380    0.6707 C   0  0  0  0  0  0  0  0  0  0  0  0
   -5.2507    3.6714   -0.5139 C   0  0  0  0  0  0  0  0  0  0  0  0
   -5.0160    2.9537   -1.6651 C   0  0  0  0  0  0  0  0  0  0  0  0
   -4.5203    1.6885   -1.6790 C   0  0  0  0  0  0  0  0  0  0  0  0
   -5.7784    5.0253   -0.5991 C   0  0  0  0  0  0  0  0  0  0  0  0
   -5.4884    5.8322   -1.6567 C   0  0  0  0  0  0  0  0  0  0  0  0
   -6.0011    7.1043   -1.7095 C   0  0  0  0  0  0  0  0  0  0  0  0
   -6.8156    7.5853   -0.6961 C   0  0  0  0  0  0  0  0  0  0  0  0
   -7.1111    6.7611    0.3831 C   0  0  0  0  0  0  0  0  0  0  0  0
   -6.5953    5.4818    0.4357 C   0  0  0  0  0  0  0  0  0  0  0  0
   -6.4237   -4.3876    0.1952 C   0  0  0  0  0  0  0  0  0  0  0  0
   -7.8089   -5.0426   -0.1535 C   0  0  0  0  0  0  0  0  0  0  0  0
   -5.8105   -4.1582   -1.1675 C   0  0  0  0  0  0  0  0  0  0  0  0
   -5.6081   -5.3863    0.9348 C   0  0  0  0  0  0  0  0  0  0  0  0
   -9.7642   -0.4730    1.9944 H   0  0  0  0  0  0  0  0  0  0  0  0
   -8.9888   -0.9471    0.4756 H   0  0  0  0  0  0  0  0  0  0  0  0
   -9.9675   -2.1603    1.4502 H   0  0  0  0  0  0  0  0  0  0  0  0
   -7.3221   -0.7552    2.1887 H   0  0  0  0  0  0  0  0  0  0  0  0
   -8.3464   -1.5128    3.4014 H   0  0  0  0  0  0  0  0  0  0  0  0
   -6.6023   -3.0220    2.9116 H   0  0  0  0  0  0  0  0  0  0  0  0
   -9.3227   -4.0176    1.8573 H   0  0  0  0  0  0  0  0  0  0  0  0
   -7.9686   -4.9810    2.7066 H   0  0  0  0  0  0  0  0  0  0  0  0
   -8.7829   -3.6432    3.4766 H   0  0  0  0  0  0  0  0  0  0  0  0
   -7.3637   -2.6017   -0.0170 H   0  0  0  0  0  0  0  0  0  0  0  0
   -5.8798   -1.0615    0.8905 H   0  0  0  0  0  0  0  0  0  0  0  0
   -3.4424   -0.3544    1.5008 H   0  0  0  0  0  0  0  0  0  0  0  0
   -1.7753   -2.2865    0.0657 H   0  0  0  0  0  0  0  0  0  0  0  0
    0.6267   -1.8788   -0.0846 H   0  0  0  0  0  0  0  0  0  0  0  0
    0.6200   -2.6322    2.1065 H   0  0  0  0  0  0  0  0  0  0  0  0
    2.1870   -1.9686    1.6166 H   0  0  0  0  0  0  0  0  0  0  0  0
    1.2957   -1.4479    5.1205 H   0  0  0  0  0  0  0  0  0  0  0  0
    1.3520    0.9909    0.4917 H   0  0  0  0  0  0  0  0  0  0  0  0
    3.5317    1.4890   -0.8106 H   0  0  0  0  0  0  0  0  0  0  0  0
    2.0238    0.9503   -2.9105 H   0  0  0  0  0  0  0  0  0  0  0  0
    3.1453   -0.3933   -3.1787 H   0  0  0  0  0  0  0  0  0  0  0  0
    5.2893   -0.0932   -4.0901 H   0  0  0  0  0  0  0  0  0  0  0  0
    6.7860    1.3618   -5.4394 H   0  0  0  0  0  0  0  0  0  0  0  0
    7.2503    4.3358   -5.3178 H   0  0  0  0  0  0  0  0  0  0  0  0
    4.2517    4.7086   -4.5072 H   0  0  0  0  0  0  0  0  0  0  0  0
    2.7825    3.3196   -3.1885 H   0  0  0  0  0  0  0  0  0  0  0  0
    4.9258   -1.0860   -1.5208 H   0  0  0  0  0  0  0  0  0  0  0  0
    7.5949   -0.3374   -1.8368 H   0  0  0  0  0  0  0  0  0  0  0  0
    8.2876   -1.6450   -0.0633 H   0  0  0  0  0  0  0  0  0  0  0  0
    6.5749   -1.8649   -0.4060 H   0  0  0  0  0  0  0  0  0  0  0  0
    5.8453   -0.5531    1.4661 H   0  0  0  0  0  0  0  0  0  0  0  0
    6.7747   -1.9497    2.0120 H   0  0  0  0  0  0  0  0  0  0  0  0
    7.6106    0.9818    2.2231 H   0  0  0  0  0  0  0  0  0  0  0  0
    7.2584   -0.2643    3.4118 H   0  0  0  0  0  0  0  0  0  0  0  0
    9.6055    0.2074    3.2262 H   0  0  0  0  0  0  0  0  0  0  0  0
    9.7191   -0.4689    1.5906 H   0  0  0  0  0  0  0  0  0  0  0  0
   10.3416   -2.0564    3.3183 H   0  0  0  0  0  0  0  0  0  0  0  0
    8.8536   -2.6838    2.4764 H   0  0  0  0  0  0  0  0  0  0  0  0
    7.0568   -1.9323    4.6254 H   0  0  0  0  0  0  0  0  0  0  0  0
    8.0145    1.8256    0.1784 H   0  0  0  0  0  0  0  0  0  0  0  0
   12.2928    1.4144   -1.6466 H   0  0  0  0  0  0  0  0  0  0  0  0
   12.1228    3.1665   -1.8560 H   0  0  0  0  0  0  0  0  0  0  0  0
   -4.2498    1.3422    1.6713 H   0  0  0  0  0  0  0  0  0  0  0  0
   -5.1275    3.5755    1.6001 H   0  0  0  0  0  0  0  0  0  0  0  0
   -5.2400    3.4314   -2.6114 H   0  0  0  0  0  0  0  0  0  0  0  0
   -4.3371    1.1227   -2.5904 H   0  0  0  0  0  0  0  0  0  0  0  0
   -4.8448    5.4264   -2.4379 H   0  0  0  0  0  0  0  0  0  0  0  0
   -5.7769    7.7592   -2.5409 H   0  0  0  0  0  0  0  0  0  0  0  0
   -7.2135    8.5753   -0.7427 H   0  0  0  0  0  0  0  0  0  0  0  0
   -7.7483    7.1318    1.1782 H   0  0  0  0  0  0  0  0  0  0  0  0
   -6.8025    4.8098    1.2517 H   0  0  0  0  0  0  0  0  0  0  0  0
   -8.0475   -5.8528    0.5445 H   0  0  0  0  0  0  0  0  0  0  0  0
   -7.7154   -5.5745   -1.1526 H   0  0  0  0  0  0  0  0  0  0  0  0
   -8.5656   -4.2808   -0.3304 H   0  0  0  0  0  0  0  0  0  0  0  0
   -5.6198   -3.0904   -1.4023 H   0  0  0  0  0  0  0  0  0  0  0  0
   -6.5818   -4.4536   -1.9411 H   0  0  0  0  0  0  0  0  0  0  0  0
   -4.9564   -4.8344   -1.3903 H   0  0  0  0  0  0  0  0  0  0  0  0
   -6.2767   -6.2846    1.1435 H   0  0  0  0  0  0  0  0  0  0  0  0
   -4.7662   -5.8350    0.3595 H   0  0  0  0  0  0  0  0  0  0  0  0
   -5.2373   -5.1006    1.9192 H   0  0  0  0  0  0  0  0  0  0  0  0
  1  2  1  0
  2  3  1  0
  3  4  1  0
  3  5  1  0
  5  6  1  0
  6  7  1  0
  7  8  2  0
  7  9  1  0
  9 10  1  0
 10 11  1  0
 11 12  2  0
 11 13  1  0
 13 14  1  0
 14 15  1  0
 15 16  1  0
 15 17  2  0
 13 18  1  0
 18 19  1  0
 19 20  2  0
 19 21  1  0
 21 22  1  0
 22 23  1  0
 23 24  2  0
 24 25  1  0
 25 26  2  0
 26 27  1  0
 26 28  1  0
 28 29  2  0
 21 30  1  0
 30 31  1  0
 31 32  2  0
 31 33  1  0
 33 34  1  0
 34 35  1  0
 35 36  1  0
 36 37  1  0
 37 38  1  0
 38 39  1  0
 33 40  1  0
 40 41  1  0
 41 42  2  0
 41 43  1  0
 43 44  1  0
 43 45  2  0
  9 46  1  0
 46 47  1  0
 47 48  2  0
 48 49  1  0
 49 50  2  0
 50 51  1  0
 51 52  2  0
 50 53  1  0
 53 54  2  0
 54 55  1  0
 55 56  2  0
 56 57  1  0
 57 58  2  0
  5 59  1  0
 59 60  1  0
 59 61  1  0
 59 62  1  0
 29 23  1  0
 52 47  1  0
 58 53  1  0
  1 63  1  0
  1 64  1  0
  1 65  1  0
  2 66  1  0
  2 67  1  0
  3 68  1  1
  4 69  1  0
  4 70  1  0
  4 71  1  0
  5 72  1  6
  6 73  1  0
  9 74  1  1
 10 75  1  0
 13 76  1  6
 14 77  1  0
 14 78  1  0
 16 79  1  0
 18 80  1  0
 21 81  1  1
 22 82  1  0
 22 83  1  0
 24 84  1  0
 25 85  1  0
 27 86  1  0
 28 87  1  0
 29 88  1  0
 30 89  1  0
 33 90  1  6
 34 91  1  0
 34 92  1  0
 35 93  1  0
 35 94  1  0
 36 95  1  0
 36 96  1  0
 37 97  1  0
 37 98  1  0
 38 99  1  0
 38100  1  0
 39101  1  0
 40102  1  0
 44103  1  0
 44104  1  0
 48105  1  0
 49106  1  0
 51107  1  0
 52108  1  0
 54109  1  0
 55110  1  0
 56111  1  0
 57112  1  0
 58113  1  0
 60114  1  0
 60115  1  0
 60116  1  0
 61117  1  0
 61118  1  0
 61119  1  0
 62120  1  0
 62121  1  0
 62122  1  0
M  END
$$$$
[H]OC(=O)C([H])([H])N([H])C(=O)[C@@]([H])(N([H])C(=O)[C@@]1([H])N(C(=O)[C@@]([H])(N([H])C(=O)OC([H])([H])c2c([H])c([H])c([H])c([H])c2[H])C([H])([H])c2c([H])c([H])c([H])c([H])c2[H])C([H])([H])C([H])([H])C1([H])[H])C([H])([H])c1c([H])n([H])c2c([H])c([H])c(O[H])c([H])c12
     RDKit          3D

 85 89  0  0  0  0  0  0  0  0999 V2000
   -5.8244   -3.2810    4.4286 O   0  0  0  0  0  0  0  0  0  0  0  0
   -5.7607   -2.2987    3.4549 C   0  0  0  0  0  0  0  0  0  0  0  0
   -6.8033   -1.6590    3.1972 O   0  0  0  0  0  0  0  0  0  0  0  0
   -4.4739   -2.0601    2.7773 C   0  0  0  0  0  0  0  0  0  0  0  0
   -4.6539   -1.0095    1.8011 N   0  0  0  0  0  0  0  0  0  0  0  0
   -3.5886   -0.5440    0.9861 C   0  0  0  0  0  0  0  0  0  0  0  0
   -2.4608   -1.1278    1.1994 O   0  0  0  0  0  0  0  0  0  0  0  0
   -3.6391    0.4901   -0.0294 C   0  0  2  0  0  0  0  0  0  0  0  0
   -4.4286    0.1524   -1.2790 C   0  0  0  0  0  0  0  0  0  0  0  0
   -5.8352   -0.1576   -1.1017 C   0  0  0  0  0  0  0  0  0  0  0  0
   -6.4080   -1.3977   -1.1797 C   0  0  0  0  0  0  0  0  0  0  0  0
   -7.7404   -1.2971   -0.9761 N   0  0  0  0  0  0  0  0  0  0  0  0
   -8.0520    0.0106   -0.7629 C   0  0  0  0  0  0  0  0  0  0  0  0
   -9.2595    0.6276   -0.5136 C   0  0  0  0  0  0  0  0  0  0  0  0
   -9.2955    1.9870   -0.3340 C   0  0  0  0  0  0  0  0  0  0  0  0
   -8.1332    2.7523   -0.3998 C   0  0  0  0  0  0  0  0  0  0  0  0
   -8.2456    4.1179   -0.2090 O   0  0  0  0  0  0  0  0  0  0  0  0
   -6.9572    2.0902   -0.6514 C   0  0  0  0  0  0  0  0  0  0  0  0
   -6.8668    0.7267   -0.8386 C   0  0  0  0  0  0  0  0  0  0  0  0
   -2.2698    0.7255   -0.5325 N   0  0  0  0  0  0  0  0  0  0  0  0
   -1.7818    2.0006   -0.7989 C   0  0  0  0  0  0  0  0  0  0  0  0
   -2.5893    2.9739   -0.5861 O   0  0  0  0  0  0  0  0  0  0  0  0
   -0.4584    2.3851   -1.2952 C   0  0  2  0  0  0  0  0  0  0  0  0
   -0.5743    2.6860   -2.8059 C   0  0  0  0  0  0  0  0  0  0  0  0
   -0.7012    1.2689   -3.3357 C   0  0  0  0  0  0  0  0  0  0  0  0
    0.2966    0.5128   -2.4705 C   0  0  0  0  0  0  0  0  0  0  0  0
    0.5297    1.3448   -1.3197 N   0  0  0  0  0  0  0  0  0  0  0  0
    1.5875    1.2073   -0.3984 C   0  0  0  0  0  0  0  0  0  0  0  0
    1.7357    2.0823    0.5178 O   0  0  0  0  0  0  0  0  0  0  0  0
    2.5699    0.0941   -0.4190 C   0  0  2  0  0  0  0  0  0  0  0  0
    1.9325   -1.1609    0.1645 C   0  0  0  0  0  0  0  0  0  0  0  0
    2.8718   -2.2959    0.1687 C   0  0  0  0  0  0  0  0  0  0  0  0
    3.6718   -2.5018    1.2681 C   0  0  0  0  0  0  0  0  0  0  0  0
    4.5808   -3.5626    1.3212 C   0  0  0  0  0  0  0  0  0  0  0  0
    4.6450   -4.4007    0.2212 C   0  0  0  0  0  0  0  0  0  0  0  0
    3.8479   -4.2039   -0.8856 C   0  0  0  0  0  0  0  0  0  0  0  0
    2.9705   -3.1536   -0.8998 C   0  0  0  0  0  0  0  0  0  0  0  0
    3.7290    0.4265    0.4226 N   0  0  0  0  0  0  0  0  0  0  0  0
    5.0418    0.4033   -0.1394 C   0  0  0  0  0  0  0  0  0  0  0  0
    5.1626    0.0909   -1.3407 O   0  0  0  0  0  0  0  0  0  0  0  0
    6.1790    0.7127    0.5835 O   0  0  0  0  0  0  0  0  0  0  0  0
    7.4245    0.6491   -0.1047 C   0  0  0  0  0  0  0  0  0  0  0  0
    8.5699    1.0061    0.7342 C   0  0  0  0  0  0  0  0  0  0  0  0
    9.1566   -0.0009    1.4896 C   0  0  0  0  0  0  0  0  0  0  0  0
   10.2300    0.1955    2.3147 C   0  0  0  0  0  0  0  0  0  0  0  0
   10.7778    1.4638    2.4148 C   0  0  0  0  0  0  0  0  0  0  0  0
   10.2078    2.4801    1.6704 C   0  0  0  0  0  0  0  0  0  0  0  0
    9.1148    2.2564    0.8378 C   0  0  0  0  0  0  0  0  0  0  0  0
   -6.4882   -4.0543    4.3163 H   0  0  0  0  0  0  0  0  0  0  0  0
   -4.0891   -2.9801    2.2671 H   0  0  0  0  0  0  0  0  0  0  0  0
   -3.6976   -1.7201    3.5302 H   0  0  0  0  0  0  0  0  0  0  0  0
   -5.5860   -0.5776    1.7002 H   0  0  0  0  0  0  0  0  0  0  0  0
   -3.9872    1.4885    0.3476 H   0  0  0  0  0  0  0  0  0  0  0  0
   -3.8664   -0.6295   -1.8256 H   0  0  0  0  0  0  0  0  0  0  0  0
   -4.3697    1.0788   -1.9235 H   0  0  0  0  0  0  0  0  0  0  0  0
   -5.9253   -2.3652   -1.3821 H   0  0  0  0  0  0  0  0  0  0  0  0
   -8.4288   -2.0614   -0.9732 H   0  0  0  0  0  0  0  0  0  0  0  0
  -10.1355    0.0064   -0.4735 H   0  0  0  0  0  0  0  0  0  0  0  0
  -10.2551    2.4513   -0.1356 H   0  0  0  0  0  0  0  0  0  0  0  0
   -8.1535    4.4396    0.7622 H   0  0  0  0  0  0  0  0  0  0  0  0
   -6.0459    2.6589   -0.7100 H   0  0  0  0  0  0  0  0  0  0  0  0
   -1.6919   -0.1218   -0.6696 H   0  0  0  0  0  0  0  0  0  0  0  0
   -0.0722    3.3448   -0.8478 H   0  0  0  0  0  0  0  0  0  0  0  0
   -1.4939    3.2853   -2.9598 H   0  0  0  0  0  0  0  0  0  0  0  0
    0.2859    3.2355   -3.1756 H   0  0  0  0  0  0  0  0  0  0  0  0
   -1.7405    0.9135   -3.1180 H   0  0  0  0  0  0  0  0  0  0  0  0
   -0.4382    1.2035   -4.4045 H   0  0  0  0  0  0  0  0  0  0  0  0
    0.0030   -0.5066   -2.2484 H   0  0  0  0  0  0  0  0  0  0  0  0
    1.2205    0.4289   -3.1048 H   0  0  0  0  0  0  0  0  0  0  0  0
    2.9118   -0.1416   -1.4377 H   0  0  0  0  0  0  0  0  0  0  0  0
    1.0438   -1.4759   -0.3845 H   0  0  0  0  0  0  0  0  0  0  0  0
    1.6137   -0.9909    1.2307 H   0  0  0  0  0  0  0  0  0  0  0  0
    3.6498   -1.8651    2.1565 H   0  0  0  0  0  0  0  0  0  0  0  0
    5.1950   -3.7051    2.1931 H   0  0  0  0  0  0  0  0  0  0  0  0
    5.3559   -5.2383    0.2383 H   0  0  0  0  0  0  0  0  0  0  0  0
    3.9316   -4.8983   -1.7363 H   0  0  0  0  0  0  0  0  0  0  0  0
    2.3582   -3.0229   -1.7904 H   0  0  0  0  0  0  0  0  0  0  0  0
    3.5947    0.6747    1.4060 H   0  0  0  0  0  0  0  0  0  0  0  0
    7.4024    1.2673   -1.0318 H   0  0  0  0  0  0  0  0  0  0  0  0
    7.5346   -0.4106   -0.4288 H   0  0  0  0  0  0  0  0  0  0  0  0
    8.7506   -1.0119    1.4240 H   0  0  0  0  0  0  0  0  0  0  0  0
   10.6275   -0.6603    2.8801 H   0  0  0  0  0  0  0  0  0  0  0  0
   11.6380    1.6027    3.0758 H   0  0  0  0  0  0  0  0  0  0  0  0
   10.6431    3.4781    1.7544 H   0  0  0  0  0  0  0  0  0  0  0  0
    8.6734    3.0721    0.2550 H   0  0  0  0  0  0  0  0  0  0  0  0
  1  2  1  0
  2  3  2  0
  2  4  1  0
  4  5  1  0
  5  6  1  0
  6  7  2  0
  6  8  1  0
  8  9  1  0
  9 10  1  0
 10 11  2  0
 11 12  1  0
 12 13  1  0
 13 14  2  0
 14 15  1  0
 15 16  2  0
 16 17  1  0
 16 18  1  0
 18 19  2  0
  8 20  1  0
 20 21  1  0
 21 22  2  0
 21 23  1  0
 23 24  1  0
 24 25  1  0
 25 26  1  0
 26 27  1  0
 27 28  1  0
 28 29  2  0
 28 30  1  0
 30 31  1  0
 31 32  1  0
 32 33  2  0
 33 34  1  0
 34 35  2  0
 35 36  1  0
 36 37  2  0
 30 38  1  0
 38 39  1  0
 39 40  2  0
 39 41  1  0
 41 42  1  0
 42 43  1  0
 43 44  2  0
 44 45  1  0
 45 46  2  0
 46 47  1  0
 47 48  2  0
 19 10  1  0
 27 23  1  0
 37 32  1  0
 48 43  1  0
 19 13  1  0
  1 49  1  0
  4 50  1  0
  4 51  1  0
  5 52  1  0
  8 53  1  1
  9 54  1  0
  9 55  1  0
 11 56  1  0
 12 57  1  0
 14 58  1  0
 15 59  1  0
 17 60  1  0
 18 61  1  0
 20 62  1  0
 23 63  1  1
 24 64  1  0
 24 65  1  0
 25 66  1  0
 25 67  1  0
 26 68  1  0
 26 69  1  0
 30 70  1  6
 31 71  1  0
 31 72  1  0
 33 73  1  0
 34 74  1  0
 35 75  1  0
 36 76  1  0
 37 77  1  0
 38 78  1  0
 42 79  1  0
 42 80  1  0
 44 81  1  0
 45 82  1  0
 46 83  1  0
 47 84  1  0
 48 85  1  0
M  END
$$$$
[H]OC(=O)c1c([H])c(C([H])([H])[H])c(N2C([H])([H])C([H])([H])N(c3nc([H])nc(-c4c([H])nn([H])c4C([H])([H])[H])c3[H])C([H])([H])C2([H])[H])c(C([H])([H])[H])c1[H]
     RDKit          3D

 53 56  0  0  0  0  0  0  0  0999 V2000
   -4.5092   -0.3472    2.2728 C   0  0  0  0  0  0  0  0  0  0  0  0
   -5.3947    0.6172    1.6250 C   0  0  0  0  0  0  0  0  0  0  0  0
   -6.5322    1.0897    2.2020 N   0  0  0  0  0  0  0  0  0  0  0  0
   -7.1298    1.9245    1.3975 N   0  0  0  0  0  0  0  0  0  0  0  0
   -6.3902    2.0083    0.2846 C   0  0  0  0  0  0  0  0  0  0  0  0
   -5.2628    1.1774    0.3985 C   0  0  0  0  0  0  0  0  0  0  0  0
   -4.2828    1.0547   -0.6662 C   0  0  0  0  0  0  0  0  0  0  0  0
   -3.1190    0.3406   -0.5660 C   0  0  0  0  0  0  0  0  0  0  0  0
   -2.2280    0.2865   -1.6442 C   0  0  0  0  0  0  0  0  0  0  0  0
   -2.5469    0.9466   -2.7596 N   0  0  0  0  0  0  0  0  0  0  0  0
   -3.6810    1.6492   -2.8721 C   0  0  0  0  0  0  0  0  0  0  0  0
   -4.5099    1.6929   -1.8538 N   0  0  0  0  0  0  0  0  0  0  0  0
   -1.0248   -0.4429   -1.5630 N   0  0  0  0  0  0  0  0  0  0  0  0
   -0.1095   -0.4889   -2.6816 C   0  0  0  0  0  0  0  0  0  0  0  0
    1.2732   -0.1311   -2.1937 C   0  0  0  0  0  0  0  0  0  0  0  0
    1.6106   -0.8215   -0.9750 N   0  0  0  0  0  0  0  0  0  0  0  0
    0.6682   -1.7717   -0.4248 C   0  0  0  0  0  0  0  0  0  0  0  0
   -0.6988   -1.1539   -0.3517 C   0  0  0  0  0  0  0  0  0  0  0  0
    2.8564   -0.5422   -0.3668 C   0  0  0  0  0  0  0  0  0  0  0  0
    2.9523    0.4593    0.5707 C   0  0  0  0  0  0  0  0  0  0  0  0
    1.8048    1.2921    1.0141 C   0  0  0  0  0  0  0  0  0  0  0  0
    4.2064    0.6719    1.1137 C   0  0  0  0  0  0  0  0  0  0  0  0
    5.3351   -0.0382    0.7830 C   0  0  0  0  0  0  0  0  0  0  0  0
    5.1914   -1.0487   -0.1757 C   0  0  0  0  0  0  0  0  0  0  0  0
    3.9570   -1.2881   -0.7378 C   0  0  0  0  0  0  0  0  0  0  0  0
    3.8639   -2.3802   -1.7566 C   0  0  0  0  0  0  0  0  0  0  0  0
    6.6309    0.2211    1.3800 C   0  0  0  0  0  0  0  0  0  0  0  0
    6.7720    1.2124    2.3199 O   0  0  0  0  0  0  0  0  0  0  0  0
    7.6150   -0.4581    1.0372 O   0  0  0  0  0  0  0  0  0  0  0  0
   -3.5387    0.0694    2.5561 H   0  0  0  0  0  0  0  0  0  0  0  0
   -4.4311   -1.2774    1.6552 H   0  0  0  0  0  0  0  0  0  0  0  0
   -4.9606   -0.7191    3.2312 H   0  0  0  0  0  0  0  0  0  0  0  0
   -6.8864    0.8301    3.1493 H   0  0  0  0  0  0  0  0  0  0  0  0
   -6.6528    2.6316   -0.5529 H   0  0  0  0  0  0  0  0  0  0  0  0
   -2.8560   -0.1896    0.3407 H   0  0  0  0  0  0  0  0  0  0  0  0
   -3.9395    2.1796   -3.7654 H   0  0  0  0  0  0  0  0  0  0  0  0
   -0.3743    0.2837   -3.4517 H   0  0  0  0  0  0  0  0  0  0  0  0
   -0.1226   -1.5089   -3.1633 H   0  0  0  0  0  0  0  0  0  0  0  0
    2.0451   -0.4453   -2.9531 H   0  0  0  0  0  0  0  0  0  0  0  0
    1.3373    0.9566   -2.1489 H   0  0  0  0  0  0  0  0  0  0  0  0
    0.5811   -2.6950   -1.0497 H   0  0  0  0  0  0  0  0  0  0  0  0
    0.9965   -1.9940    0.6055 H   0  0  0  0  0  0  0  0  0  0  0  0
   -0.7741   -0.4323    0.4879 H   0  0  0  0  0  0  0  0  0  0  0  0
   -1.4851   -1.9143   -0.1662 H   0  0  0  0  0  0  0  0  0  0  0  0
    2.1387    2.3414    1.2444 H   0  0  0  0  0  0  0  0  0  0  0  0
    1.2733    0.8425    1.8761 H   0  0  0  0  0  0  0  0  0  0  0  0
    1.0881    1.3783    0.1805 H   0  0  0  0  0  0  0  0  0  0  0  0
    4.3351    1.4561    1.8627 H   0  0  0  0  0  0  0  0  0  0  0  0
    6.0595   -1.6251   -0.4573 H   0  0  0  0  0  0  0  0  0  0  0  0
    4.2670   -3.3021   -1.2682 H   0  0  0  0  0  0  0  0  0  0  0  0
    4.4997   -2.1327   -2.6435 H   0  0  0  0  0  0  0  0  0  0  0  0
    2.8259   -2.5456   -2.0901 H   0  0  0  0  0  0  0  0  0  0  0  0
    7.2564    2.0805    2.1802 H   0  0  0  0  0  0  0  0  0  0  0  0
  1  2  1  0
  2  3  1  0
  3  4  1  0
  4  5  2  0
  5  6  1  0
  6  7  1  0
  7  8  2  0
  8  9  1  0
  9 10  2  0
 10 11  1  0
 11 12  2  0
  9 13  1  0
 13 14  1  0
 14 15  1  0
 15 16  1  0
 16 17  1  0
 17 18  1  0
 16 19  1  0
 19 20  2  0
 20 21  1  0
 20 22  1  0
 22 23  2  0
 23 24  1  0
 24 25  2  0
 25 26  1  0
 23 27  1  0
 27 28  1  0
 27 29  2  0
  6  2  2  0
 12  7  1  0
 18 13  1  0
 25 19  1  0
  1 30  1  0
  1 31  1  0
  1 32  1  0
  3 33  1  0
  5 34  1  0
  8 35  1  0
 11 36  1  0
 14 37  1  0
 14 38  1  0
 15 39  1  0
 15 40  1  0
 17 41  1  0
 17 42  1  0
 18 43  1  0
 18 44  1  0
 21 45  1  0
 21 46  1  0
 21 47  1  0
 22 48  1  0
 24 49  1  0
 26 50  1  0
 26 51  1  0
 26 52  1  0
 28 53  1  0
M  END
$$$$
[H]OC(=O)c1c([H])c([H])c(-c2c([H])c([H])c(N3C([H])([H])C([H])([H])C4(C(=O)N(c5c([H])c(C(F)(F)F)c([H])c(C(F)(F)F)c5[H])C(=O)N4[C@@]4([H])C([H])([H])C([H])([H])OC([H])([H])[C@@]4([H])O[H])C([H])([H])C3([H])[H])c([H])c2[H])c([H])c1[H]
     RDKit          3D

 77 82  0  0  0  0  0  0  0  0999 V2000
   -3.3944   -4.0410   -1.3929 O   0  0  0  0  0  0  0  0  0  0  0  0
   -3.8815   -3.7350   -0.1579 C   0  0  2  0  0  0  0  0  0  0  0  0
   -5.2031   -3.1382   -0.0594 C   0  0  0  0  0  0  0  0  0  0  0  0
   -5.6826   -3.2192    1.2345 O   0  0  0  0  0  0  0  0  0  0  0  0
   -4.8163   -3.6718    2.1664 C   0  0  0  0  0  0  0  0  0  0  0  0
   -3.3813   -3.2245    2.0982 C   0  0  0  0  0  0  0  0  0  0  0  0
   -2.8653   -2.9718    0.7332 C   0  0  2  0  0  0  0  0  0  0  0  0
   -2.5970   -1.6379    0.3623 N   0  0  0  0  0  0  0  0  0  0  0  0
   -3.4679   -0.5306    0.6176 C   0  0  0  0  0  0  0  0  0  0  0  0
   -4.2899   -0.3351    1.5636 O   0  0  0  0  0  0  0  0  0  0  0  0
   -3.3048    0.4599   -0.4060 N   0  0  0  0  0  0  0  0  0  0  0  0
   -2.3094   -0.0663   -1.2849 C   0  0  0  0  0  0  0  0  0  0  0  0
   -2.1827    0.2040   -2.4806 O   0  0  0  0  0  0  0  0  0  0  0  0
   -1.5143   -0.9871   -0.3615 C   0  0  0  0  0  0  0  0  0  0  0  0
   -0.5777   -1.7416   -1.1689 C   0  0  0  0  0  0  0  0  0  0  0  0
    0.8082   -1.9868   -0.5367 C   0  0  0  0  0  0  0  0  0  0  0  0
    1.4146   -0.6975   -0.3003 N   0  0  0  0  0  0  0  0  0  0  0  0
    0.4774    0.4268   -0.2573 C   0  0  0  0  0  0  0  0  0  0  0  0
   -0.7133   -0.0827    0.5801 C   0  0  0  0  0  0  0  0  0  0  0  0
    2.7959   -0.5676   -0.1509 C   0  0  0  0  0  0  0  0  0  0  0  0
    3.3175    0.5735    0.4180 C   0  0  0  0  0  0  0  0  0  0  0  0
    4.6795    0.7621    0.5222 C   0  0  0  0  0  0  0  0  0  0  0  0
    5.5930   -0.1688    0.0706 C   0  0  0  0  0  0  0  0  0  0  0  0
    5.0727   -1.3084   -0.4894 C   0  0  0  0  0  0  0  0  0  0  0  0
    3.6815   -1.5182   -0.6065 C   0  0  0  0  0  0  0  0  0  0  0  0
    7.0086    0.1638    0.1658 C   0  0  0  0  0  0  0  0  0  0  0  0
    7.3471    1.5256    0.0029 C   0  0  0  0  0  0  0  0  0  0  0  0
    8.6650    1.9436    0.0444 C   0  0  0  0  0  0  0  0  0  0  0  0
    9.7040    1.0546    0.2481 C   0  0  0  0  0  0  0  0  0  0  0  0
    9.3716   -0.2788    0.4130 C   0  0  0  0  0  0  0  0  0  0  0  0
    8.0340   -0.7036    0.3682 C   0  0  0  0  0  0  0  0  0  0  0  0
   11.0868    1.4667    0.2455 C   0  0  0  0  0  0  0  0  0  0  0  0
   11.4245    2.7727    0.0019 O   0  0  0  0  0  0  0  0  0  0  0  0
   11.9963    0.6450    0.4618 O   0  0  0  0  0  0  0  0  0  0  0  0
   -4.0261    1.6769   -0.4531 C   0  0  0  0  0  0  0  0  0  0  0  0
   -5.3661    1.6947   -0.1184 C   0  0  0  0  0  0  0  0  0  0  0  0
   -6.1086    2.8681   -0.1113 C   0  0  0  0  0  0  0  0  0  0  0  0
   -5.5003    4.0632   -0.4486 C   0  0  0  0  0  0  0  0  0  0  0  0
   -4.1660    4.0264   -0.7823 C   0  0  0  0  0  0  0  0  0  0  0  0
   -3.4140    2.8526   -0.7934 C   0  0  0  0  0  0  0  0  0  0  0  0
   -3.5523    5.3552   -1.1272 C   0  0  0  0  0  0  0  0  0  0  0  0
   -4.4655    6.0552   -1.9289 F   0  0  0  0  0  0  0  0  0  0  0  0
   -3.4293    6.0632    0.0453 F   0  0  0  0  0  0  0  0  0  0  0  0
   -2.3788    5.2214   -1.8156 F   0  0  0  0  0  0  0  0  0  0  0  0
   -7.5460    2.8467    0.2597 C   0  0  0  0  0  0  0  0  0  0  0  0
   -7.6990    2.9727    1.6357 F   0  0  0  0  0  0  0  0  0  0  0  0
   -8.1833    1.7010   -0.1440 F   0  0  0  0  0  0  0  0  0  0  0  0
   -8.1501    3.9233   -0.3226 F   0  0  0  0  0  0  0  0  0  0  0  0
   -2.5211   -4.5162   -1.3681 H   0  0  0  0  0  0  0  0  0  0  0  0
   -3.9828   -4.7690    0.3603 H   0  0  0  0  0  0  0  0  0  0  0  0
   -5.2419   -2.1053   -0.4146 H   0  0  0  0  0  0  0  0  0  0  0  0
   -5.8895   -3.7221   -0.7648 H   0  0  0  0  0  0  0  0  0  0  0  0
   -5.2009   -3.3313    3.1656 H   0  0  0  0  0  0  0  0  0  0  0  0
   -4.9518   -4.7825    2.2144 H   0  0  0  0  0  0  0  0  0  0  0  0
   -2.8219   -4.1133    2.4980 H   0  0  0  0  0  0  0  0  0  0  0  0
   -3.1374   -2.4271    2.8360 H   0  0  0  0  0  0  0  0  0  0  0  0
   -1.9038   -3.5389    0.5481 H   0  0  0  0  0  0  0  0  0  0  0  0
   -0.9362   -2.6458   -1.6967 H   0  0  0  0  0  0  0  0  0  0  0  0
   -0.2866   -1.0769   -2.0574 H   0  0  0  0  0  0  0  0  0  0  0  0
    0.7629   -2.6392    0.3346 H   0  0  0  0  0  0  0  0  0  0  0  0
    1.3927   -2.5129   -1.3442 H   0  0  0  0  0  0  0  0  0  0  0  0
    0.1318    0.7057   -1.2810 H   0  0  0  0  0  0  0  0  0  0  0  0
    0.8609    1.3357    0.1978 H   0  0  0  0  0  0  0  0  0  0  0  0
   -1.2429    0.8079    0.8941 H   0  0  0  0  0  0  0  0  0  0  0  0
   -0.2842   -0.6363    1.4251 H   0  0  0  0  0  0  0  0  0  0  0  0
    2.6518    1.3421    0.7968 H   0  0  0  0  0  0  0  0  0  0  0  0
    5.0174    1.6731    0.9782 H   0  0  0  0  0  0  0  0  0  0  0  0
    5.7809   -2.0555   -0.8443 H   0  0  0  0  0  0  0  0  0  0  0  0
    3.3296   -2.4262   -1.0727 H   0  0  0  0  0  0  0  0  0  0  0  0
    6.5663    2.2208   -0.1482 H   0  0  0  0  0  0  0  0  0  0  0  0
    8.9378    2.9981   -0.0910 H   0  0  0  0  0  0  0  0  0  0  0  0
   10.1718   -1.0004    0.5809 H   0  0  0  0  0  0  0  0  0  0  0  0
    7.8142   -1.7416    0.4944 H   0  0  0  0  0  0  0  0  0  0  0  0
   11.0155    3.5203    0.5443 H   0  0  0  0  0  0  0  0  0  0  0  0
   -5.9151    0.8004    0.1635 H   0  0  0  0  0  0  0  0  0  0  0  0
   -6.0701    4.9891   -0.4381 H   0  0  0  0  0  0  0  0  0  0  0  0
   -2.3590    2.9409   -1.0790 H   0  0  0  0  0  0  0  0  0  0  0  0
  1  2  1  0
  2  3  1  0
  3  4  1  0
  4  5  1  0
  5  6  1  0
  6  7  1  0
  7  8  1  0
  8  9  1  0
  9 10  2  0
  9 11  1  0
 11 12  1  0
 12 13  2  0
 12 14  1  0
 14 15  1  0
 15 16  1  0
 16 17  1  0
 17 18  1  0
 18 19  1  0
 17 20  1  0
 20 21  2  0
 21 22  1  0
 22 23  2  0
 23 24  1  0
 24 25  2  0
 23 26  1  0
 26 27  2  0
 27 28  1  0
 28 29  2  0
 29 30  1  0
 30 31  2  0
 29 32  1  0
 32 33  1  0
 32 34  2  0
 11 35  1  0
 35 36  2  0
 36 37  1  0
 37 38  2  0
 38 39  1  0
 39 40  2  0
 39 41  1  0
 41 42  1  0
 41 43  1  0
 41 44  1  0
 37 45  1  0
 45 46  1  0
 45 47  1  0
 45 48  1  0
  7  2  1  0
 14  8  1  0
 19 14  1  0
 25 20  1  0
 31 26  1  0
 40 35  1  0
  1 49  1  0
  2 50  1  1
  3 51  1  0
  3 52  1  0
  5 53  1  0
  5 54  1  0
  6 55  1  0
  6 56  1  0
  7 57  1  1
 15 58  1  0
 15 59  1  0
 16 60  1  0
 16 61  1  0
 18 62  1  0
 18 63  1  0
 19 64  1  0
 19 65  1  0
 21 66  1  0
 22 67  1  0
 24 68  1  0
 25 69  1  0
 27 70  1  0
 28 71  1  0
 30 72  1  0
 31 73  1  0
 33 74  1  0
 36 75  1  0
 38 76  1  0
 40 77  1  0
M  END
$$$$
[H]OC(=O)C([H])([H])[C@@]([H])(C(=O)N([H])[C@]([H])(C(=O)N([H])[C@]([H])(C(=O)O[H])C([H])([H])c1c([H])c([H])c([H])c([H])c1[H])C([H])([H])C([H])(C([H])([H])[H])C([H])([H])[H])N([H])C(=O)C([H])([H])C([H])([H])c1c([H])nc([H])c([H])c1[H]
     RDKit          3D

 72 73  0  0  0  0  0  0  0  0999 V2000
    4.0494    2.3520   -2.6566 C   0  0  0  0  0  0  0  0  0  0  0  0
    3.2939    2.4442   -1.3360 C   0  0  0  0  0  0  0  0  0  0  0  0
    3.3677    3.9706   -1.0007 C   0  0  0  0  0  0  0  0  0  0  0  0
    1.8786    2.0611   -1.4537 C   0  0  0  0  0  0  0  0  0  0  0  0
    1.4604    0.7515   -1.9095 C   0  0  2  0  0  0  0  0  0  0  0  0
   -0.0488    0.8140   -1.9712 N   0  0  0  0  0  0  0  0  0  0  0  0
   -0.8478    0.7270   -0.8381 C   0  0  0  0  0  0  0  0  0  0  0  0
   -0.3678    0.6008    0.3092 O   0  0  0  0  0  0  0  0  0  0  0  0
   -2.3412    0.7902   -1.0336 C   0  0  2  0  0  0  0  0  0  0  0  0
   -2.6444    2.0354   -1.8025 C   0  0  0  0  0  0  0  0  0  0  0  0
   -4.0967    2.2123   -2.0599 C   0  0  0  0  0  0  0  0  0  0  0  0
   -4.6573    1.8857   -3.2640 O   0  0  0  0  0  0  0  0  0  0  0  0
   -4.7980    2.6802   -1.1132 O   0  0  0  0  0  0  0  0  0  0  0  0
   -3.0253    0.6977    0.2303 N   0  0  0  0  0  0  0  0  0  0  0  0
   -3.8366   -0.4332    0.6160 C   0  0  0  0  0  0  0  0  0  0  0  0
   -3.8917   -1.3363   -0.2531 O   0  0  0  0  0  0  0  0  0  0  0  0
   -4.5097   -0.4562    1.9275 C   0  0  0  0  0  0  0  0  0  0  0  0
   -5.3015   -1.6419    2.2752 C   0  0  0  0  0  0  0  0  0  0  0  0
   -6.4218   -2.0326    1.4543 C   0  0  0  0  0  0  0  0  0  0  0  0
   -7.6784   -1.4274    1.5808 C   0  0  0  0  0  0  0  0  0  0  0  0
   -8.7560   -1.8206    0.8208 C   0  0  0  0  0  0  0  0  0  0  0  0
   -8.6200   -2.8424   -0.1034 C   0  0  0  0  0  0  0  0  0  0  0  0
   -7.4146   -3.4189   -0.2201 N   0  0  0  0  0  0  0  0  0  0  0  0
   -6.3360   -3.0370    0.5300 C   0  0  0  0  0  0  0  0  0  0  0  0
    1.6750   -0.3793   -1.0011 C   0  0  0  0  0  0  0  0  0  0  0  0
    0.9039   -1.4267   -1.1314 O   0  0  0  0  0  0  0  0  0  0  0  0
    2.6198   -0.4842    0.0129 N   0  0  0  0  0  0  0  0  0  0  0  0
    2.6797   -1.7362    0.8374 C   0  0  1  0  0  0  0  0  0  0  0  0
    4.0054   -2.3596    0.5929 C   0  0  0  0  0  0  0  0  0  0  0  0
    5.1762   -1.5635    0.9409 C   0  0  0  0  0  0  0  0  0  0  0  0
    5.7088   -1.6604    2.2191 C   0  0  0  0  0  0  0  0  0  0  0  0
    6.8099   -0.9460    2.6193 C   0  0  0  0  0  0  0  0  0  0  0  0
    7.4392   -0.0882    1.7462 C   0  0  0  0  0  0  0  0  0  0  0  0
    6.9377    0.0362    0.4610 C   0  0  0  0  0  0  0  0  0  0  0  0
    5.8225   -0.6971    0.0791 C   0  0  0  0  0  0  0  0  0  0  0  0
    2.4040   -1.3342    2.2199 C   0  0  0  0  0  0  0  0  0  0  0  0
    2.3801   -2.2950    3.2177 O   0  0  0  0  0  0  0  0  0  0  0  0
    2.1845   -0.1432    2.5517 O   0  0  0  0  0  0  0  0  0  0  0  0
    4.2741    1.2928   -2.8982 H   0  0  0  0  0  0  0  0  0  0  0  0
    3.5825    2.9205   -3.4597 H   0  0  0  0  0  0  0  0  0  0  0  0
    5.0489    2.8291   -2.4570 H   0  0  0  0  0  0  0  0  0  0  0  0
    3.9062    1.9824   -0.5915 H   0  0  0  0  0  0  0  0  0  0  0  0
    3.2893    4.0762    0.0917 H   0  0  0  0  0  0  0  0  0  0  0  0
    4.3129    4.3833   -1.3515 H   0  0  0  0  0  0  0  0  0  0  0  0
    2.4650    4.4288   -1.4548 H   0  0  0  0  0  0  0  0  0  0  0  0
    1.3958    2.3287   -0.4411 H   0  0  0  0  0  0  0  0  0  0  0  0
    1.3855    2.8779   -2.1049 H   0  0  0  0  0  0  0  0  0  0  0  0
    1.8253    0.4402   -2.9223 H   0  0  0  0  0  0  0  0  0  0  0  0
   -0.4173    0.9265   -2.9334 H   0  0  0  0  0  0  0  0  0  0  0  0
   -2.6366   -0.1078   -1.6188 H   0  0  0  0  0  0  0  0  0  0  0  0
   -2.2246    2.9405   -1.3076 H   0  0  0  0  0  0  0  0  0  0  0  0
   -2.1614    1.9410   -2.8029 H   0  0  0  0  0  0  0  0  0  0  0  0
   -4.0456    1.6567   -4.0378 H   0  0  0  0  0  0  0  0  0  0  0  0
   -2.9454    1.4703    0.9125 H   0  0  0  0  0  0  0  0  0  0  0  0
   -3.6537   -0.4158    2.6793 H   0  0  0  0  0  0  0  0  0  0  0  0
   -5.0300    0.5190    2.1388 H   0  0  0  0  0  0  0  0  0  0  0  0
   -4.5901   -2.5246    2.3060 H   0  0  0  0  0  0  0  0  0  0  0  0
   -5.6331   -1.5357    3.3513 H   0  0  0  0  0  0  0  0  0  0  0  0
   -7.7378   -0.6359    2.3131 H   0  0  0  0  0  0  0  0  0  0  0  0
   -9.7306   -1.3385    0.9310 H   0  0  0  0  0  0  0  0  0  0  0  0
   -9.4744   -3.1591   -0.7114 H   0  0  0  0  0  0  0  0  0  0  0  0
   -5.4274   -3.6013    0.3439 H   0  0  0  0  0  0  0  0  0  0  0  0
    3.3328    0.1886    0.3342 H   0  0  0  0  0  0  0  0  0  0  0  0
    1.8850   -2.4258    0.4850 H   0  0  0  0  0  0  0  0  0  0  0  0
    4.0645   -2.5709   -0.5147 H   0  0  0  0  0  0  0  0  0  0  0  0
    4.0151   -3.3809    1.0545 H   0  0  0  0  0  0  0  0  0  0  0  0
    5.2511   -2.3174    2.9267 H   0  0  0  0  0  0  0  0  0  0  0  0
    7.2112   -1.0339    3.6173 H   0  0  0  0  0  0  0  0  0  0  0  0
    8.3147    0.4698    2.0912 H   0  0  0  0  0  0  0  0  0  0  0  0
    7.4480    0.7168   -0.2125 H   0  0  0  0  0  0  0  0  0  0  0  0
    5.4345   -0.5923   -0.9354 H   0  0  0  0  0  0  0  0  0  0  0  0
    2.0627   -3.2479    3.0851 H   0  0  0  0  0  0  0  0  0  0  0  0
  1  2  1  0
  2  3  1  0
  2  4  1  0
  4  5  1  0
  5  6  1  0
  6  7  1  0
  7  8  2  0
  7  9  1  0
  9 10  1  0
 10 11  1  0
 11 12  1  0
 11 13  2  0
  9 14  1  0
 14 15  1  0
 15 16  2  0
 15 17  1  0
 17 18  1  0
 18 19  1  0
 19 20  2  0
 20 21  1  0
 21 22  2  0
 22 23  1  0
 23 24  2  0
  5 25  1  0
 25 26  2  0
 25 27  1  0
 27 28  1  0
 28 29  1  0
 29 30  1  0
 30 31  2  0
 31 32  1  0
 32 33  2  0
 33 34  1  0
 34 35  2  0
 28 36  1  0
 36 37  1  0
 36 38  2  0
 24 19  1  0
 35 30  1  0
  1 39  1  0
  1 40  1  0
  1 41  1  0
  2 42  1  0
  3 43  1  0
  3 44  1  0
  3 45  1  0
  4 46  1  0
  4 47  1  0
  5 48  1  6
  6 49  1  0
  9 50  1  6
 10 51  1  0
 10 52  1  0
 12 53  1  0
 14 54  1  0
 17 55  1  0
 17 56  1  0
 18 57  1  0
 18 58  1  0
 20 59  1  0
 21 60  1  0
 22 61  1  0
 24 62  1  0
 27 63  1  0
 28 64  1  6
 29 65  1  0
 29 66  1  0
 31 67  1  0
 32 68  1  0
 33 69  1  0
 34 70  1  0
 35 71  1  0
 37 72  1  0
M  END
$$$$
[H]OC1([H])C([H])([H])C([H])([H])N(C([H])([H])c2c([H])c([H])c(C(=O)N([H])[C@]([H])(C(=O)N([H])C([H])([H])[H])C([H])([H])c3c([H])c([H])c([H])c([H])c3[H])c([H])c2[H])C([H])([H])C1([H])[H]
     RDKit          3D

 58 60  0  0  0  0  0  0  0  0999 V2000
    4.9001    3.8176    0.7199 C   0  0  0  0  0  0  0  0  0  0  0  0
    4.7761    2.3760    0.6819 N   0  0  0  0  0  0  0  0  0  0  0  0
    3.6565    1.7154    0.1923 C   0  0  0  0  0  0  0  0  0  0  0  0
    2.7176    2.5084   -0.2337 O   0  0  0  0  0  0  0  0  0  0  0  0
    3.3481    0.3118    0.0786 C   0  0  2  0  0  0  0  0  0  0  0  0
    4.1798   -0.5371   -0.8226 C   0  0  0  0  0  0  0  0  0  0  0  0
    5.6080   -0.6527   -0.5382 C   0  0  0  0  0  0  0  0  0  0  0  0
    6.5448    0.1073   -1.2004 C   0  0  0  0  0  0  0  0  0  0  0  0
    7.9078   -0.0079   -0.9091 C   0  0  0  0  0  0  0  0  0  0  0  0
    8.3684   -0.8858    0.0530 C   0  0  0  0  0  0  0  0  0  0  0  0
    7.4114   -1.6494    0.7180 C   0  0  0  0  0  0  0  0  0  0  0  0
    6.0857   -1.5365    0.4300 C   0  0  0  0  0  0  0  0  0  0  0  0
    1.9550    0.0855   -0.3640 N   0  0  0  0  0  0  0  0  0  0  0  0
    1.0087   -0.6048    0.4533 C   0  0  0  0  0  0  0  0  0  0  0  0
    1.3734   -1.0177    1.5562 O   0  0  0  0  0  0  0  0  0  0  0  0
   -0.3447   -0.7940   -0.0328 C   0  0  0  0  0  0  0  0  0  0  0  0
   -1.0226   -1.9792    0.1936 C   0  0  0  0  0  0  0  0  0  0  0  0
   -2.3020   -2.1414   -0.2670 C   0  0  0  0  0  0  0  0  0  0  0  0
   -2.9421   -1.1484   -0.9548 C   0  0  0  0  0  0  0  0  0  0  0  0
   -4.3199   -1.2364   -1.4894 C   0  0  0  0  0  0  0  0  0  0  0  0
   -5.1817   -0.3348   -0.7633 N   0  0  0  0  0  0  0  0  0  0  0  0
   -6.5190   -0.3896   -1.3282 C   0  0  0  0  0  0  0  0  0  0  0  0
   -7.4280    0.6166   -0.6915 C   0  0  0  0  0  0  0  0  0  0  0  0
   -7.1536    0.7300    0.8144 C   0  0  0  0  0  0  0  0  0  0  0  0
   -6.1889    1.7447    0.9576 O   0  0  0  0  0  0  0  0  0  0  0  0
   -6.5878   -0.6182    1.2260 C   0  0  0  0  0  0  0  0  0  0  0  0
   -5.1722   -0.6797    0.6281 C   0  0  0  0  0  0  0  0  0  0  0  0
   -2.2595    0.0371   -1.1770 C   0  0  0  0  0  0  0  0  0  0  0  0
   -0.9827    0.2359   -0.7341 C   0  0  0  0  0  0  0  0  0  0  0  0
    5.8063    4.1292    1.2873 H   0  0  0  0  0  0  0  0  0  0  0  0
    4.0500    4.2925    1.2912 H   0  0  0  0  0  0  0  0  0  0  0  0
    4.9850    4.2710   -0.2859 H   0  0  0  0  0  0  0  0  0  0  0  0
    5.5764    1.8276    1.0539 H   0  0  0  0  0  0  0  0  0  0  0  0
    3.3916   -0.1614    1.0912 H   0  0  0  0  0  0  0  0  0  0  0  0
    3.9964   -0.2832   -1.9125 H   0  0  0  0  0  0  0  0  0  0  0  0
    3.7447   -1.5733   -0.7441 H   0  0  0  0  0  0  0  0  0  0  0  0
    6.2374    0.8334   -1.9766 H   0  0  0  0  0  0  0  0  0  0  0  0
    8.6554    0.6019   -1.4232 H   0  0  0  0  0  0  0  0  0  0  0  0
    9.4330   -0.9837    0.2860 H   0  0  0  0  0  0  0  0  0  0  0  0
    7.7623   -2.3376    1.4708 H   0  0  0  0  0  0  0  0  0  0  0  0
    5.3307   -2.1225    0.9328 H   0  0  0  0  0  0  0  0  0  0  0  0
    1.6642    0.4387   -1.2795 H   0  0  0  0  0  0  0  0  0  0  0  0
   -0.4888   -2.7640    0.7371 H   0  0  0  0  0  0  0  0  0  0  0  0
   -2.8221   -3.0766   -0.0979 H   0  0  0  0  0  0  0  0  0  0  0  0
   -4.6510   -2.2913   -1.4871 H   0  0  0  0  0  0  0  0  0  0  0  0
   -4.2475   -0.9263   -2.5641 H   0  0  0  0  0  0  0  0  0  0  0  0
   -6.9431   -1.4011   -1.3562 H   0  0  0  0  0  0  0  0  0  0  0  0
   -6.3990   -0.0888   -2.4015 H   0  0  0  0  0  0  0  0  0  0  0  0
   -7.3172    1.6291   -1.1021 H   0  0  0  0  0  0  0  0  0  0  0  0
   -8.4673    0.2246   -0.8090 H   0  0  0  0  0  0  0  0  0  0  0  0
   -8.0858    0.9335    1.3733 H   0  0  0  0  0  0  0  0  0  0  0  0
   -6.4270    2.4123    1.6335 H   0  0  0  0  0  0  0  0  0  0  0  0
   -7.1865   -1.4043    0.7169 H   0  0  0  0  0  0  0  0  0  0  0  0
   -6.5231   -0.7274    2.3066 H   0  0  0  0  0  0  0  0  0  0  0  0
   -4.7094   -1.6370    0.8765 H   0  0  0  0  0  0  0  0  0  0  0  0
   -4.6094    0.1005    1.1811 H   0  0  0  0  0  0  0  0  0  0  0  0
   -2.7470    0.8467   -1.7305 H   0  0  0  0  0  0  0  0  0  0  0  0
   -0.4458    1.1649   -0.9060 H   0  0  0  0  0  0  0  0  0  0  0  0
  1  2  1  0
  2  3  1  0
  3  4  2  0
  3  5  1  0
  5  6  1  0
  6  7  1  0
  7  8  2  0
  8  9  1  0
  9 10  2  0
 10 11  1  0
 11 12  2  0
  5 13  1  0
 13 14  1  0
 14 15  2  0
 14 16  1  0
 16 17  2  0
 17 18  1  0
 18 19  2  0
 19 20  1  0
 20 21  1  0
 21 22  1  0
 22 23  1  0
 23 24  1  0
 24 25  1  0
 24 26  1  0
 26 27  1  0
 19 28  1  0
 28 29  2  0
 12  7  1  0
 29 16  1  0
 27 21  1  0
  1 30  1  0
  1 31  1  0
  1 32  1  0
  2 33  1  0
  5 34  1  1
  6 35  1  0
  6 36  1  0
  8 37  1  0
  9 38  1  0
 10 39  1  0
 11 40  1  0
 12 41  1  0
 13 42  1  0
 17 43  1  0
 18 44  1  0
 20 45  1  0
 20 46  1  0
 22 47  1  0
 22 48  1  0
 23 49  1  0
 23 50  1  0
 24 51  1  0
 25 52  1  0
 26 53  1  0
 26 54  1  0
 27 55  1  0
 27 56  1  0
 28 57  1  0
 29 58  1  0
M  END
$$$$
[H]c1c([H])c(F)c([H])c(Oc2c([H])c([H])c(N3C(=O)C([H])([H])C4(C([H])([H])C3([H])[H])C([H])([H])C([H])([H])N(C([H])([H])c3c([H])c([H])c([H])c([H])c3S(=O)(=O)C([H])([H])[H])C([H])([H])C4([H])[H])c([H])c2[H])c1[H]
     RDKit          3D

 68 72  0  0  0  0  0  0  0  0999 V2000
   -6.8761   -1.4301   -1.6106 C   0  0  0  0  0  0  0  0  0  0  0  0
   -7.4534   -0.9617   -0.0075 S   0  0  0  0  0  0  0  0  0  0  0  0
   -8.9740   -0.8875   -0.0990 O   0  0  0  0  0  0  0  0  0  0  0  0
   -7.2217   -2.0878    0.9889 O   0  0  0  0  0  0  0  0  0  0  0  0
   -6.9079    0.5649    0.5649 C   0  0  0  0  0  0  0  0  0  0  0  0
   -7.8007    1.6180    0.8049 C   0  0  0  0  0  0  0  0  0  0  0  0
   -7.4027    2.8385    1.2922 C   0  0  0  0  0  0  0  0  0  0  0  0
   -6.0742    3.0287    1.5544 C   0  0  0  0  0  0  0  0  0  0  0  0
   -5.1538    1.9899    1.3205 C   0  0  0  0  0  0  0  0  0  0  0  0
   -5.5624    0.8035    0.8347 C   0  0  0  0  0  0  0  0  0  0  0  0
   -4.6650   -0.3308    0.4235 C   0  0  0  0  0  0  0  0  0  0  0  0
   -3.7848    0.1041   -0.6012 N   0  0  0  0  0  0  0  0  0  0  0  0
   -3.0518   -0.9879   -1.1991 C   0  0  0  0  0  0  0  0  0  0  0  0
   -2.0519   -1.4315   -0.1722 C   0  0  0  0  0  0  0  0  0  0  0  0
   -1.1013   -0.2750    0.1155 C   0  0  0  0  0  0  0  0  0  0  0  0
   -0.3834   -0.6154    1.3758 C   0  0  0  0  0  0  0  0  0  0  0  0
    0.8033   -1.5271    1.1289 C   0  0  0  0  0  0  0  0  0  0  0  0
    1.7073   -0.8044    0.2964 N   0  0  0  0  0  0  0  0  0  0  0  0
    1.1572   -0.1875   -0.8873 C   0  0  0  0  0  0  0  0  0  0  0  0
    1.9445    0.2886   -1.7290 O   0  0  0  0  0  0  0  0  0  0  0  0
   -0.2763   -0.1062   -1.1186 C   0  0  0  0  0  0  0  0  0  0  0  0
    3.1076   -0.6812    0.4868 C   0  0  0  0  0  0  0  0  0  0  0  0
    3.8191   -1.7770    0.9301 C   0  0  0  0  0  0  0  0  0  0  0  0
    5.1799   -1.7639    0.9801 C   0  0  0  0  0  0  0  0  0  0  0  0
    5.9297   -0.6274    0.5817 C   0  0  0  0  0  0  0  0  0  0  0  0
    7.2772   -0.7030    0.6648 O   0  0  0  0  0  0  0  0  0  0  0  0
    8.3610   -0.1256    0.1816 C   0  0  0  0  0  0  0  0  0  0  0  0
    8.7904    1.1472    0.5056 C   0  0  0  0  0  0  0  0  0  0  0  0
    9.9534    1.6899   -0.0251 C   0  0  0  0  0  0  0  0  0  0  0  0
   10.7172    0.9616   -0.8974 C   0  0  0  0  0  0  0  0  0  0  0  0
   10.3252   -0.2996   -1.2473 C   0  0  0  0  0  0  0  0  0  0  0  0
   11.1026   -0.9932   -2.1155 F   0  0  0  0  0  0  0  0  0  0  0  0
    9.1583   -0.8187   -0.7047 C   0  0  0  0  0  0  0  0  0  0  0  0
    5.2104    0.4514    0.1492 C   0  0  0  0  0  0  0  0  0  0  0  0
    3.8113    0.4378    0.1012 C   0  0  0  0  0  0  0  0  0  0  0  0
   -1.7791    1.0531    0.3633 C   0  0  0  0  0  0  0  0  0  0  0  0
   -2.9800    1.2180   -0.5488 C   0  0  0  0  0  0  0  0  0  0  0  0
   -6.0326   -2.1487   -1.5708 H   0  0  0  0  0  0  0  0  0  0  0  0
   -7.7002   -2.0031   -2.1593 H   0  0  0  0  0  0  0  0  0  0  0  0
   -6.6030   -0.5311   -2.1758 H   0  0  0  0  0  0  0  0  0  0  0  0
   -8.8450    1.4659    0.5557 H   0  0  0  0  0  0  0  0  0  0  0  0
   -8.1184    3.6519    1.4546 H   0  0  0  0  0  0  0  0  0  0  0  0
   -5.6859    3.9610    1.9338 H   0  0  0  0  0  0  0  0  0  0  0  0
   -4.1368    2.1789    1.6431 H   0  0  0  0  0  0  0  0  0  0  0  0
   -3.9401   -0.3708    1.3590 H   0  0  0  0  0  0  0  0  0  0  0  0
   -5.0575   -1.3041    0.3973 H   0  0  0  0  0  0  0  0  0  0  0  0
   -3.6735   -1.8272   -1.5112 H   0  0  0  0  0  0  0  0  0  0  0  0
   -2.4719   -0.5585   -2.0678 H   0  0  0  0  0  0  0  0  0  0  0  0
   -1.4056   -2.1899   -0.7141 H   0  0  0  0  0  0  0  0  0  0  0  0
   -2.4794   -1.8864    0.7110 H   0  0  0  0  0  0  0  0  0  0  0  0
   -1.1236   -1.1934    2.0178 H   0  0  0  0  0  0  0  0  0  0  0  0
   -0.0318    0.2647    1.9343 H   0  0  0  0  0  0  0  0  0  0  0  0
    1.1724   -1.9049    2.0734 H   0  0  0  0  0  0  0  0  0  0  0  0
    0.3763   -2.3721    0.4900 H   0  0  0  0  0  0  0  0  0  0  0  0
   -0.5213   -0.8596   -1.9304 H   0  0  0  0  0  0  0  0  0  0  0  0
   -0.4894    0.8804   -1.6341 H   0  0  0  0  0  0  0  0  0  0  0  0
    3.2247   -2.6429    1.2423 H   0  0  0  0  0  0  0  0  0  0  0  0
    5.7488   -2.6201    1.3203 H   0  0  0  0  0  0  0  0  0  0  0  0
    8.1651    1.7000    1.1903 H   0  0  0  0  0  0  0  0  0  0  0  0
   10.2708    2.6847    0.2186 H   0  0  0  0  0  0  0  0  0  0  0  0
   11.6469    1.4072   -1.2703 H   0  0  0  0  0  0  0  0  0  0  0  0
    8.8927   -1.8126   -1.0338 H   0  0  0  0  0  0  0  0  0  0  0  0
    5.7157    1.3429   -0.1845 H   0  0  0  0  0  0  0  0  0  0  0  0
    3.2673    1.3273   -0.2023 H   0  0  0  0  0  0  0  0  0  0  0  0
   -1.0618    1.8474    0.0334 H   0  0  0  0  0  0  0  0  0  0  0  0
   -1.9889    1.2183    1.4195 H   0  0  0  0  0  0  0  0  0  0  0  0
   -2.5380    1.3279   -1.6181 H   0  0  0  0  0  0  0  0  0  0  0  0
   -3.4306    2.1939   -0.4043 H   0  0  0  0  0  0  0  0  0  0  0  0
  1  2  1  0
  2  3  2  0
  2  4  2  0
  2  5  1  0
  5  6  2  0
  6  7  1  0
  7  8  2  0
  8  9  1  0
  9 10  2  0
 10 11  1  0
 11 12  1  0
 12 13  1  0
 13 14  1  0
 14 15  1  0
 15 16  1  0
 16 17  1  0
 17 18  1  0
 18 19  1  0
 19 20  2  0
 19 21  1  0
 18 22  1  0
 22 23  2  0
 23 24  1  0
 24 25  2  0
 25 26  1  0
 26 27  1  0
 27 28  2  0
 28 29  1  0
 29 30  2  0
 30 31  1  0
 31 32  1  0
 31 33  2  0
 25 34  1  0
 34 35  2  0
 15 36  1  0
 36 37  1  0
 10  5  1  0
 37 12  1  0
 21 15  1  0
 35 22  1  0
 33 27  1  0
  1 38  1  0
  1 39  1  0
  1 40  1  0
  6 41  1  0
  7 42  1  0
  8 43  1  0
  9 44  1  0
 11 45  1  0
 11 46  1  0
 13 47  1  0
 13 48  1  0
 14 49  1  0
 14 50  1  0
 16 51  1  0
 16 52  1  0
 17 53  1  0
 17 54  1  0
 21 55  1  0
 21 56  1  0
 23 57  1  0
 24 58  1  0
 28 59  1  0
 29 60  1  0
 30 61  1  0
 33 62  1  0
 34 63  1  0
 35 64  1  0
 36 65  1  0
 36 66  1  0
 37 67  1  0
 37 68  1  0
M  END
$$$$
[H]OC(=O)c1c([H])c([H])c(-c2c([H])c([H])c(C([H])([H])[C@]([H])(C(=O)N3C([H])([H])C([H])([H])C([H])([H])[C@@]3([H])C(=O)N([H])C([H])([H])C(=O)N([H])C(C([H])([H])[H])(C([H])([H])[H])C([H])([H])O[H])N(C(=O)C([H])([H])C([H])([H])C(=O)O[H])C3([H])C([H])([H])C([H])([H])C([H])([H])C([H])([H])C3([H])[H])c([H])c2[H])c([H])c1[H]
     RDKit          3D

 98101  0  0  0  0  0  0  0  0999 V2000
    7.1986    3.1585   -1.4611 C   0  0  0  0  0  0  0  0  0  0  0  0
    6.4798    3.8173   -0.3100 C   0  0  0  0  0  0  0  0  0  0  0  0
    6.5757    5.3121   -0.5126 C   0  0  0  0  0  0  0  0  0  0  0  0
    7.3113    3.5197    0.9361 C   0  0  0  0  0  0  0  0  0  0  0  0
    6.8077    4.1828    2.0478 O   0  0  0  0  0  0  0  0  0  0  0  0
    5.1189    3.4196   -0.1511 N   0  0  0  0  0  0  0  0  0  0  0  0
    4.6988    2.0803    0.1165 C   0  0  0  0  0  0  0  0  0  0  0  0
    5.5379    1.1745    0.2263 O   0  0  0  0  0  0  0  0  0  0  0  0
    3.2544    1.8280    0.2556 C   0  0  0  0  0  0  0  0  0  0  0  0
    2.8826    0.4718    0.5266 N   0  0  0  0  0  0  0  0  0  0  0  0
    3.1711   -0.5678   -0.3801 C   0  0  0  0  0  0  0  0  0  0  0  0
    3.7683   -0.2687   -1.4403 O   0  0  0  0  0  0  0  0  0  0  0  0
    2.8071   -1.9186   -0.1066 C   0  0  2  0  0  0  0  0  0  0  0  0
    2.8084   -2.9386   -1.1947 C   0  0  0  0  0  0  0  0  0  0  0  0
    2.3598   -4.1742   -0.3803 C   0  0  0  0  0  0  0  0  0  0  0  0
    1.8225   -3.5970    0.9609 C   0  0  0  0  0  0  0  0  0  0  0  0
    1.5418   -2.2366    0.5141 N   0  0  0  0  0  0  0  0  0  0  0  0
    0.2928   -1.6075    0.6108 C   0  0  0  0  0  0  0  0  0  0  0  0
    0.2149   -0.5413   -0.1350 O   0  0  0  0  0  0  0  0  0  0  0  0
   -0.8761   -1.9850    1.4109 C   0  0  1  0  0  0  0  0  0  0  0  0
   -1.4542   -0.8593    2.2240 C   0  0  0  0  0  0  0  0  0  0  0  0
   -1.9415    0.3615    1.6418 C   0  0  0  0  0  0  0  0  0  0  0  0
   -1.1288    1.4771    1.5238 C   0  0  0  0  0  0  0  0  0  0  0  0
   -1.5680    2.6696    1.0035 C   0  0  0  0  0  0  0  0  0  0  0  0
   -2.8602    2.8182    0.5659 C   0  0  0  0  0  0  0  0  0  0  0  0
   -3.6923    1.7299    0.6694 C   0  0  0  0  0  0  0  0  0  0  0  0
   -3.2332    0.5476    1.1923 C   0  0  0  0  0  0  0  0  0  0  0  0
   -3.3423    4.1034    0.0144 C   0  0  0  0  0  0  0  0  0  0  0  0
   -2.8346    5.3138    0.4857 C   0  0  0  0  0  0  0  0  0  0  0  0
   -3.2383    6.5237    0.0090 C   0  0  0  0  0  0  0  0  0  0  0  0
   -4.1962    6.5781   -0.9896 C   0  0  0  0  0  0  0  0  0  0  0  0
   -4.7007    5.4038   -1.4593 C   0  0  0  0  0  0  0  0  0  0  0  0
   -4.2974    4.1695   -0.9823 C   0  0  0  0  0  0  0  0  0  0  0  0
   -4.6180    7.8897   -1.4911 C   0  0  0  0  0  0  0  0  0  0  0  0
   -5.5590    7.9989   -2.4847 O   0  0  0  0  0  0  0  0  0  0  0  0
   -4.1167    8.9438   -1.0111 O   0  0  0  0  0  0  0  0  0  0  0  0
   -1.8155   -2.8672    0.7794 N   0  0  0  0  0  0  0  0  0  0  0  0
   -2.3697   -2.6526   -0.5388 C   0  0  0  0  0  0  0  0  0  0  0  0
   -3.8621   -2.7414   -0.6610 C   0  0  0  0  0  0  0  0  0  0  0  0
   -4.2121   -2.1884   -2.0524 C   0  0  0  0  0  0  0  0  0  0  0  0
   -3.7460   -3.2214   -3.0342 C   0  0  0  0  0  0  0  0  0  0  0  0
   -2.7522   -4.1830   -2.4821 C   0  0  0  0  0  0  0  0  0  0  0  0
   -1.7311   -3.6241   -1.5474 C   0  0  0  0  0  0  0  0  0  0  0  0
   -2.1785   -4.0856    1.4200 C   0  0  0  0  0  0  0  0  0  0  0  0
   -2.9343   -4.9356    0.8611 O   0  0  0  0  0  0  0  0  0  0  0  0
   -1.7270   -4.4705    2.7829 C   0  0  0  0  0  0  0  0  0  0  0  0
   -2.2763   -5.8104    3.2269 C   0  0  0  0  0  0  0  0  0  0  0  0
   -1.8223   -6.9466    2.4019 C   0  0  0  0  0  0  0  0  0  0  0  0
   -2.3630   -8.2256    2.6174 O   0  0  0  0  0  0  0  0  0  0  0  0
   -0.9561   -6.7761    1.5081 O   0  0  0  0  0  0  0  0  0  0  0  0
    6.9578    3.6981   -2.3990 H   0  0  0  0  0  0  0  0  0  0  0  0
    7.0205    2.0740   -1.5032 H   0  0  0  0  0  0  0  0  0  0  0  0
    8.3087    3.2796   -1.3048 H   0  0  0  0  0  0  0  0  0  0  0  0
    6.5444    5.5834   -1.6106 H   0  0  0  0  0  0  0  0  0  0  0  0
    7.5665    5.7237   -0.1556 H   0  0  0  0  0  0  0  0  0  0  0  0
    5.8020    5.8871    0.0322 H   0  0  0  0  0  0  0  0  0  0  0  0
    7.4516    2.4557    1.0832 H   0  0  0  0  0  0  0  0  0  0  0  0
    8.3515    3.9516    0.7956 H   0  0  0  0  0  0  0  0  0  0  0  0
    6.0217    3.6832    2.3710 H   0  0  0  0  0  0  0  0  0  0  0  0
    4.3559    4.1576   -0.2334 H   0  0  0  0  0  0  0  0  0  0  0  0
    2.8111    2.4780    1.0683 H   0  0  0  0  0  0  0  0  0  0  0  0
    2.7148    2.2197   -0.6669 H   0  0  0  0  0  0  0  0  0  0  0  0
    2.3917    0.2907    1.4515 H   0  0  0  0  0  0  0  0  0  0  0  0
    3.5729   -2.3747    0.6676 H   0  0  0  0  0  0  0  0  0  0  0  0
    1.9979   -2.7106   -1.8932 H   0  0  0  0  0  0  0  0  0  0  0  0
    3.7624   -3.1097   -1.6984 H   0  0  0  0  0  0  0  0  0  0  0  0
    1.5179   -4.6690   -0.8629 H   0  0  0  0  0  0  0  0  0  0  0  0
    3.2351   -4.7843   -0.1842 H   0  0  0  0  0  0  0  0  0  0  0  0
    0.9675   -4.1624    1.2938 H   0  0  0  0  0  0  0  0  0  0  0  0
    2.6555   -3.5335    1.6806 H   0  0  0  0  0  0  0  0  0  0  0  0
   -0.4589   -2.6591    2.2772 H   0  0  0  0  0  0  0  0  0  0  0  0
   -2.2459   -1.3089    2.9233 H   0  0  0  0  0  0  0  0  0  0  0  0
   -0.6402   -0.6263    3.0130 H   0  0  0  0  0  0  0  0  0  0  0  0
   -0.1206    1.4314    1.8553 H   0  0  0  0  0  0  0  0  0  0  0  0
   -0.9025    3.5429    0.9165 H   0  0  0  0  0  0  0  0  0  0  0  0
   -4.7257    1.8585    0.3173 H   0  0  0  0  0  0  0  0  0  0  0  0
   -3.9073   -0.2831    1.2767 H   0  0  0  0  0  0  0  0  0  0  0  0
   -2.0933    5.2745    1.2606 H   0  0  0  0  0  0  0  0  0  0  0  0
   -2.8427    7.4520    0.3766 H   0  0  0  0  0  0  0  0  0  0  0  0
   -5.4511    5.4353   -2.2401 H   0  0  0  0  0  0  0  0  0  0  0  0
   -4.6955    3.2387   -1.3542 H   0  0  0  0  0  0  0  0  0  0  0  0
   -5.3575    7.7372   -3.4505 H   0  0  0  0  0  0  0  0  0  0  0  0
   -2.0558   -1.6583   -0.9173 H   0  0  0  0  0  0  0  0  0  0  0  0
   -4.2674   -3.7779   -0.6755 H   0  0  0  0  0  0  0  0  0  0  0  0
   -4.4256   -2.2127    0.1129 H   0  0  0  0  0  0  0  0  0  0  0  0
   -3.6545   -1.2305   -2.1559 H   0  0  0  0  0  0  0  0  0  0  0  0
   -5.2966   -2.0601   -2.1109 H   0  0  0  0  0  0  0  0  0  0  0  0
   -4.6604   -3.8285   -3.3276 H   0  0  0  0  0  0  0  0  0  0  0  0
   -3.4283   -2.7386   -3.9875 H   0  0  0  0  0  0  0  0  0  0  0  0
   -3.2460   -5.1075   -2.0495 H   0  0  0  0  0  0  0  0  0  0  0  0
   -2.1883   -4.5970   -3.3729 H   0  0  0  0  0  0  0  0  0  0  0  0
   -1.2650   -4.4442   -0.9870 H   0  0  0  0  0  0  0  0  0  0  0  0
   -0.9494   -3.1160   -2.1304 H   0  0  0  0  0  0  0  0  0  0  0  0
   -0.6448   -4.5174    2.9025 H   0  0  0  0  0  0  0  0  0  0  0  0
   -2.1458   -3.7287    3.5349 H   0  0  0  0  0  0  0  0  0  0  0  0
   -3.3957   -5.7961    3.2007 H   0  0  0  0  0  0  0  0  0  0  0  0
   -2.0107   -6.0339    4.2774 H   0  0  0  0  0  0  0  0  0  0  0  0
   -3.1802   -8.4539    2.0283 H   0  0  0  0  0  0  0  0  0  0  0  0
  1  2  1  0
  2  3  1  0
  2  4  1  0
  4  5  1  0
  2  6  1  0
  6  7  1  0
  7  8  2  0
  7  9  1  0
  9 10  1  0
 10 11  1  0
 11 12  2  0
 11 13  1  0
 13 14  1  0
 14 15  1  0
 15 16  1  0
 16 17  1  0
 17 18  1  0
 18 19  2  0
 18 20  1  0
 20 21  1  0
 21 22  1  0
 22 23  2  0
 23 24  1  0
 24 25  2  0
 25 26  1  0
 26 27  2  0
 25 28  1  0
 28 29  2  0
 29 30  1  0
 30 31  2  0
 31 32  1  0
 32 33  2  0
 31 34  1  0
 34 35  1  0
 34 36  2  0
 20 37  1  0
 37 38  1  0
 38 39  1  0
 39 40  1  0
 40 41  1  0
 41 42  1  0
 42 43  1  0
 37 44  1  0
 44 45  2  0
 44 46  1  0
 46 47  1  0
 47 48  1  0
 48 49  1  0
 48 50  2  0
 17 13  1  0
 27 22  1  0
 33 28  1  0
 43 38  1  0
  1 51  1  0
  1 52  1  0
  1 53  1  0
  3 54  1  0
  3 55  1  0
  3 56  1  0
  4 57  1  0
  4 58  1  0
  5 59  1  0
  6 60  1  0
  9 61  1  0
  9 62  1  0
 10 63  1  0
 13 64  1  1
 14 65  1  0
 14 66  1  0
 15 67  1  0
 15 68  1  0
 16 69  1  0
 16 70  1  0
 20 71  1  1
 21 72  1  0
 21 73  1  0
 23 74  1  0
 24 75  1  0
 26 76  1  0
 27 77  1  0
 29 78  1  0
 30 79  1  0
 32 80  1  0
 33 81  1  0
 35 82  1  0
 38 83  1  0
 39 84  1  0
 39 85  1  0
 40 86  1  0
 40 87  1  0
 41 88  1  0
 41 89  1  0
 42 90  1  0
 42 91  1  0
 43 92  1  0
 43 93  1  0
 46 94  1  0
 46 95  1  0
 47 96  1  0
 47 97  1  0
 49 98  1  0
M  END
$$$$
