[H]OC(=O)c1c([H])c([H])c(-c2c([H])c([H])c(N3C(=O)N(c4nc([H])nc(OC([H])([H])[H])c4[H])C4(C3=O)C([H])([H])C([H])([H])N(C([H])([H])c3nc([H])c([H])c([H])c3C([H])([H])[H])C([H])([H])C4([H])[H])c([H])c2[H])c([H])c1[H]
     RDKit          3D

 73 78  0  0  0  0  0  0  0  0999 V2000
   -1.8950    8.1301   -1.1399 C   0  0  0  0  0  0  0  0  0  0  0  0
   -1.2748    6.8727   -1.2502 O   0  0  0  0  0  0  0  0  0  0  0  0
   -1.5710    5.8643   -0.3446 C   0  0  0  0  0  0  0  0  0  0  0  0
   -0.9922    4.6216   -0.4085 C   0  0  0  0  0  0  0  0  0  0  0  0
   -1.2971    3.6243    0.5035 C   0  0  0  0  0  0  0  0  0  0  0  0
   -2.1928    3.9327    1.4592 N   0  0  0  0  0  0  0  0  0  0  0  0
   -2.7761    5.1315    1.5521 C   0  0  0  0  0  0  0  0  0  0  0  0
   -2.4668    6.0698    0.6666 N   0  0  0  0  0  0  0  0  0  0  0  0
   -0.7308    2.3322    0.4946 N   0  0  0  0  0  0  0  0  0  0  0  0
    0.6575    2.0875    0.6944 C   0  0  0  0  0  0  0  0  0  0  0  0
    1.5301    2.8540    1.2142 O   0  0  0  0  0  0  0  0  0  0  0  0
    0.9859    0.7969    0.2129 N   0  0  0  0  0  0  0  0  0  0  0  0
   -0.2020    0.2312   -0.2905 C   0  0  0  0  0  0  0  0  0  0  0  0
   -0.2933   -0.7577   -1.0952 O   0  0  0  0  0  0  0  0  0  0  0  0
   -1.3292    1.0194    0.3047 C   0  0  0  0  0  0  0  0  0  0  0  0
   -2.4049    1.1430   -0.7136 C   0  0  0  0  0  0  0  0  0  0  0  0
   -3.4913    0.1312   -0.6308 C   0  0  0  0  0  0  0  0  0  0  0  0
   -3.2981   -0.9342    0.2518 N   0  0  0  0  0  0  0  0  0  0  0  0
   -3.6966   -2.2345   -0.0980 C   0  0  0  0  0  0  0  0  0  0  0  0
   -5.1528   -2.3699   -0.3546 C   0  0  0  0  0  0  0  0  0  0  0  0
   -5.9953   -1.3403   -0.2517 N   0  0  0  0  0  0  0  0  0  0  0  0
   -7.3135   -1.4267   -0.4706 C   0  0  0  0  0  0  0  0  0  0  0  0
   -7.8387   -2.6502   -0.8241 C   0  0  0  0  0  0  0  0  0  0  0  0
   -7.0344   -3.7401   -0.9468 C   0  0  0  0  0  0  0  0  0  0  0  0
   -5.6796   -3.6031   -0.7108 C   0  0  0  0  0  0  0  0  0  0  0  0
   -4.7517   -4.7364   -0.8227 C   0  0  0  0  0  0  0  0  0  0  0  0
   -2.7516   -0.6833    1.5163 C   0  0  0  0  0  0  0  0  0  0  0  0
   -1.7453    0.4031    1.6049 C   0  0  0  0  0  0  0  0  0  0  0  0
    2.2668    0.1798    0.2252 C   0  0  0  0  0  0  0  0  0  0  0  0
    3.2319    0.6143   -0.6710 C   0  0  0  0  0  0  0  0  0  0  0  0
    4.4788    0.0454   -0.6877 C   0  0  0  0  0  0  0  0  0  0  0  0
    4.7914   -0.9731    0.1922 C   0  0  0  0  0  0  0  0  0  0  0  0
    3.8259   -1.3901    1.0708 C   0  0  0  0  0  0  0  0  0  0  0  0
    2.5742   -0.8358    1.1047 C   0  0  0  0  0  0  0  0  0  0  0  0
    6.1137   -1.5501    0.1432 C   0  0  0  0  0  0  0  0  0  0  0  0
    6.3175   -2.8652    0.4650 C   0  0  0  0  0  0  0  0  0  0  0  0
    7.5782   -3.4209    0.4184 C   0  0  0  0  0  0  0  0  0  0  0  0
    8.6679   -2.6354    0.0380 C   0  0  0  0  0  0  0  0  0  0  0  0
    8.4588   -1.3121   -0.2848 C   0  0  0  0  0  0  0  0  0  0  0  0
    7.1898   -0.7942   -0.2270 C   0  0  0  0  0  0  0  0  0  0  0  0
   10.0080   -3.2082   -0.0164 C   0  0  0  0  0  0  0  0  0  0  0  0
   10.1601   -4.5397    0.3161 O   0  0  0  0  0  0  0  0  0  0  0  0
   10.9639   -2.4816   -0.3589 O   0  0  0  0  0  0  0  0  0  0  0  0
   -1.3326    8.9251   -1.6903 H   0  0  0  0  0  0  0  0  0  0  0  0
   -1.9174    8.4901   -0.0752 H   0  0  0  0  0  0  0  0  0  0  0  0
   -2.9670    8.1180   -1.4544 H   0  0  0  0  0  0  0  0  0  0  0  0
   -0.2856    4.4223   -1.1878 H   0  0  0  0  0  0  0  0  0  0  0  0
   -3.4866    5.3444    2.3290 H   0  0  0  0  0  0  0  0  0  0  0  0
   -2.8169    2.1884   -0.6597 H   0  0  0  0  0  0  0  0  0  0  0  0
   -1.9237    1.0444   -1.7333 H   0  0  0  0  0  0  0  0  0  0  0  0
   -3.7653   -0.2843   -1.6468 H   0  0  0  0  0  0  0  0  0  0  0  0
   -4.4302    0.6935   -0.3338 H   0  0  0  0  0  0  0  0  0  0  0  0
   -3.1369   -2.6924   -0.9412 H   0  0  0  0  0  0  0  0  0  0  0  0
   -3.4889   -2.9144    0.7781 H   0  0  0  0  0  0  0  0  0  0  0  0
   -7.9508   -0.5578   -0.3717 H   0  0  0  0  0  0  0  0  0  0  0  0
   -8.8940   -2.7745   -1.0086 H   0  0  0  0  0  0  0  0  0  0  0  0
   -7.4317   -4.7218   -1.2261 H   0  0  0  0  0  0  0  0  0  0  0  0
   -5.3702   -5.6623   -0.9780 H   0  0  0  0  0  0  0  0  0  0  0  0
   -4.1600   -4.9340    0.0967 H   0  0  0  0  0  0  0  0  0  0  0  0
   -4.1402   -4.6194   -1.7209 H   0  0  0  0  0  0  0  0  0  0  0  0
   -3.6042   -0.5109    2.2377 H   0  0  0  0  0  0  0  0  0  0  0  0
   -2.2719   -1.6295    1.9051 H   0  0  0  0  0  0  0  0  0  0  0  0
   -0.8018    0.0740    2.1221 H   0  0  0  0  0  0  0  0  0  0  0  0
   -2.1554    1.2037    2.2821 H   0  0  0  0  0  0  0  0  0  0  0  0
    2.9794    1.4151   -1.3546 H   0  0  0  0  0  0  0  0  0  0  0  0
    5.2539    0.3801   -1.3958 H   0  0  0  0  0  0  0  0  0  0  0  0
    4.0346   -2.1904    1.7773 H   0  0  0  0  0  0  0  0  0  0  0  0
    1.7953   -1.1411    1.7877 H   0  0  0  0  0  0  0  0  0  0  0  0
    5.4525   -3.4659    0.7628 H   0  0  0  0  0  0  0  0  0  0  0  0
    7.7243   -4.4717    0.6770 H   0  0  0  0  0  0  0  0  0  0  0  0
    9.3018   -0.7222   -0.5771 H   0  0  0  0  0  0  0  0  0  0  0  0
    7.0844    0.2663   -0.4970 H   0  0  0  0  0  0  0  0  0  0  0  0
   11.0798   -4.8750    0.5777 H   0  0  0  0  0  0  0  0  0  0  0  0
  1  2  1  0
  2  3  1  0
  3  4  2  0
  4  5  1  0
  5  6  2  0
  6  7  1  0
  7  8  2  0
  5  9  1  0
  9 10  1  0
 10 11  2  0
 10 12  1  0
 12 13  1  0
 13 14  2  0
 13 15  1  0
 15 16  1  0
 16 17  1  0
 17 18  1  0
 18 19  1  0
 19 20  1  0
 20 21  2  0
 21 22  1  0
 22 23  2  0
 23 24  1  0
 24 25  2  0
 25 26  1  0
 18 27  1  0
 27 28  1  0
 12 29  1  0
 29 30  2  0
 30 31  1  0
 31 32  2  0
 32 33  1  0
 33 34  2  0
 32 35  1  0
 35 36  2  0
 36 37  1  0
 37 38  2  0
 38 39  1  0
 39 40  2  0
 38 41  1  0
 41 42  1  0
 41 43  2  0
  8  3  1  0
 15  9  1  0
 28 15  1  0
 34 29  1  0
 40 35  1  0
 25 20  1  0
  1 44  1  0
  1 45  1  0
  1 46  1  0
  4 47  1  0
  7 48  1  0
 16 49  1  0
 16 50  1  0
 17 51  1  0
 17 52  1  0
 19 53  1  0
 19 54  1  0
 22 55  1  0
 23 56  1  0
 24 57  1  0
 26 58  1  0
 26 59  1  0
 26 60  1  0
 27 61  1  0
 27 62  1  0
 28 63  1  0
 28 64  1  0
 30 65  1  0
 31 66  1  0
 33 67  1  0
 34 68  1  0
 36 69  1  0
 37 70  1  0
 39 71  1  0
 40 72  1  0
 42 73  1  0
M  END
$$$$
[H]OC(=O)c1c([H])c([H])c(-c2c([H])c([H])c(N3C(=O)N(c4nc([H])nc(OC([H])([H])[H])c4[H])C4(C3=O)C([H])([H])C([H])([H])N(C([H])([H])c3nc([H])c([H])c([H])c3C([H])([H])[H])C([H])([H])C4([H])[H])c([H])c2[H])c(C([H])([H])[H])c1[H]
     RDKit          3D

 76 81  0  0  0  0  0  0  0  0999 V2000
   -1.2760   -7.4313    1.6338 C   0  0  0  0  0  0  0  0  0  0  0  0
   -1.1813   -6.0279    1.6416 O   0  0  0  0  0  0  0  0  0  0  0  0
   -1.2286   -5.2837    0.4752 C   0  0  0  0  0  0  0  0  0  0  0  0
   -1.1211   -3.9300    0.5691 C   0  0  0  0  0  0  0  0  0  0  0  0
   -1.1572   -3.2053   -0.5835 C   0  0  0  0  0  0  0  0  0  0  0  0
   -1.3113   -3.8511   -1.7275 N   0  0  0  0  0  0  0  0  0  0  0  0
   -1.4281   -5.1902   -1.8273 C   0  0  0  0  0  0  0  0  0  0  0  0
   -1.3781   -5.9215   -0.7088 N   0  0  0  0  0  0  0  0  0  0  0  0
   -0.9114   -1.8107   -0.5553 N   0  0  0  0  0  0  0  0  0  0  0  0
    0.3274   -1.2319   -1.0518 C   0  0  0  0  0  0  0  0  0  0  0  0
    1.0626   -1.6834   -1.9538 O   0  0  0  0  0  0  0  0  0  0  0  0
    0.4987   -0.0254   -0.2708 N   0  0  0  0  0  0  0  0  0  0  0  0
   -0.5700    0.1188    0.6206 C   0  0  0  0  0  0  0  0  0  0  0  0
   -0.5779    0.7585    1.6865 O   0  0  0  0  0  0  0  0  0  0  0  0
   -1.6673   -0.6989   -0.0519 C   0  0  0  0  0  0  0  0  0  0  0  0
   -2.2627    0.0771   -1.1652 C   0  0  0  0  0  0  0  0  0  0  0  0
   -3.7872    0.2510   -1.0827 C   0  0  0  0  0  0  0  0  0  0  0  0
   -4.2764    0.3111    0.1628 N   0  0  0  0  0  0  0  0  0  0  0  0
   -5.5688    0.6397    0.5334 C   0  0  0  0  0  0  0  0  0  0  0  0
   -5.9281    1.9512   -0.0307 C   0  0  0  0  0  0  0  0  0  0  0  0
   -6.0359    2.1913   -1.3473 N   0  0  0  0  0  0  0  0  0  0  0  0
   -6.5181    3.3746   -1.7937 C   0  0  0  0  0  0  0  0  0  0  0  0
   -6.8962    4.3716   -0.9162 C   0  0  0  0  0  0  0  0  0  0  0  0
   -6.7809    4.1483    0.4341 C   0  0  0  0  0  0  0  0  0  0  0  0
   -6.3046    2.9430    0.8444 C   0  0  0  0  0  0  0  0  0  0  0  0
   -6.1087    2.7117    2.3170 C   0  0  0  0  0  0  0  0  0  0  0  0
   -3.4273    0.1368    1.3305 C   0  0  0  0  0  0  0  0  0  0  0  0
   -2.5988   -1.1164    1.0414 C   0  0  0  0  0  0  0  0  0  0  0  0
    1.7138    0.7253   -0.3357 C   0  0  0  0  0  0  0  0  0  0  0  0
    2.3272    1.1822   -1.4597 C   0  0  0  0  0  0  0  0  0  0  0  0
    3.6439    1.6366   -1.4702 C   0  0  0  0  0  0  0  0  0  0  0  0
    4.3712    1.6269   -0.3013 C   0  0  0  0  0  0  0  0  0  0  0  0
    3.7196    1.1548    0.8578 C   0  0  0  0  0  0  0  0  0  0  0  0
    2.4322    0.7121    0.8657 C   0  0  0  0  0  0  0  0  0  0  0  0
    5.8146    1.8353   -0.2476 C   0  0  0  0  0  0  0  0  0  0  0  0
    6.4818    2.9160   -0.6677 C   0  0  0  0  0  0  0  0  0  0  0  0
    7.8772    2.9470   -0.5386 C   0  0  0  0  0  0  0  0  0  0  0  0
    8.5643    1.9192    0.0083 C   0  0  0  0  0  0  0  0  0  0  0  0
    7.8484    0.8001    0.4407 C   0  0  0  0  0  0  0  0  0  0  0  0
    6.5254    0.7364    0.3205 C   0  0  0  0  0  0  0  0  0  0  0  0
    5.7887   -0.5582    0.5986 C   0  0  0  0  0  0  0  0  0  0  0  0
   10.0050    1.8070    0.0128 C   0  0  0  0  0  0  0  0  0  0  0  0
   10.7012    2.4903   -0.9653 O   0  0  0  0  0  0  0  0  0  0  0  0
   10.5791    1.1040    0.8527 O   0  0  0  0  0  0  0  0  0  0  0  0
   -0.2632   -7.9307    1.6080 H   0  0  0  0  0  0  0  0  0  0  0  0
   -1.8205   -7.7257    2.5471 H   0  0  0  0  0  0  0  0  0  0  0  0
   -1.8432   -7.8059    0.7562 H   0  0  0  0  0  0  0  0  0  0  0  0
   -1.0289   -3.4866    1.5600 H   0  0  0  0  0  0  0  0  0  0  0  0
   -1.5439   -5.6323   -2.8210 H   0  0  0  0  0  0  0  0  0  0  0  0
   -1.7399    1.0228   -1.3482 H   0  0  0  0  0  0  0  0  0  0  0  0
   -2.1134   -0.5128   -2.1275 H   0  0  0  0  0  0  0  0  0  0  0  0
   -4.2646   -0.5478   -1.7153 H   0  0  0  0  0  0  0  0  0  0  0  0
   -3.9504    1.1694   -1.6961 H   0  0  0  0  0  0  0  0  0  0  0  0
   -6.2723   -0.0869   -0.0989 H   0  0  0  0  0  0  0  0  0  0  0  0
   -5.9123    0.4051    1.5189 H   0  0  0  0  0  0  0  0  0  0  0  0
   -6.6445    3.5580   -2.8607 H   0  0  0  0  0  0  0  0  0  0  0  0
   -7.2580    5.3217   -1.2252 H   0  0  0  0  0  0  0  0  0  0  0  0
   -7.0427    4.9347    1.1568 H   0  0  0  0  0  0  0  0  0  0  0  0
   -6.7891    3.3937    2.8486 H   0  0  0  0  0  0  0  0  0  0  0  0
   -6.3509    1.7111    2.6620 H   0  0  0  0  0  0  0  0  0  0  0  0
   -5.0658    3.0129    2.5869 H   0  0  0  0  0  0  0  0  0  0  0  0
   -2.8810    1.0254    1.5291 H   0  0  0  0  0  0  0  0  0  0  0  0
   -4.0531   -0.0955    2.2083 H   0  0  0  0  0  0  0  0  0  0  0  0
   -3.3260   -1.8704    0.6853 H   0  0  0  0  0  0  0  0  0  0  0  0
   -2.0785   -1.4000    1.9318 H   0  0  0  0  0  0  0  0  0  0  0  0
    1.7405    1.2192   -2.3887 H   0  0  0  0  0  0  0  0  0  0  0  0
    4.1301    2.0018   -2.3523 H   0  0  0  0  0  0  0  0  0  0  0  0
    4.3230    1.1890    1.7645 H   0  0  0  0  0  0  0  0  0  0  0  0
    1.9445    0.3505    1.7476 H   0  0  0  0  0  0  0  0  0  0  0  0
    5.9811    3.7609   -1.1123 H   0  0  0  0  0  0  0  0  0  0  0  0
    8.3942    3.8397   -0.8964 H   0  0  0  0  0  0  0  0  0  0  0  0
    8.3878   -0.0468    0.8874 H   0  0  0  0  0  0  0  0  0  0  0  0
    4.9776   -0.6582   -0.1623 H   0  0  0  0  0  0  0  0  0  0  0  0
    6.5200   -1.3500    0.2512 H   0  0  0  0  0  0  0  0  0  0  0  0
    5.5375   -0.7350    1.6155 H   0  0  0  0  0  0  0  0  0  0  0  0
   10.3258    2.3568   -1.9555 H   0  0  0  0  0  0  0  0  0  0  0  0
  1  2  1  0
  2  3  1  0
  3  4  2  0
  4  5  1  0
  5  6  2  0
  6  7  1  0
  7  8  2  0
  5  9  1  0
  9 10  1  0
 10 11  2  0
 10 12  1  0
 12 13  1  0
 13 14  2  0
 13 15  1  0
 15 16  1  0
 16 17  1  0
 17 18  1  0
 18 19  1  0
 19 20  1  0
 20 21  2  0
 21 22  1  0
 22 23  2  0
 23 24  1  0
 24 25  2  0
 25 26  1  0
 18 27  1  0
 27 28  1  0
 12 29  1  0
 29 30  2  0
 30 31  1  0
 31 32  2  0
 32 33  1  0
 33 34  2  0
 32 35  1  0
 35 36  2  0
 36 37  1  0
 37 38  2  0
 38 39  1  0
 39 40  2  0
 40 41  1  0
 38 42  1  0
 42 43  1  0
 42 44  2  0
  8  3  1  0
 15  9  1  0
 28 15  1  0
 34 29  1  0
 40 35  1  0
 25 20  1  0
  1 45  1  0
  1 46  1  0
  1 47  1  0
  4 48  1  0
  7 49  1  0
 16 50  1  0
 16 51  1  0
 17 52  1  0
 17 53  1  0
 19 54  1  0
 19 55  1  0
 22 56  1  0
 23 57  1  0
 24 58  1  0
 26 59  1  0
 26 60  1  0
 26 61  1  0
 27 62  1  0
 27 63  1  0
 28 64  1  0
 28 65  1  0
 30 66  1  0
 31 67  1  0
 33 68  1  0
 34 69  1  0
 36 70  1  0
 37 71  1  0
 39 72  1  0
 41 73  1  0
 41 74  1  0
 41 75  1  0
 43 76  1  0
M  END
$$$$
[H]OC(=O)c1c([H])c([H])c(-c2c([H])c([H])c(N3C(=O)N(c4nc([H])n([H])c(=O)c4[H])C4(C3=O)C([H])([H])C([H])([H])N(C([H])([H])c3nc([H])c([H])c([H])c3C([H])([H])[H])C([H])([H])C4([H])[H])c([H])c2[H])c([H])c1[H]
     RDKit          3D

 70 75  0  0  0  0  0  0  0  0999 V2000
   -7.6690    0.7076    0.5831 C   0  0  0  0  0  0  0  0  0  0  0  0
   -6.8352    1.5886   -0.2611 C   0  0  0  0  0  0  0  0  0  0  0  0
   -7.4212    2.5440   -1.0465 C   0  0  0  0  0  0  0  0  0  0  0  0
   -6.6742    3.3680   -1.8382 C   0  0  0  0  0  0  0  0  0  0  0  0
   -5.3128    3.2178   -1.8312 C   0  0  0  0  0  0  0  0  0  0  0  0
   -4.7746    2.2820   -1.0590 N   0  0  0  0  0  0  0  0  0  0  0  0
   -5.4503    1.4529   -0.2690 C   0  0  0  0  0  0  0  0  0  0  0  0
   -4.8814    0.4388    0.6188 C   0  0  0  0  0  0  0  0  0  0  0  0
   -3.4395    0.3158    0.5350 N   0  0  0  0  0  0  0  0  0  0  0  0
   -2.9899   -0.5224    1.6432 C   0  0  0  0  0  0  0  0  0  0  0  0
   -2.1872   -1.6987    1.2402 C   0  0  0  0  0  0  0  0  0  0  0  0
   -1.1310   -1.4198    0.2354 C   0  0  0  0  0  0  0  0  0  0  0  0
   -1.6886   -0.6015   -0.9093 C   0  0  0  0  0  0  0  0  0  0  0  0
   -3.1715   -0.3844   -0.7223 C   0  0  0  0  0  0  0  0  0  0  0  0
   -0.4562   -2.5993   -0.2368 N   0  0  0  0  0  0  0  0  0  0  0  0
    0.9157   -2.2385   -0.4831 C   0  0  0  0  0  0  0  0  0  0  0  0
    1.7529   -2.9092   -1.1640 O   0  0  0  0  0  0  0  0  0  0  0  0
    1.2055   -1.0026    0.1554 N   0  0  0  0  0  0  0  0  0  0  0  0
   -0.0026   -0.6124    0.7967 C   0  0  0  0  0  0  0  0  0  0  0  0
   -0.0410    0.2776    1.6861 O   0  0  0  0  0  0  0  0  0  0  0  0
    2.4558   -0.2888    0.1496 C   0  0  0  0  0  0  0  0  0  0  0  0
    3.1119    0.0791    1.3030 C   0  0  0  0  0  0  0  0  0  0  0  0
    4.3061    0.7685    1.2524 C   0  0  0  0  0  0  0  0  0  0  0  0
    4.9029    1.1238    0.0611 C   0  0  0  0  0  0  0  0  0  0  0  0
    4.2592    0.7625   -1.1012 C   0  0  0  0  0  0  0  0  0  0  0  0
    3.0529    0.0659   -1.0421 C   0  0  0  0  0  0  0  0  0  0  0  0
    6.1702    1.8635    0.0843 C   0  0  0  0  0  0  0  0  0  0  0  0
    7.1002    1.6880    1.0855 C   0  0  0  0  0  0  0  0  0  0  0  0
    8.2831    2.3732    1.1257 C   0  0  0  0  0  0  0  0  0  0  0  0
    8.5561    3.2778    0.1211 C   0  0  0  0  0  0  0  0  0  0  0  0
    7.6307    3.4710   -0.9011 C   0  0  0  0  0  0  0  0  0  0  0  0
    6.4471    2.7593   -0.9055 C   0  0  0  0  0  0  0  0  0  0  0  0
    9.7960    4.0442    0.1021 C   0  0  0  0  0  0  0  0  0  0  0  0
   10.0793    4.9514   -0.8908 O   0  0  0  0  0  0  0  0  0  0  0  0
   10.6182    3.8567    1.0296 O   0  0  0  0  0  0  0  0  0  0  0  0
   -0.9340   -3.9194   -0.4751 C   0  0  0  0  0  0  0  0  0  0  0  0
   -1.4003   -4.7429    0.5064 C   0  0  0  0  0  0  0  0  0  0  0  0
   -1.8364   -6.0049    0.1590 C   0  0  0  0  0  0  0  0  0  0  0  0
   -2.2645   -6.7430    1.1011 O   0  0  0  0  0  0  0  0  0  0  0  0
   -1.8185   -6.4525   -1.1119 N   0  0  0  0  0  0  0  0  0  0  0  0
   -1.3555   -5.6327   -2.0793 C   0  0  0  0  0  0  0  0  0  0  0  0
   -0.9380   -4.4254   -1.7489 N   0  0  0  0  0  0  0  0  0  0  0  0
   -8.6846    1.1762    0.7215 H   0  0  0  0  0  0  0  0  0  0  0  0
   -7.8925   -0.2702    0.0770 H   0  0  0  0  0  0  0  0  0  0  0  0
   -7.1908    0.5697    1.5703 H   0  0  0  0  0  0  0  0  0  0  0  0
   -8.4966    2.6660   -1.0562 H   0  0  0  0  0  0  0  0  0  0  0  0
   -7.1541    4.1001   -2.4369 H   0  0  0  0  0  0  0  0  0  0  0  0
   -4.7350    3.8852   -2.4693 H   0  0  0  0  0  0  0  0  0  0  0  0
   -5.3559   -0.5586    0.3703 H   0  0  0  0  0  0  0  0  0  0  0  0
   -5.1561    0.5992    1.6881 H   0  0  0  0  0  0  0  0  0  0  0  0
   -3.8891   -0.8994    2.1872 H   0  0  0  0  0  0  0  0  0  0  0  0
   -2.4697    0.1243    2.4125 H   0  0  0  0  0  0  0  0  0  0  0  0
   -1.7589   -2.1580    2.1717 H   0  0  0  0  0  0  0  0  0  0  0  0
   -2.8813   -2.4689    0.8036 H   0  0  0  0  0  0  0  0  0  0  0  0
   -1.5251   -1.1608   -1.8371 H   0  0  0  0  0  0  0  0  0  0  0  0
   -1.2114    0.3915   -1.0129 H   0  0  0  0  0  0  0  0  0  0  0  0
   -3.7047   -1.3507   -0.6714 H   0  0  0  0  0  0  0  0  0  0  0  0
   -3.5213    0.2405   -1.5460 H   0  0  0  0  0  0  0  0  0  0  0  0
    2.6661   -0.1884    2.2527 H   0  0  0  0  0  0  0  0  0  0  0  0
    4.8252    1.0599    2.1743 H   0  0  0  0  0  0  0  0  0  0  0  0
    4.7083    1.0307   -2.0429 H   0  0  0  0  0  0  0  0  0  0  0  0
    2.5305   -0.2283   -1.9450 H   0  0  0  0  0  0  0  0  0  0  0  0
    6.8761    0.9674    1.8795 H   0  0  0  0  0  0  0  0  0  0  0  0
    8.9946    2.2000    1.9462 H   0  0  0  0  0  0  0  0  0  0  0  0
    7.8607    4.1848   -1.6821 H   0  0  0  0  0  0  0  0  0  0  0  0
    5.7599    2.9461   -1.7230 H   0  0  0  0  0  0  0  0  0  0  0  0
   10.3658    5.9028   -0.6136 H   0  0  0  0  0  0  0  0  0  0  0  0
   -1.4215   -4.4022    1.5422 H   0  0  0  0  0  0  0  0  0  0  0  0
   -2.1556   -7.4124   -1.3430 H   0  0  0  0  0  0  0  0  0  0  0  0
   -1.3536   -6.0262   -3.0963 H   0  0  0  0  0  0  0  0  0  0  0  0
  1  2  1  0
  2  3  2  0
  3  4  1  0
  4  5  2  0
  5  6  1  0
  6  7  2  0
  7  8  1  0
  8  9  1  0
  9 10  1  0
 10 11  1  0
 11 12  1  0
 12 13  1  0
 13 14  1  0
 12 15  1  0
 15 16  1  0
 16 17  2  0
 16 18  1  0
 18 19  1  0
 19 20  2  0
 18 21  1  0
 21 22  2  0
 22 23  1  0
 23 24  2  0
 24 25  1  0
 25 26  2  0
 24 27  1  0
 27 28  2  0
 28 29  1  0
 29 30  2  0
 30 31  1  0
 31 32  2  0
 30 33  1  0
 33 34  1  0
 33 35  2  0
 15 36  1  0
 36 37  2  0
 37 38  1  0
 38 39  2  0
 38 40  1  0
 40 41  1  0
 41 42  2  0
  7  2  1  0
 14  9  1  0
 26 21  1  0
 32 27  1  0
 42 36  1  0
 19 12  1  0
  1 43  1  0
  1 44  1  0
  1 45  1  0
  3 46  1  0
  4 47  1  0
  5 48  1  0
  8 49  1  0
  8 50  1  0
 10 51  1  0
 10 52  1  0
 11 53  1  0
 11 54  1  0
 13 55  1  0
 13 56  1  0
 14 57  1  0
 14 58  1  0
 22 59  1  0
 23 60  1  0
 25 61  1  0
 26 62  1  0
 28 63  1  0
 29 64  1  0
 31 65  1  0
 32 66  1  0
 34 67  1  0
 37 68  1  0
 40 69  1  0
 41 70  1  0
M  END
$$$$
[H]OC(=O)c1c([H])c([H])c(-c2c([H])c([H])c(N3C(=O)N(c4nc([H])nc(C([H])([H])[H])c4[H])C4(C3=O)C([H])([H])C([H])([H])N(C([H])([H])c3nc([H])c([H])c([H])c3C([H])([H])[H])C([H])([H])C4([H])[H])c([H])c2[H])c([H])c1[H]
     RDKit          3D

 72 77  0  0  0  0  0  0  0  0999 V2000
   -1.8046   -5.4926   -4.6748 C   0  0  0  0  0  0  0  0  0  0  0  0
   -1.9355   -4.0279   -4.4619 C   0  0  0  0  0  0  0  0  0  0  0  0
   -1.2763   -3.3424   -3.4650 C   0  0  0  0  0  0  0  0  0  0  0  0
   -1.4052   -1.9848   -3.2802 C   0  0  0  0  0  0  0  0  0  0  0  0
   -2.2172   -1.3221   -4.1240 N   0  0  0  0  0  0  0  0  0  0  0  0
   -2.8759   -1.9686   -5.1105 C   0  0  0  0  0  0  0  0  0  0  0  0
   -2.7370   -3.2978   -5.2759 N   0  0  0  0  0  0  0  0  0  0  0  0
   -0.7486   -1.2404   -2.2739 N   0  0  0  0  0  0  0  0  0  0  0  0
    0.6480   -0.9146   -2.2413 C   0  0  0  0  0  0  0  0  0  0  0  0
    1.3901   -0.8522   -3.2549 O   0  0  0  0  0  0  0  0  0  0  0  0
    1.0570   -0.6742   -0.8807 N   0  0  0  0  0  0  0  0  0  0  0  0
   -0.1587   -0.8757   -0.1225 C   0  0  0  0  0  0  0  0  0  0  0  0
   -0.2195   -1.1982    1.0816 O   0  0  0  0  0  0  0  0  0  0  0  0
   -1.2731   -0.6237   -1.0620 C   0  0  0  0  0  0  0  0  0  0  0  0
   -1.3976    0.8646   -1.2976 C   0  0  0  0  0  0  0  0  0  0  0  0
   -2.8056    1.3401   -0.9760 C   0  0  0  0  0  0  0  0  0  0  0  0
   -3.1902    0.9255    0.3609 N   0  0  0  0  0  0  0  0  0  0  0  0
   -4.4417    1.5568    0.6510 C   0  0  0  0  0  0  0  0  0  0  0  0
   -5.0057    1.2849    1.9654 C   0  0  0  0  0  0  0  0  0  0  0  0
   -4.3909    0.5065    2.8469 N   0  0  0  0  0  0  0  0  0  0  0  0
   -4.8959    0.2541    4.0564 C   0  0  0  0  0  0  0  0  0  0  0  0
   -6.0902    0.8049    4.4284 C   0  0  0  0  0  0  0  0  0  0  0  0
   -6.7728    1.6154    3.5657 C   0  0  0  0  0  0  0  0  0  0  0  0
   -6.2093    1.8492    2.3196 C   0  0  0  0  0  0  0  0  0  0  0  0
   -6.9184    2.7215    1.3555 C   0  0  0  0  0  0  0  0  0  0  0  0
   -3.1369   -0.4800    0.5489 C   0  0  0  0  0  0  0  0  0  0  0  0
   -2.5844   -1.1867   -0.6533 C   0  0  0  0  0  0  0  0  0  0  0  0
    2.3392   -0.3155   -0.3885 C   0  0  0  0  0  0  0  0  0  0  0  0
    2.4611    0.7723    0.4713 C   0  0  0  0  0  0  0  0  0  0  0  0
    3.6887    1.1480    0.9539 C   0  0  0  0  0  0  0  0  0  0  0  0
    4.8302    0.4590    0.5999 C   0  0  0  0  0  0  0  0  0  0  0  0
    4.7498   -0.6236   -0.2492 C   0  0  0  0  0  0  0  0  0  0  0  0
    3.4958   -0.9855   -0.7250 C   0  0  0  0  0  0  0  0  0  0  0  0
    6.1052    0.9300    1.1586 C   0  0  0  0  0  0  0  0  0  0  0  0
    6.3303    2.2631    1.4311 C   0  0  0  0  0  0  0  0  0  0  0  0
    7.5327    2.7248    1.9594 C   0  0  0  0  0  0  0  0  0  0  0  0
    8.5552    1.8334    2.2298 C   0  0  0  0  0  0  0  0  0  0  0  0
    8.3222    0.5036    1.9548 C   0  0  0  0  0  0  0  0  0  0  0  0
    7.1265    0.0438    1.4292 C   0  0  0  0  0  0  0  0  0  0  0  0
    9.8315    2.2654    2.7815 C   0  0  0  0  0  0  0  0  0  0  0  0
   10.8026    1.3105    3.0282 O   0  0  0  0  0  0  0  0  0  0  0  0
   10.0950    3.4616    3.0449 O   0  0  0  0  0  0  0  0  0  0  0  0
   -1.6810   -6.0233   -3.7101 H   0  0  0  0  0  0  0  0  0  0  0  0
   -0.8380   -5.6339   -5.2178 H   0  0  0  0  0  0  0  0  0  0  0  0
   -2.6260   -5.9143   -5.2536 H   0  0  0  0  0  0  0  0  0  0  0  0
   -0.6373   -3.8939   -2.8081 H   0  0  0  0  0  0  0  0  0  0  0  0
   -3.5223   -1.3999   -5.7716 H   0  0  0  0  0  0  0  0  0  0  0  0
   -0.6881    1.4435   -0.6844 H   0  0  0  0  0  0  0  0  0  0  0  0
   -1.1979    1.0799   -2.3505 H   0  0  0  0  0  0  0  0  0  0  0  0
   -3.4925    0.9850   -1.7564 H   0  0  0  0  0  0  0  0  0  0  0  0
   -2.7617    2.4570   -1.0414 H   0  0  0  0  0  0  0  0  0  0  0  0
   -5.1434    1.2884   -0.1930 H   0  0  0  0  0  0  0  0  0  0  0  0
   -4.2809    2.6570    0.5038 H   0  0  0  0  0  0  0  0  0  0  0  0
   -4.3633   -0.3907    4.7573 H   0  0  0  0  0  0  0  0  0  0  0  0
   -6.4911    0.5872    5.4261 H   0  0  0  0  0  0  0  0  0  0  0  0
   -7.7127    2.0537    3.8466 H   0  0  0  0  0  0  0  0  0  0  0  0
   -6.9262    2.2682    0.3277 H   0  0  0  0  0  0  0  0  0  0  0  0
   -7.9831    2.7648    1.6562 H   0  0  0  0  0  0  0  0  0  0  0  0
   -6.4658    3.7343    1.2836 H   0  0  0  0  0  0  0  0  0  0  0  0
   -4.1908   -0.8647    0.6722 H   0  0  0  0  0  0  0  0  0  0  0  0
   -2.5625   -0.6867    1.4699 H   0  0  0  0  0  0  0  0  0  0  0  0
   -2.5465   -2.2955   -0.5053 H   0  0  0  0  0  0  0  0  0  0  0  0
   -3.2848   -1.0277   -1.5237 H   0  0  0  0  0  0  0  0  0  0  0  0
    1.5591    1.3110    0.7460 H   0  0  0  0  0  0  0  0  0  0  0  0
    3.7590    1.9877    1.6150 H   0  0  0  0  0  0  0  0  0  0  0  0
    5.6472   -1.1633   -0.5265 H   0  0  0  0  0  0  0  0  0  0  0  0
    3.3862   -1.8293   -1.3952 H   0  0  0  0  0  0  0  0  0  0  0  0
    5.5405    2.9664    1.2234 H   0  0  0  0  0  0  0  0  0  0  0  0
    7.7002    3.7823    2.1718 H   0  0  0  0  0  0  0  0  0  0  0  0
    9.1112   -0.1987    2.1617 H   0  0  0  0  0  0  0  0  0  0  0  0
    6.9318   -0.9949    1.2093 H   0  0  0  0  0  0  0  0  0  0  0  0
   10.8907    0.9180    3.9617 H   0  0  0  0  0  0  0  0  0  0  0  0
  1  2  1  0
  2  3  2  0
  3  4  1  0
  4  5  2  0
  5  6  1  0
  6  7  2  0
  4  8  1  0
  8  9  1  0
  9 10  2  0
  9 11  1  0
 11 12  1  0
 12 13  2  0
 12 14  1  0
 14 15  1  0
 15 16  1  0
 16 17  1  0
 17 18  1  0
 18 19  1  0
 19 20  2  0
 20 21  1  0
 21 22  2  0
 22 23  1  0
 23 24  2  0
 24 25  1  0
 17 26  1  0
 26 27  1  0
 11 28  1  0
 28 29  2  0
 29 30  1  0
 30 31  2  0
 31 32  1  0
 32 33  2  0
 31 34  1  0
 34 35  2  0
 35 36  1  0
 36 37  2  0
 37 38  1  0
 38 39  2  0
 37 40  1  0
 40 41  1  0
 40 42  2  0
  7  2  1  0
 14  8  1  0
 27 14  1  0
 33 28  1  0
 39 34  1  0
 24 19  1  0
  1 43  1  0
  1 44  1  0
  1 45  1  0
  3 46  1  0
  6 47  1  0
 15 48  1  0
 15 49  1  0
 16 50  1  0
 16 51  1  0
 18 52  1  0
 18 53  1  0
 21 54  1  0
 22 55  1  0
 23 56  1  0
 25 57  1  0
 25 58  1  0
 25 59  1  0
 26 60  1  0
 26 61  1  0
 27 62  1  0
 27 63  1  0
 29 64  1  0
 30 65  1  0
 32 66  1  0
 33 67  1  0
 35 68  1  0
 36 69  1  0
 38 70  1  0
 39 71  1  0
 41 72  1  0
M  END
$$$$
[H]OC(=O)c1c([H])c([H])c(-c2c([H])c([H])c(N3C(=O)N(c4nc([H])n([H])c(=O)c4[H])C4(C3=O)C([H])([H])C([H])([H])N(C([H])([H])c3nc([H])c([H])c([H])c3C([H])([H])[H])C([H])([H])C4([H])[H])c([H])c2[H])c(C([H])([H])[H])c1[H]
     RDKit          3D

 73 78  0  0  0  0  0  0  0  0999 V2000
    6.8745   -0.4829   -0.6272 C   0  0  0  0  0  0  0  0  0  0  0  0
    6.3743    0.8886   -0.9471 C   0  0  0  0  0  0  0  0  0  0  0  0
    6.9711    1.6732   -1.8831 C   0  0  0  0  0  0  0  0  0  0  0  0
    6.5269    2.9438   -2.1969 C   0  0  0  0  0  0  0  0  0  0  0  0
    5.4208    3.4119   -1.5096 C   0  0  0  0  0  0  0  0  0  0  0  0
    4.8388    2.6287   -0.5867 N   0  0  0  0  0  0  0  0  0  0  0  0
    5.2532    1.3994   -0.2702 C   0  0  0  0  0  0  0  0  0  0  0  0
    4.5868    0.6112    0.7524 C   0  0  0  0  0  0  0  0  0  0  0  0
    3.4453    1.1712    1.3911 N   0  0  0  0  0  0  0  0  0  0  0  0
    3.0422    0.2251    2.4540 C   0  0  0  0  0  0  0  0  0  0  0  0
    2.5608   -1.0761    1.9161 C   0  0  0  0  0  0  0  0  0  0  0  0
    1.5854   -0.9320    0.7918 C   0  0  0  0  0  0  0  0  0  0  0  0
    1.9778    0.1254   -0.2184 C   0  0  0  0  0  0  0  0  0  0  0  0
    2.2999    1.3815    0.5167 C   0  0  0  0  0  0  0  0  0  0  0  0
    1.3112   -2.1946    0.1428 N   0  0  0  0  0  0  0  0  0  0  0  0
   -0.0064   -2.0411   -0.4106 C   0  0  0  0  0  0  0  0  0  0  0  0
   -0.4565   -2.7200   -1.3785 O   0  0  0  0  0  0  0  0  0  0  0  0
   -0.6889   -1.0197    0.3060 N   0  0  0  0  0  0  0  0  0  0  0  0
    0.2199   -0.5574    1.2914 C   0  0  0  0  0  0  0  0  0  0  0  0
   -0.0733    0.0515    2.3784 O   0  0  0  0  0  0  0  0  0  0  0  0
   -1.9998   -0.5248    0.1301 C   0  0  0  0  0  0  0  0  0  0  0  0
   -2.8398   -0.4792    1.2234 C   0  0  0  0  0  0  0  0  0  0  0  0
   -4.1238   -0.0126    1.1244 C   0  0  0  0  0  0  0  0  0  0  0  0
   -4.6473    0.4427   -0.0970 C   0  0  0  0  0  0  0  0  0  0  0  0
   -3.8071    0.3936   -1.1754 C   0  0  0  0  0  0  0  0  0  0  0  0
   -2.4950   -0.0834   -1.0734 C   0  0  0  0  0  0  0  0  0  0  0  0
   -6.0191    0.9086   -0.1417 C   0  0  0  0  0  0  0  0  0  0  0  0
   -7.0388    0.1197    0.4043 C   0  0  0  0  0  0  0  0  0  0  0  0
   -8.3418    0.5243    0.3750 C   0  0  0  0  0  0  0  0  0  0  0  0
   -8.6764    1.7413   -0.2052 C   0  0  0  0  0  0  0  0  0  0  0  0
   -7.6817    2.5173   -0.7413 C   0  0  0  0  0  0  0  0  0  0  0  0
   -6.3535    2.0930   -0.7052 C   0  0  0  0  0  0  0  0  0  0  0  0
   -5.3295    2.9800   -1.2880 C   0  0  0  0  0  0  0  0  0  0  0  0
  -10.0627    2.2014   -0.2493 C   0  0  0  0  0  0  0  0  0  0  0  0
  -10.3881    3.4179   -0.8288 O   0  0  0  0  0  0  0  0  0  0  0  0
  -10.9548    1.4434    0.2639 O   0  0  0  0  0  0  0  0  0  0  0  0
    2.1057   -3.3814    0.0269 C   0  0  0  0  0  0  0  0  0  0  0  0
    3.3669   -3.3323   -0.5178 C   0  0  0  0  0  0  0  0  0  0  0  0
    4.0878   -4.5015   -0.6062 C   0  0  0  0  0  0  0  0  0  0  0  0
    5.2654   -4.4922   -1.1077 O   0  0  0  0  0  0  0  0  0  0  0  0
    3.5653   -5.6599   -0.1686 N   0  0  0  0  0  0  0  0  0  0  0  0
    2.3349   -5.7277    0.3663 C   0  0  0  0  0  0  0  0  0  0  0  0
    1.6510   -4.5760    0.4424 N   0  0  0  0  0  0  0  0  0  0  0  0
    7.9876   -0.4214   -0.6465 H   0  0  0  0  0  0  0  0  0  0  0  0
    6.6104   -0.7861    0.4141 H   0  0  0  0  0  0  0  0  0  0  0  0
    6.5572   -1.2297   -1.3641 H   0  0  0  0  0  0  0  0  0  0  0  0
    7.8457    1.2709   -2.4089 H   0  0  0  0  0  0  0  0  0  0  0  0
    7.0192    3.5473   -2.9457 H   0  0  0  0  0  0  0  0  0  0  0  0
    5.0282    4.4066   -1.7165 H   0  0  0  0  0  0  0  0  0  0  0  0
    4.3794   -0.4033    0.3034 H   0  0  0  0  0  0  0  0  0  0  0  0
    5.3590    0.3802    1.5485 H   0  0  0  0  0  0  0  0  0  0  0  0
    2.3454    0.7111    3.1700 H   0  0  0  0  0  0  0  0  0  0  0  0
    3.9757    0.0393    3.0279 H   0  0  0  0  0  0  0  0  0  0  0  0
    2.0217   -1.5983    2.7414 H   0  0  0  0  0  0  0  0  0  0  0  0
    3.4227   -1.6575    1.5645 H   0  0  0  0  0  0  0  0  0  0  0  0
    2.7692   -0.2231   -0.9068 H   0  0  0  0  0  0  0  0  0  0  0  0
    1.0742    0.3141   -0.8572 H   0  0  0  0  0  0  0  0  0  0  0  0
    1.4389    1.5786    1.2019 H   0  0  0  0  0  0  0  0  0  0  0  0
    2.4360    2.2806   -0.0586 H   0  0  0  0  0  0  0  0  0  0  0  0
   -2.4837   -0.8240    2.2085 H   0  0  0  0  0  0  0  0  0  0  0  0
   -4.7922    0.0252    1.9858 H   0  0  0  0  0  0  0  0  0  0  0  0
   -4.1680    0.7280   -2.1345 H   0  0  0  0  0  0  0  0  0  0  0  0
   -1.8341   -0.1188   -1.9354 H   0  0  0  0  0  0  0  0  0  0  0  0
   -6.7358   -0.8265    0.8494 H   0  0  0  0  0  0  0  0  0  0  0  0
   -9.1233   -0.0905    0.7988 H   0  0  0  0  0  0  0  0  0  0  0  0
   -7.9192    3.4667   -1.1970 H   0  0  0  0  0  0  0  0  0  0  0  0
   -4.3537    2.9541   -0.8065 H   0  0  0  0  0  0  0  0  0  0  0  0
   -5.3095    2.7902   -2.3936 H   0  0  0  0  0  0  0  0  0  0  0  0
   -5.6946    4.0548   -1.2166 H   0  0  0  0  0  0  0  0  0  0  0  0
  -11.3407    3.7601   -0.6952 H   0  0  0  0  0  0  0  0  0  0  0  0
    3.7916   -2.4029   -0.8718 H   0  0  0  0  0  0  0  0  0  0  0  0
    4.1036   -6.5476   -0.2312 H   0  0  0  0  0  0  0  0  0  0  0  0
    1.9075   -6.6777    0.7251 H   0  0  0  0  0  0  0  0  0  0  0  0
  1  2  1  0
  2  3  2  0
  3  4  1  0
  4  5  2  0
  5  6  1  0
  6  7  2  0
  7  8  1  0
  8  9  1  0
  9 10  1  0
 10 11  1  0
 11 12  1  0
 12 13  1  0
 13 14  1  0
 12 15  1  0
 15 16  1  0
 16 17  2  0
 16 18  1  0
 18 19  1  0
 19 20  2  0
 18 21  1  0
 21 22  2  0
 22 23  1  0
 23 24  2  0
 24 25  1  0
 25 26  2  0
 24 27  1  0
 27 28  2  0
 28 29  1  0
 29 30  2  0
 30 31  1  0
 31 32  2  0
 32 33  1  0
 30 34  1  0
 34 35  1  0
 34 36  2  0
 15 37  1  0
 37 38  2  0
 38 39  1  0
 39 40  2  0
 39 41  1  0
 41 42  1  0
 42 43  2  0
  7  2  1  0
 14  9  1  0
 26 21  1  0
 32 27  1  0
 43 37  1  0
 19 12  1  0
  1 44  1  0
  1 45  1  0
  1 46  1  0
  3 47  1  0
  4 48  1  0
  5 49  1  0
  8 50  1  0
  8 51  1  0
 10 52  1  0
 10 53  1  0
 11 54  1  0
 11 55  1  0
 13 56  1  0
 13 57  1  0
 14 58  1  0
 14 59  1  0
 22 60  1  0
 23 61  1  0
 25 62  1  0
 26 63  1  0
 28 64  1  0
 29 65  1  0
 31 66  1  0
 33 67  1  0
 33 68  1  0
 33 69  1  0
 35 70  1  0
 38 71  1  0
 41 72  1  0
 42 73  1  0
M  END
$$$$
[H]OC(=O)c1c([H])c([H])c(N2C(=O)N(c3c([H])c([H])c(C#N)c([H])c3[H])C(=O)C23C([H])([H])C([H])([H])N(C([H])([H])c2nc([H])c([H])c([H])c2C([H])([H])[H])C([H])([H])C3([H])[H])c([H])c1[H]
     RDKit          3D

 62 66  0  0  0  0  0  0  0  0999 V2000
    4.6243    0.1383   -1.7047 C   0  0  0  0  0  0  0  0  0  0  0  0
    5.3173    0.0094   -0.4165 C   0  0  0  0  0  0  0  0  0  0  0  0
    6.6390   -0.4984   -0.3023 C   0  0  0  0  0  0  0  0  0  0  0  0
    7.1667   -0.6719    0.9371 C   0  0  0  0  0  0  0  0  0  0  0  0
    6.5102   -0.3933    2.0858 C   0  0  0  0  0  0  0  0  0  0  0  0
    5.2434    0.0930    1.9565 N   0  0  0  0  0  0  0  0  0  0  0  0
    4.6498    0.2957    0.7296 C   0  0  0  0  0  0  0  0  0  0  0  0
    3.3595    0.9897    0.6940 C   0  0  0  0  0  0  0  0  0  0  0  0
    2.2367    0.4525    0.1074 N   0  0  0  0  0  0  0  0  0  0  0  0
    1.7338   -0.7797    0.4390 C   0  0  0  0  0  0  0  0  0  0  0  0
    0.3562   -0.7095    1.0979 C   0  0  0  0  0  0  0  0  0  0  0  0
   -0.6302   -0.0111    0.2788 C   0  0  0  0  0  0  0  0  0  0  0  0
    0.0160    0.7689   -0.8417 C   0  0  0  0  0  0  0  0  0  0  0  0
    1.2373    1.4208   -0.2855 C   0  0  0  0  0  0  0  0  0  0  0  0
   -1.7925   -0.7560   -0.1364 N   0  0  0  0  0  0  0  0  0  0  0  0
   -2.6706    0.3221   -0.6172 C   0  0  0  0  0  0  0  0  0  0  0  0
   -3.5020    0.2263   -1.5312 O   0  0  0  0  0  0  0  0  0  0  0  0
   -2.4038    1.4924    0.1602 N   0  0  0  0  0  0  0  0  0  0  0  0
   -1.3541    1.0865    1.0850 C   0  0  0  0  0  0  0  0  0  0  0  0
   -1.1362    1.5193    2.1813 O   0  0  0  0  0  0  0  0  0  0  0  0
   -3.0270    2.7618    0.0676 C   0  0  0  0  0  0  0  0  0  0  0  0
   -3.0100    3.6603    1.1279 C   0  0  0  0  0  0  0  0  0  0  0  0
   -3.6637    4.9142    1.0175 C   0  0  0  0  0  0  0  0  0  0  0  0
   -4.3234    5.2544   -0.1357 C   0  0  0  0  0  0  0  0  0  0  0  0
   -4.3316    4.3661   -1.1654 C   0  0  0  0  0  0  0  0  0  0  0  0
   -3.6952    3.1378   -1.0595 C   0  0  0  0  0  0  0  0  0  0  0  0
   -5.0275    6.5035   -0.2717 C   0  0  0  0  0  0  0  0  0  0  0  0
   -5.5678    7.5190   -0.3821 N   0  0  0  0  0  0  0  0  0  0  0  0
   -2.2014   -2.0636   -0.1573 C   0  0  0  0  0  0  0  0  0  0  0  0
   -3.4661   -2.5419    0.1276 C   0  0  0  0  0  0  0  0  0  0  0  0
   -3.8669   -3.8463    0.1083 C   0  0  0  0  0  0  0  0  0  0  0  0
   -2.9229   -4.8198   -0.2287 C   0  0  0  0  0  0  0  0  0  0  0  0
   -1.6662   -4.3809   -0.5214 C   0  0  0  0  0  0  0  0  0  0  0  0
   -1.2556   -3.0932   -0.5056 C   0  0  0  0  0  0  0  0  0  0  0  0
   -3.2932   -6.2138   -0.2474 C   0  0  0  0  0  0  0  0  0  0  0  0
   -2.3666   -7.1901   -0.6572 O   0  0  0  0  0  0  0  0  0  0  0  0
   -4.4272   -6.6063    0.0895 O   0  0  0  0  0  0  0  0  0  0  0  0
    4.0913    1.1002   -1.8689 H   0  0  0  0  0  0  0  0  0  0  0  0
    5.3967    0.0526   -2.4926 H   0  0  0  0  0  0  0  0  0  0  0  0
    3.9319   -0.7368   -1.9195 H   0  0  0  0  0  0  0  0  0  0  0  0
    7.0957   -0.7066   -1.2499 H   0  0  0  0  0  0  0  0  0  0  0  0
    8.2248   -1.0578    1.0048 H   0  0  0  0  0  0  0  0  0  0  0  0
    6.9803   -0.5349    3.0619 H   0  0  0  0  0  0  0  0  0  0  0  0
    3.1003    1.1658    1.8479 H   0  0  0  0  0  0  0  0  0  0  0  0
    3.5327    2.0439    0.3851 H   0  0  0  0  0  0  0  0  0  0  0  0
    1.6973   -1.5136   -0.4306 H   0  0  0  0  0  0  0  0  0  0  0  0
    2.4128   -1.3306    1.1603 H   0  0  0  0  0  0  0  0  0  0  0  0
    0.0555   -1.7177    1.4725 H   0  0  0  0  0  0  0  0  0  0  0  0
    0.5630   -0.1084    2.0426 H   0  0  0  0  0  0  0  0  0  0  0  0
   -0.6883    1.5446   -1.2464 H   0  0  0  0  0  0  0  0  0  0  0  0
    0.3452    0.1430   -1.6955 H   0  0  0  0  0  0  0  0  0  0  0  0
    1.0697    2.1705    0.5025 H   0  0  0  0  0  0  0  0  0  0  0  0
    1.7314    1.9880   -1.1326 H   0  0  0  0  0  0  0  0  0  0  0  0
   -2.5200    3.3985    2.0251 H   0  0  0  0  0  0  0  0  0  0  0  0
   -3.6328    5.5793    1.8506 H   0  0  0  0  0  0  0  0  0  0  0  0
   -4.8317    4.6499   -2.0730 H   0  0  0  0  0  0  0  0  0  0  0  0
   -3.7725    2.5006   -1.9332 H   0  0  0  0  0  0  0  0  0  0  0  0
   -4.1903   -1.7603    0.3926 H   0  0  0  0  0  0  0  0  0  0  0  0
   -4.8562   -4.2067    0.3351 H   0  0  0  0  0  0  0  0  0  0  0  0
   -0.9032   -5.1537   -0.7914 H   0  0  0  0  0  0  0  0  0  0  0  0
   -0.2765   -2.8028   -0.7339 H   0  0  0  0  0  0  0  0  0  0  0  0
   -2.0454   -7.0632   -1.6371 H   0  0  0  0  0  0  0  0  0  0  0  0
  1  2  1  0
  2  3  2  0
  3  4  1  0
  4  5  2  0
  5  6  1  0
  6  7  2  0
  7  8  1  0
  8  9  1  0
  9 10  1  0
 10 11  1  0
 11 12  1  0
 12 13  1  0
 13 14  1  0
 12 15  1  0
 15 16  1  0
 16 17  2  0
 16 18  1  0
 18 19  1  0
 19 20  2  0
 18 21  1  0
 21 22  2  0
 22 23  1  0
 23 24  2  0
 24 25  1  0
 25 26  2  0
 24 27  1  0
 27 28  3  0
 15 29  1  0
 29 30  2  0
 30 31  1  0
 31 32  2  0
 32 33  1  0
 33 34  2  0
 32 35  1  0
 35 36  1  0
 35 37  2  0
  7  2  1  0
 14  9  1  0
 26 21  1  0
 34 29  1  0
 19 12  1  0
  1 38  1  0
  1 39  1  0
  1 40  1  0
  3 41  1  0
  4 42  1  0
  5 43  1  0
  8 44  1  0
  8 45  1  0
 10 46  1  0
 10 47  1  0
 11 48  1  0
 11 49  1  0
 13 50  1  0
 13 51  1  0
 14 52  1  0
 14 53  1  0
 22 54  1  0
 23 55  1  0
 25 56  1  0
 26 57  1  0
 30 58  1  0
 31 59  1  0
 33 60  1  0
 34 61  1  0
 36 62  1  0
M  END
$$$$
[H]c1nc(C([H])([H])N2C([H])([H])C([H])([H])C3(C(=O)N(c4c([H])c([H])c(C#N)c([H])c4[H])C(=O)N3c3nc([H])n([H])c(=O)c3[H])C([H])([H])C2([H])[H])c(C([H])([H])[H])c([H])c1[H]
     RDKit          3D

 58 62  0  0  0  0  0  0  0  0999 V2000
    6.0313   -0.5385    1.3777 C   0  0  0  0  0  0  0  0  0  0  0  0
    5.4437    0.3632    0.3684 C   0  0  0  0  0  0  0  0  0  0  0  0
    6.2497    1.1404   -0.4300 C   0  0  0  0  0  0  0  0  0  0  0  0
    5.7090    1.9961   -1.3877 C   0  0  0  0  0  0  0  0  0  0  0  0
    4.3421    2.0124   -1.4807 C   0  0  0  0  0  0  0  0  0  0  0  0
    3.5778    1.2437   -0.6890 N   0  0  0  0  0  0  0  0  0  0  0  0
    4.0724    0.4137    0.2383 C   0  0  0  0  0  0  0  0  0  0  0  0
    3.1908   -0.3907    1.0968 C   0  0  0  0  0  0  0  0  0  0  0  0
    1.7790   -0.2454    0.8190 N   0  0  0  0  0  0  0  0  0  0  0  0
    1.0365   -0.9779    1.8542 C   0  0  0  0  0  0  0  0  0  0  0  0
   -0.2780   -1.4729    1.3497 C   0  0  0  0  0  0  0  0  0  0  0  0
   -0.8768   -0.6126    0.2647 C   0  0  0  0  0  0  0  0  0  0  0  0
    0.0906   -0.3255   -0.8681 C   0  0  0  0  0  0  0  0  0  0  0  0
    1.4254   -0.8949   -0.4393 C   0  0  0  0  0  0  0  0  0  0  0  0
   -2.0349   -1.2707   -0.2937 N   0  0  0  0  0  0  0  0  0  0  0  0
   -2.9066   -0.2158   -0.7110 C   0  0  0  0  0  0  0  0  0  0  0  0
   -3.8585   -0.3540   -1.5503 O   0  0  0  0  0  0  0  0  0  0  0  0
   -2.5504    0.9996   -0.0507 N   0  0  0  0  0  0  0  0  0  0  0  0
   -1.4367    0.6530    0.7801 C   0  0  0  0  0  0  0  0  0  0  0  0
   -1.0293    1.3148    1.7580 O   0  0  0  0  0  0  0  0  0  0  0  0
   -3.1770    2.2665   -0.1988 C   0  0  0  0  0  0  0  0  0  0  0  0
   -2.4832    3.4311   -0.3496 C   0  0  0  0  0  0  0  0  0  0  0  0
   -3.1515    4.6329   -0.4892 C   0  0  0  0  0  0  0  0  0  0  0  0
   -4.5457    4.6889   -0.4800 C   0  0  0  0  0  0  0  0  0  0  0  0
   -5.2407    3.5169   -0.3284 C   0  0  0  0  0  0  0  0  0  0  0  0
   -4.5726    2.3331   -0.1910 C   0  0  0  0  0  0  0  0  0  0  0  0
   -5.2285    5.9500   -0.6272 C   0  0  0  0  0  0  0  0  0  0  0  0
   -5.7697    6.9563   -0.7608 N   0  0  0  0  0  0  0  0  0  0  0  0
   -2.3152   -2.6624   -0.4313 C   0  0  0  0  0  0  0  0  0  0  0  0
   -2.1513   -3.3075   -1.6488 C   0  0  0  0  0  0  0  0  0  0  0  0
   -2.4246   -4.6549   -1.7726 C   0  0  0  0  0  0  0  0  0  0  0  0
   -2.2813   -5.2677   -2.8791 O   0  0  0  0  0  0  0  0  0  0  0  0
   -2.8594   -5.3927   -0.7211 N   0  0  0  0  0  0  0  0  0  0  0  0
   -3.0102   -4.7441    0.4478 C   0  0  0  0  0  0  0  0  0  0  0  0
   -2.7480   -3.4293    0.5869 N   0  0  0  0  0  0  0  0  0  0  0  0
    6.0126   -1.6100    1.0410 H   0  0  0  0  0  0  0  0  0  0  0  0
    5.4990   -0.4591    2.3542 H   0  0  0  0  0  0  0  0  0  0  0  0
    7.1096   -0.3100    1.5408 H   0  0  0  0  0  0  0  0  0  0  0  0
    7.3376    1.1180   -0.3454 H   0  0  0  0  0  0  0  0  0  0  0  0
    6.3162    2.6135   -2.0237 H   0  0  0  0  0  0  0  0  0  0  0  0
    3.8906    2.6751   -2.2236 H   0  0  0  0  0  0  0  0  0  0  0  0
    3.4095   -0.2483    2.1795 H   0  0  0  0  0  0  0  0  0  0  0  0
    3.4751   -1.4681    0.9043 H   0  0  0  0  0  0  0  0  0  0  0  0
    0.9192   -0.2663    2.6961 H   0  0  0  0  0  0  0  0  0  0  0  0
    1.6408   -1.8468    2.1822 H   0  0  0  0  0  0  0  0  0  0  0  0
   -1.0003   -1.4101    2.2161 H   0  0  0  0  0  0  0  0  0  0  0  0
   -0.2801   -2.5472    1.0639 H   0  0  0  0  0  0  0  0  0  0  0  0
   -0.2443   -0.8125   -1.8079 H   0  0  0  0  0  0  0  0  0  0  0  0
    0.1700    0.7639   -1.0081 H   0  0  0  0  0  0  0  0  0  0  0  0
    1.2349   -1.9804   -0.1782 H   0  0  0  0  0  0  0  0  0  0  0  0
    2.2247   -0.7975   -1.1664 H   0  0  0  0  0  0  0  0  0  0  0  0
   -1.4031    3.4358   -0.3619 H   0  0  0  0  0  0  0  0  0  0  0  0
   -2.6268    5.5562   -0.6087 H   0  0  0  0  0  0  0  0  0  0  0  0
   -6.3164    3.5103   -0.3151 H   0  0  0  0  0  0  0  0  0  0  0  0
   -5.1523    1.4281   -0.0734 H   0  0  0  0  0  0  0  0  0  0  0  0
   -1.8043   -2.7524   -2.5182 H   0  0  0  0  0  0  0  0  0  0  0  0
   -3.0695   -6.4233   -0.8090 H   0  0  0  0  0  0  0  0  0  0  0  0
   -3.3609   -5.3234    1.3115 H   0  0  0  0  0  0  0  0  0  0  0  0
  1  2  1  0
  2  3  2  0
  3  4  1  0
  4  5  2  0
  5  6  1  0
  6  7  2  0
  7  8  1  0
  8  9  1  0
  9 10  1  0
 10 11  1  0
 11 12  1  0
 12 13  1  0
 13 14  1  0
 12 15  1  0
 15 16  1  0
 16 17  2  0
 16 18  1  0
 18 19  1  0
 19 20  2  0
 18 21  1  0
 21 22  2  0
 22 23  1  0
 23 24  2  0
 24 25  1  0
 25 26  2  0
 24 27  1  0
 27 28  3  0
 15 29  1  0
 29 30  2  0
 30 31  1  0
 31 32  2  0
 31 33  1  0
 33 34  1  0
 34 35  2  0
  7  2  1  0
 14  9  1  0
 26 21  1  0
 35 29  1  0
 19 12  1  0
  1 36  1  0
  1 37  1  0
  1 38  1  0
  3 39  1  0
  4 40  1  0
  5 41  1  0
  8 42  1  0
  8 43  1  0
 10 44  1  0
 10 45  1  0
 11 46  1  0
 11 47  1  0
 13 48  1  0
 13 49  1  0
 14 50  1  0
 14 51  1  0
 22 52  1  0
 23 53  1  0
 25 54  1  0
 26 55  1  0
 30 56  1  0
 33 57  1  0
 34 58  1  0
M  END
$$$$
[H]OC(=O)c1c([H])c([H])c(N2C(=O)N(c3nc([H])nc(OC([H])([H])[H])c3[H])C3(C2=O)C([H])([H])C([H])([H])N(C([H])([H])c2nc([H])c([H])c([H])c2C([H])([H])[H])C([H])([H])C3([H])[H])c([H])c1[H]
     RDKit          3D

 63 67  0  0  0  0  0  0  0  0999 V2000
   -4.6143    6.5047   -0.3830 C   0  0  0  0  0  0  0  0  0  0  0  0
   -4.2556    5.1526   -0.2742 O   0  0  0  0  0  0  0  0  0  0  0  0
   -2.9836    4.6645   -0.0828 C   0  0  0  0  0  0  0  0  0  0  0  0
   -2.8682    3.2715   -0.0274 C   0  0  0  0  0  0  0  0  0  0  0  0
   -1.6922    2.6032    0.1568 C   0  0  0  0  0  0  0  0  0  0  0  0
   -0.5835    3.3832    0.2783 N   0  0  0  0  0  0  0  0  0  0  0  0
   -0.6932    4.7456    0.2267 C   0  0  0  0  0  0  0  0  0  0  0  0
   -1.8668    5.3560    0.0505 N   0  0  0  0  0  0  0  0  0  0  0  0
   -1.6155    1.1648    0.2115 N   0  0  0  0  0  0  0  0  0  0  0  0
   -2.7683    0.3138    0.3768 C   0  0  0  0  0  0  0  0  0  0  0  0
   -3.9573    0.7386    0.6493 O   0  0  0  0  0  0  0  0  0  0  0  0
   -2.4135   -1.0075    0.2140 N   0  0  0  0  0  0  0  0  0  0  0  0
   -0.9924   -1.0423   -0.0596 C   0  0  0  0  0  0  0  0  0  0  0  0
   -0.3867   -2.0869   -0.3582 O   0  0  0  0  0  0  0  0  0  0  0  0
   -0.4455    0.3180    0.0717 C   0  0  0  0  0  0  0  0  0  0  0  0
    0.2633    0.5652   -1.2554 C   0  0  0  0  0  0  0  0  0  0  0  0
    1.6896    0.8691   -1.0907 C   0  0  0  0  0  0  0  0  0  0  0  0
    2.3749   -0.0673   -0.2029 N   0  0  0  0  0  0  0  0  0  0  0  0
    3.5581   -0.5291   -0.7553 C   0  0  0  0  0  0  0  0  0  0  0  0
    4.6843   -0.8571    0.1555 C   0  0  0  0  0  0  0  0  0  0  0  0
    4.9046   -1.9851    0.8101 N   0  0  0  0  0  0  0  0  0  0  0  0
    6.0713   -2.2181    1.4815 C   0  0  0  0  0  0  0  0  0  0  0  0
    7.0206   -1.2075    1.4486 C   0  0  0  0  0  0  0  0  0  0  0  0
    6.8169   -0.0202    0.7778 C   0  0  0  0  0  0  0  0  0  0  0  0
    5.6540    0.1932    0.1151 C   0  0  0  0  0  0  0  0  0  0  0  0
    5.2562    1.4715   -0.5573 C   0  0  0  0  0  0  0  0  0  0  0  0
    1.7550   -0.4502    0.9465 C   0  0  0  0  0  0  0  0  0  0  0  0
    0.4937    0.4019    1.2182 C   0  0  0  0  0  0  0  0  0  0  0  0
   -3.1522   -2.2412    0.2337 C   0  0  0  0  0  0  0  0  0  0  0  0
   -3.2680   -2.8915   -1.0054 C   0  0  0  0  0  0  0  0  0  0  0  0
   -3.7292   -4.1687   -1.0933 C   0  0  0  0  0  0  0  0  0  0  0  0
   -4.0957   -4.8404    0.0714 C   0  0  0  0  0  0  0  0  0  0  0  0
   -3.9807   -4.1722    1.2753 C   0  0  0  0  0  0  0  0  0  0  0  0
   -3.5129   -2.8835    1.3727 C   0  0  0  0  0  0  0  0  0  0  0  0
   -4.5138   -6.2201    0.0412 C   0  0  0  0  0  0  0  0  0  0  0  0
   -4.6229   -6.9129    1.2760 O   0  0  0  0  0  0  0  0  0  0  0  0
   -4.7653   -6.7996   -1.0122 O   0  0  0  0  0  0  0  0  0  0  0  0
   -4.3388    6.7755   -1.4530 H   0  0  0  0  0  0  0  0  0  0  0  0
   -4.0770    7.1305    0.3292 H   0  0  0  0  0  0  0  0  0  0  0  0
   -5.7080    6.5705   -0.2983 H   0  0  0  0  0  0  0  0  0  0  0  0
   -3.8002    2.7337   -0.1711 H   0  0  0  0  0  0  0  0  0  0  0  0
    0.2351    5.3251    0.3318 H   0  0  0  0  0  0  0  0  0  0  0  0
    0.1457   -0.3355   -1.9475 H   0  0  0  0  0  0  0  0  0  0  0  0
   -0.2694    1.3731   -1.7699 H   0  0  0  0  0  0  0  0  0  0  0  0
    1.8664    1.8944   -0.6964 H   0  0  0  0  0  0  0  0  0  0  0  0
    2.1941    0.7679   -2.0793 H   0  0  0  0  0  0  0  0  0  0  0  0
    3.2594   -1.6951   -1.0333 H   0  0  0  0  0  0  0  0  0  0  0  0
    3.8244   -0.2001   -1.7522 H   0  0  0  0  0  0  0  0  0  0  0  0
    6.2635   -3.1597    1.9984 H   0  0  0  0  0  0  0  0  0  0  0  0
    7.9660   -1.3678    1.9698 H   0  0  0  0  0  0  0  0  0  0  0  0
    7.5654    0.7788    0.7789 H   0  0  0  0  0  0  0  0  0  0  0  0
    4.8703    1.3397   -1.5796 H   0  0  0  0  0  0  0  0  0  0  0  0
    6.1024    2.1697   -0.6128 H   0  0  0  0  0  0  0  0  0  0  0  0
    4.4550    2.0138    0.0585 H   0  0  0  0  0  0  0  0  0  0  0  0
    2.4068   -0.1877    1.8428 H   0  0  0  0  0  0  0  0  0  0  0  0
    1.5541   -1.5380    1.1005 H   0  0  0  0  0  0  0  0  0  0  0  0
    0.0622    0.0570    2.1791 H   0  0  0  0  0  0  0  0  0  0  0  0
    0.8802    1.4294    1.3393 H   0  0  0  0  0  0  0  0  0  0  0  0
   -2.9550   -2.3288   -1.8876 H   0  0  0  0  0  0  0  0  0  0  0  0
   -3.8145   -4.6779   -2.0399 H   0  0  0  0  0  0  0  0  0  0  0  0
   -4.2775   -4.7093    2.1818 H   0  0  0  0  0  0  0  0  0  0  0  0
   -3.4432   -2.4164    2.3370 H   0  0  0  0  0  0  0  0  0  0  0  0
   -3.7328   -6.8590    1.8330 H   0  0  0  0  0  0  0  0  0  0  0  0
  1  2  1  0
  2  3  1  0
  3  4  2  0
  4  5  1  0
  5  6  2  0
  6  7  1  0
  7  8  2  0
  5  9  1  0
  9 10  1  0
 10 11  2  0
 10 12  1  0
 12 13  1  0
 13 14  2  0
 13 15  1  0
 15 16  1  0
 16 17  1  0
 17 18  1  0
 18 19  1  0
 19 20  1  0
 20 21  2  0
 21 22  1  0
 22 23  2  0
 23 24  1  0
 24 25  2  0
 25 26  1  0
 18 27  1  0
 27 28  1  0
 12 29  1  0
 29 30  2  0
 30 31  1  0
 31 32  2  0
 32 33  1  0
 33 34  2  0
 32 35  1  0
 35 36  1  0
 35 37  2  0
  8  3  1  0
 15  9  1  0
 28 15  1  0
 34 29  1  0
 25 20  1  0
  1 38  1  0
  1 39  1  0
  1 40  1  0
  4 41  1  0
  7 42  1  0
 16 43  1  0
 16 44  1  0
 17 45  1  0
 17 46  1  0
 19 47  1  0
 19 48  1  0
 22 49  1  0
 23 50  1  0
 24 51  1  0
 26 52  1  0
 26 53  1  0
 26 54  1  0
 27 55  1  0
 27 56  1  0
 28 57  1  0
 28 58  1  0
 30 59  1  0
 31 60  1  0
 33 61  1  0
 34 62  1  0
 36 63  1  0
M  END
$$$$
[H]OC(=O)c1c([H])c([H])c(-c2c([H])c([H])c(N3C(=O)N(c4c([H])c([H])c(C#N)c([H])c4[H])C(=O)C34C([H])([H])C([H])([H])N(C([H])([H])c3nc([H])c([H])c([H])c3C([H])([H])[H])C([H])([H])C4([H])[H])c([H])c2[H])c([H])c1[H]
     RDKit          3D

 72 77  0  0  0  0  0  0  0  0999 V2000
    5.6049   -3.1717    1.5406 C   0  0  0  0  0  0  0  0  0  0  0  0
    5.9366   -2.2703    0.4078 C   0  0  0  0  0  0  0  0  0  0  0  0
    7.0706   -2.5185   -0.3564 C   0  0  0  0  0  0  0  0  0  0  0  0
    7.3219   -1.6413   -1.3973 C   0  0  0  0  0  0  0  0  0  0  0  0
    6.4887   -0.5638   -1.6718 C   0  0  0  0  0  0  0  0  0  0  0  0
    5.4046   -0.3820   -0.8892 N   0  0  0  0  0  0  0  0  0  0  0  0
    5.1125   -1.1950    0.1271 C   0  0  0  0  0  0  0  0  0  0  0  0
    3.9417   -0.9988    0.9821 C   0  0  0  0  0  0  0  0  0  0  0  0
    3.1214    0.1416    0.6326 N   0  0  0  0  0  0  0  0  0  0  0  0
    2.0436    0.1838    1.6119 C   0  0  0  0  0  0  0  0  0  0  0  0
    1.0694    1.3004    1.2980 C   0  0  0  0  0  0  0  0  0  0  0  0
    0.5843    1.2216   -0.1329 C   0  0  0  0  0  0  0  0  0  0  0  0
    1.1209    0.0180   -0.8263 C   0  0  0  0  0  0  0  0  0  0  0  0
    2.6218   -0.0360   -0.7035 C   0  0  0  0  0  0  0  0  0  0  0  0
   -0.8616    1.2773   -0.0723 N   0  0  0  0  0  0  0  0  0  0  0  0
   -1.1603    2.6808    0.1437 C   0  0  0  0  0  0  0  0  0  0  0  0
   -2.2270    3.1009    0.6853 O   0  0  0  0  0  0  0  0  0  0  0  0
   -0.0518    3.4124   -0.3612 N   0  0  0  0  0  0  0  0  0  0  0  0
    0.8966    2.4863   -0.8719 C   0  0  0  0  0  0  0  0  0  0  0  0
    1.7713    2.7222   -1.7392 O   0  0  0  0  0  0  0  0  0  0  0  0
    0.0796    4.8387   -0.3460 C   0  0  0  0  0  0  0  0  0  0  0  0
   -0.5978    5.5513   -1.3045 C   0  0  0  0  0  0  0  0  0  0  0  0
   -0.5351    6.9406   -1.3709 C   0  0  0  0  0  0  0  0  0  0  0  0
    0.2359    7.6037   -0.4367 C   0  0  0  0  0  0  0  0  0  0  0  0
    0.9209    6.8819    0.5327 C   0  0  0  0  0  0  0  0  0  0  0  0
    0.8387    5.4966    0.5730 C   0  0  0  0  0  0  0  0  0  0  0  0
    0.3551    9.0314   -0.4306 C   0  0  0  0  0  0  0  0  0  0  0  0
    0.4567   10.1835   -0.4264 N   0  0  0  0  0  0  0  0  0  0  0  0
   -1.8359    0.2427   -0.1726 C   0  0  0  0  0  0  0  0  0  0  0  0
   -2.6605   -0.0141    0.8988 C   0  0  0  0  0  0  0  0  0  0  0  0
   -3.6296   -0.9943    0.8809 C   0  0  0  0  0  0  0  0  0  0  0  0
   -3.7921   -1.7662   -0.2644 C   0  0  0  0  0  0  0  0  0  0  0  0
   -2.9762   -1.5248   -1.3475 C   0  0  0  0  0  0  0  0  0  0  0  0
   -2.0019   -0.5217   -1.2975 C   0  0  0  0  0  0  0  0  0  0  0  0
   -4.8340   -2.8054   -0.2723 C   0  0  0  0  0  0  0  0  0  0  0  0
   -5.1506   -3.4425    0.9067 C   0  0  0  0  0  0  0  0  0  0  0  0
   -6.1193   -4.4263    0.9695 C   0  0  0  0  0  0  0  0  0  0  0  0
   -6.8031   -4.7993   -0.1672 C   0  0  0  0  0  0  0  0  0  0  0  0
   -6.4791   -4.1563   -1.3414 C   0  0  0  0  0  0  0  0  0  0  0  0
   -5.5075   -3.1677   -1.4110 C   0  0  0  0  0  0  0  0  0  0  0  0
   -7.8429   -5.8453   -0.1290 C   0  0  0  0  0  0  0  0  0  0  0  0
   -8.1563   -6.4766    1.0710 O   0  0  0  0  0  0  0  0  0  0  0  0
   -8.4552   -6.1778   -1.1683 O   0  0  0  0  0  0  0  0  0  0  0  0
    5.6867   -2.6037    2.4948 H   0  0  0  0  0  0  0  0  0  0  0  0
    4.5608   -3.5795    1.3964 H   0  0  0  0  0  0  0  0  0  0  0  0
    6.3393   -4.0021    1.5863 H   0  0  0  0  0  0  0  0  0  0  0  0
    7.6825   -3.3628   -0.1044 H   0  0  0  0  0  0  0  0  0  0  0  0
    8.1998   -1.8237   -1.9978 H   0  0  0  0  0  0  0  0  0  0  0  0
    6.7255    0.0944   -2.4946 H   0  0  0  0  0  0  0  0  0  0  0  0
    4.1862   -0.9785    2.0699 H   0  0  0  0  0  0  0  0  0  0  0  0
    3.2737   -1.8952    0.8596 H   0  0  0  0  0  0  0  0  0  0  0  0
    1.5604   -0.7967    1.7284 H   0  0  0  0  0  0  0  0  0  0  0  0
    2.5123    0.4443    2.5827 H   0  0  0  0  0  0  0  0  0  0  0  0
    1.5329    2.2708    1.4722 H   0  0  0  0  0  0  0  0  0  0  0  0
    0.2278    1.1886    2.0068 H   0  0  0  0  0  0  0  0  0  0  0  0
    0.9101    0.0720   -1.9166 H   0  0  0  0  0  0  0  0  0  0  0  0
    0.6497   -0.8808   -0.4302 H   0  0  0  0  0  0  0  0  0  0  0  0
    2.9178   -1.0399   -1.1290 H   0  0  0  0  0  0  0  0  0  0  0  0
    3.1170    0.7088   -1.3594 H   0  0  0  0  0  0  0  0  0  0  0  0
   -1.2025    5.0451   -2.0400 H   0  0  0  0  0  0  0  0  0  0  0  0
   -1.0667    7.5107   -2.1250 H   0  0  0  0  0  0  0  0  0  0  0  0
    1.5188    7.4354    1.2528 H   0  0  0  0  0  0  0  0  0  0  0  0
    1.3661    4.9396    1.3187 H   0  0  0  0  0  0  0  0  0  0  0  0
   -2.5611    0.5645    1.8003 H   0  0  0  0  0  0  0  0  0  0  0  0
   -4.2831   -1.1933    1.7372 H   0  0  0  0  0  0  0  0  0  0  0  0
   -3.0789   -2.1072   -2.2485 H   0  0  0  0  0  0  0  0  0  0  0  0
   -1.4008   -0.3833   -2.1820 H   0  0  0  0  0  0  0  0  0  0  0  0
   -4.6459   -3.1947    1.8460 H   0  0  0  0  0  0  0  0  0  0  0  0
   -6.3599   -4.9214    1.9079 H   0  0  0  0  0  0  0  0  0  0  0  0
   -7.0426   -4.4773   -2.2278 H   0  0  0  0  0  0  0  0  0  0  0  0
   -5.2762   -2.6856   -2.3422 H   0  0  0  0  0  0  0  0  0  0  0  0
   -7.3697   -6.7681    1.6619 H   0  0  0  0  0  0  0  0  0  0  0  0
  1  2  1  0
  2  3  2  0
  3  4  1  0
  4  5  2  0
  5  6  1  0
  6  7  2  0
  7  8  1  0
  8  9  1  0
  9 10  1  0
 10 11  1  0
 11 12  1  0
 12 13  1  0
 13 14  1  0
 12 15  1  0
 15 16  1  0
 16 17  2  0
 16 18  1  0
 18 19  1  0
 19 20  2  0
 18 21  1  0
 21 22  2  0
 22 23  1  0
 23 24  2  0
 24 25  1  0
 25 26  2  0
 24 27  1  0
 27 28  3  0
 15 29  1  0
 29 30  2  0
 30 31  1  0
 31 32  2  0
 32 33  1  0
 33 34  2  0
 32 35  1  0
 35 36  2  0
 36 37  1  0
 37 38  2  0
 38 39  1  0
 39 40  2  0
 38 41  1  0
 41 42  1  0
 41 43  2  0
  7  2  1  0
 14  9  1  0
 26 21  1  0
 34 29  1  0
 40 35  1  0
 19 12  1  0
  1 44  1  0
  1 45  1  0
  1 46  1  0
  3 47  1  0
  4 48  1  0
  5 49  1  0
  8 50  1  0
  8 51  1  0
 10 52  1  0
 10 53  1  0
 11 54  1  0
 11 55  1  0
 13 56  1  0
 13 57  1  0
 14 58  1  0
 14 59  1  0
 22 60  1  0
 23 61  1  0
 25 62  1  0
 26 63  1  0
 30 64  1  0
 31 65  1  0
 33 66  1  0
 34 67  1  0
 36 68  1  0
 37 69  1  0
 39 70  1  0
 40 71  1  0
 42 72  1  0
M  END
$$$$
[H]OC(=O)c1c([H])c([H])c(-c2c([H])c([H])c(N3C(=O)N(c4nc([H])nc(C([H])([H])[H])c4[H])C4(C3=O)C([H])([H])C([H])([H])N(C([H])([H])c3nc([H])c([H])c([H])c3C([H])([H])[H])C([H])([H])C4([H])[H])c([H])c2[H])c(C([H])([H])[H])c1[H]
     RDKit          3D

 75 80  0  0  0  0  0  0  0  0999 V2000
   -0.8670    6.8549   -1.3278 C   0  0  0  0  0  0  0  0  0  0  0  0
   -1.4349    5.7466   -0.5105 C   0  0  0  0  0  0  0  0  0  0  0  0
   -0.8910    4.4820   -0.5741 C   0  0  0  0  0  0  0  0  0  0  0  0
   -1.4601    3.4993    0.2067 C   0  0  0  0  0  0  0  0  0  0  0  0
   -2.4973    3.8107    0.9781 N   0  0  0  0  0  0  0  0  0  0  0  0
   -3.0027    5.0304    1.0231 C   0  0  0  0  0  0  0  0  0  0  0  0
   -2.4888    6.0280    0.2843 N   0  0  0  0  0  0  0  0  0  0  0  0
   -0.9156    2.1787    0.1643 N   0  0  0  0  0  0  0  0  0  0  0  0
    0.4459    1.9240    0.4825 C   0  0  0  0  0  0  0  0  0  0  0  0
    1.2263    2.7323    1.0648 O   0  0  0  0  0  0  0  0  0  0  0  0
    0.7513    0.6123    0.0285 N   0  0  0  0  0  0  0  0  0  0  0  0
   -0.4070    0.0782   -0.5544 C   0  0  0  0  0  0  0  0  0  0  0  0
   -0.4865   -0.9463   -1.2707 O   0  0  0  0  0  0  0  0  0  0  0  0
   -1.5955    0.9273   -0.1959 C   0  0  0  0  0  0  0  0  0  0  0  0
   -2.3608    0.3487    0.9479 C   0  0  0  0  0  0  0  0  0  0  0  0
   -3.8310    0.2894    0.5966 C   0  0  0  0  0  0  0  0  0  0  0  0
   -3.9613   -0.4809   -0.5926 N   0  0  0  0  0  0  0  0  0  0  0  0
   -5.2709   -1.0119   -0.7977 C   0  0  0  0  0  0  0  0  0  0  0  0
   -5.7369   -2.0235    0.1402 C   0  0  0  0  0  0  0  0  0  0  0  0
   -4.9625   -2.4852    1.1327 N   0  0  0  0  0  0  0  0  0  0  0  0
   -5.3928   -3.4374    1.9830 C   0  0  0  0  0  0  0  0  0  0  0  0
   -6.6591   -3.9601    1.8426 C   0  0  0  0  0  0  0  0  0  0  0  0
   -7.4824   -3.5026    0.8265 C   0  0  0  0  0  0  0  0  0  0  0  0
   -7.0102   -2.5295   -0.0236 C   0  0  0  0  0  0  0  0  0  0  0  0
   -7.8444   -2.0104   -1.1131 C   0  0  0  0  0  0  0  0  0  0  0  0
   -3.4949    0.2556   -1.7257 C   0  0  0  0  0  0  0  0  0  0  0  0
   -2.3790    1.1946   -1.4333 C   0  0  0  0  0  0  0  0  0  0  0  0
    2.0269    0.0243    0.1661 C   0  0  0  0  0  0  0  0  0  0  0  0
    2.6749   -0.5377   -0.9400 C   0  0  0  0  0  0  0  0  0  0  0  0
    3.9222   -1.0793   -0.7757 C   0  0  0  0  0  0  0  0  0  0  0  0
    4.5372   -1.0780    0.4432 C   0  0  0  0  0  0  0  0  0  0  0  0
    3.8816   -0.5213    1.5181 C   0  0  0  0  0  0  0  0  0  0  0  0
    2.6485    0.0234    1.3951 C   0  0  0  0  0  0  0  0  0  0  0  0
    5.8949   -1.6250    0.6444 C   0  0  0  0  0  0  0  0  0  0  0  0
    6.1768   -2.5589    1.6190 C   0  0  0  0  0  0  0  0  0  0  0  0
    7.4729   -3.0632    1.7759 C   0  0  0  0  0  0  0  0  0  0  0  0
    8.5012   -2.6430    0.9640 C   0  0  0  0  0  0  0  0  0  0  0  0
    8.2205   -1.7118   -0.0076 C   0  0  0  0  0  0  0  0  0  0  0  0
    6.9179   -1.2052   -0.1644 C   0  0  0  0  0  0  0  0  0  0  0  0
    6.6922   -0.1990   -1.2070 C   0  0  0  0  0  0  0  0  0  0  0  0
    9.8722   -3.1605    1.1218 C   0  0  0  0  0  0  0  0  0  0  0  0
   10.2047   -4.0834    2.0879 O   0  0  0  0  0  0  0  0  0  0  0  0
   10.7929   -2.7606    0.3588 O   0  0  0  0  0  0  0  0  0  0  0  0
   -1.6222    7.6344   -1.5492 H   0  0  0  0  0  0  0  0  0  0  0  0
   -0.0006    7.3288   -0.8145 H   0  0  0  0  0  0  0  0  0  0  0  0
   -0.5654    6.3970   -2.2935 H   0  0  0  0  0  0  0  0  0  0  0  0
   -0.0360    4.2861   -1.2289 H   0  0  0  0  0  0  0  0  0  0  0  0
   -3.8550    5.3098    1.6491 H   0  0  0  0  0  0  0  0  0  0  0  0
   -2.2016    0.8531    1.9175 H   0  0  0  0  0  0  0  0  0  0  0  0
   -2.0428   -0.7217    1.1033 H   0  0  0  0  0  0  0  0  0  0  0  0
   -4.4369   -0.0767    1.4304 H   0  0  0  0  0  0  0  0  0  0  0  0
   -4.1374    1.3435    0.3640 H   0  0  0  0  0  0  0  0  0  0  0  0
   -5.9886   -0.1388   -0.6880 H   0  0  0  0  0  0  0  0  0  0  0  0
   -5.3935   -1.3137   -1.8661 H   0  0  0  0  0  0  0  0  0  0  0  0
   -4.7862   -3.8243    2.7906 H   0  0  0  0  0  0  0  0  0  0  0  0
   -7.0306   -4.7367    2.5238 H   0  0  0  0  0  0  0  0  0  0  0  0
   -8.4777   -3.9263    0.7301 H   0  0  0  0  0  0  0  0  0  0  0  0
   -8.7430   -2.6717   -1.2688 H   0  0  0  0  0  0  0  0  0  0  0  0
   -7.2822   -2.0595   -2.0746 H   0  0  0  0  0  0  0  0  0  0  0  0
   -8.2617   -1.0052   -0.9088 H   0  0  0  0  0  0  0  0  0  0  0  0
   -3.2518   -0.4509   -2.5541 H   0  0  0  0  0  0  0  0  0  0  0  0
   -4.3695    0.8683   -2.0973 H   0  0  0  0  0  0  0  0  0  0  0  0
   -2.7217    2.2609   -1.4674 H   0  0  0  0  0  0  0  0  0  0  0  0
   -1.6652    1.1292   -2.3063 H   0  0  0  0  0  0  0  0  0  0  0  0
    2.1383   -0.5084   -1.8735 H   0  0  0  0  0  0  0  0  0  0  0  0
    4.4086   -1.5174   -1.6389 H   0  0  0  0  0  0  0  0  0  0  0  0
    4.3617   -0.5118    2.5099 H   0  0  0  0  0  0  0  0  0  0  0  0
    2.1657    0.4481    2.2585 H   0  0  0  0  0  0  0  0  0  0  0  0
    5.3669   -2.8874    2.2563 H   0  0  0  0  0  0  0  0  0  0  0  0
    7.6894   -3.7948    2.5421 H   0  0  0  0  0  0  0  0  0  0  0  0
    9.0213   -1.3740   -0.6503 H   0  0  0  0  0  0  0  0  0  0  0  0
    5.9579    0.5862   -0.9641 H   0  0  0  0  0  0  0  0  0  0  0  0
    7.6611    0.3835   -1.3466 H   0  0  0  0  0  0  0  0  0  0  0  0
    6.5521   -0.6874   -2.1893 H   0  0  0  0  0  0  0  0  0  0  0  0
   11.1183   -4.0483    2.5468 H   0  0  0  0  0  0  0  0  0  0  0  0
  1  2  1  0
  2  3  2  0
  3  4  1  0
  4  5  2  0
  5  6  1  0
  6  7  2  0
  4  8  1  0
  8  9  1  0
  9 10  2  0
  9 11  1  0
 11 12  1  0
 12 13  2  0
 12 14  1  0
 14 15  1  0
 15 16  1  0
 16 17  1  0
 17 18  1  0
 18 19  1  0
 19 20  2  0
 20 21  1  0
 21 22  2  0
 22 23  1  0
 23 24  2  0
 24 25  1  0
 17 26  1  0
 26 27  1  0
 11 28  1  0
 28 29  2  0
 29 30  1  0
 30 31  2  0
 31 32  1  0
 32 33  2  0
 31 34  1  0
 34 35  2  0
 35 36  1  0
 36 37  2  0
 37 38  1  0
 38 39  2  0
 39 40  1  0
 37 41  1  0
 41 42  1  0
 41 43  2  0
  7  2  1  0
 14  8  1  0
 27 14  1  0
 33 28  1  0
 39 34  1  0
 24 19  1  0
  1 44  1  0
  1 45  1  0
  1 46  1  0
  3 47  1  0
  6 48  1  0
 15 49  1  0
 15 50  1  0
 16 51  1  0
 16 52  1  0
 18 53  1  0
 18 54  1  0
 21 55  1  0
 22 56  1  0
 23 57  1  0
 25 58  1  0
 25 59  1  0
 25 60  1  0
 26 61  1  0
 26 62  1  0
 27 63  1  0
 27 64  1  0
 29 65  1  0
 30 66  1  0
 32 67  1  0
 33 68  1  0
 35 69  1  0
 36 70  1  0
 38 71  1  0
 40 72  1  0
 40 73  1  0
 40 74  1  0
 42 75  1  0
M  END
$$$$
[H]c1nc(C([H])([H])N2C([H])([H])C([H])([H])C3(C(=O)N(c4c([H])c([H])c(-c5c([H])c([H])c(C#N)c([H])c5[H])c([H])c4[H])C(=O)N3c3nc([H])n([H])c(=O)c3[H])C([H])([H])C2([H])[H])c(C([H])([H])[H])c([H])c1[H]
     RDKit          3D

 68 73  0  0  0  0  0  0  0  0999 V2000
   -6.5303    1.9768    1.5781 C   0  0  0  0  0  0  0  0  0  0  0  0
   -6.7899    0.7085    0.8419 C   0  0  0  0  0  0  0  0  0  0  0  0
   -8.0856    0.4390    0.4257 C   0  0  0  0  0  0  0  0  0  0  0  0
   -8.3502   -0.7469   -0.2675 C   0  0  0  0  0  0  0  0  0  0  0  0
   -7.2839   -1.5696   -0.4876 C   0  0  0  0  0  0  0  0  0  0  0  0
   -6.0467   -1.2902   -0.0786 N   0  0  0  0  0  0  0  0  0  0  0  0
   -5.7363   -0.1616    0.5940 C   0  0  0  0  0  0  0  0  0  0  0  0
   -4.3618    0.1373    1.0595 C   0  0  0  0  0  0  0  0  0  0  0  0
   -3.3843   -0.8661    0.7102 N   0  0  0  0  0  0  0  0  0  0  0  0
   -2.1493   -0.4366    1.3899 C   0  0  0  0  0  0  0  0  0  0  0  0
   -1.3852    0.4930    0.5205 C   0  0  0  0  0  0  0  0  0  0  0  0
   -0.7186   -0.3185   -0.5925 C   0  0  0  0  0  0  0  0  0  0  0  0
   -1.7067   -1.3652   -1.0243 C   0  0  0  0  0  0  0  0  0  0  0  0
   -3.1150   -0.9220   -0.7086 C   0  0  0  0  0  0  0  0  0  0  0  0
   -0.2312    0.5206   -1.6388 N   0  0  0  0  0  0  0  0  0  0  0  0
    1.1586    0.7594   -1.3375 C   0  0  0  0  0  0  0  0  0  0  0  0
    1.8421    1.6692   -1.9251 O   0  0  0  0  0  0  0  0  0  0  0  0
    1.6298   -0.1260   -0.3379 N   0  0  0  0  0  0  0  0  0  0  0  0
    0.5059   -0.9249   -0.0168 C   0  0  0  0  0  0  0  0  0  0  0  0
    0.4769   -1.9962    0.6530 O   0  0  0  0  0  0  0  0  0  0  0  0
    2.9403   -0.1866    0.1970 C   0  0  0  0  0  0  0  0  0  0  0  0
    3.4601    0.8019    0.9940 C   0  0  0  0  0  0  0  0  0  0  0  0
    4.7616    0.7340    1.5063 C   0  0  0  0  0  0  0  0  0  0  0  0
    5.5543   -0.3491    1.2102 C   0  0  0  0  0  0  0  0  0  0  0  0
    5.0544   -1.3394    0.4201 C   0  0  0  0  0  0  0  0  0  0  0  0
    3.7510   -1.2605   -0.0861 C   0  0  0  0  0  0  0  0  0  0  0  0
    6.9265   -0.4659    1.7116 C   0  0  0  0  0  0  0  0  0  0  0  0
    7.1870    0.0942    2.9316 C   0  0  0  0  0  0  0  0  0  0  0  0
    8.4629    0.0179    3.4629 C   0  0  0  0  0  0  0  0  0  0  0  0
    9.4720   -0.6155    2.7766 C   0  0  0  0  0  0  0  0  0  0  0  0
    9.1705   -1.1708    1.5462 C   0  0  0  0  0  0  0  0  0  0  0  0
    7.9052   -1.1088    0.9926 C   0  0  0  0  0  0  0  0  0  0  0  0
   10.8011   -0.7096    3.2958 C   0  0  0  0  0  0  0  0  0  0  0  0
   11.8945   -0.7997    3.7157 N   0  0  0  0  0  0  0  0  0  0  0  0
   -0.9099    1.0566   -2.7735 C   0  0  0  0  0  0  0  0  0  0  0  0
   -0.7382    0.4696   -4.0010 C   0  0  0  0  0  0  0  0  0  0  0  0
   -1.3839    0.9917   -5.1140 C   0  0  0  0  0  0  0  0  0  0  0  0
   -1.2414    0.4710   -6.2504 O   0  0  0  0  0  0  0  0  0  0  0  0
   -2.1799    2.0783   -4.9756 N   0  0  0  0  0  0  0  0  0  0  0  0
   -2.3402    2.6437   -3.7672 C   0  0  0  0  0  0  0  0  0  0  0  0
   -1.7018    2.1236   -2.6818 N   0  0  0  0  0  0  0  0  0  0  0  0
   -7.4952    2.4514    1.8594 H   0  0  0  0  0  0  0  0  0  0  0  0
   -5.9210    1.8397    2.4727 H   0  0  0  0  0  0  0  0  0  0  0  0
   -6.0092    2.6862    0.8907 H   0  0  0  0  0  0  0  0  0  0  0  0
   -8.8986    1.1228    0.6256 H   0  0  0  0  0  0  0  0  0  0  0  0
   -9.3597   -0.9442   -0.5844 H   0  0  0  0  0  0  0  0  0  0  0  0
   -7.4815   -2.4968   -1.0289 H   0  0  0  0  0  0  0  0  0  0  0  0
   -4.0474    1.1156    0.5824 H   0  0  0  0  0  0  0  0  0  0  0  0
   -4.3915    0.3399    2.1473 H   0  0  0  0  0  0  0  0  0  0  0  0
   -2.4418    0.0844    2.3467 H   0  0  0  0  0  0  0  0  0  0  0  0
   -1.6203   -1.3398    1.6852 H   0  0  0  0  0  0  0  0  0  0  0  0
   -2.0240    1.2831    0.1052 H   0  0  0  0  0  0  0  0  0  0  0  0
   -0.5480    0.9784    1.0964 H   0  0  0  0  0  0  0  0  0  0  0  0
   -1.6076   -1.7087   -2.0525 H   0  0  0  0  0  0  0  0  0  0  0  0
   -1.5183   -2.2537   -0.3539 H   0  0  0  0  0  0  0  0  0  0  0  0
   -3.8573   -1.6120   -1.2023 H   0  0  0  0  0  0  0  0  0  0  0  0
   -3.2876    0.0804   -1.1246 H   0  0  0  0  0  0  0  0  0  0  0  0
    2.8070    1.6481    1.2149 H   0  0  0  0  0  0  0  0  0  0  0  0
    5.1180    1.5328    2.1237 H   0  0  0  0  0  0  0  0  0  0  0  0
    5.6627   -2.2160    0.1658 H   0  0  0  0  0  0  0  0  0  0  0  0
    3.3758   -2.0495   -0.7064 H   0  0  0  0  0  0  0  0  0  0  0  0
    6.4193    0.5987    3.4966 H   0  0  0  0  0  0  0  0  0  0  0  0
    8.6757    0.4585    4.4298 H   0  0  0  0  0  0  0  0  0  0  0  0
    9.9403   -1.6685    0.9951 H   0  0  0  0  0  0  0  0  0  0  0  0
    7.6915   -1.5493    0.0286 H   0  0  0  0  0  0  0  0  0  0  0  0
   -0.1158   -0.4011   -4.1707 H   0  0  0  0  0  0  0  0  0  0  0  0
   -2.6666    2.4723   -5.7986 H   0  0  0  0  0  0  0  0  0  0  0  0
   -2.9833    3.5058   -3.7127 H   0  0  0  0  0  0  0  0  0  0  0  0
  1  2  1  0
  2  3  2  0
  3  4  1  0
  4  5  2  0
  5  6  1  0
  6  7  2  0
  7  8  1  0
  8  9  1  0
  9 10  1  0
 10 11  1  0
 11 12  1  0
 12 13  1  0
 13 14  1  0
 12 15  1  0
 15 16  1  0
 16 17  2  0
 16 18  1  0
 18 19  1  0
 19 20  2  0
 18 21  1  0
 21 22  2  0
 22 23  1  0
 23 24  2  0
 24 25  1  0
 25 26  2  0
 24 27  1  0
 27 28  2  0
 28 29  1  0
 29 30  2  0
 30 31  1  0
 31 32  2  0
 30 33  1  0
 33 34  3  0
 15 35  1  0
 35 36  2  0
 36 37  1  0
 37 38  2  0
 37 39  1  0
 39 40  1  0
 40 41  2  0
  7  2  1  0
 14  9  1  0
 26 21  1  0
 32 27  1  0
 41 35  1  0
 19 12  1  0
  1 42  1  0
  1 43  1  0
  1 44  1  0
  3 45  1  0
  4 46  1  0
  5 47  1  0
  8 48  1  0
  8 49  1  0
 10 50  1  0
 10 51  1  0
 11 52  1  0
 11 53  1  0
 13 54  1  0
 13 55  1  0
 14 56  1  0
 14 57  1  0
 22 58  1  0
 23 59  1  0
 25 60  1  0
 26 61  1  0
 28 62  1  0
 29 63  1  0
 31 64  1  0
 32 65  1  0
 36 66  1  0
 39 67  1  0
 40 68  1  0
M  END
$$$$
[H]OC(=O)c1c([H])c([H])c(N2C(=O)N(c3c([H])c([H])c(-c4c([H])c([H])c([H])c([H])c4[H])c([H])c3[H])C(=O)C23C([H])([H])C([H])([H])N(C([H])([H])c2nc([H])c([H])c([H])c2C([H])([H])[H])C([H])([H])C3([H])[H])c([H])c1[H]
     RDKit          3D

 71 76  0  0  0  0  0  0  0  0999 V2000
   -6.9390   -1.8934    0.5684 C   0  0  0  0  0  0  0  0  0  0  0  0
   -5.7086   -2.7046    0.5942 C   0  0  0  0  0  0  0  0  0  0  0  0
   -5.8032   -4.0295    0.9615 C   0  0  0  0  0  0  0  0  0  0  0  0
   -4.6724   -4.8262    0.9986 C   0  0  0  0  0  0  0  0  0  0  0  0
   -3.4792   -4.2453    0.6592 C   0  0  0  0  0  0  0  0  0  0  0  0
   -3.4349   -2.9684    0.3124 N   0  0  0  0  0  0  0  0  0  0  0  0
   -4.4762   -2.1275    0.2497 C   0  0  0  0  0  0  0  0  0  0  0  0
   -4.4231   -0.7117   -0.1594 C   0  0  0  0  0  0  0  0  0  0  0  0
   -3.0702   -0.3227   -0.4422 N   0  0  0  0  0  0  0  0  0  0  0  0
   -3.0445    1.0498   -1.0147 C   0  0  0  0  0  0  0  0  0  0  0  0
   -1.6944    1.2047   -1.6347 C   0  0  0  0  0  0  0  0  0  0  0  0
   -0.5685    0.8946   -0.7361 C   0  0  0  0  0  0  0  0  0  0  0  0
   -0.8528   -0.0956    0.3617 C   0  0  0  0  0  0  0  0  0  0  0  0
   -2.2765   -0.1347    0.7883 C   0  0  0  0  0  0  0  0  0  0  0  0
    0.0363    2.0981   -0.1392 N   0  0  0  0  0  0  0  0  0  0  0  0
    1.3158    1.6219    0.3059 C   0  0  0  0  0  0  0  0  0  0  0  0
    1.9739    2.1167    1.2786 O   0  0  0  0  0  0  0  0  0  0  0  0
    1.6980    0.5218   -0.5247 N   0  0  0  0  0  0  0  0  0  0  0  0
    0.6329    0.3624   -1.4549 C   0  0  0  0  0  0  0  0  0  0  0  0
    0.7306   -0.1222   -2.6094 O   0  0  0  0  0  0  0  0  0  0  0  0
    2.8947   -0.2524   -0.4371 C   0  0  0  0  0  0  0  0  0  0  0  0
    3.1229   -1.0371    0.6712 C   0  0  0  0  0  0  0  0  0  0  0  0
    4.2873   -1.7908    0.7520 C   0  0  0  0  0  0  0  0  0  0  0  0
    5.1738   -1.7140   -0.3023 C   0  0  0  0  0  0  0  0  0  0  0  0
    4.9260   -0.9183   -1.4086 C   0  0  0  0  0  0  0  0  0  0  0  0
    3.7730   -0.1696   -1.4928 C   0  0  0  0  0  0  0  0  0  0  0  0
    6.4031   -2.5242   -0.1976 C   0  0  0  0  0  0  0  0  0  0  0  0
    6.3463   -3.7211    0.4780 C   0  0  0  0  0  0  0  0  0  0  0  0
    7.4638   -4.5185    0.6051 C   0  0  0  0  0  0  0  0  0  0  0  0
    8.6564   -4.1166    0.0500 C   0  0  0  0  0  0  0  0  0  0  0  0
    8.6977   -2.9144   -0.6241 C   0  0  0  0  0  0  0  0  0  0  0  0
    7.5934   -2.1155   -0.7557 C   0  0  0  0  0  0  0  0  0  0  0  0
   -0.4851    3.4054   -0.0206 C   0  0  0  0  0  0  0  0  0  0  0  0
   -0.3596    4.3598   -1.0249 C   0  0  0  0  0  0  0  0  0  0  0  0
   -0.8758    5.6264   -0.8924 C   0  0  0  0  0  0  0  0  0  0  0  0
   -1.5397    6.0073    0.2394 C   0  0  0  0  0  0  0  0  0  0  0  0
   -1.6800    5.0982    1.2411 C   0  0  0  0  0  0  0  0  0  0  0  0
   -1.1589    3.8107    1.1138 C   0  0  0  0  0  0  0  0  0  0  0  0
   -2.0709    7.3564    0.3385 C   0  0  0  0  0  0  0  0  0  0  0  0
   -2.7370    7.7157    1.4950 O   0  0  0  0  0  0  0  0  0  0  0  0
   -1.9556    8.2120   -0.5729 O   0  0  0  0  0  0  0  0  0  0  0  0
   -7.2697   -1.7144    1.6093 H   0  0  0  0  0  0  0  0  0  0  0  0
   -7.7255   -2.5146    0.0582 H   0  0  0  0  0  0  0  0  0  0  0  0
   -6.7819   -0.9694    0.0136 H   0  0  0  0  0  0  0  0  0  0  0  0
   -6.7780   -4.4429    1.2220 H   0  0  0  0  0  0  0  0  0  0  0  0
   -4.7542   -5.8840    1.2927 H   0  0  0  0  0  0  0  0  0  0  0  0
   -2.5721   -4.8635    0.6829 H   0  0  0  0  0  0  0  0  0  0  0  0
   -5.0901   -0.5072   -1.0194 H   0  0  0  0  0  0  0  0  0  0  0  0
   -4.7616   -0.1260    0.7393 H   0  0  0  0  0  0  0  0  0  0  0  0
   -3.8539    1.1709   -1.7432 H   0  0  0  0  0  0  0  0  0  0  0  0
   -3.2171    1.7315   -0.1650 H   0  0  0  0  0  0  0  0  0  0  0  0
   -1.6626    0.4884   -2.5082 H   0  0  0  0  0  0  0  0  0  0  0  0
   -1.5599    2.2054   -2.0937 H   0  0  0  0  0  0  0  0  0  0  0  0
   -0.1882    0.1522    1.2369 H   0  0  0  0  0  0  0  0  0  0  0  0
   -0.5743   -1.1225    0.0236 H   0  0  0  0  0  0  0  0  0  0  0  0
   -2.4543   -0.9829    1.4577 H   0  0  0  0  0  0  0  0  0  0  0  0
   -2.6237    0.8191    1.2563 H   0  0  0  0  0  0  0  0  0  0  0  0
    2.4409   -1.1061    1.5003 H   0  0  0  0  0  0  0  0  0  0  0  0
    4.4571   -2.3998    1.6215 H   0  0  0  0  0  0  0  0  0  0  0  0
    5.6827   -0.9189   -2.1955 H   0  0  0  0  0  0  0  0  0  0  0  0
    3.5774    0.4497   -2.3517 H   0  0  0  0  0  0  0  0  0  0  0  0
    5.4079   -4.0611    0.9280 H   0  0  0  0  0  0  0  0  0  0  0  0
    7.4087   -5.4667    1.1434 H   0  0  0  0  0  0  0  0  0  0  0  0
    9.4990   -4.7749    0.1769 H   0  0  0  0  0  0  0  0  0  0  0  0
    9.6557   -2.6116   -1.0601 H   0  0  0  0  0  0  0  0  0  0  0  0
    7.6671   -1.1966   -1.2836 H   0  0  0  0  0  0  0  0  0  0  0  0
    0.1609    4.1082   -1.9457 H   0  0  0  0  0  0  0  0  0  0  0  0
   -0.7528    6.3194   -1.6891 H   0  0  0  0  0  0  0  0  0  0  0  0
   -2.2129    5.4116    2.1406 H   0  0  0  0  0  0  0  0  0  0  0  0
   -1.3154    3.1502    1.9564 H   0  0  0  0  0  0  0  0  0  0  0  0
   -2.2290    8.1692    2.2433 H   0  0  0  0  0  0  0  0  0  0  0  0
  1  2  1  0
  2  3  2  0
  3  4  1  0
  4  5  2  0
  5  6  1  0
  6  7  2  0
  7  8  1  0
  8  9  1  0
  9 10  1  0
 10 11  1  0
 11 12  1  0
 12 13  1  0
 13 14  1  0
 12 15  1  0
 15 16  1  0
 16 17  2  0
 16 18  1  0
 18 19  1  0
 19 20  2  0
 18 21  1  0
 21 22  2  0
 22 23  1  0
 23 24  2  0
 24 25  1  0
 25 26  2  0
 24 27  1  0
 27 28  2  0
 28 29  1  0
 29 30  2  0
 30 31  1  0
 31 32  2  0
 15 33  1  0
 33 34  2  0
 34 35  1  0
 35 36  2  0
 36 37  1  0
 37 38  2  0
 36 39  1  0
 39 40  1  0
 39 41  2  0
  7  2  1  0
 14  9  1  0
 26 21  1  0
 32 27  1  0
 38 33  1  0
 19 12  1  0
  1 42  1  0
  1 43  1  0
  1 44  1  0
  3 45  1  0
  4 46  1  0
  5 47  1  0
  8 48  1  0
  8 49  1  0
 10 50  1  0
 10 51  1  0
 11 52  1  0
 11 53  1  0
 13 54  1  0
 13 55  1  0
 14 56  1  0
 14 57  1  0
 22 58  1  0
 23 59  1  0
 25 60  1  0
 26 61  1  0
 28 62  1  0
 29 63  1  0
 30 64  1  0
 31 65  1  0
 32 66  1  0
 34 67  1  0
 35 68  1  0
 37 69  1  0
 38 70  1  0
 40 71  1  0
M  END
$$$$
[H]OC(=O)c1c([H])c([H])c(N2C([H])([H])C([H])([H])C3(C(=O)N(c4c([H])c([H])c(C(F)(F)F)c([H])c4[H])C(=O)N3c3nc([H])nc(OC([H])([H])[H])c3[H])C([H])([H])C2([H])[H])c([H])c1[H]
     RDKit          3D

 61 65  0  0  0  0  0  0  0  0999 V2000
   -1.7806    7.0819    0.8524 C   0  0  0  0  0  0  0  0  0  0  0  0
   -1.9275    5.7144    1.2133 O   0  0  0  0  0  0  0  0  0  0  0  0
   -1.5683    4.7307    0.2877 C   0  0  0  0  0  0  0  0  0  0  0  0
   -1.6698    3.3783    0.5397 C   0  0  0  0  0  0  0  0  0  0  0  0
   -1.2953    2.4694   -0.4223 C   0  0  0  0  0  0  0  0  0  0  0  0
   -0.8338    2.8991   -1.5952 N   0  0  0  0  0  0  0  0  0  0  0  0
   -0.7237    4.1986   -1.8704 C   0  0  0  0  0  0  0  0  0  0  0  0
   -1.0933    5.0837   -0.9244 N   0  0  0  0  0  0  0  0  0  0  0  0
   -1.3807    1.0714   -0.2087 N   0  0  0  0  0  0  0  0  0  0  0  0
   -2.6589    0.4005   -0.1830 C   0  0  0  0  0  0  0  0  0  0  0  0
   -3.8002    0.9581   -0.1351 O   0  0  0  0  0  0  0  0  0  0  0  0
   -2.4736   -0.9990   -0.2137 N   0  0  0  0  0  0  0  0  0  0  0  0
   -1.0681   -1.2158   -0.2523 C   0  0  0  0  0  0  0  0  0  0  0  0
   -0.4820   -2.2896   -0.4518 O   0  0  0  0  0  0  0  0  0  0  0  0
   -0.3440    0.0889   -0.0095 C   0  0  0  0  0  0  0  0  0  0  0  0
    0.2467    0.0068    1.3411 C   0  0  0  0  0  0  0  0  0  0  0  0
    1.7032    0.0588    1.5058 C   0  0  0  0  0  0  0  0  0  0  0  0
    2.5117    0.2519    0.3128 N   0  0  0  0  0  0  0  0  0  0  0  0
    1.8370    1.0618   -0.6988 C   0  0  0  0  0  0  0  0  0  0  0  0
    0.6738    0.2011   -1.1229 C   0  0  0  0  0  0  0  0  0  0  0  0
    3.8153   -0.2487    0.1339 C   0  0  0  0  0  0  0  0  0  0  0  0
    4.4281   -0.1415   -1.0919 C   0  0  0  0  0  0  0  0  0  0  0  0
    5.7236   -0.6097   -1.2914 C   0  0  0  0  0  0  0  0  0  0  0  0
    6.4294   -1.1972   -0.2576 C   0  0  0  0  0  0  0  0  0  0  0  0
    5.8137   -1.3010    0.9561 C   0  0  0  0  0  0  0  0  0  0  0  0
    4.5288   -0.8385    1.1573 C   0  0  0  0  0  0  0  0  0  0  0  0
    7.7739   -1.6633   -0.4993 C   0  0  0  0  0  0  0  0  0  0  0  0
    8.5868   -2.2461    0.4394 O   0  0  0  0  0  0  0  0  0  0  0  0
    8.2988   -1.5456   -1.6724 O   0  0  0  0  0  0  0  0  0  0  0  0
   -3.4655   -2.0304   -0.2296 C   0  0  0  0  0  0  0  0  0  0  0  0
   -3.4603   -2.9394   -1.2611 C   0  0  0  0  0  0  0  0  0  0  0  0
   -4.3729   -3.9444   -1.3228 C   0  0  0  0  0  0  0  0  0  0  0  0
   -5.3466   -4.0919   -0.3393 C   0  0  0  0  0  0  0  0  0  0  0  0
   -5.3555   -3.1757    0.7071 C   0  0  0  0  0  0  0  0  0  0  0  0
   -4.4085   -2.1423    0.7542 C   0  0  0  0  0  0  0  0  0  0  0  0
   -6.3121   -5.1841   -0.4171 C   0  0  0  0  0  0  0  0  0  0  0  0
   -6.0114   -5.9942   -1.5046 F   0  0  0  0  0  0  0  0  0  0  0  0
   -6.2595   -6.0168    0.6975 F   0  0  0  0  0  0  0  0  0  0  0  0
   -7.6208   -4.7802   -0.6117 F   0  0  0  0  0  0  0  0  0  0  0  0
   -0.7500    7.2959    0.4840 H   0  0  0  0  0  0  0  0  0  0  0  0
   -1.9864    7.7230    1.7250 H   0  0  0  0  0  0  0  0  0  0  0  0
   -2.4701    7.3559    0.0301 H   0  0  0  0  0  0  0  0  0  0  0  0
   -2.0553    3.0671    1.5305 H   0  0  0  0  0  0  0  0  0  0  0  0
   -0.3390    4.5772   -2.8470 H   0  0  0  0  0  0  0  0  0  0  0  0
   -0.2550    0.8393    1.9433 H   0  0  0  0  0  0  0  0  0  0  0  0
   -0.1250   -0.9041    1.9242 H   0  0  0  0  0  0  0  0  0  0  0  0
    1.9636    0.9805    2.1336 H   0  0  0  0  0  0  0  0  0  0  0  0
    2.0816   -0.7648    2.1408 H   0  0  0  0  0  0  0  0  0  0  0  0
    1.5451    1.9761   -0.1322 H   0  0  0  0  0  0  0  0  0  0  0  0
    2.4323    1.3738   -1.5310 H   0  0  0  0  0  0  0  0  0  0  0  0
    1.0749   -0.8290   -1.2483 H   0  0  0  0  0  0  0  0  0  0  0  0
    0.1582    0.5026   -2.0210 H   0  0  0  0  0  0  0  0  0  0  0  0
    3.9711    0.3023   -1.9537 H   0  0  0  0  0  0  0  0  0  0  0  0
    6.2099   -0.5172   -2.2527 H   0  0  0  0  0  0  0  0  0  0  0  0
    6.3224   -1.7578    1.7983 H   0  0  0  0  0  0  0  0  0  0  0  0
    4.0992   -0.9433    2.1244 H   0  0  0  0  0  0  0  0  0  0  0  0
    9.1209   -3.0720    0.2880 H   0  0  0  0  0  0  0  0  0  0  0  0
   -2.7246   -2.8704   -2.0492 H   0  0  0  0  0  0  0  0  0  0  0  0
   -4.3939   -4.6760   -2.1446 H   0  0  0  0  0  0  0  0  0  0  0  0
   -6.0881   -3.2763    1.4806 H   0  0  0  0  0  0  0  0  0  0  0  0
   -4.4499   -1.4427    1.5780 H   0  0  0  0  0  0  0  0  0  0  0  0
  1  2  1  0
  2  3  1  0
  3  4  2  0
  4  5  1  0
  5  6  2  0
  6  7  1  0
  7  8  2  0
  5  9  1  0
  9 10  1  0
 10 11  2  0
 10 12  1  0
 12 13  1  0
 13 14  2  0
 13 15  1  0
 15 16  1  0
 16 17  1  0
 17 18  1  0
 18 19  1  0
 19 20  1  0
 18 21  1  0
 21 22  2  0
 22 23  1  0
 23 24  2  0
 24 25  1  0
 25 26  2  0
 24 27  1  0
 27 28  1  0
 27 29  2  0
 12 30  1  0
 30 31  2  0
 31 32  1  0
 32 33  2  0
 33 34  1  0
 34 35  2  0
 33 36  1  0
 36 37  1  0
 36 38  1  0
 36 39  1  0
  8  3  1  0
 15  9  1  0
 20 15  1  0
 26 21  1  0
 35 30  1  0
  1 40  1  0
  1 41  1  0
  1 42  1  0
  4 43  1  0
  7 44  1  0
 16 45  1  0
 16 46  1  0
 17 47  1  0
 17 48  1  0
 19 49  1  0
 19 50  1  0
 20 51  1  0
 20 52  1  0
 22 53  1  0
 23 54  1  0
 25 55  1  0
 26 56  1  0
 28 57  1  0
 31 58  1  0
 32 59  1  0
 34 60  1  0
 35 61  1  0
M  END
$$$$
[H]OC(=O)c1c([H])c([H])c(N2C([H])([H])C([H])([H])C3(C(=O)N(c4c([H])c([H])c(C(F)(F)F)c([H])c4[H])C(=O)N3c3nc([H])nc(OC([H])([H])[H])c3[H])C([H])([H])C2([H])[H])c(C([H])([H])[H])c1[H]
     RDKit          3D

 64 68  0  0  0  0  0  0  0  0999 V2000
   -2.6402    6.5888   -2.3075 C   0  0  0  0  0  0  0  0  0  0  0  0
   -2.5545    5.1875   -2.2584 O   0  0  0  0  0  0  0  0  0  0  0  0
   -2.2360    4.5608   -1.0589 C   0  0  0  0  0  0  0  0  0  0  0  0
   -2.1464    3.1648   -0.9949 C   0  0  0  0  0  0  0  0  0  0  0  0
   -1.8284    2.5662    0.2096 C   0  0  0  0  0  0  0  0  0  0  0  0
   -1.6221    3.3767    1.2607 N   0  0  0  0  0  0  0  0  0  0  0  0
   -1.7041    4.7108    1.2152 C   0  0  0  0  0  0  0  0  0  0  0  0
   -2.0131    5.2951    0.0449 N   0  0  0  0  0  0  0  0  0  0  0  0
   -1.7447    1.1541    0.2810 N   0  0  0  0  0  0  0  0  0  0  0  0
   -2.7958    0.2178    0.0780 C   0  0  0  0  0  0  0  0  0  0  0  0
   -3.8222    0.3923   -0.6400 O   0  0  0  0  0  0  0  0  0  0  0  0
   -2.4964   -0.9801    0.8348 N   0  0  0  0  0  0  0  0  0  0  0  0
   -1.2552   -0.6900    1.4666 C   0  0  0  0  0  0  0  0  0  0  0  0
   -0.8651   -1.1960    2.5416 O   0  0  0  0  0  0  0  0  0  0  0  0
   -0.5909    0.3085    0.5689 C   0  0  0  0  0  0  0  0  0  0  0  0
   -0.1371   -0.4732   -0.6323 C   0  0  0  0  0  0  0  0  0  0  0  0
    1.2562   -0.2159   -1.0637 C   0  0  0  0  0  0  0  0  0  0  0  0
    2.2113   -0.1226   -0.0059 N   0  0  0  0  0  0  0  0  0  0  0  0
    1.7422    0.3197    1.3013 C   0  0  0  0  0  0  0  0  0  0  0  0
    0.4683    1.0777    1.2587 C   0  0  0  0  0  0  0  0  0  0  0  0
    3.5949   -0.4351   -0.1071 C   0  0  0  0  0  0  0  0  0  0  0  0
    4.1917   -1.3809    0.7258 C   0  0  0  0  0  0  0  0  0  0  0  0
    5.5285   -1.6916    0.6490 C   0  0  0  0  0  0  0  0  0  0  0  0
    6.3510   -1.0784   -0.2631 C   0  0  0  0  0  0  0  0  0  0  0  0
    5.7828   -0.1422   -1.0953 C   0  0  0  0  0  0  0  0  0  0  0  0
    4.4206    0.1803   -1.0222 C   0  0  0  0  0  0  0  0  0  0  0  0
    3.8598    1.1925   -1.9393 C   0  0  0  0  0  0  0  0  0  0  0  0
    7.7817   -1.3915   -0.3641 C   0  0  0  0  0  0  0  0  0  0  0  0
    8.3424   -2.3303    0.4854 O   0  0  0  0  0  0  0  0  0  0  0  0
    8.5379   -0.8397   -1.1998 O   0  0  0  0  0  0  0  0  0  0  0  0
   -3.3001   -2.1503    0.8872 C   0  0  0  0  0  0  0  0  0  0  0  0
   -3.5216   -2.8142    2.0637 C   0  0  0  0  0  0  0  0  0  0  0  0
   -4.3262   -3.9591    2.0349 C   0  0  0  0  0  0  0  0  0  0  0  0
   -4.8588   -4.3697    0.8403 C   0  0  0  0  0  0  0  0  0  0  0  0
   -4.6486   -3.7187   -0.3484 C   0  0  0  0  0  0  0  0  0  0  0  0
   -3.8580   -2.5946   -0.3183 C   0  0  0  0  0  0  0  0  0  0  0  0
   -5.7157   -5.5870    0.8053 C   0  0  0  0  0  0  0  0  0  0  0  0
   -4.9317   -6.6360    1.2257 F   0  0  0  0  0  0  0  0  0  0  0  0
   -6.1529   -5.8727   -0.4602 F   0  0  0  0  0  0  0  0  0  0  0  0
   -6.8032   -5.4089    1.6573 F   0  0  0  0  0  0  0  0  0  0  0  0
   -3.2415    7.0006   -1.4688 H   0  0  0  0  0  0  0  0  0  0  0  0
   -1.6140    7.0223   -2.2974 H   0  0  0  0  0  0  0  0  0  0  0  0
   -3.0866    6.8486   -3.2921 H   0  0  0  0  0  0  0  0  0  0  0  0
   -2.3288    2.5985   -1.8875 H   0  0  0  0  0  0  0  0  0  0  0  0
   -1.5301    5.3449    2.0926 H   0  0  0  0  0  0  0  0  0  0  0  0
   -0.2764   -1.5751   -0.5227 H   0  0  0  0  0  0  0  0  0  0  0  0
   -0.8265   -0.1882   -1.4791 H   0  0  0  0  0  0  0  0  0  0  0  0
    1.5753   -1.0831   -1.7092 H   0  0  0  0  0  0  0  0  0  0  0  0
    1.2444    0.6624   -1.7566 H   0  0  0  0  0  0  0  0  0  0  0  0
    2.5595    0.9505    1.7624 H   0  0  0  0  0  0  0  0  0  0  0  0
    1.6720   -0.5746    1.9394 H   0  0  0  0  0  0  0  0  0  0  0  0
    0.6002    2.0868    0.8181 H   0  0  0  0  0  0  0  0  0  0  0  0
    0.1381    1.2066    2.3306 H   0  0  0  0  0  0  0  0  0  0  0  0
    3.5236   -1.8672    1.4546 H   0  0  0  0  0  0  0  0  0  0  0  0
    5.9527   -2.4270    1.3075 H   0  0  0  0  0  0  0  0  0  0  0  0
    6.4351    0.3474   -1.8225 H   0  0  0  0  0  0  0  0  0  0  0  0
    4.7242    1.7620   -2.3715 H   0  0  0  0  0  0  0  0  0  0  0  0
    3.2333    1.9528   -1.4508 H   0  0  0  0  0  0  0  0  0  0  0  0
    3.3911    0.6974   -2.8195 H   0  0  0  0  0  0  0  0  0  0  0  0
    8.6537   -1.9802    1.4060 H   0  0  0  0  0  0  0  0  0  0  0  0
   -3.0719   -2.4309    2.9650 H   0  0  0  0  0  0  0  0  0  0  0  0
   -4.4937   -4.4783    2.9765 H   0  0  0  0  0  0  0  0  0  0  0  0
   -5.0616   -4.0338   -1.2907 H   0  0  0  0  0  0  0  0  0  0  0  0
   -3.6726   -2.0571   -1.2409 H   0  0  0  0  0  0  0  0  0  0  0  0
  1  2  1  0
  2  3  1  0
  3  4  2  0
  4  5  1  0
  5  6  2  0
  6  7  1  0
  7  8  2  0
  5  9  1  0
  9 10  1  0
 10 11  2  0
 10 12  1  0
 12 13  1  0
 13 14  2  0
 13 15  1  0
 15 16  1  0
 16 17  1  0
 17 18  1  0
 18 19  1  0
 19 20  1  0
 18 21  1  0
 21 22  2  0
 22 23  1  0
 23 24  2  0
 24 25  1  0
 25 26  2  0
 26 27  1  0
 24 28  1  0
 28 29  1  0
 28 30  2  0
 12 31  1  0
 31 32  2  0
 32 33  1  0
 33 34  2  0
 34 35  1  0
 35 36  2  0
 34 37  1  0
 37 38  1  0
 37 39  1  0
 37 40  1  0
  8  3  1  0
 15  9  1  0
 20 15  1  0
 26 21  1  0
 36 31  1  0
  1 41  1  0
  1 42  1  0
  1 43  1  0
  4 44  1  0
  7 45  1  0
 16 46  1  0
 16 47  1  0
 17 48  1  0
 17 49  1  0
 19 50  1  0
 19 51  1  0
 20 52  1  0
 20 53  1  0
 22 54  1  0
 23 55  1  0
 25 56  1  0
 27 57  1  0
 27 58  1  0
 27 59  1  0
 29 60  1  0
 32 61  1  0
 33 62  1  0
 35 63  1  0
 36 64  1  0
M  END
$$$$
[H]c1nc(OC([H])([H])[H])c([H])c(N2C(=O)N(c3c([H])c([H])c(-c4c([H])c([H])c([H])c([H])c4[H])c([H])c3[H])C(=O)C23C([H])([H])C([H])([H])N(C([H])([H])c2nc([H])c([H])c([H])c2C([H])([H])[H])C([H])([H])C3([H])[H])n1
     RDKit          3D

 70 75  0  0  0  0  0  0  0  0999 V2000
   -0.0818    8.0279   -0.0623 C   0  0  0  0  0  0  0  0  0  0  0  0
    0.2204    6.7135    0.3046 O   0  0  0  0  0  0  0  0  0  0  0  0
   -0.0818    5.6560   -0.5348 C   0  0  0  0  0  0  0  0  0  0  0  0
    0.2074    4.3399   -0.1951 C   0  0  0  0  0  0  0  0  0  0  0  0
   -0.0972    3.2923   -1.0376 C   0  0  0  0  0  0  0  0  0  0  0  0
   -0.6869    3.6007   -2.2036 N   0  0  0  0  0  0  0  0  0  0  0  0
   -0.9800    4.8670   -2.5616 C   0  0  0  0  0  0  0  0  0  0  0  0
   -0.6734    5.8557   -1.7265 N   0  0  0  0  0  0  0  0  0  0  0  0
    0.1979    1.9521   -0.7081 N   0  0  0  0  0  0  0  0  0  0  0  0
    1.5577    1.4994   -0.5844 C   0  0  0  0  0  0  0  0  0  0  0  0
    2.5889    2.2486   -0.5751 O   0  0  0  0  0  0  0  0  0  0  0  0
    1.6168    0.0918   -0.4718 N   0  0  0  0  0  0  0  0  0  0  0  0
    0.2904   -0.3643   -0.5224 C   0  0  0  0  0  0  0  0  0  0  0  0
   -0.0449   -1.5746   -0.6272 O   0  0  0  0  0  0  0  0  0  0  0  0
   -0.6230    0.8025   -0.4335 C   0  0  0  0  0  0  0  0  0  0  0  0
   -1.7314    0.5990   -1.4497 C   0  0  0  0  0  0  0  0  0  0  0  0
   -3.0111    1.1781   -0.9179 C   0  0  0  0  0  0  0  0  0  0  0  0
   -3.5116    0.4492    0.2487 N   0  0  0  0  0  0  0  0  0  0  0  0
   -4.5476   -0.4684   -0.1587 C   0  0  0  0  0  0  0  0  0  0  0  0
   -5.2347   -1.1628    0.9006 C   0  0  0  0  0  0  0  0  0  0  0  0
   -5.0204   -1.0207    2.2018 N   0  0  0  0  0  0  0  0  0  0  0  0
   -5.6908   -1.6753    3.1676 C   0  0  0  0  0  0  0  0  0  0  0  0
   -6.6881   -2.5757    2.8495 C   0  0  0  0  0  0  0  0  0  0  0  0
   -6.9486   -2.7586    1.5073 C   0  0  0  0  0  0  0  0  0  0  0  0
   -6.2378   -2.0672    0.5515 C   0  0  0  0  0  0  0  0  0  0  0  0
   -6.5414   -2.2827   -0.8694 C   0  0  0  0  0  0  0  0  0  0  0  0
   -2.4366   -0.1416    0.9928 C   0  0  0  0  0  0  0  0  0  0  0  0
   -1.2424    0.8247    0.9243 C   0  0  0  0  0  0  0  0  0  0  0  0
    2.7864   -0.7345   -0.3314 C   0  0  0  0  0  0  0  0  0  0  0  0
    3.5927   -0.6288    0.7875 C   0  0  0  0  0  0  0  0  0  0  0  0
    4.7232   -1.4351    0.8952 C   0  0  0  0  0  0  0  0  0  0  0  0
    5.0764   -2.3443   -0.0773 C   0  0  0  0  0  0  0  0  0  0  0  0
    4.2603   -2.4315   -1.1800 C   0  0  0  0  0  0  0  0  0  0  0  0
    3.1207   -1.6359   -1.3152 C   0  0  0  0  0  0  0  0  0  0  0  0
    6.2770   -3.1347    0.1331 C   0  0  0  0  0  0  0  0  0  0  0  0
    7.3304   -2.5889    0.8311 C   0  0  0  0  0  0  0  0  0  0  0  0
    8.5060   -3.2957    1.0666 C   0  0  0  0  0  0  0  0  0  0  0  0
    8.6361   -4.5803    0.5938 C   0  0  0  0  0  0  0  0  0  0  0  0
    7.5952   -5.1374   -0.1039 C   0  0  0  0  0  0  0  0  0  0  0  0
    6.4313   -4.4226   -0.3305 C   0  0  0  0  0  0  0  0  0  0  0  0
    0.6243    8.3643   -0.8630 H   0  0  0  0  0  0  0  0  0  0  0  0
   -1.0968    8.0496   -0.5048 H   0  0  0  0  0  0  0  0  0  0  0  0
    0.0100    8.7039    0.8225 H   0  0  0  0  0  0  0  0  0  0  0  0
    0.6789    4.1404    0.7477 H   0  0  0  0  0  0  0  0  0  0  0  0
   -1.4547    5.1288   -3.4952 H   0  0  0  0  0  0  0  0  0  0  0  0
   -1.8532   -0.4924   -1.6030 H   0  0  0  0  0  0  0  0  0  0  0  0
   -1.4959    1.0348   -2.4270 H   0  0  0  0  0  0  0  0  0  0  0  0
   -3.7638    1.2286   -1.7216 H   0  0  0  0  0  0  0  0  0  0  0  0
   -2.8071    2.1992   -0.5508 H   0  0  0  0  0  0  0  0  0  0  0  0
   -5.3159    0.1816   -0.6821 H   0  0  0  0  0  0  0  0  0  0  0  0
   -4.1906   -1.1418   -0.9856 H   0  0  0  0  0  0  0  0  0  0  0  0
   -5.4769   -1.5245    4.2284 H   0  0  0  0  0  0  0  0  0  0  0  0
   -7.2390   -3.1132    3.6250 H   0  0  0  0  0  0  0  0  0  0  0  0
   -7.7309   -3.4658    1.2510 H   0  0  0  0  0  0  0  0  0  0  0  0
   -7.0903   -1.4259   -1.3121 H   0  0  0  0  0  0  0  0  0  0  0  0
   -7.2150   -3.1786   -0.9861 H   0  0  0  0  0  0  0  0  0  0  0  0
   -5.6233   -2.5177   -1.4504 H   0  0  0  0  0  0  0  0  0  0  0  0
   -2.6880   -0.2052    2.0687 H   0  0  0  0  0  0  0  0  0  0  0  0
   -2.1258   -1.1246    0.6126 H   0  0  0  0  0  0  0  0  0  0  0  0
   -0.5411    0.5367    1.7048 H   0  0  0  0  0  0  0  0  0  0  0  0
   -1.7019    1.8387    1.1128 H   0  0  0  0  0  0  0  0  0  0  0  0
    3.3579    0.0684    1.5740 H   0  0  0  0  0  0  0  0  0  0  0  0
    5.3388   -1.3386    1.7781 H   0  0  0  0  0  0  0  0  0  0  0  0
    4.5260   -3.1402   -1.9493 H   0  0  0  0  0  0  0  0  0  0  0  0
    2.5222   -1.7647   -2.2269 H   0  0  0  0  0  0  0  0  0  0  0  0
    7.2882   -1.5859    1.2258 H   0  0  0  0  0  0  0  0  0  0  0  0
    9.3306   -2.8586    1.6166 H   0  0  0  0  0  0  0  0  0  0  0  0
    9.5511   -5.1255    0.7798 H   0  0  0  0  0  0  0  0  0  0  0  0
    7.6882   -6.1645   -0.4868 H   0  0  0  0  0  0  0  0  0  0  0  0
    5.5903   -4.8439   -0.8810 H   0  0  0  0  0  0  0  0  0  0  0  0
  1  2  1  0
  2  3  1  0
  3  4  2  0
  4  5  1  0
  5  6  2  0
  6  7  1  0
  7  8  2  0
  5  9  1  0
  9 10  1  0
 10 11  2  0
 10 12  1  0
 12 13  1  0
 13 14  2  0
 13 15  1  0
 15 16  1  0
 16 17  1  0
 17 18  1  0
 18 19  1  0
 19 20  1  0
 20 21  2  0
 21 22  1  0
 22 23  2  0
 23 24  1  0
 24 25  2  0
 25 26  1  0
 18 27  1  0
 27 28  1  0
 12 29  1  0
 29 30  2  0
 30 31  1  0
 31 32  2  0
 32 33  1  0
 33 34  2  0
 32 35  1  0
 35 36  2  0
 36 37  1  0
 37 38  2  0
 38 39  1  0
 39 40  2  0
  8  3  1  0
 15  9  1  0
 28 15  1  0
 34 29  1  0
 40 35  1  0
 25 20  1  0
  1 41  1  0
  1 42  1  0
  1 43  1  0
  4 44  1  0
  7 45  1  0
 16 46  1  0
 16 47  1  0
 17 48  1  0
 17 49  1  0
 19 50  1  0
 19 51  1  0
 22 52  1  0
 23 53  1  0
 24 54  1  0
 26 55  1  0
 26 56  1  0
 26 57  1  0
 27 58  1  0
 27 59  1  0
 28 60  1  0
 28 61  1  0
 30 62  1  0
 31 63  1  0
 33 64  1  0
 34 65  1  0
 36 66  1  0
 37 67  1  0
 38 68  1  0
 39 69  1  0
 40 70  1  0
M  END
$$$$
[H]c1nc(C([H])([H])N2C([H])([H])C([H])([H])C3(C(=O)N(c4c([H])c([H])c(C#N)c([H])c4[H])C(=O)N3c3c([H])c([H])c(C#N)c([H])c3[H])C([H])([H])C2([H])[H])c(C([H])([H])[H])c([H])c1[H]
     RDKit          3D

 60 64  0  0  0  0  0  0  0  0999 V2000
    5.3928    1.2937   -1.0309 C   0  0  0  0  0  0  0  0  0  0  0  0
    5.6542    0.2594    0.0291 C   0  0  0  0  0  0  0  0  0  0  0  0
    6.8621   -0.3572    0.1706 C   0  0  0  0  0  0  0  0  0  0  0  0
    6.9706   -1.4507    1.0097 C   0  0  0  0  0  0  0  0  0  0  0  0
    5.8077   -1.8520    1.6697 C   0  0  0  0  0  0  0  0  0  0  0  0
    4.6324   -1.1969    1.4999 N   0  0  0  0  0  0  0  0  0  0  0  0
    4.4986   -0.1492    0.7053 C   0  0  0  0  0  0  0  0  0  0  0  0
    3.3749    0.7772    0.6580 C   0  0  0  0  0  0  0  0  0  0  0  0
    2.2419    0.5916   -0.0170 N   0  0  0  0  0  0  0  0  0  0  0  0
    1.2004    1.5255    0.3847 C   0  0  0  0  0  0  0  0  0  0  0  0
    0.0846    0.6137    0.9536 C   0  0  0  0  0  0  0  0  0  0  0  0
   -0.5447   -0.0499   -0.2650 C   0  0  0  0  0  0  0  0  0  0  0  0
    0.3659    0.0312   -1.4281 C   0  0  0  0  0  0  0  0  0  0  0  0
    1.7791   -0.3207   -0.9105 C   0  0  0  0  0  0  0  0  0  0  0  0
   -1.8242    0.5946   -0.3753 N   0  0  0  0  0  0  0  0  0  0  0  0
   -2.7877   -0.3574   -0.0311 C   0  0  0  0  0  0  0  0  0  0  0  0
   -4.0380   -0.1991    0.0996 O   0  0  0  0  0  0  0  0  0  0  0  0
   -2.1722   -1.6629    0.1749 N   0  0  0  0  0  0  0  0  0  0  0  0
   -0.8252   -1.5070   -0.0374 C   0  0  0  0  0  0  0  0  0  0  0  0
   -0.0064   -2.4587   -0.0398 O   0  0  0  0  0  0  0  0  0  0  0  0
   -3.0999   -2.6992    0.5374 C   0  0  0  0  0  0  0  0  0  0  0  0
   -4.0960   -2.9612   -0.4439 C   0  0  0  0  0  0  0  0  0  0  0  0
   -5.1594   -3.7374   -0.1049 C   0  0  0  0  0  0  0  0  0  0  0  0
   -5.2913   -4.2669    1.1466 C   0  0  0  0  0  0  0  0  0  0  0  0
   -4.3113   -4.0065    2.0878 C   0  0  0  0  0  0  0  0  0  0  0  0
   -3.2057   -3.2107    1.7634 C   0  0  0  0  0  0  0  0  0  0  0  0
   -6.4998   -5.0193    1.4609 C   0  0  0  0  0  0  0  0  0  0  0  0
   -7.4808   -5.5965    1.6939 N   0  0  0  0  0  0  0  0  0  0  0  0
   -2.1646    1.9248   -0.7039 C   0  0  0  0  0  0  0  0  0  0  0  0
   -1.9483    2.3781   -1.9787 C   0  0  0  0  0  0  0  0  0  0  0  0
   -2.3053    3.6595   -2.2770 C   0  0  0  0  0  0  0  0  0  0  0  0
   -2.8592    4.4850   -1.3366 C   0  0  0  0  0  0  0  0  0  0  0  0
   -3.0947    4.0847   -0.0297 C   0  0  0  0  0  0  0  0  0  0  0  0
   -2.7315    2.7821    0.2380 C   0  0  0  0  0  0  0  0  0  0  0  0
   -3.2350    5.8506   -1.6895 C   0  0  0  0  0  0  0  0  0  0  0  0
   -3.5044    6.9502   -1.9680 N   0  0  0  0  0  0  0  0  0  0  0  0
    4.8520    2.1403   -0.6518 H   0  0  0  0  0  0  0  0  0  0  0  0
    6.2887    1.5414   -1.5783 H   0  0  0  0  0  0  0  0  0  0  0  0
    4.7264    0.7577   -1.8372 H   0  0  0  0  0  0  0  0  0  0  0  0
    7.7337    0.0099   -0.3597 H   0  0  0  0  0  0  0  0  0  0  0  0
    7.9156   -1.9621    1.1234 H   0  0  0  0  0  0  0  0  0  0  0  0
    5.9340   -2.7152    2.3261 H   0  0  0  0  0  0  0  0  0  0  0  0
    3.6407    1.8615    0.8695 H   0  0  0  0  0  0  0  0  0  0  0  0
    2.9240    0.6154    1.8402 H   0  0  0  0  0  0  0  0  0  0  0  0
    1.5538    2.1472    1.2267 H   0  0  0  0  0  0  0  0  0  0  0  0
    0.7750    2.1330   -0.3859 H   0  0  0  0  0  0  0  0  0  0  0  0
    0.4898   -0.1585    1.5876 H   0  0  0  0  0  0  0  0  0  0  0  0
   -0.5747    1.2731    1.5091 H   0  0  0  0  0  0  0  0  0  0  0  0
    0.0980   -0.7154   -2.2239 H   0  0  0  0  0  0  0  0  0  0  0  0
    0.4650    1.0091   -1.9263 H   0  0  0  0  0  0  0  0  0  0  0  0
    2.4175   -0.3744   -1.8483 H   0  0  0  0  0  0  0  0  0  0  0  0
    1.8208   -1.3537   -0.5027 H   0  0  0  0  0  0  0  0  0  0  0  0
   -3.9384   -2.5228   -1.3900 H   0  0  0  0  0  0  0  0  0  0  0  0
   -5.9287   -3.9043   -0.8976 H   0  0  0  0  0  0  0  0  0  0  0  0
   -4.4043   -4.4229    3.0634 H   0  0  0  0  0  0  0  0  0  0  0  0
   -2.4311   -3.0132    2.5368 H   0  0  0  0  0  0  0  0  0  0  0  0
   -1.5040    1.7911   -2.7873 H   0  0  0  0  0  0  0  0  0  0  0  0
   -2.1314    4.0189   -3.2717 H   0  0  0  0  0  0  0  0  0  0  0  0
   -3.5145    4.7378    0.7305 H   0  0  0  0  0  0  0  0  0  0  0  0
   -2.8875    2.3635    1.2314 H   0  0  0  0  0  0  0  0  0  0  0  0
  1  2  1  0
  2  3  2  0
  3  4  1  0
  4  5  2  0
  5  6  1  0
  6  7  2  0
  7  8  1  0
  8  9  1  0
  9 10  1  0
 10 11  1  0
 11 12  1  0
 12 13  1  0
 13 14  1  0
 12 15  1  0
 15 16  1  0
 16 17  2  0
 16 18  1  0
 18 19  1  0
 19 20  2  0
 18 21  1  0
 21 22  2  0
 22 23  1  0
 23 24  2  0
 24 25  1  0
 25 26  2  0
 24 27  1  0
 27 28  3  0
 15 29  1  0
 29 30  2  0
 30 31  1  0
 31 32  2  0
 32 33  1  0
 33 34  2  0
 32 35  1  0
 35 36  3  0
  7  2  1  0
 14  9  1  0
 26 21  1  0
 34 29  1  0
 19 12  1  0
  1 37  1  0
  1 38  1  0
  1 39  1  0
  3 40  1  0
  4 41  1  0
  5 42  1  0
  8 43  1  0
  8 44  1  0
 10 45  1  0
 10 46  1  0
 11 47  1  0
 11 48  1  0
 13 49  1  0
 13 50  1  0
 14 51  1  0
 14 52  1  0
 22 53  1  0
 23 54  1  0
 25 55  1  0
 26 56  1  0
 30 57  1  0
 31 58  1  0
 33 59  1  0
 34 60  1  0
M  END
$$$$
[H]OC(=O)c1c([H])c([H])c(N2C([H])([H])C([H])([H])C3(C(=O)N(c4c([H])c([H])c(-c5c([H])c([H])c([H])c([H])c5[H])c([H])c4[H])C(=O)N3c3nc([H])nc(OC([H])([H])[H])c3[H])C([H])([H])C2([H])[H])c(C([H])([H])[H])c1[H]
     RDKit          3D

 71 76  0  0  0  0  0  0  0  0999 V2000
   -1.5061    8.0435    1.4334 C   0  0  0  0  0  0  0  0  0  0  0  0
   -1.6978    6.6462    1.4543 O   0  0  0  0  0  0  0  0  0  0  0  0
   -0.8332    5.8795    0.6556 C   0  0  0  0  0  0  0  0  0  0  0  0
   -0.9599    4.5149    0.6227 C   0  0  0  0  0  0  0  0  0  0  0  0
   -0.1190    3.7244   -0.1595 C   0  0  0  0  0  0  0  0  0  0  0  0
    0.8144    4.3450   -0.8743 N   0  0  0  0  0  0  0  0  0  0  0  0
    0.9656    5.6712   -0.8652 C   0  0  0  0  0  0  0  0  0  0  0  0
    0.1389    6.4262   -0.0987 N   0  0  0  0  0  0  0  0  0  0  0  0
   -0.2771    2.3008   -0.1859 N   0  0  0  0  0  0  0  0  0  0  0  0
   -1.5663    1.7130   -0.3120 C   0  0  0  0  0  0  0  0  0  0  0  0
   -2.6272    2.2940   -0.6674 O   0  0  0  0  0  0  0  0  0  0  0  0
   -1.4025    0.3508    0.0429 N   0  0  0  0  0  0  0  0  0  0  0  0
   -0.0462    0.1020    0.3800 C   0  0  0  0  0  0  0  0  0  0  0  0
    0.2951   -0.9439    0.9816 O   0  0  0  0  0  0  0  0  0  0  0  0
    0.7312    1.2541   -0.1070 C   0  0  0  0  0  0  0  0  0  0  0  0
    1.7886    1.7173    0.8357 C   0  0  0  0  0  0  0  0  0  0  0  0
    2.8357    0.6598    0.9793 C   0  0  0  0  0  0  0  0  0  0  0  0
    3.2592    0.0896   -0.3128 N   0  0  0  0  0  0  0  0  0  0  0  0
    2.6905    0.5188   -1.5470 C   0  0  0  0  0  0  0  0  0  0  0  0
    1.2468    0.9576   -1.4882 C   0  0  0  0  0  0  0  0  0  0  0  0
    4.2525   -0.9431   -0.2310 C   0  0  0  0  0  0  0  0  0  0  0  0
    4.1683   -1.9045    0.7806 C   0  0  0  0  0  0  0  0  0  0  0  0
    5.0522   -2.9413    0.9023 C   0  0  0  0  0  0  0  0  0  0  0  0
    6.0732   -3.0410   -0.0172 C   0  0  0  0  0  0  0  0  0  0  0  0
    6.1623   -2.1008   -1.0122 C   0  0  0  0  0  0  0  0  0  0  0  0
    5.2690   -1.0308   -1.1558 C   0  0  0  0  0  0  0  0  0  0  0  0
    5.4558   -0.0453   -2.2346 C   0  0  0  0  0  0  0  0  0  0  0  0
    7.0155   -4.1256    0.0986 C   0  0  0  0  0  0  0  0  0  0  0  0
    6.8940   -5.0564    1.1187 O   0  0  0  0  0  0  0  0  0  0  0  0
    7.9600   -4.2586   -0.7111 O   0  0  0  0  0  0  0  0  0  0  0  0
   -2.4969   -0.5683    0.0418 C   0  0  0  0  0  0  0  0  0  0  0  0
   -2.7231   -1.3993    1.1205 C   0  0  0  0  0  0  0  0  0  0  0  0
   -3.7705   -2.2946    1.1414 C   0  0  0  0  0  0  0  0  0  0  0  0
   -4.6261   -2.3796    0.0715 C   0  0  0  0  0  0  0  0  0  0  0  0
   -4.4163   -1.5498   -1.0264 C   0  0  0  0  0  0  0  0  0  0  0  0
   -3.3564   -0.6605   -1.0231 C   0  0  0  0  0  0  0  0  0  0  0  0
   -5.7584   -3.3097    0.0301 C   0  0  0  0  0  0  0  0  0  0  0  0
   -5.7173   -4.5358    0.6542 C   0  0  0  0  0  0  0  0  0  0  0  0
   -6.8100   -5.3896    0.5955 C   0  0  0  0  0  0  0  0  0  0  0  0
   -7.9669   -5.0437   -0.0839 C   0  0  0  0  0  0  0  0  0  0  0  0
   -8.0045   -3.8141   -0.7087 C   0  0  0  0  0  0  0  0  0  0  0  0
   -6.9186   -2.9684   -0.6500 C   0  0  0  0  0  0  0  0  0  0  0  0
   -2.4464    8.5630    1.7321 H   0  0  0  0  0  0  0  0  0  0  0  0
   -0.6682    8.3078    2.1292 H   0  0  0  0  0  0  0  0  0  0  0  0
   -1.1728    8.4102    0.4327 H   0  0  0  0  0  0  0  0  0  0  0  0
   -1.7217    4.0026    1.2025 H   0  0  0  0  0  0  0  0  0  0  0  0
    1.7435    6.1621   -1.4648 H   0  0  0  0  0  0  0  0  0  0  0  0
    2.1971    2.6766    0.4744 H   0  0  0  0  0  0  0  0  0  0  0  0
    1.3117    1.8334    1.8413 H   0  0  0  0  0  0  0  0  0  0  0  0
    3.7587    1.0725    1.4846 H   0  0  0  0  0  0  0  0  0  0  0  0
    2.4576   -0.1020    1.6835 H   0  0  0  0  0  0  0  0  0  0  0  0
    2.6708   -0.3988   -2.2057 H   0  0  0  0  0  0  0  0  0  0  0  0
    3.2310    1.3641   -2.0213 H   0  0  0  0  0  0  0  0  0  0  0  0
    0.5495    0.2097   -1.9299 H   0  0  0  0  0  0  0  0  0  0  0  0
    1.0653    1.8816   -2.0986 H   0  0  0  0  0  0  0  0  0  0  0  0
    3.3747   -1.8355    1.5012 H   0  0  0  0  0  0  0  0  0  0  0  0
    4.9610   -3.6788    1.7028 H   0  0  0  0  0  0  0  0  0  0  0  0
    6.9555   -2.1479   -1.7508 H   0  0  0  0  0  0  0  0  0  0  0  0
    6.5029   -0.2169   -2.6525 H   0  0  0  0  0  0  0  0  0  0  0  0
    4.8084   -0.1404   -3.0956 H   0  0  0  0  0  0  0  0  0  0  0  0
    5.5436    1.0026   -1.8246 H   0  0  0  0  0  0  0  0  0  0  0  0
    6.0159   -5.4590    1.4141 H   0  0  0  0  0  0  0  0  0  0  0  0
   -2.0574   -1.3407    1.9592 H   0  0  0  0  0  0  0  0  0  0  0  0
   -3.9231   -2.9346    1.9912 H   0  0  0  0  0  0  0  0  0  0  0  0
   -5.0770   -1.5887   -1.8870 H   0  0  0  0  0  0  0  0  0  0  0  0
   -3.1937   -0.0181   -1.8705 H   0  0  0  0  0  0  0  0  0  0  0  0
   -4.8303   -4.8559    1.2058 H   0  0  0  0  0  0  0  0  0  0  0  0
   -6.8245   -6.3655    1.0737 H   0  0  0  0  0  0  0  0  0  0  0  0
   -8.7981   -5.7251   -0.1103 H   0  0  0  0  0  0  0  0  0  0  0  0
   -8.9189   -3.5622   -1.2398 H   0  0  0  0  0  0  0  0  0  0  0  0
   -6.9837   -2.0201   -1.1507 H   0  0  0  0  0  0  0  0  0  0  0  0
  1  2  1  0
  2  3  1  0
  3  4  2  0
  4  5  1  0
  5  6  2  0
  6  7  1  0
  7  8  2  0
  5  9  1  0
  9 10  1  0
 10 11  2  0
 10 12  1  0
 12 13  1  0
 13 14  2  0
 13 15  1  0
 15 16  1  0
 16 17  1  0
 17 18  1  0
 18 19  1  0
 19 20  1  0
 18 21  1  0
 21 22  2  0
 22 23  1  0
 23 24  2  0
 24 25  1  0
 25 26  2  0
 26 27  1  0
 24 28  1  0
 28 29  1  0
 28 30  2  0
 12 31  1  0
 31 32  2  0
 32 33  1  0
 33 34  2  0
 34 35  1  0
 35 36  2  0
 34 37  1  0
 37 38  2  0
 38 39  1  0
 39 40  2  0
 40 41  1  0
 41 42  2  0
  8  3  1  0
 15  9  1  0
 20 15  1  0
 26 21  1  0
 36 31  1  0
 42 37  1  0
  1 43  1  0
  1 44  1  0
  1 45  1  0
  4 46  1  0
  7 47  1  0
 16 48  1  0
 16 49  1  0
 17 50  1  0
 17 51  1  0
 19 52  1  0
 19 53  1  0
 20 54  1  0
 20 55  1  0
 22 56  1  0
 23 57  1  0
 25 58  1  0
 27 59  1  0
 27 60  1  0
 27 61  1  0
 29 62  1  0
 32 63  1  0
 33 64  1  0
 35 65  1  0
 36 66  1  0
 38 67  1  0
 39 68  1  0
 40 69  1  0
 41 70  1  0
 42 71  1  0
M  END
$$$$
[H]OC(=O)c1c([H])c([H])c(-c2c([H])c([H])c(N3C(=O)N(c4c([H])c([H])c(-c5c([H])c([H])c([H])c([H])c5[H])c([H])c4[H])C4(C3=O)C([H])([H])C([H])([H])N(C([H])([H])c3nc([H])c([H])c([H])c3C([H])([H])[H])C([H])([H])C4([H])[H])c([H])c2[H])c([H])c1[H]
     RDKit          3D

 81 87  0  0  0  0  0  0  0  0999 V2000
   -3.9829   -5.8425   -0.1361 C   0  0  0  0  0  0  0  0  0  0  0  0
   -5.0281   -4.9074    0.3760 C   0  0  0  0  0  0  0  0  0  0  0  0
   -6.1206   -5.4014    1.0574 C   0  0  0  0  0  0  0  0  0  0  0  0
   -7.0886   -4.5466    1.5397 C   0  0  0  0  0  0  0  0  0  0  0  0
   -6.9228   -3.1896    1.3146 C   0  0  0  0  0  0  0  0  0  0  0  0
   -5.8465   -2.7648    0.6491 N   0  0  0  0  0  0  0  0  0  0  0  0
   -4.8729   -3.5395    0.1565 C   0  0  0  0  0  0  0  0  0  0  0  0
   -3.7095   -3.1020   -0.6032 C   0  0  0  0  0  0  0  0  0  0  0  0
   -3.5405   -1.6964   -0.7939 N   0  0  0  0  0  0  0  0  0  0  0  0
   -2.4605   -1.4947   -1.7499 C   0  0  0  0  0  0  0  0  0  0  0  0
   -1.7194   -0.2215   -1.6100 C   0  0  0  0  0  0  0  0  0  0  0  0
   -1.0327   -0.1398   -0.2560 C   0  0  0  0  0  0  0  0  0  0  0  0
   -1.8722   -0.7607    0.7973 C   0  0  0  0  0  0  0  0  0  0  0  0
   -3.3042   -0.9995    0.4402 C   0  0  0  0  0  0  0  0  0  0  0  0
   -0.5420    1.1751   -0.0091 N   0  0  0  0  0  0  0  0  0  0  0  0
    0.8873    1.1099    0.2065 C   0  0  0  0  0  0  0  0  0  0  0  0
    1.6448    2.0536    0.5493 O   0  0  0  0  0  0  0  0  0  0  0  0
    1.3436   -0.1956   -0.0249 N   0  0  0  0  0  0  0  0  0  0  0  0
    0.2071   -0.9686   -0.3840 C   0  0  0  0  0  0  0  0  0  0  0  0
    0.3297   -2.1672   -0.7435 O   0  0  0  0  0  0  0  0  0  0  0  0
    2.7041   -0.6397    0.0624 C   0  0  0  0  0  0  0  0  0  0  0  0
    3.7197    0.1658   -0.4555 C   0  0  0  0  0  0  0  0  0  0  0  0
    5.0427   -0.2211   -0.4083 C   0  0  0  0  0  0  0  0  0  0  0  0
    5.4214   -1.4242    0.1548 C   0  0  0  0  0  0  0  0  0  0  0  0
    4.4265   -2.2220    0.6672 C   0  0  0  0  0  0  0  0  0  0  0  0
    3.0858   -1.8318    0.6201 C   0  0  0  0  0  0  0  0  0  0  0  0
    6.8457   -1.7627    0.1738 C   0  0  0  0  0  0  0  0  0  0  0  0
    7.7651   -0.7305    0.2953 C   0  0  0  0  0  0  0  0  0  0  0  0
    9.1153   -0.9586    0.3069 C   0  0  0  0  0  0  0  0  0  0  0  0
    9.6070   -2.2404    0.1966 C   0  0  0  0  0  0  0  0  0  0  0  0
    8.6840   -3.2560    0.0779 C   0  0  0  0  0  0  0  0  0  0  0  0
    7.3270   -3.0416    0.0645 C   0  0  0  0  0  0  0  0  0  0  0  0
   11.0579   -2.4980    0.2060 C   0  0  0  0  0  0  0  0  0  0  0  0
   11.9050   -1.4090    0.3372 O   0  0  0  0  0  0  0  0  0  0  0  0
   11.4851   -3.6697    0.0977 O   0  0  0  0  0  0  0  0  0  0  0  0
   -1.1795    2.4486    0.0229 C   0  0  0  0  0  0  0  0  0  0  0  0
   -1.9117    2.9137    1.0719 C   0  0  0  0  0  0  0  0  0  0  0  0
   -2.5058    4.1810    1.0580 C   0  0  0  0  0  0  0  0  0  0  0  0
   -2.3758    5.0150   -0.0214 C   0  0  0  0  0  0  0  0  0  0  0  0
   -1.6222    4.5381   -1.1038 C   0  0  0  0  0  0  0  0  0  0  0  0
   -1.0474    3.2956   -1.0735 C   0  0  0  0  0  0  0  0  0  0  0  0
   -2.9780    6.3365   -0.0853 C   0  0  0  0  0  0  0  0  0  0  0  0
   -4.1649    6.5822    0.5510 C   0  0  0  0  0  0  0  0  0  0  0  0
   -4.7579    7.8333    0.4925 C   0  0  0  0  0  0  0  0  0  0  0  0
   -4.1518    8.8589   -0.2149 C   0  0  0  0  0  0  0  0  0  0  0  0
   -2.9645    8.6112   -0.8498 C   0  0  0  0  0  0  0  0  0  0  0  0
   -2.3806    7.3568   -0.7857 C   0  0  0  0  0  0  0  0  0  0  0  0
   -4.1548   -6.8583    0.3154 H   0  0  0  0  0  0  0  0  0  0  0  0
   -2.9557   -5.5315    0.1604 H   0  0  0  0  0  0  0  0  0  0  0  0
   -4.0965   -5.9736   -1.2287 H   0  0  0  0  0  0  0  0  0  0  0  0
   -6.2138   -6.4737    1.2131 H   0  0  0  0  0  0  0  0  0  0  0  0
   -7.9451   -4.9089    2.0721 H   0  0  0  0  0  0  0  0  0  0  0  0
   -7.6983   -2.5370    1.7024 H   0  0  0  0  0  0  0  0  0  0  0  0
   -2.7658   -3.5433   -0.1663 H   0  0  0  0  0  0  0  0  0  0  0  0
   -3.7516   -3.5790   -1.6332 H   0  0  0  0  0  0  0  0  0  0  0  0
   -1.8227   -2.3911   -1.8104 H   0  0  0  0  0  0  0  0  0  0  0  0
   -2.9699   -1.4584   -2.7630 H   0  0  0  0  0  0  0  0  0  0  0  0
   -0.9137   -0.2116   -2.3710 H   0  0  0  0  0  0  0  0  0  0  0  0
   -2.3524    0.6519   -1.8101 H   0  0  0  0  0  0  0  0  0  0  0  0
   -1.4428   -1.7230    1.1880 H   0  0  0  0  0  0  0  0  0  0  0  0
   -1.8846   -0.0912    1.7032 H   0  0  0  0  0  0  0  0  0  0  0  0
   -3.9212   -0.0666    0.5209 H   0  0  0  0  0  0  0  0  0  0  0  0
   -3.7067   -1.6512    1.2699 H   0  0  0  0  0  0  0  0  0  0  0  0
    3.4419    1.0944   -0.8910 H   0  0  0  0  0  0  0  0  0  0  0  0
    5.8143    0.4315   -0.8264 H   0  0  0  0  0  0  0  0  0  0  0  0
    4.6950   -3.1651    1.1127 H   0  0  0  0  0  0  0  0  0  0  0  0
    2.3079   -2.4751    1.0296 H   0  0  0  0  0  0  0  0  0  0  0  0
    7.3995    0.3078    0.3871 H   0  0  0  0  0  0  0  0  0  0  0  0
    9.8422   -0.1534    0.4016 H   0  0  0  0  0  0  0  0  0  0  0  0
    9.0978   -4.2681   -0.0095 H   0  0  0  0  0  0  0  0  0  0  0  0
    6.6257   -3.8525   -0.0295 H   0  0  0  0  0  0  0  0  0  0  0  0
   12.8907   -1.4733    0.5317 H   0  0  0  0  0  0  0  0  0  0  0  0
   -2.0393    2.2788    1.9525 H   0  0  0  0  0  0  0  0  0  0  0  0
   -3.0834    4.5278    1.9076 H   0  0  0  0  0  0  0  0  0  0  0  0
   -1.5027    5.1847   -1.9789 H   0  0  0  0  0  0  0  0  0  0  0  0
   -0.4572    2.9077   -1.9084 H   0  0  0  0  0  0  0  0  0  0  0  0
   -4.6950    5.8304    1.1239 H   0  0  0  0  0  0  0  0  0  0  0  0
   -5.6937    8.0462    0.9845 H   0  0  0  0  0  0  0  0  0  0  0  0
   -4.6336    9.8270   -0.2500 H   0  0  0  0  0  0  0  0  0  0  0  0
   -2.5005    9.4304   -1.4027 H   0  0  0  0  0  0  0  0  0  0  0  0
   -1.4353    7.2351   -1.3137 H   0  0  0  0  0  0  0  0  0  0  0  0
  1  2  1  0
  2  3  2  0
  3  4  1  0
  4  5  2  0
  5  6  1  0
  6  7  2  0
  7  8  1  0
  8  9  1  0
  9 10  1  0
 10 11  1  0
 11 12  1  0
 12 13  1  0
 13 14  1  0
 12 15  1  0
 15 16  1  0
 16 17  2  0
 16 18  1  0
 18 19  1  0
 19 20  2  0
 18 21  1  0
 21 22  2  0
 22 23  1  0
 23 24  2  0
 24 25  1  0
 25 26  2  0
 24 27  1  0
 27 28  2  0
 28 29  1  0
 29 30  2  0
 30 31  1  0
 31 32  2  0
 30 33  1  0
 33 34  1  0
 33 35  2  0
 15 36  1  0
 36 37  2  0
 37 38  1  0
 38 39  2  0
 39 40  1  0
 40 41  2  0
 39 42  1  0
 42 43  2  0
 43 44  1  0
 44 45  2  0
 45 46  1  0
 46 47  2  0
  7  2  1  0
 14  9  1  0
 26 21  1  0
 32 27  1  0
 41 36  1  0
 47 42  1  0
 19 12  1  0
  1 48  1  0
  1 49  1  0
  1 50  1  0
  3 51  1  0
  4 52  1  0
  5 53  1  0
  8 54  1  0
  8 55  1  0
 10 56  1  0
 10 57  1  0
 11 58  1  0
 11 59  1  0
 13 60  1  0
 13 61  1  0
 14 62  1  0
 14 63  1  0
 22 64  1  0
 23 65  1  0
 25 66  1  0
 26 67  1  0
 28 68  1  0
 29 69  1  0
 31 70  1  0
 32 71  1  0
 34 72  1  0
 37 73  1  0
 38 74  1  0
 40 75  1  0
 41 76  1  0
 43 77  1  0
 44 78  1  0
 45 79  1  0
 46 80  1  0
 47 81  1  0
M  END
$$$$
[H]OC(=O)c1c([H])c([H])c(-c2c([H])c([H])c(N3C(=O)N(c4c([H])c([H])c(C#N)c([H])c4[H])C4(C3=O)C([H])([H])C([H])([H])N(C([H])([H])c3nc([H])c([H])c([H])c3C([H])([H])[H])C([H])([H])C4([H])[H])c([H])c2[H])c([H])c1[H]
     RDKit          3D

 72 77  0  0  0  0  0  0  0  0999 V2000
    6.9349   -0.1831    0.8367 C   0  0  0  0  0  0  0  0  0  0  0  0
    6.6222   -1.4782    0.1895 C   0  0  0  0  0  0  0  0  0  0  0  0
    7.3490   -2.6145    0.4315 C   0  0  0  0  0  0  0  0  0  0  0  0
    7.0799   -3.8352   -0.1541 C   0  0  0  0  0  0  0  0  0  0  0  0
    6.0087   -3.8763   -1.0296 C   0  0  0  0  0  0  0  0  0  0  0  0
    5.2965   -2.7649   -1.2674 N   0  0  0  0  0  0  0  0  0  0  0  0
    5.5416   -1.5694   -0.7089 C   0  0  0  0  0  0  0  0  0  0  0  0
    4.7820   -0.3419   -0.9881 C   0  0  0  0  0  0  0  0  0  0  0  0
    3.6704   -0.4622   -1.8819 N   0  0  0  0  0  0  0  0  0  0  0  0
    3.1719    0.8783   -2.2113 C   0  0  0  0  0  0  0  0  0  0  0  0
    1.6893    0.9770   -2.2775 C   0  0  0  0  0  0  0  0  0  0  0  0
    1.0086    0.5608   -0.9948 C   0  0  0  0  0  0  0  0  0  0  0  0
    1.7749   -0.5219   -0.2964 C   0  0  0  0  0  0  0  0  0  0  0  0
    2.5751   -1.2623   -1.3564 C   0  0  0  0  0  0  0  0  0  0  0  0
    0.7598    1.6572   -0.0888 N   0  0  0  0  0  0  0  0  0  0  0  0
   -0.5561    1.4606    0.4575 C   0  0  0  0  0  0  0  0  0  0  0  0
   -1.0561    2.0087    1.4683 O   0  0  0  0  0  0  0  0  0  0  0  0
   -1.2810    0.5030   -0.3373 N   0  0  0  0  0  0  0  0  0  0  0  0
   -0.3832    0.1229   -1.3703 C   0  0  0  0  0  0  0  0  0  0  0  0
   -0.6398   -0.4748   -2.4353 O   0  0  0  0  0  0  0  0  0  0  0  0
   -2.6140    0.0662   -0.1124 C   0  0  0  0  0  0  0  0  0  0  0  0
   -3.6067    0.9763    0.2608 C   0  0  0  0  0  0  0  0  0  0  0  0
   -4.9011    0.6382    0.4887 C   0  0  0  0  0  0  0  0  0  0  0  0
   -5.3010   -0.6768    0.3530 C   0  0  0  0  0  0  0  0  0  0  0  0
   -4.3601   -1.6059   -0.0117 C   0  0  0  0  0  0  0  0  0  0  0  0
   -3.0291   -1.2368   -0.2418 C   0  0  0  0  0  0  0  0  0  0  0  0
   -6.6681   -1.1030    0.5854 C   0  0  0  0  0  0  0  0  0  0  0  0
   -7.2264   -2.1574   -0.0984 C   0  0  0  0  0  0  0  0  0  0  0  0
   -8.5366   -2.5568    0.1353 C   0  0  0  0  0  0  0  0  0  0  0  0
   -9.3358   -1.9209    1.0563 C   0  0  0  0  0  0  0  0  0  0  0  0
   -8.7642   -0.8497    1.7481 C   0  0  0  0  0  0  0  0  0  0  0  0
   -7.4685   -0.4539    1.5185 C   0  0  0  0  0  0  0  0  0  0  0  0
  -10.6987   -2.3297    1.3079 C   0  0  0  0  0  0  0  0  0  0  0  0
  -11.2320   -3.3890    0.6105 O   0  0  0  0  0  0  0  0  0  0  0  0
  -11.4025   -1.7341    2.1514 O   0  0  0  0  0  0  0  0  0  0  0  0
    1.5946    2.7516    0.2349 C   0  0  0  0  0  0  0  0  0  0  0  0
    1.4365    3.9550   -0.4508 C   0  0  0  0  0  0  0  0  0  0  0  0
    2.1893    5.0686   -0.2107 C   0  0  0  0  0  0  0  0  0  0  0  0
    3.1813    5.0159    0.7755 C   0  0  0  0  0  0  0  0  0  0  0  0
    3.3632    3.8371    1.4734 C   0  0  0  0  0  0  0  0  0  0  0  0
    2.5733    2.7187    1.2007 C   0  0  0  0  0  0  0  0  0  0  0  0
    3.9649    6.1931    1.0156 C   0  0  0  0  0  0  0  0  0  0  0  0
    4.5881    7.1663    1.2068 N   0  0  0  0  0  0  0  0  0  0  0  0
    7.5211    0.4415    0.1627 H   0  0  0  0  0  0  0  0  0  0  0  0
    7.5043   -0.4228    1.7827 H   0  0  0  0  0  0  0  0  0  0  0  0
    6.0342    0.3717    1.1782 H   0  0  0  0  0  0  0  0  0  0  0  0
    8.1888   -2.5752    1.1195 H   0  0  0  0  0  0  0  0  0  0  0  0
    7.6915   -4.7150    0.0709 H   0  0  0  0  0  0  0  0  0  0  0  0
    5.8082   -4.8419   -1.4831 H   0  0  0  0  0  0  0  0  0  0  0  0
    4.3756    0.0963   -0.0385 H   0  0  0  0  0  0  0  0  0  0  0  0
    5.5288    0.4021   -1.3834 H   0  0  0  0  0  0  0  0  0  0  0  0
    3.5546    1.0620   -3.2561 H   0  0  0  0  0  0  0  0  0  0  0  0
    3.6578    1.5816   -1.5235 H   0  0  0  0  0  0  0  0  0  0  0  0
    1.3367    0.3039   -3.1114 H   0  0  0  0  0  0  0  0  0  0  0  0
    1.4253    2.0239   -2.5462 H   0  0  0  0  0  0  0  0  0  0  0  0
    1.0547   -1.2798    0.1002 H   0  0  0  0  0  0  0  0  0  0  0  0
    2.4026   -0.0958    0.4848 H   0  0  0  0  0  0  0  0  0  0  0  0
    2.9360   -2.2268   -1.0030 H   0  0  0  0  0  0  0  0  0  0  0  0
    1.8666   -1.4288   -2.2192 H   0  0  0  0  0  0  0  0  0  0  0  0
   -3.2585    2.0187    0.3610 H   0  0  0  0  0  0  0  0  0  0  0  0
   -5.6364    1.3570    0.7732 H   0  0  0  0  0  0  0  0  0  0  0  0
   -4.6205   -2.6452   -0.1310 H   0  0  0  0  0  0  0  0  0  0  0  0
   -2.3081   -1.9828   -0.5262 H   0  0  0  0  0  0  0  0  0  0  0  0
   -6.6564   -2.6981   -0.8327 H   0  0  0  0  0  0  0  0  0  0  0  0
   -8.9815   -3.3954   -0.4098 H   0  0  0  0  0  0  0  0  0  0  0  0
   -9.3939   -0.3466    2.4735 H   0  0  0  0  0  0  0  0  0  0  0  0
   -7.0203    0.3813    2.0555 H   0  0  0  0  0  0  0  0  0  0  0  0
  -10.7103   -4.2131    0.3392 H   0  0  0  0  0  0  0  0  0  0  0  0
    0.6724    4.0059   -1.2140 H   0  0  0  0  0  0  0  0  0  0  0  0
    2.0171    5.9831   -0.7808 H   0  0  0  0  0  0  0  0  0  0  0  0
    4.1392    3.8410    2.2249 H   0  0  0  0  0  0  0  0  0  0  0  0
    2.7753    1.8404    1.7892 H   0  0  0  0  0  0  0  0  0  0  0  0
  1  2  1  0
  2  3  2  0
  3  4  1  0
  4  5  2  0
  5  6  1  0
  6  7  2  0
  7  8  1  0
  8  9  1  0
  9 10  1  0
 10 11  1  0
 11 12  1  0
 12 13  1  0
 13 14  1  0
 12 15  1  0
 15 16  1  0
 16 17  2  0
 16 18  1  0
 18 19  1  0
 19 20  2  0
 18 21  1  0
 21 22  2  0
 22 23  1  0
 23 24  2  0
 24 25  1  0
 25 26  2  0
 24 27  1  0
 27 28  2  0
 28 29  1  0
 29 30  2  0
 30 31  1  0
 31 32  2  0
 30 33  1  0
 33 34  1  0
 33 35  2  0
 15 36  1  0
 36 37  2  0
 37 38  1  0
 38 39  2  0
 39 40  1  0
 40 41  2  0
 39 42  1  0
 42 43  3  0
  7  2  1  0
 14  9  1  0
 26 21  1  0
 32 27  1  0
 41 36  1  0
 19 12  1  0
  1 44  1  0
  1 45  1  0
  1 46  1  0
  3 47  1  0
  4 48  1  0
  5 49  1  0
  8 50  1  0
  8 51  1  0
 10 52  1  0
 10 53  1  0
 11 54  1  0
 11 55  1  0
 13 56  1  0
 13 57  1  0
 14 58  1  0
 14 59  1  0
 22 60  1  0
 23 61  1  0
 25 62  1  0
 26 63  1  0
 28 64  1  0
 29 65  1  0
 31 66  1  0
 32 67  1  0
 34 68  1  0
 37 69  1  0
 38 70  1  0
 40 71  1  0
 41 72  1  0
M  END
$$$$
[H]OC(=O)c1c([H])c([H])c(N2C(=O)N(c3c([H])c([H])c(-c4c([H])c([H])c(C#N)c([H])c4[H])c([H])c3[H])C3(C2=O)C([H])([H])C([H])([H])N(C([H])([H])c2nc([H])c([H])c([H])c2C([H])([H])[H])C([H])([H])C3([H])[H])c([H])c1[H]
     RDKit          3D

 72 77  0  0  0  0  0  0  0  0999 V2000
   -7.0329   -0.3361   -0.1863 C   0  0  0  0  0  0  0  0  0  0  0  0
   -6.3179   -1.6498   -0.2591 C   0  0  0  0  0  0  0  0  0  0  0  0
   -6.9915   -2.8057   -0.5628 C   0  0  0  0  0  0  0  0  0  0  0  0
   -6.3357   -4.0166   -0.6302 C   0  0  0  0  0  0  0  0  0  0  0  0
   -4.9738   -4.0526   -0.3850 C   0  0  0  0  0  0  0  0  0  0  0  0
   -4.3689   -2.8964   -0.0940 N   0  0  0  0  0  0  0  0  0  0  0  0
   -4.9444   -1.7014   -0.0143 C   0  0  0  0  0  0  0  0  0  0  0  0
   -4.2320   -0.4676    0.3304 C   0  0  0  0  0  0  0  0  0  0  0  0
   -2.8093   -0.6000    0.5481 N   0  0  0  0  0  0  0  0  0  0  0  0
   -2.4115    0.7484    1.0205 C   0  0  0  0  0  0  0  0  0  0  0  0
   -0.9493    0.6605    1.3543 C   0  0  0  0  0  0  0  0  0  0  0  0
   -0.2299    0.6014    0.0223 C   0  0  0  0  0  0  0  0  0  0  0  0
   -0.7000   -0.5464   -0.7756 C   0  0  0  0  0  0  0  0  0  0  0  0
   -2.1459   -0.8852   -0.7068 C   0  0  0  0  0  0  0  0  0  0  0  0
    1.1819    0.5788    0.2681 N   0  0  0  0  0  0  0  0  0  0  0  0
    1.5390    1.9291    0.6325 C   0  0  0  0  0  0  0  0  0  0  0  0
    2.5324    2.2977    1.3213 O   0  0  0  0  0  0  0  0  0  0  0  0
    0.5405    2.7768    0.0567 N   0  0  0  0  0  0  0  0  0  0  0  0
   -0.3764    1.9309   -0.6265 C   0  0  0  0  0  0  0  0  0  0  0  0
   -1.1362    2.2313   -1.5620 O   0  0  0  0  0  0  0  0  0  0  0  0
    0.4716    4.1986    0.1451 C   0  0  0  0  0  0  0  0  0  0  0  0
    1.6641    4.9145    0.1085 C   0  0  0  0  0  0  0  0  0  0  0  0
    1.5768    6.2838    0.1929 C   0  0  0  0  0  0  0  0  0  0  0  0
    0.3856    6.9574    0.3094 C   0  0  0  0  0  0  0  0  0  0  0  0
   -0.7875    6.2300    0.3441 C   0  0  0  0  0  0  0  0  0  0  0  0
   -0.7313    4.8715    0.2624 C   0  0  0  0  0  0  0  0  0  0  0  0
    0.3021    8.4083    0.3985 C   0  0  0  0  0  0  0  0  0  0  0  0
   -0.9106    9.0639    0.5141 O   0  0  0  0  0  0  0  0  0  0  0  0
    1.3641    9.0672    0.3681 O   0  0  0  0  0  0  0  0  0  0  0  0
    2.1605   -0.4382    0.2122 C   0  0  0  0  0  0  0  0  0  0  0  0
    2.5481   -1.0975    1.3513 C   0  0  0  0  0  0  0  0  0  0  0  0
    3.5243   -2.0925    1.2878 C   0  0  0  0  0  0  0  0  0  0  0  0
    4.0859   -2.3966    0.0663 C   0  0  0  0  0  0  0  0  0  0  0  0
    3.7134   -1.7498   -1.0902 C   0  0  0  0  0  0  0  0  0  0  0  0
    2.7323   -0.7554   -1.0006 C   0  0  0  0  0  0  0  0  0  0  0  0
    5.1124   -3.4245   -0.0190 C   0  0  0  0  0  0  0  0  0  0  0  0
    5.2333   -4.1909   -1.1590 C   0  0  0  0  0  0  0  0  0  0  0  0
    6.1962   -5.1800   -1.3021 C   0  0  0  0  0  0  0  0  0  0  0  0
    7.0806   -5.4105   -0.2491 C   0  0  0  0  0  0  0  0  0  0  0  0
    6.9767   -4.6558    0.8995 C   0  0  0  0  0  0  0  0  0  0  0  0
    6.0084   -3.6715    1.0256 C   0  0  0  0  0  0  0  0  0  0  0  0
    8.0728   -6.4311   -0.4035 C   0  0  0  0  0  0  0  0  0  0  0  0
    8.8824   -7.2531   -0.5474 N   0  0  0  0  0  0  0  0  0  0  0  0
   -7.1582   -0.0114    0.8653 H   0  0  0  0  0  0  0  0  0  0  0  0
   -6.4984    0.4637   -0.7099 H   0  0  0  0  0  0  0  0  0  0  0  0
   -8.0207   -0.4494   -0.7028 H   0  0  0  0  0  0  0  0  0  0  0  0
   -8.0706   -2.7785   -0.7573 H   0  0  0  0  0  0  0  0  0  0  0  0
   -6.8680   -4.9437   -0.8713 H   0  0  0  0  0  0  0  0  0  0  0  0
   -4.4634   -5.0097   -0.4388 H   0  0  0  0  0  0  0  0  0  0  0  0
   -4.4533    0.3046   -0.4519 H   0  0  0  0  0  0  0  0  0  0  0  0
   -4.6901   -0.0644    1.2856 H   0  0  0  0  0  0  0  0  0  0  0  0
   -2.5982    1.5006    0.2411 H   0  0  0  0  0  0  0  0  0  0  0  0
   -3.0083    0.9192    1.9397 H   0  0  0  0  0  0  0  0  0  0  0  0
   -0.5963    1.5145    1.9646 H   0  0  0  0  0  0  0  0  0  0  0  0
   -0.7895   -0.3146    1.8810 H   0  0  0  0  0  0  0  0  0  0  0  0
   -0.4710   -0.3253   -1.8612 H   0  0  0  0  0  0  0  0  0  0  0  0
   -0.0629   -1.4340   -0.5536 H   0  0  0  0  0  0  0  0  0  0  0  0
   -2.2225   -1.9770   -0.8853 H   0  0  0  0  0  0  0  0  0  0  0  0
   -2.7119   -0.4141   -1.5576 H   0  0  0  0  0  0  0  0  0  0  0  0
    2.6267    4.4331    0.0176 H   0  0  0  0  0  0  0  0  0  0  0  0
    2.4881    6.8649    0.1675 H   0  0  0  0  0  0  0  0  0  0  0  0
   -1.7378    6.7203    0.4347 H   0  0  0  0  0  0  0  0  0  0  0  0
   -1.6257    4.2286    0.2831 H   0  0  0  0  0  0  0  0  0  0  0  0
   -1.4921    9.1272   -0.3187 H   0  0  0  0  0  0  0  0  0  0  0  0
    2.1322   -0.8881    2.3236 H   0  0  0  0  0  0  0  0  0  0  0  0
    3.8452   -2.6234    2.1685 H   0  0  0  0  0  0  0  0  0  0  0  0
    4.1694   -2.0068   -2.0304 H   0  0  0  0  0  0  0  0  0  0  0  0
    2.4545   -0.2576   -1.9234 H   0  0  0  0  0  0  0  0  0  0  0  0
    4.5345   -4.0041   -1.9805 H   0  0  0  0  0  0  0  0  0  0  0  0
    6.2234   -5.7337   -2.2257 H   0  0  0  0  0  0  0  0  0  0  0  0
    7.6476   -4.8126    1.7288 H   0  0  0  0  0  0  0  0  0  0  0  0
    5.9169   -3.0734    1.9200 H   0  0  0  0  0  0  0  0  0  0  0  0
  1  2  1  0
  2  3  2  0
  3  4  1  0
  4  5  2  0
  5  6  1  0
  6  7  2  0
  7  8  1  0
  8  9  1  0
  9 10  1  0
 10 11  1  0
 11 12  1  0
 12 13  1  0
 13 14  1  0
 12 15  1  0
 15 16  1  0
 16 17  2  0
 16 18  1  0
 18 19  1  0
 19 20  2  0
 18 21  1  0
 21 22  2  0
 22 23  1  0
 23 24  2  0
 24 25  1  0
 25 26  2  0
 24 27  1  0
 27 28  1  0
 27 29  2  0
 15 30  1  0
 30 31  2  0
 31 32  1  0
 32 33  2  0
 33 34  1  0
 34 35  2  0
 33 36  1  0
 36 37  2  0
 37 38  1  0
 38 39  2  0
 39 40  1  0
 40 41  2  0
 39 42  1  0
 42 43  3  0
  7  2  1  0
 14  9  1  0
 26 21  1  0
 35 30  1  0
 41 36  1  0
 19 12  1  0
  1 44  1  0
  1 45  1  0
  1 46  1  0
  3 47  1  0
  4 48  1  0
  5 49  1  0
  8 50  1  0
  8 51  1  0
 10 52  1  0
 10 53  1  0
 11 54  1  0
 11 55  1  0
 13 56  1  0
 13 57  1  0
 14 58  1  0
 14 59  1  0
 22 60  1  0
 23 61  1  0
 25 62  1  0
 26 63  1  0
 28 64  1  0
 31 65  1  0
 32 66  1  0
 34 67  1  0
 35 68  1  0
 37 69  1  0
 38 70  1  0
 40 71  1  0
 41 72  1  0
M  END
$$$$
