[H]O[C@@]1(C#Cc2c([H])c3c(c([H])c2F)C2([H])C([H])([H])C([H])(c4c-3nc(C(=O)N([H])[H])n4C([H])([H])[H])C2([H])[H])C(=O)N(C([H])([H])[H])C([H])([H])C1([H])[H]


 33 37  0  0  0  0  0  0  0  0999 V2000
   40.5736   15.3577  -12.9271 C   0  0  0  0  0  0  0  0  0  0  0  0
   40.3343   14.5260  -14.0010 C   0  0  0  0  0  0  0  0  0  0  0  0
   39.1171   13.9360  -14.1272 C   0  0  0  0  0  0  0  0  0  0  0  0
   38.9957   13.0718  -15.3207 C   0  0  0  0  0  0  0  0  0  0  0  0
   39.9538   12.8512  -16.2304 N   0  0  0  0  0  0  0  0  0  0  0  0
   39.4703   12.0133  -17.1644 C   0  0  0  0  0  0  0  0  0  0  0  0
   38.1940   11.7077  -16.8327 N   0  0  0  0  0  0  0  0  0  0  0  0
   37.2912   10.8292  -17.5721 C   0  0  0  0  0  0  0  0  0  0  0  0
   37.8744   12.3368  -15.7139 C   0  0  0  0  0  0  0  0  0  0  0  0
   36.5662   12.3013  -14.9643 C   0  0  0  0  0  0  0  0  0  0  0  0
   36.8272   12.0833  -13.4668 C   0  0  0  0  0  0  0  0  0  0  0  0
   36.7339   13.5864  -13.1937 C   0  0  0  0  0  0  0  0  0  0  0  0
   36.1400   13.7223  -14.5797 C   0  0  0  0  0  0  0  0  0  0  0  0
   38.1246   14.1734  -13.1773 C   0  0  0  0  0  0  0  0  0  0  0  0
   38.3501   14.9917  -12.1147 C   0  0  0  0  0  0  0  0  0  0  0  0
   39.5842   15.5856  -11.9930 C   0  0  0  0  0  0  0  0  0  0  0  0
   39.8137   16.4007  -10.9373 F   0  0  0  0  0  0  0  0  0  0  0  0
   40.1776   11.4976  -18.3522 C   0  0  0  0  0  0  0  0  0  0  0  0
   39.4827   11.0476  -19.4946 N   0  0  0  0  0  0  0  0  0  0  0  0
   41.4327   11.4503  -18.3654 O   0  0  0  0  0  0  0  0  0  0  0  0
   39.6310   10.0863  -19.8354 H   0  0  0  0  0  0  0  0  0  0  0  0
   38.8324   11.6830  -19.9795 H   0  0  0  0  0  0  0  0  0  0  0  0
   42.9629   16.4890  -12.7059 C   0  0  0  0  0  0  0  0  0  0  0  0
   41.8719   15.9820  -12.7994 C   0  0  0  0  0  0  0  0  0  0  0  0
   47.6353   15.4615  -12.9628 C   0  0  0  0  0  0  0  0  0  0  0  0
   46.3874   16.0143  -12.4785 N   0  0  0  0  0  0  0  0  0  0  0  0
   46.1183   16.4618  -11.1304 C   0  0  0  0  0  0  0  0  0  0  0  0
   44.7898   17.1438  -11.1869 C   0  0  0  0  0  0  0  0  0  0  0  0
   44.3096   17.0971  -12.6094 C   0  0  0  0  0  0  0  0  0  0  0  0
   44.3506   18.3381  -13.2338 O   0  0  0  0  0  0  0  0  0  0  0  0
   45.2404   16.1881  -13.2993 C   0  0  0  0  0  0  0  0  0  0  0  0
   45.0733   15.6399  -14.4315 O   0  0  0  0  0  0  0  0  0  0  0  0
   43.6749   18.9072  -12.7693 H   0  0  0  0  0  0  0  0  0  0  0  0
 25 26  1  0  0  0
 26 27  1  0  0  0
 27 28  1  0  0  0
 28 29  1  0  0  0
 29 30  1  0  0  0
 29 23  1  0  0  0
 23 24  3  0  0  0
 24  1  1  0  0  0
  1  2  1  0  0  0
  2  3  2  0  0  0
  3  4  1  0  0  0
  4  5  1  0  0  0
  5  6  2  0  0  0
  6 18  1  0  0  0
 18 19  1  0  0  0
 18 20  2  0  0  0
  6  7  1  0  0  0
  7  8  1  0  0  0
  7  9  1  0  0  0
  9 10  1  0  0  0
 10 11  1  0  0  0
 11 12  1  0  0  0
 12 13  1  0  0  0
 12 14  1  0  0  0
 14 15  2  0  0  0
 15 16  1  0  0  0
 16 17  1  0  0  0
 29 31  1  0  0  0
 31 32  2  0  0  0
 31 26  1  0  0  0
 16  1  2  0  0  0
 14  3  1  0  0  0
  9  4  2  0  0  0
 13 10  1  0  0  0
 30 33  1  0  0  0
 19 21  1  0  0  0
 19 22  1  0  0  0
M  END
> <minimizedAffinity>
-9.35243

> <CNNscore>
0.5520096421

> <CNNaffinity>
6.9226961136

> <CNN_VS>
3.8213949203

> <CNNaffinity_variance>
0.3586700857

$$$$
[H]O[C@@]1(C#Cc2c([H])c3c(c([H])c2F)C2([H])C([H])([H])C([H])(c4c-3nc(C(=O)N([H])[H])n4C([H])([H])[H])C2([H])[H])C(=O)N(C([H])([H])[H])C([H])([H])C1([H])[H]


 33 37  0  0  0  0  0  0  0  0999 V2000
   35.6742   13.0921  -13.6679 C   0  0  0  0  0  0  0  0  0  0  0  0
   36.8645   12.9296  -14.3454 C   0  0  0  0  0  0  0  0  0  0  0  0
   36.8830   12.2017  -15.4924 C   0  0  0  0  0  0  0  0  0  0  0  0
   38.2204   12.1074  -16.1157 C   0  0  0  0  0  0  0  0  0  0  0  0
   39.3451   12.6642  -15.6477 N   0  0  0  0  0  0  0  0  0  0  0  0
   40.3526   12.3582  -16.4841 C   0  0  0  0  0  0  0  0  0  0  0  0
   39.8492   11.6008  -17.4868 N   0  0  0  0  0  0  0  0  0  0  0  0
   40.5936   11.0487  -18.6158 C   0  0  0  0  0  0  0  0  0  0  0  0
   38.5522   11.4296  -17.2916 C   0  0  0  0  0  0  0  0  0  0  0  0
   37.5739   10.6595  -18.1428 C   0  0  0  0  0  0  0  0  0  0  0  0
   36.7051    9.7572  -17.2545 C   0  0  0  0  0  0  0  0  0  0  0  0
   35.5837   10.7987  -17.2293 C   0  0  0  0  0  0  0  0  0  0  0  0
   36.3046   11.4882  -18.3682 C   0  0  0  0  0  0  0  0  0  0  0  0
   35.7071   11.6280  -15.9739 C   0  0  0  0  0  0  0  0  0  0  0  0
   34.5281   11.7822  -15.3136 C   0  0  0  0  0  0  0  0  0  0  0  0
   34.5165   12.5199  -14.1535 C   0  0  0  0  0  0  0  0  0  0  0  0
   33.3459   12.6763  -13.4925 F   0  0  0  0  0  0  0  0  0  0  0  0
   41.7672   12.7592  -16.3612 C   0  0  0  0  0  0  0  0  0  0  0  0
   42.8024   12.0380  -16.9926 N   0  0  0  0  0  0  0  0  0  0  0  0
   42.0779   13.7677  -15.6800 O   0  0  0  0  0  0  0  0  0  0  0  0
   43.5732   11.6527  -16.4271 H   0  0  0  0  0  0  0  0  0  0  0  0
   42.7802   11.9018  -18.0137 H   0  0  0  0  0  0  0  0  0  0  0  0
   35.6711   14.5233  -11.4343 C   0  0  0  0  0  0  0  0  0  0  0  0
   35.6625   13.8682  -12.4475 C   0  0  0  0  0  0  0  0  0  0  0  0
   38.0477   18.0771   -9.2719 C   0  0  0  0  0  0  0  0  0  0  0  0
   37.3798   16.8070   -9.4671 N   0  0  0  0  0  0  0  0  0  0  0  0
   37.5460   15.6218   -8.6561 C   0  0  0  0  0  0  0  0  0  0  0  0
   36.4938   14.6652   -9.1155 C   0  0  0  0  0  0  0  0  0  0  0  0
   35.7014   15.3392  -10.1989 C   0  0  0  0  0  0  0  0  0  0  0  0
   34.4194   15.6891   -9.7917 O   0  0  0  0  0  0  0  0  0  0  0  0
   36.4503   16.5672  -10.5150 C   0  0  0  0  0  0  0  0  0  0  0  0
   36.3108   17.3041  -11.5386 O   0  0  0  0  0  0  0  0  0  0  0  0
   33.9326   14.8322   -9.6340 H   0  0  0  0  0  0  0  0  0  0  0  0
 25 26  1  0  0  0
 26 27  1  0  0  0
 27 28  1  0  0  0
 28 29  1  0  0  0
 29 30  1  0  0  0
 29 23  1  0  0  0
 23 24  3  0  0  0
 24  1  1  0  0  0
  1  2  1  0  0  0
  2  3  2  0  0  0
  3  4  1  0  0  0
  4  5  1  0  0  0
  5  6  2  0  0  0
  6 18  1  0  0  0
 18 19  1  0  0  0
 18 20  2  0  0  0
  6  7  1  0  0  0
  7  8  1  0  0  0
  7  9  1  0  0  0
  9 10  1  0  0  0
 10 11  1  0  0  0
 11 12  1  0  0  0
 12 13  1  0  0  0
 12 14  1  0  0  0
 14 15  2  0  0  0
 15 16  1  0  0  0
 16 17  1  0  0  0
 29 31  1  0  0  0
 31 32  2  0  0  0
 31 26  1  0  0  0
 16  1  2  0  0  0
 14  3  1  0  0  0
  9  4  2  0  0  0
 13 10  1  0  0  0
 30 33  1  0  0  0
 19 21  1  0  0  0
 19 22  1  0  0  0
M  END
> <minimizedAffinity>
-9.24532

> <CNNscore>
0.5225059390

> <CNNaffinity>
7.1583557129

> <CNN_VS>
3.7402834892

> <CNNaffinity_variance>
0.1812001616

$$$$
[H]O[C@@]1(C#Cc2c([H])c3c(c([H])c2F)C2([H])C([H])([H])C([H])(c4c-3nc(C(=O)N([H])[H])n4C([H])([H])[H])C2([H])[H])C(=O)N(C([H])([H])[H])C([H])([H])C1([H])[H]


 33 37  0  0  0  0  0  0  0  0999 V2000
   41.8667   13.5576  -14.6748 C   0  0  0  0  0  0  0  0  0  0  0  0
   40.5057   13.3391  -14.7233 C   0  0  0  0  0  0  0  0  0  0  0  0
   39.9810   12.6392  -15.7627 C   0  0  0  0  0  0  0  0  0  0  0  0
   38.5130   12.4783  -15.6909 C   0  0  0  0  0  0  0  0  0  0  0  0
   37.7186   12.9498  -14.7210 N   0  0  0  0  0  0  0  0  0  0  0  0
   36.4501   12.6040  -15.0030 C   0  0  0  0  0  0  0  0  0  0  0  0
   36.4538   11.9076  -16.1638 N   0  0  0  0  0  0  0  0  0  0  0  0
   35.2901   11.3389  -16.8391 C   0  0  0  0  0  0  0  0  0  0  0  0
   37.6959   11.8135  -16.6088 C   0  0  0  0  0  0  0  0  0  0  0  0
   38.1898   11.1321  -17.8604 C   0  0  0  0  0  0  0  0  0  0  0  0
   39.1627   12.0547  -18.6090 C   0  0  0  0  0  0  0  0  0  0  0  0
   40.3692   11.3598  -17.9731 C   0  0  0  0  0  0  0  0  0  0  0  0
   39.4141   10.2671  -17.5419 C   0  0  0  0  0  0  0  0  0  0  0  0
   40.8156   12.1496  -16.7665 C   0  0  0  0  0  0  0  0  0  0  0  0
   42.1588   12.3593  -16.7283 C   0  0  0  0  0  0  0  0  0  0  0  0
   42.6832   13.0684  -15.6735 C   0  0  0  0  0  0  0  0  0  0  0  0
   44.0193   13.2799  -15.6308 F   0  0  0  0  0  0  0  0  0  0  0  0
   35.2442   12.9125  -14.2107 C   0  0  0  0  0  0  0  0  0  0  0  0
   34.5074   14.0992  -14.4089 N   0  0  0  0  0  0  0  0  0  0  0  0
   34.8472   12.1087  -13.3310 O   0  0  0  0  0  0  0  0  0  0  0  0
   34.3577   14.7439  -13.6189 H   0  0  0  0  0  0  0  0  0  0  0  0
   34.1246   14.3124  -15.3415 H   0  0  0  0  0  0  0  0  0  0  0  0
   42.8796   14.9425  -12.6516 C   0  0  0  0  0  0  0  0  0  0  0  0
   42.4179   14.3036  -13.5652 C   0  0  0  0  0  0  0  0  0  0  0  0
   46.3193   18.1112  -11.6121 C   0  0  0  0  0  0  0  0  0  0  0  0
   45.4571   16.9529  -11.5029 N   0  0  0  0  0  0  0  0  0  0  0  0
   45.7271   15.7572  -10.7364 C   0  0  0  0  0  0  0  0  0  0  0  0
   44.4602   14.9649  -10.7608 C   0  0  0  0  0  0  0  0  0  0  0  0
   43.4445   15.7467  -11.5439 C   0  0  0  0  0  0  0  0  0  0  0  0
   42.4416   16.2818  -10.7441 O   0  0  0  0  0  0  0  0  0  0  0  0
   44.2005   16.8509  -12.1587 C   0  0  0  0  0  0  0  0  0  0  0  0
   43.8205   17.5989  -13.1107 O   0  0  0  0  0  0  0  0  0  0  0  0
   41.9258   15.5058  -10.3863 H   0  0  0  0  0  0  0  0  0  0  0  0
 25 26  1  0  0  0
 26 27  1  0  0  0
 27 28  1  0  0  0
 28 29  1  0  0  0
 29 30  1  0  0  0
 29 23  1  0  0  0
 23 24  3  0  0  0
 24  1  1  0  0  0
  1  2  1  0  0  0
  2  3  2  0  0  0
  3  4  1  0  0  0
  4  5  1  0  0  0
  5  6  2  0  0  0
  6 18  1  0  0  0
 18 19  1  0  0  0
 18 20  2  0  0  0
  6  7  1  0  0  0
  7  8  1  0  0  0
  7  9  1  0  0  0
  9 10  1  0  0  0
 10 11  1  0  0  0
 11 12  1  0  0  0
 12 13  1  0  0  0
 12 14  1  0  0  0
 14 15  2  0  0  0
 15 16  1  0  0  0
 16 17  1  0  0  0
 29 31  1  0  0  0
 31 32  2  0  0  0
 31 26  1  0  0  0
 16  1  2  0  0  0
 14  3  1  0  0  0
  9  4  2  0  0  0
 13 10  1  0  0  0
 30 33  1  0  0  0
 19 21  1  0  0  0
 19 22  1  0  0  0
M  END
> <minimizedAffinity>
-8.67606

> <CNNscore>
0.4292377532

> <CNNaffinity>
6.8407335281

> <CNN_VS>
2.9363009930

> <CNNaffinity_variance>
0.3722351491

$$$$
[H]O[C@@]1(C#Cc2c([H])c3c(c([H])c2F)C2([H])C([H])([H])C([H])(c4c-3nc(C(=O)N([H])[H])n4C([H])([H])[H])C2([H])[H])C(=O)N(C([H])([H])[H])C([H])([H])C1([H])[H]


 33 37  0  0  0  0  0  0  0  0999 V2000
   40.6726   13.4705  -15.0591 C   0  0  0  0  0  0  0  0  0  0  0  0
   39.3243   13.1805  -15.0686 C   0  0  0  0  0  0  0  0  0  0  0  0
   38.8223   12.3829  -16.0471 C   0  0  0  0  0  0  0  0  0  0  0  0
   37.3657   12.1533  -15.9386 C   0  0  0  0  0  0  0  0  0  0  0  0
   36.5614   12.6516  -14.9905 N   0  0  0  0  0  0  0  0  0  0  0  0
   35.3087   12.2228  -15.2255 C   0  0  0  0  0  0  0  0  0  0  0  0
   35.3325   11.4469  -16.3344 N   0  0  0  0  0  0  0  0  0  0  0  0
   34.1906   10.7734  -16.9478 C   0  0  0  0  0  0  0  0  0  0  0  0
   36.5715   11.3845  -16.7932 C   0  0  0  0  0  0  0  0  0  0  0  0
   37.0827   10.6419  -18.0024 C   0  0  0  0  0  0  0  0  0  0  0  0
   37.9962   11.5571  -18.8306 C   0  0  0  0  0  0  0  0  0  0  0  0
   39.2457   10.9712  -18.1686 C   0  0  0  0  0  0  0  0  0  0  0  0
   38.3545    9.8649  -17.6453 C   0  0  0  0  0  0  0  0  0  0  0  0
   39.6672   11.8662  -17.0283 C   0  0  0  0  0  0  0  0  0  0  0  0
   40.9981   12.1460  -17.0283 C   0  0  0  0  0  0  0  0  0  0  0  0
   41.4996   12.9538  -16.0352 C   0  0  0  0  0  0  0  0  0  0  0  0
   42.8234   13.2352  -16.0306 F   0  0  0  0  0  0  0  0  0  0  0  0
   34.0994   12.5252  -14.4359 C   0  0  0  0  0  0  0  0  0  0  0  0
   33.3059   13.6623  -14.6966 N   0  0  0  0  0  0  0  0  0  0  0  0
   33.7510   11.7612  -13.5019 O   0  0  0  0  0  0  0  0  0  0  0  0
   33.1361   14.3480  -13.9462 H   0  0  0  0  0  0  0  0  0  0  0  0
   32.9024   13.7987  -15.6348 H   0  0  0  0  0  0  0  0  0  0  0  0
   41.6276   15.0197  -13.1290 C   0  0  0  0  0  0  0  0  0  0  0  0
   41.1997   14.3204  -14.0144 C   0  0  0  0  0  0  0  0  0  0  0  0
   43.4873   14.8092   -8.7188 C   0  0  0  0  0  0  0  0  0  0  0  0
   42.6524   15.2271   -9.8258 N   0  0  0  0  0  0  0  0  0  0  0  0
   41.3858   15.9169   -9.7266 C   0  0  0  0  0  0  0  0  0  0  0  0
   41.0331   16.3201  -11.1217 C   0  0  0  0  0  0  0  0  0  0  0  0
   42.1419   15.8635  -12.0261 C   0  0  0  0  0  0  0  0  0  0  0  0
   42.9115   16.9150  -12.5097 O   0  0  0  0  0  0  0  0  0  0  0  0
   42.9911   15.0009  -11.1873 C   0  0  0  0  0  0  0  0  0  0  0  0
   43.8798   14.1868  -11.5842 O   0  0  0  0  0  0  0  0  0  0  0  0
   42.3147   17.4458  -13.1082 H   0  0  0  0  0  0  0  0  0  0  0  0
 25 26  1  0  0  0
 26 27  1  0  0  0
 27 28  1  0  0  0
 28 29  1  0  0  0
 29 30  1  0  0  0
 29 23  1  0  0  0
 23 24  3  0  0  0
 24  1  1  0  0  0
  1  2  1  0  0  0
  2  3  2  0  0  0
  3  4  1  0  0  0
  4  5  1  0  0  0
  5  6  2  0  0  0
  6 18  1  0  0  0
 18 19  1  0  0  0
 18 20  2  0  0  0
  6  7  1  0  0  0
  7  8  1  0  0  0
  7  9  1  0  0  0
  9 10  1  0  0  0
 10 11  1  0  0  0
 11 12  1  0  0  0
 12 13  1  0  0  0
 12 14  1  0  0  0
 14 15  2  0  0  0
 15 16  1  0  0  0
 16 17  1  0  0  0
 29 31  1  0  0  0
 31 32  2  0  0  0
 31 26  1  0  0  0
 16  1  2  0  0  0
 14  3  1  0  0  0
  9  4  2  0  0  0
 13 10  1  0  0  0
 30 33  1  0  0  0
 19 21  1  0  0  0
 19 22  1  0  0  0
M  END
> <minimizedAffinity>
-8.83151

> <CNNscore>
0.3929881155

> <CNNaffinity>
7.1120605469

> <CNN_VS>
2.7949552536

> <CNNaffinity_variance>
0.2526355982

$$$$
[H]O[C@@]1(C#Cc2c([H])c3c(c([H])c2F)C2([H])C([H])([H])C([H])(c4c-3nc(C(=O)N([H])[H])n4C([H])([H])[H])C2([H])[H])C(=O)N(C([H])([H])[H])C([H])([H])C1([H])[H]


 33 37  0  0  0  0  0  0  0  0999 V2000
   40.9103   12.3674  -16.4865 C   0  0  0  0  0  0  0  0  0  0  0  0
   39.7195   12.5748  -15.8222 C   0  0  0  0  0  0  0  0  0  0  0  0
   38.5737   12.0524  -16.3319 C   0  0  0  0  0  0  0  0  0  0  0  0
   37.3728   12.3491  -15.5221 C   0  0  0  0  0  0  0  0  0  0  0  0
   37.3485   13.0562  -14.3848 N   0  0  0  0  0  0  0  0  0  0  0  0
   36.0794   13.1103  -13.9433 C   0  0  0  0  0  0  0  0  0  0  0  0
   35.3025   12.4278  -14.8168 N   0  0  0  0  0  0  0  0  0  0  0  0
   33.8580   12.2315  -14.7243 C   0  0  0  0  0  0  0  0  0  0  0  0
   36.0605   11.9515  -15.7905 C   0  0  0  0  0  0  0  0  0  0  0  0
   35.6399   11.1320  -16.9848 C   0  0  0  0  0  0  0  0  0  0  0  0
   36.2780   11.7010  -18.2604 C   0  0  0  0  0  0  0  0  0  0  0  0
   37.4169   10.6808  -18.1903 C   0  0  0  0  0  0  0  0  0  0  0  0
   36.5852    9.9393  -17.1653 C   0  0  0  0  0  0  0  0  0  0  0  0
   38.6085   11.3152  -17.5148 C   0  0  0  0  0  0  0  0  0  0  0  0
   39.7773   11.1049  -18.1777 C   0  0  0  0  0  0  0  0  0  0  0  0
   40.9331   11.6363  -17.6563 C   0  0  0  0  0  0  0  0  0  0  0  0
   42.0988   11.4299  -18.3122 F   0  0  0  0  0  0  0  0  0  0  0  0
   35.5859   13.7852  -12.7275 C   0  0  0  0  0  0  0  0  0  0  0  0
   34.7874   14.9465  -12.7935 N   0  0  0  0  0  0  0  0  0  0  0  0
   35.8741   13.3281  -11.5937 O   0  0  0  0  0  0  0  0  0  0  0  0
   35.0982   15.8062  -12.3177 H   0  0  0  0  0  0  0  0  0  0  0  0
   33.8999   14.9264  -13.3167 H   0  0  0  0  0  0  0  0  0  0  0  0
   43.1305   13.3960  -15.4619 C   0  0  0  0  0  0  0  0  0  0  0  0
   42.1259   12.9267  -15.9378 C   0  0  0  0  0  0  0  0  0  0  0  0
   47.0905   12.2283  -13.0314 C   0  0  0  0  0  0  0  0  0  0  0  0
   45.8851   12.9351  -13.4114 N   0  0  0  0  0  0  0  0  0  0  0  0
   45.0920   13.7904  -12.5573 C   0  0  0  0  0  0  0  0  0  0  0  0
   44.0977   14.4516  -13.4559 C   0  0  0  0  0  0  0  0  0  0  0  0
   44.3531   13.9712  -14.8559 C   0  0  0  0  0  0  0  0  0  0  0  0
   44.9087   14.9513  -15.6699 O   0  0  0  0  0  0  0  0  0  0  0  0
   45.3195   12.8692  -14.7135 C   0  0  0  0  0  0  0  0  0  0  0  0
   45.6163   11.9968  -15.5859 O   0  0  0  0  0  0  0  0  0  0  0  0
   44.2081   15.6537  -15.7795 H   0  0  0  0  0  0  0  0  0  0  0  0
 25 26  1  0  0  0
 26 27  1  0  0  0
 27 28  1  0  0  0
 28 29  1  0  0  0
 29 30  1  0  0  0
 29 23  1  0  0  0
 23 24  3  0  0  0
 24  1  1  0  0  0
  1  2  1  0  0  0
  2  3  2  0  0  0
  3  4  1  0  0  0
  4  5  1  0  0  0
  5  6  2  0  0  0
  6 18  1  0  0  0
 18 19  1  0  0  0
 18 20  2  0  0  0
  6  7  1  0  0  0
  7  8  1  0  0  0
  7  9  1  0  0  0
  9 10  1  0  0  0
 10 11  1  0  0  0
 11 12  1  0  0  0
 12 13  1  0  0  0
 12 14  1  0  0  0
 14 15  2  0  0  0
 15 16  1  0  0  0
 16 17  1  0  0  0
 29 31  1  0  0  0
 31 32  2  0  0  0
 31 26  1  0  0  0
 16  1  2  0  0  0
 14  3  1  0  0  0
  9  4  2  0  0  0
 13 10  1  0  0  0
 30 33  1  0  0  0
 19 21  1  0  0  0
 19 22  1  0  0  0
M  END
> <minimizedAffinity>
-10.46331

> <CNNscore>
0.3639008999

> <CNNaffinity>
7.0239014626

> <CNN_VS>
2.5560040474

> <CNNaffinity_variance>
0.1395147741

$$$$
[H]O[C@@]1(C#Cc2c([H])c3c(c([H])c2F)C2([H])C([H])([H])C([H])(c4c-3nc(C(=O)N([H])[H])n4C([H])([H])[H])C2([H])[H])C(=O)N(C([H])([H])[H])C([H])([H])C1([H])[H]


 33 37  0  0  0  0  0  0  0  0999 V2000
   35.3789   14.2519  -12.9750 C   0  0  0  0  0  0  0  0  0  0  0  0
   36.2355   13.7189  -13.9154 C   0  0  0  0  0  0  0  0  0  0  0  0
   35.7582   12.8219  -14.8172 C   0  0  0  0  0  0  0  0  0  0  0  0
   36.7803   12.3311  -15.7661 C   0  0  0  0  0  0  0  0  0  0  0  0
   38.0685   12.6971  -15.7903 N   0  0  0  0  0  0  0  0  0  0  0  0
   38.6799   12.0396  -16.7915 C   0  0  0  0  0  0  0  0  0  0  0  0
   37.7607   11.2537  -17.3994 N   0  0  0  0  0  0  0  0  0  0  0  0
   37.9919   10.3685  -18.5381 C   0  0  0  0  0  0  0  0  0  0  0  0
   36.5927   11.4082  -16.7983 C   0  0  0  0  0  0  0  0  0  0  0  0
   35.2800   10.7403  -17.1235 C   0  0  0  0  0  0  0  0  0  0  0  0
   34.6275   10.2151  -15.8364 C   0  0  0  0  0  0  0  0  0  0  0  0
   33.7543   11.4672  -15.7240 C   0  0  0  0  0  0  0  0  0  0  0  0
   34.1528   11.7782  -17.1511 C   0  0  0  0  0  0  0  0  0  0  0  0
   34.4153   12.4487  -14.7866 C   0  0  0  0  0  0  0  0  0  0  0  0
   33.5622   12.9683  -13.8636 C   0  0  0  0  0  0  0  0  0  0  0  0
   34.0518   13.8755  -12.9539 C   0  0  0  0  0  0  0  0  0  0  0  0
   33.2070   14.3955  -12.0332 F   0  0  0  0  0  0  0  0  0  0  0  0
   40.0989   12.1338  -17.1850 C   0  0  0  0  0  0  0  0  0  0  0  0
   40.4855   12.4541  -18.5035 N   0  0  0  0  0  0  0  0  0  0  0  0
   41.0017   11.9264  -16.3367 O   0  0  0  0  0  0  0  0  0  0  0  0
   41.0915   11.8063  -19.0283 H   0  0  0  0  0  0  0  0  0  0  0  0
   40.1594   13.3327  -18.9316 H   0  0  0  0  0  0  0  0  0  0  0  0
   36.3150   16.0174  -11.2303 C   0  0  0  0  0  0  0  0  0  0  0  0
   35.8943   15.2062  -12.0182 C   0  0  0  0  0  0  0  0  0  0  0  0
   39.3902   16.6447   -7.6105 C   0  0  0  0  0  0  0  0  0  0  0  0
   38.1655   16.6990   -8.3814 N   0  0  0  0  0  0  0  0  0  0  0  0
   36.8342   16.9014   -7.8555 C   0  0  0  0  0  0  0  0  0  0  0  0
   35.9535   17.1007   -9.0463 C   0  0  0  0  0  0  0  0  0  0  0  0
   36.8170   17.0299  -10.2733 C   0  0  0  0  0  0  0  0  0  0  0  0
   36.9863   18.2658  -10.8862 O   0  0  0  0  0  0  0  0  0  0  0  0
   38.1261   16.5546   -9.7947 C   0  0  0  0  0  0  0  0  0  0  0  0
   39.0742   16.0913  -10.4995 O   0  0  0  0  0  0  0  0  0  0  0  0
   36.0896   18.5290  -11.2367 H   0  0  0  0  0  0  0  0  0  0  0  0
 25 26  1  0  0  0
 26 27  1  0  0  0
 27 28  1  0  0  0
 28 29  1  0  0  0
 29 30  1  0  0  0
 29 23  1  0  0  0
 23 24  3  0  0  0
 24  1  1  0  0  0
  1  2  1  0  0  0
  2  3  2  0  0  0
  3  4  1  0  0  0
  4  5  1  0  0  0
  5  6  2  0  0  0
  6 18  1  0  0  0
 18 19  1  0  0  0
 18 20  2  0  0  0
  6  7  1  0  0  0
  7  8  1  0  0  0
  7  9  1  0  0  0
  9 10  1  0  0  0
 10 11  1  0  0  0
 11 12  1  0  0  0
 12 13  1  0  0  0
 12 14  1  0  0  0
 14 15  2  0  0  0
 15 16  1  0  0  0
 16 17  1  0  0  0
 29 31  1  0  0  0
 31 32  2  0  0  0
 31 26  1  0  0  0
 16  1  2  0  0  0
 14  3  1  0  0  0
  9  4  2  0  0  0
 13 10  1  0  0  0
 30 33  1  0  0  0
 19 21  1  0  0  0
 19 22  1  0  0  0
M  END
> <minimizedAffinity>
-8.42181

> <CNNscore>
0.3076985180

> <CNNaffinity>
6.7640371323

> <CNN_VS>
2.0812842846

> <CNNaffinity_variance>
0.1620254219

$$$$
[H]O[C@@]1(C#Cc2c([H])c3c(c([H])c2F)C2([H])C([H])([H])C([H])(c4c-3nc(C(=O)N([H])[H])n4C([H])([H])[H])C2([H])[H])C(=O)N(C([H])([H])[H])C([H])([H])C1([H])[H]


 33 37  0  0  0  0  0  0  0  0999 V2000
   40.9723   12.5005  -16.0211 C   0  0  0  0  0  0  0  0  0  0  0  0
   39.7049   12.5752  -15.4820 C   0  0  0  0  0  0  0  0  0  0  0  0
   38.6592   12.0400  -16.1644 C   0  0  0  0  0  0  0  0  0  0  0  0
   37.3600   12.1890  -15.4747 C   0  0  0  0  0  0  0  0  0  0  0  0
   37.1644   12.7811  -14.2893 N   0  0  0  0  0  0  0  0  0  0  0  0
   35.8540   12.7204  -13.9934 C   0  0  0  0  0  0  0  0  0  0  0  0
   35.2246   12.0820  -15.0076 N   0  0  0  0  0  0  0  0  0  0  0  0
   33.7951   11.7960  -15.0994 C   0  0  0  0  0  0  0  0  0  0  0  0
   36.1145   11.7451  -15.9263 C   0  0  0  0  0  0  0  0  0  0  0  0
   35.8827   11.0215  -17.2292 C   0  0  0  0  0  0  0  0  0  0  0  0
   36.6164   11.7457  -18.3673 C   0  0  0  0  0  0  0  0  0  0  0  0
   37.8067   10.7897  -18.2581 C   0  0  0  0  0  0  0  0  0  0  0  0
   36.9200    9.9073  -17.4054 C   0  0  0  0  0  0  0  0  0  0  0  0
   38.8723   11.4230  -17.3964 C   0  0  0  0  0  0  0  0  0  0  0  0
   40.1178   11.3439  -17.9368 C   0  0  0  0  0  0  0  0  0  0  0  0
   41.1716   11.8876  -17.2410 C   0  0  0  0  0  0  0  0  0  0  0  0
   42.4131   11.8116  -17.7744 F   0  0  0  0  0  0  0  0  0  0  0  0
   35.1866   13.2464  -12.7871 C   0  0  0  0  0  0  0  0  0  0  0  0
   33.8803   13.7775  -12.8315 N   0  0  0  0  0  0  0  0  0  0  0  0
   35.7818   13.2293  -11.6812 O   0  0  0  0  0  0  0  0  0  0  0  0
   33.7117   14.7428  -12.5123 H   0  0  0  0  0  0  0  0  0  0  0  0
   33.1050   13.1967  -13.1826 H   0  0  0  0  0  0  0  0  0  0  0  0
   43.0168   13.5343  -14.6838 C   0  0  0  0  0  0  0  0  0  0  0  0
   42.0804   13.0727  -15.2888 C   0  0  0  0  0  0  0  0  0  0  0  0
   44.6375   17.4938  -12.5278 C   0  0  0  0  0  0  0  0  0  0  0  0
   44.6097   16.3177  -13.3722 N   0  0  0  0  0  0  0  0  0  0  0  0
   45.4767   16.0552  -14.4989 C   0  0  0  0  0  0  0  0  0  0  0  0
   45.2097   14.6391  -14.8950 C   0  0  0  0  0  0  0  0  0  0  0  0
   44.1806   14.0845  -13.9519 C   0  0  0  0  0  0  0  0  0  0  0  0
   44.7076   13.1529  -13.0652 O   0  0  0  0  0  0  0  0  0  0  0  0
   43.6954   15.2456  -13.1869 C   0  0  0  0  0  0  0  0  0  0  0  0
   42.6458   15.3069  -12.4764 O   0  0  0  0  0  0  0  0  0  0  0  0
   44.9798   12.3661  -13.6157 H   0  0  0  0  0  0  0  0  0  0  0  0
 25 26  1  0  0  0
 26 27  1  0  0  0
 27 28  1  0  0  0
 28 29  1  0  0  0
 29 30  1  0  0  0
 29 23  1  0  0  0
 23 24  3  0  0  0
 24  1  1  0  0  0
  1  2  1  0  0  0
  2  3  2  0  0  0
  3  4  1  0  0  0
  4  5  1  0  0  0
  5  6  2  0  0  0
  6 18  1  0  0  0
 18 19  1  0  0  0
 18 20  2  0  0  0
  6  7  1  0  0  0
  7  8  1  0  0  0
  7  9  1  0  0  0
  9 10  1  0  0  0
 10 11  1  0  0  0
 11 12  1  0  0  0
 12 13  1  0  0  0
 12 14  1  0  0  0
 14 15  2  0  0  0
 15 16  1  0  0  0
 16 17  1  0  0  0
 29 31  1  0  0  0
 31 32  2  0  0  0
 31 26  1  0  0  0
 16  1  2  0  0  0
 14  3  1  0  0  0
  9  4  2  0  0  0
 13 10  1  0  0  0
 30 33  1  0  0  0
 19 21  1  0  0  0
 19 22  1  0  0  0
M  END
> <minimizedAffinity>
-9.70243

> <CNNscore>
0.2500997484

> <CNNaffinity>
6.5555257797

> <CNN_VS>
1.6395353079

> <CNNaffinity_variance>
0.1464653015

$$$$
[H]O[C@@]1(C#Cc2c([H])c3c(c([H])c2F)C2([H])C([H])([H])C([H])(c4c-3nc(C(=O)N([H])[H])n4C([H])([H])[H])C2([H])[H])C(=O)N(C([H])([H])[H])C([H])([H])C1([H])[H]


 33 37  0  0  0  0  0  0  0  0999 V2000
   38.9143   15.0693  -12.7219 C   0  0  0  0  0  0  0  0  0  0  0  0
   38.2405   14.2069  -13.5613 C   0  0  0  0  0  0  0  0  0  0  0  0
   38.8932   13.6669  -14.6234 C   0  0  0  0  0  0  0  0  0  0  0  0
   38.0556   12.7618  -15.4389 C   0  0  0  0  0  0  0  0  0  0  0  0
   36.7717   12.4589  -15.2064 N   0  0  0  0  0  0  0  0  0  0  0  0
   36.3550   11.6074  -16.1602 C   0  0  0  0  0  0  0  0  0  0  0  0
   37.3927   11.3764  -16.9981 N   0  0  0  0  0  0  0  0  0  0  0  0
   37.3829   10.5105  -18.1744 C   0  0  0  0  0  0  0  0  0  0  0  0
   38.4440   12.0653  -16.5862 C   0  0  0  0  0  0  0  0  0  0  0  0
   39.8203   12.1242  -17.2004 C   0  0  0  0  0  0  0  0  0  0  0  0
   40.2865   13.5839  -17.3000 C   0  0  0  0  0  0  0  0  0  0  0  0
   41.0737   13.4607  -15.9932 C   0  0  0  0  0  0  0  0  0  0  0  0
   40.8897   11.9629  -16.1146 C   0  0  0  0  0  0  0  0  0  0  0  0
   40.2304   13.9855  -14.8563 C   0  0  0  0  0  0  0  0  0  0  0  0
   40.9040   14.8347  -14.0349 C   0  0  0  0  0  0  0  0  0  0  0  0
   40.2375   15.3776  -12.9619 C   0  0  0  0  0  0  0  0  0  0  0  0
   40.9034   16.2232  -12.1414 F   0  0  0  0  0  0  0  0  0  0  0  0
   35.0123   11.0116  -16.2994 C   0  0  0  0  0  0  0  0  0  0  0  0
   33.8550   11.6680  -15.8300 N   0  0  0  0  0  0  0  0  0  0  0  0
   34.8759    9.8901  -16.8481 O   0  0  0  0  0  0  0  0  0  0  0  0
   33.2442   11.1972  -15.1462 H   0  0  0  0  0  0  0  0  0  0  0  0
   33.6291   12.6126  -16.1740 H   0  0  0  0  0  0  0  0  0  0  0  0
   37.6315   16.1354  -10.6592 C   0  0  0  0  0  0  0  0  0  0  0  0
   38.2128   15.6402  -11.5934 C   0  0  0  0  0  0  0  0  0  0  0  0
   38.0754   19.4976   -7.2752 C   0  0  0  0  0  0  0  0  0  0  0  0
   37.7774   18.2255   -7.8996 N   0  0  0  0  0  0  0  0  0  0  0  0
   37.6659   16.9503   -7.2277 C   0  0  0  0  0  0  0  0  0  0  0  0
   37.1331   15.9986   -8.2494 C   0  0  0  0  0  0  0  0  0  0  0  0
   36.9193   16.7648   -9.5235 C   0  0  0  0  0  0  0  0  0  0  0  0
   35.5749   16.9618   -9.8156 O   0  0  0  0  0  0  0  0  0  0  0  0
   37.5518   18.0748   -9.2946 C   0  0  0  0  0  0  0  0  0  0  0  0
   37.8545   18.9400  -10.1722 O   0  0  0  0  0  0  0  0  0  0  0  0
   35.1959   16.0591  -10.0100 H   0  0  0  0  0  0  0  0  0  0  0  0
 25 26  1  0  0  0
 26 27  1  0  0  0
 27 28  1  0  0  0
 28 29  1  0  0  0
 29 30  1  0  0  0
 29 23  1  0  0  0
 23 24  3  0  0  0
 24  1  1  0  0  0
  1  2  1  0  0  0
  2  3  2  0  0  0
  3  4  1  0  0  0
  4  5  1  0  0  0
  5  6  2  0  0  0
  6 18  1  0  0  0
 18 19  1  0  0  0
 18 20  2  0  0  0
  6  7  1  0  0  0
  7  8  1  0  0  0
  7  9  1  0  0  0
  9 10  1  0  0  0
 10 11  1  0  0  0
 11 12  1  0  0  0
 12 13  1  0  0  0
 12 14  1  0  0  0
 14 15  2  0  0  0
 15 16  1  0  0  0
 16 17  1  0  0  0
 29 31  1  0  0  0
 31 32  2  0  0  0
 31 26  1  0  0  0
 16  1  2  0  0  0
 14  3  1  0  0  0
  9  4  2  0  0  0
 13 10  1  0  0  0
 30 33  1  0  0  0
 19 21  1  0  0  0
 19 22  1  0  0  0
M  END
> <minimizedAffinity>
-9.08317

> <CNNscore>
0.1905214041

> <CNNaffinity>
6.4429903030

> <CNN_VS>
1.2275276184

> <CNNaffinity_variance>
0.0747727752

$$$$
[H]O[C@@]1(C#Cc2c([H])c3c(c([H])c2F)C2([H])C([H])([H])C([H])(c4c-3nc(C(=O)N([H])[H])n4C([H])([H])[H])C2([H])[H])C(=O)N(C([H])([H])[H])C([H])([H])C1([H])[H]


 33 37  0  0  0  0  0  0  0  0999 V2000
   36.4524   15.8779  -11.1935 C   0  0  0  0  0  0  0  0  0  0  0  0
   37.3749   15.3003  -12.0407 C   0  0  0  0  0  0  0  0  0  0  0  0
   36.9469   14.4497  -13.0096 C   0  0  0  0  0  0  0  0  0  0  0  0
   38.0372   13.9031  -13.8455 C   0  0  0  0  0  0  0  0  0  0  0  0
   39.3409   14.1811  -13.7146 N   0  0  0  0  0  0  0  0  0  0  0  0
   40.0191   13.4969  -14.6527 C   0  0  0  0  0  0  0  0  0  0  0  0
   39.1265   12.7831  -15.3780 N   0  0  0  0  0  0  0  0  0  0  0  0
   39.4288   11.8993  -16.5010 C   0  0  0  0  0  0  0  0  0  0  0  0
   37.9096   13.0087  -14.9113 C   0  0  0  0  0  0  0  0  0  0  0  0
   36.6021   12.4358  -15.3983 C   0  0  0  0  0  0  0  0  0  0  0  0
   35.7722   11.9392  -14.2056 C   0  0  0  0  0  0  0  0  0  0  0  0
   34.9762   13.2461  -14.1677 C   0  0  0  0  0  0  0  0  0  0  0  0
   35.5565   13.5481  -15.5330 C   0  0  0  0  0  0  0  0  0  0  0  0
   35.5877   14.1681  -13.1407 C   0  0  0  0  0  0  0  0  0  0  0  0
   34.6699   14.7322  -12.3106 C   0  0  0  0  0  0  0  0  0  0  0  0
   35.1098   15.5922  -11.3322 C   0  0  0  0  0  0  0  0  0  0  0  0
   34.2004   16.1562  -10.5035 F   0  0  0  0  0  0  0  0  0  0  0  0
   41.4771   13.4996  -14.8793 C   0  0  0  0  0  0  0  0  0  0  0  0
   42.3961   13.4370  -13.8106 N   0  0  0  0  0  0  0  0  0  0  0  0
   41.9316   13.5588  -16.0487 O   0  0  0  0  0  0  0  0  0  0  0  0
   43.1013   14.1806  -13.7009 H   0  0  0  0  0  0  0  0  0  0  0  0
   42.3554   12.6489  -13.1481 H   0  0  0  0  0  0  0  0  0  0  0  0
   37.2826   17.5414   -9.3012 C   0  0  0  0  0  0  0  0  0  0  0  0
   36.9156   16.7823  -10.1644 C   0  0  0  0  0  0  0  0  0  0  0  0
   35.6265   20.2013   -5.6769 C   0  0  0  0  0  0  0  0  0  0  0  0
   36.3688   19.8268   -6.8626 N   0  0  0  0  0  0  0  0  0  0  0  0
   36.9273   20.7325   -7.8414 C   0  0  0  0  0  0  0  0  0  0  0  0
   37.7762   19.8891   -8.7366 C   0  0  0  0  0  0  0  0  0  0  0  0
   37.7099   18.4751   -8.2342 C   0  0  0  0  0  0  0  0  0  0  0  0
   38.8951   18.0572   -7.6406 O   0  0  0  0  0  0  0  0  0  0  0  0
   36.6454   18.4786   -7.2166 C   0  0  0  0  0  0  0  0  0  0  0  0
   36.0584   17.4678   -6.7228 O   0  0  0  0  0  0  0  0  0  0  0  0
   39.5759   18.0229   -8.3697 H   0  0  0  0  0  0  0  0  0  0  0  0
 25 26  1  0  0  0
 26 27  1  0  0  0
 27 28  1  0  0  0
 28 29  1  0  0  0
 29 30  1  0  0  0
 29 23  1  0  0  0
 23 24  3  0  0  0
 24  1  1  0  0  0
  1  2  1  0  0  0
  2  3  2  0  0  0
  3  4  1  0  0  0
  4  5  1  0  0  0
  5  6  2  0  0  0
  6 18  1  0  0  0
 18 19  1  0  0  0
 18 20  2  0  0  0
  6  7  1  0  0  0
  7  8  1  0  0  0
  7  9  1  0  0  0
  9 10  1  0  0  0
 10 11  1  0  0  0
 11 12  1  0  0  0
 12 13  1  0  0  0
 12 14  1  0  0  0
 14 15  2  0  0  0
 15 16  1  0  0  0
 16 17  1  0  0  0
 29 31  1  0  0  0
 31 32  2  0  0  0
 31 26  1  0  0  0
 16  1  2  0  0  0
 14  3  1  0  0  0
  9  4  2  0  0  0
 13 10  1  0  0  0
 30 33  1  0  0  0
 19 21  1  0  0  0
 19 22  1  0  0  0
M  END
> <minimizedAffinity>
-8.22449

> <CNNscore>
0.1837563664

> <CNNaffinity>
6.0086598396

> <CNN_VS>
1.1041295528

> <CNNaffinity_variance>
0.1379343271

$$$$
[H]O[C@]1(C#Cc2c([H])c([H])c([H])c(-c3nc(C(=O)N([H])[H])n4c([H])c([H])c([H])c([H])c34)c2[H])C(=O)N(C([H])([H])[H])C([H])([H])C1([H])[H]


 31 34  0  0  0  0  0  0  0  0999 V2000
   35.8027   13.3937  -12.8563 C   0  0  0  0  0  0  0  0  0  0  0  0
   34.5734   12.9264  -13.2717 C   0  0  0  0  0  0  0  0  0  0  0  0
   34.3919   12.2758  -14.4716 C   0  0  0  0  0  0  0  0  0  0  0  0
   35.4604   12.0741  -15.3009 C   0  0  0  0  0  0  0  0  0  0  0  0
   36.7121   12.5158  -14.9446 C   0  0  0  0  0  0  0  0  0  0  0  0
   36.8583   13.1628  -13.7368 C   0  0  0  0  0  0  0  0  0  0  0  0
   37.8711   12.2970  -15.8201 C   0  0  0  0  0  0  0  0  0  0  0  0
   37.9010   11.6911  -16.9971 N   0  0  0  0  0  0  0  0  0  0  0  0
   39.1724   11.6987  -17.4984 C   0  0  0  0  0  0  0  0  0  0  0  0
   39.9345   12.3264  -16.6014 N   0  0  0  0  0  0  0  0  0  0  0  0
   41.2453   12.6235  -16.5679 C   0  0  0  0  0  0  0  0  0  0  0  0
   41.8436   13.2961  -15.5246 C   0  0  0  0  0  0  0  0  0  0  0  0
   41.0567   13.6815  -14.4660 C   0  0  0  0  0  0  0  0  0  0  0  0
   39.6926   13.3892  -14.4684 C   0  0  0  0  0  0  0  0  0  0  0  0
   39.1528   12.7118  -15.5437 C   0  0  0  0  0  0  0  0  0  0  0  0
   39.5550   11.1150  -18.7755 C   0  0  0  0  0  0  0  0  0  0  0  0
   38.6639   10.7345  -19.8019 N   0  0  0  0  0  0  0  0  0  0  0  0
   40.7926   10.9149  -19.0252 O   0  0  0  0  0  0  0  0  0  0  0  0
   38.4851    9.7462  -20.0106 H   0  0  0  0  0  0  0  0  0  0  0  0
   38.1966   11.4965  -20.3371 H   0  0  0  0  0  0  0  0  0  0  0  0
   36.1457   14.6638  -10.5538 C   0  0  0  0  0  0  0  0  0  0  0  0
   35.9942   14.0734  -11.6034 C   0  0  0  0  0  0  0  0  0  0  0  0
   36.7538   18.9081   -8.1514 C   0  0  0  0  0  0  0  0  0  0  0  0
   36.2609   17.5916   -8.5137 N   0  0  0  0  0  0  0  0  0  0  0  0
   35.2014   16.8791   -7.8191 C   0  0  0  0  0  0  0  0  0  0  0  0
   34.9893   15.6243   -8.6043 C   0  0  0  0  0  0  0  0  0  0  0  0
   36.3226   15.4011   -9.2936 C   0  0  0  0  0  0  0  0  0  0  0  0
   37.2315   14.7428   -8.4935 O   0  0  0  0  0  0  0  0  0  0  0  0
   36.7335   16.7922   -9.6009 C   0  0  0  0  0  0  0  0  0  0  0  0
   37.3603   17.2539  -10.5774 O   0  0  0  0  0  0  0  0  0  0  0  0
   37.4579   13.8632   -8.8821 H   0  0  0  0  0  0  0  0  0  0  0  0
 23 24  1  0  0  0
 24 25  1  0  0  0
 25 26  1  0  0  0
 26 27  1  0  0  0
 27 28  1  0  0  0
 27 21  1  0  0  0
 21 22  3  0  0  0
 22  1  1  0  0  0
  1  2  2  0  0  0
  2  3  1  0  0  0
  3  4  2  0  0  0
  4  5  1  0  0  0
  5  6  2  0  0  0
  5  7  1  0  0  0
  7  8  1  0  0  0
  8  9  2  0  0  0
  9 16  1  0  0  0
 16 17  1  0  0  0
 16 18  2  0  0  0
  9 10  1  0  0  0
 10 11  1  0  0  0
 11 12  2  0  0  0
 12 13  1  0  0  0
 13 14  2  0  0  0
 14 15  1  0  0  0
 27 29  1  0  0  0
 29 30  2  0  0  0
 29 24  1  0  0  0
  6  1  1  0  0  0
 15  7  2  0  0  0
 15 10  1  0  0  0
 28 31  1  0  0  0
 17 19  1  0  0  0
 17 20  1  0  0  0
M  END
> <minimizedAffinity>
-8.97626

> <CNNscore>
0.9477412105

> <CNNaffinity>
7.2130460739

> <CNN_VS>
6.8361010551

> <CNNaffinity_variance>
0.1575607955

$$$$
[H]O[C@]1(C#Cc2c([H])c([H])c([H])c(-c3nc(C(=O)N([H])[H])n4c([H])c([H])c([H])c([H])c34)c2[H])C(=O)N(C([H])([H])[H])C([H])([H])C1([H])[H]


 31 34  0  0  0  0  0  0  0  0999 V2000
   41.0232   12.0902  -17.0285 C   0  0  0  0  0  0  0  0  0  0  0  0
   41.0636   11.5784  -18.3086 C   0  0  0  0  0  0  0  0  0  0  0  0
   39.9437   11.1084  -18.9571 C   0  0  0  0  0  0  0  0  0  0  0  0
   38.7315   11.1405  -18.3249 C   0  0  0  0  0  0  0  0  0  0  0  0
   38.6244   11.6385  -17.0484 C   0  0  0  0  0  0  0  0  0  0  0  0
   39.7651   12.1009  -16.4288 C   0  0  0  0  0  0  0  0  0  0  0  0
   37.3275   11.6893  -16.3606 C   0  0  0  0  0  0  0  0  0  0  0  0
   36.1518   11.2733  -16.8054 N   0  0  0  0  0  0  0  0  0  0  0  0
   35.1878   11.4897  -15.8613 C   0  0  0  0  0  0  0  0  0  0  0  0
   35.7950   12.0521  -14.8150 N   0  0  0  0  0  0  0  0  0  0  0  0
   35.3470   12.4722  -13.6191 C   0  0  0  0  0  0  0  0  0  0  0  0
   36.1610   13.0342  -12.6596 C   0  0  0  0  0  0  0  0  0  0  0  0
   37.4986   13.1702  -12.9435 C   0  0  0  0  0  0  0  0  0  0  0  0
   37.9969   12.7447  -14.1751 C   0  0  0  0  0  0  0  0  0  0  0  0
   37.1295   12.1897  -15.0950 C   0  0  0  0  0  0  0  0  0  0  0  0
   33.7830   11.1479  -16.0287 C   0  0  0  0  0  0  0  0  0  0  0  0
   32.9031   10.7690  -14.9921 N   0  0  0  0  0  0  0  0  0  0  0  0
   33.2667   11.1823  -17.1975 O   0  0  0  0  0  0  0  0  0  0  0  0
   32.5760    9.8011  -14.9004 H   0  0  0  0  0  0  0  0  0  0  0  0
   32.6007   11.5106  -14.3258 H   0  0  0  0  0  0  0  0  0  0  0  0
   43.1836   13.0072  -15.7938 C   0  0  0  0  0  0  0  0  0  0  0  0
   42.1919   12.5817  -16.3495 C   0  0  0  0  0  0  0  0  0  0  0  0
   45.8600   13.7427  -11.7378 C   0  0  0  0  0  0  0  0  0  0  0  0
   45.4919   13.3905  -13.0972 N   0  0  0  0  0  0  0  0  0  0  0  0
   46.3987   12.8345  -14.0877 C   0  0  0  0  0  0  0  0  0  0  0  0
   45.5507   12.5584  -15.2880 C   0  0  0  0  0  0  0  0  0  0  0  0
   44.3943   13.5303  -15.1432 C   0  0  0  0  0  0  0  0  0  0  0  0
   44.6859   14.7820  -15.6412 O   0  0  0  0  0  0  0  0  0  0  0  0
   44.1915   13.5323  -13.6744 C   0  0  0  0  0  0  0  0  0  0  0  0
   43.1437   13.6320  -13.0023 O   0  0  0  0  0  0  0  0  0  0  0  0
   44.1023   14.9905  -16.4106 H   0  0  0  0  0  0  0  0  0  0  0  0
 23 24  1  0  0  0
 24 25  1  0  0  0
 25 26  1  0  0  0
 26 27  1  0  0  0
 27 28  1  0  0  0
 27 21  1  0  0  0
 21 22  3  0  0  0
 22  1  1  0  0  0
  1  2  2  0  0  0
  2  3  1  0  0  0
  3  4  2  0  0  0
  4  5  1  0  0  0
  5  6  2  0  0  0
  5  7  1  0  0  0
  7  8  1  0  0  0
  8  9  2  0  0  0
  9 16  1  0  0  0
 16 17  1  0  0  0
 16 18  2  0  0  0
  9 10  1  0  0  0
 10 11  1  0  0  0
 11 12  2  0  0  0
 12 13  1  0  0  0
 13 14  2  0  0  0
 14 15  1  0  0  0
 27 29  1  0  0  0
 29 30  2  0  0  0
 29 24  1  0  0  0
  6  1  1  0  0  0
 15  7  2  0  0  0
 15 10  1  0  0  0
 28 31  1  0  0  0
 17 19  1  0  0  0
 17 20  1  0  0  0
M  END
> <minimizedAffinity>
-9.97875

> <CNNscore>
0.8018499613

> <CNNaffinity>
7.0449457169

> <CNN_VS>
5.6489896774

> <CNNaffinity_variance>
0.0721812397

$$$$
[H]O[C@]1(C#Cc2c([H])c([H])c([H])c(-c3nc(C(=O)N([H])[H])n4c([H])c([H])c([H])c([H])c34)c2[H])C(=O)N(C([H])([H])[H])C([H])([H])C1([H])[H]


 31 34  0  0  0  0  0  0  0  0999 V2000
   38.4529   14.9795  -12.1311 C   0  0  0  0  0  0  0  0  0  0  0  0
   39.6572   15.6446  -12.0346 C   0  0  0  0  0  0  0  0  0  0  0  0
   40.6528   15.5206  -12.9777 C   0  0  0  0  0  0  0  0  0  0  0  0
   40.4610   14.7102  -14.0623 C   0  0  0  0  0  0  0  0  0  0  0  0
   39.2826   14.0200  -14.2167 C   0  0  0  0  0  0  0  0  0  0  0  0
   38.3073   14.1671  -13.2544 C   0  0  0  0  0  0  0  0  0  0  0  0
   39.0580   13.1541  -15.3819 C   0  0  0  0  0  0  0  0  0  0  0  0
   39.9167   12.8343  -16.3376 N   0  0  0  0  0  0  0  0  0  0  0  0
   39.3252   11.9967  -17.2411 C   0  0  0  0  0  0  0  0  0  0  0  0
   38.0736   11.8029  -16.8221 N   0  0  0  0  0  0  0  0  0  0  0  0
   37.0511   11.0791  -17.3100 C   0  0  0  0  0  0  0  0  0  0  0  0
   35.8141   11.0120  -16.7066 C   0  0  0  0  0  0  0  0  0  0  0  0
   35.6197   11.7225  -15.5465 C   0  0  0  0  0  0  0  0  0  0  0  0
   36.6595   12.4841  -15.0128 C   0  0  0  0  0  0  0  0  0  0  0  0
   37.8760   12.5108  -15.6653 C   0  0  0  0  0  0  0  0  0  0  0  0
   39.9907   11.4547  -18.4165 C   0  0  0  0  0  0  0  0  0  0  0  0
   39.3440   10.9811  -19.5783 N   0  0  0  0  0  0  0  0  0  0  0  0
   41.2669   11.3857  -18.4356 O   0  0  0  0  0  0  0  0  0  0  0  0
   39.3089    9.9792  -19.7956 H   0  0  0  0  0  0  0  0  0  0  0  0
   38.9050   11.6889  -20.2042 H   0  0  0  0  0  0  0  0  0  0  0  0
   36.5371   15.1962  -10.3103 C   0  0  0  0  0  0  0  0  0  0  0  0
   37.4118   15.1077  -11.1471 C   0  0  0  0  0  0  0  0  0  0  0  0
   34.1899   17.7076   -6.7977 C   0  0  0  0  0  0  0  0  0  0  0  0
   34.4375   16.8765   -7.9619 N   0  0  0  0  0  0  0  0  0  0  0  0
   33.4071   16.3333   -8.8313 C   0  0  0  0  0  0  0  0  0  0  0  0
   34.1447   15.6307   -9.9260 C   0  0  0  0  0  0  0  0  0  0  0  0
   35.4781   15.2780   -9.2931 C   0  0  0  0  0  0  0  0  0  0  0  0
   35.4316   14.1027   -8.5747 O   0  0  0  0  0  0  0  0  0  0  0  0
   35.7215   16.4630   -8.4359 C   0  0  0  0  0  0  0  0  0  0  0  0
   36.7877   17.0413   -8.1384 O   0  0  0  0  0  0  0  0  0  0  0  0
   36.0218   13.4251   -8.9853 H   0  0  0  0  0  0  0  0  0  0  0  0
 23 24  1  0  0  0
 24 25  1  0  0  0
 25 26  1  0  0  0
 26 27  1  0  0  0
 27 28  1  0  0  0
 27 21  1  0  0  0
 21 22  3  0  0  0
 22  1  1  0  0  0
  1  2  2  0  0  0
  2  3  1  0  0  0
  3  4  2  0  0  0
  4  5  1  0  0  0
  5  6  2  0  0  0
  5  7  1  0  0  0
  7  8  1  0  0  0
  8  9  2  0  0  0
  9 16  1  0  0  0
 16 17  1  0  0  0
 16 18  2  0  0  0
  9 10  1  0  0  0
 10 11  1  0  0  0
 11 12  2  0  0  0
 12 13  1  0  0  0
 13 14  2  0  0  0
 14 15  1  0  0  0
 27 29  1  0  0  0
 29 30  2  0  0  0
 29 24  1  0  0  0
  6  1  1  0  0  0
 15  7  2  0  0  0
 15 10  1  0  0  0
 28 31  1  0  0  0
 17 19  1  0  0  0
 17 20  1  0  0  0
M  END
> <minimizedAffinity>
-8.74347

> <CNNscore>
0.7403606176

> <CNNaffinity>
6.7151985168

> <CNN_VS>
4.9716687202

> <CNNaffinity_variance>
0.2269988060

$$$$
[H]O[C@]1(C#Cc2c([H])c([H])c([H])c(-c3nc(C(=O)N([H])[H])n4c([H])c([H])c([H])c([H])c34)c2[H])C(=O)N(C([H])([H])[H])C([H])([H])C1([H])[H]


 31 34  0  0  0  0  0  0  0  0999 V2000
   35.9974   13.6749  -12.7098 C   0  0  0  0  0  0  0  0  0  0  0  0
   34.9733   12.9385  -13.2675 C   0  0  0  0  0  0  0  0  0  0  0  0
   35.1440   12.1578  -14.3888 C   0  0  0  0  0  0  0  0  0  0  0  0
   36.3706   12.0955  -14.9902 C   0  0  0  0  0  0  0  0  0  0  0  0
   37.4322   12.8060  -14.4832 C   0  0  0  0  0  0  0  0  0  0  0  0
   37.2265   13.5770  -13.3598 C   0  0  0  0  0  0  0  0  0  0  0  0
   38.7581   12.7405  -15.1121 C   0  0  0  0  0  0  0  0  0  0  0  0
   39.9034   13.2195  -14.6517 N   0  0  0  0  0  0  0  0  0  0  0  0
   40.9144   12.9477  -15.5302 C   0  0  0  0  0  0  0  0  0  0  0  0
   40.3678   12.2856  -16.5511 N   0  0  0  0  0  0  0  0  0  0  0  0
   40.8800   11.7731  -17.6836 C   0  0  0  0  0  0  0  0  0  0  0  0
   40.1239   11.1087  -18.6247 C   0  0  0  0  0  0  0  0  0  0  0  0
   38.7776   10.9643  -18.3898 C   0  0  0  0  0  0  0  0  0  0  0  0
   38.2134   11.4841  -17.2247 C   0  0  0  0  0  0  0  0  0  0  0  0
   39.0247   12.1403  -16.3204 C   0  0  0  0  0  0  0  0  0  0  0  0
   42.3028   13.3353  -15.3296 C   0  0  0  0  0  0  0  0  0  0  0  0
   43.2699   13.4737  -16.3485 N   0  0  0  0  0  0  0  0  0  0  0  0
   42.7186   13.5791  -14.1457 O   0  0  0  0  0  0  0  0  0  0  0  0
   44.0324   12.7956  -16.4525 H   0  0  0  0  0  0  0  0  0  0  0  0
   43.1774   14.2905  -16.9886 H   0  0  0  0  0  0  0  0  0  0  0  0
   35.6931   15.1789  -10.5469 C   0  0  0  0  0  0  0  0  0  0  0  0
   35.8211   14.4909  -11.5387 C   0  0  0  0  0  0  0  0  0  0  0  0
   36.5707   15.9042   -5.7658 C   0  0  0  0  0  0  0  0  0  0  0  0
   36.4515   16.1403   -7.1932 N   0  0  0  0  0  0  0  0  0  0  0  0
   36.8144   17.3768   -7.8656 C   0  0  0  0  0  0  0  0  0  0  0  0
   36.6019   17.1110   -9.3217 C   0  0  0  0  0  0  0  0  0  0  0  0
   35.5618   16.0062   -9.3381 C   0  0  0  0  0  0  0  0  0  0  0  0
   34.2737   16.4868   -9.2413 O   0  0  0  0  0  0  0  0  0  0  0  0
   35.9632   15.2042   -8.1573 C   0  0  0  0  0  0  0  0  0  0  0  0
   35.9179   13.9715   -7.9631 O   0  0  0  0  0  0  0  0  0  0  0  0
   33.7675   16.2822  -10.0647 H   0  0  0  0  0  0  0  0  0  0  0  0
 23 24  1  0  0  0
 24 25  1  0  0  0
 25 26  1  0  0  0
 26 27  1  0  0  0
 27 28  1  0  0  0
 27 21  1  0  0  0
 21 22  3  0  0  0
 22  1  1  0  0  0
  1  2  2  0  0  0
  2  3  1  0  0  0
  3  4  2  0  0  0
  4  5  1  0  0  0
  5  6  2  0  0  0
  5  7  1  0  0  0
  7  8  1  0  0  0
  8  9  2  0  0  0
  9 16  1  0  0  0
 16 17  1  0  0  0
 16 18  2  0  0  0
  9 10  1  0  0  0
 10 11  1  0  0  0
 11 12  2  0  0  0
 12 13  1  0  0  0
 13 14  2  0  0  0
 14 15  1  0  0  0
 27 29  1  0  0  0
 29 30  2  0  0  0
 29 24  1  0  0  0
  6  1  1  0  0  0
 15  7  2  0  0  0
 15 10  1  0  0  0
 28 31  1  0  0  0
 17 19  1  0  0  0
 17 20  1  0  0  0
M  END
> <minimizedAffinity>
-8.79448

> <CNNscore>
0.6462224722

> <CNNaffinity>
6.5109987259

> <CNN_VS>
4.2075538635

> <CNNaffinity_variance>
0.0866876617

$$$$
[H]O[C@]1(C#Cc2c([H])c([H])c([H])c(-c3nc(C(=O)N([H])[H])n4c([H])c([H])c([H])c([H])c34)c2[H])C(=O)N(C([H])([H])[H])C([H])([H])C1([H])[H]


 31 34  0  0  0  0  0  0  0  0999 V2000
   40.9525   14.1866  -14.0348 C   0  0  0  0  0  0  0  0  0  0  0  0
   40.5208   15.0793  -13.0763 C   0  0  0  0  0  0  0  0  0  0  0  0
   39.1897   15.2591  -12.7734 C   0  0  0  0  0  0  0  0  0  0  0  0
   38.2400   14.5332  -13.4378 C   0  0  0  0  0  0  0  0  0  0  0  0
   38.6054   13.6270  -14.4042 C   0  0  0  0  0  0  0  0  0  0  0  0
   39.9461   13.4719  -14.6823 C   0  0  0  0  0  0  0  0  0  0  0  0
   37.5973   12.8326  -15.1187 C   0  0  0  0  0  0  0  0  0  0  0  0
   36.3066   12.7180  -14.8466 N   0  0  0  0  0  0  0  0  0  0  0  0
   35.7061   11.8895  -15.7526 C   0  0  0  0  0  0  0  0  0  0  0  0
   36.6583   11.4907  -16.5974 N   0  0  0  0  0  0  0  0  0  0  0  0
   36.6429   10.6833  -17.6723 C   0  0  0  0  0  0  0  0  0  0  0  0
   37.7629   10.4000  -18.4236 C   0  0  0  0  0  0  0  0  0  0  0  0
   38.9547   10.9744  -18.0519 C   0  0  0  0  0  0  0  0  0  0  0  0
   39.0062   11.8173  -16.9415 C   0  0  0  0  0  0  0  0  0  0  0  0
   37.8487   12.0614  -16.2293 C   0  0  0  0  0  0  0  0  0  0  0  0
   34.2914   11.5482  -15.7414 C   0  0  0  0  0  0  0  0  0  0  0  0
   33.4541   11.5634  -14.6052 N   0  0  0  0  0  0  0  0  0  0  0  0
   33.7240   11.2005  -16.8328 O   0  0  0  0  0  0  0  0  0  0  0  0
   33.1200   10.6918  -14.1800 H   0  0  0  0  0  0  0  0  0  0  0  0
   33.1904   12.4937  -14.2172 H   0  0  0  0  0  0  0  0  0  0  0  0
   43.5183   13.8288  -14.6019 C   0  0  0  0  0  0  0  0  0  0  0  0
   42.3424   13.9974  -14.3526 C   0  0  0  0  0  0  0  0  0  0  0  0
   48.1802   15.3596  -14.3223 C   0  0  0  0  0  0  0  0  0  0  0  0
   47.0071   14.5065  -14.2624 N   0  0  0  0  0  0  0  0  0  0  0  0
   47.0054   13.1238  -13.8143 C   0  0  0  0  0  0  0  0  0  0  0  0
   45.5714   12.7009  -13.8452 C   0  0  0  0  0  0  0  0  0  0  0  0
   44.9473   13.6195  -14.8793 C   0  0  0  0  0  0  0  0  0  0  0  0
   45.1079   13.1571  -16.1677 O   0  0  0  0  0  0  0  0  0  0  0  0
   45.6785   14.8852  -14.6306 C   0  0  0  0  0  0  0  0  0  0  0  0
   45.2926   16.0706  -14.7041 O   0  0  0  0  0  0  0  0  0  0  0  0
   44.2305   12.9438  -16.5685 H   0  0  0  0  0  0  0  0  0  0  0  0
 23 24  1  0  0  0
 24 25  1  0  0  0
 25 26  1  0  0  0
 26 27  1  0  0  0
 27 28  1  0  0  0
 27 21  1  0  0  0
 21 22  3  0  0  0
 22  1  1  0  0  0
  1  2  2  0  0  0
  2  3  1  0  0  0
  3  4  2  0  0  0
  4  5  1  0  0  0
  5  6  2  0  0  0
  5  7  1  0  0  0
  7  8  1  0  0  0
  8  9  2  0  0  0
  9 16  1  0  0  0
 16 17  1  0  0  0
 16 18  2  0  0  0
  9 10  1  0  0  0
 10 11  1  0  0  0
 11 12  2  0  0  0
 12 13  1  0  0  0
 13 14  2  0  0  0
 14 15  1  0  0  0
 27 29  1  0  0  0
 29 30  2  0  0  0
 29 24  1  0  0  0
  6  1  1  0  0  0
 15  7  2  0  0  0
 15 10  1  0  0  0
 28 31  1  0  0  0
 17 19  1  0  0  0
 17 20  1  0  0  0
M  END
> <minimizedAffinity>
-8.98293

> <CNNscore>
0.5913984179

> <CNNaffinity>
6.6273827553

> <CNN_VS>
3.9194235802

> <CNNaffinity_variance>
0.0955269188

$$$$
[H]O[C@]1(C#Cc2c([H])c([H])c([H])c(-c3nc(C(=O)N([H])[H])n4c([H])c([H])c([H])c([H])c34)c2[H])C(=O)N(C([H])([H])[H])C([H])([H])C1([H])[H]


 31 34  0  0  0  0  0  0  0  0999 V2000
   36.1953   14.5179  -12.5398 C   0  0  0  0  0  0  0  0  0  0  0  0
   34.9559   13.9133  -12.5194 C   0  0  0  0  0  0  0  0  0  0  0  0
   34.5982   12.9207  -13.4040 C   0  0  0  0  0  0  0  0  0  0  0  0
   35.4927   12.5018  -14.3498 C   0  0  0  0  0  0  0  0  0  0  0  0
   36.7444   13.0645  -14.4226 C   0  0  0  0  0  0  0  0  0  0  0  0
   37.0697   14.0553  -13.5218 C   0  0  0  0  0  0  0  0  0  0  0  0
   37.7196   12.6176  -15.4261 C   0  0  0  0  0  0  0  0  0  0  0  0
   37.4917   11.9319  -16.5356 N   0  0  0  0  0  0  0  0  0  0  0  0
   38.6631   11.7186  -17.2063 C   0  0  0  0  0  0  0  0  0  0  0  0
   39.6281   12.2906  -16.4843 N   0  0  0  0  0  0  0  0  0  0  0  0
   40.9569   12.3952  -16.6595 C   0  0  0  0  0  0  0  0  0  0  0  0
   41.7892   13.0457  -15.7746 C   0  0  0  0  0  0  0  0  0  0  0  0
   41.2283   13.6158  -14.6571 C   0  0  0  0  0  0  0  0  0  0  0  0
   39.8525   13.5259  -14.4443 C   0  0  0  0  0  0  0  0  0  0  0  0
   39.0721   12.8598  -15.3684 C   0  0  0  0  0  0  0  0  0  0  0  0
   38.7688   10.9963  -18.4654 C   0  0  0  0  0  0  0  0  0  0  0  0
   39.9197   10.9346  -19.2801 N   0  0  0  0  0  0  0  0  0  0  0  0
   37.7553   10.3517  -18.9027 O   0  0  0  0  0  0  0  0  0  0  0  0
   39.9629   11.4309  -20.1768 H   0  0  0  0  0  0  0  0  0  0  0  0
   40.7213   10.3660  -18.9343 H   0  0  0  0  0  0  0  0  0  0  0  0
   36.9046   16.4186  -10.8319 C   0  0  0  0  0  0  0  0  0  0  0  0
   36.5708   15.5549  -11.6166 C   0  0  0  0  0  0  0  0  0  0  0  0
   36.5416   18.5106   -6.3994 C   0  0  0  0  0  0  0  0  0  0  0  0
   37.1074   17.9359   -7.6065 N   0  0  0  0  0  0  0  0  0  0  0  0
   38.5271   17.7399   -7.8488 C   0  0  0  0  0  0  0  0  0  0  0  0
   38.6095   17.0445   -9.1700 C   0  0  0  0  0  0  0  0  0  0  0  0
   37.3255   17.4488   -9.8704 C   0  0  0  0  0  0  0  0  0  0  0  0
   37.4282   18.6661  -10.5085 O   0  0  0  0  0  0  0  0  0  0  0  0
   36.3670   17.4751   -8.7395 C   0  0  0  0  0  0  0  0  0  0  0  0
   35.1554   17.1754   -8.6985 O   0  0  0  0  0  0  0  0  0  0  0  0
   37.3282   18.5522  -11.4848 H   0  0  0  0  0  0  0  0  0  0  0  0
 23 24  1  0  0  0
 24 25  1  0  0  0
 25 26  1  0  0  0
 26 27  1  0  0  0
 27 28  1  0  0  0
 27 21  1  0  0  0
 21 22  3  0  0  0
 22  1  1  0  0  0
  1  2  2  0  0  0
  2  3  1  0  0  0
  3  4  2  0  0  0
  4  5  1  0  0  0
  5  6  2  0  0  0
  5  7  1  0  0  0
  7  8  1  0  0  0
  8  9  2  0  0  0
  9 16  1  0  0  0
 16 17  1  0  0  0
 16 18  2  0  0  0
  9 10  1  0  0  0
 10 11  1  0  0  0
 11 12  2  0  0  0
 12 13  1  0  0  0
 13 14  2  0  0  0
 14 15  1  0  0  0
 27 29  1  0  0  0
 29 30  2  0  0  0
 29 24  1  0  0  0
  6  1  1  0  0  0
 15  7  2  0  0  0
 15 10  1  0  0  0
 28 31  1  0  0  0
 17 19  1  0  0  0
 17 20  1  0  0  0
M  END
> <minimizedAffinity>
-8.48170

> <CNNscore>
0.5855511427

> <CNNaffinity>
6.5163025856

> <CNN_VS>
3.8156285286

> <CNNaffinity_variance>
0.0383538529

$$$$
[H]O[C@]1(C#Cc2c([H])c([H])c([H])c(-c3nc(C(=O)N([H])[H])n4c([H])c([H])c([H])c([H])c34)c2[H])C(=O)N(C([H])([H])[H])C([H])([H])C1([H])[H]


 31 34  0  0  0  0  0  0  0  0999 V2000
   35.9153   14.2289  -11.9186 C   0  0  0  0  0  0  0  0  0  0  0  0
   34.6795   14.4441  -12.4919 C   0  0  0  0  0  0  0  0  0  0  0  0
   34.4310   14.2224  -13.8279 C   0  0  0  0  0  0  0  0  0  0  0  0
   35.4360   13.7705  -14.6378 C   0  0  0  0  0  0  0  0  0  0  0  0
   36.6904   13.5366  -14.1273 C   0  0  0  0  0  0  0  0  0  0  0  0
   36.9045   13.7687  -12.7860 C   0  0  0  0  0  0  0  0  0  0  0  0
   37.7769   13.0411  -14.9827 C   0  0  0  0  0  0  0  0  0  0  0  0
   39.0691   13.3180  -14.9019 N   0  0  0  0  0  0  0  0  0  0  0  0
   39.7555   12.6514  -15.8777 C   0  0  0  0  0  0  0  0  0  0  0  0
   38.8553   11.9507  -16.5692 N   0  0  0  0  0  0  0  0  0  0  0  0
   38.9593   11.1225  -17.6231 C   0  0  0  0  0  0  0  0  0  0  0  0
   37.8801   10.4842  -18.1949 C   0  0  0  0  0  0  0  0  0  0  0  0
   36.6355   10.7081  -17.6572 C   0  0  0  0  0  0  0  0  0  0  0  0
   36.4917   11.5619  -16.5633 C   0  0  0  0  0  0  0  0  0  0  0  0
   37.6124   12.1722  -16.0359 C   0  0  0  0  0  0  0  0  0  0  0  0
   41.1956   12.7338  -16.0712 C   0  0  0  0  0  0  0  0  0  0  0  0
   41.8833   12.3967  -17.2568 N   0  0  0  0  0  0  0  0  0  0  0  0
   41.9328   13.1413  -15.1097 O   0  0  0  0  0  0  0  0  0  0  0  0
   42.4623   11.5518  -17.3130 H   0  0  0  0  0  0  0  0  0  0  0  0
   41.7788   13.0393  -18.0701 H   0  0  0  0  0  0  0  0  0  0  0  0
   36.4122   14.6396   -9.3462 C   0  0  0  0  0  0  0  0  0  0  0  0
   36.1768   14.4599  -10.5233 C   0  0  0  0  0  0  0  0  0  0  0  0
   39.5268   15.9881   -5.7914 C   0  0  0  0  0  0  0  0  0  0  0  0
   38.3163   15.8560   -6.5819 N   0  0  0  0  0  0  0  0  0  0  0  0
   37.0589   16.5273   -6.2973 C   0  0  0  0  0  0  0  0  0  0  0  0
   36.1493   16.1555   -7.4244 C   0  0  0  0  0  0  0  0  0  0  0  0
   36.7103   14.8353   -7.9194 C   0  0  0  0  0  0  0  0  0  0  0  0
   36.2491   13.7566   -7.1959 O   0  0  0  0  0  0  0  0  0  0  0  0
   38.1678   15.0529   -7.7554 C   0  0  0  0  0  0  0  0  0  0  0  0
   39.1282   14.6557   -8.4477 O   0  0  0  0  0  0  0  0  0  0  0  0
   35.7088   13.1624   -7.7712 H   0  0  0  0  0  0  0  0  0  0  0  0
 23 24  1  0  0  0
 24 25  1  0  0  0
 25 26  1  0  0  0
 26 27  1  0  0  0
 27 28  1  0  0  0
 27 21  1  0  0  0
 21 22  3  0  0  0
 22  1  1  0  0  0
  1  2  2  0  0  0
  2  3  1  0  0  0
  3  4  2  0  0  0
  4  5  1  0  0  0
  5  6  2  0  0  0
  5  7  1  0  0  0
  7  8  1  0  0  0
  8  9  2  0  0  0
  9 16  1  0  0  0
 16 17  1  0  0  0
 16 18  2  0  0  0
  9 10  1  0  0  0
 10 11  1  0  0  0
 11 12  2  0  0  0
 12 13  1  0  0  0
 13 14  2  0  0  0
 14 15  1  0  0  0
 27 29  1  0  0  0
 29 30  2  0  0  0
 29 24  1  0  0  0
  6  1  1  0  0  0
 15  7  2  0  0  0
 15 10  1  0  0  0
 28 31  1  0  0  0
 17 19  1  0  0  0
 17 20  1  0  0  0
M  END
> <minimizedAffinity>
-8.52453

> <CNNscore>
0.5531240702

> <CNNaffinity>
6.4044675827

> <CNN_VS>
3.5424652100

> <CNNaffinity_variance>
0.1789652556

$$$$
[H]O[C@]1(C#Cc2c([H])c([H])c([H])c(-c3nc(C(=O)N([H])[H])n4c([H])c([H])c([H])c([H])c34)c2[H])C(=O)N(C([H])([H])[H])C([H])([H])C1([H])[H]


 31 34  0  0  0  0  0  0  0  0999 V2000
   41.1661   12.5357  -16.2088 C   0  0  0  0  0  0  0  0  0  0  0  0
   41.1059   11.9901  -17.4740 C   0  0  0  0  0  0  0  0  0  0  0  0
   39.9216   11.6087  -18.0637 C   0  0  0  0  0  0  0  0  0  0  0  0
   38.7450   11.7682  -17.3851 C   0  0  0  0  0  0  0  0  0  0  0  0
   38.7375   12.3061  -16.1204 C   0  0  0  0  0  0  0  0  0  0  0  0
   39.9406   12.6773  -15.5602 C   0  0  0  0  0  0  0  0  0  0  0  0
   37.4807   12.4934  -15.3835 C   0  0  0  0  0  0  0  0  0  0  0  0
   37.2792   13.1986  -14.2811 N   0  0  0  0  0  0  0  0  0  0  0  0
   35.9653   13.1293  -13.9114 C   0  0  0  0  0  0  0  0  0  0  0  0
   35.3530   12.3612  -14.8140 N   0  0  0  0  0  0  0  0  0  0  0  0
   34.0781   11.9571  -14.9520 C   0  0  0  0  0  0  0  0  0  0  0  0
   33.6461   11.1499  -15.9819 C   0  0  0  0  0  0  0  0  0  0  0  0
   34.5687   10.7392  -16.9139 C   0  0  0  0  0  0  0  0  0  0  0  0
   35.9001   11.1400  -16.8007 C   0  0  0  0  0  0  0  0  0  0  0  0
   36.2705   11.9493  -15.7450 C   0  0  0  0  0  0  0  0  0  0  0  0
   35.4050   13.7916  -12.7429 C   0  0  0  0  0  0  0  0  0  0  0  0
   34.3916   14.7738  -12.7655 N   0  0  0  0  0  0  0  0  0  0  0  0
   35.8417   13.4845  -11.5814 O   0  0  0  0  0  0  0  0  0  0  0  0
   34.6001   15.7569  -12.5594 H   0  0  0  0  0  0  0  0  0  0  0  0
   33.4260   14.4603  -12.9995 H   0  0  0  0  0  0  0  0  0  0  0  0
   43.4407   13.2596  -15.0533 C   0  0  0  0  0  0  0  0  0  0  0  0
   42.4022   12.9348  -15.5913 C   0  0  0  0  0  0  0  0  0  0  0  0
   48.3294   13.7618  -15.1080 C   0  0  0  0  0  0  0  0  0  0  0  0
   46.9203   14.0450  -14.9043 N   0  0  0  0  0  0  0  0  0  0  0  0
   46.3884   15.2965  -14.3908 C   0  0  0  0  0  0  0  0  0  0  0  0
   44.9018   15.1452  -14.4449 C   0  0  0  0  0  0  0  0  0  0  0  0
   44.6900   13.6440  -14.3794 C   0  0  0  0  0  0  0  0  0  0  0  0
   44.6886   13.1628  -13.0878 O   0  0  0  0  0  0  0  0  0  0  0  0
   45.8400   13.1479  -15.1732 C   0  0  0  0  0  0  0  0  0  0  0  0
   45.9313   12.1651  -15.9383 O   0  0  0  0  0  0  0  0  0  0  0  0
   43.8033   12.7872  -12.8617 H   0  0  0  0  0  0  0  0  0  0  0  0
 23 24  1  0  0  0
 24 25  1  0  0  0
 25 26  1  0  0  0
 26 27  1  0  0  0
 27 28  1  0  0  0
 27 21  1  0  0  0
 21 22  3  0  0  0
 22  1  1  0  0  0
  1  2  2  0  0  0
  2  3  1  0  0  0
  3  4  2  0  0  0
  4  5  1  0  0  0
  5  6  2  0  0  0
  5  7  1  0  0  0
  7  8  1  0  0  0
  8  9  2  0  0  0
  9 16  1  0  0  0
 16 17  1  0  0  0
 16 18  2  0  0  0
  9 10  1  0  0  0
 10 11  1  0  0  0
 11 12  2  0  0  0
 12 13  1  0  0  0
 13 14  2  0  0  0
 14 15  1  0  0  0
 27 29  1  0  0  0
 29 30  2  0  0  0
 29 24  1  0  0  0
  6  1  1  0  0  0
 15  7  2  0  0  0
 15 10  1  0  0  0
 28 31  1  0  0  0
 17 19  1  0  0  0
 17 20  1  0  0  0
M  END
> <minimizedAffinity>
-10.12747

> <CNNscore>
0.5495862961

> <CNNaffinity>
6.5251874924

> <CNN_VS>
3.5861535072

> <CNNaffinity_variance>
0.0744967833

$$$$
[H]O[C@]1(C#Cc2c([H])c([H])c([H])c(-c3nc(C(=O)N([H])[H])n4c([H])c([H])c([H])c([H])c34)c2[H])C(=O)N(C([H])([H])[H])C([H])([H])C1([H])[H]


 31 34  0  0  0  0  0  0  0  0999 V2000
   41.1001   12.3670  -16.5977 C   0  0  0  0  0  0  0  0  0  0  0  0
   40.9698   11.7053  -17.8007 C   0  0  0  0  0  0  0  0  0  0  0  0
   39.7579   11.2546  -18.2740 C   0  0  0  0  0  0  0  0  0  0  0  0
   38.6243   11.4605  -17.5374 C   0  0  0  0  0  0  0  0  0  0  0  0
   38.6871   12.1136  -16.3298 C   0  0  0  0  0  0  0  0  0  0  0  0
   39.9160   12.5517  -15.8861 C   0  0  0  0  0  0  0  0  0  0  0  0
   37.4765   12.3516  -15.5325 C   0  0  0  0  0  0  0  0  0  0  0  0
   37.3507   13.0923  -14.4423 N   0  0  0  0  0  0  0  0  0  0  0  0
   36.0576   13.0648  -14.0009 C   0  0  0  0  0  0  0  0  0  0  0  0
   35.3803   12.2864  -14.8465 N   0  0  0  0  0  0  0  0  0  0  0  0
   34.0912   11.9092  -14.9041 C   0  0  0  0  0  0  0  0  0  0  0  0
   33.5861   11.0838  -15.8852 C   0  0  0  0  0  0  0  0  0  0  0  0
   34.4475   10.6251  -16.8527 C   0  0  0  0  0  0  0  0  0  0  0  0
   35.7917   10.9970  -16.8228 C   0  0  0  0  0  0  0  0  0  0  0  0
   36.2366   11.8266  -15.8126 C   0  0  0  0  0  0  0  0  0  0  0  0
   35.5764   13.7730  -12.8241 C   0  0  0  0  0  0  0  0  0  0  0  0
   34.7612   14.9252  -12.8380 N   0  0  0  0  0  0  0  0  0  0  0  0
   35.8978   13.3458  -11.6630 O   0  0  0  0  0  0  0  0  0  0  0  0
   35.1362   15.8442  -12.5791 H   0  0  0  0  0  0  0  0  0  0  0  0
   33.7659   14.8042  -13.1212 H   0  0  0  0  0  0  0  0  0  0  0  0
   43.4333   13.2202  -15.6698 C   0  0  0  0  0  0  0  0  0  0  0  0
   42.3651   12.8386  -16.1017 C   0  0  0  0  0  0  0  0  0  0  0  0
   46.6586   13.4139  -11.9664 C   0  0  0  0  0  0  0  0  0  0  0  0
   46.1010   13.2541  -13.2972 N   0  0  0  0  0  0  0  0  0  0  0  0
   46.8572   12.8632  -14.4753 C   0  0  0  0  0  0  0  0  0  0  0  0
   45.8472   12.7471  -15.5719 C   0  0  0  0  0  0  0  0  0  0  0  0
   44.7251   13.6666  -15.1267 C   0  0  0  0  0  0  0  0  0  0  0  0
   44.9458   14.9820  -15.4739 O   0  0  0  0  0  0  0  0  0  0  0  0
   44.7323   13.4535  -13.6594 C   0  0  0  0  0  0  0  0  0  0  0  0
   43.7904   13.4361  -12.8396 O   0  0  0  0  0  0  0  0  0  0  0  0
   44.2596   15.2882  -16.1153 H   0  0  0  0  0  0  0  0  0  0  0  0
 23 24  1  0  0  0
 24 25  1  0  0  0
 25 26  1  0  0  0
 26 27  1  0  0  0
 27 28  1  0  0  0
 27 21  1  0  0  0
 21 22  3  0  0  0
 22  1  1  0  0  0
  1  2  2  0  0  0
  2  3  1  0  0  0
  3  4  2  0  0  0
  4  5  1  0  0  0
  5  6  2  0  0  0
  5  7  1  0  0  0
  7  8  1  0  0  0
  8  9  2  0  0  0
  9 16  1  0  0  0
 16 17  1  0  0  0
 16 18  2  0  0  0
  9 10  1  0  0  0
 10 11  1  0  0  0
 11 12  2  0  0  0
 12 13  1  0  0  0
 13 14  2  0  0  0
 14 15  1  0  0  0
 27 29  1  0  0  0
 29 30  2  0  0  0
 29 24  1  0  0  0
  6  1  1  0  0  0
 15  7  2  0  0  0
 15 10  1  0  0  0
 28 31  1  0  0  0
 17 19  1  0  0  0
 17 20  1  0  0  0
M  END
> <minimizedAffinity>
-10.55438

> <CNNscore>
0.5427274704

> <CNNaffinity>
6.5802674294

> <CNN_VS>
3.5712919235

> <CNNaffinity_variance>
0.0549894273

$$$$
[H]O[C@@]1([H])c2c([H])c(C(=O)N([H])[H])nn2-c2c([H])c(C#C[C@@](O[H])(c3noc(C([H])([H])[H])c3[H])C([H])([H])[H])c([H])c([H])c2OC1([H])[H]


 33 36  0  0  0  0  0  0  0  0999 V2000
   42.2616   14.2002  -13.9736 C   0  0  0  0  0  0  0  0  0  0  0  0
   41.5854   15.0493  -13.0766 C   0  0  0  0  0  0  0  0  0  0  0  0
   40.2117   15.2050  -13.0923 C   0  0  0  0  0  0  0  0  0  0  0  0
   39.4719   14.5254  -13.9918 C   0  0  0  0  0  0  0  0  0  0  0  0
   38.1011   14.7248  -13.9430 O   0  0  0  0  0  0  0  0  0  0  0  0
   37.0174   13.8842  -14.2777 C   0  0  0  0  0  0  0  0  0  0  0  0
   37.3763   12.4427  -14.5234 C   0  0  0  0  0  0  0  0  0  0  0  0
   36.1912   11.7769  -14.8490 O   0  0  0  0  0  0  0  0  0  0  0  0
   38.3028   12.2761  -15.6968 C   0  0  0  0  0  0  0  0  0  0  0  0
   38.0477   11.5316  -16.8195 C   0  0  0  0  0  0  0  0  0  0  0  0
   39.1878   11.7292  -17.6214 C   0  0  0  0  0  0  0  0  0  0  0  0
   40.0686   12.5373  -17.0100 N   0  0  0  0  0  0  0  0  0  0  0  0
   39.5293   12.8529  -15.8674 N   0  0  0  0  0  0  0  0  0  0  0  0
   40.1376   13.6853  -14.8798 C   0  0  0  0  0  0  0  0  0  0  0  0
   41.5154   13.5149  -14.8844 C   0  0  0  0  0  0  0  0  0  0  0  0
   35.6164   12.4426  -15.3309 H   0  0  0  0  0  0  0  0  0  0  0  0
   39.2583   11.0473  -18.9168 C   0  0  0  0  0  0  0  0  0  0  0  0
   38.0457   10.5899  -19.5143 N   0  0  0  0  0  0  0  0  0  0  0  0
   40.3554   10.8514  -19.4789 O   0  0  0  0  0  0  0  0  0  0  0  0
   37.6320    9.6766  -19.1122 H   0  0  0  0  0  0  0  0  0  0  0  0
   37.4922   10.9790  -20.2838 H   0  0  0  0  0  0  0  0  0  0  0  0
   44.8782   14.0007  -13.7832 C   0  0  0  0  0  0  0  0  0  0  0  0
   43.6877   14.0557  -13.8658 C   0  0  0  0  0  0  0  0  0  0  0  0
   46.3302   14.0129  -13.6964 C   0  0  0  0  0  0  0  0  0  0  0  0
   46.8519   12.5873  -13.4581 C   0  0  0  0  0  0  0  0  0  0  0  0
   46.8941   14.3443  -14.9653 O   0  0  0  0  0  0  0  0  0  0  0  0
   46.1733   14.1467  -15.6137 H   0  0  0  0  0  0  0  0  0  0  0  0
   46.3595   17.5529  -10.1964 C   0  0  0  0  0  0  0  0  0  0  0  0
   46.7700   16.4783  -11.1321 C   0  0  0  0  0  0  0  0  0  0  0  0
   45.9567   15.8452  -12.0333 C   0  0  0  0  0  0  0  0  0  0  0  0
   46.7821   14.9260  -12.6598 C   0  0  0  0  0  0  0  0  0  0  0  0
   47.9919   15.0551  -12.1270 N   0  0  0  0  0  0  0  0  0  0  0  0
   47.9828   15.9799  -11.2215 O   0  0  0  0  0  0  0  0  0  0  0  0
 28 29  1  0  0  0
 29 30  2  0  0  0
 30 31  1  0  0  0
 31 32  2  0  0  0
 32 33  1  0  0  0
 31 24  1  0  0  0
 24 25  1  0  0  0
 24 26  1  0  0  0
 24 22  1  0  0  0
 22 23  3  0  0  0
 23  1  1  0  0  0
  1  2  2  0  0  0
  2  3  1  0  0  0
  3  4  2  0  0  0
  4  5  1  0  0  0
  5  6  1  0  0  0
  6  7  1  0  0  0
  7  8  1  0  0  0
  7  9  1  0  0  0
  9 10  2  0  0  0
 10 11  1  0  0  0
 11 12  2  0  0  0
 12 13  1  0  0  0
 13 14  1  0  0  0
 14 15  2  0  0  0
 11 17  1  0  0  0
 17 18  1  0  0  0
 17 19  2  0  0  0
 33 29  1  0  0  0
 15  1  1  0  0  0
 14  4  1  0  0  0
 13  9  1  0  0  0
 26 27  1  0  0  0
  8 16  1  0  0  0
 18 20  1  0  0  0
 18 21  1  0  0  0
M  END
> <minimizedAffinity>
-7.52478

> <CNNscore>
0.5463036895

> <CNNaffinity>
6.5054345131

> <CNN_VS>
3.5539429188

> <CNNaffinity_variance>
0.4400646687

$$$$
[H]O[C@@]1([H])c2c([H])c(C(=O)N([H])[H])nn2-c2c([H])c(C#C[C@@](O[H])(c3noc(C([H])([H])[H])c3[H])C([H])([H])[H])c([H])c([H])c2OC1([H])[H]


 33 36  0  0  0  0  0  0  0  0999 V2000
   42.1095   14.3840  -13.5388 C   0  0  0  0  0  0  0  0  0  0  0  0
   41.4097   15.2815  -12.7094 C   0  0  0  0  0  0  0  0  0  0  0  0
   40.0432   15.4696  -12.8037 C   0  0  0  0  0  0  0  0  0  0  0  0
   39.3341   14.7757  -13.7168 C   0  0  0  0  0  0  0  0  0  0  0  0
   37.9682   15.0100  -13.7481 O   0  0  0  0  0  0  0  0  0  0  0  0
   36.8819   14.1841  -14.1101 C   0  0  0  0  0  0  0  0  0  0  0  0
   37.2155   12.7264  -14.2855 C   0  0  0  0  0  0  0  0  0  0  0  0
   36.0320   12.0779  -14.6500 O   0  0  0  0  0  0  0  0  0  0  0  0
   38.1974   12.4946  -15.4013 C   0  0  0  0  0  0  0  0  0  0  0  0
   37.9820   11.7159  -16.5092 C   0  0  0  0  0  0  0  0  0  0  0  0
   39.1672   11.8565  -17.2557 C   0  0  0  0  0  0  0  0  0  0  0  0
   40.0357   12.6648  -16.6272 N   0  0  0  0  0  0  0  0  0  0  0  0
   39.4458   13.0349  -15.5266 N   0  0  0  0  0  0  0  0  0  0  0  0
   40.0231   13.8878  -14.5380 C   0  0  0  0  0  0  0  0  0  0  0  0
   41.3943   13.6841  -14.4633 C   0  0  0  0  0  0  0  0  0  0  0  0
   35.5008   12.7393  -15.1850 H   0  0  0  0  0  0  0  0  0  0  0  0
   39.2876   11.1262  -18.5207 C   0  0  0  0  0  0  0  0  0  0  0  0
   38.1130   10.5499  -19.0906 N   0  0  0  0  0  0  0  0  0  0  0  0
   40.3953   10.9922  -19.0803 O   0  0  0  0  0  0  0  0  0  0  0  0
   37.7730    9.6256  -18.6469 H   0  0  0  0  0  0  0  0  0  0  0  0
   37.5288   10.8607  -19.8729 H   0  0  0  0  0  0  0  0  0  0  0  0
   44.7005   14.0292  -13.2494 C   0  0  0  0  0  0  0  0  0  0  0  0
   43.5238   14.2091  -13.3502 C   0  0  0  0  0  0  0  0  0  0  0  0
   46.1297   13.7646  -13.1927 C   0  0  0  0  0  0  0  0  0  0  0  0
   46.7403   13.8859  -14.5977 C   0  0  0  0  0  0  0  0  0  0  0  0
   46.7923   14.8041  -12.4728 O   0  0  0  0  0  0  0  0  0  0  0  0
   46.1612   15.5656  -12.5042 H   0  0  0  0  0  0  0  0  0  0  0  0
   46.4323   10.0207   -9.9255 C   0  0  0  0  0  0  0  0  0  0  0  0
   46.5168   10.8378  -11.1601 C   0  0  0  0  0  0  0  0  0  0  0  0
   46.1394   12.1482  -11.2822 C   0  0  0  0  0  0  0  0  0  0  0  0
   46.3949   12.4610  -12.6071 C   0  0  0  0  0  0  0  0  0  0  0  0
   46.8930   11.3712  -13.1805 N   0  0  0  0  0  0  0  0  0  0  0  0
   46.9670   10.4091  -12.3180 O   0  0  0  0  0  0  0  0  0  0  0  0
 28 29  1  0  0  0
 29 30  2  0  0  0
 30 31  1  0  0  0
 31 32  2  0  0  0
 32 33  1  0  0  0
 31 24  1  0  0  0
 24 25  1  0  0  0
 24 26  1  0  0  0
 24 22  1  0  0  0
 22 23  3  0  0  0
 23  1  1  0  0  0
  1  2  2  0  0  0
  2  3  1  0  0  0
  3  4  2  0  0  0
  4  5  1  0  0  0
  5  6  1  0  0  0
  6  7  1  0  0  0
  7  8  1  0  0  0
  7  9  1  0  0  0
  9 10  2  0  0  0
 10 11  1  0  0  0
 11 12  2  0  0  0
 12 13  1  0  0  0
 13 14  1  0  0  0
 14 15  2  0  0  0
 11 17  1  0  0  0
 17 18  1  0  0  0
 17 19  2  0  0  0
 33 29  1  0  0  0
 15  1  1  0  0  0
 14  4  1  0  0  0
 13  9  1  0  0  0
 26 27  1  0  0  0
  8 16  1  0  0  0
 18 20  1  0  0  0
 18 21  1  0  0  0
M  END
> <minimizedAffinity>
-8.40781

> <CNNscore>
0.4772436321

> <CNNaffinity>
6.4513001442

> <CNN_VS>
3.0788419247

> <CNNaffinity_variance>
0.3369352520

$$$$
[H]O[C@@]1([H])c2c([H])c(C(=O)N([H])[H])nn2-c2c([H])c(C#C[C@@](O[H])(c3noc(C([H])([H])[H])c3[H])C([H])([H])[H])c([H])c([H])c2OC1([H])[H]


 33 36  0  0  0  0  0  0  0  0999 V2000
   39.4857   12.4951  -15.6962 C   0  0  0  0  0  0  0  0  0  0  0  0
   38.8088   11.7416  -16.6744 C   0  0  0  0  0  0  0  0  0  0  0  0
   37.4481   11.5029  -16.6193 C   0  0  0  0  0  0  0  0  0  0  0  0
   36.7222   12.0035  -15.5991 C   0  0  0  0  0  0  0  0  0  0  0  0
   35.3632   11.7308  -15.6142 O   0  0  0  0  0  0  0  0  0  0  0  0
   34.2557   12.4492  -15.1139 C   0  0  0  0  0  0  0  0  0  0  0  0
   34.5501   13.8608  -14.6802 C   0  0  0  0  0  0  0  0  0  0  0  0
   33.3503   14.4017  -14.2093 O   0  0  0  0  0  0  0  0  0  0  0  0
   35.5275   13.9160  -13.5380 C   0  0  0  0  0  0  0  0  0  0  0  0
   35.2933   14.4784  -12.3097 C   0  0  0  0  0  0  0  0  0  0  0  0
   36.4833   14.2388  -11.5967 C   0  0  0  0  0  0  0  0  0  0  0  0
   37.3720   13.5793  -12.3568 N   0  0  0  0  0  0  0  0  0  0  0  0
   36.7903   13.3958  -13.5074 N   0  0  0  0  0  0  0  0  0  0  0  0
   37.3886   12.7487  -14.6307 C   0  0  0  0  0  0  0  0  0  0  0  0
   38.7536   12.9993  -14.6638 C   0  0  0  0  0  0  0  0  0  0  0  0
   32.8381   13.6414  -13.8026 H   0  0  0  0  0  0  0  0  0  0  0  0
   36.5863   14.7346  -10.2213 C   0  0  0  0  0  0  0  0  0  0  0  0
   35.4087   14.7622   -9.4157 N   0  0  0  0  0  0  0  0  0  0  0  0
   37.6748   15.1433   -9.7673 O   0  0  0  0  0  0  0  0  0  0  0  0
   34.7220   15.5745   -9.6042 H   0  0  0  0  0  0  0  0  0  0  0  0
   35.0990   14.1383   -8.6642 H   0  0  0  0  0  0  0  0  0  0  0  0
   42.0759   12.8982  -15.9228 C   0  0  0  0  0  0  0  0  0  0  0  0
   40.8944   12.7388  -15.8463 C   0  0  0  0  0  0  0  0  0  0  0  0
   43.5230   13.0426  -15.9533 C   0  0  0  0  0  0  0  0  0  0  0  0
   44.1509   11.8595  -16.7065 C   0  0  0  0  0  0  0  0  0  0  0  0
   43.8870   14.1590  -16.7652 O   0  0  0  0  0  0  0  0  0  0  0  0
   43.0957   14.3143  -17.3385 H   0  0  0  0  0  0  0  0  0  0  0  0
   43.8512   13.7305  -11.0337 C   0  0  0  0  0  0  0  0  0  0  0  0
   44.1808   13.4697  -12.4558 C   0  0  0  0  0  0  0  0  0  0  0  0
   43.2923   13.4654  -13.4975 C   0  0  0  0  0  0  0  0  0  0  0  0
   44.0622   13.1653  -14.6091 C   0  0  0  0  0  0  0  0  0  0  0  0
   45.3148   13.0168  -14.1927 N   0  0  0  0  0  0  0  0  0  0  0  0
   45.3831   13.2008  -12.9134 O   0  0  0  0  0  0  0  0  0  0  0  0
 28 29  1  0  0  0
 29 30  2  0  0  0
 30 31  1  0  0  0
 31 32  2  0  0  0
 32 33  1  0  0  0
 31 24  1  0  0  0
 24 25  1  0  0  0
 24 26  1  0  0  0
 24 22  1  0  0  0
 22 23  3  0  0  0
 23  1  1  0  0  0
  1  2  2  0  0  0
  2  3  1  0  0  0
  3  4  2  0  0  0
  4  5  1  0  0  0
  5  6  1  0  0  0
  6  7  1  0  0  0
  7  8  1  0  0  0
  7  9  1  0  0  0
  9 10  2  0  0  0
 10 11  1  0  0  0
 11 12  2  0  0  0
 12 13  1  0  0  0
 13 14  1  0  0  0
 14 15  2  0  0  0
 11 17  1  0  0  0
 17 18  1  0  0  0
 17 19  2  0  0  0
 33 29  1  0  0  0
 15  1  1  0  0  0
 14  4  1  0  0  0
 13  9  1  0  0  0
 26 27  1  0  0  0
  8 16  1  0  0  0
 18 20  1  0  0  0
 18 21  1  0  0  0
M  END
> <minimizedAffinity>
-10.07062

> <CNNscore>
0.3918780684

> <CNNaffinity>
6.4787712097

> <CNN_VS>
2.5388884544

> <CNNaffinity_variance>
0.0428928137

$$$$
[H]O[C@@]1([H])c2c([H])c(C(=O)N([H])[H])nn2-c2c([H])c(C#C[C@@](O[H])(c3noc(C([H])([H])[H])c3[H])C([H])([H])[H])c([H])c([H])c2OC1([H])[H]


 33 36  0  0  0  0  0  0  0  0999 V2000
   40.5730   14.8453  -13.1242 C   0  0  0  0  0  0  0  0  0  0  0  0
   39.4734   15.4411  -12.4771 C   0  0  0  0  0  0  0  0  0  0  0  0
   38.1709   15.2563  -12.9025 C   0  0  0  0  0  0  0  0  0  0  0  0
   37.9217   14.4779  -13.9750 C   0  0  0  0  0  0  0  0  0  0  0  0
   36.5920   14.3319  -14.3383 O   0  0  0  0  0  0  0  0  0  0  0  0
   35.9024   13.2758  -14.9724 C   0  0  0  0  0  0  0  0  0  0  0  0
   36.6706   11.9858  -15.0866 C   0  0  0  0  0  0  0  0  0  0  0  0
   35.8404   11.0733  -15.7439 O   0  0  0  0  0  0  0  0  0  0  0  0
   37.9083   12.1299  -15.9294 C   0  0  0  0  0  0  0  0  0  0  0  0
   38.1875   11.4223  -17.0702 C   0  0  0  0  0  0  0  0  0  0  0  0
   39.4221   11.9462  -17.4982 C   0  0  0  0  0  0  0  0  0  0  0  0
   39.8525   12.9027  -16.6600 N   0  0  0  0  0  0  0  0  0  0  0  0
   38.9432   12.9996  -15.7326 N   0  0  0  0  0  0  0  0  0  0  0  0
   39.0068   13.8877  -14.6166 C   0  0  0  0  0  0  0  0  0  0  0  0
   40.3226   14.0606  -14.2093 C   0  0  0  0  0  0  0  0  0  0  0  0
   35.2810   11.6087  -16.3812 H   0  0  0  0  0  0  0  0  0  0  0  0
   40.0361   11.3905  -18.7074 C   0  0  0  0  0  0  0  0  0  0  0  0
   39.1850   10.8665  -19.7260 N   0  0  0  0  0  0  0  0  0  0  0  0
   41.2769   11.3564  -18.8384 O   0  0  0  0  0  0  0  0  0  0  0  0
   38.7735    9.8845  -19.5438 H   0  0  0  0  0  0  0  0  0  0  0  0
   38.8986   11.2632  -20.6263 H   0  0  0  0  0  0  0  0  0  0  0  0
   43.0166   15.1932  -12.2128 C   0  0  0  0  0  0  0  0  0  0  0  0
   41.8943   15.0476  -12.5955 C   0  0  0  0  0  0  0  0  0  0  0  0
   44.4085   15.3378  -11.8157 C   0  0  0  0  0  0  0  0  0  0  0  0
   44.6286   16.7160  -11.1728 C   0  0  0  0  0  0  0  0  0  0  0  0
   44.7083   14.4418  -10.7455 O   0  0  0  0  0  0  0  0  0  0  0  0
   43.8262   14.2204  -10.3559 H   0  0  0  0  0  0  0  0  0  0  0  0
   47.6088   13.2240  -14.9895 C   0  0  0  0  0  0  0  0  0  0  0  0
   46.6966   14.1836  -14.3217 C   0  0  0  0  0  0  0  0  0  0  0  0
   46.0125   13.9622  -13.1566 C   0  0  0  0  0  0  0  0  0  0  0  0
   45.2969   15.1295  -12.9471 C   0  0  0  0  0  0  0  0  0  0  0  0
   45.5813   15.9519  -13.9508 N   0  0  0  0  0  0  0  0  0  0  0  0
   46.4152   15.3886  -14.7647 O   0  0  0  0  0  0  0  0  0  0  0  0
 28 29  1  0  0  0
 29 30  2  0  0  0
 30 31  1  0  0  0
 31 32  2  0  0  0
 32 33  1  0  0  0
 31 24  1  0  0  0
 24 25  1  0  0  0
 24 26  1  0  0  0
 24 22  1  0  0  0
 22 23  3  0  0  0
 23  1  1  0  0  0
  1  2  2  0  0  0
  2  3  1  0  0  0
  3  4  2  0  0  0
  4  5  1  0  0  0
  5  6  1  0  0  0
  6  7  1  0  0  0
  7  8  1  0  0  0
  7  9  1  0  0  0
  9 10  2  0  0  0
 10 11  1  0  0  0
 11 12  2  0  0  0
 12 13  1  0  0  0
 13 14  1  0  0  0
 14 15  2  0  0  0
 11 17  1  0  0  0
 17 18  1  0  0  0
 17 19  2  0  0  0
 33 29  1  0  0  0
 15  1  1  0  0  0
 14  4  1  0  0  0
 13  9  1  0  0  0
 26 27  1  0  0  0
  8 16  1  0  0  0
 18 20  1  0  0  0
 18 21  1  0  0  0
M  END
> <minimizedAffinity>
-7.58045

> <CNNscore>
0.3488432765

> <CNNaffinity>
6.4299178123

> <CNN_VS>
2.2430336475

> <CNNaffinity_variance>
0.4819138050

$$$$
[H]O[C@@]1([H])c2c([H])c(C(=O)N([H])[H])nn2-c2c([H])c(C#C[C@@](O[H])(c3noc(C([H])([H])[H])c3[H])C([H])([H])[H])c([H])c([H])c2OC1([H])[H]


 33 36  0  0  0  0  0  0  0  0999 V2000
   40.7390   13.4156  -15.0335 C   0  0  0  0  0  0  0  0  0  0  0  0
   41.8951   13.0178  -15.7321 C   0  0  0  0  0  0  0  0  0  0  0  0
   41.8534   12.1423  -16.8013 C   0  0  0  0  0  0  0  0  0  0  0  0
   40.6701   11.6399  -17.2084 C   0  0  0  0  0  0  0  0  0  0  0  0
   40.7044   10.7752  -18.2912 O   0  0  0  0  0  0  0  0  0  0  0  0
   39.7558   10.4931  -19.2980 C   0  0  0  0  0  0  0  0  0  0  0  0
   38.5850   11.4379  -19.3586 C   0  0  0  0  0  0  0  0  0  0  0  0
   37.7582   10.9972  -20.3958 O   0  0  0  0  0  0  0  0  0  0  0  0
   37.7583   11.4053  -18.1023 C   0  0  0  0  0  0  0  0  0  0  0  0
   36.4259   11.0901  -18.0280 C   0  0  0  0  0  0  0  0  0  0  0  0
   36.1385   11.1623  -16.6518 C   0  0  0  0  0  0  0  0  0  0  0  0
   37.2319   11.5048  -15.9519 N   0  0  0  0  0  0  0  0  0  0  0  0
   38.1855   11.6468  -16.8274 N   0  0  0  0  0  0  0  0  0  0  0  0
   39.5256   12.0313  -16.5197 C   0  0  0  0  0  0  0  0  0  0  0  0
   39.5432   12.9067  -15.4424 C   0  0  0  0  0  0  0  0  0  0  0  0
   37.8486    9.9988  -20.4243 H   0  0  0  0  0  0  0  0  0  0  0  0
   34.7671   10.8955  -16.2089 C   0  0  0  0  0  0  0  0  0  0  0  0
   34.2615   11.6127  -15.0835 N   0  0  0  0  0  0  0  0  0  0  0  0
   34.0604   10.0457  -16.7888 O   0  0  0  0  0  0  0  0  0  0  0  0
   34.5888   11.2681  -14.1134 H   0  0  0  0  0  0  0  0  0  0  0  0
   33.6182   12.4085  -15.0329 H   0  0  0  0  0  0  0  0  0  0  0  0
   40.9098   15.1907  -13.0989 C   0  0  0  0  0  0  0  0  0  0  0  0
   40.8573   14.3652  -13.9608 C   0  0  0  0  0  0  0  0  0  0  0  0
   40.9210   16.2399  -12.0914 C   0  0  0  0  0  0  0  0  0  0  0  0
   42.2293   16.1792  -11.2876 C   0  0  0  0  0  0  0  0  0  0  0  0
   40.9981   17.5202  -12.7182 O   0  0  0  0  0  0  0  0  0  0  0  0
   41.3542   17.3305  -13.6216 H   0  0  0  0  0  0  0  0  0  0  0  0
   38.0494   16.1061   -8.0272 C   0  0  0  0  0  0  0  0  0  0  0  0
   38.5223   16.0873   -9.4325 C   0  0  0  0  0  0  0  0  0  0  0  0
   39.8231   16.2057   -9.8429 C   0  0  0  0  0  0  0  0  0  0  0  0
   39.7581   16.1421  -11.2250 C   0  0  0  0  0  0  0  0  0  0  0  0
   38.4798   15.9917  -11.5532 N   0  0  0  0  0  0  0  0  0  0  0  0
   37.7479   15.9566  -10.4863 O   0  0  0  0  0  0  0  0  0  0  0  0
 28 29  1  0  0  0
 29 30  2  0  0  0
 30 31  1  0  0  0
 31 32  2  0  0  0
 32 33  1  0  0  0
 31 24  1  0  0  0
 24 25  1  0  0  0
 24 26  1  0  0  0
 24 22  1  0  0  0
 22 23  3  0  0  0
 23  1  1  0  0  0
  1  2  2  0  0  0
  2  3  1  0  0  0
  3  4  2  0  0  0
  4  5  1  0  0  0
  5  6  1  0  0  0
  6  7  1  0  0  0
  7  8  1  0  0  0
  7  9  1  0  0  0
  9 10  2  0  0  0
 10 11  1  0  0  0
 11 12  2  0  0  0
 12 13  1  0  0  0
 13 14  1  0  0  0
 14 15  2  0  0  0
 11 17  1  0  0  0
 17 18  1  0  0  0
 17 19  2  0  0  0
 33 29  1  0  0  0
 15  1  1  0  0  0
 14  4  1  0  0  0
 13  9  1  0  0  0
 26 27  1  0  0  0
  8 16  1  0  0  0
 18 20  1  0  0  0
 18 21  1  0  0  0
M  END
> <minimizedAffinity>
-7.42845

> <CNNscore>
0.2866426110

> <CNNaffinity>
6.6086373329

> <CNN_VS>
1.8943170309

> <CNNaffinity_variance>
0.2821334004

$$$$
[H]O[C@@]1([H])c2c([H])c(C(=O)N([H])[H])nn2-c2c([H])c(C#C[C@@](O[H])(c3noc(C([H])([H])[H])c3[H])C([H])([H])[H])c([H])c([H])c2OC1([H])[H]


 33 36  0  0  0  0  0  0  0  0999 V2000
   37.1282   14.8145  -10.4167 C   0  0  0  0  0  0  0  0  0  0  0  0
   38.4418   15.3219  -10.4158 C   0  0  0  0  0  0  0  0  0  0  0  0
   39.1041   15.6686   -9.2528 C   0  0  0  0  0  0  0  0  0  0  0  0
   38.4874   15.5213   -8.0627 C   0  0  0  0  0  0  0  0  0  0  0  0
   39.2155   15.8814   -6.9395 O   0  0  0  0  0  0  0  0  0  0  0  0
   39.1817   15.4122   -5.6084 C   0  0  0  0  0  0  0  0  0  0  0  0
   38.3831   14.1543   -5.3921 C   0  0  0  0  0  0  0  0  0  0  0  0
   38.4553   13.8544   -4.0288 O   0  0  0  0  0  0  0  0  0  0  0  0
   36.9261   14.3387   -5.7181 C   0  0  0  0  0  0  0  0  0  0  0  0
   35.8811   14.1517   -4.8504 C   0  0  0  0  0  0  0  0  0  0  0  0
   34.7458   14.4859   -5.6128 C   0  0  0  0  0  0  0  0  0  0  0  0
   35.0947   14.8443   -6.8588 N   0  0  0  0  0  0  0  0  0  0  0  0
   36.3928   14.7507   -6.9064 N   0  0  0  0  0  0  0  0  0  0  0  0
   37.1889   15.0200   -8.0605 C   0  0  0  0  0  0  0  0  0  0  0  0
   36.5033   14.6676   -9.2150 C   0  0  0  0  0  0  0  0  0  0  0  0
   38.5127   14.7331   -3.5489 H   0  0  0  0  0  0  0  0  0  0  0  0
   33.4256   14.3774   -4.9856 C   0  0  0  0  0  0  0  0  0  0  0  0
   33.1251   15.2238   -3.8766 N   0  0  0  0  0  0  0  0  0  0  0  0
   32.5868   13.5498   -5.3973 O   0  0  0  0  0  0  0  0  0  0  0  0
   33.5457   14.9300   -2.9260 H   0  0  0  0  0  0  0  0  0  0  0  0
   32.5573   16.0748   -3.8208 H   0  0  0  0  0  0  0  0  0  0  0  0
   36.0725   14.0816  -12.7126 C   0  0  0  0  0  0  0  0  0  0  0  0
   36.5223   14.4335  -11.6633 C   0  0  0  0  0  0  0  0  0  0  0  0
   35.5944   13.6154  -14.0049 C   0  0  0  0  0  0  0  0  0  0  0  0
   34.2590   12.8748  -13.8324 C   0  0  0  0  0  0  0  0  0  0  0  0
   35.2320   14.7274  -14.8234 O   0  0  0  0  0  0  0  0  0  0  0  0
   35.0902   15.4681  -14.1830 H   0  0  0  0  0  0  0  0  0  0  0  0
   38.0758   11.0508  -17.4759 C   0  0  0  0  0  0  0  0  0  0  0  0
   37.6566   11.6634  -16.1922 C   0  0  0  0  0  0  0  0  0  0  0  0
   36.5436   12.4367  -15.9980 C   0  0  0  0  0  0  0  0  0  0  0  0
   36.5879   12.7781  -14.6563 C   0  0  0  0  0  0  0  0  0  0  0  0
   37.6741   12.2129  -14.1414 N   0  0  0  0  0  0  0  0  0  0  0  0
   38.3059   11.5490  -15.0553 O   0  0  0  0  0  0  0  0  0  0  0  0
 28 29  1  0  0  0
 29 30  2  0  0  0
 30 31  1  0  0  0
 31 32  2  0  0  0
 32 33  1  0  0  0
 31 24  1  0  0  0
 24 25  1  0  0  0
 24 26  1  0  0  0
 24 22  1  0  0  0
 22 23  3  0  0  0
 23  1  1  0  0  0
  1  2  2  0  0  0
  2  3  1  0  0  0
  3  4  2  0  0  0
  4  5  1  0  0  0
  5  6  1  0  0  0
  6  7  1  0  0  0
  7  8  1  0  0  0
  7  9  1  0  0  0
  9 10  2  0  0  0
 10 11  1  0  0  0
 11 12  2  0  0  0
 12 13  1  0  0  0
 13 14  1  0  0  0
 14 15  2  0  0  0
 11 17  1  0  0  0
 17 18  1  0  0  0
 17 19  2  0  0  0
 33 29  1  0  0  0
 15  1  1  0  0  0
 14  4  1  0  0  0
 13  9  1  0  0  0
 26 27  1  0  0  0
  8 16  1  0  0  0
 18 20  1  0  0  0
 18 21  1  0  0  0
M  END
> <minimizedAffinity>
-8.36094

> <CNNscore>
0.1769569367

> <CNNaffinity>
5.2263016701

> <CNN_VS>
0.9248303175

> <CNNaffinity_variance>
0.1714090109

$$$$
[H]O[C@@]1([H])c2c([H])c(C(=O)N([H])[H])nn2-c2c([H])c(C#C[C@@](O[H])(c3noc(C([H])([H])[H])c3[H])C([H])([H])[H])c([H])c([H])c2OC1([H])[H]


 33 36  0  0  0  0  0  0  0  0999 V2000
   40.2078   13.2873  -14.9958 C   0  0  0  0  0  0  0  0  0  0  0  0
   40.4706   12.6342  -16.2154 C   0  0  0  0  0  0  0  0  0  0  0  0
   41.7509   12.4739  -16.7122 C   0  0  0  0  0  0  0  0  0  0  0  0
   42.8027   12.9521  -16.0170 C   0  0  0  0  0  0  0  0  0  0  0  0
   44.0562   12.7476  -16.5722 O   0  0  0  0  0  0  0  0  0  0  0  0
   45.3298   12.5911  -15.9835 C   0  0  0  0  0  0  0  0  0  0  0  0
   45.3257   12.3871  -14.4917 C   0  0  0  0  0  0  0  0  0  0  0  0
   46.6598   12.2650  -14.0929 O   0  0  0  0  0  0  0  0  0  0  0  0
   44.7600   13.5699  -13.7543 C   0  0  0  0  0  0  0  0  0  0  0  0
   45.4173   14.3130  -12.8078 C   0  0  0  0  0  0  0  0  0  0  0  0
   44.4885   15.3116  -12.4583 C   0  0  0  0  0  0  0  0  0  0  0  0
   43.3473   15.1671  -13.1508 N   0  0  0  0  0  0  0  0  0  0  0  0
   43.5234   14.1277  -13.9154 N   0  0  0  0  0  0  0  0  0  0  0  0
   42.5460   13.5982  -14.8112 C   0  0  0  0  0  0  0  0  0  0  0  0
   41.2696   13.7730  -14.2938 C   0  0  0  0  0  0  0  0  0  0  0  0
   47.1944   12.8424  -14.7146 H   0  0  0  0  0  0  0  0  0  0  0  0
   44.8657   16.2898  -11.4342 C   0  0  0  0  0  0  0  0  0  0  0  0
   46.1472   16.9115  -11.5232 N   0  0  0  0  0  0  0  0  0  0  0  0
   44.0933   16.5613  -10.4920 O   0  0  0  0  0  0  0  0  0  0  0  0
   46.9879   16.3179  -11.1948 H   0  0  0  0  0  0  0  0  0  0  0  0
   46.4143   17.8484  -11.8405 H   0  0  0  0  0  0  0  0  0  0  0  0
   37.7328   13.5131  -14.1322 C   0  0  0  0  0  0  0  0  0  0  0  0
   38.8534   13.3749  -14.5226 C   0  0  0  0  0  0  0  0  0  0  0  0
   36.3804   13.7608  -13.6572 C   0  0  0  0  0  0  0  0  0  0  0  0
   36.3115   13.5425  -12.1376 C   0  0  0  0  0  0  0  0  0  0  0  0
   36.0608   15.1459  -13.7890 O   0  0  0  0  0  0  0  0  0  0  0  0
   36.9398   15.5964  -13.8482 H   0  0  0  0  0  0  0  0  0  0  0  0
   34.3867   10.5375  -16.8848 C   0  0  0  0  0  0  0  0  0  0  0  0
   34.5713   11.5117  -15.7822 C   0  0  0  0  0  0  0  0  0  0  0  0
   35.7468   12.1261  -15.4430 C   0  0  0  0  0  0  0  0  0  0  0  0
   35.4207   12.9253  -14.3597 C   0  0  0  0  0  0  0  0  0  0  0  0
   34.1248   12.7572  -14.1217 N   0  0  0  0  0  0  0  0  0  0  0  0
   33.6218   11.9190  -14.9699 O   0  0  0  0  0  0  0  0  0  0  0  0
 28 29  1  0  0  0
 29 30  2  0  0  0
 30 31  1  0  0  0
 31 32  2  0  0  0
 32 33  1  0  0  0
 31 24  1  0  0  0
 24 25  1  0  0  0
 24 26  1  0  0  0
 24 22  1  0  0  0
 22 23  3  0  0  0
 23  1  1  0  0  0
  1  2  2  0  0  0
  2  3  1  0  0  0
  3  4  2  0  0  0
  4  5  1  0  0  0
  5  6  1  0  0  0
  6  7  1  0  0  0
  7  8  1  0  0  0
  7  9  1  0  0  0
  9 10  2  0  0  0
 10 11  1  0  0  0
 11 12  2  0  0  0
 12 13  1  0  0  0
 13 14  1  0  0  0
 14 15  2  0  0  0
 11 17  1  0  0  0
 17 18  1  0  0  0
 17 19  2  0  0  0
 33 29  1  0  0  0
 15  1  1  0  0  0
 14  4  1  0  0  0
 13  9  1  0  0  0
 26 27  1  0  0  0
  8 16  1  0  0  0
 18 20  1  0  0  0
 18 21  1  0  0  0
M  END
> <minimizedAffinity>
-8.57042

> <CNNscore>
0.1618686318

> <CNNaffinity>
6.0002398491

> <CNN_VS>
0.9712505937

> <CNNaffinity_variance>
0.0880104154

$$$$
[H]O[C@@]1([H])c2c([H])c(C(=O)N([H])[H])nn2-c2c([H])c(C#C[C@@](O[H])(c3noc(C([H])([H])[H])c3[H])C([H])([H])[H])c([H])c([H])c2OC1([H])[H]


 33 36  0  0  0  0  0  0  0  0999 V2000
   42.1377   14.6021  -13.1534 C   0  0  0  0  0  0  0  0  0  0  0  0
   41.5062   15.5774  -12.3577 C   0  0  0  0  0  0  0  0  0  0  0  0
   40.1452   15.8146  -12.4129 C   0  0  0  0  0  0  0  0  0  0  0  0
   39.3744   15.0944  -13.2527 C   0  0  0  0  0  0  0  0  0  0  0  0
   38.0183   15.3815  -13.2481 O   0  0  0  0  0  0  0  0  0  0  0  0
   36.8878   14.5795  -13.5158 C   0  0  0  0  0  0  0  0  0  0  0  0
   37.1582   13.1013  -13.6098 C   0  0  0  0  0  0  0  0  0  0  0  0
   35.9373   12.4799  -13.8878 O   0  0  0  0  0  0  0  0  0  0  0  0
   38.0855   12.7605  -14.7443 C   0  0  0  0  0  0  0  0  0  0  0  0
   37.7967   11.9235  -15.7912 C   0  0  0  0  0  0  0  0  0  0  0  0
   38.9558   11.9689  -16.5888 C   0  0  0  0  0  0  0  0  0  0  0  0
   39.8788   12.7790  -16.0460 N   0  0  0  0  0  0  0  0  0  0  0  0
   39.3476   13.2408  -14.9503 N   0  0  0  0  0  0  0  0  0  0  0  0
   39.9959   14.1297  -14.0404 C   0  0  0  0  0  0  0  0  0  0  0  0
   41.3602   13.8755  -14.0039 C   0  0  0  0  0  0  0  0  0  0  0  0
   35.4109   13.1276  -14.4438 H   0  0  0  0  0  0  0  0  0  0  0  0
   38.9979   11.1567  -17.8081 C   0  0  0  0  0  0  0  0  0  0  0  0
   40.2198   11.0908  -18.5425 N   0  0  0  0  0  0  0  0  0  0  0  0
   37.9834   10.5502  -18.2093 O   0  0  0  0  0  0  0  0  0  0  0  0
   40.4486   11.9448  -19.1631 H   0  0  0  0  0  0  0  0  0  0  0  0
   40.9287   10.3529  -18.5943 H   0  0  0  0  0  0  0  0  0  0  0  0
   44.7341   14.2634  -12.8948 C   0  0  0  0  0  0  0  0  0  0  0  0
   43.5507   14.3820  -13.0068 C   0  0  0  0  0  0  0  0  0  0  0  0
   46.1823   14.1971  -12.7758 C   0  0  0  0  0  0  0  0  0  0  0  0
   46.7406   15.5798  -12.4048 C   0  0  0  0  0  0  0  0  0  0  0  0
   46.5454   13.4003  -11.6483 O   0  0  0  0  0  0  0  0  0  0  0  0
   45.7353   13.3949  -11.0801 H   0  0  0  0  0  0  0  0  0  0  0  0
   49.3673   13.4704  -16.5322 C   0  0  0  0  0  0  0  0  0  0  0  0
   48.1917   13.3896  -15.6320 C   0  0  0  0  0  0  0  0  0  0  0  0
   48.0035   14.1220  -14.4906 C   0  0  0  0  0  0  0  0  0  0  0  0
   46.7824   13.6908  -13.9990 C   0  0  0  0  0  0  0  0  0  0  0  0
   46.3237   12.7678  -14.8369 N   0  0  0  0  0  0  0  0  0  0  0  0
   47.1616   12.5927  -15.8078 O   0  0  0  0  0  0  0  0  0  0  0  0
 28 29  1  0  0  0
 29 30  2  0  0  0
 30 31  1  0  0  0
 31 32  2  0  0  0
 32 33  1  0  0  0
 31 24  1  0  0  0
 24 25  1  0  0  0
 24 26  1  0  0  0
 24 22  1  0  0  0
 22 23  3  0  0  0
 23  1  1  0  0  0
  1  2  2  0  0  0
  2  3  1  0  0  0
  3  4  2  0  0  0
  4  5  1  0  0  0
  5  6  1  0  0  0
  6  7  1  0  0  0
  7  8  1  0  0  0
  7  9  1  0  0  0
  9 10  2  0  0  0
 10 11  1  0  0  0
 11 12  2  0  0  0
 12 13  1  0  0  0
 13 14  1  0  0  0
 14 15  2  0  0  0
 11 17  1  0  0  0
 17 18  1  0  0  0
 17 19  2  0  0  0
 33 29  1  0  0  0
 15  1  1  0  0  0
 14  4  1  0  0  0
 13  9  1  0  0  0
 26 27  1  0  0  0
  8 16  1  0  0  0
 18 20  1  0  0  0
 18 21  1  0  0  0
M  END
> <minimizedAffinity>
-8.04831

> <CNNscore>
0.1447791606

> <CNNaffinity>
5.8610663414

> <CNN_VS>
0.8485602736

> <CNNaffinity_variance>
0.1556139886

$$$$
[H]O[C@@]1([H])c2c([H])c(C(=O)N([H])[H])nn2-c2c([H])c(C#C[C@@](O[H])(c3noc(C([H])([H])[H])c3[H])C([H])([H])[H])c([H])c([H])c2OC1([H])[H]


 33 36  0  0  0  0  0  0  0  0999 V2000
   40.1295   13.1289  -14.7385 C   0  0  0  0  0  0  0  0  0  0  0  0
   39.7307   12.3848  -15.8656 C   0  0  0  0  0  0  0  0  0  0  0  0
   38.4126   12.0403  -16.1007 C   0  0  0  0  0  0  0  0  0  0  0  0
   37.4560   12.4231  -15.2309 C   0  0  0  0  0  0  0  0  0  0  0  0
   36.1565   12.0490  -15.5357 O   0  0  0  0  0  0  0  0  0  0  0  0
   34.9131   12.6502  -15.2433 C   0  0  0  0  0  0  0  0  0  0  0  0
   34.9911   14.0521  -14.6994 C   0  0  0  0  0  0  0  0  0  0  0  0
   33.6789   14.4713  -14.4621 O   0  0  0  0  0  0  0  0  0  0  0  0
   35.7106   14.1143  -13.3798 C   0  0  0  0  0  0  0  0  0  0  0  0
   35.1866   14.5840  -12.2030 C   0  0  0  0  0  0  0  0  0  0  0  0
   36.2253   14.3942  -11.2719 C   0  0  0  0  0  0  0  0  0  0  0  0
   37.3024   13.8502  -11.8607 N   0  0  0  0  0  0  0  0  0  0  0  0
   36.9817   13.6910  -13.1129 N   0  0  0  0  0  0  0  0  0  0  0  0
   37.8472   13.1587  -14.1159 C   0  0  0  0  0  0  0  0  0  0  0  0
   39.1641   13.5141  -13.8578 C   0  0  0  0  0  0  0  0  0  0  0  0
   33.1633   13.6516  -14.2014 H   0  0  0  0  0  0  0  0  0  0  0  0
   36.0067   14.8146   -9.8850 C   0  0  0  0  0  0  0  0  0  0  0  0
   34.6988   15.2335   -9.4969 N   0  0  0  0  0  0  0  0  0  0  0  0
   36.9461   14.8262   -9.0632 O   0  0  0  0  0  0  0  0  0  0  0  0
   34.4117   16.2321   -9.7924 H   0  0  0  0  0  0  0  0  0  0  0  0
   33.9719   14.7457   -8.9644 H   0  0  0  0  0  0  0  0  0  0  0  0
   42.6651   13.7478  -14.4062 C   0  0  0  0  0  0  0  0  0  0  0  0
   41.5131   13.4877  -14.5862 C   0  0  0  0  0  0  0  0  0  0  0  0
   44.0647   14.0211  -14.1195 C   0  0  0  0  0  0  0  0  0  0  0  0
   44.9196   13.7320  -15.3633 C   0  0  0  0  0  0  0  0  0  0  0  0
   44.2605   15.4216  -13.9240 O   0  0  0  0  0  0  0  0  0  0  0  0
   43.4780   15.8422  -14.3595 H   0  0  0  0  0  0  0  0  0  0  0  0
   46.9382   11.3577  -11.0483 C   0  0  0  0  0  0  0  0  0  0  0  0
   45.7960   12.0925  -11.6434 C   0  0  0  0  0  0  0  0  0  0  0  0
   45.7863   12.7046  -12.8680 C   0  0  0  0  0  0  0  0  0  0  0  0
   44.5197   13.2559  -12.9705 C   0  0  0  0  0  0  0  0  0  0  0  0
   43.8669   12.9543  -11.8537 N   0  0  0  0  0  0  0  0  0  0  0  0
   44.6264   12.2608  -11.0680 O   0  0  0  0  0  0  0  0  0  0  0  0
 28 29  1  0  0  0
 29 30  2  0  0  0
 30 31  1  0  0  0
 31 32  2  0  0  0
 32 33  1  0  0  0
 31 24  1  0  0  0
 24 25  1  0  0  0
 24 26  1  0  0  0
 24 22  1  0  0  0
 22 23  3  0  0  0
 23  1  1  0  0  0
  1  2  2  0  0  0
  2  3  1  0  0  0
  3  4  2  0  0  0
  4  5  1  0  0  0
  5  6  1  0  0  0
  6  7  1  0  0  0
  7  8  1  0  0  0
  7  9  1  0  0  0
  9 10  2  0  0  0
 10 11  1  0  0  0
 11 12  2  0  0  0
 12 13  1  0  0  0
 13 14  1  0  0  0
 14 15  2  0  0  0
 11 17  1  0  0  0
 17 18  1  0  0  0
 17 19  2  0  0  0
 33 29  1  0  0  0
 15  1  1  0  0  0
 14  4  1  0  0  0
 13  9  1  0  0  0
 26 27  1  0  0  0
  8 16  1  0  0  0
 18 20  1  0  0  0
 18 21  1  0  0  0
M  END
> <minimizedAffinity>
-8.25653

> <CNNscore>
0.1414691061

> <CNNaffinity>
5.8514151573

> <CNN_VS>
0.8277944922

> <CNNaffinity_variance>
0.0672170445

$$$$
[H]OC([H])([H])[C@]1(C([H])([H])[H])c2c([H])c(-c3nc(N([H])c4c([H])c(C(=O)N([H])C([H])([H])[H])c([H])c([H])c4C([H])([H])[H])nc([H])c3[H])c([H])c(C#N)c2N([H])C1([H])[H]


 36 39  0  0  0  0  0  0  0  0999 V2000
   40.7112   12.0467  -17.6949 C   0  0  0  0  0  0  0  0  0  0  0  0
   40.7039   11.2987  -18.7977 N   0  0  0  0  0  0  0  0  0  0  0  0
   39.6429   10.6802  -19.3050 C   0  0  0  0  0  0  0  0  0  0  0  0
   38.4176   10.8133  -18.6382 C   0  0  0  0  0  0  0  0  0  0  0  0
   38.3757   11.5765  -17.4941 C   0  0  0  0  0  0  0  0  0  0  0  0
   39.5058   12.1534  -17.0748 N   0  0  0  0  0  0  0  0  0  0  0  0
   37.1155   11.7471  -16.7587 C   0  0  0  0  0  0  0  0  0  0  0  0
   37.0104   12.4590  -15.5967 C   0  0  0  0  0  0  0  0  0  0  0  0
   35.8097   12.6192  -14.8996 C   0  0  0  0  0  0  0  0  0  0  0  0
   34.6764   12.0303  -15.4102 C   0  0  0  0  0  0  0  0  0  0  0  0
   33.5870   12.3348  -14.5432 N   0  0  0  0  0  0  0  0  0  0  0  0
   33.9520   13.4990  -13.7642 C   0  0  0  0  0  0  0  0  0  0  0  0
   35.4436   13.3126  -13.6549 C   0  0  0  0  0  0  0  0  0  0  0  0
   35.6977   12.3703  -12.5017 C   0  0  0  0  0  0  0  0  0  0  0  0
   34.7485   11.2931  -16.5995 C   0  0  0  0  0  0  0  0  0  0  0  0
   35.9610   11.1677  -17.2456 C   0  0  0  0  0  0  0  0  0  0  0  0
   32.7057   11.8120  -14.4913 H   0  0  0  0  0  0  0  0  0  0  0  0
   36.1710   14.6245  -13.4818 C   0  0  0  0  0  0  0  0  0  0  0  0
   36.8755   14.5338  -12.2703 O   0  0  0  0  0  0  0  0  0  0  0  0
   36.5623   15.2017  -11.6117 H   0  0  0  0  0  0  0  0  0  0  0  0
   33.5486   10.6753  -17.1303 C   0  0  0  0  0  0  0  0  0  0  0  0
   32.5850   10.1932  -17.5565 N   0  0  0  0  0  0  0  0  0  0  0  0
   41.8438   12.6966  -17.1684 N   0  0  0  0  0  0  0  0  0  0  0  0
   42.6474   12.8095  -17.8825 H   0  0  0  0  0  0  0  0  0  0  0  0
   41.4317   14.4025  -13.8821 C   0  0  0  0  0  0  0  0  0  0  0  0
   42.7068   14.1498  -13.3638 C   0  0  0  0  0  0  0  0  0  0  0  0
   43.6365   13.4590  -14.0633 C   0  0  0  0  0  0  0  0  0  0  0  0
   43.3314   12.9885  -15.3166 C   0  0  0  0  0  0  0  0  0  0  0  0
   44.3518   12.2241  -16.0978 C   0  0  0  0  0  0  0  0  0  0  0  0
   42.0762   13.1976  -15.9114 C   0  0  0  0  0  0  0  0  0  0  0  0
   41.1697   13.9118  -15.1426 C   0  0  0  0  0  0  0  0  0  0  0  0
   39.7442   16.1788  -10.9316 C   0  0  0  0  0  0  0  0  0  0  0  0
   40.7106   15.4315  -11.7338 N   0  0  0  0  0  0  0  0  0  0  0  0
   40.4662   15.1456  -13.0888 C   0  0  0  0  0  0  0  0  0  0  0  0
   39.3785   15.5553  -13.5956 O   0  0  0  0  0  0  0  0  0  0  0  0
   41.5615   15.1372  -11.2377 H   0  0  0  0  0  0  0  0  0  0  0  0
 32 33  1  0  0  0
 33 34  1  0  0  0
 34 35  2  0  0  0
 34 25  1  0  0  0
 25 26  2  0  0  0
 26 27  1  0  0  0
 27 28  2  0  0  0
 28 29  1  0  0  0
 28 30  1  0  0  0
 30 23  1  0  0  0
 23  1  1  0  0  0
  1  2  2  0  0  0
  2  3  1  0  0  0
  3  4  2  0  0  0
  4  5  1  0  0  0
  5  6  2  0  0  0
  5  7  1  0  0  0
  7  8  2  0  0  0
  8  9  1  0  0  0
  9 10  2  0  0  0
 10 11  1  0  0  0
 11 12  1  0  0  0
 12 13  1  0  0  0
 13 14  1  0  0  0
 13 18  1  0  0  0
 18 19  1  0  0  0
 10 15  1  0  0  0
 15 16  2  0  0  0
 15 21  1  0  0  0
 21 22  3  0  0  0
 30 31  2  0  0  0
 31 25  1  0  0  0
  6  1  1  0  0  0
 16  7  1  0  0  0
 13  9  1  0  0  0
 33 36  1  0  0  0
 23 24  1  0  0  0
 11 17  1  0  0  0
 19 20  1  0  0  0
M  END
> <minimizedAffinity>
-10.52239

> <CNNscore>
0.9953069687

> <CNNaffinity>
8.3443117142

> <CNN_VS>
8.3051519394

> <CNNaffinity_variance>
0.1071279272

$$$$
[H]OC([H])([H])[C@]1(C([H])([H])[H])c2c([H])c(-c3nc(N([H])c4c([H])c(C(=O)N([H])C([H])([H])[H])c([H])c([H])c4C([H])([H])[H])nc([H])c3[H])c([H])c(C#N)c2N([H])C1([H])[H]


 36 39  0  0  0  0  0  0  0  0999 V2000
   38.2925   11.5464  -16.7488 C   0  0  0  0  0  0  0  0  0  0  0  0
   38.9298   11.2269  -17.8747 N   0  0  0  0  0  0  0  0  0  0  0  0
   40.1874   11.5409  -18.1666 C   0  0  0  0  0  0  0  0  0  0  0  0
   40.9236   12.2702  -17.2232 C   0  0  0  0  0  0  0  0  0  0  0  0
   40.3076   12.6233  -16.0446 C   0  0  0  0  0  0  0  0  0  0  0  0
   39.0373   12.2533  -15.8574 N   0  0  0  0  0  0  0  0  0  0  0  0
   41.0363   13.3877  -15.0236 C   0  0  0  0  0  0  0  0  0  0  0  0
   42.3898   13.3139  -14.8486 C   0  0  0  0  0  0  0  0  0  0  0  0
   43.0797   14.0428  -13.8760 C   0  0  0  0  0  0  0  0  0  0  0  0
   42.3589   14.8770  -13.0536 C   0  0  0  0  0  0  0  0  0  0  0  0
   43.2670   15.5138  -12.1586 N   0  0  0  0  0  0  0  0  0  0  0  0
   44.5905   15.4357  -12.7396 C   0  0  0  0  0  0  0  0  0  0  0  0
   44.4963   14.1316  -13.4892 C   0  0  0  0  0  0  0  0  0  0  0  0
   44.7832   13.0227  -12.5041 C   0  0  0  0  0  0  0  0  0  0  0  0
   40.9696   14.9766  -13.2055 C   0  0  0  0  0  0  0  0  0  0  0  0
   40.3406   14.2332  -14.1828 C   0  0  0  0  0  0  0  0  0  0  0  0
   43.0129   15.9467  -11.2638 H   0  0  0  0  0  0  0  0  0  0  0  0
   45.4293   14.0872  -14.6757 C   0  0  0  0  0  0  0  0  0  0  0  0
   45.2942   15.3191  -15.3364 O   0  0  0  0  0  0  0  0  0  0  0  0
   44.9402   15.2080  -16.2530 H   0  0  0  0  0  0  0  0  0  0  0  0
   40.2175   15.8583  -12.3337 C   0  0  0  0  0  0  0  0  0  0  0  0
   39.6153   16.5533  -11.6287 N   0  0  0  0  0  0  0  0  0  0  0  0
   36.9585   11.2069  -16.4526 N   0  0  0  0  0  0  0  0  0  0  0  0
   36.6072   10.3341  -16.9847 H   0  0  0  0  0  0  0  0  0  0  0  0
   35.4415   13.2196  -13.7090 C   0  0  0  0  0  0  0  0  0  0  0  0
   34.0960   12.9469  -13.9808 C   0  0  0  0  0  0  0  0  0  0  0  0
   33.7240   12.1477  -15.0074 C   0  0  0  0  0  0  0  0  0  0  0  0
   34.6841   11.5837  -15.8105 C   0  0  0  0  0  0  0  0  0  0  0  0
   34.2834   10.6990  -16.9474 C   0  0  0  0  0  0  0  0  0  0  0  0
   36.0563   11.8049  -15.6079 C   0  0  0  0  0  0  0  0  0  0  0  0
   36.3701   12.6325  -14.5405 C   0  0  0  0  0  0  0  0  0  0  0  0
   36.0929   16.3669  -11.6167 C   0  0  0  0  0  0  0  0  0  0  0  0
   35.7449   15.4880  -12.7313 N   0  0  0  0  0  0  0  0  0  0  0  0
   35.7897   14.0889  -12.5970 C   0  0  0  0  0  0  0  0  0  0  0  0
   36.1434   13.6106  -11.4772 O   0  0  0  0  0  0  0  0  0  0  0  0
   35.4738   15.9648  -13.6007 H   0  0  0  0  0  0  0  0  0  0  0  0
 32 33  1  0  0  0
 33 34  1  0  0  0
 34 35  2  0  0  0
 34 25  1  0  0  0
 25 26  2  0  0  0
 26 27  1  0  0  0
 27 28  2  0  0  0
 28 29  1  0  0  0
 28 30  1  0  0  0
 30 23  1  0  0  0
 23  1  1  0  0  0
  1  2  2  0  0  0
  2  3  1  0  0  0
  3  4  2  0  0  0
  4  5  1  0  0  0
  5  6  2  0  0  0
  5  7  1  0  0  0
  7  8  2  0  0  0
  8  9  1  0  0  0
  9 10  2  0  0  0
 10 11  1  0  0  0
 11 12  1  0  0  0
 12 13  1  0  0  0
 13 14  1  0  0  0
 13 18  1  0  0  0
 18 19  1  0  0  0
 10 15  1  0  0  0
 15 16  2  0  0  0
 15 21  1  0  0  0
 21 22  3  0  0  0
 30 31  2  0  0  0
 31 25  1  0  0  0
  6  1  1  0  0  0
 16  7  1  0  0  0
 13  9  1  0  0  0
 33 36  1  0  0  0
 23 24  1  0  0  0
 11 17  1  0  0  0
 19 20  1  0  0  0
M  END
> <minimizedAffinity>
-10.26486

> <CNNscore>
0.7134313583

> <CNNaffinity>
7.5070366859

> <CNN_VS>
5.3557553291

> <CNNaffinity_variance>
0.1452437788

$$$$
[H]OC([H])([H])[C@]1(C([H])([H])[H])c2c([H])c(-c3nc(N([H])c4c([H])c(C(=O)N([H])C([H])([H])[H])c([H])c([H])c4C([H])([H])[H])nc([H])c3[H])c([H])c(C#N)c2N([H])C1([H])[H]


 36 39  0  0  0  0  0  0  0  0999 V2000
   37.5907   15.1591  -13.1245 C   0  0  0  0  0  0  0  0  0  0  0  0
   38.0070   15.7486  -12.0043 N   0  0  0  0  0  0  0  0  0  0  0  0
   39.2682   15.8229  -11.5928 C   0  0  0  0  0  0  0  0  0  0  0  0
   40.2604   15.2377  -12.3907 C   0  0  0  0  0  0  0  0  0  0  0  0
   39.8786   14.6168  -13.5578 C   0  0  0  0  0  0  0  0  0  0  0  0
   38.5801   14.6026  -13.8731 N   0  0  0  0  0  0  0  0  0  0  0  0
   40.8805   13.9883  -14.4291 C   0  0  0  0  0  0  0  0  0  0  0  0
   42.2138   13.9390  -14.1325 C   0  0  0  0  0  0  0  0  0  0  0  0
   43.1642   13.3401  -14.9639 C   0  0  0  0  0  0  0  0  0  0  0  0
   42.7348   12.7712  -16.1403 C   0  0  0  0  0  0  0  0  0  0  0  0
   43.8672   12.2218  -16.8088 N   0  0  0  0  0  0  0  0  0  0  0  0
   44.9134   12.0323  -15.8265 C   0  0  0  0  0  0  0  0  0  0  0  0
   44.6225   13.1666  -14.8778 C   0  0  0  0  0  0  0  0  0  0  0  0
   45.2758   14.4063  -15.4422 C   0  0  0  0  0  0  0  0  0  0  0  0
   41.3747   12.8041  -16.4755 C   0  0  0  0  0  0  0  0  0  0  0  0
   40.4805   13.4092  -15.6166 C   0  0  0  0  0  0  0  0  0  0  0  0
   43.9174   12.0044  -17.8103 H   0  0  0  0  0  0  0  0  0  0  0  0
   45.0932   12.8706  -13.4738 C   0  0  0  0  0  0  0  0  0  0  0  0
   46.2261   12.0498  -13.5971 O   0  0  0  0  0  0  0  0  0  0  0  0
   46.0807   11.1590  -13.1931 H   0  0  0  0  0  0  0  0  0  0  0  0
   40.9309   12.2022  -17.7180 C   0  0  0  0  0  0  0  0  0  0  0  0
   40.5642   11.7235  -18.7074 N   0  0  0  0  0  0  0  0  0  0  0  0
   36.2500   15.0878  -13.5485 N   0  0  0  0  0  0  0  0  0  0  0  0
   35.7159   16.0224  -13.4497 H   0  0  0  0  0  0  0  0  0  0  0  0
   35.2355   12.0911  -15.5159 C   0  0  0  0  0  0  0  0  0  0  0  0
   33.9497   11.9303  -14.9875 C   0  0  0  0  0  0  0  0  0  0  0  0
   33.4583   12.7642  -14.0419 C   0  0  0  0  0  0  0  0  0  0  0  0
   34.2334   13.7994  -13.5810 C   0  0  0  0  0  0  0  0  0  0  0  0
   33.6996   14.7264  -12.5363 C   0  0  0  0  0  0  0  0  0  0  0  0
   35.5342   14.0324  -14.0572 C   0  0  0  0  0  0  0  0  0  0  0  0
   35.9776   13.1428  -15.0242 C   0  0  0  0  0  0  0  0  0  0  0  0
   37.4811   10.4021  -18.1260 C   0  0  0  0  0  0  0  0  0  0  0  0
   36.9888   11.3299  -17.1097 N   0  0  0  0  0  0  0  0  0  0  0  0
   35.7195   11.1655  -16.5271 C   0  0  0  0  0  0  0  0  0  0  0  0
   35.0117   10.1863  -16.9116 O   0  0  0  0  0  0  0  0  0  0  0  0
   37.6298   12.0950  -16.8637 H   0  0  0  0  0  0  0  0  0  0  0  0
 32 33  1  0  0  0
 33 34  1  0  0  0
 34 35  2  0  0  0
 34 25  1  0  0  0
 25 26  2  0  0  0
 26 27  1  0  0  0
 27 28  2  0  0  0
 28 29  1  0  0  0
 28 30  1  0  0  0
 30 23  1  0  0  0
 23  1  1  0  0  0
  1  2  2  0  0  0
  2  3  1  0  0  0
  3  4  2  0  0  0
  4  5  1  0  0  0
  5  6  2  0  0  0
  5  7  1  0  0  0
  7  8  2  0  0  0
  8  9  1  0  0  0
  9 10  2  0  0  0
 10 11  1  0  0  0
 11 12  1  0  0  0
 12 13  1  0  0  0
 13 14  1  0  0  0
 13 18  1  0  0  0
 18 19  1  0  0  0
 10 15  1  0  0  0
 15 16  2  0  0  0
 15 21  1  0  0  0
 21 22  3  0  0  0
 30 31  2  0  0  0
 31 25  1  0  0  0
  6  1  1  0  0  0
 16  7  1  0  0  0
 13  9  1  0  0  0
 33 36  1  0  0  0
 23 24  1  0  0  0
 11 17  1  0  0  0
 19 20  1  0  0  0
M  END
> <minimizedAffinity>
-9.69129

> <CNNscore>
0.6010040641

> <CNNaffinity>
7.4855141640

> <CNN_VS>
4.4988245964

> <CNNaffinity_variance>
0.0951446146

$$$$
[H]OC([H])([H])[C@]1(C([H])([H])[H])c2c([H])c(-c3nc(N([H])c4c([H])c(C(=O)N([H])C([H])([H])[H])c([H])c([H])c4C([H])([H])[H])nc([H])c3[H])c([H])c(C#N)c2N([H])C1([H])[H]


 36 39  0  0  0  0  0  0  0  0999 V2000
   36.2540   11.5831  -15.8826 C   0  0  0  0  0  0  0  0  0  0  0  0
   35.1286   11.1419  -16.4436 N   0  0  0  0  0  0  0  0  0  0  0  0
   33.8972   11.4534  -16.0539 C   0  0  0  0  0  0  0  0  0  0  0  0
   33.7475   12.3183  -14.9615 C   0  0  0  0  0  0  0  0  0  0  0  0
   34.8816   12.8001  -14.3492 C   0  0  0  0  0  0  0  0  0  0  0  0
   36.0703   12.4195  -14.8264 N   0  0  0  0  0  0  0  0  0  0  0  0
   34.7782   13.7096  -13.2003 C   0  0  0  0  0  0  0  0  0  0  0  0
   35.8561   14.1366  -12.4765 C   0  0  0  0  0  0  0  0  0  0  0  0
   35.7539   15.0021  -11.3839 C   0  0  0  0  0  0  0  0  0  0  0  0
   34.5043   15.4466  -11.0194 C   0  0  0  0  0  0  0  0  0  0  0  0
   34.6496   16.3140   -9.8980 N   0  0  0  0  0  0  0  0  0  0  0  0
   36.0206   16.7778   -9.8707 C   0  0  0  0  0  0  0  0  0  0  0  0
   36.7357   15.5884  -10.4584 C   0  0  0  0  0  0  0  0  0  0  0  0
   36.9696   14.6029   -9.3376 C   0  0  0  0  0  0  0  0  0  0  0  0
   33.3776   15.0284  -11.7396 C   0  0  0  0  0  0  0  0  0  0  0  0
   33.5377   14.1726  -12.8100 C   0  0  0  0  0  0  0  0  0  0  0  0
   33.9050   16.5573   -9.2355 H   0  0  0  0  0  0  0  0  0  0  0  0
   38.0233   15.9788  -11.1439 C   0  0  0  0  0  0  0  0  0  0  0  0
   38.8954   14.8863  -11.0077 O   0  0  0  0  0  0  0  0  0  0  0  0
   39.6979   15.1199  -10.4792 H   0  0  0  0  0  0  0  0  0  0  0  0
   32.0639   15.5017  -11.3481 C   0  0  0  0  0  0  0  0  0  0  0  0
   31.0198   15.8890  -11.0281 N   0  0  0  0  0  0  0  0  0  0  0  0
   37.5533   11.2445  -16.3063 N   0  0  0  0  0  0  0  0  0  0  0  0
   37.6224   10.2558  -16.7378 H   0  0  0  0  0  0  0  0  0  0  0  0
   40.2878   13.5202  -15.2003 C   0  0  0  0  0  0  0  0  0  0  0  0
   41.1363   13.3643  -16.3022 C   0  0  0  0  0  0  0  0  0  0  0  0
   40.8163   12.5565  -17.3395 C   0  0  0  0  0  0  0  0  0  0  0  0
   39.6296   11.8664  -17.3211 C   0  0  0  0  0  0  0  0  0  0  0  0
   39.2667   10.9713  -18.4625 C   0  0  0  0  0  0  0  0  0  0  0  0
   38.7206   11.9654  -16.2548 C   0  0  0  0  0  0  0  0  0  0  0  0
   39.1081   12.8088  -15.2244 C   0  0  0  0  0  0  0  0  0  0  0  0
   42.2280   15.0074  -12.2453 C   0  0  0  0  0  0  0  0  0  0  0  0
   41.8290   14.1298  -13.3437 N   0  0  0  0  0  0  0  0  0  0  0  0
   40.6792   14.3965  -14.1082 C   0  0  0  0  0  0  0  0  0  0  0  0
   39.9958   15.4234  -13.8149 O   0  0  0  0  0  0  0  0  0  0  0  0
   42.4413   13.3201  -13.5058 H   0  0  0  0  0  0  0  0  0  0  0  0
 32 33  1  0  0  0
 33 34  1  0  0  0
 34 35  2  0  0  0
 34 25  1  0  0  0
 25 26  2  0  0  0
 26 27  1  0  0  0
 27 28  2  0  0  0
 28 29  1  0  0  0
 28 30  1  0  0  0
 30 23  1  0  0  0
 23  1  1  0  0  0
  1  2  2  0  0  0
  2  3  1  0  0  0
  3  4  2  0  0  0
  4  5  1  0  0  0
  5  6  2  0  0  0
  5  7  1  0  0  0
  7  8  2  0  0  0
  8  9  1  0  0  0
  9 10  2  0  0  0
 10 11  1  0  0  0
 11 12  1  0  0  0
 12 13  1  0  0  0
 13 14  1  0  0  0
 13 18  1  0  0  0
 18 19  1  0  0  0
 10 15  1  0  0  0
 15 16  2  0  0  0
 15 21  1  0  0  0
 21 22  3  0  0  0
 30 31  2  0  0  0
 31 25  1  0  0  0
  6  1  1  0  0  0
 16  7  1  0  0  0
 13  9  1  0  0  0
 33 36  1  0  0  0
 23 24  1  0  0  0
 11 17  1  0  0  0
 19 20  1  0  0  0
M  END
> <minimizedAffinity>
-9.49432

> <CNNscore>
0.4026140273

> <CNNaffinity>
7.0351724625

> <CNN_VS>
2.8324592113

> <CNNaffinity_variance>
0.2422394007

$$$$
[H]OC([H])([H])[C@]1(C([H])([H])[H])c2c([H])c(-c3nc(N([H])c4c([H])c(C(=O)N([H])C([H])([H])[H])c([H])c([H])c4C([H])([H])[H])nc([H])c3[H])c([H])c(C#N)c2N([H])C1([H])[H]


 36 39  0  0  0  0  0  0  0  0999 V2000
   42.6468   12.8355  -16.4550 C   0  0  0  0  0  0  0  0  0  0  0  0
   43.6403   12.0011  -16.7590 N   0  0  0  0  0  0  0  0  0  0  0  0
   44.8025   11.9181  -16.1204 C   0  0  0  0  0  0  0  0  0  0  0  0
   45.0219   12.7723  -15.0314 C   0  0  0  0  0  0  0  0  0  0  0  0
   44.0242   13.6521  -14.6795 C   0  0  0  0  0  0  0  0  0  0  0  0
   42.8947   13.6487  -15.3937 N   0  0  0  0  0  0  0  0  0  0  0  0
   44.2051   14.5683  -13.5456 C   0  0  0  0  0  0  0  0  0  0  0  0
   43.8314   14.2679  -12.2657 C   0  0  0  0  0  0  0  0  0  0  0  0
   44.0052   15.1422  -11.1893 C   0  0  0  0  0  0  0  0  0  0  0  0
   44.5821   16.3671  -11.4313 C   0  0  0  0  0  0  0  0  0  0  0  0
   44.6625   17.0734  -10.1961 N   0  0  0  0  0  0  0  0  0  0  0  0
   44.5749   16.1043   -9.1244 C   0  0  0  0  0  0  0  0  0  0  0  0
   43.6883   15.0614   -9.7549 C   0  0  0  0  0  0  0  0  0  0  0  0
   42.2582   15.5098   -9.5653 C   0  0  0  0  0  0  0  0  0  0  0  0
   44.9769   16.7075  -12.7318 C   0  0  0  0  0  0  0  0  0  0  0  0
   44.7809   15.8050  -13.7568 C   0  0  0  0  0  0  0  0  0  0  0  0
   44.7643   18.0898  -10.0992 H   0  0  0  0  0  0  0  0  0  0  0  0
   43.9287   13.6857   -9.1806 C   0  0  0  0  0  0  0  0  0  0  0  0
   42.6941   13.0171   -9.2150 O   0  0  0  0  0  0  0  0  0  0  0  0
   42.3755   12.7861   -8.3078 H   0  0  0  0  0  0  0  0  0  0  0  0
   45.5841   18.0013  -12.9779 C   0  0  0  0  0  0  0  0  0  0  0  0
   46.0801   19.0308  -13.1695 N   0  0  0  0  0  0  0  0  0  0  0  0
   41.4196   12.9128  -17.1410 N   0  0  0  0  0  0  0  0  0  0  0  0
   41.4890   13.4192  -18.0935 H   0  0  0  0  0  0  0  0  0  0  0  0
   38.2376   12.2974  -15.3036 C   0  0  0  0  0  0  0  0  0  0  0  0
   37.6411   11.4262  -16.2222 C   0  0  0  0  0  0  0  0  0  0  0  0
   38.2590   11.0709  -17.3723 C   0  0  0  0  0  0  0  0  0  0  0  0
   39.5051   11.5725  -17.6561 C   0  0  0  0  0  0  0  0  0  0  0  0
   40.1964   11.1858  -18.9244 C   0  0  0  0  0  0  0  0  0  0  0  0
   40.1750   12.4519  -16.7896 C   0  0  0  0  0  0  0  0  0  0  0  0
   39.4879   12.7761  -15.6296 C   0  0  0  0  0  0  0  0  0  0  0  0
   36.1992   14.2703  -12.7229 C   0  0  0  0  0  0  0  0  0  0  0  0
   36.9123   13.9080  -13.9461 N   0  0  0  0  0  0  0  0  0  0  0  0
   37.5305   12.6525  -14.0840 C   0  0  0  0  0  0  0  0  0  0  0  0
   37.4521   11.8418  -13.1123 O   0  0  0  0  0  0  0  0  0  0  0  0
   36.9265   14.6295  -14.6783 H   0  0  0  0  0  0  0  0  0  0  0  0
 32 33  1  0  0  0
 33 34  1  0  0  0
 34 35  2  0  0  0
 34 25  1  0  0  0
 25 26  2  0  0  0
 26 27  1  0  0  0
 27 28  2  0  0  0
 28 29  1  0  0  0
 28 30  1  0  0  0
 30 23  1  0  0  0
 23  1  1  0  0  0
  1  2  2  0  0  0
  2  3  1  0  0  0
  3  4  2  0  0  0
  4  5  1  0  0  0
  5  6  2  0  0  0
  5  7  1  0  0  0
  7  8  2  0  0  0
  8  9  1  0  0  0
  9 10  2  0  0  0
 10 11  1  0  0  0
 11 12  1  0  0  0
 12 13  1  0  0  0
 13 14  1  0  0  0
 13 18  1  0  0  0
 18 19  1  0  0  0
 10 15  1  0  0  0
 15 16  2  0  0  0
 15 21  1  0  0  0
 21 22  3  0  0  0
 30 31  2  0  0  0
 31 25  1  0  0  0
  6  1  1  0  0  0
 16  7  1  0  0  0
 13  9  1  0  0  0
 33 36  1  0  0  0
 23 24  1  0  0  0
 11 17  1  0  0  0
 19 20  1  0  0  0
M  END
> <minimizedAffinity>
-8.62369

> <CNNscore>
0.3712004721

> <CNNaffinity>
6.6453170776

> <CNN_VS>
2.4667448997

> <CNNaffinity_variance>
0.0730274320

$$$$
[H]OC([H])([H])[C@]1(C([H])([H])[H])c2c([H])c(-c3nc(N([H])c4c([H])c(C(=O)N([H])C([H])([H])[H])c([H])c([H])c4C([H])([H])[H])nc([H])c3[H])c([H])c(C#N)c2N([H])C1([H])[H]


 36 39  0  0  0  0  0  0  0  0999 V2000
   42.7343   12.8432  -16.4265 C   0  0  0  0  0  0  0  0  0  0  0  0
   43.6445   12.0062  -16.9233 N   0  0  0  0  0  0  0  0  0  0  0  0
   44.8701   11.8240  -16.4438 C   0  0  0  0  0  0  0  0  0  0  0  0
   45.2583   12.5658  -15.3201 C   0  0  0  0  0  0  0  0  0  0  0  0
   44.3519   13.4437  -14.7715 C   0  0  0  0  0  0  0  0  0  0  0  0
   43.1456   13.5457  -15.3373 N   0  0  0  0  0  0  0  0  0  0  0  0
   44.7103   14.2444  -13.5932 C   0  0  0  0  0  0  0  0  0  0  0  0
   45.1410   15.5396  -13.6636 C   0  0  0  0  0  0  0  0  0  0  0  0
   45.4811   16.2984  -12.5403 C   0  0  0  0  0  0  0  0  0  0  0  0
   45.3764   15.7108  -11.3011 C   0  0  0  0  0  0  0  0  0  0  0  0
   45.7638   16.6689  -10.3197 N   0  0  0  0  0  0  0  0  0  0  0  0
   45.6490   17.9839  -10.9140 C   0  0  0  0  0  0  0  0  0  0  0  0
   45.9669   17.6745  -12.3543 C   0  0  0  0  0  0  0  0  0  0  0  0
   47.4713   17.6628  -12.4924 C   0  0  0  0  0  0  0  0  0  0  0  0
   44.9383   14.3844  -11.1926 C   0  0  0  0  0  0  0  0  0  0  0  0
   44.6160   13.6825  -12.3358 C   0  0  0  0  0  0  0  0  0  0  0  0
   46.0682   16.4504   -9.3646 H   0  0  0  0  0  0  0  0  0  0  0  0
   45.3211   18.6548  -13.3041 C   0  0  0  0  0  0  0  0  0  0  0  0
   45.7336   19.9346  -12.8986 O   0  0  0  0  0  0  0  0  0  0  0  0
   44.9705   20.4919  -12.6071 H   0  0  0  0  0  0  0  0  0  0  0  0
   44.8313   13.7728   -9.8820 C   0  0  0  0  0  0  0  0  0  0  0  0
   44.7330   13.2854   -8.8355 N   0  0  0  0  0  0  0  0  0  0  0  0
   41.4383   13.0264  -16.9453 N   0  0  0  0  0  0  0  0  0  0  0  0
   41.4184   13.5908  -17.8670 H   0  0  0  0  0  0  0  0  0  0  0  0
   38.4419   12.5151  -14.7913 C   0  0  0  0  0  0  0  0  0  0  0  0
   37.7289   11.6603  -15.6395 C   0  0  0  0  0  0  0  0  0  0  0  0
   38.2157   11.2827  -16.8442 C   0  0  0  0  0  0  0  0  0  0  0  0
   39.4413   11.7446  -17.2558 C   0  0  0  0  0  0  0  0  0  0  0  0
   39.9882   11.3332  -18.5853 C   0  0  0  0  0  0  0  0  0  0  0  0
   40.2222   12.6053  -16.4669 C   0  0  0  0  0  0  0  0  0  0  0  0
   39.6666   12.9539  -15.2451 C   0  0  0  0  0  0  0  0  0  0  0  0
   37.6378   14.5090  -11.6155 C   0  0  0  0  0  0  0  0  0  0  0  0
   38.2068   14.1208  -12.9045 N   0  0  0  0  0  0  0  0  0  0  0  0
   37.8733   12.8954  -13.5085 C   0  0  0  0  0  0  0  0  0  0  0  0
   37.0629   12.1340  -12.8993 O   0  0  0  0  0  0  0  0  0  0  0  0
   38.8567   14.7993  -13.3218 H   0  0  0  0  0  0  0  0  0  0  0  0
 32 33  1  0  0  0
 33 34  1  0  0  0
 34 35  2  0  0  0
 34 25  1  0  0  0
 25 26  2  0  0  0
 26 27  1  0  0  0
 27 28  2  0  0  0
 28 29  1  0  0  0
 28 30  1  0  0  0
 30 23  1  0  0  0
 23  1  1  0  0  0
  1  2  2  0  0  0
  2  3  1  0  0  0
  3  4  2  0  0  0
  4  5  1  0  0  0
  5  6  2  0  0  0
  5  7  1  0  0  0
  7  8  2  0  0  0
  8  9  1  0  0  0
  9 10  2  0  0  0
 10 11  1  0  0  0
 11 12  1  0  0  0
 12 13  1  0  0  0
 13 14  1  0  0  0
 13 18  1  0  0  0
 18 19  1  0  0  0
 10 15  1  0  0  0
 15 16  2  0  0  0
 15 21  1  0  0  0
 21 22  3  0  0  0
 30 31  2  0  0  0
 31 25  1  0  0  0
  6  1  1  0  0  0
 16  7  1  0  0  0
 13  9  1  0  0  0
 33 36  1  0  0  0
 23 24  1  0  0  0
 11 17  1  0  0  0
 19 20  1  0  0  0
M  END
> <minimizedAffinity>
-8.67537

> <CNNscore>
0.3534091711

> <CNNaffinity>
6.4997892380

> <CNN_VS>
2.2970850468

> <CNNaffinity_variance>
0.0859487131

$$$$
[H]OC([H])([H])[C@]1(C([H])([H])[H])c2c([H])c(-c3nc(N([H])c4c([H])c(C(=O)N([H])C([H])([H])[H])c([H])c([H])c4C([H])([H])[H])nc([H])c3[H])c([H])c(C#N)c2N([H])C1([H])[H]


 36 39  0  0  0  0  0  0  0  0999 V2000
   36.3508   12.0315  -15.4959 C   0  0  0  0  0  0  0  0  0  0  0  0
   35.0243   11.9756  -15.3820 N   0  0  0  0  0  0  0  0  0  0  0  0
   34.3044   12.5672  -14.4348 C   0  0  0  0  0  0  0  0  0  0  0  0
   34.9788   13.3188  -13.4631 C   0  0  0  0  0  0  0  0  0  0  0  0
   36.3499   13.4056  -13.5394 C   0  0  0  0  0  0  0  0  0  0  0  0
   36.9712   12.7689  -14.5365 N   0  0  0  0  0  0  0  0  0  0  0  0
   37.1033   14.1812  -12.5450 C   0  0  0  0  0  0  0  0  0  0  0  0
   36.6722   14.3875  -11.2645 C   0  0  0  0  0  0  0  0  0  0  0  0
   37.3918   15.1261  -10.3212 C   0  0  0  0  0  0  0  0  0  0  0  0
   38.5953   15.6725  -10.7017 C   0  0  0  0  0  0  0  0  0  0  0  0
   39.1435   16.3653   -9.5833 N   0  0  0  0  0  0  0  0  0  0  0  0
   38.5130   15.8468   -8.3879 C   0  0  0  0  0  0  0  0  0  0  0  0
   37.1474   15.4912   -8.9172 C   0  0  0  0  0  0  0  0  0  0  0  0
   36.3138   16.7510   -8.8990 C   0  0  0  0  0  0  0  0  0  0  0  0
   39.0671   15.4807  -12.0070 C   0  0  0  0  0  0  0  0  0  0  0  0
   38.3145   14.7424  -12.8970 C   0  0  0  0  0  0  0  0  0  0  0  0
   39.8582   17.0997   -9.6322 H   0  0  0  0  0  0  0  0  0  0  0  0
   36.5024   14.3769   -8.1281 C   0  0  0  0  0  0  0  0  0  0  0  0
   35.1451   14.3661   -8.4885 O   0  0  0  0  0  0  0  0  0  0  0  0
   34.5583   14.5670   -7.7183 H   0  0  0  0  0  0  0  0  0  0  0  0
   40.3369   16.0608  -12.3996 C   0  0  0  0  0  0  0  0  0  0  0  0
   41.3455   16.5353  -12.7159 N   0  0  0  0  0  0  0  0  0  0  0  0
   37.1012   11.3990  -16.5055 N   0  0  0  0  0  0  0  0  0  0  0  0
   36.5459   10.6476  -17.0492 H   0  0  0  0  0  0  0  0  0  0  0  0
   40.6950   12.3793  -16.5604 C   0  0  0  0  0  0  0  0  0  0  0  0
   41.0150   11.8966  -17.8344 C   0  0  0  0  0  0  0  0  0  0  0  0
   40.0949   11.2876  -18.6177 C   0  0  0  0  0  0  0  0  0  0  0  0
   38.8096   11.1337  -18.1603 C   0  0  0  0  0  0  0  0  0  0  0  0
   37.7854   10.4623  -19.0182 C   0  0  0  0  0  0  0  0  0  0  0  0
   38.4041   11.5888  -16.8949 C   0  0  0  0  0  0  0  0  0  0  0  0
   39.3939   12.2032  -16.1427 C   0  0  0  0  0  0  0  0  0  0  0  0
   44.0832   13.7573  -15.4072 C   0  0  0  0  0  0  0  0  0  0  0  0
   43.0479   13.1115  -16.2117 N   0  0  0  0  0  0  0  0  0  0  0  0
   41.7208   13.0221  -15.7553 C   0  0  0  0  0  0  0  0  0  0  0  0
   41.4480   13.5187  -14.6210 O   0  0  0  0  0  0  0  0  0  0  0  0
   43.3624   12.7350  -17.1151 H   0  0  0  0  0  0  0  0  0  0  0  0
 32 33  1  0  0  0
 33 34  1  0  0  0
 34 35  2  0  0  0
 34 25  1  0  0  0
 25 26  2  0  0  0
 26 27  1  0  0  0
 27 28  2  0  0  0
 28 29  1  0  0  0
 28 30  1  0  0  0
 30 23  1  0  0  0
 23  1  1  0  0  0
  1  2  2  0  0  0
  2  3  1  0  0  0
  3  4  2  0  0  0
  4  5  1  0  0  0
  5  6  2  0  0  0
  5  7  1  0  0  0
  7  8  2  0  0  0
  8  9  1  0  0  0
  9 10  2  0  0  0
 10 11  1  0  0  0
 11 12  1  0  0  0
 12 13  1  0  0  0
 13 14  1  0  0  0
 13 18  1  0  0  0
 18 19  1  0  0  0
 10 15  1  0  0  0
 15 16  2  0  0  0
 15 21  1  0  0  0
 21 22  3  0  0  0
 30 31  2  0  0  0
 31 25  1  0  0  0
  6  1  1  0  0  0
 16  7  1  0  0  0
 13  9  1  0  0  0
 33 36  1  0  0  0
 23 24  1  0  0  0
 11 17  1  0  0  0
 19 20  1  0  0  0
M  END
> <minimizedAffinity>
-9.84479

> <CNNscore>
0.2746244073

> <CNNaffinity>
6.7543091774

> <CNN_VS>
1.8548980951

> <CNNaffinity_variance>
0.0859186649

$$$$
[H]OC([H])([H])[C@]1(C([H])([H])[H])c2c([H])c(-c3nc(N([H])c4c([H])c(C(=O)N([H])C([H])([H])[H])c([H])c([H])c4C([H])([H])[H])nc([H])c3[H])c([H])c(C#N)c2N([H])C1([H])[H]


 36 39  0  0  0  0  0  0  0  0999 V2000
   42.4461   13.0711  -15.9991 C   0  0  0  0  0  0  0  0  0  0  0  0
   43.6801   12.6331  -16.2464 N   0  0  0  0  0  0  0  0  0  0  0  0
   44.7224   12.7586  -15.4320 C   0  0  0  0  0  0  0  0  0  0  0  0
   44.5283   13.4034  -14.2031 C   0  0  0  0  0  0  0  0  0  0  0  0
   43.2702   13.8731  -13.9030 C   0  0  0  0  0  0  0  0  0  0  0  0
   42.2951   13.6912  -14.7984 N   0  0  0  0  0  0  0  0  0  0  0  0
   43.0150   14.5561  -12.6278 C   0  0  0  0  0  0  0  0  0  0  0  0
   43.9259   14.6205  -11.6108 C   0  0  0  0  0  0  0  0  0  0  0  0
   43.6795   15.2713  -10.3987 C   0  0  0  0  0  0  0  0  0  0  0  0
   42.4579   15.8780  -10.2215 C   0  0  0  0  0  0  0  0  0  0  0  0
   42.4413   16.4765   -8.9282 N   0  0  0  0  0  0  0  0  0  0  0  0
   43.8137   16.6476   -8.5009 C   0  0  0  0  0  0  0  0  0  0  0  0
   44.4709   15.4706   -9.1747 C   0  0  0  0  0  0  0  0  0  0  0  0
   44.2664   14.2680   -8.2836 C   0  0  0  0  0  0  0  0  0  0  0  0
   41.5007   15.8311  -11.2436 C   0  0  0  0  0  0  0  0  0  0  0  0
   41.7983   15.1741  -12.4198 C   0  0  0  0  0  0  0  0  0  0  0  0
   41.5976   16.7347   -8.4045 H   0  0  0  0  0  0  0  0  0  0  0  0
   45.9329   15.7196   -9.4590 C   0  0  0  0  0  0  0  0  0  0  0  0
   46.1012   17.1135   -9.4946 O   0  0  0  0  0  0  0  0  0  0  0  0
   46.3962   17.4257  -10.3853 H   0  0  0  0  0  0  0  0  0  0  0  0
   40.2152   16.4731  -11.0479 C   0  0  0  0  0  0  0  0  0  0  0  0
   39.1857   16.9782  -10.8817 N   0  0  0  0  0  0  0  0  0  0  0  0
   41.3503   12.9313  -16.8721 N   0  0  0  0  0  0  0  0  0  0  0  0
   41.5548   13.2684  -17.8786 H   0  0  0  0  0  0  0  0  0  0  0  0
   38.0307   12.2213  -15.3371 C   0  0  0  0  0  0  0  0  0  0  0  0
   37.5335   11.3620  -16.3234 C   0  0  0  0  0  0  0  0  0  0  0  0
   38.2567   11.0435  -17.4218 C   0  0  0  0  0  0  0  0  0  0  0  0
   39.5135   11.5720  -17.5834 C   0  0  0  0  0  0  0  0  0  0  0  0
   40.3208   11.2262  -18.7936 C   0  0  0  0  0  0  0  0  0  0  0  0
   40.0882   12.4420  -16.6423 C   0  0  0  0  0  0  0  0  0  0  0  0
   39.2958   12.7279  -15.5408 C   0  0  0  0  0  0  0  0  0  0  0  0
   35.4730   13.9261  -13.0437 C   0  0  0  0  0  0  0  0  0  0  0  0
   36.2989   13.6051  -14.2060 N   0  0  0  0  0  0  0  0  0  0  0  0
   37.2125   12.5365  -14.1775 C   0  0  0  0  0  0  0  0  0  0  0  0
   37.3002   11.8582  -13.1098 O   0  0  0  0  0  0  0  0  0  0  0  0
   36.1621   14.2112  -15.0249 H   0  0  0  0  0  0  0  0  0  0  0  0
 32 33  1  0  0  0
 33 34  1  0  0  0
 34 35  2  0  0  0
 34 25  1  0  0  0
 25 26  2  0  0  0
 26 27  1  0  0  0
 27 28  2  0  0  0
 28 29  1  0  0  0
 28 30  1  0  0  0
 30 23  1  0  0  0
 23  1  1  0  0  0
  1  2  2  0  0  0
  2  3  1  0  0  0
  3  4  2  0  0  0
  4  5  1  0  0  0
  5  6  2  0  0  0
  5  7  1  0  0  0
  7  8  2  0  0  0
  8  9  1  0  0  0
  9 10  2  0  0  0
 10 11  1  0  0  0
 11 12  1  0  0  0
 12 13  1  0  0  0
 13 14  1  0  0  0
 13 18  1  0  0  0
 18 19  1  0  0  0
 10 15  1  0  0  0
 15 16  2  0  0  0
 15 21  1  0  0  0
 21 22  3  0  0  0
 30 31  2  0  0  0
 31 25  1  0  0  0
  6  1  1  0  0  0
 16  7  1  0  0  0
 13  9  1  0  0  0
 33 36  1  0  0  0
 23 24  1  0  0  0
 11 17  1  0  0  0
 19 20  1  0  0  0
M  END
> <minimizedAffinity>
-8.55857

> <CNNscore>
0.2343212515

> <CNNaffinity>
6.2051448822

> <CNN_VS>
1.4539973736

> <CNNaffinity_variance>
0.2029113472

$$$$
[H]OC([H])([H])[C@]1(C([H])([H])[H])c2c([H])c(-c3nc(N([H])c4c([H])c(C(=O)N([H])C([H])([H])[H])c([H])c([H])c4C([H])([H])[H])nc([H])c3[H])c([H])c(C#N)c2N([H])C1([H])[H]


 36 39  0  0  0  0  0  0  0  0999 V2000
   39.9411   13.5976  -14.6874 C   0  0  0  0  0  0  0  0  0  0  0  0
   39.0470   14.3742  -14.0763 N   0  0  0  0  0  0  0  0  0  0  0  0
   39.3208   15.2868  -13.1503 C   0  0  0  0  0  0  0  0  0  0  0  0
   40.6579   15.4633  -12.7698 C   0  0  0  0  0  0  0  0  0  0  0  0
   41.6176   14.6837  -13.3736 C   0  0  0  0  0  0  0  0  0  0  0  0
   41.2273   13.7964  -14.2934 N   0  0  0  0  0  0  0  0  0  0  0  0
   43.0332   14.8304  -13.0097 C   0  0  0  0  0  0  0  0  0  0  0  0
   44.0383   14.1003  -13.5797 C   0  0  0  0  0  0  0  0  0  0  0  0
   45.3842   14.2426  -13.2309 C   0  0  0  0  0  0  0  0  0  0  0  0
   45.7130   15.1649  -12.2649 C   0  0  0  0  0  0  0  0  0  0  0  0
   47.1266   15.1379  -12.0861 N   0  0  0  0  0  0  0  0  0  0  0  0
   47.7124   14.5462  -13.2702 C   0  0  0  0  0  0  0  0  0  0  0  0
   46.6232   13.5879  -13.6785 C   0  0  0  0  0  0  0  0  0  0  0  0
   46.8051   12.3258  -12.8685 C   0  0  0  0  0  0  0  0  0  0  0  0
   44.7073   15.9302  -11.6599 C   0  0  0  0  0  0  0  0  0  0  0  0
   43.3947   15.7475  -12.0434 C   0  0  0  0  0  0  0  0  0  0  0  0
   47.6268   15.4808  -11.2585 H   0  0  0  0  0  0  0  0  0  0  0  0
   46.6339   13.3115  -15.1630 C   0  0  0  0  0  0  0  0  0  0  0  0
   46.0992   12.0241  -15.3335 O   0  0  0  0  0  0  0  0  0  0  0  0
   46.7590   11.4008  -15.7262 H   0  0  0  0  0  0  0  0  0  0  0  0
   45.0631   16.9000  -10.6420 C   0  0  0  0  0  0  0  0  0  0  0  0
   45.3521   17.6825   -9.8378 N   0  0  0  0  0  0  0  0  0  0  0  0
   39.6366   12.6338  -15.6675 N   0  0  0  0  0  0  0  0  0  0  0  0
   40.5086   12.2373  -16.1683 H   0  0  0  0  0  0  0  0  0  0  0  0
   35.9999   11.8586  -15.8994 C   0  0  0  0  0  0  0  0  0  0  0  0
   36.0424   11.0344  -17.0296 C   0  0  0  0  0  0  0  0  0  0  0  0
   37.2035   10.7583  -17.6672 C   0  0  0  0  0  0  0  0  0  0  0  0
   38.3778   11.2959  -17.2015 C   0  0  0  0  0  0  0  0  0  0  0  0
   39.6662   10.9969  -17.8989 C   0  0  0  0  0  0  0  0  0  0  0  0
   38.4247   12.1327  -16.0743 C   0  0  0  0  0  0  0  0  0  0  0  0
   37.2017   12.3760  -15.4676 C   0  0  0  0  0  0  0  0  0  0  0  0
   33.2903   13.5139  -13.7486 C   0  0  0  0  0  0  0  0  0  0  0  0
   34.5685   13.2366  -14.4008 N   0  0  0  0  0  0  0  0  0  0  0  0
   34.7263   12.1289  -15.2527 C   0  0  0  0  0  0  0  0  0  0  0  0
   33.7242   11.3744  -15.4378 O   0  0  0  0  0  0  0  0  0  0  0  0
   35.3247   13.9000  -14.1890 H   0  0  0  0  0  0  0  0  0  0  0  0
 32 33  1  0  0  0
 33 34  1  0  0  0
 34 35  2  0  0  0
 34 25  1  0  0  0
 25 26  2  0  0  0
 26 27  1  0  0  0
 27 28  2  0  0  0
 28 29  1  0  0  0
 28 30  1  0  0  0
 30 23  1  0  0  0
 23  1  1  0  0  0
  1  2  2  0  0  0
  2  3  1  0  0  0
  3  4  2  0  0  0
  4  5  1  0  0  0
  5  6  2  0  0  0
  5  7  1  0  0  0
  7  8  2  0  0  0
  8  9  1  0  0  0
  9 10  2  0  0  0
 10 11  1  0  0  0
 11 12  1  0  0  0
 12 13  1  0  0  0
 13 14  1  0  0  0
 13 18  1  0  0  0
 18 19  1  0  0  0
 10 15  1  0  0  0
 15 16  2  0  0  0
 15 21  1  0  0  0
 21 22  3  0  0  0
 30 31  2  0  0  0
 31 25  1  0  0  0
  6  1  1  0  0  0
 16  7  1  0  0  0
 13  9  1  0  0  0
 33 36  1  0  0  0
 23 24  1  0  0  0
 11 17  1  0  0  0
 19 20  1  0  0  0
M  END
> <minimizedAffinity>
-8.79061

> <CNNscore>
0.2331147641

> <CNNaffinity>
6.6174101830

> <CNN_VS>
1.5426160097

> <CNNaffinity_variance>
0.1609763354

$$$$
[H]O[C@@]1(C#Cc2c([H])c3c(c([H])c2F)C2([H])C([H])([H])C([H])(n4c-3nc(C(=O)N([H])[H])c4[C@@]([H])(O[H])c3c([H])c([H])nn3C([H])([H])[H])C2([H])[H])C(=O)N(C([H])([H])[H])C([H])([H])C1([H])[H]


 41 46  0  0  0  0  0  0  0  0999 V2000
   35.0707   13.4338  -14.0328 C   0  0  0  0  0  0  0  0  0  0  0  0
   36.3974   13.8102  -13.8464 C   0  0  0  0  0  0  0  0  0  0  0  0
   37.3768   13.2104  -14.5979 C   0  0  0  0  0  0  0  0  0  0  0  0
   38.7455   13.7051  -14.2764 C   0  0  0  0  0  0  0  0  0  0  0  0
   39.0224   14.6136  -13.3776 N   0  0  0  0  0  0  0  0  0  0  0  0
   40.3856   14.8105  -13.3146 C   0  0  0  0  0  0  0  0  0  0  0  0
   40.9155   13.9461  -14.2422 C   0  0  0  0  0  0  0  0  0  0  0  0
   39.8953   13.2860  -14.8223 N   0  0  0  0  0  0  0  0  0  0  0  0
   39.9765   12.3177  -15.9376 C   0  0  0  0  0  0  0  0  0  0  0  0
   38.8670   12.6485  -16.9785 C   0  0  0  0  0  0  0  0  0  0  0  0
   37.9821   11.5295  -16.4098 C   0  0  0  0  0  0  0  0  0  0  0  0
   39.1981   11.0659  -15.6426 C   0  0  0  0  0  0  0  0  0  0  0  0
   36.9972   12.2526  -15.5129 C   0  0  0  0  0  0  0  0  0  0  0  0
   35.7022   11.8701  -15.7098 C   0  0  0  0  0  0  0  0  0  0  0  0
   34.7196   12.4721  -14.9554 C   0  0  0  0  0  0  0  0  0  0  0  0
   33.4364   12.0971  -15.1466 F   0  0  0  0  0  0  0  0  0  0  0  0
   40.9763   15.8095  -12.4253 C   0  0  0  0  0  0  0  0  0  0  0  0
   41.1315   15.4521  -11.0440 N   0  0  0  0  0  0  0  0  0  0  0  0
   41.3703   16.9466  -12.7084 O   0  0  0  0  0  0  0  0  0  0  0  0
   40.3302   15.1403  -10.4773 H   0  0  0  0  0  0  0  0  0  0  0  0
   42.0781   15.5206  -10.6423 H   0  0  0  0  0  0  0  0  0  0  0  0
   42.3295   13.6887  -14.5485 C   0  0  0  0  0  0  0  0  0  0  0  0
   42.8124   14.2577  -15.7003 O   0  0  0  0  0  0  0  0  0  0  0  0
   43.7732   14.2698  -15.7891 H   0  0  0  0  0  0  0  0  0  0  0  0
   43.2871   13.8548  -13.4012 C   0  0  0  0  0  0  0  0  0  0  0  0
   43.4239   13.0116  -12.3078 C   0  0  0  0  0  0  0  0  0  0  0  0
   44.3968   13.4655  -11.4619 C   0  0  0  0  0  0  0  0  0  0  0  0
   44.8625   14.5817  -12.0244 N   0  0  0  0  0  0  0  0  0  0  0  0
   44.1998   14.8126  -13.1820 N   0  0  0  0  0  0  0  0  0  0  0  0
   44.5117   15.9541  -14.0161 C   0  0  0  0  0  0  0  0  0  0  0  0
   33.2133   14.6367  -12.5548 C   0  0  0  0  0  0  0  0  0  0  0  0
   34.0490   14.0817  -13.2264 C   0  0  0  0  0  0  0  0  0  0  0  0
   31.7707   16.3962   -8.2160 C   0  0  0  0  0  0  0  0  0  0  0  0
   31.8122   15.6417   -9.4766 N   0  0  0  0  0  0  0  0  0  0  0  0
   30.7672   14.7656   -9.9227 C   0  0  0  0  0  0  0  0  0  0  0  0
   31.0729   14.4430  -11.3479 C   0  0  0  0  0  0  0  0  0  0  0  0
   32.2058   15.3343  -11.7465 C   0  0  0  0  0  0  0  0  0  0  0  0
   31.7832   16.5075  -12.3473 O   0  0  0  0  0  0  0  0  0  0  0  0
   32.8544   15.6431  -10.4443 C   0  0  0  0  0  0  0  0  0  0  0  0
   34.0583   15.8638  -10.2069 O   0  0  0  0  0  0  0  0  0  0  0  0
   32.2293   17.2659  -11.9003 H   0  0  0  0  0  0  0  0  0  0  0  0
 33 34  1  0  0  0
 34 35  1  0  0  0
 35 36  1  0  0  0
 36 37  1  0  0  0
 37 38  1  0  0  0
 37 31  1  0  0  0
 31 32  3  0  0  0
 32  1  1  0  0  0
  1  2  1  0  0  0
  2  3  2  0  0  0
  3  4  1  0  0  0
  4  5  2  0  0  0
  5  6  1  0  0  0
  6 17  1  0  0  0
 17 18  1  0  0  0
 17 19  2  0  0  0
  6  7  2  0  0  0
  7 22  1  0  0  0
 22 23  1  0  0  0
 22 25  1  0  0  0
 25 26  2  0  0  0
 26 27  1  0  0  0
 27 28  2  0  0  0
 28 29  1  0  0  0
 29 30  1  0  0  0
  7  8  1  0  0  0
  8  9  1  0  0  0
  9 10  1  0  0  0
 10 11  1  0  0  0
 11 12  1  0  0  0
 11 13  1  0  0  0
 13 14  2  0  0  0
 14 15  1  0  0  0
 15 16  1  0  0  0
 37 39  1  0  0  0
 39 40  2  0  0  0
 39 34  1  0  0  0
 15  1  2  0  0  0
 13  3  1  0  0  0
  8  4  1  0  0  0
 12  9  1  0  0  0
 29 25  1  0  0  0
 38 41  1  0  0  0
 18 20  1  0  0  0
 18 21  1  0  0  0
 23 24  1  0  0  0
M  END
> <minimizedAffinity>
-8.49938

> <CNNscore>
0.1426561326

> <CNNaffinity>
6.6686859131

> <CNN_VS>
0.9513289332

> <CNNaffinity_variance>
0.1247583851

$$$$
[H]O[C@@]1(C#Cc2c([H])c3c(c([H])c2F)C2([H])C([H])([H])C([H])(n4c-3nc(C(=O)N([H])[H])c4[C@@]([H])(O[H])c3c([H])c([H])nn3C([H])([H])[H])C2([H])[H])C(=O)N(C([H])([H])[H])C([H])([H])C1([H])[H]


 41 46  0  0  0  0  0  0  0  0999 V2000
   35.0165   15.8609   -9.9750 C   0  0  0  0  0  0  0  0  0  0  0  0
   36.0343   16.0101   -9.0378 C   0  0  0  0  0  0  0  0  0  0  0  0
   37.3376   16.0608   -9.4652 C   0  0  0  0  0  0  0  0  0  0  0  0
   38.3137   16.2077   -8.3484 C   0  0  0  0  0  0  0  0  0  0  0  0
   37.9979   16.2822   -7.0816 N   0  0  0  0  0  0  0  0  0  0  0  0
   39.1418   16.3800   -6.3183 C   0  0  0  0  0  0  0  0  0  0  0  0
   40.1779   16.3536   -7.2207 C   0  0  0  0  0  0  0  0  0  0  0  0
   39.6486   16.2547   -8.4549 N   0  0  0  0  0  0  0  0  0  0  0  0
   40.3749   16.2785   -9.7433 C   0  0  0  0  0  0  0  0  0  0  0  0
   39.6291   17.2253  -10.7288 C   0  0  0  0  0  0  0  0  0  0  0  0
   38.9736   16.0169  -11.4135 C   0  0  0  0  0  0  0  0  0  0  0  0
   39.9448   15.1536  -10.6430 C   0  0  0  0  0  0  0  0  0  0  0  0
   37.5811   15.9609  -10.8177 C   0  0  0  0  0  0  0  0  0  0  0  0
   36.5970   15.8140  -11.7516 C   0  0  0  0  0  0  0  0  0  0  0  0
   35.2892   15.7630  -11.3223 C   0  0  0  0  0  0  0  0  0  0  0  0
   34.3116   15.6178  -12.2426 F   0  0  0  0  0  0  0  0  0  0  0  0
   39.0842   16.5268   -4.8647 C   0  0  0  0  0  0  0  0  0  0  0  0
   38.8782   17.8481   -4.3437 N   0  0  0  0  0  0  0  0  0  0  0  0
   39.1906   15.6465   -4.0032 O   0  0  0  0  0  0  0  0  0  0  0  0
   39.5062   18.6260   -4.5906 H   0  0  0  0  0  0  0  0  0  0  0  0
   38.0758   17.9865   -3.7119 H   0  0  0  0  0  0  0  0  0  0  0  0
   41.6229   16.3598   -6.9537 C   0  0  0  0  0  0  0  0  0  0  0  0
   42.1267   17.4983   -6.3763 O   0  0  0  0  0  0  0  0  0  0  0  0
   43.0161   17.4222   -6.0098 H   0  0  0  0  0  0  0  0  0  0  0  0
   42.1733   15.1177   -6.3091 C   0  0  0  0  0  0  0  0  0  0  0  0
   42.5610   14.9742   -4.9847 C   0  0  0  0  0  0  0  0  0  0  0  0
   43.0076   13.7052   -4.7432 C   0  0  0  0  0  0  0  0  0  0  0  0
   42.8980   13.0637   -5.9075 N   0  0  0  0  0  0  0  0  0  0  0  0
   42.3993   13.9076   -6.8411 N   0  0  0  0  0  0  0  0  0  0  0  0
   42.1584   13.4726   -8.2008 C   0  0  0  0  0  0  0  0  0  0  0  0
   32.5054   15.7463   -9.1019 C   0  0  0  0  0  0  0  0  0  0  0  0
   33.6430   15.8095   -9.5009 C   0  0  0  0  0  0  0  0  0  0  0  0
   29.1664   16.9094   -5.7107 C   0  0  0  0  0  0  0  0  0  0  0  0
   30.0474   16.1414   -6.6018 N   0  0  0  0  0  0  0  0  0  0  0  0
   30.0585   14.7087   -6.6801 C   0  0  0  0  0  0  0  0  0  0  0  0
   30.8664   14.3630   -7.8871 C   0  0  0  0  0  0  0  0  0  0  0  0
   31.1292   15.6514   -8.5997 C   0  0  0  0  0  0  0  0  0  0  0  0
   30.1985   15.9203   -9.5884 O   0  0  0  0  0  0  0  0  0  0  0  0
   31.0103   16.6584   -7.5117 C   0  0  0  0  0  0  0  0  0  0  0  0
   31.6115   17.7433   -7.3857 O   0  0  0  0  0  0  0  0  0  0  0  0
   29.8619   16.8390   -9.4593 H   0  0  0  0  0  0  0  0  0  0  0  0
 33 34  1  0  0  0
 34 35  1  0  0  0
 35 36  1  0  0  0
 36 37  1  0  0  0
 37 38  1  0  0  0
 37 31  1  0  0  0
 31 32  3  0  0  0
 32  1  1  0  0  0
  1  2  1  0  0  0
  2  3  2  0  0  0
  3  4  1  0  0  0
  4  5  2  0  0  0
  5  6  1  0  0  0
  6 17  1  0  0  0
 17 18  1  0  0  0
 17 19  2  0  0  0
  6  7  2  0  0  0
  7 22  1  0  0  0
 22 23  1  0  0  0
 22 25  1  0  0  0
 25 26  2  0  0  0
 26 27  1  0  0  0
 27 28  2  0  0  0
 28 29  1  0  0  0
 29 30  1  0  0  0
  7  8  1  0  0  0
  8  9  1  0  0  0
  9 10  1  0  0  0
 10 11  1  0  0  0
 11 12  1  0  0  0
 11 13  1  0  0  0
 13 14  2  0  0  0
 14 15  1  0  0  0
 15 16  1  0  0  0
 37 39  1  0  0  0
 39 40  2  0  0  0
 39 34  1  0  0  0
 15  1  2  0  0  0
 13  3  1  0  0  0
  8  4  1  0  0  0
 12  9  1  0  0  0
 29 25  1  0  0  0
 38 41  1  0  0  0
 18 20  1  0  0  0
 18 21  1  0  0  0
 23 24  1  0  0  0
M  END
> <minimizedAffinity>
-6.03651

> <CNNscore>
0.1352377981

> <CNNaffinity>
6.0821490288

> <CNN_VS>
0.8225364685

> <CNNaffinity_variance>
0.3452430665

$$$$
[H]O[C@@]1(C#Cc2c([H])c3c(c([H])c2F)C2([H])C([H])([H])C([H])(n4c-3nc(C(=O)N([H])[H])c4[C@@]([H])(O[H])c3c([H])c([H])nn3C([H])([H])[H])C2([H])[H])C(=O)N(C([H])([H])[H])C([H])([H])C1([H])[H]


 41 46  0  0  0  0  0  0  0  0999 V2000
   40.6492   15.7313   -9.1970 C   0  0  0  0  0  0  0  0  0  0  0  0
   41.7574   16.0219   -9.9870 C   0  0  0  0  0  0  0  0  0  0  0  0
   43.0141   15.7566   -9.5033 C   0  0  0  0  0  0  0  0  0  0  0  0
   44.0981   16.1339  -10.4542 C   0  0  0  0  0  0  0  0  0  0  0  0
   43.9091   16.6655  -11.6339 N   0  0  0  0  0  0  0  0  0  0  0  0
   45.1242   16.9181  -12.2344 C   0  0  0  0  0  0  0  0  0  0  0  0
   46.0666   16.5031  -11.3243 C   0  0  0  0  0  0  0  0  0  0  0  0
   45.4173   16.0215  -10.2474 N   0  0  0  0  0  0  0  0  0  0  0  0
   46.0159   15.3864   -9.0531 C   0  0  0  0  0  0  0  0  0  0  0  0
   45.2104   14.1005   -8.7047 C   0  0  0  0  0  0  0  0  0  0  0  0
   44.4516   14.8584   -7.6054 C   0  0  0  0  0  0  0  0  0  0  0  0
   45.4632   15.9665   -7.7811 C   0  0  0  0  0  0  0  0  0  0  0  0
   43.1222   15.2085   -8.2437 C   0  0  0  0  0  0  0  0  0  0  0  0
   42.0479   14.9169   -7.4543 C   0  0  0  0  0  0  0  0  0  0  0  0
   40.7868   15.1834   -7.9400 C   0  0  0  0  0  0  0  0  0  0  0  0
   39.7204   14.8966   -7.1627 F   0  0  0  0  0  0  0  0  0  0  0  0
   45.2125   17.4692  -13.5858 C   0  0  0  0  0  0  0  0  0  0  0  0
   44.5500   18.7182  -13.8323 N   0  0  0  0  0  0  0  0  0  0  0  0
   45.7947   16.9946  -14.5677 O   0  0  0  0  0  0  0  0  0  0  0  0
   43.5455   18.8396  -13.6406 H   0  0  0  0  0  0  0  0  0  0  0  0
   45.1209   19.4888  -14.2095 H   0  0  0  0  0  0  0  0  0  0  0  0
   47.5301   16.5997  -11.4155 C   0  0  0  0  0  0  0  0  0  0  0  0
   48.0875   16.2289  -12.6135 O   0  0  0  0  0  0  0  0  0  0  0  0
   49.0067   16.4913  -12.7454 H   0  0  0  0  0  0  0  0  0  0  0  0
   48.1345   17.8723  -10.8899 C   0  0  0  0  0  0  0  0  0  0  0  0
   48.6039   18.0968   -9.6037 C   0  0  0  0  0  0  0  0  0  0  0  0
   49.0933   19.3668   -9.4790 C   0  0  0  0  0  0  0  0  0  0  0  0
   48.9308   19.9282  -10.6779 N   0  0  0  0  0  0  0  0  0  0  0  0
   48.3590   19.0350  -11.5193 N   0  0  0  0  0  0  0  0  0  0  0  0
   48.0793   19.3697  -12.8998 C   0  0  0  0  0  0  0  0  0  0  0  0
   38.2329   16.2808  -10.1669 C   0  0  0  0  0  0  0  0  0  0  0  0
   39.3271   16.0201   -9.7286 C   0  0  0  0  0  0  0  0  0  0  0  0
   33.3557   15.8738   -9.9453 C   0  0  0  0  0  0  0  0  0  0  0  0
   34.7432   15.8310  -10.4280 N   0  0  0  0  0  0  0  0  0  0  0  0
   35.1205   15.4277  -11.7523 C   0  0  0  0  0  0  0  0  0  0  0  0
   36.5567   15.8038  -11.9100 C   0  0  0  0  0  0  0  0  0  0  0  0
   36.9112   16.6204  -10.7082 C   0  0  0  0  0  0  0  0  0  0  0  0
   36.7742   17.9812  -10.9214 O   0  0  0  0  0  0  0  0  0  0  0  0
   35.9168   16.1682   -9.6990 C   0  0  0  0  0  0  0  0  0  0  0  0
   36.0451   16.0867   -8.4615 O   0  0  0  0  0  0  0  0  0  0  0  0
   36.2367   18.3603  -10.1857 H   0  0  0  0  0  0  0  0  0  0  0  0
 33 34  1  0  0  0
 34 35  1  0  0  0
 35 36  1  0  0  0
 36 37  1  0  0  0
 37 38  1  0  0  0
 37 31  1  0  0  0
 31 32  3  0  0  0
 32  1  1  0  0  0
  1  2  1  0  0  0
  2  3  2  0  0  0
  3  4  1  0  0  0
  4  5  2  0  0  0
  5  6  1  0  0  0
  6 17  1  0  0  0
 17 18  1  0  0  0
 17 19  2  0  0  0
  6  7  2  0  0  0
  7 22  1  0  0  0
 22 23  1  0  0  0
 22 25  1  0  0  0
 25 26  2  0  0  0
 26 27  1  0  0  0
 27 28  2  0  0  0
 28 29  1  0  0  0
 29 30  1  0  0  0
  7  8  1  0  0  0
  8  9  1  0  0  0
  9 10  1  0  0  0
 10 11  1  0  0  0
 11 12  1  0  0  0
 11 13  1  0  0  0
 13 14  2  0  0  0
 14 15  1  0  0  0
 15 16  1  0  0  0
 37 39  1  0  0  0
 39 40  2  0  0  0
 39 34  1  0  0  0
 15  1  2  0  0  0
 13  3  1  0  0  0
  8  4  1  0  0  0
 12  9  1  0  0  0
 29 25  1  0  0  0
 38 41  1  0  0  0
 18 20  1  0  0  0
 18 21  1  0  0  0
 23 24  1  0  0  0
M  END
> <minimizedAffinity>
-6.34029

> <CNNscore>
0.1107858047

> <CNNaffinity>
5.5074725151

> <CNN_VS>
0.6101498008

> <CNNaffinity_variance>
0.1445411891

$$$$
[H]O[C@@]1(C#Cc2c([H])c3c(c([H])c2F)C2([H])C([H])([H])C([H])(n4c-3nc(C(=O)N([H])[H])c4[C@@]([H])(O[H])c3c([H])c([H])nn3C([H])([H])[H])C2([H])[H])C(=O)N(C([H])([H])[H])C([H])([H])C1([H])[H]


 41 46  0  0  0  0  0  0  0  0999 V2000
   40.5713   13.6632  -14.9416 C   0  0  0  0  0  0  0  0  0  0  0  0
   41.4850   13.6353  -13.8923 C   0  0  0  0  0  0  0  0  0  0  0  0
   42.8173   13.4539  -14.1676 C   0  0  0  0  0  0  0  0  0  0  0  0
   43.6691   13.4319  -12.9446 C   0  0  0  0  0  0  0  0  0  0  0  0
   43.2278   13.5669  -11.7211 N   0  0  0  0  0  0  0  0  0  0  0  0
   44.2757   13.4655  -10.8310 C   0  0  0  0  0  0  0  0  0  0  0  0
   45.3878   13.2528  -11.6098 C   0  0  0  0  0  0  0  0  0  0  0  0
   44.9948   13.2427  -12.8976 N   0  0  0  0  0  0  0  0  0  0  0  0
   45.8573   13.1323  -14.0943 C   0  0  0  0  0  0  0  0  0  0  0  0
   45.4073   14.1908  -15.1435 C   0  0  0  0  0  0  0  0  0  0  0  0
   44.6332   13.1134  -15.9173 C   0  0  0  0  0  0  0  0  0  0  0  0
   45.3428   12.0963  -15.0546 C   0  0  0  0  0  0  0  0  0  0  0  0
   43.1933   13.3062  -15.4850 C   0  0  0  0  0  0  0  0  0  0  0  0
   42.3126   13.3305  -16.5271 C   0  0  0  0  0  0  0  0  0  0  0  0
   40.9756   13.5125  -16.2505 C   0  0  0  0  0  0  0  0  0  0  0  0
   40.1001   13.5372  -17.2783 F   0  0  0  0  0  0  0  0  0  0  0  0
   44.0781   13.6269   -9.3913 C   0  0  0  0  0  0  0  0  0  0  0  0
   42.9517   12.9606   -8.8023 N   0  0  0  0  0  0  0  0  0  0  0  0
   44.7660   14.2740   -8.5936 O   0  0  0  0  0  0  0  0  0  0  0  0
   41.9942   13.1193   -9.1466 H   0  0  0  0  0  0  0  0  0  0  0  0
   43.1403   12.3166   -8.0200 H   0  0  0  0  0  0  0  0  0  0  0  0
   46.7711   13.0058  -11.1798 C   0  0  0  0  0  0  0  0  0  0  0  0
   47.2346   13.7893  -10.1527 O   0  0  0  0  0  0  0  0  0  0  0  0
   48.0501   13.4888   -9.7334 H   0  0  0  0  0  0  0  0  0  0  0  0
   47.1494   11.5624  -10.9939 C   0  0  0  0  0  0  0  0  0  0  0  0
   46.5674   10.6602  -10.1151 C   0  0  0  0  0  0  0  0  0  0  0  0
   47.1578    9.4318  -10.2169 C   0  0  0  0  0  0  0  0  0  0  0  0
   48.0991    9.5677  -11.1520 N   0  0  0  0  0  0  0  0  0  0  0  0
   48.0927   10.8397  -11.6154 N   0  0  0  0  0  0  0  0  0  0  0  0
   49.0043   11.2695  -12.6548 C   0  0  0  0  0  0  0  0  0  0  0  0
   37.9940   14.0255  -14.3870 C   0  0  0  0  0  0  0  0  0  0  0  0
   39.1648   13.8566  -14.6280 C   0  0  0  0  0  0  0  0  0  0  0  0
   34.4343   15.3850  -11.3078 C   0  0  0  0  0  0  0  0  0  0  0  0
   35.2594   14.5935  -12.2312 N   0  0  0  0  0  0  0  0  0  0  0  0
   34.9335   13.2637  -12.6605 C   0  0  0  0  0  0  0  0  0  0  0  0
   35.8563   12.9524  -13.7920 C   0  0  0  0  0  0  0  0  0  0  0  0
   36.5649   14.2282  -14.1191 C   0  0  0  0  0  0  0  0  0  0  0  0
   35.9464   14.9450  -15.1288 O   0  0  0  0  0  0  0  0  0  0  0  0
   36.4819   14.9865  -12.8424 C   0  0  0  0  0  0  0  0  0  0  0  0
   37.2937   15.8060  -12.3692 O   0  0  0  0  0  0  0  0  0  0  0  0
   35.8271   15.8759  -14.8235 H   0  0  0  0  0  0  0  0  0  0  0  0
 33 34  1  0  0  0
 34 35  1  0  0  0
 35 36  1  0  0  0
 36 37  1  0  0  0
 37 38  1  0  0  0
 37 31  1  0  0  0
 31 32  3  0  0  0
 32  1  1  0  0  0
  1  2  1  0  0  0
  2  3  2  0  0  0
  3  4  1  0  0  0
  4  5  2  0  0  0
  5  6  1  0  0  0
  6 17  1  0  0  0
 17 18  1  0  0  0
 17 19  2  0  0  0
  6  7  2  0  0  0
  7 22  1  0  0  0
 22 23  1  0  0  0
 22 25  1  0  0  0
 25 26  2  0  0  0
 26 27  1  0  0  0
 27 28  2  0  0  0
 28 29  1  0  0  0
 29 30  1  0  0  0
  7  8  1  0  0  0
  8  9  1  0  0  0
  9 10  1  0  0  0
 10 11  1  0  0  0
 11 12  1  0  0  0
 11 13  1  0  0  0
 13 14  2  0  0  0
 14 15  1  0  0  0
 15 16  1  0  0  0
 37 39  1  0  0  0
 39 40  2  0  0  0
 39 34  1  0  0  0
 15  1  2  0  0  0
 13  3  1  0  0  0
  8  4  1  0  0  0
 12  9  1  0  0  0
 29 25  1  0  0  0
 38 41  1  0  0  0
 18 20  1  0  0  0
 18 21  1  0  0  0
 23 24  1  0  0  0
M  END
> <minimizedAffinity>
-8.43480

> <CNNscore>
0.1008266434

> <CNNaffinity>
6.1931047440

> <CNN_VS>
0.6244299412

> <CNNaffinity_variance>
0.1646311581

$$$$
[H]O[C@@]1(C#Cc2c([H])c3c(c([H])c2F)C2([H])C([H])([H])C([H])(n4c-3nc(C(=O)N([H])[H])c4[C@@]([H])(O[H])c3c([H])c([H])nn3C([H])([H])[H])C2([H])[H])C(=O)N(C([H])([H])[H])C([H])([H])C1([H])[H]


 41 46  0  0  0  0  0  0  0  0999 V2000
   41.1412   13.5436  -14.6863 C   0  0  0  0  0  0  0  0  0  0  0  0
   40.3104   14.2002  -13.7835 C   0  0  0  0  0  0  0  0  0  0  0  0
   38.9605   13.9537  -13.8124 C   0  0  0  0  0  0  0  0  0  0  0  0
   38.2010   14.7394  -12.7987 C   0  0  0  0  0  0  0  0  0  0  0  0
   38.7316   15.5855  -11.9546 N   0  0  0  0  0  0  0  0  0  0  0  0
   37.7437   16.1603  -11.1837 C   0  0  0  0  0  0  0  0  0  0  0  0
   36.5703   15.6009  -11.6297 C   0  0  0  0  0  0  0  0  0  0  0  0
   36.8742   14.7310  -12.6116 N   0  0  0  0  0  0  0  0  0  0  0  0
   35.9434   13.8332  -13.3297 C   0  0  0  0  0  0  0  0  0  0  0  0
   36.5771   12.4141  -13.4218 C   0  0  0  0  0  0  0  0  0  0  0  0
   37.0188   12.6913  -14.8664 C   0  0  0  0  0  0  0  0  0  0  0  0
   36.1332   13.9143  -14.8188 C   0  0  0  0  0  0  0  0  0  0  0  0
   38.4846   13.0571  -14.7442 C   0  0  0  0  0  0  0  0  0  0  0  0
   39.2831   12.4038  -15.6374 C   0  0  0  0  0  0  0  0  0  0  0  0
   40.6376   12.6515  -15.6083 C   0  0  0  0  0  0  0  0  0  0  0  0
   41.4321   12.0075  -16.4902 F   0  0  0  0  0  0  0  0  0  0  0  0
   38.0573   17.1126  -10.1194 C   0  0  0  0  0  0  0  0  0  0  0  0
   37.6158   18.4667  -10.2960 N   0  0  0  0  0  0  0  0  0  0  0  0
   38.6646   16.9046   -9.0629 O   0  0  0  0  0  0  0  0  0  0  0  0
   37.8814   19.0134  -11.1274 H   0  0  0  0  0  0  0  0  0  0  0  0
   37.0222   18.8699   -9.5564 H   0  0  0  0  0  0  0  0  0  0  0  0
   35.1957   15.9003  -11.2051 C   0  0  0  0  0  0  0  0  0  0  0  0
   34.2030   15.5743  -12.0949 O   0  0  0  0  0  0  0  0  0  0  0  0
   33.3067   15.5702  -11.7375 H   0  0  0  0  0  0  0  0  0  0  0  0
   34.8421   15.4923   -9.8018 C   0  0  0  0  0  0  0  0  0  0  0  0
   35.6906   14.9140   -8.8687 C   0  0  0  0  0  0  0  0  0  0  0  0
   35.0345   14.6816   -7.6924 C   0  0  0  0  0  0  0  0  0  0  0  0
   33.7879   15.1125   -7.8912 N   0  0  0  0  0  0  0  0  0  0  0  0
   33.6745   15.5967   -9.1503 N   0  0  0  0  0  0  0  0  0  0  0  0
   32.4283   16.1493   -9.6377 C   0  0  0  0  0  0  0  0  0  0  0  0
   43.7489   14.0640  -14.5852 C   0  0  0  0  0  0  0  0  0  0  0  0
   42.5679   13.8192  -14.6386 C   0  0  0  0  0  0  0  0  0  0  0  0
   48.4000   12.5263  -14.6528 C   0  0  0  0  0  0  0  0  0  0  0  0
   47.1348   13.1396  -14.2250 N   0  0  0  0  0  0  0  0  0  0  0  0
   46.9634   13.8475  -12.9888 C   0  0  0  0  0  0  0  0  0  0  0  0
   45.6450   14.5416  -13.0845 C   0  0  0  0  0  0  0  0  0  0  0  0
   45.1819   14.3703  -14.4963 C   0  0  0  0  0  0  0  0  0  0  0  0
   45.5352   15.4312  -15.3121 O   0  0  0  0  0  0  0  0  0  0  0  0
   45.9001   13.1426  -14.9307 C   0  0  0  0  0  0  0  0  0  0  0  0
   45.5317   12.2710  -15.7426 O   0  0  0  0  0  0  0  0  0  0  0  0
   45.9700   15.0716  -16.1218 H   0  0  0  0  0  0  0  0  0  0  0  0
 33 34  1  0  0  0
 34 35  1  0  0  0
 35 36  1  0  0  0
 36 37  1  0  0  0
 37 38  1  0  0  0
 37 31  1  0  0  0
 31 32  3  0  0  0
 32  1  1  0  0  0
  1  2  1  0  0  0
  2  3  2  0  0  0
  3  4  1  0  0  0
  4  5  2  0  0  0
  5  6  1  0  0  0
  6 17  1  0  0  0
 17 18  1  0  0  0
 17 19  2  0  0  0
  6  7  2  0  0  0
  7 22  1  0  0  0
 22 23  1  0  0  0
 22 25  1  0  0  0
 25 26  2  0  0  0
 26 27  1  0  0  0
 27 28  2  0  0  0
 28 29  1  0  0  0
 29 30  1  0  0  0
  7  8  1  0  0  0
  8  9  1  0  0  0
  9 10  1  0  0  0
 10 11  1  0  0  0
 11 12  1  0  0  0
 11 13  1  0  0  0
 13 14  2  0  0  0
 14 15  1  0  0  0
 15 16  1  0  0  0
 37 39  1  0  0  0
 39 40  2  0  0  0
 39 34  1  0  0  0
 15  1  2  0  0  0
 13  3  1  0  0  0
  8  4  1  0  0  0
 12  9  1  0  0  0
 29 25  1  0  0  0
 38 41  1  0  0  0
 18 20  1  0  0  0
 18 21  1  0  0  0
 23 24  1  0  0  0
M  END
> <minimizedAffinity>
-9.95598

> <CNNscore>
0.0880068913

> <CNNaffinity>
5.8923211098

> <CNN_VS>
0.5185648799

> <CNNaffinity_variance>
0.5768988729

$$$$
[H]O[C@@]1(C#Cc2c([H])c3c(c([H])c2F)C2([H])C([H])([H])C([H])(n4c-3nc(C(=O)N([H])[H])c4[C@@]([H])(O[H])c3c([H])c([H])nn3C([H])([H])[H])C2([H])[H])C(=O)N(C([H])([H])[H])C([H])([H])C1([H])[H]


 41 46  0  0  0  0  0  0  0  0999 V2000
   40.6212   15.3899  -12.6644 C   0  0  0  0  0  0  0  0  0  0  0  0
   40.2225   15.6969  -11.3670 C   0  0  0  0  0  0  0  0  0  0  0  0
   38.8849   15.7014  -11.0595 C   0  0  0  0  0  0  0  0  0  0  0  0
   38.6129   16.0619   -9.6391 C   0  0  0  0  0  0  0  0  0  0  0  0
   39.5277   16.3512   -8.7506 N   0  0  0  0  0  0  0  0  0  0  0  0
   38.9305   16.6690   -7.5493 C   0  0  0  0  0  0  0  0  0  0  0  0
   37.5804   16.5553   -7.7793 C   0  0  0  0  0  0  0  0  0  0  0  0
   37.4098   16.1770   -9.0603 N   0  0  0  0  0  0  0  0  0  0  0  0
   36.1339   15.8481   -9.7326 C   0  0  0  0  0  0  0  0  0  0  0  0
   36.3164   14.5387  -10.5547 C   0  0  0  0  0  0  0  0  0  0  0  0
   36.4887   15.3567  -11.8431 C   0  0  0  0  0  0  0  0  0  0  0  0
   36.0066   16.5518  -11.0549 C   0  0  0  0  0  0  0  0  0  0  0  0
   37.9881   15.3980  -12.0607 C   0  0  0  0  0  0  0  0  0  0  0  0
   38.3595   15.0948  -13.3383 C   0  0  0  0  0  0  0  0  0  0  0  0
   39.7019   15.0905  -13.6466 C   0  0  0  0  0  0  0  0  0  0  0  0
   40.0745   14.7910  -14.9095 F   0  0  0  0  0  0  0  0  0  0  0  0
   39.7198   16.9877   -6.3605 C   0  0  0  0  0  0  0  0  0  0  0  0
   40.1252   18.3533   -6.1857 N   0  0  0  0  0  0  0  0  0  0  0  0
   40.0935   16.2228   -5.4640 O   0  0  0  0  0  0  0  0  0  0  0  0
   40.6608   18.8509   -6.9110 H   0  0  0  0  0  0  0  0  0  0  0  0
   39.8586   18.8156   -5.3041 H   0  0  0  0  0  0  0  0  0  0  0  0
   36.4694   16.8439   -6.8618 C   0  0  0  0  0  0  0  0  0  0  0  0
   36.0097   15.7869   -6.1169 O   0  0  0  0  0  0  0  0  0  0  0  0
   35.4386   16.0168   -5.3738 H   0  0  0  0  0  0  0  0  0  0  0  0
   36.6147   18.0892   -6.0316 C   0  0  0  0  0  0  0  0  0  0  0  0
   36.6751   18.1593   -4.6473 C   0  0  0  0  0  0  0  0  0  0  0  0
   36.8157   19.4536   -4.2312 C   0  0  0  0  0  0  0  0  0  0  0  0
   36.8434   20.1833   -5.3474 N   0  0  0  0  0  0  0  0  0  0  0  0
   36.7240   19.3677   -6.4213 N   0  0  0  0  0  0  0  0  0  0  0  0
   36.7396   19.8897   -7.7716 C   0  0  0  0  0  0  0  0  0  0  0  0
   43.2265   15.3772  -13.2059 C   0  0  0  0  0  0  0  0  0  0  0  0
   42.0428   15.3908  -12.9687 C   0  0  0  0  0  0  0  0  0  0  0  0
   47.6456   13.4693  -12.2930 C   0  0  0  0  0  0  0  0  0  0  0  0
   46.5393   14.4231  -12.4555 N   0  0  0  0  0  0  0  0  0  0  0  0
   46.6700   15.8414  -12.2812 C   0  0  0  0  0  0  0  0  0  0  0  0
   45.4134   16.4451  -12.8154 C   0  0  0  0  0  0  0  0  0  0  0  0
   44.6669   15.3362  -13.4862 C   0  0  0  0  0  0  0  0  0  0  0  0
   44.9273   15.2546  -14.8433 O   0  0  0  0  0  0  0  0  0  0  0  0
   45.1924   14.1253  -12.8010 C   0  0  0  0  0  0  0  0  0  0  0  0
   44.6068   13.0514  -12.5596 O   0  0  0  0  0  0  0  0  0  0  0  0
   45.1645   14.3216  -15.0605 H   0  0  0  0  0  0  0  0  0  0  0  0
 33 34  1  0  0  0
 34 35  1  0  0  0
 35 36  1  0  0  0
 36 37  1  0  0  0
 37 38  1  0  0  0
 37 31  1  0  0  0
 31 32  3  0  0  0
 32  1  1  0  0  0
  1  2  1  0  0  0
  2  3  2  0  0  0
  3  4  1  0  0  0
  4  5  2  0  0  0
  5  6  1  0  0  0
  6 17  1  0  0  0
 17 18  1  0  0  0
 17 19  2  0  0  0
  6  7  2  0  0  0
  7 22  1  0  0  0
 22 23  1  0  0  0
 22 25  1  0  0  0
 25 26  2  0  0  0
 26 27  1  0  0  0
 27 28  2  0  0  0
 28 29  1  0  0  0
 29 30  1  0  0  0
  7  8  1  0  0  0
  8  9  1  0  0  0
  9 10  1  0  0  0
 10 11  1  0  0  0
 11 12  1  0  0  0
 11 13  1  0  0  0
 13 14  2  0  0  0
 14 15  1  0  0  0
 15 16  1  0  0  0
 37 39  1  0  0  0
 39 40  2  0  0  0
 39 34  1  0  0  0
 15  1  2  0  0  0
 13  3  1  0  0  0
  8  4  1  0  0  0
 12  9  1  0  0  0
 29 25  1  0  0  0
 38 41  1  0  0  0
 18 20  1  0  0  0
 18 21  1  0  0  0
 23 24  1  0  0  0
M  END
> <minimizedAffinity>
-6.72028

> <CNNscore>
0.0868181735

> <CNNaffinity>
5.7233428955

> <CNN_VS>
0.4968901873

> <CNNaffinity_variance>
0.1423916072

$$$$
[H]O[C@@]1(C#Cc2c([H])c3c(c([H])c2F)C2([H])C([H])([H])C([H])(n4c-3nc(C(=O)N([H])[H])c4[C@@]([H])(O[H])c3c([H])c([H])nn3C([H])([H])[H])C2([H])[H])C(=O)N(C([H])([H])[H])C([H])([H])C1([H])[H]


 41 46  0  0  0  0  0  0  0  0999 V2000
   40.8209   15.9099  -11.6191 C   0  0  0  0  0  0  0  0  0  0  0  0
   42.1356   15.8612  -11.1656 C   0  0  0  0  0  0  0  0  0  0  0  0
   43.0890   15.2452  -11.9372 C   0  0  0  0  0  0  0  0  0  0  0  0
   44.4434   15.2597  -11.3150 C   0  0  0  0  0  0  0  0  0  0  0  0
   44.7303   15.7929  -10.1560 N   0  0  0  0  0  0  0  0  0  0  0  0
   46.0650   15.6006   -9.8690 C   0  0  0  0  0  0  0  0  0  0  0  0
   46.5653   14.9037  -10.9426 C   0  0  0  0  0  0  0  0  0  0  0  0
   45.5589   14.7123  -11.8165 N   0  0  0  0  0  0  0  0  0  0  0  0
   45.6438   14.0865  -13.1541 C   0  0  0  0  0  0  0  0  0  0  0  0
   44.8554   14.9598  -14.1737 C   0  0  0  0  0  0  0  0  0  0  0  0
   43.6566   14.0039  -14.0847 C   0  0  0  0  0  0  0  0  0  0  0  0
   44.5713   13.0516  -13.3509 C   0  0  0  0  0  0  0  0  0  0  0  0
   42.6964   14.6974  -13.1390 C   0  0  0  0  0  0  0  0  0  0  0  0
   41.4127   14.7349  -13.6005 C   0  0  0  0  0  0  0  0  0  0  0  0
   40.4561   15.3530  -12.8258 C   0  0  0  0  0  0  0  0  0  0  0  0
   39.1842   15.3928  -13.2781 F   0  0  0  0  0  0  0  0  0  0  0  0
   46.6737   16.1379   -8.6530 C   0  0  0  0  0  0  0  0  0  0  0  0
   45.8716   16.1454   -7.4629 N   0  0  0  0  0  0  0  0  0  0  0  0
   47.8124   16.5966   -8.5072 O   0  0  0  0  0  0  0  0  0  0  0  0
   44.9523   16.6088   -7.4385 H   0  0  0  0  0  0  0  0  0  0  0  0
   46.2536   15.6680   -6.6333 H   0  0  0  0  0  0  0  0  0  0  0  0
   47.9222   14.3739  -11.1362 C   0  0  0  0  0  0  0  0  0  0  0  0
   48.9498   15.2702  -10.9804 O   0  0  0  0  0  0  0  0  0  0  0  0
   49.8305   14.8851  -10.8953 H   0  0  0  0  0  0  0  0  0  0  0  0
   48.2159   13.0657  -10.4554 C   0  0  0  0  0  0  0  0  0  0  0  0
   48.4854   12.8756   -9.1078 C   0  0  0  0  0  0  0  0  0  0  0  0
   48.6993   11.5533   -8.8361 C   0  0  0  0  0  0  0  0  0  0  0  0
   48.5634   10.9251  -10.0049 N   0  0  0  0  0  0  0  0  0  0  0  0
   48.2742   11.8288  -10.9704 N   0  0  0  0  0  0  0  0  0  0  0  0
   48.0561   11.4238  -12.3432 C   0  0  0  0  0  0  0  0  0  0  0  0
   38.9984   17.1274  -10.1100 C   0  0  0  0  0  0  0  0  0  0  0  0
   39.8267   16.5670  -10.7862 C   0  0  0  0  0  0  0  0  0  0  0  0
   36.5694   17.6009   -5.8818 C   0  0  0  0  0  0  0  0  0  0  0  0
   36.8750   17.4049   -7.3060 N   0  0  0  0  0  0  0  0  0  0  0  0
   35.8792   17.2341   -8.3247 C   0  0  0  0  0  0  0  0  0  0  0  0
   36.5919   17.3602   -9.6305 C   0  0  0  0  0  0  0  0  0  0  0  0
   37.9794   17.8169   -9.3092 C   0  0  0  0  0  0  0  0  0  0  0  0
   38.1210   19.1926   -9.3659 O   0  0  0  0  0  0  0  0  0  0  0  0
   38.1621   17.3512   -7.9086 C   0  0  0  0  0  0  0  0  0  0  0  0
   39.2089   16.9817   -7.3411 O   0  0  0  0  0  0  0  0  0  0  0  0
   38.5504   19.4973   -8.5313 H   0  0  0  0  0  0  0  0  0  0  0  0
 33 34  1  0  0  0
 34 35  1  0  0  0
 35 36  1  0  0  0
 36 37  1  0  0  0
 37 38  1  0  0  0
 37 31  1  0  0  0
 31 32  3  0  0  0
 32  1  1  0  0  0
  1  2  1  0  0  0
  2  3  2  0  0  0
  3  4  1  0  0  0
  4  5  2  0  0  0
  5  6  1  0  0  0
  6 17  1  0  0  0
 17 18  1  0  0  0
 17 19  2  0  0  0
  6  7  2  0  0  0
  7 22  1  0  0  0
 22 23  1  0  0  0
 22 25  1  0  0  0
 25 26  2  0  0  0
 26 27  1  0  0  0
 27 28  2  0  0  0
 28 29  1  0  0  0
 29 30  1  0  0  0
  7  8  1  0  0  0
  8  9  1  0  0  0
  9 10  1  0  0  0
 10 11  1  0  0  0
 11 12  1  0  0  0
 11 13  1  0  0  0
 13 14  2  0  0  0
 14 15  1  0  0  0
 15 16  1  0  0  0
 37 39  1  0  0  0
 39 40  2  0  0  0
 39 34  1  0  0  0
 15  1  2  0  0  0
 13  3  1  0  0  0
  8  4  1  0  0  0
 12  9  1  0  0  0
 29 25  1  0  0  0
 38 41  1  0  0  0
 18 20  1  0  0  0
 18 21  1  0  0  0
 23 24  1  0  0  0
M  END
> <minimizedAffinity>
-5.90674

> <CNNscore>
0.0752692968

> <CNNaffinity>
5.6829571724

> <CNN_VS>
0.4277521968

> <CNNaffinity_variance>
0.0895424113

$$$$
[H]O[C@@]1(C#Cc2c([H])c3c(c([H])c2F)C2([H])C([H])([H])C([H])(n4c-3nc(C(=O)N([H])[H])c4[C@@]([H])(O[H])c3c([H])c([H])nn3C([H])([H])[H])C2([H])[H])C(=O)N(C([H])([H])[H])C([H])([H])C1([H])[H]


 41 46  0  0  0  0  0  0  0  0999 V2000
   40.8609   15.5210   -9.3650 C   0  0  0  0  0  0  0  0  0  0  0  0
   41.9633   14.7456   -9.0184 C   0  0  0  0  0  0  0  0  0  0  0  0
   43.0790   14.7709   -9.8173 C   0  0  0  0  0  0  0  0  0  0  0  0
   44.1692   13.8805   -9.3270 C   0  0  0  0  0  0  0  0  0  0  0  0
   44.1042   13.1373   -8.2530 N   0  0  0  0  0  0  0  0  0  0  0  0
   45.2707   12.4163   -8.1106 C   0  0  0  0  0  0  0  0  0  0  0  0
   46.0474   12.7758   -9.1858 C   0  0  0  0  0  0  0  0  0  0  0  0
   45.3575   13.6760   -9.9115 N   0  0  0  0  0  0  0  0  0  0  0  0
   45.8265   14.4066  -11.1092 C   0  0  0  0  0  0  0  0  0  0  0  0
   45.4411   15.9086  -10.9705 C   0  0  0  0  0  0  0  0  0  0  0  0
   44.2295   15.6956  -11.8900 C   0  0  0  0  0  0  0  0  0  0  0  0
   44.8204   14.3462  -12.2246 C   0  0  0  0  0  0  0  0  0  0  0  0
   43.0565   15.5721  -10.9381 C   0  0  0  0  0  0  0  0  0  0  0  0
   41.9855   16.3390  -11.2945 C   0  0  0  0  0  0  0  0  0  0  0  0
   40.8658   16.3133  -10.4927 C   0  0  0  0  0  0  0  0  0  0  0  0
   39.8033   17.0705  -10.8411 F   0  0  0  0  0  0  0  0  0  0  0  0
   45.4932   11.5350   -6.9653 C   0  0  0  0  0  0  0  0  0  0  0  0
   44.5045   10.5271   -6.7079 N   0  0  0  0  0  0  0  0  0  0  0  0
   46.4399   11.5398   -6.1703 O   0  0  0  0  0  0  0  0  0  0  0  0
   43.5129   10.7704   -6.5734 H   0  0  0  0  0  0  0  0  0  0  0  0
   44.8276    9.5496   -6.6629 H   0  0  0  0  0  0  0  0  0  0  0  0
   47.3690   12.2617   -9.5711 C   0  0  0  0  0  0  0  0  0  0  0  0
   48.2603   12.0562   -8.5479 O   0  0  0  0  0  0  0  0  0  0  0  0
   49.0357   11.5263   -8.7696 H   0  0  0  0  0  0  0  0  0  0  0  0
   47.3655   11.1163  -10.5453 C   0  0  0  0  0  0  0  0  0  0  0  0
   46.7817    9.8716  -10.3582 C   0  0  0  0  0  0  0  0  0  0  0  0
   46.9671    9.0773  -11.4549 C   0  0  0  0  0  0  0  0  0  0  0  0
   47.6600    9.8215  -12.3181 N   0  0  0  0  0  0  0  0  0  0  0  0
   47.8965   11.0385  -11.7743 N   0  0  0  0  0  0  0  0  0  0  0  0
   48.6184   12.0625  -12.4998 C   0  0  0  0  0  0  0  0  0  0  0  0
   38.7104   15.4642   -7.7988 C   0  0  0  0  0  0  0  0  0  0  0  0
   39.6893   15.4796   -8.5051 C   0  0  0  0  0  0  0  0  0  0  0  0
   35.6280   13.0370   -4.8646 C   0  0  0  0  0  0  0  0  0  0  0  0
   36.1676   13.8343   -5.9750 N   0  0  0  0  0  0  0  0  0  0  0  0
   35.3653   14.3985   -7.0224 C   0  0  0  0  0  0  0  0  0  0  0  0
   36.2485   15.3518   -7.7573 C   0  0  0  0  0  0  0  0  0  0  0  0
   37.5075   15.4597   -6.9572 C   0  0  0  0  0  0  0  0  0  0  0  0
   37.4933   16.5223   -6.0703 O   0  0  0  0  0  0  0  0  0  0  0  0
   37.5286   14.1777   -6.2038 C   0  0  0  0  0  0  0  0  0  0  0  0
   38.5131   13.5099   -5.8305 O   0  0  0  0  0  0  0  0  0  0  0  0
   37.7520   16.1884   -5.1783 H   0  0  0  0  0  0  0  0  0  0  0  0
 33 34  1  0  0  0
 34 35  1  0  0  0
 35 36  1  0  0  0
 36 37  1  0  0  0
 37 38  1  0  0  0
 37 31  1  0  0  0
 31 32  3  0  0  0
 32  1  1  0  0  0
  1  2  1  0  0  0
  2  3  2  0  0  0
  3  4  1  0  0  0
  4  5  2  0  0  0
  5  6  1  0  0  0
  6 17  1  0  0  0
 17 18  1  0  0  0
 17 19  2  0  0  0
  6  7  2  0  0  0
  7 22  1  0  0  0
 22 23  1  0  0  0
 22 25  1  0  0  0
 25 26  2  0  0  0
 26 27  1  0  0  0
 27 28  2  0  0  0
 28 29  1  0  0  0
 29 30  1  0  0  0
  7  8  1  0  0  0
  8  9  1  0  0  0
  9 10  1  0  0  0
 10 11  1  0  0  0
 11 12  1  0  0  0
 11 13  1  0  0  0
 13 14  2  0  0  0
 14 15  1  0  0  0
 15 16  1  0  0  0
 37 39  1  0  0  0
 39 40  2  0  0  0
 39 34  1  0  0  0
 15  1  2  0  0  0
 13  3  1  0  0  0
  8  4  1  0  0  0
 12  9  1  0  0  0
 29 25  1  0  0  0
 38 41  1  0  0  0
 18 20  1  0  0  0
 18 21  1  0  0  0
 23 24  1  0  0  0
M  END
> <minimizedAffinity>
-6.39867

> <CNNscore>
0.0748406723

> <CNNaffinity>
5.3529176712

> <CNN_VS>
0.4006159604

> <CNNaffinity_variance>
0.1050116792

$$$$
[H]O[C@@]1(C#Cc2c([H])c3c(c([H])c2F)C2([H])C([H])([H])C([H])(n4c-3nc(C(=O)N([H])[H])c4[C@@]([H])(O[H])c3c([H])c([H])nn3C([H])([H])[H])C2([H])[H])C(=O)N(C([H])([H])[H])C([H])([H])C1([H])[H]


 41 46  0  0  0  0  0  0  0  0999 V2000
   39.9054   14.7924   -6.6044 C   0  0  0  0  0  0  0  0  0  0  0  0
   39.6247   14.8673   -7.9654 C   0  0  0  0  0  0  0  0  0  0  0  0
   38.3491   15.1696   -8.3716 C   0  0  0  0  0  0  0  0  0  0  0  0
   38.1994   15.1993   -9.8543 C   0  0  0  0  0  0  0  0  0  0  0  0
   39.1605   14.9655  -10.7097 N   0  0  0  0  0  0  0  0  0  0  0  0
   38.6719   15.0431  -11.9965 C   0  0  0  0  0  0  0  0  0  0  0  0
   37.3368   15.3370  -11.8556 C   0  0  0  0  0  0  0  0  0  0  0  0
   37.0718   15.4344  -10.5390 N   0  0  0  0  0  0  0  0  0  0  0  0
   35.7887   15.8195   -9.9118 C   0  0  0  0  0  0  0  0  0  0  0  0
   36.0668   16.8514   -8.7797 C   0  0  0  0  0  0  0  0  0  0  0  0
   35.9558   15.7417   -7.7237 C   0  0  0  0  0  0  0  0  0  0  0  0
   35.3971   14.8642   -8.8191 C   0  0  0  0  0  0  0  0  0  0  0  0
   37.3941   15.3877   -7.4025 C   0  0  0  0  0  0  0  0  0  0  0  0
   37.6498   15.3186   -6.0638 C   0  0  0  0  0  0  0  0  0  0  0  0
   38.9301   15.0150   -5.6565 C   0  0  0  0  0  0  0  0  0  0  0  0
   39.1882   14.9454   -4.3328 F   0  0  0  0  0  0  0  0  0  0  0  0
   39.5417   14.8723  -13.1593 C   0  0  0  0  0  0  0  0  0  0  0  0
   39.5565   13.5818  -13.7870 N   0  0  0  0  0  0  0  0  0  0  0  0
   40.2830   15.7085  -13.6881 O   0  0  0  0  0  0  0  0  0  0  0  0
   39.7782   12.7287  -13.2543 H   0  0  0  0  0  0  0  0  0  0  0  0
   39.3365   13.5437  -14.7930 H   0  0  0  0  0  0  0  0  0  0  0  0
   36.3143   15.4678  -12.9028 C   0  0  0  0  0  0  0  0  0  0  0  0
   36.7268   16.0309  -14.0844 O   0  0  0  0  0  0  0  0  0  0  0  0
   36.1256   15.9217  -14.8313 H   0  0  0  0  0  0  0  0  0  0  0  0
   35.4567   14.2543  -13.1333 C   0  0  0  0  0  0  0  0  0  0  0  0
   35.8672   13.0377  -13.6589 C   0  0  0  0  0  0  0  0  0  0  0  0
   34.8236   12.1573  -13.7209 C   0  0  0  0  0  0  0  0  0  0  0  0
   33.7720   12.8201  -13.2371 N   0  0  0  0  0  0  0  0  0  0  0  0
   34.1513   14.0713  -12.8862 N   0  0  0  0  0  0  0  0  0  0  0  0
   33.2123   15.0124  -12.3129 C   0  0  0  0  0  0  0  0  0  0  0  0
   42.3943   14.1961   -5.8759 C   0  0  0  0  0  0  0  0  0  0  0  0
   41.2631   14.4708   -6.1957 C   0  0  0  0  0  0  0  0  0  0  0  0
   46.4601   11.5877   -6.6930 C   0  0  0  0  0  0  0  0  0  0  0  0
   45.2808   12.1739   -6.0405 N   0  0  0  0  0  0  0  0  0  0  0  0
   44.9232   11.9423   -4.6704 C   0  0  0  0  0  0  0  0  0  0  0  0
   43.8559   12.9339   -4.3442 C   0  0  0  0  0  0  0  0  0  0  0  0
   43.7775   13.8657   -5.5115 C   0  0  0  0  0  0  0  0  0  0  0  0
   44.5543   14.9998   -5.3493 O   0  0  0  0  0  0  0  0  0  0  0  0
   44.3186   13.0423   -6.6256 C   0  0  0  0  0  0  0  0  0  0  0  0
   44.0182   13.0751   -7.8352 O   0  0  0  0  0  0  0  0  0  0  0  0
   45.1126   15.1141   -6.1549 H   0  0  0  0  0  0  0  0  0  0  0  0
 33 34  1  0  0  0
 34 35  1  0  0  0
 35 36  1  0  0  0
 36 37  1  0  0  0
 37 38  1  0  0  0
 37 31  1  0  0  0
 31 32  3  0  0  0
 32  1  1  0  0  0
  1  2  1  0  0  0
  2  3  2  0  0  0
  3  4  1  0  0  0
  4  5  2  0  0  0
  5  6  1  0  0  0
  6 17  1  0  0  0
 17 18  1  0  0  0
 17 19  2  0  0  0
  6  7  2  0  0  0
  7 22  1  0  0  0
 22 23  1  0  0  0
 22 25  1  0  0  0
 25 26  2  0  0  0
 26 27  1  0  0  0
 27 28  2  0  0  0
 28 29  1  0  0  0
 29 30  1  0  0  0
  7  8  1  0  0  0
  8  9  1  0  0  0
  9 10  1  0  0  0
 10 11  1  0  0  0
 11 12  1  0  0  0
 11 13  1  0  0  0
 13 14  2  0  0  0
 14 15  1  0  0  0
 15 16  1  0  0  0
 37 39  1  0  0  0
 39 40  2  0  0  0
 39 34  1  0  0  0
 15  1  2  0  0  0
 13  3  1  0  0  0
  8  4  1  0  0  0
 12  9  1  0  0  0
 29 25  1  0  0  0
 38 41  1  0  0  0
 18 20  1  0  0  0
 18 21  1  0  0  0
 23 24  1  0  0  0
M  END
> <minimizedAffinity>
-6.72669

> <CNNscore>
0.0732903108

> <CNNaffinity>
5.8063077927

> <CNN_VS>
0.4255461097

> <CNNaffinity_variance>
0.1100992113

$$$$
[H]O[C@@](C#Cc1c([H])c2c(c([H])c1F)C1([H])C([H])([H])C([H])(n3c-2nc(C(=O)N([H])[H])c3[H])C1([H])[H])(c1noc(C([H])([H])[H])c1[H])C([H])([H])[H]


 33 37  0  0  0  0  0  0  0  0999 V2000
   40.8110   15.1014  -13.2202 C   0  0  0  0  0  0  0  0  0  0  0  0
   40.4666   14.2477  -14.2458 C   0  0  0  0  0  0  0  0  0  0  0  0
   39.1928   13.7794  -14.4474 C   0  0  0  0  0  0  0  0  0  0  0  0
   39.0026   12.8707  -15.5877 C   0  0  0  0  0  0  0  0  0  0  0  0
   39.8200   12.6670  -16.6232 N   0  0  0  0  0  0  0  0  0  0  0  0
   39.2408   11.7850  -17.4921 C   0  0  0  0  0  0  0  0  0  0  0  0
   38.0124   11.4672  -16.8982 C   0  0  0  0  0  0  0  0  0  0  0  0
   37.8811   12.1290  -15.7565 N   0  0  0  0  0  0  0  0  0  0  0  0
   36.7144   12.0439  -14.9054 C   0  0  0  0  0  0  0  0  0  0  0  0
   37.0034   12.1237  -13.4363 C   0  0  0  0  0  0  0  0  0  0  0  0
   36.8320   13.6920  -13.4622 C   0  0  0  0  0  0  0  0  0  0  0  0
   36.1213   13.4754  -14.7589 C   0  0  0  0  0  0  0  0  0  0  0  0
   38.2207   14.2199  -13.5420 C   0  0  0  0  0  0  0  0  0  0  0  0
   38.5049   15.0822  -12.5041 C   0  0  0  0  0  0  0  0  0  0  0  0
   39.7963   15.5007  -12.3651 C   0  0  0  0  0  0  0  0  0  0  0  0
   40.1433   16.3558  -11.3511 F   0  0  0  0  0  0  0  0  0  0  0  0
   39.7763   11.2658  -18.7439 C   0  0  0  0  0  0  0  0  0  0  0  0
   38.9003   10.7436  -19.7210 N   0  0  0  0  0  0  0  0  0  0  0  0
   40.9958   11.2767  -18.9660 O   0  0  0  0  0  0  0  0  0  0  0  0
   37.8823   10.4939  -19.5200 H   0  0  0  0  0  0  0  0  0  0  0  0
   39.2300   10.5743  -20.6961 H   0  0  0  0  0  0  0  0  0  0  0  0
   43.3237   15.7725  -12.7104 C   0  0  0  0  0  0  0  0  0  0  0  0
   42.1695   15.4610  -12.8892 C   0  0  0  0  0  0  0  0  0  0  0  0
   44.7712   16.1299  -12.6136 C   0  0  0  0  0  0  0  0  0  0  0  0
   45.6058   15.2274  -13.4284 C   0  0  0  0  0  0  0  0  0  0  0  0
   45.1938   15.9271  -11.2545 O   0  0  0  0  0  0  0  0  0  0  0  0
   44.4279   16.2966  -10.7107 H   0  0  0  0  0  0  0  0  0  0  0  0
   43.6923   20.9129  -13.8905 C   0  0  0  0  0  0  0  0  0  0  0  0
   44.4434   19.7008  -13.4431 C   0  0  0  0  0  0  0  0  0  0  0  0
   43.8933   18.4497  -13.3228 C   0  0  0  0  0  0  0  0  0  0  0  0
   44.8772   17.5686  -12.8751 C   0  0  0  0  0  0  0  0  0  0  0  0
   45.9635   18.3528  -12.7580 N   0  0  0  0  0  0  0  0  0  0  0  0
   45.6928   19.5794  -13.0895 O   0  0  0  0  0  0  0  0  0  0  0  0
 28 29  1  0  0  0
 29 30  2  0  0  0
 30 31  1  0  0  0
 31 32  2  0  0  0
 32 33  1  0  0  0
 31 24  1  0  0  0
 24 25  1  0  0  0
 24 26  1  0  0  0
 24 22  1  0  0  0
 22 23  3  0  0  0
 23  1  1  0  0  0
  1  2  1  0  0  0
  2  3  2  0  0  0
  3  4  1  0  0  0
  4  5  2  0  0  0
  5  6  1  0  0  0
  6  7  2  0  0  0
  7  8  1  0  0  0
  8  9  1  0  0  0
  9 10  1  0  0  0
 10 11  1  0  0  0
 11 12  1  0  0  0
 11 13  1  0  0  0
 13 14  2  0  0  0
 14 15  1  0  0  0
 15 16  1  0  0  0
  6 17  1  0  0  0
 17 18  1  0  0  0
 17 19  2  0  0  0
 33 29  1  0  0  0
 15  1  2  0  0  0
 13  3  1  0  0  0
  8  4  1  0  0  0
 12  9  1  0  0  0
 26 27  1  0  0  0
 18 20  1  0  0  0
 18 21  1  0  0  0
M  END
> <minimizedAffinity>
-9.25545

> <CNNscore>
0.6720617414

> <CNNaffinity>
7.1378402710

> <CNN_VS>
4.7970695496

> <CNNaffinity_variance>
0.2241313010

$$$$
[H]O[C@@](C#Cc1c([H])c2c(c([H])c1F)C1([H])C([H])([H])C([H])(n3c-2nc(C(=O)N([H])[H])c3[H])C1([H])[H])(c1noc(C([H])([H])[H])c1[H])C([H])([H])[H]


 33 37  0  0  0  0  0  0  0  0999 V2000
   40.5444   15.3654  -12.9873 C   0  0  0  0  0  0  0  0  0  0  0  0
   40.3154   14.4858  -14.0233 C   0  0  0  0  0  0  0  0  0  0  0  0
   39.0939   13.9152  -14.2777 C   0  0  0  0  0  0  0  0  0  0  0  0
   39.0278   12.9933  -15.4214 C   0  0  0  0  0  0  0  0  0  0  0  0
   39.9032   12.8563  -16.4199 N   0  0  0  0  0  0  0  0  0  0  0  0
   39.4358   11.9295  -17.3093 C   0  0  0  0  0  0  0  0  0  0  0  0
   38.2128   11.5130  -16.7676 C   0  0  0  0  0  0  0  0  0  0  0  0
   37.9788   12.1626  -15.6354 N   0  0  0  0  0  0  0  0  0  0  0  0
   36.7871   11.9832  -14.8350 C   0  0  0  0  0  0  0  0  0  0  0  0
   37.0047   12.0871  -13.3551 C   0  0  0  0  0  0  0  0  0  0  0  0
   36.7076   13.6363  -13.3949 C   0  0  0  0  0  0  0  0  0  0  0  0
   36.0736   13.3617  -14.7201 C   0  0  0  0  0  0  0  0  0  0  0  0
   38.0508   14.2755  -13.4169 C   0  0  0  0  0  0  0  0  0  0  0  0
   38.2186   15.1587  -12.3713 C   0  0  0  0  0  0  0  0  0  0  0  0
   39.4645   15.6811  -12.1785 C   0  0  0  0  0  0  0  0  0  0  0  0
   39.6965   16.5623  -11.1539 F   0  0  0  0  0  0  0  0  0  0  0  0
   40.0655   11.4549  -18.5347 C   0  0  0  0  0  0  0  0  0  0  0  0
   39.2690   10.9401  -19.5812 N   0  0  0  0  0  0  0  0  0  0  0  0
   41.2966   11.4977  -18.6739 O   0  0  0  0  0  0  0  0  0  0  0  0
   38.2459   10.6635  -19.4554 H   0  0  0  0  0  0  0  0  0  0  0  0
   39.6668   10.8035  -20.5358 H   0  0  0  0  0  0  0  0  0  0  0  0
   42.9755   16.2227  -12.3717 C   0  0  0  0  0  0  0  0  0  0  0  0
   41.8536   15.8347  -12.5996 C   0  0  0  0  0  0  0  0  0  0  0  0
   44.3956   16.6559  -12.2056 C   0  0  0  0  0  0  0  0  0  0  0  0
   44.7597   17.6992  -13.1824 C   0  0  0  0  0  0  0  0  0  0  0  0
   45.2448   15.5342  -12.5018 O   0  0  0  0  0  0  0  0  0  0  0  0
   44.7782   14.7593  -12.0540 H   0  0  0  0  0  0  0  0  0  0  0  0
   43.8634   16.8155   -7.1694 C   0  0  0  0  0  0  0  0  0  0  0  0
   44.3800   17.0705   -8.5484 C   0  0  0  0  0  0  0  0  0  0  0  0
   43.8557   16.5128   -9.6870 C   0  0  0  0  0  0  0  0  0  0  0  0
   44.5880   16.9634  -10.7851 C   0  0  0  0  0  0  0  0  0  0  0  0
   45.5094   17.7712  -10.2309 N   0  0  0  0  0  0  0  0  0  0  0  0
   45.3734   17.8194   -8.9398 O   0  0  0  0  0  0  0  0  0  0  0  0
 28 29  1  0  0  0
 29 30  2  0  0  0
 30 31  1  0  0  0
 31 32  2  0  0  0
 32 33  1  0  0  0
 31 24  1  0  0  0
 24 25  1  0  0  0
 24 26  1  0  0  0
 24 22  1  0  0  0
 22 23  3  0  0  0
 23  1  1  0  0  0
  1  2  1  0  0  0
  2  3  2  0  0  0
  3  4  1  0  0  0
  4  5  2  0  0  0
  5  6  1  0  0  0
  6  7  2  0  0  0
  7  8  1  0  0  0
  8  9  1  0  0  0
  9 10  1  0  0  0
 10 11  1  0  0  0
 11 12  1  0  0  0
 11 13  1  0  0  0
 13 14  2  0  0  0
 14 15  1  0  0  0
 15 16  1  0  0  0
  6 17  1  0  0  0
 17 18  1  0  0  0
 17 19  2  0  0  0
 33 29  1  0  0  0
 15  1  2  0  0  0
 13  3  1  0  0  0
  8  4  1  0  0  0
 12  9  1  0  0  0
 26 27  1  0  0  0
 18 20  1  0  0  0
 18 21  1  0  0  0
M  END
> <minimizedAffinity>
-8.88083

> <CNNscore>
0.4658770263

> <CNNaffinity>
6.7561020851

> <CNN_VS>
3.1475126743

> <CNNaffinity_variance>
0.2614474297

$$$$
[H]O[C@@](C#Cc1c([H])c2c(c([H])c1F)C1([H])C([H])([H])C([H])(n3c-2nc(C(=O)N([H])[H])c3[H])C1([H])[H])(c1noc(C([H])([H])[H])c1[H])C([H])([H])[H]


 33 37  0  0  0  0  0  0  0  0999 V2000
   40.5572   15.3491  -13.0630 C   0  0  0  0  0  0  0  0  0  0  0  0
   40.3222   14.4630  -14.0921 C   0  0  0  0  0  0  0  0  0  0  0  0
   39.1014   13.8839  -14.3304 C   0  0  0  0  0  0  0  0  0  0  0  0
   39.0285   12.9558  -15.4687 C   0  0  0  0  0  0  0  0  0  0  0  0
   39.8938   12.8190  -16.4759 N   0  0  0  0  0  0  0  0  0  0  0  0
   39.4225   11.8850  -17.3556 C   0  0  0  0  0  0  0  0  0  0  0  0
   38.2078   11.4640  -16.7986 C   0  0  0  0  0  0  0  0  0  0  0  0
   37.9822   12.1180  -15.6672 N   0  0  0  0  0  0  0  0  0  0  0  0
   36.8003   11.9355  -14.8531 C   0  0  0  0  0  0  0  0  0  0  0  0
   37.0333   12.0482  -13.3762 C   0  0  0  0  0  0  0  0  0  0  0  0
   36.7265   13.5954  -13.4204 C   0  0  0  0  0  0  0  0  0  0  0  0
   36.0799   13.3104  -14.7373 C   0  0  0  0  0  0  0  0  0  0  0  0
   38.0656   14.2424  -13.4601 C   0  0  0  0  0  0  0  0  0  0  0  0
   38.2394   15.1318  -12.4208 C   0  0  0  0  0  0  0  0  0  0  0  0
   39.4842   15.6625  -12.2441 C   0  0  0  0  0  0  0  0  0  0  0  0
   39.7220   16.5502  -11.2265 F   0  0  0  0  0  0  0  0  0  0  0  0
   40.0417   11.4080  -18.5853 C   0  0  0  0  0  0  0  0  0  0  0  0
   39.2324   10.9649  -19.6546 N   0  0  0  0  0  0  0  0  0  0  0  0
   41.2750   11.3862  -18.7084 O   0  0  0  0  0  0  0  0  0  0  0  0
   38.1940   10.7422  -19.5487 H   0  0  0  0  0  0  0  0  0  0  0  0
   39.6350   10.8311  -20.6076 H   0  0  0  0  0  0  0  0  0  0  0  0
   43.0003   16.1820  -12.4621 C   0  0  0  0  0  0  0  0  0  0  0  0
   41.8676   15.8280  -12.6918 C   0  0  0  0  0  0  0  0  0  0  0  0
   44.4398   16.5264  -12.2582 C   0  0  0  0  0  0  0  0  0  0  0  0
   44.7406   16.7691  -10.8350 C   0  0  0  0  0  0  0  0  0  0  0  0
   44.7028   17.7712  -12.9278 O   0  0  0  0  0  0  0  0  0  0  0  0
   44.2067   17.6793  -13.8020 H   0  0  0  0  0  0  0  0  0  0  0  0
   45.9290   12.9334  -15.5054 C   0  0  0  0  0  0  0  0  0  0  0  0
   45.9244   13.8977  -14.3636 C   0  0  0  0  0  0  0  0  0  0  0  0
   44.8863   14.7454  -14.0704 C   0  0  0  0  0  0  0  0  0  0  0  0
   45.2289   15.5033  -12.9509 C   0  0  0  0  0  0  0  0  0  0  0  0
   46.4585   15.0558  -12.6400 N   0  0  0  0  0  0  0  0  0  0  0  0
   46.8424   14.1304  -13.4670 O   0  0  0  0  0  0  0  0  0  0  0  0
 28 29  1  0  0  0
 29 30  2  0  0  0
 30 31  1  0  0  0
 31 32  2  0  0  0
 32 33  1  0  0  0
 31 24  1  0  0  0
 24 25  1  0  0  0
 24 26  1  0  0  0
 24 22  1  0  0  0
 22 23  3  0  0  0
 23  1  1  0  0  0
  1  2  1  0  0  0
  2  3  2  0  0  0
  3  4  1  0  0  0
  4  5  2  0  0  0
  5  6  1  0  0  0
  6  7  2  0  0  0
  7  8  1  0  0  0
  8  9  1  0  0  0
  9 10  1  0  0  0
 10 11  1  0  0  0
 11 12  1  0  0  0
 11 13  1  0  0  0
 13 14  2  0  0  0
 14 15  1  0  0  0
 15 16  1  0  0  0
  6 17  1  0  0  0
 17 18  1  0  0  0
 17 19  2  0  0  0
 33 29  1  0  0  0
 15  1  2  0  0  0
 13  3  1  0  0  0
  8  4  1  0  0  0
 12  9  1  0  0  0
 26 27  1  0  0  0
 18 20  1  0  0  0
 18 21  1  0  0  0
M  END
> <minimizedAffinity>
-8.92463

> <CNNscore>
0.4532058537

> <CNNaffinity>
7.0016984940

> <CNN_VS>
3.1732108593

> <CNNaffinity_variance>
0.3167657852

$$$$
[H]O[C@@](C#Cc1c([H])c2c(c([H])c1F)C1([H])C([H])([H])C([H])(n3c-2nc(C(=O)N([H])[H])c3[H])C1([H])[H])(c1noc(C([H])([H])[H])c1[H])C([H])([H])[H]


 33 37  0  0  0  0  0  0  0  0999 V2000
   35.8306   13.7681  -13.2207 C   0  0  0  0  0  0  0  0  0  0  0  0
   36.5536   13.1667  -14.2282 C   0  0  0  0  0  0  0  0  0  0  0  0
   35.9868   12.3993  -15.2143 C   0  0  0  0  0  0  0  0  0  0  0  0
   36.9070   11.8275  -16.2086 C   0  0  0  0  0  0  0  0  0  0  0  0
   38.1687   12.1821  -16.4622 N   0  0  0  0  0  0  0  0  0  0  0  0
   38.6485   11.4386  -17.5040 C   0  0  0  0  0  0  0  0  0  0  0  0
   37.5804   10.6032  -17.8564 C   0  0  0  0  0  0  0  0  0  0  0  0
   36.5398   10.8500  -17.0722 N   0  0  0  0  0  0  0  0  0  0  0  0
   35.2657   10.1746  -17.1879 C   0  0  0  0  0  0  0  0  0  0  0  0
   34.5641    9.9328  -15.8850 C   0  0  0  0  0  0  0  0  0  0  0  0
   33.8089   11.3129  -16.0067 C   0  0  0  0  0  0  0  0  0  0  0  0
   34.1739   11.2513  -17.4547 C   0  0  0  0  0  0  0  0  0  0  0  0
   34.5966   12.2477  -15.1587 C   0  0  0  0  0  0  0  0  0  0  0  0
   33.8212   12.8348  -14.1812 C   0  0  0  0  0  0  0  0  0  0  0  0
   34.4579   13.5796  -13.2314 C   0  0  0  0  0  0  0  0  0  0  0  0
   33.7430   14.1862  -12.2309 F   0  0  0  0  0  0  0  0  0  0  0  0
   39.9743   11.4779  -18.1074 C   0  0  0  0  0  0  0  0  0  0  0  0
   41.0327   12.1310  -17.4382 N   0  0  0  0  0  0  0  0  0  0  0  0
   40.1887   10.9428  -19.2048 O   0  0  0  0  0  0  0  0  0  0  0  0
   40.8832   12.7971  -16.6178 H   0  0  0  0  0  0  0  0  0  0  0  0
   42.0218   11.9848  -17.7357 H   0  0  0  0  0  0  0  0  0  0  0  0
   37.0093   14.9377  -11.1551 C   0  0  0  0  0  0  0  0  0  0  0  0
   36.4247   14.4274  -12.0819 C   0  0  0  0  0  0  0  0  0  0  0  0
   37.8254   15.4815  -10.0280 C   0  0  0  0  0  0  0  0  0  0  0  0
   37.9511   16.9486  -10.1111 C   0  0  0  0  0  0  0  0  0  0  0  0
   39.1631   14.9701  -10.1546 O   0  0  0  0  0  0  0  0  0  0  0  0
   39.0239   14.0027  -10.4067 H   0  0  0  0  0  0  0  0  0  0  0  0
   37.2269   14.0698   -5.1988 C   0  0  0  0  0  0  0  0  0  0  0  0
   36.9772   14.2649   -6.6594 C   0  0  0  0  0  0  0  0  0  0  0  0
   37.8319   14.9191   -7.5102 C   0  0  0  0  0  0  0  0  0  0  0  0
   37.2773   14.9192   -8.7899 C   0  0  0  0  0  0  0  0  0  0  0  0
   36.1185   14.2571   -8.6240 N   0  0  0  0  0  0  0  0  0  0  0  0
   35.9632   13.8885   -7.3880 O   0  0  0  0  0  0  0  0  0  0  0  0
 28 29  1  0  0  0
 29 30  2  0  0  0
 30 31  1  0  0  0
 31 32  2  0  0  0
 32 33  1  0  0  0
 31 24  1  0  0  0
 24 25  1  0  0  0
 24 26  1  0  0  0
 24 22  1  0  0  0
 22 23  3  0  0  0
 23  1  1  0  0  0
  1  2  1  0  0  0
  2  3  2  0  0  0
  3  4  1  0  0  0
  4  5  2  0  0  0
  5  6  1  0  0  0
  6  7  2  0  0  0
  7  8  1  0  0  0
  8  9  1  0  0  0
  9 10  1  0  0  0
 10 11  1  0  0  0
 11 12  1  0  0  0
 11 13  1  0  0  0
 13 14  2  0  0  0
 14 15  1  0  0  0
 15 16  1  0  0  0
  6 17  1  0  0  0
 17 18  1  0  0  0
 17 19  2  0  0  0
 33 29  1  0  0  0
 15  1  2  0  0  0
 13  3  1  0  0  0
  8  4  1  0  0  0
 12  9  1  0  0  0
 26 27  1  0  0  0
 18 20  1  0  0  0
 18 21  1  0  0  0
M  END
> <minimizedAffinity>
-8.91694

> <CNNscore>
0.4011250138

> <CNNaffinity>
7.0567779541

> <CNN_VS>
2.8306500912

> <CNNaffinity_variance>
0.3468090296

$$$$
[H]O[C@@](C#Cc1c([H])c2c(c([H])c1F)C1([H])C([H])([H])C([H])(n3c-2nc(C(=O)N([H])[H])c3[H])C1([H])[H])(c1noc(C([H])([H])[H])c1[H])C([H])([H])[H]


 33 37  0  0  0  0  0  0  0  0999 V2000
   36.0853   14.1441  -13.3115 C   0  0  0  0  0  0  0  0  0  0  0  0
   36.6440   13.4058  -14.3323 C   0  0  0  0  0  0  0  0  0  0  0  0
   35.9184   12.5899  -15.1632 C   0  0  0  0  0  0  0  0  0  0  0  0
   36.6758   11.8692  -16.1973 C   0  0  0  0  0  0  0  0  0  0  0  0
   37.9137   12.1147  -16.6322 N   0  0  0  0  0  0  0  0  0  0  0  0
   38.2195   11.2482  -17.6442 C   0  0  0  0  0  0  0  0  0  0  0  0
   37.0722   10.4563  -17.7830 C   0  0  0  0  0  0  0  0  0  0  0  0
   36.1517   10.8426  -16.9099 N   0  0  0  0  0  0  0  0  0  0  0  0
   34.8383   10.2452  -16.8064 C   0  0  0  0  0  0  0  0  0  0  0  0
   34.2914   10.1716  -15.4122 C   0  0  0  0  0  0  0  0  0  0  0  0
   33.6032   11.5814  -15.5807 C   0  0  0  0  0  0  0  0  0  0  0  0
   33.7820   11.3626  -17.0483 C   0  0  0  0  0  0  0  0  0  0  0  0
   34.5396   12.5363  -14.9290 C   0  0  0  0  0  0  0  0  0  0  0  0
   33.9245   13.2611  -13.9302 C   0  0  0  0  0  0  0  0  0  0  0  0
   34.7135   14.0466  -13.1411 C   0  0  0  0  0  0  0  0  0  0  0  0
   34.1622   14.7889  -12.1287 F   0  0  0  0  0  0  0  0  0  0  0  0
   39.4604   11.1439  -18.4008 C   0  0  0  0  0  0  0  0  0  0  0  0
   39.4182   10.9023  -19.7917 N   0  0  0  0  0  0  0  0  0  0  0  0
   40.5589   11.2660  -17.8393 O   0  0  0  0  0  0  0  0  0  0  0  0
   38.5423   10.5661  -20.3004 H   0  0  0  0  0  0  0  0  0  0  0  0
   40.2664   11.0421  -20.3826 H   0  0  0  0  0  0  0  0  0  0  0  0
   37.5732   15.4505  -11.5499 C   0  0  0  0  0  0  0  0  0  0  0  0
   36.8509   14.8648  -12.3222 C   0  0  0  0  0  0  0  0  0  0  0  0
   38.5653   16.1140  -10.6511 C   0  0  0  0  0  0  0  0  0  0  0  0
   38.5617   15.5116   -9.3050 C   0  0  0  0  0  0  0  0  0  0  0  0
   38.1592   17.4806  -10.4653 O   0  0  0  0  0  0  0  0  0  0  0  0
   37.8710   17.7696  -11.3885 H   0  0  0  0  0  0  0  0  0  0  0  0
   43.5130   16.2324  -11.7365 C   0  0  0  0  0  0  0  0  0  0  0  0
   42.0272   16.2148  -11.8969 C   0  0  0  0  0  0  0  0  0  0  0  0
   41.1366   16.1603  -10.8547 C   0  0  0  0  0  0  0  0  0  0  0  0
   39.8414   16.1504  -11.3719 C   0  0  0  0  0  0  0  0  0  0  0  0
   40.0396   16.2034  -12.7010 N   0  0  0  0  0  0  0  0  0  0  0  0
   41.3070   16.2392  -12.9839 O   0  0  0  0  0  0  0  0  0  0  0  0
 28 29  1  0  0  0
 29 30  2  0  0  0
 30 31  1  0  0  0
 31 32  2  0  0  0
 32 33  1  0  0  0
 31 24  1  0  0  0
 24 25  1  0  0  0
 24 26  1  0  0  0
 24 22  1  0  0  0
 22 23  3  0  0  0
 23  1  1  0  0  0
  1  2  1  0  0  0
  2  3  2  0  0  0
  3  4  1  0  0  0
  4  5  2  0  0  0
  5  6  1  0  0  0
  6  7  2  0  0  0
  7  8  1  0  0  0
  8  9  1  0  0  0
  9 10  1  0  0  0
 10 11  1  0  0  0
 11 12  1  0  0  0
 11 13  1  0  0  0
 13 14  2  0  0  0
 14 15  1  0  0  0
 15 16  1  0  0  0
  6 17  1  0  0  0
 17 18  1  0  0  0
 17 19  2  0  0  0
 33 29  1  0  0  0
 15  1  2  0  0  0
 13  3  1  0  0  0
  8  4  1  0  0  0
 12  9  1  0  0  0
 26 27  1  0  0  0
 18 20  1  0  0  0
 18 21  1  0  0  0
M  END
> <minimizedAffinity>
-9.44107

> <CNNscore>
0.3640111387

> <CNNaffinity>
7.0398263931

> <CNN_VS>
2.5625753403

> <CNNaffinity_variance>
0.1072011217

$$$$
[H]O[C@@](C#Cc1c([H])c2c(c([H])c1F)C1([H])C([H])([H])C([H])(n3c-2nc(C(=O)N([H])[H])c3[H])C1([H])[H])(c1noc(C([H])([H])[H])c1[H])C([H])([H])[H]


 33 37  0  0  0  0  0  0  0  0999 V2000
   36.3747   14.7612   -9.5733 C   0  0  0  0  0  0  0  0  0  0  0  0
   35.1513   14.8682   -8.9478 C   0  0  0  0  0  0  0  0  0  0  0  0
   35.0012   14.9706   -7.5878 C   0  0  0  0  0  0  0  0  0  0  0  0
   33.6221   15.0710   -7.0875 C   0  0  0  0  0  0  0  0  0  0  0  0
   32.5172   15.3707   -7.7739 N   0  0  0  0  0  0  0  0  0  0  0  0
   31.4508   15.4167   -6.9201 C   0  0  0  0  0  0  0  0  0  0  0  0
   31.9964   15.1160   -5.6652 C   0  0  0  0  0  0  0  0  0  0  0  0
   33.3020   14.9140   -5.7801 N   0  0  0  0  0  0  0  0  0  0  0  0
   34.1709   14.6062   -4.6651 C   0  0  0  0  0  0  0  0  0  0  0  0
   35.2930   13.6650   -4.9863 C   0  0  0  0  0  0  0  0  0  0  0  0
   36.2380   14.8754   -5.3488 C   0  0  0  0  0  0  0  0  0  0  0  0
   35.2624   15.7130   -4.5870 C   0  0  0  0  0  0  0  0  0  0  0  0
   36.1796   14.9656   -6.8327 C   0  0  0  0  0  0  0  0  0  0  0  0
   37.4309   14.8723   -7.4045 C   0  0  0  0  0  0  0  0  0  0  0  0
   37.4991   14.7685   -8.7635 C   0  0  0  0  0  0  0  0  0  0  0  0
   38.7138   14.6691   -9.3918 F   0  0  0  0  0  0  0  0  0  0  0  0
   30.0543   15.6919   -7.2321 C   0  0  0  0  0  0  0  0  0  0  0  0
   29.0351   15.2081   -6.3826 N   0  0  0  0  0  0  0  0  0  0  0  0
   29.7456   16.3489   -8.2370 O   0  0  0  0  0  0  0  0  0  0  0  0
   29.1993   14.4592   -5.6400 H   0  0  0  0  0  0  0  0  0  0  0  0
   28.0604   15.5719   -6.4591 H   0  0  0  0  0  0  0  0  0  0  0  0
   36.6872   14.3364  -12.1705 C   0  0  0  0  0  0  0  0  0  0  0  0
   36.5420   14.4761  -10.9787 C   0  0  0  0  0  0  0  0  0  0  0  0
   36.8328   14.2874  -13.6566 C   0  0  0  0  0  0  0  0  0  0  0  0
   38.2460   14.1528  -14.0566 C   0  0  0  0  0  0  0  0  0  0  0  0
   36.3968   15.5483  -14.1923 O   0  0  0  0  0  0  0  0  0  0  0  0
   35.5658   15.7575  -13.6589 H   0  0  0  0  0  0  0  0  0  0  0  0
   34.4356   10.9196  -16.5864 C   0  0  0  0  0  0  0  0  0  0  0  0
   34.7927   11.7814  -15.4187 C   0  0  0  0  0  0  0  0  0  0  0  0
   35.8570   12.6467  -15.3920 C   0  0  0  0  0  0  0  0  0  0  0  0
   35.8921   13.2758  -14.1477 C   0  0  0  0  0  0  0  0  0  0  0  0
   34.8367   12.7460  -13.5043 N   0  0  0  0  0  0  0  0  0  0  0  0
   34.2157   11.8855  -14.2538 O   0  0  0  0  0  0  0  0  0  0  0  0
 28 29  1  0  0  0
 29 30  2  0  0  0
 30 31  1  0  0  0
 31 32  2  0  0  0
 32 33  1  0  0  0
 31 24  1  0  0  0
 24 25  1  0  0  0
 24 26  1  0  0  0
 24 22  1  0  0  0
 22 23  3  0  0  0
 23  1  1  0  0  0
  1  2  1  0  0  0
  2  3  2  0  0  0
  3  4  1  0  0  0
  4  5  2  0  0  0
  5  6  1  0  0  0
  6  7  2  0  0  0
  7  8  1  0  0  0
  8  9  1  0  0  0
  9 10  1  0  0  0
 10 11  1  0  0  0
 11 12  1  0  0  0
 11 13  1  0  0  0
 13 14  2  0  0  0
 14 15  1  0  0  0
 15 16  1  0  0  0
  6 17  1  0  0  0
 17 18  1  0  0  0
 17 19  2  0  0  0
 33 29  1  0  0  0
 15  1  2  0  0  0
 13  3  1  0  0  0
  8  4  1  0  0  0
 12  9  1  0  0  0
 26 27  1  0  0  0
 18 20  1  0  0  0
 18 21  1  0  0  0
M  END
> <minimizedAffinity>
-7.96284

> <CNNscore>
0.2546624541

> <CNNaffinity>
5.9743208885

> <CNN_VS>
1.5214352608

> <CNNaffinity_variance>
0.3192374110

$$$$
[H]O[C@@](C#Cc1c([H])c2c(c([H])c1F)C1([H])C([H])([H])C([H])(n3c-2nc(C(=O)N([H])[H])c3[H])C1([H])[H])(c1noc(C([H])([H])[H])c1[H])C([H])([H])[H]


 33 37  0  0  0  0  0  0  0  0999 V2000
   41.0969   15.1533  -13.0861 C   0  0  0  0  0  0  0  0  0  0  0  0
   40.5262   14.2865  -13.9929 C   0  0  0  0  0  0  0  0  0  0  0  0
   39.1806   14.0246  -14.0484 C   0  0  0  0  0  0  0  0  0  0  0  0
   38.7419   13.0681  -15.0755 C   0  0  0  0  0  0  0  0  0  0  0  0
   39.4165   12.6427  -16.1459 N   0  0  0  0  0  0  0  0  0  0  0  0
   38.6250   11.8009  -16.8763 C   0  0  0  0  0  0  0  0  0  0  0  0
   37.4218   11.7464  -16.1609 C   0  0  0  0  0  0  0  0  0  0  0  0
   37.5049   12.5149  -15.0833 N   0  0  0  0  0  0  0  0  0  0  0  0
   36.4235   12.7001  -14.1404 C   0  0  0  0  0  0  0  0  0  0  0  0
   36.8561   12.8537  -12.7130 C   0  0  0  0  0  0  0  0  0  0  0  0
   36.9378   14.4206  -12.8801 C   0  0  0  0  0  0  0  0  0  0  0  0
   36.0847   14.2184  -14.0904 C   0  0  0  0  0  0  0  0  0  0  0  0
   38.3800   14.6978  -13.1185 C   0  0  0  0  0  0  0  0  0  0  0  0
   38.8940   15.5842  -12.1958 C   0  0  0  0  0  0  0  0  0  0  0  0
   40.2432   15.7889  -12.1988 C   0  0  0  0  0  0  0  0  0  0  0  0
   40.8156   16.6556  -11.3038 F   0  0  0  0  0  0  0  0  0  0  0  0
   38.9519   11.0950  -18.1084 C   0  0  0  0  0  0  0  0  0  0  0  0
   40.2773   11.1072  -18.5959 N   0  0  0  0  0  0  0  0  0  0  0  0
   38.0794   10.4794  -18.7382 O   0  0  0  0  0  0  0  0  0  0  0  0
   41.0229   11.7857  -18.2455 H   0  0  0  0  0  0  0  0  0  0  0  0
   40.5778   10.4396  -19.3390 H   0  0  0  0  0  0  0  0  0  0  0  0
   43.7219   15.3365  -12.7699 C   0  0  0  0  0  0  0  0  0  0  0  0
   42.5203   15.3049  -12.8981 C   0  0  0  0  0  0  0  0  0  0  0  0
   45.2047   15.2466  -12.6108 C   0  0  0  0  0  0  0  0  0  0  0  0
   45.6904   13.8736  -12.8434 C   0  0  0  0  0  0  0  0  0  0  0  0
   45.5285   15.5456  -11.2424 O   0  0  0  0  0  0  0  0  0  0  0  0
   44.9293   16.3276  -11.0227 H   0  0  0  0  0  0  0  0  0  0  0  0
   48.0651   17.8021  -15.9213 C   0  0  0  0  0  0  0  0  0  0  0  0
   47.0457   17.4910  -14.8735 C   0  0  0  0  0  0  0  0  0  0  0  0
   46.8089   16.2360  -14.3724 C   0  0  0  0  0  0  0  0  0  0  0  0
   45.7900   16.3173  -13.4235 C   0  0  0  0  0  0  0  0  0  0  0  0
   45.4811   17.6262  -13.4138 N   0  0  0  0  0  0  0  0  0  0  0  0
   46.2159   18.2864  -14.2576 O   0  0  0  0  0  0  0  0  0  0  0  0
 28 29  1  0  0  0
 29 30  2  0  0  0
 30 31  1  0  0  0
 31 32  2  0  0  0
 32 33  1  0  0  0
 31 24  1  0  0  0
 24 25  1  0  0  0
 24 26  1  0  0  0
 24 22  1  0  0  0
 22 23  3  0  0  0
 23  1  1  0  0  0
  1  2  1  0  0  0
  2  3  2  0  0  0
  3  4  1  0  0  0
  4  5  2  0  0  0
  5  6  1  0  0  0
  6  7  2  0  0  0
  7  8  1  0  0  0
  8  9  1  0  0  0
  9 10  1  0  0  0
 10 11  1  0  0  0
 11 12  1  0  0  0
 11 13  1  0  0  0
 13 14  2  0  0  0
 14 15  1  0  0  0
 15 16  1  0  0  0
  6 17  1  0  0  0
 17 18  1  0  0  0
 17 19  2  0  0  0
 33 29  1  0  0  0
 15  1  2  0  0  0
 13  3  1  0  0  0
  8  4  1  0  0  0
 12  9  1  0  0  0
 26 27  1  0  0  0
 18 20  1  0  0  0
 18 21  1  0  0  0
M  END
> <minimizedAffinity>
-8.20863

> <CNNscore>
0.2423608899

> <CNNaffinity>
6.5000863075

> <CNN_VS>
1.5753667355

> <CNNaffinity_variance>
0.1673841178

$$$$
[H]O[C@@](C#Cc1c([H])c2c(c([H])c1F)C1([H])C([H])([H])C([H])(n3c-2nc(C(=O)N([H])[H])c3[H])C1([H])[H])(c1noc(C([H])([H])[H])c1[H])C([H])([H])[H]


 33 37  0  0  0  0  0  0  0  0999 V2000
   35.3111   13.7383  -13.3504 C   0  0  0  0  0  0  0  0  0  0  0  0
   36.4201   13.3536  -14.0725 C   0  0  0  0  0  0  0  0  0  0  0  0
   36.3543   12.6213  -15.2309 C   0  0  0  0  0  0  0  0  0  0  0  0
   37.6367   12.2922  -15.8707 C   0  0  0  0  0  0  0  0  0  0  0  0
   38.8315   12.8460  -15.6523 N   0  0  0  0  0  0  0  0  0  0  0  0
   39.7506   12.2907  -16.4982 C   0  0  0  0  0  0  0  0  0  0  0  0
   39.0193   11.3544  -17.2406 C   0  0  0  0  0  0  0  0  0  0  0  0
   37.7503   11.3683  -16.8555 N   0  0  0  0  0  0  0  0  0  0  0  0
   36.7217   10.5357  -17.4398 C   0  0  0  0  0  0  0  0  0  0  0  0
   35.6757   10.0623  -16.4755 C   0  0  0  0  0  0  0  0  0  0  0  0
   34.7837   11.3270  -16.7833 C   0  0  0  0  0  0  0  0  0  0  0  0
   35.6175   11.4693  -18.0155 C   0  0  0  0  0  0  0  0  0  0  0  0
   35.0724   12.2699  -15.6692 C   0  0  0  0  0  0  0  0  0  0  0  0
   33.9272   12.6362  -14.9940 C   0  0  0  0  0  0  0  0  0  0  0  0
   34.0738   13.3600  -13.8465 C   0  0  0  0  0  0  0  0  0  0  0  0
   32.9737   13.7517  -13.1279 F   0  0  0  0  0  0  0  0  0  0  0  0
   41.1751   12.5797  -16.6008 C   0  0  0  0  0  0  0  0  0  0  0  0
   41.9219   12.0623  -17.6821 N   0  0  0  0  0  0  0  0  0  0  0  0
   41.7444   13.2778  -15.7492 O   0  0  0  0  0  0  0  0  0  0  0  0
   41.5658   11.2834  -18.3190 H   0  0  0  0  0  0  0  0  0  0  0  0
   42.8744   12.4299  -17.8959 H   0  0  0  0  0  0  0  0  0  0  0  0
   35.3194   14.8501  -10.9446 C   0  0  0  0  0  0  0  0  0  0  0  0
   35.3693   14.3522  -12.0449 C   0  0  0  0  0  0  0  0  0  0  0  0
   35.1304   15.4765   -9.6014 C   0  0  0  0  0  0  0  0  0  0  0  0
   36.0966   16.5671   -9.3734 C   0  0  0  0  0  0  0  0  0  0  0  0
   35.4196   14.4866   -8.5997 O   0  0  0  0  0  0  0  0  0  0  0  0
   34.9824   13.6510   -8.9593 H   0  0  0  0  0  0  0  0  0  0  0  0
   30.5836   16.6604   -7.7048 C   0  0  0  0  0  0  0  0  0  0  0  0
   31.6684   16.3116   -8.6719 C   0  0  0  0  0  0  0  0  0  0  0  0
   32.9759   16.0886   -8.3212 C   0  0  0  0  0  0  0  0  0  0  0  0
   33.7057   15.7980   -9.4737 C   0  0  0  0  0  0  0  0  0  0  0  0
   32.7815   15.8626  -10.4486 N   0  0  0  0  0  0  0  0  0  0  0  0
   31.6128   16.1608   -9.9661 O   0  0  0  0  0  0  0  0  0  0  0  0
 28 29  1  0  0  0
 29 30  2  0  0  0
 30 31  1  0  0  0
 31 32  2  0  0  0
 32 33  1  0  0  0
 31 24  1  0  0  0
 24 25  1  0  0  0
 24 26  1  0  0  0
 24 22  1  0  0  0
 22 23  3  0  0  0
 23  1  1  0  0  0
  1  2  1  0  0  0
  2  3  2  0  0  0
  3  4  1  0  0  0
  4  5  2  0  0  0
  5  6  1  0  0  0
  6  7  2  0  0  0
  7  8  1  0  0  0
  8  9  1  0  0  0
  9 10  1  0  0  0
 10 11  1  0  0  0
 11 12  1  0  0  0
 11 13  1  0  0  0
 13 14  2  0  0  0
 14 15  1  0  0  0
 15 16  1  0  0  0
  6 17  1  0  0  0
 17 18  1  0  0  0
 17 19  2  0  0  0
 33 29  1  0  0  0
 15  1  2  0  0  0
 13  3  1  0  0  0
  8  4  1  0  0  0
 12  9  1  0  0  0
 26 27  1  0  0  0
 18 20  1  0  0  0
 18 21  1  0  0  0
M  END
> <minimizedAffinity>
-8.56734

> <CNNscore>
0.2223517597

> <CNNaffinity>
6.7815322876

> <CNN_VS>
1.5078856945

> <CNNaffinity_variance>
0.2176156342

$$$$
[H]O[C@@](C#Cc1c([H])c2c(c([H])c1F)C1([H])C([H])([H])C([H])(n3c-2nc(C(=O)N([H])[H])c3[H])C1([H])[H])(c1noc(C([H])([H])[H])c1[H])C([H])([H])[H]


 33 37  0  0  0  0  0  0  0  0999 V2000
   35.3436   13.9537  -13.1561 C   0  0  0  0  0  0  0  0  0  0  0  0
   36.3502   13.4872  -13.9737 C   0  0  0  0  0  0  0  0  0  0  0  0
   36.1284   12.7064  -15.0798 C   0  0  0  0  0  0  0  0  0  0  0  0
   37.3186   12.2915  -15.8372 C   0  0  0  0  0  0  0  0  0  0  0  0
   38.5511   12.8006  -15.7774 N   0  0  0  0  0  0  0  0  0  0  0  0
   39.3487   12.1668  -16.6888 C   0  0  0  0  0  0  0  0  0  0  0  0
   38.5036   11.2312  -17.2997 C   0  0  0  0  0  0  0  0  0  0  0  0
   37.2864   11.3195  -16.7808 N   0  0  0  0  0  0  0  0  0  0  0  0
   36.1676   10.5079  -17.2080 C   0  0  0  0  0  0  0  0  0  0  0  0
   35.2163   10.1263  -16.1136 C   0  0  0  0  0  0  0  0  0  0  0  0
   34.3465   11.4143  -16.3863 C   0  0  0  0  0  0  0  0  0  0  0  0
   35.0444   11.4628  -17.7070 C   0  0  0  0  0  0  0  0  0  0  0  0
   34.7931   12.3931  -15.3588 C   0  0  0  0  0  0  0  0  0  0  0  0
   33.7447   12.8408  -14.5830 C   0  0  0  0  0  0  0  0  0  0  0  0
   34.0452   13.6089  -13.4959 C   0  0  0  0  0  0  0  0  0  0  0  0
   33.0473   14.0818  -12.6832 F   0  0  0  0  0  0  0  0  0  0  0  0
   40.7635   12.3867  -16.9591 C   0  0  0  0  0  0  0  0  0  0  0  0
   41.3547   11.8265  -18.1129 N   0  0  0  0  0  0  0  0  0  0  0  0
   41.4598   13.0630  -16.1881 O   0  0  0  0  0  0  0  0  0  0  0  0
   40.8912   11.0609  -18.6943 H   0  0  0  0  0  0  0  0  0  0  0  0
   42.2921   12.1466  -18.4402 H   0  0  0  0  0  0  0  0  0  0  0  0
   35.6660   15.1562  -10.8164 C   0  0  0  0  0  0  0  0  0  0  0  0
   35.5695   14.6233  -11.8971 C   0  0  0  0  0  0  0  0  0  0  0  0
   35.6568   15.8094   -9.4728 C   0  0  0  0  0  0  0  0  0  0  0  0
   35.9625   14.8437   -8.4008 C   0  0  0  0  0  0  0  0  0  0  0  0
   34.3218   16.2726   -9.2079 O   0  0  0  0  0  0  0  0  0  0  0  0
   34.0289   16.6674  -10.0895 H   0  0  0  0  0  0  0  0  0  0  0  0
   37.9803   20.1944   -8.4506 C   0  0  0  0  0  0  0  0  0  0  0  0
   37.5464   18.9523   -9.1595 C   0  0  0  0  0  0  0  0  0  0  0  0
   36.6701   18.0319   -8.6427 C   0  0  0  0  0  0  0  0  0  0  0  0
   36.5030   17.0027   -9.5690 C   0  0  0  0  0  0  0  0  0  0  0  0
   37.2931   17.3763  -10.5911 N   0  0  0  0  0  0  0  0  0  0  0  0
   37.8871   18.5031  -10.3356 O   0  0  0  0  0  0  0  0  0  0  0  0
 28 29  1  0  0  0
 29 30  2  0  0  0
 30 31  1  0  0  0
 31 32  2  0  0  0
 32 33  1  0  0  0
 31 24  1  0  0  0
 24 25  1  0  0  0
 24 26  1  0  0  0
 24 22  1  0  0  0
 22 23  3  0  0  0
 23  1  1  0  0  0
  1  2  1  0  0  0
  2  3  2  0  0  0
  3  4  1  0  0  0
  4  5  2  0  0  0
  5  6  1  0  0  0
  6  7  2  0  0  0
  7  8  1  0  0  0
  8  9  1  0  0  0
  9 10  1  0  0  0
 10 11  1  0  0  0
 11 12  1  0  0  0
 11 13  1  0  0  0
 13 14  2  0  0  0
 14 15  1  0  0  0
 15 16  1  0  0  0
  6 17  1  0  0  0
 17 18  1  0  0  0
 17 19  2  0  0  0
 33 29  1  0  0  0
 15  1  2  0  0  0
 13  3  1  0  0  0
  8  4  1  0  0  0
 12  9  1  0  0  0
 26 27  1  0  0  0
 18 20  1  0  0  0
 18 21  1  0  0  0
M  END
> <minimizedAffinity>
-8.82361

> <CNNscore>
0.2126258165

> <CNNaffinity>
6.7706704140

> <CNN_VS>
1.4396193027

> <CNNaffinity_variance>
0.1794662029

$$$$
[H]O[C@]1(C#Cc2c([H])c([H])c3c(c2[H])-c2nc(C(=O)N([H])[H])sc2[C@@]([H])(C([H])([H])[H])C([H])([H])O3)C(=O)N(C([H])([H])[H])C([H])([H])C1([H])[H]


 31 34  0  0  0  0  0  0  0  0999 V2000
   34.7173    9.1289  -16.3428 C   0  0  0  0  0  0  0  0  0  0  0  0
   34.8649   10.3892  -17.1546 C   0  0  0  0  0  0  0  0  0  0  0  0
   33.7934   11.3801  -16.7783 C   0  0  0  0  0  0  0  0  0  0  0  0
   33.7983   11.6991  -15.4029 O   0  0  0  0  0  0  0  0  0  0  0  0
   34.7899   12.3925  -14.7224 C   0  0  0  0  0  0  0  0  0  0  0  0
   34.3176   13.0454  -13.5930 C   0  0  0  0  0  0  0  0  0  0  0  0
   35.2094   13.7679  -12.8346 C   0  0  0  0  0  0  0  0  0  0  0  0
   36.5439   13.8763  -13.1378 C   0  0  0  0  0  0  0  0  0  0  0  0
   37.0015   13.2183  -14.2696 C   0  0  0  0  0  0  0  0  0  0  0  0
   36.1245   12.4825  -15.0529 C   0  0  0  0  0  0  0  0  0  0  0  0
   36.8354   11.8637  -16.2136 C   0  0  0  0  0  0  0  0  0  0  0  0
   38.0733   12.1566  -16.4487 N   0  0  0  0  0  0  0  0  0  0  0  0
   38.7145   11.6155  -17.4726 C   0  0  0  0  0  0  0  0  0  0  0  0
   37.4757   10.6160  -18.1570 S   0  0  0  0  0  0  0  0  0  0  0  0
   36.2229   10.9771  -17.0631 C   0  0  0  0  0  0  0  0  0  0  0  0
   40.0901   11.7975  -17.9206 C   0  0  0  0  0  0  0  0  0  0  0  0
   40.9816   12.5101  -17.1042 N   0  0  0  0  0  0  0  0  0  0  0  0
   40.4545   11.3269  -19.0052 O   0  0  0  0  0  0  0  0  0  0  0  0
   41.9848   12.3080  -17.0663 H   0  0  0  0  0  0  0  0  0  0  0  0
   40.6067   13.2812  -16.5081 H   0  0  0  0  0  0  0  0  0  0  0  0
   37.4811   14.6279  -12.3522 C   0  0  0  0  0  0  0  0  0  0  0  0
   38.2424   15.2649  -11.7051 C   0  0  0  0  0  0  0  0  0  0  0  0
   39.1674   16.0718  -10.9094 C   0  0  0  0  0  0  0  0  0  0  0  0
   38.7136   17.3695  -10.7224 O   0  0  0  0  0  0  0  0  0  0  0  0
   40.5394   16.0342  -11.5144 C   0  0  0  0  0  0  0  0  0  0  0  0
   41.5262   16.0529  -10.3666 C   0  0  0  0  0  0  0  0  0  0  0  0
   40.7045   15.8472   -9.1824 N   0  0  0  0  0  0  0  0  0  0  0  0
   41.2155   16.0062   -7.8254 C   0  0  0  0  0  0  0  0  0  0  0  0
   39.3836   15.4825   -9.5623 C   0  0  0  0  0  0  0  0  0  0  0  0
   38.5848   14.7955   -8.8684 O   0  0  0  0  0  0  0  0  0  0  0  0
   37.7677   17.4915  -10.9011 H   0  0  0  0  0  0  0  0  0  0  0  0
  1  2  1  0  0  0
  2  3  1  0  0  0
  3  4  1  0  0  0
  4  5  1  0  0  0
  5  6  2  0  0  0
  6  7  1  0  0  0
  7  8  2  0  0  0
  8  9  1  0  0  0
  9 10  2  0  0  0
 10 11  1  0  0  0
 11 12  1  0  0  0
 12 13  2  0  0  0
 13 14  1  0  0  0
 14 15  1  0  0  0
 13 16  1  0  0  0
 16 17  1  0  0  0
 16 18  2  0  0  0
  8 21  1  0  0  0
 21 22  3  0  0  0
 23 22  1  0  0  0
 23 24  1  0  0  0
 23 25  1  0  0  0
 25 26  1  0  0  0
 26 27  1  0  0  0
 27 28  1  0  0  0
 27 29  1  0  0  0
 29 30  2  0  0  0
 15  2  1  0  0  0
 29 23  1  0  0  0
 10  5  1  0  0  0
 15 11  2  0  0  0
 17 19  1  0  0  0
 17 20  1  0  0  0
 24 31  1  0  0  0
M  END
> <minimizedAffinity>
-8.90843

> <CNNscore>
0.7481381297

> <CNNaffinity>
7.0779466629

> <CNN_VS>
5.2952818871

> <CNNaffinity_variance>
0.3125370145

$$$$
[H]O[C@]1(C#Cc2c([H])c([H])c3c(c2[H])-c2nc(C(=O)N([H])[H])sc2[C@@]([H])(C([H])([H])[H])C([H])([H])O3)C(=O)N(C([H])([H])[H])C([H])([H])C1([H])[H]


 31 34  0  0  0  0  0  0  0  0999 V2000
   37.7098   11.3326  -20.0254 C   0  0  0  0  0  0  0  0  0  0  0  0
   37.6980   10.3967  -18.8451 C   0  0  0  0  0  0  0  0  0  0  0  0
   39.0927    9.9033  -18.5572 C   0  0  0  0  0  0  0  0  0  0  0  0
   40.0088   10.9514  -18.3217 O   0  0  0  0  0  0  0  0  0  0  0  0
   40.0064   11.8187  -17.2378 C   0  0  0  0  0  0  0  0  0  0  0  0
   41.2622   12.3358  -16.9539 C   0  0  0  0  0  0  0  0  0  0  0  0
   41.3862   13.2095  -15.8986 C   0  0  0  0  0  0  0  0  0  0  0  0
   40.3305   13.5967  -15.1110 C   0  0  0  0  0  0  0  0  0  0  0  0
   39.0814   13.0716  -15.4067 C   0  0  0  0  0  0  0  0  0  0  0  0
   38.9271   12.1884  -16.4652 C   0  0  0  0  0  0  0  0  0  0  0  0
   37.5020   11.7555  -16.5962 C   0  0  0  0  0  0  0  0  0  0  0  0
   36.6332   12.1005  -15.7021 N   0  0  0  0  0  0  0  0  0  0  0  0
   35.3683   11.7243  -15.8064 C   0  0  0  0  0  0  0  0  0  0  0  0
   35.4071   10.8133  -17.2797 S   0  0  0  0  0  0  0  0  0  0  0  0
   37.0596   10.9906  -17.6460 C   0  0  0  0  0  0  0  0  0  0  0  0
   34.2340   11.9928  -14.9304 C   0  0  0  0  0  0  0  0  0  0  0  0
   34.1014   13.2693  -14.3628 N   0  0  0  0  0  0  0  0  0  0  0  0
   33.4077   11.1018  -14.6980 O   0  0  0  0  0  0  0  0  0  0  0  0
   33.1934   13.6947  -14.1550 H   0  0  0  0  0  0  0  0  0  0  0  0
   34.9666   13.8108  -14.1420 H   0  0  0  0  0  0  0  0  0  0  0  0
   40.4510   14.5075  -14.0083 C   0  0  0  0  0  0  0  0  0  0  0  0
   40.5304   15.2644  -13.0999 C   0  0  0  0  0  0  0  0  0  0  0  0
   40.6041   16.2053  -11.9823 C   0  0  0  0  0  0  0  0  0  0  0  0
   40.7781   17.5159  -12.4028 O   0  0  0  0  0  0  0  0  0  0  0  0
   41.6659   15.7765  -11.0136 C   0  0  0  0  0  0  0  0  0  0  0  0
   41.1652   16.1279   -9.6290 C   0  0  0  0  0  0  0  0  0  0  0  0
   39.7717   16.4971   -9.8334 N   0  0  0  0  0  0  0  0  0  0  0  0
   38.9541   17.1132   -8.7943 C   0  0  0  0  0  0  0  0  0  0  0  0
   39.3688   16.1681  -11.1569 C   0  0  0  0  0  0  0  0  0  0  0  0
   38.1898   15.9035  -11.5195 O   0  0  0  0  0  0  0  0  0  0  0  0
   40.5672   17.6667  -13.3379 H   0  0  0  0  0  0  0  0  0  0  0  0
  1  2  1  0  0  0
  2  3  1  0  0  0
  3  4  1  0  0  0
  4  5  1  0  0  0
  5  6  2  0  0  0
  6  7  1  0  0  0
  7  8  2  0  0  0
  8  9  1  0  0  0
  9 10  2  0  0  0
 10 11  1  0  0  0
 11 12  1  0  0  0
 12 13  2  0  0  0
 13 14  1  0  0  0
 14 15  1  0  0  0
 13 16  1  0  0  0
 16 17  1  0  0  0
 16 18  2  0  0  0
  8 21  1  0  0  0
 21 22  3  0  0  0
 23 22  1  0  0  0
 23 24  1  0  0  0
 23 25  1  0  0  0
 25 26  1  0  0  0
 26 27  1  0  0  0
 27 28  1  0  0  0
 27 29  1  0  0  0
 29 30  2  0  0  0
 15  2  1  0  0  0
 29 23  1  0  0  0
 10  5  1  0  0  0
 15 11  2  0  0  0
 17 19  1  0  0  0
 17 20  1  0  0  0
 24 31  1  0  0  0
M  END
> <minimizedAffinity>
-7.80681

> <CNNscore>
0.6775066853

> <CNNaffinity>
7.0549368858

> <CNN_VS>
4.7797670364

> <CNNaffinity_variance>
0.5112076998

$$$$
[H]O[C@]1(C#Cc2c([H])c([H])c3c(c2[H])-c2nc(C(=O)N([H])[H])sc2[C@@]([H])(C([H])([H])[H])C([H])([H])O3)C(=O)N(C([H])([H])[H])C([H])([H])C1([H])[H]


 31 34  0  0  0  0  0  0  0  0999 V2000
   37.0774    9.3030  -17.4695 C   0  0  0  0  0  0  0  0  0  0  0  0
   37.2114   10.7460  -17.8805 C   0  0  0  0  0  0  0  0  0  0  0  0
   35.8509   11.3848  -17.9913 C   0  0  0  0  0  0  0  0  0  0  0  0
   35.1048   11.3000  -16.7956 O   0  0  0  0  0  0  0  0  0  0  0  0
   35.3947   11.9386  -15.5976 C   0  0  0  0  0  0  0  0  0  0  0  0
   34.2717   12.1532  -14.8117 C   0  0  0  0  0  0  0  0  0  0  0  0
   34.4334   12.7796  -13.5976 C   0  0  0  0  0  0  0  0  0  0  0  0
   35.6497   13.2036  -13.1229 C   0  0  0  0  0  0  0  0  0  0  0  0
   36.7632   12.9822  -13.9194 C   0  0  0  0  0  0  0  0  0  0  0  0
   36.6297   12.3529  -15.1484 C   0  0  0  0  0  0  0  0  0  0  0  0
   37.9548   12.2215  -15.8280 C   0  0  0  0  0  0  0  0  0  0  0  0
   39.0039   12.7833  -15.3208 N   0  0  0  0  0  0  0  0  0  0  0  0
   40.1832   12.6743  -15.9123 C   0  0  0  0  0  0  0  0  0  0  0  0
   39.7816   11.7044  -17.2907 S   0  0  0  0  0  0  0  0  0  0  0  0
   38.1165   11.5155  -16.9935 C   0  0  0  0  0  0  0  0  0  0  0  0
   41.4806   13.2158  -15.5255 C   0  0  0  0  0  0  0  0  0  0  0  0
   42.5522   13.1206  -16.4265 N   0  0  0  0  0  0  0  0  0  0  0  0
   41.6230   13.7485  -14.4180 O   0  0  0  0  0  0  0  0  0  0  0  0
   43.2985   13.8198  -16.4799 H   0  0  0  0  0  0  0  0  0  0  0  0
   42.5916   12.3006  -17.0720 H   0  0  0  0  0  0  0  0  0  0  0  0
   35.8273   13.8578  -11.8577 C   0  0  0  0  0  0  0  0  0  0  0  0
   35.9648   14.3818  -10.8038 C   0  0  0  0  0  0  0  0  0  0  0  0
   36.1221   15.0094   -9.4918 C   0  0  0  0  0  0  0  0  0  0  0  0
   35.7992   14.1508   -8.4509 O   0  0  0  0  0  0  0  0  0  0  0  0
   35.3412   16.2886   -9.4327 C   0  0  0  0  0  0  0  0  0  0  0  0
   36.1437   17.2546   -8.5876 C   0  0  0  0  0  0  0  0  0  0  0  0
   37.4316   16.5975   -8.4155 N   0  0  0  0  0  0  0  0  0  0  0  0
   38.4482   17.0769   -7.4855 C   0  0  0  0  0  0  0  0  0  0  0  0
   37.5194   15.4643   -9.2699 C   0  0  0  0  0  0  0  0  0  0  0  0
   38.5873   14.9727   -9.7278 O   0  0  0  0  0  0  0  0  0  0  0  0
   35.7739   13.2132   -8.6997 H   0  0  0  0  0  0  0  0  0  0  0  0
  1  2  1  0  0  0
  2  3  1  0  0  0
  3  4  1  0  0  0
  4  5  1  0  0  0
  5  6  2  0  0  0
  6  7  1  0  0  0
  7  8  2  0  0  0
  8  9  1  0  0  0
  9 10  2  0  0  0
 10 11  1  0  0  0
 11 12  1  0  0  0
 12 13  2  0  0  0
 13 14  1  0  0  0
 14 15  1  0  0  0
 13 16  1  0  0  0
 16 17  1  0  0  0
 16 18  2  0  0  0
  8 21  1  0  0  0
 21 22  3  0  0  0
 23 22  1  0  0  0
 23 24  1  0  0  0
 23 25  1  0  0  0
 25 26  1  0  0  0
 26 27  1  0  0  0
 27 28  1  0  0  0
 27 29  1  0  0  0
 29 30  2  0  0  0
 15  2  1  0  0  0
 29 23  1  0  0  0
 10  5  1  0  0  0
 15 11  2  0  0  0
 17 19  1  0  0  0
 17 20  1  0  0  0
 24 31  1  0  0  0
M  END
> <minimizedAffinity>
-8.30945

> <CNNscore>
0.6543055773

> <CNNaffinity>
6.9618315697

> <CNN_VS>
4.5551652908

> <CNNaffinity_variance>
0.4050844610

$$$$
[H]O[C@]1(C#Cc2c([H])c([H])c3c(c2[H])-c2nc(C(=O)N([H])[H])sc2[C@@]([H])(C([H])([H])[H])C([H])([H])O3)C(=O)N(C([H])([H])[H])C([H])([H])C1([H])[H]


 31 34  0  0  0  0  0  0  0  0999 V2000
   36.8349    9.3396  -17.4770 C   0  0  0  0  0  0  0  0  0  0  0  0
   37.0068   10.7770  -17.8933 C   0  0  0  0  0  0  0  0  0  0  0  0
   35.6710   11.4743  -17.9232 C   0  0  0  0  0  0  0  0  0  0  0  0
   34.9933   11.4171  -16.6860 O   0  0  0  0  0  0  0  0  0  0  0  0
   35.3801   12.0379  -15.5062 C   0  0  0  0  0  0  0  0  0  0  0  0
   34.3153   12.2978  -14.6554 C   0  0  0  0  0  0  0  0  0  0  0  0
   34.5748   12.9118  -13.4521 C   0  0  0  0  0  0  0  0  0  0  0  0
   35.8340   13.2812  -13.0490 C   0  0  0  0  0  0  0  0  0  0  0  0
   36.8884   13.0151  -13.9097 C   0  0  0  0  0  0  0  0  0  0  0  0
   36.6560   12.3969  -15.1295 C   0  0  0  0  0  0  0  0  0  0  0  0
   37.9322   12.2112  -15.8859 C   0  0  0  0  0  0  0  0  0  0  0  0
   39.0325   12.7252  -15.4404 N   0  0  0  0  0  0  0  0  0  0  0  0
   40.1693   12.5679  -16.1001 C   0  0  0  0  0  0  0  0  0  0  0  0
   39.6462   11.6215  -17.4539 S   0  0  0  0  0  0  0  0  0  0  0  0
   37.9947   11.5034  -17.0598 C   0  0  0  0  0  0  0  0  0  0  0  0
   41.5094   13.0514  -15.7893 C   0  0  0  0  0  0  0  0  0  0  0  0
   42.5655   12.7290  -16.6552 N   0  0  0  0  0  0  0  0  0  0  0  0
   41.7007   13.7342  -14.7756 O   0  0  0  0  0  0  0  0  0  0  0  0
   43.3680   13.3464  -16.8087 H   0  0  0  0  0  0  0  0  0  0  0  0
   42.5330   11.8191  -17.1667 H   0  0  0  0  0  0  0  0  0  0  0  0
   36.1135   13.9222  -11.7955 C   0  0  0  0  0  0  0  0  0  0  0  0
   36.3395   14.4698  -10.7692 C   0  0  0  0  0  0  0  0  0  0  0  0
   36.6141   15.1681   -9.5135 C   0  0  0  0  0  0  0  0  0  0  0  0
   37.8712   14.8730   -9.0062 O   0  0  0  0  0  0  0  0  0  0  0  0
   35.5246   14.8940   -8.5197 C   0  0  0  0  0  0  0  0  0  0  0  0
   35.3326   16.1630   -7.7171 C   0  0  0  0  0  0  0  0  0  0  0  0
   36.1155   17.1618   -8.4309 N   0  0  0  0  0  0  0  0  0  0  0  0
   36.3903   18.4885   -7.8902 C   0  0  0  0  0  0  0  0  0  0  0  0
   36.5431   16.6428   -9.6838 C   0  0  0  0  0  0  0  0  0  0  0  0
   36.8009   17.3278  -10.7113 O   0  0  0  0  0  0  0  0  0  0  0  0
   38.4792   14.4772   -9.6507 H   0  0  0  0  0  0  0  0  0  0  0  0
  1  2  1  0  0  0
  2  3  1  0  0  0
  3  4  1  0  0  0
  4  5  1  0  0  0
  5  6  2  0  0  0
  6  7  1  0  0  0
  7  8  2  0  0  0
  8  9  1  0  0  0
  9 10  2  0  0  0
 10 11  1  0  0  0
 11 12  1  0  0  0
 12 13  2  0  0  0
 13 14  1  0  0  0
 14 15  1  0  0  0
 13 16  1  0  0  0
 16 17  1  0  0  0
 16 18  2  0  0  0
  8 21  1  0  0  0
 21 22  3  0  0  0
 23 22  1  0  0  0
 23 24  1  0  0  0
 23 25  1  0  0  0
 25 26  1  0  0  0
 26 27  1  0  0  0
 27 28  1  0  0  0
 27 29  1  0  0  0
 29 30  2  0  0  0
 15  2  1  0  0  0
 29 23  1  0  0  0
 10  5  1  0  0  0
 15 11  2  0  0  0
 17 19  1  0  0  0
 17 20  1  0  0  0
 24 31  1  0  0  0
M  END
> <minimizedAffinity>
-8.15932

> <CNNscore>
0.6472579837

> <CNNaffinity>
6.9156913757

> <CNN_VS>
4.4762363434

> <CNNaffinity_variance>
0.3731141686

$$$$
[H]O[C@]1(C#Cc2c([H])c([H])c3c(c2[H])-c2nc(C(=O)N([H])[H])sc2[C@@]([H])(C([H])([H])[H])C([H])([H])O3)C(=O)N(C([H])([H])[H])C([H])([H])C1([H])[H]


 31 34  0  0  0  0  0  0  0  0999 V2000
   36.5425   11.9670  -13.1116 C   0  0  0  0  0  0  0  0  0  0  0  0
   36.6166   13.0020  -14.2035 C   0  0  0  0  0  0  0  0  0  0  0  0
   36.2787   14.3642  -13.6544 C   0  0  0  0  0  0  0  0  0  0  0  0
   37.1130   14.7468  -12.5816 O   0  0  0  0  0  0  0  0  0  0  0  0
   38.4710   15.0252  -12.6538 C   0  0  0  0  0  0  0  0  0  0  0  0
   38.9016   15.8884  -11.6566 C   0  0  0  0  0  0  0  0  0  0  0  0
   40.2315   16.2390  -11.6247 C   0  0  0  0  0  0  0  0  0  0  0  0
   41.1556   15.7784  -12.5294 C   0  0  0  0  0  0  0  0  0  0  0  0
   40.7105   14.9163  -13.5205 C   0  0  0  0  0  0  0  0  0  0  0  0
   39.3750   14.5459  -13.5767 C   0  0  0  0  0  0  0  0  0  0  0  0
   39.1264   13.6154  -14.7203 C   0  0  0  0  0  0  0  0  0  0  0  0
   40.0676   13.3668  -15.5722 N   0  0  0  0  0  0  0  0  0  0  0  0
   39.8609   12.5445  -16.5888 C   0  0  0  0  0  0  0  0  0  0  0  0
   38.2112   12.0864  -16.3229 S   0  0  0  0  0  0  0  0  0  0  0  0
   37.9175   12.9961  -14.9148 C   0  0  0  0  0  0  0  0  0  0  0  0
   40.7630   12.1246  -17.6546 C   0  0  0  0  0  0  0  0  0  0  0  0
   42.1463   12.1402  -17.4191 N   0  0  0  0  0  0  0  0  0  0  0  0
   40.3051   11.7624  -18.7454 O   0  0  0  0  0  0  0  0  0  0  0  0
   42.7927   11.4760  -17.8546 H   0  0  0  0  0  0  0  0  0  0  0  0
   42.5352   12.8608  -16.7710 H   0  0  0  0  0  0  0  0  0  0  0  0
   42.5447   16.1390  -12.5034 C   0  0  0  0  0  0  0  0  0  0  0  0
   43.6929   16.4317  -12.5020 C   0  0  0  0  0  0  0  0  0  0  0  0
   45.1121   16.7857  -12.5246 C   0  0  0  0  0  0  0  0  0  0  0  0
   45.8797   15.9517  -11.7246 O   0  0  0  0  0  0  0  0  0  0  0  0
   45.2907   18.2319  -12.1691 C   0  0  0  0  0  0  0  0  0  0  0  0
   46.4459   18.7489  -12.9996 C   0  0  0  0  0  0  0  0  0  0  0  0
   46.7083   17.6817  -13.9546 N   0  0  0  0  0  0  0  0  0  0  0  0
   47.8839   17.6618  -14.8181 C   0  0  0  0  0  0  0  0  0  0  0  0
   45.6698   16.7119  -13.9002 C   0  0  0  0  0  0  0  0  0  0  0  0
   45.3204   15.9583  -14.8497 O   0  0  0  0  0  0  0  0  0  0  0  0
   45.4437   15.1198  -11.4808 H   0  0  0  0  0  0  0  0  0  0  0  0
  1  2  1  0  0  0
  2  3  1  0  0  0
  3  4  1  0  0  0
  4  5  1  0  0  0
  5  6  2  0  0  0
  6  7  1  0  0  0
  7  8  2  0  0  0
  8  9  1  0  0  0
  9 10  2  0  0  0
 10 11  1  0  0  0
 11 12  1  0  0  0
 12 13  2  0  0  0
 13 14  1  0  0  0
 14 15  1  0  0  0
 13 16  1  0  0  0
 16 17  1  0  0  0
 16 18  2  0  0  0
  8 21  1  0  0  0
 21 22  3  0  0  0
 23 22  1  0  0  0
 23 24  1  0  0  0
 23 25  1  0  0  0
 25 26  1  0  0  0
 26 27  1  0  0  0
 27 28  1  0  0  0
 27 29  1  0  0  0
 29 30  2  0  0  0
 15  2  1  0  0  0
 29 23  1  0  0  0
 10  5  1  0  0  0
 15 11  2  0  0  0
 17 19  1  0  0  0
 17 20  1  0  0  0
 24 31  1  0  0  0
M  END
> <minimizedAffinity>
-8.63525

> <CNNscore>
0.6231194139

> <CNNaffinity>
6.3277068138

> <CNN_VS>
3.9429168701

> <CNNaffinity_variance>
0.0999030918

$$$$
[H]O[C@]1(C#Cc2c([H])c([H])c3c(c2[H])-c2nc(C(=O)N([H])[H])sc2[C@@]([H])(C([H])([H])[H])C([H])([H])O3)C(=O)N(C([H])([H])[H])C([H])([H])C1([H])[H]


 31 34  0  0  0  0  0  0  0  0999 V2000
   39.6045   12.1376  -19.2138 C   0  0  0  0  0  0  0  0  0  0  0  0
   39.3702   11.0759  -18.1712 C   0  0  0  0  0  0  0  0  0  0  0  0
   40.5595   10.9778  -17.2507 C   0  0  0  0  0  0  0  0  0  0  0  0
   40.8682   12.2022  -16.6191 O   0  0  0  0  0  0  0  0  0  0  0  0
   40.0917   12.8601  -15.6751 C   0  0  0  0  0  0  0  0  0  0  0  0
   40.8351   13.6759  -14.8343 C   0  0  0  0  0  0  0  0  0  0  0  0
   40.1741   14.3813  -13.8556 C   0  0  0  0  0  0  0  0  0  0  0  0
   38.8157   14.3198  -13.6675 C   0  0  0  0  0  0  0  0  0  0  0  0
   38.0858   13.5003  -14.5154 C   0  0  0  0  0  0  0  0  0  0  0  0
   38.7260   12.7774  -15.5113 C   0  0  0  0  0  0  0  0  0  0  0  0
   37.7456   11.9687  -16.2987 C   0  0  0  0  0  0  0  0  0  0  0  0
   36.5079   11.9066  -15.9278 N   0  0  0  0  0  0  0  0  0  0  0  0
   35.6295   11.1947  -16.6163 C   0  0  0  0  0  0  0  0  0  0  0  0
   36.6263   10.5637  -17.8852 S   0  0  0  0  0  0  0  0  0  0  0  0
   38.1041   11.2716  -17.4249 C   0  0  0  0  0  0  0  0  0  0  0  0
   34.2050   10.9849  -16.3864 C   0  0  0  0  0  0  0  0  0  0  0  0
   33.6402   11.4227  -15.1788 N   0  0  0  0  0  0  0  0  0  0  0  0
   33.5148   10.4287  -17.2494 O   0  0  0  0  0  0  0  0  0  0  0  0
   32.6731   11.7509  -15.1031 H   0  0  0  0  0  0  0  0  0  0  0  0
   34.2314   11.4140  -14.3179 H   0  0  0  0  0  0  0  0  0  0  0  0
   38.1182   15.0523  -12.6490 C   0  0  0  0  0  0  0  0  0  0  0  0
   37.5248   15.6545  -11.8187 C   0  0  0  0  0  0  0  0  0  0  0  0
   36.7710   16.3959  -10.8078 C   0  0  0  0  0  0  0  0  0  0  0  0
   36.6179   17.7351  -11.1363 O   0  0  0  0  0  0  0  0  0  0  0  0
   37.3974   16.2130   -9.4573 C   0  0  0  0  0  0  0  0  0  0  0  0
   36.2677   16.1749   -8.4505 C   0  0  0  0  0  0  0  0  0  0  0  0
   35.0638   16.0821   -9.2642 N   0  0  0  0  0  0  0  0  0  0  0  0
   33.7214   16.2341   -8.7139 C   0  0  0  0  0  0  0  0  0  0  0  0
   35.4095   15.8301  -10.6202 C   0  0  0  0  0  0  0  0  0  0  0  0
   34.6807   15.2413  -11.4651 O   0  0  0  0  0  0  0  0  0  0  0  0
   36.7844   17.9388  -12.0704 H   0  0  0  0  0  0  0  0  0  0  0  0
  1  2  1  0  0  0
  2  3  1  0  0  0
  3  4  1  0  0  0
  4  5  1  0  0  0
  5  6  2  0  0  0
  6  7  1  0  0  0
  7  8  2  0  0  0
  8  9  1  0  0  0
  9 10  2  0  0  0
 10 11  1  0  0  0
 11 12  1  0  0  0
 12 13  2  0  0  0
 13 14  1  0  0  0
 14 15  1  0  0  0
 13 16  1  0  0  0
 16 17  1  0  0  0
 16 18  2  0  0  0
  8 21  1  0  0  0
 21 22  3  0  0  0
 23 22  1  0  0  0
 23 24  1  0  0  0
 23 25  1  0  0  0
 25 26  1  0  0  0
 26 27  1  0  0  0
 27 28  1  0  0  0
 27 29  1  0  0  0
 29 30  2  0  0  0
 15  2  1  0  0  0
 29 23  1  0  0  0
 10  5  1  0  0  0
 15 11  2  0  0  0
 17 19  1  0  0  0
 17 20  1  0  0  0
 24 31  1  0  0  0
M  END
> <minimizedAffinity>
-8.72321

> <CNNscore>
0.4920977950

> <CNNaffinity>
6.8338532448

> <CNN_VS>
3.3629240990

> <CNNaffinity_variance>
0.1024519056

$$$$
[H]O[C@]1(C#Cc2c([H])c([H])c3c(c2[H])-c2nc(C(=O)N([H])[H])sc2[C@@]([H])(C([H])([H])[H])C([H])([H])O3)C(=O)N(C([H])([H])[H])C([H])([H])C1([H])[H]


 31 34  0  0  0  0  0  0  0  0999 V2000
   34.5857    9.0009  -16.2655 C   0  0  0  0  0  0  0  0  0  0  0  0
   34.7666   10.2497  -17.0881 C   0  0  0  0  0  0  0  0  0  0  0  0
   33.6433   11.2180  -16.8197 C   0  0  0  0  0  0  0  0  0  0  0  0
   33.5284   11.5619  -15.4551 O   0  0  0  0  0  0  0  0  0  0  0  0
   34.4434   12.2940  -14.7110 C   0  0  0  0  0  0  0  0  0  0  0  0
   33.8645   12.9543  -13.6368 C   0  0  0  0  0  0  0  0  0  0  0  0
   34.6732   13.7142  -12.8237 C   0  0  0  0  0  0  0  0  0  0  0  0
   36.0247   13.8531  -13.0203 C   0  0  0  0  0  0  0  0  0  0  0  0
   36.5893   13.1872  -14.0980 C   0  0  0  0  0  0  0  0  0  0  0  0
   35.7978   12.4139  -14.9345 C   0  0  0  0  0  0  0  0  0  0  0  0
   36.6161   11.7937  -16.0212 C   0  0  0  0  0  0  0  0  0  0  0  0
   37.8611   12.1155  -16.1615 N   0  0  0  0  0  0  0  0  0  0  0  0
   38.5969   11.5734  -17.1192 C   0  0  0  0  0  0  0  0  0  0  0  0
   37.4436   10.5286  -17.8810 S   0  0  0  0  0  0  0  0  0  0  0  0
   36.0973   10.8756  -16.8992 C   0  0  0  0  0  0  0  0  0  0  0  0
   39.9992   11.7843  -17.4583 C   0  0  0  0  0  0  0  0  0  0  0  0
   40.4618   11.3770  -18.7190 N   0  0  0  0  0  0  0  0  0  0  0  0
   40.7603   12.3148  -16.6398 O   0  0  0  0  0  0  0  0  0  0  0  0
   41.2140   11.8598  -19.2187 H   0  0  0  0  0  0  0  0  0  0  0  0
   40.0200   10.5445  -19.1689 H   0  0  0  0  0  0  0  0  0  0  0  0
   36.8756   14.6437  -12.1771 C   0  0  0  0  0  0  0  0  0  0  0  0
   37.5613   15.3037  -11.4711 C   0  0  0  0  0  0  0  0  0  0  0  0
   38.3869   16.1280  -10.5886 C   0  0  0  0  0  0  0  0  0  0  0  0
   39.5657   16.5377  -11.1947 O   0  0  0  0  0  0  0  0  0  0  0  0
   38.6356   15.4121   -9.2943 C   0  0  0  0  0  0  0  0  0  0  0  0
   38.6522   16.4645   -8.2063 C   0  0  0  0  0  0  0  0  0  0  0  0
   38.1718   17.6706   -8.8653 N   0  0  0  0  0  0  0  0  0  0  0  0
   38.2268   18.9892   -8.2437 C   0  0  0  0  0  0  0  0  0  0  0  0
   37.6655   17.3531  -10.1556 C   0  0  0  0  0  0  0  0  0  0  0  0
   36.7812   18.0044  -10.7765 O   0  0  0  0  0  0  0  0  0  0  0  0
   39.5663   16.4578  -12.1618 H   0  0  0  0  0  0  0  0  0  0  0  0
  1  2  1  0  0  0
  2  3  1  0  0  0
  3  4  1  0  0  0
  4  5  1  0  0  0
  5  6  2  0  0  0
  6  7  1  0  0  0
  7  8  2  0  0  0
  8  9  1  0  0  0
  9 10  2  0  0  0
 10 11  1  0  0  0
 11 12  1  0  0  0
 12 13  2  0  0  0
 13 14  1  0  0  0
 14 15  1  0  0  0
 13 16  1  0  0  0
 16 17  1  0  0  0
 16 18  2  0  0  0
  8 21  1  0  0  0
 21 22  3  0  0  0
 23 22  1  0  0  0
 23 24  1  0  0  0
 23 25  1  0  0  0
 25 26  1  0  0  0
 26 27  1  0  0  0
 27 28  1  0  0  0
 27 29  1  0  0  0
 29 30  2  0  0  0
 15  2  1  0  0  0
 29 23  1  0  0  0
 10  5  1  0  0  0
 15 11  2  0  0  0
 17 19  1  0  0  0
 17 20  1  0  0  0
 24 31  1  0  0  0
M  END
> <minimizedAffinity>
-7.92914

> <CNNscore>
0.4885151684

> <CNNaffinity>
6.7345685959

> <CNN_VS>
3.2899389267

> <CNNaffinity_variance>
0.3061523438

$$$$
[H]O[C@]1(C#Cc2c([H])c([H])c3c(c2[H])-c2nc(C(=O)N([H])[H])sc2[C@@]([H])(C([H])([H])[H])C([H])([H])O3)C(=O)N(C([H])([H])[H])C([H])([H])C1([H])[H]


 31 34  0  0  0  0  0  0  0  0999 V2000
   36.5301   11.8203  -13.1173 C   0  0  0  0  0  0  0  0  0  0  0  0
   36.5653   12.8660  -14.2009 C   0  0  0  0  0  0  0  0  0  0  0  0
   36.1636   14.2075  -13.6439 C   0  0  0  0  0  0  0  0  0  0  0  0
   36.9731   14.6184  -12.5625 O   0  0  0  0  0  0  0  0  0  0  0  0
   38.3178   14.9575  -12.6234 C   0  0  0  0  0  0  0  0  0  0  0  0
   38.7031   15.8311  -11.6168 C   0  0  0  0  0  0  0  0  0  0  0  0
   40.0159   16.2401  -11.5732 C   0  0  0  0  0  0  0  0  0  0  0  0
   40.9654   15.8280  -12.4750 C   0  0  0  0  0  0  0  0  0  0  0  0
   40.5655   14.9548  -13.4755 C   0  0  0  0  0  0  0  0  0  0  0  0
   39.2481   14.5259  -13.5437 C   0  0  0  0  0  0  0  0  0  0  0  0
   39.0487   13.5943  -14.6959 C   0  0  0  0  0  0  0  0  0  0  0  0
   40.0055   13.3943  -15.5431 N   0  0  0  0  0  0  0  0  0  0  0  0
   39.8421   12.5716  -16.5673 C   0  0  0  0  0  0  0  0  0  0  0  0
   38.2127   12.0387  -16.3161 S   0  0  0  0  0  0  0  0  0  0  0  0
   37.8697   12.9235  -14.9033 C   0  0  0  0  0  0  0  0  0  0  0  0
   40.7689   12.2005  -17.6301 C   0  0  0  0  0  0  0  0  0  0  0  0
   42.1416   12.1428  -17.3447 N   0  0  0  0  0  0  0  0  0  0  0  0
   40.3407   11.9427  -18.7618 O   0  0  0  0  0  0  0  0  0  0  0  0
   42.7797   11.4895  -17.8080 H   0  0  0  0  0  0  0  0  0  0  0  0
   42.5313   12.7948  -16.6279 H   0  0  0  0  0  0  0  0  0  0  0  0
   42.3369   16.2497  -12.4368 C   0  0  0  0  0  0  0  0  0  0  0  0
   43.4652   16.6113  -12.4206 C   0  0  0  0  0  0  0  0  0  0  0  0
   44.8533   17.0729  -12.4203 C   0  0  0  0  0  0  0  0  0  0  0  0
   44.9888   18.3470  -12.9526 O   0  0  0  0  0  0  0  0  0  0  0  0
   45.7313   16.0740  -13.1139 C   0  0  0  0  0  0  0  0  0  0  0  0
   47.0577   16.0738  -12.3844 C   0  0  0  0  0  0  0  0  0  0  0  0
   46.8080   16.8588  -11.1838 N   0  0  0  0  0  0  0  0  0  0  0  0
   47.8725   17.2988  -10.2887 C   0  0  0  0  0  0  0  0  0  0  0  0
   45.4150   17.1083  -11.0448 C   0  0  0  0  0  0  0  0  0  0  0  0
   44.8125   17.3140   -9.9557 O   0  0  0  0  0  0  0  0  0  0  0  0
   44.1599   18.8490  -13.0029 H   0  0  0  0  0  0  0  0  0  0  0  0
  1  2  1  0  0  0
  2  3  1  0  0  0
  3  4  1  0  0  0
  4  5  1  0  0  0
  5  6  2  0  0  0
  6  7  1  0  0  0
  7  8  2  0  0  0
  8  9  1  0  0  0
  9 10  2  0  0  0
 10 11  1  0  0  0
 11 12  1  0  0  0
 12 13  2  0  0  0
 13 14  1  0  0  0
 14 15  1  0  0  0
 13 16  1  0  0  0
 16 17  1  0  0  0
 16 18  2  0  0  0
  8 21  1  0  0  0
 21 22  3  0  0  0
 23 22  1  0  0  0
 23 24  1  0  0  0
 23 25  1  0  0  0
 25 26  1  0  0  0
 26 27  1  0  0  0
 27 28  1  0  0  0
 27 29  1  0  0  0
 29 30  2  0  0  0
 15  2  1  0  0  0
 29 23  1  0  0  0
 10  5  1  0  0  0
 15 11  2  0  0  0
 17 19  1  0  0  0
 17 20  1  0  0  0
 24 31  1  0  0  0
M  END
> <minimizedAffinity>
-8.10390

> <CNNscore>
0.4803136885

> <CNNaffinity>
6.2044992447

> <CNN_VS>
2.9801058769

> <CNNaffinity_variance>
0.1442897767

$$$$
[H]O[C@]1(C#Cc2c([H])c([H])c3c(c2[H])-c2nc(C(=O)N([H])[H])sc2[C@@]([H])(C([H])([H])[H])C([H])([H])O3)C(=O)N(C([H])([H])[H])C([H])([H])C1([H])[H]


 31 34  0  0  0  0  0  0  0  0999 V2000
   33.8142   10.6996  -14.4844 C   0  0  0  0  0  0  0  0  0  0  0  0
   34.0361   11.7206  -15.5695 C   0  0  0  0  0  0  0  0  0  0  0  0
   33.5489   13.0739  -15.1194 C   0  0  0  0  0  0  0  0  0  0  0  0
   34.1634   13.5102  -13.9255 O   0  0  0  0  0  0  0  0  0  0  0  0
   35.4998   13.8495  -13.7640 C   0  0  0  0  0  0  0  0  0  0  0  0
   35.7103   14.7462  -12.7264 C   0  0  0  0  0  0  0  0  0  0  0  0
   36.9974   15.1577  -12.4690 C   0  0  0  0  0  0  0  0  0  0  0  0
   38.0856   14.7266  -13.1863 C   0  0  0  0  0  0  0  0  0  0  0  0
   37.8598   13.8304  -14.2204 C   0  0  0  0  0  0  0  0  0  0  0  0
   36.5721   13.3984  -14.5024 C   0  0  0  0  0  0  0  0  0  0  0  0
   36.5694   12.4406  -15.6504 C   0  0  0  0  0  0  0  0  0  0  0  0
   37.6560   12.2228  -16.3176 N   0  0  0  0  0  0  0  0  0  0  0  0
   37.6674   11.3769  -17.3358 C   0  0  0  0  0  0  0  0  0  0  0  0
   36.0177   10.8477  -17.3539 S   0  0  0  0  0  0  0  0  0  0  0  0
   35.4413   11.7638  -16.0405 C   0  0  0  0  0  0  0  0  0  0  0  0
   38.7607   10.9830  -18.2165 C   0  0  0  0  0  0  0  0  0  0  0  0
   38.4674   10.6022  -19.5349 N   0  0  0  0  0  0  0  0  0  0  0  0
   39.9247   10.9881  -17.7974 O   0  0  0  0  0  0  0  0  0  0  0  0
   39.1087   10.7636  -20.3168 H   0  0  0  0  0  0  0  0  0  0  0  0
   37.5546   10.1333  -19.7287 H   0  0  0  0  0  0  0  0  0  0  0  0
   39.4316   15.1508  -12.9246 C   0  0  0  0  0  0  0  0  0  0  0  0
   40.5355   15.5163  -12.6964 C   0  0  0  0  0  0  0  0  0  0  0  0
   41.8888   15.9867  -12.4012 C   0  0  0  0  0  0  0  0  0  0  0  0
   42.1593   17.2197  -12.9770 O   0  0  0  0  0  0  0  0  0  0  0  0
   42.8957   14.9464  -12.7931 C   0  0  0  0  0  0  0  0  0  0  0  0
   44.0119   15.0088  -11.7725 C   0  0  0  0  0  0  0  0  0  0  0  0
   43.4933   15.8773  -10.7251 N   0  0  0  0  0  0  0  0  0  0  0  0
   44.3203   16.3888   -9.6378 C   0  0  0  0  0  0  0  0  0  0  0  0
   42.1096   16.1262  -10.9381 C   0  0  0  0  0  0  0  0  0  0  0  0
   41.2687   16.4061  -10.0402 O   0  0  0  0  0  0  0  0  0  0  0  0
   41.3710   17.7107  -13.2582 H   0  0  0  0  0  0  0  0  0  0  0  0
  1  2  1  0  0  0
  2  3  1  0  0  0
  3  4  1  0  0  0
  4  5  1  0  0  0
  5  6  2  0  0  0
  6  7  1  0  0  0
  7  8  2  0  0  0
  8  9  1  0  0  0
  9 10  2  0  0  0
 10 11  1  0  0  0
 11 12  1  0  0  0
 12 13  2  0  0  0
 13 14  1  0  0  0
 14 15  1  0  0  0
 13 16  1  0  0  0
 16 17  1  0  0  0
 16 18  2  0  0  0
  8 21  1  0  0  0
 21 22  3  0  0  0
 23 22  1  0  0  0
 23 24  1  0  0  0
 23 25  1  0  0  0
 25 26  1  0  0  0
 26 27  1  0  0  0
 27 28  1  0  0  0
 27 29  1  0  0  0
 29 30  2  0  0  0
 15  2  1  0  0  0
 29 23  1  0  0  0
 10  5  1  0  0  0
 15 11  2  0  0  0
 17 19  1  0  0  0
 17 20  1  0  0  0
 24 31  1  0  0  0
M  END
> <minimizedAffinity>
-7.91253

> <CNNscore>
0.4755027294

> <CNNaffinity>
6.8573951721

> <CNN_VS>
3.2607102394

> <CNNaffinity_variance>
0.2419377565

$$$$
[H]c1nc(N([H])c2nc([H])c(C3([H])C([H])([H])C([H])([H])N(C([H])([H])[H])C([H])([H])C3([H])[H])c([H])c2[H])nc(-c2c([H])c(F)c3c(c2[H])C2(C(C([H])([H])[H])=N3)C([H])([H])C([H])([H])C([H])([H])C2([H])[H])c1F


 37 42  0  0  0  0  0  0  0  0999 V2000
   40.5611   12.6985  -17.1055 C   0  0  0  0  0  0  0  0  0  0  0  0
   40.8425   11.6388  -17.8709 N   0  0  0  0  0  0  0  0  0  0  0  0
   39.9354   10.6839  -18.1354 C   0  0  0  0  0  0  0  0  0  0  0  0
   38.6747   10.8064  -17.5971 C   0  0  0  0  0  0  0  0  0  0  0  0
   37.7017    9.8792  -17.8236 F   0  0  0  0  0  0  0  0  0  0  0  0
   38.3887   11.8879  -16.8161 C   0  0  0  0  0  0  0  0  0  0  0  0
   39.3326   12.8125  -16.5841 N   0  0  0  0  0  0  0  0  0  0  0  0
   37.0888   12.1326  -16.1903 C   0  0  0  0  0  0  0  0  0  0  0  0
   37.0513   12.9242  -15.0725 C   0  0  0  0  0  0  0  0  0  0  0  0
   35.8591   13.2151  -14.4014 C   0  0  0  0  0  0  0  0  0  0  0  0
   34.7127   12.6583  -14.9287 C   0  0  0  0  0  0  0  0  0  0  0  0
   33.6417   13.0746  -14.1085 N   0  0  0  0  0  0  0  0  0  0  0  0
   34.0322   13.8240  -13.1443 C   0  0  0  0  0  0  0  0  0  0  0  0
   33.1797   14.4357  -12.0984 C   0  0  0  0  0  0  0  0  0  0  0  0
   35.5094   14.0131  -13.2054 C   0  0  0  0  0  0  0  0  0  0  0  0
   36.1319   13.4771  -11.9409 C   0  0  0  0  0  0  0  0  0  0  0  0
   36.3833   14.6752  -11.0579 C   0  0  0  0  0  0  0  0  0  0  0  0
   36.3383   15.8890  -11.9272 C   0  0  0  0  0  0  0  0  0  0  0  0
   35.9065   15.4500  -13.3063 C   0  0  0  0  0  0  0  0  0  0  0  0
   34.7441   11.8624  -16.0514 C   0  0  0  0  0  0  0  0  0  0  0  0
   33.5871   11.3201  -16.5561 F   0  0  0  0  0  0  0  0  0  0  0  0
   35.9293   11.5969  -16.6852 C   0  0  0  0  0  0  0  0  0  0  0  0
   41.5377   13.6778  -16.8511 N   0  0  0  0  0  0  0  0  0  0  0  0
   41.5809   14.5164  -17.4749 H   0  0  0  0  0  0  0  0  0  0  0  0
   44.2630   13.1850  -13.6362 C   0  0  0  0  0  0  0  0  0  0  0  0
   44.6704   13.0882  -14.9513 C   0  0  0  0  0  0  0  0  0  0  0  0
   43.7919   13.2469  -16.0019 C   0  0  0  0  0  0  0  0  0  0  0  0
   42.4371   13.5155  -15.7672 C   0  0  0  0  0  0  0  0  0  0  0  0
   42.0790   13.6023  -14.4799 N   0  0  0  0  0  0  0  0  0  0  0  0
   42.9159   13.4517  -13.4384 C   0  0  0  0  0  0  0  0  0  0  0  0
   47.3955   11.6490   -9.3521 C   0  0  0  0  0  0  0  0  0  0  0  0
   46.6307   12.2394  -10.4358 N   0  0  0  0  0  0  0  0  0  0  0  0
   45.2934   11.6797  -10.4042 C   0  0  0  0  0  0  0  0  0  0  0  0
   44.4284   12.5226  -11.3154 C   0  0  0  0  0  0  0  0  0  0  0  0
   45.2110   13.0137  -12.5099 C   0  0  0  0  0  0  0  0  0  0  0  0
   46.3441   12.0853  -12.8688 C   0  0  0  0  0  0  0  0  0  0  0  0
   47.2764   11.9915  -11.6883 C   0  0  0  0  0  0  0  0  0  0  0  0
 31 32  1  0  0  0
 32 33  1  0  0  0
 33 34  1  0  0  0
 34 35  1  0  0  0
 35 36  1  0  0  0
 36 37  1  0  0  0
 35 25  1  0  0  0
 25 26  2  0  0  0
 26 27  1  0  0  0
 27 28  2  0  0  0
 28 23  1  0  0  0
 23  1  1  0  0  0
  1  2  2  0  0  0
  2  3  1  0  0  0
  3  4  2  0  0  0
  4  5  1  0  0  0
  4  6  1  0  0  0
  6  7  2  0  0  0
  6  8  1  0  0  0
  8  9  2  0  0  0
  9 10  1  0  0  0
 10 11  2  0  0  0
 11 12  1  0  0  0
 12 13  2  0  0  0
 13 14  1  0  0  0
 13 15  1  0  0  0
 15 16  1  0  0  0
 16 17  1  0  0  0
 17 18  1  0  0  0
 18 19  1  0  0  0
 11 20  1  0  0  0
 20 21  1  0  0  0
 20 22  2  0  0  0
 28 29  1  0  0  0
 29 30  2  0  0  0
 37 32  1  0  0  0
 30 25  1  0  0  0
  7  1  1  0  0  0
 22  8  1  0  0  0
 15 10  1  0  0  0
 19 15  1  0  0  0
 23 24  1  0  0  0
M  END
> <minimizedAffinity>
-10.19822

> <CNNscore>
0.8390167356

> <CNNaffinity>
8.3152265549

> <CNN_VS>
6.9766144753

> <CNNaffinity_variance>
0.0590531603

$$$$
[H]c1nc(N([H])c2nc([H])c(C3([H])C([H])([H])C([H])([H])N(C([H])([H])[H])C([H])([H])C3([H])[H])c([H])c2[H])nc(-c2c([H])c(F)c3c(c2[H])C2(C(C([H])([H])[H])=N3)C([H])([H])C([H])([H])C([H])([H])C2([H])[H])c1F


 37 42  0  0  0  0  0  0  0  0999 V2000
   40.2441   12.1225  -17.5510 C   0  0  0  0  0  0  0  0  0  0  0  0
   40.3495   11.0848  -18.3877 N   0  0  0  0  0  0  0  0  0  0  0  0
   39.3270   10.2456  -18.6219 C   0  0  0  0  0  0  0  0  0  0  0  0
   38.1324   10.4669  -17.9753 C   0  0  0  0  0  0  0  0  0  0  0  0
   37.0506    9.6598  -18.1648 F   0  0  0  0  0  0  0  0  0  0  0  0
   38.0260   11.5258  -17.1216 C   0  0  0  0  0  0  0  0  0  0  0  0
   39.0792   12.3330  -16.9243 N   0  0  0  0  0  0  0  0  0  0  0  0
   36.8125   11.8675  -16.3787 C   0  0  0  0  0  0  0  0  0  0  0  0
   36.9356   12.6848  -15.2857 C   0  0  0  0  0  0  0  0  0  0  0  0
   35.8364   13.0666  -14.5096 C   0  0  0  0  0  0  0  0  0  0  0  0
   34.6109   12.5731  -14.9059 C   0  0  0  0  0  0  0  0  0  0  0  0
   33.6547   13.0757  -13.9970 N   0  0  0  0  0  0  0  0  0  0  0  0
   34.1849   13.8197  -13.0975 C   0  0  0  0  0  0  0  0  0  0  0  0
   33.4802   14.5082  -11.9911 C   0  0  0  0  0  0  0  0  0  0  0  0
   35.6575   13.9120  -13.3085 C   0  0  0  0  0  0  0  0  0  0  0  0
   36.3685   13.3655  -12.0962 C   0  0  0  0  0  0  0  0  0  0  0  0
   36.7802   14.5645  -11.2768 C   0  0  0  0  0  0  0  0  0  0  0  0
   36.7239   15.7589  -12.1719 C   0  0  0  0  0  0  0  0  0  0  0  0
   36.1306   15.3178  -13.4889 C   0  0  0  0  0  0  0  0  0  0  0  0
   34.4812   11.7519  -16.0031 C   0  0  0  0  0  0  0  0  0  0  0  0
   33.2483   11.2739  -16.3763 F   0  0  0  0  0  0  0  0  0  0  0  0
   35.5786   11.3967  -16.7421 C   0  0  0  0  0  0  0  0  0  0  0  0
   41.3372   12.9794  -17.3315 N   0  0  0  0  0  0  0  0  0  0  0  0
   41.8956   13.3008  -18.1556 H   0  0  0  0  0  0  0  0  0  0  0  0
   42.2658   14.2202  -13.3813 C   0  0  0  0  0  0  0  0  0  0  0  0
   41.0026   14.3835  -13.9127 C   0  0  0  0  0  0  0  0  0  0  0  0
   40.6922   13.9834  -15.1950 C   0  0  0  0  0  0  0  0  0  0  0  0
   41.6616   13.3892  -16.0135 C   0  0  0  0  0  0  0  0  0  0  0  0
   42.8745   13.2472  -15.4643 N   0  0  0  0  0  0  0  0  0  0  0  0
   43.2020   13.6289  -14.2173 C   0  0  0  0  0  0  0  0  0  0  0  0
   43.8752   16.6283   -8.6763 C   0  0  0  0  0  0  0  0  0  0  0  0
   43.4354   15.8277   -9.8049 N   0  0  0  0  0  0  0  0  0  0  0  0
   44.3159   16.1002  -10.9244 C   0  0  0  0  0  0  0  0  0  0  0  0
   44.0535   15.0429  -11.9743 C   0  0  0  0  0  0  0  0  0  0  0  0
   42.5951   14.6520  -12.0022 C   0  0  0  0  0  0  0  0  0  0  0  0
   41.6969   15.7706  -11.5368 C   0  0  0  0  0  0  0  0  0  0  0  0
   42.0725   16.1266  -10.1213 C   0  0  0  0  0  0  0  0  0  0  0  0
 31 32  1  0  0  0
 32 33  1  0  0  0
 33 34  1  0  0  0
 34 35  1  0  0  0
 35 36  1  0  0  0
 36 37  1  0  0  0
 35 25  1  0  0  0
 25 26  2  0  0  0
 26 27  1  0  0  0
 27 28  2  0  0  0
 28 23  1  0  0  0
 23  1  1  0  0  0
  1  2  2  0  0  0
  2  3  1  0  0  0
  3  4  2  0  0  0
  4  5  1  0  0  0
  4  6  1  0  0  0
  6  7  2  0  0  0
  6  8  1  0  0  0
  8  9  2  0  0  0
  9 10  1  0  0  0
 10 11  2  0  0  0
 11 12  1  0  0  0
 12 13  2  0  0  0
 13 14  1  0  0  0
 13 15  1  0  0  0
 15 16  1  0  0  0
 16 17  1  0  0  0
 17 18  1  0  0  0
 18 19  1  0  0  0
 11 20  1  0  0  0
 20 21  1  0  0  0
 20 22  2  0  0  0
 28 29  1  0  0  0
 29 30  2  0  0  0
 37 32  1  0  0  0
 30 25  1  0  0  0
  7  1  1  0  0  0
 22  8  1  0  0  0
 15 10  1  0  0  0
 19 15  1  0  0  0
 23 24  1  0  0  0
M  END
> <minimizedAffinity>
-9.88518

> <CNNscore>
0.7572373748

> <CNNaffinity>
8.5201663971

> <CNN_VS>
6.4517884254

> <CNNaffinity_variance>
0.0898388177

$$$$
[H]c1nc(N([H])c2nc([H])c(C3([H])C([H])([H])C([H])([H])N(C([H])([H])[H])C([H])([H])C3([H])[H])c([H])c2[H])nc(-c2c([H])c(F)c3c(c2[H])C2(C(C([H])([H])[H])=N3)C([H])([H])C([H])([H])C([H])([H])C2([H])[H])c1F


 37 42  0  0  0  0  0  0  0  0999 V2000
   43.0126   13.5359  -14.8511 C   0  0  0  0  0  0  0  0  0  0  0  0
   43.9482   13.2061  -15.7476 N   0  0  0  0  0  0  0  0  0  0  0  0
   43.6582   12.5290  -16.8711 C   0  0  0  0  0  0  0  0  0  0  0  0
   42.3510   12.1651  -17.1013 C   0  0  0  0  0  0  0  0  0  0  0  0
   41.9806   11.4795  -18.2196 F   0  0  0  0  0  0  0  0  0  0  0  0
   41.3972   12.5018  -16.1858 C   0  0  0  0  0  0  0  0  0  0  0  0
   41.7421   13.1790  -15.0802 N   0  0  0  0  0  0  0  0  0  0  0  0
   39.9767   12.1757  -16.3168 C   0  0  0  0  0  0  0  0  0  0  0  0
   39.1137   12.6673  -15.3727 C   0  0  0  0  0  0  0  0  0  0  0  0
   37.7394   12.4097  -15.4091 C   0  0  0  0  0  0  0  0  0  0  0  0
   37.2943   11.6281  -16.4548 C   0  0  0  0  0  0  0  0  0  0  0  0
   35.8973   11.4958  -16.3002 N   0  0  0  0  0  0  0  0  0  0  0  0
   35.4625   12.1193  -15.2678 C   0  0  0  0  0  0  0  0  0  0  0  0
   34.0567   12.1929  -14.8061 C   0  0  0  0  0  0  0  0  0  0  0  0
   36.5895   12.7892  -14.5587 C   0  0  0  0  0  0  0  0  0  0  0  0
   36.6910   12.2412  -13.1576 C   0  0  0  0  0  0  0  0  0  0  0  0
   36.0116   13.2500  -12.2636 C   0  0  0  0  0  0  0  0  0  0  0  0
   35.9201   14.5321  -13.0244 C   0  0  0  0  0  0  0  0  0  0  0  0
   36.3991   14.2657  -14.4318 C   0  0  0  0  0  0  0  0  0  0  0  0
   38.1566   11.1317  -17.4061 C   0  0  0  0  0  0  0  0  0  0  0  0
   37.6869   10.3554  -18.4378 F   0  0  0  0  0  0  0  0  0  0  0  0
   39.4978   11.4028  -17.3413 C   0  0  0  0  0  0  0  0  0  0  0  0
   43.3552   14.2455  -13.6864 N   0  0  0  0  0  0  0  0  0  0  0  0
   44.3626   14.2987  -13.4100 H   0  0  0  0  0  0  0  0  0  0  0  0
   40.3554   16.1217  -11.3439 C   0  0  0  0  0  0  0  0  0  0  0  0
   41.6578   16.0139  -10.9002 C   0  0  0  0  0  0  0  0  0  0  0  0
   42.6387   15.4060  -11.6545 C   0  0  0  0  0  0  0  0  0  0  0  0
   42.3428   14.8696  -12.9145 C   0  0  0  0  0  0  0  0  0  0  0  0
   41.0700   14.9928  -13.3114 N   0  0  0  0  0  0  0  0  0  0  0  0
   40.0959   15.5807  -12.5948 C   0  0  0  0  0  0  0  0  0  0  0  0
   36.0792   17.6481   -8.1958 C   0  0  0  0  0  0  0  0  0  0  0  0
   37.2179   17.4404   -9.0724 N   0  0  0  0  0  0  0  0  0  0  0  0
   36.9292   16.3070   -9.9296 C   0  0  0  0  0  0  0  0  0  0  0  0
   37.9628   16.3003  -11.0344 C   0  0  0  0  0  0  0  0  0  0  0  0
   39.3041   16.7761  -10.5295 C   0  0  0  0  0  0  0  0  0  0  0  0
   39.4871   16.5046   -9.0572 C   0  0  0  0  0  0  0  0  0  0  0  0
   38.4036   17.2287   -8.3001 C   0  0  0  0  0  0  0  0  0  0  0  0
 31 32  1  0  0  0
 32 33  1  0  0  0
 33 34  1  0  0  0
 34 35  1  0  0  0
 35 36  1  0  0  0
 36 37  1  0  0  0
 35 25  1  0  0  0
 25 26  2  0  0  0
 26 27  1  0  0  0
 27 28  2  0  0  0
 28 23  1  0  0  0
 23  1  1  0  0  0
  1  2  2  0  0  0
  2  3  1  0  0  0
  3  4  2  0  0  0
  4  5  1  0  0  0
  4  6  1  0  0  0
  6  7  2  0  0  0
  6  8  1  0  0  0
  8  9  2  0  0  0
  9 10  1  0  0  0
 10 11  2  0  0  0
 11 12  1  0  0  0
 12 13  2  0  0  0
 13 14  1  0  0  0
 13 15  1  0  0  0
 15 16  1  0  0  0
 16 17  1  0  0  0
 17 18  1  0  0  0
 18 19  1  0  0  0
 11 20  1  0  0  0
 20 21  1  0  0  0
 20 22  2  0  0  0
 28 29  1  0  0  0
 29 30  2  0  0  0
 37 32  1  0  0  0
 30 25  1  0  0  0
  7  1  1  0  0  0
 22  8  1  0  0  0
 15 10  1  0  0  0
 19 15  1  0  0  0
 23 24  1  0  0  0
M  END
> <minimizedAffinity>
-11.02782

> <CNNscore>
0.3147441745

> <CNNaffinity>
7.6761140823

> <CNN_VS>
2.4160122871

> <CNNaffinity_variance>
0.1781437695

$$$$
[H]c1nc(N([H])c2nc([H])c(C3([H])C([H])([H])C([H])([H])N(C([H])([H])[H])C([H])([H])C3([H])[H])c([H])c2[H])nc(-c2c([H])c(F)c3c(c2[H])C2(C(C([H])([H])[H])=N3)C([H])([H])C([H])([H])C([H])([H])C2([H])[H])c1F


 37 42  0  0  0  0  0  0  0  0999 V2000
   42.7747   12.5031  -16.5467 C   0  0  0  0  0  0  0  0  0  0  0  0
   43.8300   12.0287  -17.2170 N   0  0  0  0  0  0  0  0  0  0  0  0
   45.0785   12.0886  -16.7247 C   0  0  0  0  0  0  0  0  0  0  0  0
   45.2714   12.6592  -15.4872 C   0  0  0  0  0  0  0  0  0  0  0  0
   46.5083   12.7529  -14.9223 F   0  0  0  0  0  0  0  0  0  0  0  0
   44.1941   13.1431  -14.8042 C   0  0  0  0  0  0  0  0  0  0  0  0
   42.9684   13.0575  -15.3428 N   0  0  0  0  0  0  0  0  0  0  0  0
   44.2680   13.7681  -13.4832 C   0  0  0  0  0  0  0  0  0  0  0  0
   44.8707   14.9947  -13.3841 C   0  0  0  0  0  0  0  0  0  0  0  0
   44.9928   15.6721  -12.1665 C   0  0  0  0  0  0  0  0  0  0  0  0
   44.4696   15.0350  -11.0607 C   0  0  0  0  0  0  0  0  0  0  0  0
   44.6980   15.8824   -9.9549 N   0  0  0  0  0  0  0  0  0  0  0  0
   45.3047   16.9615  -10.2880 C   0  0  0  0  0  0  0  0  0  0  0  0
   45.7011   18.0679   -9.3859 C   0  0  0  0  0  0  0  0  0  0  0  0
   45.5742   16.9687  -11.7540 C   0  0  0  0  0  0  0  0  0  0  0  0
   47.0624   17.0435  -11.9853 C   0  0  0  0  0  0  0  0  0  0  0  0
   47.3657   18.4897  -12.2936 C   0  0  0  0  0  0  0  0  0  0  0  0
   46.0789   19.1454  -12.6745 C   0  0  0  0  0  0  0  0  0  0  0  0
   44.9699   18.1452  -12.4491 C   0  0  0  0  0  0  0  0  0  0  0  0
   43.8629   13.8029  -11.1542 C   0  0  0  0  0  0  0  0  0  0  0  0
   43.3500   13.1901  -10.0366 F   0  0  0  0  0  0  0  0  0  0  0  0
   43.7598   13.1660  -12.3627 C   0  0  0  0  0  0  0  0  0  0  0  0
   41.4824   12.4222  -17.0951 N   0  0  0  0  0  0  0  0  0  0  0  0
   41.3816   12.1717  -18.1057 H   0  0  0  0  0  0  0  0  0  0  0  0
   38.1154   13.2254  -14.6407 C   0  0  0  0  0  0  0  0  0  0  0  0
   39.2236   14.0480  -14.6404 C   0  0  0  0  0  0  0  0  0  0  0  0
   40.3217   13.7947  -15.4344 C   0  0  0  0  0  0  0  0  0  0  0  0
   40.3506   12.6783  -16.2804 C   0  0  0  0  0  0  0  0  0  0  0  0
   39.2587   11.9038  -16.2540 N   0  0  0  0  0  0  0  0  0  0  0  0
   38.1760   12.1293  -15.4892 C   0  0  0  0  0  0  0  0  0  0  0  0
   33.8594   15.1948  -11.7194 C   0  0  0  0  0  0  0  0  0  0  0  0
   34.9604   14.5122  -12.3752 N   0  0  0  0  0  0  0  0  0  0  0  0
   36.0771   15.4330  -12.4624 C   0  0  0  0  0  0  0  0  0  0  0  0
   37.2989   14.6276  -12.8464 C   0  0  0  0  0  0  0  0  0  0  0  0
   36.9370   13.5015  -13.7853 C   0  0  0  0  0  0  0  0  0  0  0  0
   35.7115   13.8165  -14.6061 C   0  0  0  0  0  0  0  0  0  0  0  0
   34.5557   14.0506  -13.6677 C   0  0  0  0  0  0  0  0  0  0  0  0
 31 32  1  0  0  0
 32 33  1  0  0  0
 33 34  1  0  0  0
 34 35  1  0  0  0
 35 36  1  0  0  0
 36 37  1  0  0  0
 35 25  1  0  0  0
 25 26  2  0  0  0
 26 27  1  0  0  0
 27 28  2  0  0  0
 28 23  1  0  0  0
 23  1  1  0  0  0
  1  2  2  0  0  0
  2  3  1  0  0  0
  3  4  2  0  0  0
  4  5  1  0  0  0
  4  6  1  0  0  0
  6  7  2  0  0  0
  6  8  1  0  0  0
  8  9  2  0  0  0
  9 10  1  0  0  0
 10 11  2  0  0  0
 11 12  1  0  0  0
 12 13  2  0  0  0
 13 14  1  0  0  0
 13 15  1  0  0  0
 15 16  1  0  0  0
 16 17  1  0  0  0
 17 18  1  0  0  0
 18 19  1  0  0  0
 11 20  1  0  0  0
 20 21  1  0  0  0
 20 22  2  0  0  0
 28 29  1  0  0  0
 29 30  2  0  0  0
 37 32  1  0  0  0
 30 25  1  0  0  0
  7  1  1  0  0  0
 22  8  1  0  0  0
 15 10  1  0  0  0
 19 15  1  0  0  0
 23 24  1  0  0  0
M  END
> <minimizedAffinity>
-8.71010

> <CNNscore>
0.3052559197

> <CNNaffinity>
7.3319387436

> <CNN_VS>
2.2381176949

> <CNNaffinity_variance>
0.0425434336

$$$$
[H]c1nc(N([H])c2nc([H])c(C3([H])C([H])([H])C([H])([H])N(C([H])([H])[H])C([H])([H])C3([H])[H])c([H])c2[H])nc(-c2c([H])c(F)c3c(c2[H])C2(C(C([H])([H])[H])=N3)C([H])([H])C([H])([H])C([H])([H])C2([H])[H])c1F


 37 42  0  0  0  0  0  0  0  0999 V2000
   42.3407   14.6817  -13.6945 C   0  0  0  0  0  0  0  0  0  0  0  0
   43.5538   14.3738  -14.1652 N   0  0  0  0  0  0  0  0  0  0  0  0
   43.7328   13.4994  -15.1693 C   0  0  0  0  0  0  0  0  0  0  0  0
   42.6254   12.9034  -15.7283 C   0  0  0  0  0  0  0  0  0  0  0  0
   42.7285   12.0087  -16.7515 F   0  0  0  0  0  0  0  0  0  0  0  0
   41.3882   13.2180  -15.2471 C   0  0  0  0  0  0  0  0  0  0  0  0
   41.2665   14.0984  -14.2422 N   0  0  0  0  0  0  0  0  0  0  0  0
   40.1373   12.6557  -15.7574 C   0  0  0  0  0  0  0  0  0  0  0  0
   38.9832   12.9231  -15.0687 C   0  0  0  0  0  0  0  0  0  0  0  0
   37.7388   12.4300  -15.4743 C   0  0  0  0  0  0  0  0  0  0  0  0
   37.7341   11.6536  -16.6144 C   0  0  0  0  0  0  0  0  0  0  0  0
   36.3953   11.2668  -16.8398 N   0  0  0  0  0  0  0  0  0  0  0  0
   35.5993   11.7334  -15.9497 C   0  0  0  0  0  0  0  0  0  0  0  0
   34.1340   11.5267  -15.8777 C   0  0  0  0  0  0  0  0  0  0  0  0
   36.3581   12.5429  -14.9543 C   0  0  0  0  0  0  0  0  0  0  0  0
   36.1951   11.9291  -13.5867 C   0  0  0  0  0  0  0  0  0  0  0  0
   35.1308   12.7403  -12.8883 C   0  0  0  0  0  0  0  0  0  0  0  0
   34.9998   14.0339  -13.6232 C   0  0  0  0  0  0  0  0  0  0  0  0
   35.8674   13.9508  -14.8567 C   0  0  0  0  0  0  0  0  0  0  0  0
   38.8903   11.3819  -17.3103 C   0  0  0  0  0  0  0  0  0  0  0  0
   38.8577   10.6054  -18.4434 F   0  0  0  0  0  0  0  0  0  0  0  0
   40.0935   11.8805  -16.8858 C   0  0  0  0  0  0  0  0  0  0  0  0
   42.1934   15.6023  -12.6417 N   0  0  0  0  0  0  0  0  0  0  0  0
   43.0206   16.1766  -12.3587 H   0  0  0  0  0  0  0  0  0  0  0  0
   38.4697   16.0179  -10.6499 C   0  0  0  0  0  0  0  0  0  0  0  0
   39.6599   16.3507  -10.0355 C   0  0  0  0  0  0  0  0  0  0  0  0
   40.8741   16.2189  -10.6750 C   0  0  0  0  0  0  0  0  0  0  0  0
   40.9422   15.7359  -11.9884 C   0  0  0  0  0  0  0  0  0  0  0  0
   39.7683   15.4236  -12.5517 N   0  0  0  0  0  0  0  0  0  0  0  0
   38.5720   15.5430  -11.9495 C   0  0  0  0  0  0  0  0  0  0  0  0
   33.2889   15.8951   -8.7341 C   0  0  0  0  0  0  0  0  0  0  0  0
   34.6709   16.0960   -9.1316 N   0  0  0  0  0  0  0  0  0  0  0  0
   34.7609   15.9117  -10.5671 C   0  0  0  0  0  0  0  0  0  0  0  0
   36.1127   16.4302  -11.0060 C   0  0  0  0  0  0  0  0  0  0  0  0
   37.1666   16.1612   -9.9585 C   0  0  0  0  0  0  0  0  0  0  0  0
   36.8411   14.9493   -9.1218 C   0  0  0  0  0  0  0  0  0  0  0  0
   35.5240   15.1874   -8.4290 C   0  0  0  0  0  0  0  0  0  0  0  0
 31 32  1  0  0  0
 32 33  1  0  0  0
 33 34  1  0  0  0
 34 35  1  0  0  0
 35 36  1  0  0  0
 36 37  1  0  0  0
 35 25  1  0  0  0
 25 26  2  0  0  0
 26 27  1  0  0  0
 27 28  2  0  0  0
 28 23  1  0  0  0
 23  1  1  0  0  0
  1  2  2  0  0  0
  2  3  1  0  0  0
  3  4  2  0  0  0
  4  5  1  0  0  0
  4  6  1  0  0  0
  6  7  2  0  0  0
  6  8  1  0  0  0
  8  9  2  0  0  0
  9 10  1  0  0  0
 10 11  2  0  0  0
 11 12  1  0  0  0
 12 13  2  0  0  0
 13 14  1  0  0  0
 13 15  1  0  0  0
 15 16  1  0  0  0
 16 17  1  0  0  0
 17 18  1  0  0  0
 18 19  1  0  0  0
 11 20  1  0  0  0
 20 21  1  0  0  0
 20 22  2  0  0  0
 28 29  1  0  0  0
 29 30  2  0  0  0
 37 32  1  0  0  0
 30 25  1  0  0  0
  7  1  1  0  0  0
 22  8  1  0  0  0
 15 10  1  0  0  0
 19 15  1  0  0  0
 23 24  1  0  0  0
M  END
> <minimizedAffinity>
-11.30472

> <CNNscore>
0.2179996818

> <CNNaffinity>
7.3244361877

> <CNN_VS>
1.5967247486

> <CNNaffinity_variance>
0.5180345774

$$$$
[H]c1nc(N([H])c2nc([H])c(C3([H])C([H])([H])C([H])([H])N(C([H])([H])[H])C([H])([H])C3([H])[H])c([H])c2[H])nc(-c2c([H])c(F)c3c(c2[H])C2(C(C([H])([H])[H])=N3)C([H])([H])C([H])([H])C([H])([H])C2([H])[H])c1F


 37 42  0  0  0  0  0  0  0  0999 V2000
   42.3729   12.6986  -16.4524 C   0  0  0  0  0  0  0  0  0  0  0  0
   43.1709   11.8119  -17.0564 N   0  0  0  0  0  0  0  0  0  0  0  0
   44.4844   11.7290  -16.7873 C   0  0  0  0  0  0  0  0  0  0  0  0
   45.0212   12.5894  -15.8568 C   0  0  0  0  0  0  0  0  0  0  0  0
   46.3442   12.5626  -15.5301 F   0  0  0  0  0  0  0  0  0  0  0  0
   44.2062   13.4939  -15.2413 C   0  0  0  0  0  0  0  0  0  0  0  0
   42.9008   13.5335  -15.5478 N   0  0  0  0  0  0  0  0  0  0  0  0
   44.6547   14.4575  -14.2355 C   0  0  0  0  0  0  0  0  0  0  0  0
   44.0152   14.4679  -13.0237 C   0  0  0  0  0  0  0  0  0  0  0  0
   44.3684   15.3519  -11.9990 C   0  0  0  0  0  0  0  0  0  0  0  0
   45.4037   16.2206  -12.2747 C   0  0  0  0  0  0  0  0  0  0  0  0
   45.5921   17.0113  -11.1205 N   0  0  0  0  0  0  0  0  0  0  0  0
   44.7739   16.7030  -10.1827 C   0  0  0  0  0  0  0  0  0  0  0  0
   44.6907   17.3263   -8.8412 C   0  0  0  0  0  0  0  0  0  0  0  0
   43.8793   15.5955  -10.6239 C   0  0  0  0  0  0  0  0  0  0  0  0
   42.4478   16.0680  -10.5863 C   0  0  0  0  0  0  0  0  0  0  0  0
   41.8650   15.5351   -9.2999 C   0  0  0  0  0  0  0  0  0  0  0  0
   42.7555   14.4326   -8.8281 C   0  0  0  0  0  0  0  0  0  0  0  0
   43.9610   14.3957   -9.7371 C   0  0  0  0  0  0  0  0  0  0  0  0
   46.0499   16.2147  -13.4902 C   0  0  0  0  0  0  0  0  0  0  0  0
   47.0785   17.0909  -13.7389 F   0  0  0  0  0  0  0  0  0  0  0  0
   45.6791   15.3354  -14.4730 C   0  0  0  0  0  0  0  0  0  0  0  0
   41.0021   12.7550  -16.7607 N   0  0  0  0  0  0  0  0  0  0  0  0
   40.6997   12.5471  -17.7402 H   0  0  0  0  0  0  0  0  0  0  0  0
   38.1745   13.7123  -13.7450 C   0  0  0  0  0  0  0  0  0  0  0  0
   38.2094   12.4648  -14.3341 C   0  0  0  0  0  0  0  0  0  0  0  0
   39.1245   12.1451  -15.3145 C   0  0  0  0  0  0  0  0  0  0  0  0
   40.0631   13.0888  -15.7521 C   0  0  0  0  0  0  0  0  0  0  0  0
   39.9990   14.2871  -15.1582 N   0  0  0  0  0  0  0  0  0  0  0  0
   39.1168   14.6231  -14.2007 C   0  0  0  0  0  0  0  0  0  0  0  0
   34.6517   15.9102  -10.1001 C   0  0  0  0  0  0  0  0  0  0  0  0
   35.5689   15.1672  -10.9456 N   0  0  0  0  0  0  0  0  0  0  0  0
   36.7128   16.0130  -11.2262 C   0  0  0  0  0  0  0  0  0  0  0  0
   37.7885   15.1347  -11.8266 C   0  0  0  0  0  0  0  0  0  0  0  0
   37.1889   14.0516  -12.6914 C   0  0  0  0  0  0  0  0  0  0  0  0
   35.8615   14.4616  -13.2783 C   0  0  0  0  0  0  0  0  0  0  0  0
   34.9100   14.7560  -12.1472 C   0  0  0  0  0  0  0  0  0  0  0  0
 31 32  1  0  0  0
 32 33  1  0  0  0
 33 34  1  0  0  0
 34 35  1  0  0  0
 35 36  1  0  0  0
 36 37  1  0  0  0
 35 25  1  0  0  0
 25 26  2  0  0  0
 26 27  1  0  0  0
 27 28  2  0  0  0
 28 23  1  0  0  0
 23  1  1  0  0  0
  1  2  2  0  0  0
  2  3  1  0  0  0
  3  4  2  0  0  0
  4  5  1  0  0  0
  4  6  1  0  0  0
  6  7  2  0  0  0
  6  8  1  0  0  0
  8  9  2  0  0  0
  9 10  1  0  0  0
 10 11  2  0  0  0
 11 12  1  0  0  0
 12 13  2  0  0  0
 13 14  1  0  0  0
 13 15  1  0  0  0
 15 16  1  0  0  0
 16 17  1  0  0  0
 17 18  1  0  0  0
 18 19  1  0  0  0
 11 20  1  0  0  0
 20 21  1  0  0  0
 20 22  2  0  0  0
 28 29  1  0  0  0
 29 30  2  0  0  0
 37 32  1  0  0  0
 30 25  1  0  0  0
  7  1  1  0  0  0
 22  8  1  0  0  0
 15 10  1  0  0  0
 19 15  1  0  0  0
 23 24  1  0  0  0
M  END
> <minimizedAffinity>
-8.68599

> <CNNscore>
0.1734464318

> <CNNaffinity>
7.0955667496

> <CNN_VS>
1.2307007313

> <CNNaffinity_variance>
0.1019219756

$$$$
[H]c1nc(N([H])c2nc([H])c(C3([H])C([H])([H])C([H])([H])N(C([H])([H])[H])C([H])([H])C3([H])[H])c([H])c2[H])nc(-c2c([H])c(F)c3c(c2[H])C2(C(C([H])([H])[H])=N3)C([H])([H])C([H])([H])C([H])([H])C2([H])[H])c1F


 37 42  0  0  0  0  0  0  0  0999 V2000
   37.2958   12.0953  -16.2477 C   0  0  0  0  0  0  0  0  0  0  0  0
   36.4944   11.1879  -16.8153 N   0  0  0  0  0  0  0  0  0  0  0  0
   35.2272   10.9977  -16.4119 C   0  0  0  0  0  0  0  0  0  0  0  0
   34.7432   11.7666  -15.3781 C   0  0  0  0  0  0  0  0  0  0  0  0
   33.4677   11.6322  -14.9166 F   0  0  0  0  0  0  0  0  0  0  0  0
   35.5617   12.6920  -14.7995 C   0  0  0  0  0  0  0  0  0  0  0  0
   36.8195   12.8407  -15.2419 N   0  0  0  0  0  0  0  0  0  0  0  0
   35.1653   13.5696  -13.6977 C   0  0  0  0  0  0  0  0  0  0  0  0
   36.1450   14.0322  -12.8587 C   0  0  0  0  0  0  0  0  0  0  0  0
   35.8672   14.8734  -11.7764 C   0  0  0  0  0  0  0  0  0  0  0  0
   34.5434   15.2163  -11.5964 C   0  0  0  0  0  0  0  0  0  0  0  0
   34.4897   16.0585  -10.4646 N   0  0  0  0  0  0  0  0  0  0  0  0
   35.6477   16.2536   -9.9500 C   0  0  0  0  0  0  0  0  0  0  0  0
   35.9591   17.0802   -8.7606 C   0  0  0  0  0  0  0  0  0  0  0  0
   36.6861   15.5174  -10.7256 C   0  0  0  0  0  0  0  0  0  0  0  0
   37.3683   14.5215   -9.8220 C   0  0  0  0  0  0  0  0  0  0  0  0
   38.6661   15.1639   -9.3957 C   0  0  0  0  0  0  0  0  0  0  0  0
   38.9496   16.2765  -10.3511 C   0  0  0  0  0  0  0  0  0  0  0  0
   37.7534   16.4145  -11.2627 C   0  0  0  0  0  0  0  0  0  0  0  0
   33.5550   14.7548  -12.4360 C   0  0  0  0  0  0  0  0  0  0  0  0
   32.2437   15.1118  -12.2342 F   0  0  0  0  0  0  0  0  0  0  0  0
   33.8611   13.9317  -13.4875 C   0  0  0  0  0  0  0  0  0  0  0  0
   38.6171   12.2654  -16.6979 N   0  0  0  0  0  0  0  0  0  0  0  0
   38.8595   11.9586  -17.6681 H   0  0  0  0  0  0  0  0  0  0  0  0
   41.5554   13.9749  -14.1581 C   0  0  0  0  0  0  0  0  0  0  0  0
   41.9023   13.2120  -15.2547 C   0  0  0  0  0  0  0  0  0  0  0  0
   40.9544   12.6528  -16.0851 C   0  0  0  0  0  0  0  0  0  0  0  0
   39.5880   12.8426  -15.8408 C   0  0  0  0  0  0  0  0  0  0  0  0
   39.2897   13.5877  -14.7691 N   0  0  0  0  0  0  0  0  0  0  0  0
   40.1949   14.1434  -13.9445 C   0  0  0  0  0  0  0  0  0  0  0  0
   44.7527   15.9547  -10.1105 C   0  0  0  0  0  0  0  0  0  0  0  0
   44.0253   15.5439  -11.2981 N   0  0  0  0  0  0  0  0  0  0  0  0
   42.6063   15.6613  -11.0237 C   0  0  0  0  0  0  0  0  0  0  0  0
   41.8786   15.5433  -12.3448 C   0  0  0  0  0  0  0  0  0  0  0  0
   42.5778   14.5740  -13.2680 C   0  0  0  0  0  0  0  0  0  0  0  0
   43.3467   13.5205  -12.5107 C   0  0  0  0  0  0  0  0  0  0  0  0
   44.3835   14.2064  -11.6587 C   0  0  0  0  0  0  0  0  0  0  0  0
 31 32  1  0  0  0
 32 33  1  0  0  0
 33 34  1  0  0  0
 34 35  1  0  0  0
 35 36  1  0  0  0
 36 37  1  0  0  0
 35 25  1  0  0  0
 25 26  2  0  0  0
 26 27  1  0  0  0
 27 28  2  0  0  0
 28 23  1  0  0  0
 23  1  1  0  0  0
  1  2  2  0  0  0
  2  3  1  0  0  0
  3  4  2  0  0  0
  4  5  1  0  0  0
  4  6  1  0  0  0
  6  7  2  0  0  0
  6  8  1  0  0  0
  8  9  2  0  0  0
  9 10  1  0  0  0
 10 11  2  0  0  0
 11 12  1  0  0  0
 12 13  2  0  0  0
 13 14  1  0  0  0
 13 15  1  0  0  0
 15 16  1  0  0  0
 16 17  1  0  0  0
 17 18  1  0  0  0
 18 19  1  0  0  0
 11 20  1  0  0  0
 20 21  1  0  0  0
 20 22  2  0  0  0
 28 29  1  0  0  0
 29 30  2  0  0  0
 37 32  1  0  0  0
 30 25  1  0  0  0
  7  1  1  0  0  0
 22  8  1  0  0  0
 15 10  1  0  0  0
 19 15  1  0  0  0
 23 24  1  0  0  0
M  END
> <minimizedAffinity>
-9.73343

> <CNNscore>
0.1202563941

> <CNNaffinity>
7.1488480568

> <CNN_VS>
0.8596947193

> <CNNaffinity_variance>
0.4043819010

$$$$
[H]c1nc(N([H])c2nc([H])c(C3([H])C([H])([H])C([H])([H])N(C([H])([H])[H])C([H])([H])C3([H])[H])c([H])c2[H])nc(-c2c([H])c(F)c3c(c2[H])C2(C(C([H])([H])[H])=N3)C([H])([H])C([H])([H])C([H])([H])C2([H])[H])c1F


 37 42  0  0  0  0  0  0  0  0999 V2000
   43.8242   14.2801  -14.1491 C   0  0  0  0  0  0  0  0  0  0  0  0
   44.9787   13.9038  -14.7089 N   0  0  0  0  0  0  0  0  0  0  0  0
   45.0271   13.0776  -15.7671 C   0  0  0  0  0  0  0  0  0  0  0  0
   43.8440   12.6057  -16.2883 C   0  0  0  0  0  0  0  0  0  0  0  0
   43.8140   11.7666  -17.3621 F   0  0  0  0  0  0  0  0  0  0  0  0
   42.6666   12.9901  -15.7163 C   0  0  0  0  0  0  0  0  0  0  0  0
   42.6758   13.8176  -14.6605 N   0  0  0  0  0  0  0  0  0  0  0  0
   41.3463   12.5605  -16.1784 C   0  0  0  0  0  0  0  0  0  0  0  0
   40.2722   12.7866  -15.3581 C   0  0  0  0  0  0  0  0  0  0  0  0
   38.9712   12.4111  -15.7085 C   0  0  0  0  0  0  0  0  0  0  0  0
   38.8247   11.7960  -16.9343 C   0  0  0  0  0  0  0  0  0  0  0  0
   37.4513   11.5059  -17.0843 N   0  0  0  0  0  0  0  0  0  0  0  0
   36.7621   11.8855  -16.0720 C   0  0  0  0  0  0  0  0  0  0  0  0
   35.2986   11.7396  -15.8935 C   0  0  0  0  0  0  0  0  0  0  0  0
   37.6484   12.5176  -15.0539 C   0  0  0  0  0  0  0  0  0  0  0  0
   37.5662   11.7340  -13.7682 C   0  0  0  0  0  0  0  0  0  0  0  0
   36.6141   12.4928  -12.8760 C   0  0  0  0  0  0  0  0  0  0  0  0
   36.4972   13.8782  -13.4220 C   0  0  0  0  0  0  0  0  0  0  0  0
   37.2509   13.9210  -14.7300 C   0  0  0  0  0  0  0  0  0  0  0  0
   39.8999   11.5664  -17.7625 C   0  0  0  0  0  0  0  0  0  0  0  0
   39.7262   10.9515  -18.9789 F   0  0  0  0  0  0  0  0  0  0  0  0
   41.1619   11.9467  -17.3890 C   0  0  0  0  0  0  0  0  0  0  0  0
   43.8140   15.1468  -13.0418 N   0  0  0  0  0  0  0  0  0  0  0  0
   43.8813   16.1769  -13.2110 H   0  0  0  0  0  0  0  0  0  0  0  0
   43.5001   13.6038   -9.1014 C   0  0  0  0  0  0  0  0  0  0  0  0
   43.1635   14.9095   -9.3961 C   0  0  0  0  0  0  0  0  0  0  0  0
   43.2624   15.4191  -10.6732 C   0  0  0  0  0  0  0  0  0  0  0  0
   43.7141   14.6179  -11.7301 C   0  0  0  0  0  0  0  0  0  0  0  0
   44.0311   13.3579  -11.4066 N   0  0  0  0  0  0  0  0  0  0  0  0
   43.9435   12.8377  -10.1698 C   0  0  0  0  0  0  0  0  0  0  0  0
   44.0032   11.9504   -3.8537 C   0  0  0  0  0  0  0  0  0  0  0  0
   43.7189   12.2553   -5.2445 N   0  0  0  0  0  0  0  0  0  0  0  0
   44.9716   12.2502   -5.9748 C   0  0  0  0  0  0  0  0  0  0  0  0
   44.6355   12.2489   -7.4499 C   0  0  0  0  0  0  0  0  0  0  0  0
   43.3923   13.0602   -7.7269 C   0  0  0  0  0  0  0  0  0  0  0  0
   43.1870   14.1529   -6.7078 C   0  0  0  0  0  0  0  0  0  0  0  0
   43.0539   13.5179   -5.3474 C   0  0  0  0  0  0  0  0  0  0  0  0
 31 32  1  0  0  0
 32 33  1  0  0  0
 33 34  1  0  0  0
 34 35  1  0  0  0
 35 36  1  0  0  0
 36 37  1  0  0  0
 35 25  1  0  0  0
 25 26  2  0  0  0
 26 27  1  0  0  0
 27 28  2  0  0  0
 28 23  1  0  0  0
 23  1  1  0  0  0
  1  2  2  0  0  0
  2  3  1  0  0  0
  3  4  2  0  0  0
  4  5  1  0  0  0
  4  6  1  0  0  0
  6  7  2  0  0  0
  6  8  1  0  0  0
  8  9  2  0  0  0
  9 10  1  0  0  0
 10 11  2  0  0  0
 11 12  1  0  0  0
 12 13  2  0  0  0
 13 14  1  0  0  0
 13 15  1  0  0  0
 15 16  1  0  0  0
 16 17  1  0  0  0
 17 18  1  0  0  0
 18 19  1  0  0  0
 11 20  1  0  0  0
 20 21  1  0  0  0
 20 22  2  0  0  0
 28 29  1  0  0  0
 29 30  2  0  0  0
 37 32  1  0  0  0
 30 25  1  0  0  0
  7  1  1  0  0  0
 22  8  1  0  0  0
 15 10  1  0  0  0
 19 15  1  0  0  0
 23 24  1  0  0  0
M  END
> <minimizedAffinity>
-9.92550

> <CNNscore>
0.1155595556

> <CNNaffinity>
6.9296503067

> <CNN_VS>
0.8007873297

> <CNNaffinity_variance>
0.0865513459

$$$$
[H]c1nc(N([H])c2nc([H])c(C3([H])C([H])([H])C([H])([H])N(C([H])([H])[H])C([H])([H])C3([H])[H])c([H])c2[H])nc(-c2c([H])c(F)c3c(c2[H])C2(C(C([H])([H])[H])=N3)C([H])([H])C([H])([H])C([H])([H])C2([H])[H])c1F


 37 42  0  0  0  0  0  0  0  0999 V2000
   43.3688   13.0320  -15.8116 C   0  0  0  0  0  0  0  0  0  0  0  0
   43.0119   12.2884  -16.8640 N   0  0  0  0  0  0  0  0  0  0  0  0
   41.7259   12.0511  -17.1716 C   0  0  0  0  0  0  0  0  0  0  0  0
   40.7467   12.5950  -16.3718 C   0  0  0  0  0  0  0  0  0  0  0  0
   39.4212   12.4001  -16.6228 F   0  0  0  0  0  0  0  0  0  0  0  0
   41.1119   13.3534  -15.2982 C   0  0  0  0  0  0  0  0  0  0  0  0
   42.4116   13.5587  -15.0367 N   0  0  0  0  0  0  0  0  0  0  0  0
   40.1682   13.9866  -14.3764 C   0  0  0  0  0  0  0  0  0  0  0  0
   38.8577   13.5888  -14.4229 C   0  0  0  0  0  0  0  0  0  0  0  0
   37.8799   14.1352  -13.5853 C   0  0  0  0  0  0  0  0  0  0  0  0
   38.3078   15.1042  -12.7019 C   0  0  0  0  0  0  0  0  0  0  0  0
   37.1759   15.5128  -11.9638 N   0  0  0  0  0  0  0  0  0  0  0  0
   36.1146   14.8859  -12.3169 C   0  0  0  0  0  0  0  0  0  0  0  0
   34.7550   15.0625  -11.7554 C   0  0  0  0  0  0  0  0  0  0  0  0
   36.4274   13.9175  -13.4059 C   0  0  0  0  0  0  0  0  0  0  0  0
   35.6258   14.2732  -14.6326 C   0  0  0  0  0  0  0  0  0  0  0  0
   34.4398   13.3395  -14.6425 C   0  0  0  0  0  0  0  0  0  0  0  0
   34.7610   12.1983  -13.7340 C   0  0  0  0  0  0  0  0  0  0  0  0
   36.0713   12.5105  -13.0508 C   0  0  0  0  0  0  0  0  0  0  0  0
   39.6229   15.5077  -12.6506 C   0  0  0  0  0  0  0  0  0  0  0  0
   40.0227   16.4753  -11.7609 F   0  0  0  0  0  0  0  0  0  0  0  0
   40.5561   14.9520  -13.4855 C   0  0  0  0  0  0  0  0  0  0  0  0
   44.7261   13.2581  -15.5217 N   0  0  0  0  0  0  0  0  0  0  0  0
   45.3222   13.7234  -16.2444 H   0  0  0  0  0  0  0  0  0  0  0  0
   46.2871   12.0795  -11.7560 C   0  0  0  0  0  0  0  0  0  0  0  0
   45.1485   12.8529  -11.8572 C   0  0  0  0  0  0  0  0  0  0  0  0
   44.6345   13.2404  -13.0763 C   0  0  0  0  0  0  0  0  0  0  0  0
   45.2588   12.8570  -14.2705 C   0  0  0  0  0  0  0  0  0  0  0  0
   46.3598   12.1076  -14.1330 N   0  0  0  0  0  0  0  0  0  0  0  0
   46.8807   11.7170  -12.9565 C   0  0  0  0  0  0  0  0  0  0  0  0
   48.6928   11.4537   -6.8218 C   0  0  0  0  0  0  0  0  0  0  0  0
   48.0502   11.4183   -8.1233 N   0  0  0  0  0  0  0  0  0  0  0  0
   48.7730   12.3094   -9.0100 C   0  0  0  0  0  0  0  0  0  0  0  0
   48.3028   12.0246  -10.4195 C   0  0  0  0  0  0  0  0  0  0  0  0
   46.8362   11.6652  -10.4432 C   0  0  0  0  0  0  0  0  0  0  0  0
   46.0787   12.2892   -9.2980 C   0  0  0  0  0  0  0  0  0  0  0  0
   46.6746   11.7938   -8.0054 C   0  0  0  0  0  0  0  0  0  0  0  0
 31 32  1  0  0  0
 32 33  1  0  0  0
 33 34  1  0  0  0
 34 35  1  0  0  0
 35 36  1  0  0  0
 36 37  1  0  0  0
 35 25  1  0  0  0
 25 26  2  0  0  0
 26 27  1  0  0  0
 27 28  2  0  0  0
 28 23  1  0  0  0
 23  1  1  0  0  0
  1  2  2  0  0  0
  2  3  1  0  0  0
  3  4  2  0  0  0
  4  5  1  0  0  0
  4  6  1  0  0  0
  6  7  2  0  0  0
  6  8  1  0  0  0
  8  9  2  0  0  0
  9 10  1  0  0  0
 10 11  2  0  0  0
 11 12  1  0  0  0
 12 13  2  0  0  0
 13 14  1  0  0  0
 13 15  1  0  0  0
 15 16  1  0  0  0
 16 17  1  0  0  0
 17 18  1  0  0  0
 18 19  1  0  0  0
 11 20  1  0  0  0
 20 21  1  0  0  0
 20 22  2  0  0  0
 28 29  1  0  0  0
 29 30  2  0  0  0
 37 32  1  0  0  0
 30 25  1  0  0  0
  7  1  1  0  0  0
 22  8  1  0  0  0
 15 10  1  0  0  0
 19 15  1  0  0  0
 23 24  1  0  0  0
M  END
> <minimizedAffinity>
-8.97819

> <CNNscore>
0.1153263450

> <CNNaffinity>
6.9959716797

> <CNN_VS>
0.8068198562

> <CNNaffinity_variance>
0.0601048172

$$$$
[H]OC1(C#Cc2c([H])c3c(c([H])c2F)C2([H])C([H])([H])C([H])(n4c-3nc(C(=O)N([H])[H])c4[C@@]([H])(O[H])c3c(OC([H])([H])[H])nc([H])c(F)c3[H])C2([H])[H])C([H])([H])C([H])([H])C([H])([H])C1([H])[H]


 42 47  0  0  0  0  0  0  0  0999 V2000
   36.3081   16.4016   -7.3340 C   0  0  0  0  0  0  0  0  0  0  0  0
   36.1880   15.4964   -6.3053 C   0  0  0  0  0  0  0  0  0  0  0  0
   37.3651   14.7581   -6.3175 N   0  0  0  0  0  0  0  0  0  0  0  0
   38.1474   15.1981   -7.3019 C   0  0  0  0  0  0  0  0  0  0  0  0
   39.4943   14.6562   -7.6119 C   0  0  0  0  0  0  0  0  0  0  0  0
   39.8828   13.6458   -6.7572 C   0  0  0  0  0  0  0  0  0  0  0  0
   41.1104   13.0330   -6.8980 C   0  0  0  0  0  0  0  0  0  0  0  0
   41.9112   13.4975   -7.9417 C   0  0  0  0  0  0  0  0  0  0  0  0
   43.1241   12.8832   -8.0709 F   0  0  0  0  0  0  0  0  0  0  0  0
   41.5230   14.5071   -8.7960 C   0  0  0  0  0  0  0  0  0  0  0  0
   40.3165   15.0916   -8.6383 C   0  0  0  0  0  0  0  0  0  0  0  0
   39.9826   16.1825   -9.6308 C   0  0  0  0  0  0  0  0  0  0  0  0
   38.5525   15.9614  -10.1387 C   0  0  0  0  0  0  0  0  0  0  0  0
   37.9952   16.9330   -9.0711 C   0  0  0  0  0  0  0  0  0  0  0  0
   39.4398   17.3756   -8.8799 C   0  0  0  0  0  0  0  0  0  0  0  0
   37.5043   16.2059   -7.9312 N   0  0  0  0  0  0  0  0  0  0  0  0
   35.1906   15.1840   -5.3237 C   0  0  0  0  0  0  0  0  0  0  0  0
   34.1925   14.1993   -5.4252 N   0  0  0  0  0  0  0  0  0  0  0  0
   35.1842   15.8555   -4.2349 O   0  0  0  0  0  0  0  0  0  0  0  0
   34.2537   13.2763   -4.9004 H   0  0  0  0  0  0  0  0  0  0  0  0
   33.3178   14.2961   -6.0159 H   0  0  0  0  0  0  0  0  0  0  0  0
   35.3610   17.4119   -7.7639 C   0  0  0  0  0  0  0  0  0  0  0  0
   34.1804   16.9997   -8.3313 O   0  0  0  0  0  0  0  0  0  0  0  0
   33.3890   17.5459   -8.0747 H   0  0  0  0  0  0  0  0  0  0  0  0
   35.9531   19.5644   -6.5535 C   0  0  0  0  0  0  0  0  0  0  0  0
   35.6501   20.5285   -5.6500 N   0  0  0  0  0  0  0  0  0  0  0  0
   34.5009   20.5682   -4.9717 C   0  0  0  0  0  0  0  0  0  0  0  0
   33.5756   19.5757   -5.2040 C   0  0  0  0  0  0  0  0  0  0  0  0
   32.4139   19.6251   -4.5114 F   0  0  0  0  0  0  0  0  0  0  0  0
   33.8773   18.6014   -6.1141 C   0  0  0  0  0  0  0  0  0  0  0  0
   35.0818   18.5397   -6.8402 C   0  0  0  0  0  0  0  0  0  0  0  0
   37.4484   20.5788   -8.1984 C   0  0  0  0  0  0  0  0  0  0  0  0
   37.1670   19.6412   -7.1832 O   0  0  0  0  0  0  0  0  0  0  0  0
   41.5492   11.9756   -6.0257 C   0  0  0  0  0  0  0  0  0  0  0  0
   41.9397   11.0899   -5.2928 C   0  0  0  0  0  0  0  0  0  0  0  0
   42.4385   10.0180   -4.4107 C   0  0  0  0  0  0  0  0  0  0  0  0
   41.3817    9.2834   -3.8773 O   0  0  0  0  0  0  0  0  0  0  0  0
   43.3941    9.0975   -5.1357 C   0  0  0  0  0  0  0  0  0  0  0  0
   44.6445    9.9260   -5.2395 C   0  0  0  0  0  0  0  0  0  0  0  0
   44.6542   10.8102   -4.0138 C   0  0  0  0  0  0  0  0  0  0  0  0
   43.2954   10.6502   -3.3661 C   0  0  0  0  0  0  0  0  0  0  0  0
   40.5861    9.2873   -4.4586 H   0  0  0  0  0  0  0  0  0  0  0  0
 32 33  1  0  0  0
 33 25  1  0  0  0
 25 26  2  0  0  0
 26 27  1  0  0  0
 27 28  2  0  0  0
 28 29  1  0  0  0
 28 30  1  0  0  0
 30 31  2  0  0  0
 31 22  1  0  0  0
 22 23  1  0  0  0
 22  1  1  0  0  0
  1  2  2  0  0  0
  2  3  1  0  0  0
  3  4  2  0  0  0
  4  5  1  0  0  0
  5  6  2  0  0  0
  6  7  1  0  0  0
  7 34  1  0  0  0
 34 35  3  0  0  0
 35 36  1  0  0  0
 36 37  1  0  0  0
 36 38  1  0  0  0
 38 39  1  0  0  0
 39 40  1  0  0  0
 40 41  1  0  0  0
  7  8  2  0  0  0
  8  9  1  0  0  0
  8 10  1  0  0  0
 10 11  2  0  0  0
 11 12  1  0  0  0
 12 13  1  0  0  0
 13 14  1  0  0  0
 14 15  1  0  0  0
 14 16  1  0  0  0
  2 17  1  0  0  0
 17 18  1  0  0  0
 17 19  2  0  0  0
 31 25  1  0  0  0
 16  1  1  0  0  0
 16  4  1  0  0  0
 11  5  1  0  0  0
 15 12  1  0  0  0
 41 36  1  0  0  0
 23 24  1  0  0  0
 37 42  1  0  0  0
 18 20  1  0  0  0
 18 21  1  0  0  0
M  END
> <minimizedAffinity>
-6.70008

> <CNNscore>
0.1638281494

> <CNNaffinity>
6.0076246262

> <CNN_VS>
0.9842180014

> <CNNaffinity_variance>
0.0976012200

$$$$
[H]OC1(C#Cc2c([H])c3c(c([H])c2F)C2([H])C([H])([H])C([H])(n4c-3nc(C(=O)N([H])[H])c4[C@@]([H])(O[H])c3c(OC([H])([H])[H])nc([H])c(F)c3[H])C2([H])[H])C([H])([H])C([H])([H])C([H])([H])C1([H])[H]


 42 47  0  0  0  0  0  0  0  0999 V2000
   38.8498   16.9592   -8.6283 C   0  0  0  0  0  0  0  0  0  0  0  0
   39.3862   16.3154   -9.7191 C   0  0  0  0  0  0  0  0  0  0  0  0
   40.4689   15.5932   -9.2320 N   0  0  0  0  0  0  0  0  0  0  0  0
   40.5747   15.7953   -7.9195 C   0  0  0  0  0  0  0  0  0  0  0  0
   41.6086   15.1746   -7.0537 C   0  0  0  0  0  0  0  0  0  0  0  0
   42.4588   14.3335   -7.7410 C   0  0  0  0  0  0  0  0  0  0  0  0
   43.4755   13.6680   -7.0887 C   0  0  0  0  0  0  0  0  0  0  0  0
   43.5795   13.9011   -5.7171 C   0  0  0  0  0  0  0  0  0  0  0  0
   44.5898   13.2364   -5.0824 F   0  0  0  0  0  0  0  0  0  0  0  0
   42.7302   14.7416   -5.0302 C   0  0  0  0  0  0  0  0  0  0  0  0
   41.7425   15.3822   -5.6906 C   0  0  0  0  0  0  0  0  0  0  0  0
   40.8709   16.2865   -4.8484 C   0  0  0  0  0  0  0  0  0  0  0  0
   40.6932   17.6199   -5.5848 C   0  0  0  0  0  0  0  0  0  0  0  0
   39.3657   17.1282   -6.2093 C   0  0  0  0  0  0  0  0  0  0  0  0
   39.4222   16.0109   -5.1759 C   0  0  0  0  0  0  0  0  0  0  0  0
   39.5851   16.6340   -7.5422 N   0  0  0  0  0  0  0  0  0  0  0  0
   39.0904   16.2495  -11.1205 C   0  0  0  0  0  0  0  0  0  0  0  0
   37.8297   16.0310  -11.7028 N   0  0  0  0  0  0  0  0  0  0  0  0
   40.0538   16.4004  -11.9485 O   0  0  0  0  0  0  0  0  0  0  0  0
   37.2705   16.8167  -12.1514 H   0  0  0  0  0  0  0  0  0  0  0  0
   37.3477   15.0879  -11.7441 H   0  0  0  0  0  0  0  0  0  0  0  0
   37.7050   17.8475   -8.5761 C   0  0  0  0  0  0  0  0  0  0  0  0
   37.4552   18.6539   -9.6592 O   0  0  0  0  0  0  0  0  0  0  0  0
   36.4900   18.7634   -9.8755 H   0  0  0  0  0  0  0  0  0  0  0  0
   35.3839   18.0363   -7.5632 C   0  0  0  0  0  0  0  0  0  0  0  0
   34.2618   17.4534   -7.0745 N   0  0  0  0  0  0  0  0  0  0  0  0
   34.0655   16.1330   -7.0550 C   0  0  0  0  0  0  0  0  0  0  0  0
   35.0574   15.3219   -7.5586 C   0  0  0  0  0  0  0  0  0  0  0  0
   34.8487   13.9850   -7.5343 F   0  0  0  0  0  0  0  0  0  0  0  0
   36.1907   15.9056   -8.0521 C   0  0  0  0  0  0  0  0  0  0  0  0
   36.4190   17.2944   -8.0826 C   0  0  0  0  0  0  0  0  0  0  0  0
   34.5774   20.2012   -6.7676 C   0  0  0  0  0  0  0  0  0  0  0  0
   35.4585   19.4034   -7.5265 O   0  0  0  0  0  0  0  0  0  0  0  0
   44.3815   12.7833   -7.7728 C   0  0  0  0  0  0  0  0  0  0  0  0
   45.1584   12.0368   -8.3325 C   0  0  0  0  0  0  0  0  0  0  0  0
   46.1198   11.1343   -8.9937 C   0  0  0  0  0  0  0  0  0  0  0  0
   45.4557   10.1755   -9.7558 O   0  0  0  0  0  0  0  0  0  0  0  0
   47.0972   11.8969   -9.8593 C   0  0  0  0  0  0  0  0  0  0  0  0
   48.0151   12.5304   -8.8510 C   0  0  0  0  0  0  0  0  0  0  0  0
   48.0644   11.5734   -7.6822 C   0  0  0  0  0  0  0  0  0  0  0  0
   46.9877   10.5402   -7.9359 C   0  0  0  0  0  0  0  0  0  0  0  0
   44.5779   10.4878  -10.0764 H   0  0  0  0  0  0  0  0  0  0  0  0
 32 33  1  0  0  0
 33 25  1  0  0  0
 25 26  2  0  0  0
 26 27  1  0  0  0
 27 28  2  0  0  0
 28 29  1  0  0  0
 28 30  1  0  0  0
 30 31  2  0  0  0
 31 22  1  0  0  0
 22 23  1  0  0  0
 22  1  1  0  0  0
  1  2  2  0  0  0
  2  3  1  0  0  0
  3  4  2  0  0  0
  4  5  1  0  0  0
  5  6  2  0  0  0
  6  7  1  0  0  0
  7 34  1  0  0  0
 34 35  3  0  0  0
 35 36  1  0  0  0
 36 37  1  0  0  0
 36 38  1  0  0  0
 38 39  1  0  0  0
 39 40  1  0  0  0
 40 41  1  0  0  0
  7  8  2  0  0  0
  8  9  1  0  0  0
  8 10  1  0  0  0
 10 11  2  0  0  0
 11 12  1  0  0  0
 12 13  1  0  0  0
 13 14  1  0  0  0
 14 15  1  0  0  0
 14 16  1  0  0  0
  2 17  1  0  0  0
 17 18  1  0  0  0
 17 19  2  0  0  0
 31 25  1  0  0  0
 16  1  1  0  0  0
 16  4  1  0  0  0
 11  5  1  0  0  0
 15 12  1  0  0  0
 41 36  1  0  0  0
 23 24  1  0  0  0
 37 42  1  0  0  0
 18 20  1  0  0  0
 18 21  1  0  0  0
M  END
> <minimizedAffinity>
-6.41723

> <CNNscore>
0.1586586684

> <CNNaffinity>
5.8937702179

> <CNN_VS>
0.9350977540

> <CNNaffinity_variance>
0.2381261885

$$$$
[H]OC1(C#Cc2c([H])c3c(c([H])c2F)C2([H])C([H])([H])C([H])(n4c-3nc(C(=O)N([H])[H])c4[C@@]([H])(O[H])c3c(OC([H])([H])[H])nc([H])c(F)c3[H])C2([H])[H])C([H])([H])C([H])([H])C([H])([H])C1([H])[H]


 42 47  0  0  0  0  0  0  0  0999 V2000
   37.8903   15.6078   -8.5618 C   0  0  0  0  0  0  0  0  0  0  0  0
   38.2380   16.5489   -9.5029 C   0  0  0  0  0  0  0  0  0  0  0  0
   39.6262   16.5266   -9.5587 N   0  0  0  0  0  0  0  0  0  0  0  0
   40.0844   15.6208   -8.6960 C   0  0  0  0  0  0  0  0  0  0  0  0
   41.5207   15.3080   -8.4886 C   0  0  0  0  0  0  0  0  0  0  0  0
   42.3590   16.0413   -9.3022 C   0  0  0  0  0  0  0  0  0  0  0  0
   43.7267   15.8720   -9.2449 C   0  0  0  0  0  0  0  0  0  0  0  0
   44.1896   14.9288   -8.3272 C   0  0  0  0  0  0  0  0  0  0  0  0
   45.5453   14.7701   -8.2798 F   0  0  0  0  0  0  0  0  0  0  0  0
   43.3520   14.1961   -7.5140 C   0  0  0  0  0  0  0  0  0  0  0  0
   42.0167   14.3795   -7.5881 C   0  0  0  0  0  0  0  0  0  0  0  0
   41.1863   13.5333   -6.6494 C   0  0  0  0  0  0  0  0  0  0  0  0
   40.1370   14.4298   -5.9807 C   0  0  0  0  0  0  0  0  0  0  0  0
   39.0892   14.0479   -7.0533 C   0  0  0  0  0  0  0  0  0  0  0  0
   40.0440   12.9215   -7.4257 C   0  0  0  0  0  0  0  0  0  0  0  0
   39.0245   15.0540   -8.0793 N   0  0  0  0  0  0  0  0  0  0  0  0
   37.5303   17.4642  -10.3498 C   0  0  0  0  0  0  0  0  0  0  0  0
   36.4483   17.1610  -11.1943 N   0  0  0  0  0  0  0  0  0  0  0  0
   37.9014   18.6884  -10.3586 O   0  0  0  0  0  0  0  0  0  0  0  0
   35.4480   17.4261  -10.9486 H   0  0  0  0  0  0  0  0  0  0  0  0
   36.5397   16.6589  -12.1233 H   0  0  0  0  0  0  0  0  0  0  0  0
   36.5657   15.2268   -8.1114 C   0  0  0  0  0  0  0  0  0  0  0  0
   35.9921   14.1017   -8.6507 O   0  0  0  0  0  0  0  0  0  0  0  0
   35.4703   13.5559   -8.0024 H   0  0  0  0  0  0  0  0  0  0  0  0
   36.3406   16.3720   -5.8560 C   0  0  0  0  0  0  0  0  0  0  0  0
   36.1409   16.3057   -4.5169 N   0  0  0  0  0  0  0  0  0  0  0  0
   35.8862   15.1689   -3.8648 C   0  0  0  0  0  0  0  0  0  0  0  0
   35.8236   14.0027   -4.5938 C   0  0  0  0  0  0  0  0  0  0  0  0
   35.5647   12.8558   -3.9234 F   0  0  0  0  0  0  0  0  0  0  0  0
   36.0247   14.0650   -5.9444 C   0  0  0  0  0  0  0  0  0  0  0  0
   36.2946   15.2516   -6.6523 C   0  0  0  0  0  0  0  0  0  0  0  0
   36.4447   18.8070   -5.6826 C   0  0  0  0  0  0  0  0  0  0  0  0
   36.5912   17.6029   -6.4019 O   0  0  0  0  0  0  0  0  0  0  0  0
   44.6318   16.6193  -10.0778 C   0  0  0  0  0  0  0  0  0  0  0  0
   45.3800   17.2515  -10.7953 C   0  0  0  0  0  0  0  0  0  0  0  0
   46.2722   18.0167  -11.6866 C   0  0  0  0  0  0  0  0  0  0  0  0
   47.1938   18.7566  -10.9490 O   0  0  0  0  0  0  0  0  0  0  0  0
   46.9948   17.1149  -12.6617 C   0  0  0  0  0  0  0  0  0  0  0  0
   45.9183   16.7558  -13.6479 C   0  0  0  0  0  0  0  0  0  0  0  0
   44.9949   17.9511  -13.7013 C   0  0  0  0  0  0  0  0  0  0  0  0
   45.4173   18.8626  -12.5690 C   0  0  0  0  0  0  0  0  0  0  0  0
   47.3928   18.3497  -10.0739 H   0  0  0  0  0  0  0  0  0  0  0  0
 32 33  1  0  0  0
 33 25  1  0  0  0
 25 26  2  0  0  0
 26 27  1  0  0  0
 27 28  2  0  0  0
 28 29  1  0  0  0
 28 30  1  0  0  0
 30 31  2  0  0  0
 31 22  1  0  0  0
 22 23  1  0  0  0
 22  1  1  0  0  0
  1  2  2  0  0  0
  2  3  1  0  0  0
  3  4  2  0  0  0
  4  5  1  0  0  0
  5  6  2  0  0  0
  6  7  1  0  0  0
  7 34  1  0  0  0
 34 35  3  0  0  0
 35 36  1  0  0  0
 36 37  1  0  0  0
 36 38  1  0  0  0
 38 39  1  0  0  0
 39 40  1  0  0  0
 40 41  1  0  0  0
  7  8  2  0  0  0
  8  9  1  0  0  0
  8 10  1  0  0  0
 10 11  2  0  0  0
 11 12  1  0  0  0
 12 13  1  0  0  0
 13 14  1  0  0  0
 14 15  1  0  0  0
 14 16  1  0  0  0
  2 17  1  0  0  0
 17 18  1  0  0  0
 17 19  2  0  0  0
 31 25  1  0  0  0
 16  1  1  0  0  0
 16  4  1  0  0  0
 11  5  1  0  0  0
 15 12  1  0  0  0
 41 36  1  0  0  0
 23 24  1  0  0  0
 37 42  1  0  0  0
 18 20  1  0  0  0
 18 21  1  0  0  0
M  END
> <minimizedAffinity>
-7.10997

> <CNNscore>
0.1461701840

> <CNNaffinity>
5.6562128067

> <CNN_VS>
0.8267696500

> <CNNaffinity_variance>
0.2299497575

$$$$
[H]OC1(C#Cc2c([H])c3c(c([H])c2F)C2([H])C([H])([H])C([H])(n4c-3nc(C(=O)N([H])[H])c4[C@@]([H])(O[H])c3c(OC([H])([H])[H])nc([H])c(F)c3[H])C2([H])[H])C([H])([H])C([H])([H])C([H])([H])C1([H])[H]


 42 47  0  0  0  0  0  0  0  0999 V2000
   36.3459   16.6981   -8.1101 C   0  0  0  0  0  0  0  0  0  0  0  0
   36.5964   16.3595   -9.4196 C   0  0  0  0  0  0  0  0  0  0  0  0
   37.9747   16.2068   -9.5092 N   0  0  0  0  0  0  0  0  0  0  0  0
   38.5195   16.4424   -8.3166 C   0  0  0  0  0  0  0  0  0  0  0  0
   39.9727   16.3605   -8.0248 C   0  0  0  0  0  0  0  0  0  0  0  0
   40.7261   15.9900   -9.1192 C   0  0  0  0  0  0  0  0  0  0  0  0
   42.0958   15.8590   -9.0236 C   0  0  0  0  0  0  0  0  0  0  0  0
   42.6506   16.1218   -7.7709 C   0  0  0  0  0  0  0  0  0  0  0  0
   44.0074   15.9886   -7.6888 F   0  0  0  0  0  0  0  0  0  0  0  0
   41.8980   16.4922   -6.6772 C   0  0  0  0  0  0  0  0  0  0  0  0
   40.5588   16.6139   -6.7955 C   0  0  0  0  0  0  0  0  0  0  0  0
   39.8259   17.0321   -5.5406 C   0  0  0  0  0  0  0  0  0  0  0  0
   38.8263   18.1374   -5.9027 C   0  0  0  0  0  0  0  0  0  0  0  0
   37.6943   17.0956   -6.0681 C   0  0  0  0  0  0  0  0  0  0  0  0
   38.6290   16.1302   -5.3514 C   0  0  0  0  0  0  0  0  0  0  0  0
   37.5257   16.7461   -7.4532 N   0  0  0  0  0  0  0  0  0  0  0  0
   35.8044   16.1592  -10.5979 C   0  0  0  0  0  0  0  0  0  0  0  0
   34.6748   15.3313  -10.7192 N   0  0  0  0  0  0  0  0  0  0  0  0
   36.1380   16.7845  -11.6629 O   0  0  0  0  0  0  0  0  0  0  0  0
   33.6870   15.7242  -10.7521 H   0  0  0  0  0  0  0  0  0  0  0  0
   34.7153   14.2745  -10.7894 H   0  0  0  0  0  0  0  0  0  0  0  0
   35.0714   16.9740   -7.4761 C   0  0  0  0  0  0  0  0  0  0  0  0
   33.9833   17.2174   -8.2777 O   0  0  0  0  0  0  0  0  0  0  0  0
   33.1311   16.8276   -7.9426 H   0  0  0  0  0  0  0  0  0  0  0  0
   33.8064   16.4734   -5.3317 C   0  0  0  0  0  0  0  0  0  0  0  0
   33.5183   15.6399   -4.3022 N   0  0  0  0  0  0  0  0  0  0  0  0
   34.0203   14.4082   -4.1882 C   0  0  0  0  0  0  0  0  0  0  0  0
   34.8765   13.9628   -5.1700 C   0  0  0  0  0  0  0  0  0  0  0  0
   35.3798   12.7128   -5.0451 F   0  0  0  0  0  0  0  0  0  0  0  0
   35.1700   14.8003   -6.2098 C   0  0  0  0  0  0  0  0  0  0  0  0
   34.6527   16.1020   -6.3502 C   0  0  0  0  0  0  0  0  0  0  0  0
   31.9062   17.9407   -4.8771 C   0  0  0  0  0  0  0  0  0  0  0  0
   33.2220   17.7121   -5.3304 O   0  0  0  0  0  0  0  0  0  0  0  0
   42.9138   15.4748  -10.1437 C   0  0  0  0  0  0  0  0  0  0  0  0
   43.5873   15.1403  -11.0970 C   0  0  0  0  0  0  0  0  0  0  0  0
   44.3868   14.7168  -12.2621 C   0  0  0  0  0  0  0  0  0  0  0  0
   44.1935   15.5823  -13.3366 O   0  0  0  0  0  0  0  0  0  0  0  0
   45.8586   14.6288  -11.9272 C   0  0  0  0  0  0  0  0  0  0  0  0
   45.9417   13.3712  -11.1074 C   0  0  0  0  0  0  0  0  0  0  0  0
   44.8580   12.4619  -11.6394 C   0  0  0  0  0  0  0  0  0  0  0  0
   44.0205   13.3054  -12.5765 C   0  0  0  0  0  0  0  0  0  0  0  0
   43.9501   16.4932  -13.0503 H   0  0  0  0  0  0  0  0  0  0  0  0
 32 33  1  0  0  0
 33 25  1  0  0  0
 25 26  2  0  0  0
 26 27  1  0  0  0
 27 28  2  0  0  0
 28 29  1  0  0  0
 28 30  1  0  0  0
 30 31  2  0  0  0
 31 22  1  0  0  0
 22 23  1  0  0  0
 22  1  1  0  0  0
  1  2  2  0  0  0
  2  3  1  0  0  0
  3  4  2  0  0  0
  4  5  1  0  0  0
  5  6  2  0  0  0
  6  7  1  0  0  0
  7 34  1  0  0  0
 34 35  3  0  0  0
 35 36  1  0  0  0
 36 37  1  0  0  0
 36 38  1  0  0  0
 38 39  1  0  0  0
 39 40  1  0  0  0
 40 41  1  0  0  0
  7  8  2  0  0  0
  8  9  1  0  0  0
  8 10  1  0  0  0
 10 11  2  0  0  0
 11 12  1  0  0  0
 12 13  1  0  0  0
 13 14  1  0  0  0
 14 15  1  0  0  0
 14 16  1  0  0  0
  2 17  1  0  0  0
 17 18  1  0  0  0
 17 19  2  0  0  0
 31 25  1  0  0  0
 16  1  1  0  0  0
 16  4  1  0  0  0
 11  5  1  0  0  0
 15 12  1  0  0  0
 41 36  1  0  0  0
 23 24  1  0  0  0
 37 42  1  0  0  0
 18 20  1  0  0  0
 18 21  1  0  0  0
M  END
> <minimizedAffinity>
-6.64495

> <CNNscore>
0.1424442828

> <CNNaffinity>
5.9717311859

> <CNN_VS>
0.8506389856

> <CNNaffinity_variance>
0.1843527555

$$$$
[H]OC1(C#Cc2c([H])c3c(c([H])c2F)C2([H])C([H])([H])C([H])(n4c-3nc(C(=O)N([H])[H])c4[C@@]([H])(O[H])c3c(OC([H])([H])[H])nc([H])c(F)c3[H])C2([H])[H])C([H])([H])C([H])([H])C([H])([H])C1([H])[H]


 42 47  0  0  0  0  0  0  0  0999 V2000
   35.6404   15.3899   -8.5034 C   0  0  0  0  0  0  0  0  0  0  0  0
   36.4002   15.4569   -9.6481 C   0  0  0  0  0  0  0  0  0  0  0  0
   37.6776   15.0592   -9.2727 N   0  0  0  0  0  0  0  0  0  0  0  0
   37.6816   14.7706   -7.9722 C   0  0  0  0  0  0  0  0  0  0  0  0
   38.8703   14.2971   -7.2195 C   0  0  0  0  0  0  0  0  0  0  0  0
   39.9931   14.1593   -8.0086 C   0  0  0  0  0  0  0  0  0  0  0  0
   41.1861   13.7225   -7.4715 C   0  0  0  0  0  0  0  0  0  0  0  0
   41.1753   13.4370   -6.1059 C   0  0  0  0  0  0  0  0  0  0  0  0
   42.3621   13.0053   -5.5858 F   0  0  0  0  0  0  0  0  0  0  0  0
   40.0534   13.5748   -5.3172 C   0  0  0  0  0  0  0  0  0  0  0  0
   38.8972   14.0042   -5.8658 C   0  0  0  0  0  0  0  0  0  0  0  0
   37.7279   14.1288   -4.9150 C   0  0  0  0  0  0  0  0  0  0  0  0
   37.0348   15.4738   -5.1649 C   0  0  0  0  0  0  0  0  0  0  0  0
   36.0232   14.8039   -6.1251 C   0  0  0  0  0  0  0  0  0  0  0  0
   36.5158   13.4845   -5.5455 C   0  0  0  0  0  0  0  0  0  0  0  0
   36.4348   14.9728   -7.4930 N   0  0  0  0  0  0  0  0  0  0  0  0
   36.1682   15.8246  -11.0144 C   0  0  0  0  0  0  0  0  0  0  0  0
   36.2481   17.1173  -11.5608 N   0  0  0  0  0  0  0  0  0  0  0  0
   35.8535   14.9019  -11.8427 O   0  0  0  0  0  0  0  0  0  0  0  0
   37.0700   17.4278  -12.1602 H   0  0  0  0  0  0  0  0  0  0  0  0
   35.5119   17.8678  -11.4259 H   0  0  0  0  0  0  0  0  0  0  0  0
   34.2343   15.7003   -8.3327 C   0  0  0  0  0  0  0  0  0  0  0  0
   33.3839   14.6892   -7.9584 O   0  0  0  0  0  0  0  0  0  0  0  0
   32.6758   14.9652   -7.3159 H   0  0  0  0  0  0  0  0  0  0  0  0
   32.6375   17.2142   -7.0649 C   0  0  0  0  0  0  0  0  0  0  0  0
   32.3748   18.3876   -6.4390 N   0  0  0  0  0  0  0  0  0  0  0  0
   33.2825   19.3514   -6.2682 C   0  0  0  0  0  0  0  0  0  0  0  0
   34.5530   19.1400   -6.7547 C   0  0  0  0  0  0  0  0  0  0  0  0
   35.4658   20.1231   -6.5763 F   0  0  0  0  0  0  0  0  0  0  0  0
   34.8221   17.9582   -7.3868 C   0  0  0  0  0  0  0  0  0  0  0  0
   33.8811   16.9287   -7.5781 C   0  0  0  0  0  0  0  0  0  0  0  0
   30.3264   16.5375   -6.6507 C   0  0  0  0  0  0  0  0  0  0  0  0
   31.6166   16.3074   -7.1718 O   0  0  0  0  0  0  0  0  0  0  0  0
   42.3776   13.5671   -8.2637 C   0  0  0  0  0  0  0  0  0  0  0  0
   43.3815   13.4149   -8.9293 C   0  0  0  0  0  0  0  0  0  0  0  0
   44.6026   13.2051   -9.7299 C   0  0  0  0  0  0  0  0  0  0  0  0
   45.5640   12.5144   -8.9954 O   0  0  0  0  0  0  0  0  0  0  0  0
   44.3069   12.4683  -11.0167 C   0  0  0  0  0  0  0  0  0  0  0  0
   43.6425   13.5202  -11.8609 C   0  0  0  0  0  0  0  0  0  0  0  0
   44.2582   14.8345  -11.4391 C   0  0  0  0  0  0  0  0  0  0  0  0
   45.0743   14.5403  -10.1986 C   0  0  0  0  0  0  0  0  0  0  0  0
   45.1682   11.9330   -8.3054 H   0  0  0  0  0  0  0  0  0  0  0  0
 32 33  1  0  0  0
 33 25  1  0  0  0
 25 26  2  0  0  0
 26 27  1  0  0  0
 27 28  2  0  0  0
 28 29  1  0  0  0
 28 30  1  0  0  0
 30 31  2  0  0  0
 31 22  1  0  0  0
 22 23  1  0  0  0
 22  1  1  0  0  0
  1  2  2  0  0  0
  2  3  1  0  0  0
  3  4  2  0  0  0
  4  5  1  0  0  0
  5  6  2  0  0  0
  6  7  1  0  0  0
  7 34  1  0  0  0
 34 35  3  0  0  0
 35 36  1  0  0  0
 36 37  1  0  0  0
 36 38  1  0  0  0
 38 39  1  0  0  0
 39 40  1  0  0  0
 40 41  1  0  0  0
  7  8  2  0  0  0
  8  9  1  0  0  0
  8 10  1  0  0  0
 10 11  2  0  0  0
 11 12  1  0  0  0
 12 13  1  0  0  0
 13 14  1  0  0  0
 14 15  1  0  0  0
 14 16  1  0  0  0
  2 17  1  0  0  0
 17 18  1  0  0  0
 17 19  2  0  0  0
 31 25  1  0  0  0
 16  1  1  0  0  0
 16  4  1  0  0  0
 11  5  1  0  0  0
 15 12  1  0  0  0
 41 36  1  0  0  0
 23 24  1  0  0  0
 37 42  1  0  0  0
 18 20  1  0  0  0
 18 21  1  0  0  0
M  END
> <minimizedAffinity>
-6.86654

> <CNNscore>
0.1167069823

> <CNNaffinity>
6.1207923889

> <CNN_VS>
0.7143391967

> <CNNaffinity_variance>
0.0799290612

$$$$
[H]OC1(C#Cc2c([H])c3c(c([H])c2F)C2([H])C([H])([H])C([H])(n4c-3nc(C(=O)N([H])[H])c4[C@@]([H])(O[H])c3c(OC([H])([H])[H])nc([H])c(F)c3[H])C2([H])[H])C([H])([H])C([H])([H])C([H])([H])C1([H])[H]


 42 47  0  0  0  0  0  0  0  0999 V2000
   38.3774   15.6363   -8.4744 C   0  0  0  0  0  0  0  0  0  0  0  0
   38.4691   16.5575   -9.4919 C   0  0  0  0  0  0  0  0  0  0  0  0
   39.8112   16.5858   -9.8509 N   0  0  0  0  0  0  0  0  0  0  0  0
   40.4864   15.7276   -9.0878 C   0  0  0  0  0  0  0  0  0  0  0  0
   41.9457   15.4765   -9.1934 C   0  0  0  0  0  0  0  0  0  0  0  0
   42.5527   16.2129  -10.1892 C   0  0  0  0  0  0  0  0  0  0  0  0
   43.9059   16.0975  -10.4297 C   0  0  0  0  0  0  0  0  0  0  0  0
   44.5994   15.2039   -9.6131 C   0  0  0  0  0  0  0  0  0  0  0  0
   45.9384   15.0983   -9.8609 F   0  0  0  0  0  0  0  0  0  0  0  0
   43.9931   14.4680   -8.6179 C   0  0  0  0  0  0  0  0  0  0  0  0
   42.6671   14.5983   -8.4013 C   0  0  0  0  0  0  0  0  0  0  0  0
   42.1002   13.7536   -7.2824 C   0  0  0  0  0  0  0  0  0  0  0  0
   41.1838   14.6319   -6.4219 C   0  0  0  0  0  0  0  0  0  0  0  0
   39.9448   14.1747   -7.2282 C   0  0  0  0  0  0  0  0  0  0  0  0
   40.8441   13.0731   -7.7734 C   0  0  0  0  0  0  0  0  0  0  0  0
   39.6130   15.1423   -8.2395 N   0  0  0  0  0  0  0  0  0  0  0  0
   37.5537   17.4163  -10.1849 C   0  0  0  0  0  0  0  0  0  0  0  0
   36.2784   17.0709  -10.6650 N   0  0  0  0  0  0  0  0  0  0  0  0
   37.9085   18.6258  -10.4036 O   0  0  0  0  0  0  0  0  0  0  0  0
   35.3869   17.3808  -10.1747 H   0  0  0  0  0  0  0  0  0  0  0  0
   36.1062   16.4907  -11.5351 H   0  0  0  0  0  0  0  0  0  0  0  0
   37.2015   15.2210   -7.7347 C   0  0  0  0  0  0  0  0  0  0  0  0
   36.9827   13.8768   -7.5590 O   0  0  0  0  0  0  0  0  0  0  0  0
   36.6176   13.6337   -6.6656 H   0  0  0  0  0  0  0  0  0  0  0  0
   35.7370   15.7803   -5.7369 C   0  0  0  0  0  0  0  0  0  0  0  0
   35.5005   16.5075   -4.6175 N   0  0  0  0  0  0  0  0  0  0  0  0
   36.3533   17.4131   -4.1328 C   0  0  0  0  0  0  0  0  0  0  0  0
   37.5356   17.6177   -4.8078 C   0  0  0  0  0  0  0  0  0  0  0  0
   38.3933   18.5377   -4.3082 F   0  0  0  0  0  0  0  0  0  0  0  0
   37.7779   16.8867   -5.9372 C   0  0  0  0  0  0  0  0  0  0  0  0
   36.8938   15.9274   -6.4661 C   0  0  0  0  0  0  0  0  0  0  0  0
   34.1262   14.0160   -5.2241 C   0  0  0  0  0  0  0  0  0  0  0  0
   34.7797   14.8814   -6.1258 O   0  0  0  0  0  0  0  0  0  0  0  0
   44.5732   16.8498  -11.4594 C   0  0  0  0  0  0  0  0  0  0  0  0
   45.1410   17.4662  -12.3379 C   0  0  0  0  0  0  0  0  0  0  0  0
   45.8412   18.1927  -13.4139 C   0  0  0  0  0  0  0  0  0  0  0  0
   45.0232   19.1799  -13.9590 O   0  0  0  0  0  0  0  0  0  0  0  0
   47.1345   18.8046  -12.9247 C   0  0  0  0  0  0  0  0  0  0  0  0
   48.0450   17.6142  -12.8050 C   0  0  0  0  0  0  0  0  0  0  0  0
   47.5990   16.6466  -13.8771 C   0  0  0  0  0  0  0  0  0  0  0  0
   46.2945   17.1891  -14.4202 C   0  0  0  0  0  0  0  0  0  0  0  0
   44.3561   19.5164  -13.3166 H   0  0  0  0  0  0  0  0  0  0  0  0
 32 33  1  0  0  0
 33 25  1  0  0  0
 25 26  2  0  0  0
 26 27  1  0  0  0
 27 28  2  0  0  0
 28 29  1  0  0  0
 28 30  1  0  0  0
 30 31  2  0  0  0
 31 22  1  0  0  0
 22 23  1  0  0  0
 22  1  1  0  0  0
  1  2  2  0  0  0
  2  3  1  0  0  0
  3  4  2  0  0  0
  4  5  1  0  0  0
  5  6  2  0  0  0
  6  7  1  0  0  0
  7 34  1  0  0  0
 34 35  3  0  0  0
 35 36  1  0  0  0
 36 37  1  0  0  0
 36 38  1  0  0  0
 38 39  1  0  0  0
 39 40  1  0  0  0
 40 41  1  0  0  0
  7  8  2  0  0  0
  8  9  1  0  0  0
  8 10  1  0  0  0
 10 11  2  0  0  0
 11 12  1  0  0  0
 12 13  1  0  0  0
 13 14  1  0  0  0
 14 15  1  0  0  0
 14 16  1  0  0  0
  2 17  1  0  0  0
 17 18  1  0  0  0
 17 19  2  0  0  0
 31 25  1  0  0  0
 16  1  1  0  0  0
 16  4  1  0  0  0
 11  5  1  0  0  0
 15 12  1  0  0  0
 41 36  1  0  0  0
 23 24  1  0  0  0
 37 42  1  0  0  0
 18 20  1  0  0  0
 18 21  1  0  0  0
M  END
> <minimizedAffinity>
-6.83970

> <CNNscore>
0.1166511551

> <CNNaffinity>
5.6589527130

> <CNN_VS>
0.6601233482

> <CNNaffinity_variance>
0.1439368427

$$$$
[H]OC1(C#Cc2c([H])c3c(c([H])c2F)C2([H])C([H])([H])C([H])(n4c-3nc(C(=O)N([H])[H])c4[C@@]([H])(O[H])c3c(OC([H])([H])[H])nc([H])c(F)c3[H])C2([H])[H])C([H])([H])C([H])([H])C([H])([H])C1([H])[H]


 42 47  0  0  0  0  0  0  0  0999 V2000
   36.6578   15.6450  -11.5231 C   0  0  0  0  0  0  0  0  0  0  0  0
   37.9341   16.0814  -11.2534 C   0  0  0  0  0  0  0  0  0  0  0  0
   38.7563   15.4090  -12.1495 N   0  0  0  0  0  0  0  0  0  0  0  0
   38.0110   14.6121  -12.9139 C   0  0  0  0  0  0  0  0  0  0  0  0
   38.5432   13.7469  -13.9964 C   0  0  0  0  0  0  0  0  0  0  0  0
   39.9084   13.8584  -14.1589 C   0  0  0  0  0  0  0  0  0  0  0  0
   40.5677   13.1286  -15.1259 C   0  0  0  0  0  0  0  0  0  0  0  0
   39.7737   12.2901  -15.9086 C   0  0  0  0  0  0  0  0  0  0  0  0
   40.4378   11.5729  -16.8625 F   0  0  0  0  0  0  0  0  0  0  0  0
   38.4095   12.1783  -15.7462 C   0  0  0  0  0  0  0  0  0  0  0  0
   37.7866   12.9028  -14.7927 C   0  0  0  0  0  0  0  0  0  0  0  0
   36.2911   12.7029  -14.6908 C   0  0  0  0  0  0  0  0  0  0  0  0
   35.9197   12.5310  -13.2128 C   0  0  0  0  0  0  0  0  0  0  0  0
   35.6017   14.0402  -13.0901 C   0  0  0  0  0  0  0  0  0  0  0  0
   35.6224   14.0552  -14.6128 C   0  0  0  0  0  0  0  0  0  0  0  0
   36.7220   14.7506  -12.5339 N   0  0  0  0  0  0  0  0  0  0  0  0
   38.5323   16.9932  -10.3226 C   0  0  0  0  0  0  0  0  0  0  0  0
   39.5615   16.7055   -9.4093 N   0  0  0  0  0  0  0  0  0  0  0  0
   38.1040   18.1984  -10.2982 O   0  0  0  0  0  0  0  0  0  0  0  0
   40.5636   17.0245   -9.5682 H   0  0  0  0  0  0  0  0  0  0  0  0
   39.4248   16.1637   -8.5087 H   0  0  0  0  0  0  0  0  0  0  0  0
   35.4170   16.0270  -10.8774 C   0  0  0  0  0  0  0  0  0  0  0  0
   34.2596   15.9909  -11.6156 O   0  0  0  0  0  0  0  0  0  0  0  0
   33.4623   15.6704  -11.1135 H   0  0  0  0  0  0  0  0  0  0  0  0
   33.9858   15.6856   -8.8075 C   0  0  0  0  0  0  0  0  0  0  0  0
   33.8310   15.2043   -7.5498 N   0  0  0  0  0  0  0  0  0  0  0  0
   34.7678   14.5019   -6.9086 C   0  0  0  0  0  0  0  0  0  0  0  0
   35.9541   14.2544   -7.5619 C   0  0  0  0  0  0  0  0  0  0  0  0
   36.8973   13.5413   -6.9034 F   0  0  0  0  0  0  0  0  0  0  0  0
   36.1146   14.7382   -8.8303 C   0  0  0  0  0  0  0  0  0  0  0  0
   35.1411   15.4808   -9.5251 C   0  0  0  0  0  0  0  0  0  0  0  0
   31.6017   15.9694   -9.2616 C   0  0  0  0  0  0  0  0  0  0  0  0
   32.9449   16.3897   -9.3521 O   0  0  0  0  0  0  0  0  0  0  0  0
   41.9904   13.2189  -15.3241 C   0  0  0  0  0  0  0  0  0  0  0  0
   43.1932   13.2975  -15.4702 C   0  0  0  0  0  0  0  0  0  0  0  0
   44.6566   13.4014  -15.6230 C   0  0  0  0  0  0  0  0  0  0  0  0
   45.0303   13.2164  -16.9523 O   0  0  0  0  0  0  0  0  0  0  0  0
   45.1780   14.7282  -15.1189 C   0  0  0  0  0  0  0  0  0  0  0  0
   45.1016   14.5734  -13.6254 C   0  0  0  0  0  0  0  0  0  0  0  0
   45.3289   13.1043  -13.3526 C   0  0  0  0  0  0  0  0  0  0  0  0
   45.2820   12.4122  -14.6980 C   0  0  0  0  0  0  0  0  0  0  0  0
   44.3214   13.4772  -17.5849 H   0  0  0  0  0  0  0  0  0  0  0  0
 32 33  1  0  0  0
 33 25  1  0  0  0
 25 26  2  0  0  0
 26 27  1  0  0  0
 27 28  2  0  0  0
 28 29  1  0  0  0
 28 30  1  0  0  0
 30 31  2  0  0  0
 31 22  1  0  0  0
 22 23  1  0  0  0
 22  1  1  0  0  0
  1  2  2  0  0  0
  2  3  1  0  0  0
  3  4  2  0  0  0
  4  5  1  0  0  0
  5  6  2  0  0  0
  6  7  1  0  0  0
  7 34  1  0  0  0
 34 35  3  0  0  0
 35 36  1  0  0  0
 36 37  1  0  0  0
 36 38  1  0  0  0
 38 39  1  0  0  0
 39 40  1  0  0  0
 40 41  1  0  0  0
  7  8  2  0  0  0
  8  9  1  0  0  0
  8 10  1  0  0  0
 10 11  2  0  0  0
 11 12  1  0  0  0
 12 13  1  0  0  0
 13 14  1  0  0  0
 14 15  1  0  0  0
 14 16  1  0  0  0
  2 17  1  0  0  0
 17 18  1  0  0  0
 17 19  2  0  0  0
 31 25  1  0  0  0
 16  1  1  0  0  0
 16  4  1  0  0  0
 11  5  1  0  0  0
 15 12  1  0  0  0
 41 36  1  0  0  0
 23 24  1  0  0  0
 37 42  1  0  0  0
 18 20  1  0  0  0
 18 21  1  0  0  0
M  END
> <minimizedAffinity>
-9.87221

> <CNNscore>
0.1118693650

> <CNNaffinity>
6.1724171638

> <CNN_VS>
0.6905043721

> <CNNaffinity_variance>
0.6768697500

$$$$
[H]OC1(C#Cc2c([H])c3c(c([H])c2F)C2([H])C([H])([H])C([H])(n4c-3nc(C(=O)N([H])[H])c4[C@@]([H])(O[H])c3c(OC([H])([H])[H])nc([H])c(F)c3[H])C2([H])[H])C([H])([H])C([H])([H])C([H])([H])C1([H])[H]


 42 47  0  0  0  0  0  0  0  0999 V2000
   41.0739   15.7927   -9.2838 C   0  0  0  0  0  0  0  0  0  0  0  0
   39.8909   15.7170   -9.9816 C   0  0  0  0  0  0  0  0  0  0  0  0
   38.9088   15.4784   -9.0279 N   0  0  0  0  0  0  0  0  0  0  0  0
   39.4748   15.4140   -7.8236 C   0  0  0  0  0  0  0  0  0  0  0  0
   38.7343   15.1849   -6.5576 C   0  0  0  0  0  0  0  0  0  0  0  0
   37.3726   15.0618   -6.7397 C   0  0  0  0  0  0  0  0  0  0  0  0
   36.5316   14.8513   -5.6670 C   0  0  0  0  0  0  0  0  0  0  0  0
   37.1425   14.7738   -4.4152 C   0  0  0  0  0  0  0  0  0  0  0  0
   36.2994   14.5654   -3.3610 F   0  0  0  0  0  0  0  0  0  0  0  0
   38.5032   14.8966   -4.2330 C   0  0  0  0  0  0  0  0  0  0  0  0
   39.3061   15.1021   -5.2985 C   0  0  0  0  0  0  0  0  0  0  0  0
   40.7829   15.2154   -4.9934 C   0  0  0  0  0  0  0  0  0  0  0  0
   41.5579   14.3543   -5.9983 C   0  0  0  0  0  0  0  0  0  0  0  0
   41.7799   15.5795   -6.9168 C   0  0  0  0  0  0  0  0  0  0  0  0
   41.3407   16.4154   -5.7219 C   0  0  0  0  0  0  0  0  0  0  0  0
   40.8039   15.6044   -7.9732 N   0  0  0  0  0  0  0  0  0  0  0  0
   39.5027   15.8165  -11.3583 C   0  0  0  0  0  0  0  0  0  0  0  0
   38.6347   14.9539  -12.0500 N   0  0  0  0  0  0  0  0  0  0  0  0
   39.9813   16.7787  -12.0523 O   0  0  0  0  0  0  0  0  0  0  0  0
   37.6352   15.2291  -12.2876 H   0  0  0  0  0  0  0  0  0  0  0  0
   38.9006   13.9844  -12.3857 H   0  0  0  0  0  0  0  0  0  0  0  0
   42.4109   16.0249   -9.7944 C   0  0  0  0  0  0  0  0  0  0  0  0
   43.3666   16.4977   -8.9290 O   0  0  0  0  0  0  0  0  0  0  0  0
   44.2726   16.1092   -9.0660 H   0  0  0  0  0  0  0  0  0  0  0  0
   43.5587   13.7967  -10.2030 C   0  0  0  0  0  0  0  0  0  0  0  0
   44.1517   12.9149  -11.0447 N   0  0  0  0  0  0  0  0  0  0  0  0
   44.2603   13.1107  -12.3607 C   0  0  0  0  0  0  0  0  0  0  0  0
   43.7415   14.2713  -12.8892 C   0  0  0  0  0  0  0  0  0  0  0  0
   43.8566   14.4602  -14.2244 F   0  0  0  0  0  0  0  0  0  0  0  0
   43.1430   15.1634  -12.0439 C   0  0  0  0  0  0  0  0  0  0  0  0
   43.0175   14.9779  -10.6541 C   0  0  0  0  0  0  0  0  0  0  0  0
   44.6157   12.9502   -8.1691 C   0  0  0  0  0  0  0  0  0  0  0  0
   43.5113   13.4736   -8.8729 O   0  0  0  0  0  0  0  0  0  0  0  0
   35.1066   14.7177   -5.8188 C   0  0  0  0  0  0  0  0  0  0  0  0
   33.9022   14.6075   -5.9258 C   0  0  0  0  0  0  0  0  0  0  0  0
   32.4371   14.4712   -6.0297 C   0  0  0  0  0  0  0  0  0  0  0  0
   31.9796   13.4215   -5.2361 O   0  0  0  0  0  0  0  0  0  0  0  0
   31.7287   15.7523   -5.6515 C   0  0  0  0  0  0  0  0  0  0  0  0
   31.9740   16.6360   -6.8430 C   0  0  0  0  0  0  0  0  0  0  0  0
   32.0505   15.7081   -8.0336 C   0  0  0  0  0  0  0  0  0  0  0  0
   32.0970   14.3030   -7.4724 C   0  0  0  0  0  0  0  0  0  0  0  0
   32.5645   13.2491   -4.4621 H   0  0  0  0  0  0  0  0  0  0  0  0
 32 33  1  0  0  0
 33 25  1  0  0  0
 25 26  2  0  0  0
 26 27  1  0  0  0
 27 28  2  0  0  0
 28 29  1  0  0  0
 28 30  1  0  0  0
 30 31  2  0  0  0
 31 22  1  0  0  0
 22 23  1  0  0  0
 22  1  1  0  0  0
  1  2  2  0  0  0
  2  3  1  0  0  0
  3  4  2  0  0  0
  4  5  1  0  0  0
  5  6  2  0  0  0
  6  7  1  0  0  0
  7 34  1  0  0  0
 34 35  3  0  0  0
 35 36  1  0  0  0
 36 37  1  0  0  0
 36 38  1  0  0  0
 38 39  1  0  0  0
 39 40  1  0  0  0
 40 41  1  0  0  0
  7  8  2  0  0  0
  8  9  1  0  0  0
  8 10  1  0  0  0
 10 11  2  0  0  0
 11 12  1  0  0  0
 12 13  1  0  0  0
 13 14  1  0  0  0
 14 15  1  0  0  0
 14 16  1  0  0  0
  2 17  1  0  0  0
 17 18  1  0  0  0
 17 19  2  0  0  0
 31 25  1  0  0  0
 16  1  1  0  0  0
 16  4  1  0  0  0
 11  5  1  0  0  0
 15 12  1  0  0  0
 41 36  1  0  0  0
 23 24  1  0  0  0
 37 42  1  0  0  0
 18 20  1  0  0  0
 18 21  1  0  0  0
M  END
> <minimizedAffinity>
-7.31119

> <CNNscore>
0.1091128886

> <CNNaffinity>
5.8269457817

> <CNN_VS>
0.6357948780

> <CNNaffinity_variance>
0.1476348937

$$$$
[H]OC1(C#Cc2c([H])c3c(c([H])c2F)C2([H])C([H])([H])C([H])(n4c-3nc(C(=O)N([H])[H])c4[C@@]([H])(O[H])c3c(OC([H])([H])[H])nc([H])c(F)c3[H])C2([H])[H])C([H])([H])C([H])([H])C([H])([H])C1([H])[H]


 42 47  0  0  0  0  0  0  0  0999 V2000
   38.9999   15.9911  -10.6037 C   0  0  0  0  0  0  0  0  0  0  0  0
   37.8239   15.4709  -11.0923 C   0  0  0  0  0  0  0  0  0  0  0  0
   38.1703   14.7887  -12.2522 N   0  0  0  0  0  0  0  0  0  0  0  0
   39.4838   14.8960  -12.4473 C   0  0  0  0  0  0  0  0  0  0  0  0
   40.2184   14.2824  -13.5820 C   0  0  0  0  0  0  0  0  0  0  0  0
   39.4046   13.5563  -14.4265 C   0  0  0  0  0  0  0  0  0  0  0  0
   39.9247   12.9132  -15.5302 C   0  0  0  0  0  0  0  0  0  0  0  0
   41.2995   13.0468  -15.7262 C   0  0  0  0  0  0  0  0  0  0  0  0
   41.8025   12.4055  -16.8221 F   0  0  0  0  0  0  0  0  0  0  0  0
   42.1127   13.7724  -14.8826 C   0  0  0  0  0  0  0  0  0  0  0  0
   41.5805   14.3933  -13.8086 C   0  0  0  0  0  0  0  0  0  0  0  0
   42.5550   15.1689  -12.9510 C   0  0  0  0  0  0  0  0  0  0  0  0
   41.9449   16.5398  -12.6342 C   0  0  0  0  0  0  0  0  0  0  0  0
   41.3806   16.0084  -11.2951 C   0  0  0  0  0  0  0  0  0  0  0  0
   42.3124   14.8215  -11.5010 C   0  0  0  0  0  0  0  0  0  0  0  0
   39.9993   15.6342  -11.4401 N   0  0  0  0  0  0  0  0  0  0  0  0
   36.4471   15.4929  -10.6927 C   0  0  0  0  0  0  0  0  0  0  0  0
   35.4480   16.3581  -11.1715 N   0  0  0  0  0  0  0  0  0  0  0  0
   36.0610   14.6507   -9.8106 O   0  0  0  0  0  0  0  0  0  0  0  0
   34.7038   16.0361  -11.8599 H   0  0  0  0  0  0  0  0  0  0  0  0
   35.3555   17.3756  -10.8896 H   0  0  0  0  0  0  0  0  0  0  0  0
   39.2076   16.7929   -9.4136 C   0  0  0  0  0  0  0  0  0  0  0  0
   38.7501   18.0876   -9.4114 O   0  0  0  0  0  0  0  0  0  0  0  0
   38.3641   18.3851   -8.5436 H   0  0  0  0  0  0  0  0  0  0  0  0
   39.5594   15.0896   -7.5631 C   0  0  0  0  0  0  0  0  0  0  0  0
   39.1855   14.5416   -6.3810 N   0  0  0  0  0  0  0  0  0  0  0  0
   38.1692   14.9980   -5.6455 C   0  0  0  0  0  0  0  0  0  0  0  0
   37.4646   16.0837   -6.1148 C   0  0  0  0  0  0  0  0  0  0  0  0
   36.4364   16.5387   -5.3616 F   0  0  0  0  0  0  0  0  0  0  0  0
   37.8382   16.6392   -7.3066 C   0  0  0  0  0  0  0  0  0  0  0  0
   38.9055   16.1747   -8.0984 C   0  0  0  0  0  0  0  0  0  0  0  0
   41.9311   14.5159   -7.6925 C   0  0  0  0  0  0  0  0  0  0  0  0
   40.6223   14.5262   -8.2179 O   0  0  0  0  0  0  0  0  0  0  0  0
   39.1064   12.1473  -16.4332 C   0  0  0  0  0  0  0  0  0  0  0  0
   38.4246   11.5120  -17.2114 C   0  0  0  0  0  0  0  0  0  0  0  0
   37.6023   10.7571  -18.1758 C   0  0  0  0  0  0  0  0  0  0  0  0
   38.3644   10.3596  -19.2722 O   0  0  0  0  0  0  0  0  0  0  0  0
   36.9528    9.5524  -17.5332 C   0  0  0  0  0  0  0  0  0  0  0  0
   35.8555   10.1634  -16.7067 C   0  0  0  0  0  0  0  0  0  0  0  0
   35.4224   11.4046  -17.4524 C   0  0  0  0  0  0  0  0  0  0  0  0
   36.4409   11.6142  -18.5523 C   0  0  0  0  0  0  0  0  0  0  0  0
   39.3179   10.2481  -19.0504 H   0  0  0  0  0  0  0  0  0  0  0  0
 32 33  1  0  0  0
 33 25  1  0  0  0
 25 26  2  0  0  0
 26 27  1  0  0  0
 27 28  2  0  0  0
 28 29  1  0  0  0
 28 30  1  0  0  0
 30 31  2  0  0  0
 31 22  1  0  0  0
 22 23  1  0  0  0
 22  1  1  0  0  0
  1  2  2  0  0  0
  2  3  1  0  0  0
  3  4  2  0  0  0
  4  5  1  0  0  0
  5  6  2  0  0  0
  6  7  1  0  0  0
  7 34  1  0  0  0
 34 35  3  0  0  0
 35 36  1  0  0  0
 36 37  1  0  0  0
 36 38  1  0  0  0
 38 39  1  0  0  0
 39 40  1  0  0  0
 40 41  1  0  0  0
  7  8  2  0  0  0
  8  9  1  0  0  0
  8 10  1  0  0  0
 10 11  2  0  0  0
 11 12  1  0  0  0
 12 13  1  0  0  0
 13 14  1  0  0  0
 14 15  1  0  0  0
 14 16  1  0  0  0
  2 17  1  0  0  0
 17 18  1  0  0  0
 17 19  2  0  0  0
 31 25  1  0  0  0
 16  1  1  0  0  0
 16  4  1  0  0  0
 11  5  1  0  0  0
 15 12  1  0  0  0
 41 36  1  0  0  0
 23 24  1  0  0  0
 37 42  1  0  0  0
 18 20  1  0  0  0
 18 21  1  0  0  0
M  END
> <minimizedAffinity>
-7.20840

> <CNNscore>
0.1049897969

> <CNNaffinity>
6.4115362167

> <CNN_VS>
0.6731458902

> <CNNaffinity_variance>
0.1752068102

$$$$
[H]O[C@](C#Cc1c([H])c([H])c2c(c1[H])-n1nc(C(=O)N([H])[H])c([H])c1C1(C([H])([H])O2)C([H])([H])C([H])([H])C1([H])[H])(c1noc(C([H])([H])[H])c1[H])C([H])([H])[H]


 34 38  0  0  0  0  0  0  0  0999 V2000
   35.7554   12.9886  -13.2238 C   0  0  0  0  0  0  0  0  0  0  0  0
   34.6281   12.4348  -13.7093 C   0  0  0  0  0  0  0  0  0  0  0  0
   34.6064   11.6672  -14.8950 C   0  0  0  0  0  0  0  0  0  0  0  0
   35.7662   11.4640  -15.5996 C   0  0  0  0  0  0  0  0  0  0  0  0
   35.6817   10.7033  -16.7628 O   0  0  0  0  0  0  0  0  0  0  0  0
   36.6692   10.1424  -17.5580 C   0  0  0  0  0  0  0  0  0  0  0  0
   37.8154   10.9772  -17.9992 C   0  0  0  0  0  0  0  0  0  0  0  0
   38.7256   10.0963  -18.8855 C   0  0  0  0  0  0  0  0  0  0  0  0
   38.0004   10.6607  -20.0777 C   0  0  0  0  0  0  0  0  0  0  0  0
   37.6034   11.8479  -19.2320 C   0  0  0  0  0  0  0  0  0  0  0  0
   38.5940   11.6269  -16.9379 C   0  0  0  0  0  0  0  0  0  0  0  0
   39.9329   11.9530  -17.0513 C   0  0  0  0  0  0  0  0  0  0  0  0
   40.3643   12.5521  -15.8777 C   0  0  0  0  0  0  0  0  0  0  0  0
   39.2503   12.5697  -15.0845 N   0  0  0  0  0  0  0  0  0  0  0  0
   38.2347   12.0284  -15.7205 N   0  0  0  0  0  0  0  0  0  0  0  0
   36.9333   12.0251  -15.1112 C   0  0  0  0  0  0  0  0  0  0  0  0
   36.9466   12.7631  -13.9623 C   0  0  0  0  0  0  0  0  0  0  0  0
   41.6464   13.1524  -15.5290 C   0  0  0  0  0  0  0  0  0  0  0  0
   42.6910   13.2462  -16.4834 N   0  0  0  0  0  0  0  0  0  0  0  0
   41.8294   13.5867  -14.3898 O   0  0  0  0  0  0  0  0  0  0  0  0
   43.1606   12.4053  -16.8791 H   0  0  0  0  0  0  0  0  0  0  0  0
   43.0292   14.1824  -16.8454 H   0  0  0  0  0  0  0  0  0  0  0  0
   35.9666   14.4809  -11.0837 C   0  0  0  0  0  0  0  0  0  0  0  0
   35.8647   13.8634  -12.1053 C   0  0  0  0  0  0  0  0  0  0  0  0
   36.0865   15.0855   -9.7941 C   0  0  0  0  0  0  0  0  0  0  0  0
   35.0459   16.2391   -9.6996 C   0  0  0  0  0  0  0  0  0  0  0  0
   35.6826   14.1259   -8.7809 O   0  0  0  0  0  0  0  0  0  0  0  0
   34.6822   14.2321   -8.6434 H   0  0  0  0  0  0  0  0  0  0  0  0
   40.9999   16.2382  -10.1676 C   0  0  0  0  0  0  0  0  0  0  0  0
   39.6032   16.0899   -9.6305 C   0  0  0  0  0  0  0  0  0  0  0  0
   38.5522   15.4970  -10.2780 C   0  0  0  0  0  0  0  0  0  0  0  0
   37.4170   15.5612   -9.4373 C   0  0  0  0  0  0  0  0  0  0  0  0
   37.8955   16.1880   -8.3512 N   0  0  0  0  0  0  0  0  0  0  0  0
   39.1417   16.4792   -8.4837 O   0  0  0  0  0  0  0  0  0  0  0  0
 29 30  1  0  0  0
 30 31  2  0  0  0
 31 32  1  0  0  0
 32 33  2  0  0  0
 33 34  1  0  0  0
 32 25  1  0  0  0
 25 26  1  0  0  0
 25 27  1  0  0  0
 25 23  1  0  0  0
 23 24  3  0  0  0
 24  1  1  0  0  0
  1  2  2  0  0  0
  2  3  1  0  0  0
  3  4  2  0  0  0
  4  5  1  0  0  0
  5  6  1  0  0  0
  6  7  1  0  0  0
  7  8  1  0  0  0
  8  9  1  0  0  0
  9 10  1  0  0  0
  7 11  1  0  0  0
 11 12  2  0  0  0
 12 13  1  0  0  0
 13 14  2  0  0  0
 14 15  1  0  0  0
 15 16  1  0  0  0
 16 17  2  0  0  0
 13 18  1  0  0  0
 18 19  1  0  0  0
 18 20  2  0  0  0
 34 30  1  0  0  0
 17  1  1  0  0  0
 16  4  1  0  0  0
 10  7  1  0  0  0
 15 11  1  0  0  0
 27 28  1  0  0  0
 19 21  1  0  0  0
 19 22  1  0  0  0
M  END
> <minimizedAffinity>
-7.40775

> <CNNscore>
0.4009644389

> <CNNaffinity>
7.0562286377

> <CNN_VS>
2.8292968273

> <CNNaffinity_variance>
0.4159910679

$$$$
[H]O[C@](C#Cc1c([H])c([H])c2c(c1[H])-n1nc(C(=O)N([H])[H])c([H])c1C1(C([H])([H])O2)C([H])([H])C([H])([H])C1([H])[H])(c1noc(C([H])([H])[H])c1[H])C([H])([H])[H]


 34 38  0  0  0  0  0  0  0  0999 V2000
   41.3355   15.6834  -12.7150 C   0  0  0  0  0  0  0  0  0  0  0  0
   40.5983   16.1884  -11.7077 C   0  0  0  0  0  0  0  0  0  0  0  0
   39.2527   15.8178  -11.4889 C   0  0  0  0  0  0  0  0  0  0  0  0
   38.6490   14.9103  -12.3224 C   0  0  0  0  0  0  0  0  0  0  0  0
   37.3201   14.5879  -12.0599 O   0  0  0  0  0  0  0  0  0  0  0  0
   36.5134   13.5755  -12.5564 C   0  0  0  0  0  0  0  0  0  0  0  0
   36.4437   13.3477  -14.0222 C   0  0  0  0  0  0  0  0  0  0  0  0
   35.4541   12.1864  -14.2715 C   0  0  0  0  0  0  0  0  0  0  0  0
   34.3905   13.2277  -14.4960 C   0  0  0  0  0  0  0  0  0  0  0  0
   35.4805   14.2243  -14.8138 C   0  0  0  0  0  0  0  0  0  0  0  0
   37.7199   13.0989  -14.7036 C   0  0  0  0  0  0  0  0  0  0  0  0
   37.8453   12.3518  -15.8603 C   0  0  0  0  0  0  0  0  0  0  0  0
   39.1774   12.3107  -16.2425 C   0  0  0  0  0  0  0  0  0  0  0  0
   39.8200   13.0501  -15.2881 N   0  0  0  0  0  0  0  0  0  0  0  0
   38.9544   13.4983  -14.4056 N   0  0  0  0  0  0  0  0  0  0  0  0
   39.3953   14.3809  -13.3608 C   0  0  0  0  0  0  0  0  0  0  0  0
   40.6967   14.7416  -13.5636 C   0  0  0  0  0  0  0  0  0  0  0  0
   39.8133   11.7388  -17.4233 C   0  0  0  0  0  0  0  0  0  0  0  0
   39.0691   10.9641  -18.3490 N   0  0  0  0  0  0  0  0  0  0  0  0
   41.0146   11.9294  -17.6245 O   0  0  0  0  0  0  0  0  0  0  0  0
   38.6496   10.0454  -18.0955 H   0  0  0  0  0  0  0  0  0  0  0  0
   38.8970   11.2977  -19.3395 H   0  0  0  0  0  0  0  0  0  0  0  0
   43.8108   16.2786  -13.3235 C   0  0  0  0  0  0  0  0  0  0  0  0
   42.6556   16.0695  -13.0848 C   0  0  0  0  0  0  0  0  0  0  0  0
   45.2203   16.4103  -13.5208 C   0  0  0  0  0  0  0  0  0  0  0  0
   45.9346   15.3270  -12.6614 C   0  0  0  0  0  0  0  0  0  0  0  0
   45.5401   16.0746  -14.8976 O   0  0  0  0  0  0  0  0  0  0  0  0
   45.7147   15.0749  -14.9338 H   0  0  0  0  0  0  0  0  0  0  0  0
   48.4964   20.0187  -12.1582 C   0  0  0  0  0  0  0  0  0  0  0  0
   47.2608   19.3265  -12.6637 C   0  0  0  0  0  0  0  0  0  0  0  0
   47.0638   17.9725  -12.7178 C   0  0  0  0  0  0  0  0  0  0  0  0
   45.7779   17.7302  -13.2539 C   0  0  0  0  0  0  0  0  0  0  0  0
   45.3151   18.9713  -13.4702 N   0  0  0  0  0  0  0  0  0  0  0  0
   46.1760   19.8637  -13.1269 O   0  0  0  0  0  0  0  0  0  0  0  0
 29 30  1  0  0  0
 30 31  2  0  0  0
 31 32  1  0  0  0
 32 33  2  0  0  0
 33 34  1  0  0  0
 32 25  1  0  0  0
 25 26  1  0  0  0
 25 27  1  0  0  0
 25 23  1  0  0  0
 23 24  3  0  0  0
 24  1  1  0  0  0
  1  2  2  0  0  0
  2  3  1  0  0  0
  3  4  2  0  0  0
  4  5  1  0  0  0
  5  6  1  0  0  0
  6  7  1  0  0  0
  7  8  1  0  0  0
  8  9  1  0  0  0
  9 10  1  0  0  0
  7 11  1  0  0  0
 11 12  2  0  0  0
 12 13  1  0  0  0
 13 14  2  0  0  0
 14 15  1  0  0  0
 15 16  1  0  0  0
 16 17  2  0  0  0
 13 18  1  0  0  0
 18 19  1  0  0  0
 18 20  2  0  0  0
 34 30  1  0  0  0
 17  1  1  0  0  0
 16  4  1  0  0  0
 10  7  1  0  0  0
 15 11  1  0  0  0
 27 28  1  0  0  0
 19 21  1  0  0  0
 19 22  1  0  0  0
M  END
> <minimizedAffinity>
-8.74578

> <CNNscore>
0.2946750522

> <CNNaffinity>
6.4907813072

> <CNN_VS>
1.9126713276

> <CNNaffinity_variance>
0.4309466481

$$$$
[H]O[C@](C#Cc1c([H])c([H])c2c(c1[H])-n1nc(C(=O)N([H])[H])c([H])c1C1(C([H])([H])O2)C([H])([H])C([H])([H])C1([H])[H])(c1noc(C([H])([H])[H])c1[H])C([H])([H])[H]


 34 38  0  0  0  0  0  0  0  0999 V2000
   36.3167   13.8139  -13.2417 C   0  0  0  0  0  0  0  0  0  0  0  0
   35.3665   13.2864  -14.0368 C   0  0  0  0  0  0  0  0  0  0  0  0
   35.6719   12.5552  -15.2063 C   0  0  0  0  0  0  0  0  0  0  0  0
   36.9808   12.3616  -15.5696 C   0  0  0  0  0  0  0  0  0  0  0  0
   37.2197   11.6372  -16.7345 O   0  0  0  0  0  0  0  0  0  0  0  0
   38.3876   11.0906  -17.2437 C   0  0  0  0  0  0  0  0  0  0  0  0
   39.6123   11.9266  -17.3247 C   0  0  0  0  0  0  0  0  0  0  0  0
   40.7306   11.0637  -17.9530 C   0  0  0  0  0  0  0  0  0  0  0  0
   40.3635   11.6711  -19.2805 C   0  0  0  0  0  0  0  0  0  0  0  0
   39.7502   12.8362  -18.5399 C   0  0  0  0  0  0  0  0  0  0  0  0
   40.0685   12.5360  -16.0697 C   0  0  0  0  0  0  0  0  0  0  0  0
   41.3871   12.8518  -15.7988 C   0  0  0  0  0  0  0  0  0  0  0  0
   41.4785   13.4108  -14.5333 C   0  0  0  0  0  0  0  0  0  0  0  0
   40.1888   13.4158  -14.0782 N   0  0  0  0  0  0  0  0  0  0  0  0
   39.3876   12.9043  -14.9866 N   0  0  0  0  0  0  0  0  0  0  0  0
   37.9685   12.8959  -14.7605 C   0  0  0  0  0  0  0  0  0  0  0  0
   37.6652   13.5986  -13.6296 C   0  0  0  0  0  0  0  0  0  0  0  0
   42.6154   13.9873  -13.8254 C   0  0  0  0  0  0  0  0  0  0  0  0
   42.4943   14.4167  -12.4794 N   0  0  0  0  0  0  0  0  0  0  0  0
   43.6994   14.1043  -14.4007 O   0  0  0  0  0  0  0  0  0  0  0  0
   41.8825   15.2121  -12.2018 H   0  0  0  0  0  0  0  0  0  0  0  0
   43.0151   13.9332  -11.6939 H   0  0  0  0  0  0  0  0  0  0  0  0
   36.0474   15.2837  -11.0926 C   0  0  0  0  0  0  0  0  0  0  0  0
   36.1141   14.6534  -12.1092 C   0  0  0  0  0  0  0  0  0  0  0  0
   36.0694   15.9408   -9.8235 C   0  0  0  0  0  0  0  0  0  0  0  0
   34.6002   16.1105   -9.3386 C   0  0  0  0  0  0  0  0  0  0  0  0
   36.6930   15.0648   -8.8465 O   0  0  0  0  0  0  0  0  0  0  0  0
   35.9596   14.4913   -8.4410 H   0  0  0  0  0  0  0  0  0  0  0  0
   37.9228   20.3115   -8.0709 C   0  0  0  0  0  0  0  0  0  0  0  0
   37.6143   19.1492   -8.9737 C   0  0  0  0  0  0  0  0  0  0  0  0
   36.8065   18.0866   -8.6678 C   0  0  0  0  0  0  0  0  0  0  0  0
   36.7768   17.2143   -9.7803 C   0  0  0  0  0  0  0  0  0  0  0  0
   37.5726   17.8404  -10.6612 N   0  0  0  0  0  0  0  0  0  0  0  0
   38.0379   18.9395  -10.1805 O   0  0  0  0  0  0  0  0  0  0  0  0
 29 30  1  0  0  0
 30 31  2  0  0  0
 31 32  1  0  0  0
 32 33  2  0  0  0
 33 34  1  0  0  0
 32 25  1  0  0  0
 25 26  1  0  0  0
 25 27  1  0  0  0
 25 23  1  0  0  0
 23 24  3  0  0  0
 24  1  1  0  0  0
  1  2  2  0  0  0
  2  3  1  0  0  0
  3  4  2  0  0  0
  4  5  1  0  0  0
  5  6  1  0  0  0
  6  7  1  0  0  0
  7  8  1  0  0  0
  8  9  1  0  0  0
  9 10  1  0  0  0
  7 11  1  0  0  0
 11 12  2  0  0  0
 12 13  1  0  0  0
 13 14  2  0  0  0
 14 15  1  0  0  0
 15 16  1  0  0  0
 16 17  2  0  0  0
 13 18  1  0  0  0
 18 19  1  0  0  0
 18 20  2  0  0  0
 34 30  1  0  0  0
 17  1  1  0  0  0
 16  4  1  0  0  0
 10  7  1  0  0  0
 15 11  1  0  0  0
 27 28  1  0  0  0
 19 21  1  0  0  0
 19 22  1  0  0  0
M  END
> <minimizedAffinity>
-9.16887

> <CNNscore>
0.2164138556

> <CNNaffinity>
6.4001960754

> <CNN_VS>
1.3850910664

> <CNNaffinity_variance>
0.1218296736

$$$$
[H]O[C@](C#Cc1c([H])c([H])c2c(c1[H])-n1nc(C(=O)N([H])[H])c([H])c1C1(C([H])([H])O2)C([H])([H])C([H])([H])C1([H])[H])(c1noc(C([H])([H])[H])c1[H])C([H])([H])[H]


 34 38  0  0  0  0  0  0  0  0999 V2000
   40.8780   12.3262  -16.8143 C   0  0  0  0  0  0  0  0  0  0  0  0
   40.8097   11.6762  -17.9916 C   0  0  0  0  0  0  0  0  0  0  0  0
   39.5900   11.2213  -18.5404 C   0  0  0  0  0  0  0  0  0  0  0  0
   38.4143   11.4363  -17.8665 C   0  0  0  0  0  0  0  0  0  0  0  0
   37.2451   10.9609  -18.4546 O   0  0  0  0  0  0  0  0  0  0  0  0
   35.9128   11.2006  -18.1557 C   0  0  0  0  0  0  0  0  0  0  0  0
   35.4439   11.0771  -16.7519 C   0  0  0  0  0  0  0  0  0  0  0  0
   33.9264   11.3718  -16.7349 C   0  0  0  0  0  0  0  0  0  0  0  0
   33.7031    9.8857  -16.8220 C   0  0  0  0  0  0  0  0  0  0  0  0
   35.0904    9.6782  -16.2609 C   0  0  0  0  0  0  0  0  0  0  0  0
   36.1445   11.8982  -15.7572 C   0  0  0  0  0  0  0  0  0  0  0  0
   35.5665   12.3550  -14.5871 C   0  0  0  0  0  0  0  0  0  0  0  0
   36.4933   13.0984  -13.8726 C   0  0  0  0  0  0  0  0  0  0  0  0
   37.6189   13.0607  -14.6485 N   0  0  0  0  0  0  0  0  0  0  0  0
   37.3937   12.3581  -15.7368 N   0  0  0  0  0  0  0  0  0  0  0  0
   38.4688   12.1054  -16.6562 C   0  0  0  0  0  0  0  0  0  0  0  0
   39.6515   12.5451  -16.1339 C   0  0  0  0  0  0  0  0  0  0  0  0
   36.4103   13.7109  -12.5521 C   0  0  0  0  0  0  0  0  0  0  0  0
   35.1584   13.8979  -11.9127 N   0  0  0  0  0  0  0  0  0  0  0  0
   37.4402   14.0723  -11.9790 O   0  0  0  0  0  0  0  0  0  0  0  0
   34.4324   14.5429  -12.2883 H   0  0  0  0  0  0  0  0  0  0  0  0
   34.9040   13.3747  -11.0276 H   0  0  0  0  0  0  0  0  0  0  0  0
   43.1243   13.0259  -15.6668 C   0  0  0  0  0  0  0  0  0  0  0  0
   42.0591   12.7269  -16.1267 C   0  0  0  0  0  0  0  0  0  0  0  0
   44.4556   13.3287  -15.2443 C   0  0  0  0  0  0  0  0  0  0  0  0
   45.4426   12.4976  -16.1147 C   0  0  0  0  0  0  0  0  0  0  0  0
   44.7488   14.7166  -15.5580 O   0  0  0  0  0  0  0  0  0  0  0  0
   45.1328   14.7410  -16.4978 H   0  0  0  0  0  0  0  0  0  0  0  0
   43.7767   13.1623  -10.2321 C   0  0  0  0  0  0  0  0  0  0  0  0
   44.4020   13.0454  -11.5947 C   0  0  0  0  0  0  0  0  0  0  0  0
   43.8168   13.4009  -12.7805 C   0  0  0  0  0  0  0  0  0  0  0  0
   44.7309   13.1356  -13.8262 C   0  0  0  0  0  0  0  0  0  0  0  0
   45.7919   12.6451  -13.1665 N   0  0  0  0  0  0  0  0  0  0  0  0
   45.5820   12.6030  -11.8978 O   0  0  0  0  0  0  0  0  0  0  0  0
 29 30  1  0  0  0
 30 31  2  0  0  0
 31 32  1  0  0  0
 32 33  2  0  0  0
 33 34  1  0  0  0
 32 25  1  0  0  0
 25 26  1  0  0  0
 25 27  1  0  0  0
 25 23  1  0  0  0
 23 24  3  0  0  0
 24  1  1  0  0  0
  1  2  2  0  0  0
  2  3  1  0  0  0
  3  4  2  0  0  0
  4  5  1  0  0  0
  5  6  1  0  0  0
  6  7  1  0  0  0
  7  8  1  0  0  0
  8  9  1  0  0  0
  9 10  1  0  0  0
  7 11  1  0  0  0
 11 12  2  0  0  0
 12 13  1  0  0  0
 13 14  2  0  0  0
 14 15  1  0  0  0
 15 16  1  0  0  0
 16 17  2  0  0  0
 13 18  1  0  0  0
 18 19  1  0  0  0
 18 20  2  0  0  0
 34 30  1  0  0  0
 17  1  1  0  0  0
 16  4  1  0  0  0
 10  7  1  0  0  0
 15 11  1  0  0  0
 27 28  1  0  0  0
 19 21  1  0  0  0
 19 22  1  0  0  0
M  END
> <minimizedAffinity>
-9.24369

> <CNNscore>
0.2026856691

> <CNNaffinity>
6.9228959084

> <CNN_VS>
1.4031717777

> <CNNaffinity_variance>
0.1732743084

$$$$
[H]O[C@](C#Cc1c([H])c([H])c2c(c1[H])-n1nc(C(=O)N([H])[H])c([H])c1C1(C([H])([H])O2)C([H])([H])C([H])([H])C1([H])[H])(c1noc(C([H])([H])[H])c1[H])C([H])([H])[H]


 34 38  0  0  0  0  0  0  0  0999 V2000
   39.4373   15.0793  -13.0359 C   0  0  0  0  0  0  0  0  0  0  0  0
   39.5321   15.8581  -11.9415 C   0  0  0  0  0  0  0  0  0  0  0  0
   40.7724   16.2293  -11.3763 C   0  0  0  0  0  0  0  0  0  0  0  0
   41.9418   15.7911  -11.9450 C   0  0  0  0  0  0  0  0  0  0  0  0
   43.1327   16.1855  -11.3408 O   0  0  0  0  0  0  0  0  0  0  0  0
   44.4459   16.1046  -11.7777 C   0  0  0  0  0  0  0  0  0  0  0  0
   44.9606   14.8194  -12.3151 C   0  0  0  0  0  0  0  0  0  0  0  0
   46.4459   15.0272  -12.6903 C   0  0  0  0  0  0  0  0  0  0  0  0
   46.7978   14.4727  -11.3358 C   0  0  0  0  0  0  0  0  0  0  0  0
   45.4497   13.7917  -11.3015 C   0  0  0  0  0  0  0  0  0  0  0  0
   44.2163   14.2395  -13.4396 C   0  0  0  0  0  0  0  0  0  0  0  0
   44.7821   13.4236  -14.4018 C   0  0  0  0  0  0  0  0  0  0  0  0
   43.8120   13.0474  -15.3181 C   0  0  0  0  0  0  0  0  0  0  0  0
   42.6741   13.6575  -14.8670 N   0  0  0  0  0  0  0  0  0  0  0  0
   42.9322   14.3433  -13.7753 N   0  0  0  0  0  0  0  0  0  0  0  0
   41.8599   14.9918  -13.0720 C   0  0  0  0  0  0  0  0  0  0  0  0
   40.6571   14.6402  -13.6144 C   0  0  0  0  0  0  0  0  0  0  0  0
   43.8750   12.1332  -16.4522 C   0  0  0  0  0  0  0  0  0  0  0  0
   42.8098   12.0542  -17.3849 N   0  0  0  0  0  0  0  0  0  0  0  0
   44.8667   11.4173  -16.6071 O   0  0  0  0  0  0  0  0  0  0  0  0
   41.8641   11.7069  -17.1217 H   0  0  0  0  0  0  0  0  0  0  0  0
   42.9302   12.3604  -18.3917 H   0  0  0  0  0  0  0  0  0  0  0  0
   37.2203   14.0571  -13.9803 C   0  0  0  0  0  0  0  0  0  0  0  0
   38.2438   14.5623  -13.6160 C   0  0  0  0  0  0  0  0  0  0  0  0
   35.9990   13.3800  -14.2847 C   0  0  0  0  0  0  0  0  0  0  0  0
   35.5171   12.6457  -12.9997 C   0  0  0  0  0  0  0  0  0  0  0  0
   34.9689   14.3643  -14.5686 O   0  0  0  0  0  0  0  0  0  0  0  0
   34.5205   14.5974  -13.6879 H   0  0  0  0  0  0  0  0  0  0  0  0
   37.8346   10.5480  -18.0558 C   0  0  0  0  0  0  0  0  0  0  0  0
   36.8870   11.1870  -17.0784 C   0  0  0  0  0  0  0  0  0  0  0  0
   37.2188   12.1137  -16.1265 C   0  0  0  0  0  0  0  0  0  0  0  0
   36.0471   12.4618  -15.4155 C   0  0  0  0  0  0  0  0  0  0  0  0
   35.1106   11.7092  -16.0136 N   0  0  0  0  0  0  0  0  0  0  0  0
   35.6115   10.9918  -16.9570 O   0  0  0  0  0  0  0  0  0  0  0  0
 29 30  1  0  0  0
 30 31  2  0  0  0
 31 32  1  0  0  0
 32 33  2  0  0  0
 33 34  1  0  0  0
 32 25  1  0  0  0
 25 26  1  0  0  0
 25 27  1  0  0  0
 25 23  1  0  0  0
 23 24  3  0  0  0
 24  1  1  0  0  0
  1  2  2  0  0  0
  2  3  1  0  0  0
  3  4  2  0  0  0
  4  5  1  0  0  0
  5  6  1  0  0  0
  6  7  1  0  0  0
  7  8  1  0  0  0
  8  9  1  0  0  0
  9 10  1  0  0  0
  7 11  1  0  0  0
 11 12  2  0  0  0
 12 13  1  0  0  0
 13 14  2  0  0  0
 14 15  1  0  0  0
 15 16  1  0  0  0
 16 17  2  0  0  0
 13 18  1  0  0  0
 18 19  1  0  0  0
 18 20  2  0  0  0
 34 30  1  0  0  0
 17  1  1  0  0  0
 16  4  1  0  0  0
 10  7  1  0  0  0
 15 11  1  0  0  0
 27 28  1  0  0  0
 19 21  1  0  0  0
 19 22  1  0  0  0
M  END
> <minimizedAffinity>
-9.15532

> <CNNscore>
0.1914339662

> <CNNaffinity>
6.4025344849

> <CNN_VS>
1.2256625891

> <CNNaffinity_variance>
0.1195539460

$$$$
[H]O[C@](C#Cc1c([H])c([H])c2c(c1[H])-n1nc(C(=O)N([H])[H])c([H])c1C1(C([H])([H])O2)C([H])([H])C([H])([H])C1([H])[H])(c1noc(C([H])([H])[H])c1[H])C([H])([H])[H]


 34 38  0  0  0  0  0  0  0  0999 V2000
   41.2234   12.7968  -16.0898 C   0  0  0  0  0  0  0  0  0  0  0  0
   40.6125   12.0276  -17.0109 C   0  0  0  0  0  0  0  0  0  0  0  0
   39.2096   11.8702  -17.0621 C   0  0  0  0  0  0  0  0  0  0  0  0
   38.4152   12.5146  -16.1475 C   0  0  0  0  0  0  0  0  0  0  0  0
   37.0402   12.3174  -16.2449 O   0  0  0  0  0  0  0  0  0  0  0  0
   35.9807   12.9750  -15.6391 C   0  0  0  0  0  0  0  0  0  0  0  0
   36.0032   13.2023  -14.1716 C   0  0  0  0  0  0  0  0  0  0  0  0
   34.6912   13.9239  -13.7870 C   0  0  0  0  0  0  0  0  0  0  0  0
   34.1209   12.5709  -13.4556 C   0  0  0  0  0  0  0  0  0  0  0  0
   35.5308   12.0552  -13.2863 C   0  0  0  0  0  0  0  0  0  0  0  0
   37.1675   13.9227  -13.6425 C   0  0  0  0  0  0  0  0  0  0  0  0
   37.1424   14.6957  -12.4963 C   0  0  0  0  0  0  0  0  0  0  0  0
   38.4000   15.2353  -12.2743 C   0  0  0  0  0  0  0  0  0  0  0  0
   39.1542   14.7581  -13.3107 N   0  0  0  0  0  0  0  0  0  0  0  0
   38.4186   13.9979  -14.0916 N   0  0  0  0  0  0  0  0  0  0  0  0
   39.0290   13.3107  -15.1962 C   0  0  0  0  0  0  0  0  0  0  0  0
   40.3857   13.4606  -15.1555 C   0  0  0  0  0  0  0  0  0  0  0  0
   38.9130   16.0342  -11.1678 C   0  0  0  0  0  0  0  0  0  0  0  0
   40.1157   15.6769  -10.5069 N   0  0  0  0  0  0  0  0  0  0  0  0
   38.2965   17.0359  -10.7985 O   0  0  0  0  0  0  0  0  0  0  0  0
   40.2069   14.8000   -9.9528 H   0  0  0  0  0  0  0  0  0  0  0  0
   40.9808   16.2856  -10.5618 H   0  0  0  0  0  0  0  0  0  0  0  0
   43.7730   13.1357  -15.6037 C   0  0  0  0  0  0  0  0  0  0  0  0
   42.6262   12.9346  -15.8859 C   0  0  0  0  0  0  0  0  0  0  0  0
   45.0906   13.4698  -15.1620 C   0  0  0  0  0  0  0  0  0  0  0  0
   46.1113   12.8006  -16.1279 C   0  0  0  0  0  0  0  0  0  0  0  0
   45.2966   14.8990  -15.3226 O   0  0  0  0  0  0  0  0  0  0  0  0
   45.6640   15.0498  -16.2572 H   0  0  0  0  0  0  0  0  0  0  0  0
   44.5170   12.7738  -10.1824 C   0  0  0  0  0  0  0  0  0  0  0  0
   45.1171   12.8121  -11.5607 C   0  0  0  0  0  0  0  0  0  0  0  0
   44.5004   13.2736  -12.6929 C   0  0  0  0  0  0  0  0  0  0  0  0
   45.3987   13.1387  -13.7765 C   0  0  0  0  0  0  0  0  0  0  0  0
   46.4831   12.6082  -13.1901 N   0  0  0  0  0  0  0  0  0  0  0  0
   46.2999   12.4311  -11.9289 O   0  0  0  0  0  0  0  0  0  0  0  0
 29 30  1  0  0  0
 30 31  2  0  0  0
 31 32  1  0  0  0
 32 33  2  0  0  0
 33 34  1  0  0  0
 32 25  1  0  0  0
 25 26  1  0  0  0
 25 27  1  0  0  0
 25 23  1  0  0  0
 23 24  3  0  0  0
 24  1  1  0  0  0
  1  2  2  0  0  0
  2  3  1  0  0  0
  3  4  2  0  0  0
  4  5  1  0  0  0
  5  6  1  0  0  0
  6  7  1  0  0  0
  7  8  1  0  0  0
  8  9  1  0  0  0
  9 10  1  0  0  0
  7 11  1  0  0  0
 11 12  2  0  0  0
 12 13  1  0  0  0
 13 14  2  0  0  0
 14 15  1  0  0  0
 15 16  1  0  0  0
 16 17  2  0  0  0
 13 18  1  0  0  0
 18 19  1  0  0  0
 18 20  2  0  0  0
 34 30  1  0  0  0
 17  1  1  0  0  0
 16  4  1  0  0  0
 10  7  1  0  0  0
 15 11  1  0  0  0
 27 28  1  0  0  0
 19 21  1  0  0  0
 19 22  1  0  0  0
M  END
> <minimizedAffinity>
-9.34740

> <CNNscore>
0.1899678260

> <CNNaffinity>
6.5289406776

> <CNN_VS>
1.2402886152

> <CNNaffinity_variance>
0.0595809296

$$$$
[H]O[C@](C#Cc1c([H])c([H])c2c(c1[H])-n1nc(C(=O)N([H])[H])c([H])c1C1(C([H])([H])O2)C([H])([H])C([H])([H])C1([H])[H])(c1noc(C([H])([H])[H])c1[H])C([H])([H])[H]


 34 38  0  0  0  0  0  0  0  0999 V2000
   40.4684   15.8433  -12.1415 C   0  0  0  0  0  0  0  0  0  0  0  0
   39.6160   16.2589  -11.1856 C   0  0  0  0  0  0  0  0  0  0  0  0
   38.2845   15.7949  -11.0985 C   0  0  0  0  0  0  0  0  0  0  0  0
   37.8161   14.8853  -12.0129 C   0  0  0  0  0  0  0  0  0  0  0  0
   36.4943   14.4685  -11.8793 O   0  0  0  0  0  0  0  0  0  0  0  0
   35.8024   13.4278  -12.4795 C   0  0  0  0  0  0  0  0  0  0  0  0
   35.8731   13.2556  -13.9529 C   0  0  0  0  0  0  0  0  0  0  0  0
   34.9882   12.0448  -14.3282 C   0  0  0  0  0  0  0  0  0  0  0  0
   33.8803   13.0245  -14.6085 C   0  0  0  0  0  0  0  0  0  0  0  0
   34.9242   14.1005  -14.7947 C   0  0  0  0  0  0  0  0  0  0  0  0
   37.2164   13.1166  -14.5281 C   0  0  0  0  0  0  0  0  0  0  0  0
   37.4895   12.4265  -15.6947 C   0  0  0  0  0  0  0  0  0  0  0  0
   38.8491   12.4858  -15.9600 C   0  0  0  0  0  0  0  0  0  0  0  0
   39.3572   13.2253  -14.9278 N   0  0  0  0  0  0  0  0  0  0  0  0
   38.3916   13.5813  -14.1094 N   0  0  0  0  0  0  0  0  0  0  0  0
   38.6819   14.4471  -12.9998 C   0  0  0  0  0  0  0  0  0  0  0  0
   39.9686   14.8979  -13.0752 C   0  0  0  0  0  0  0  0  0  0  0  0
   39.6201   12.0040  -17.0998 C   0  0  0  0  0  0  0  0  0  0  0  0
   40.8724   12.5818  -17.4294 N   0  0  0  0  0  0  0  0  0  0  0  0
   39.1815   11.0809  -17.7893 O   0  0  0  0  0  0  0  0  0  0  0  0
   40.9633   13.5685  -17.7494 H   0  0  0  0  0  0  0  0  0  0  0  0
   41.7748   12.0328  -17.3497 H   0  0  0  0  0  0  0  0  0  0  0  0
   42.9405   16.6034  -12.5450 C   0  0  0  0  0  0  0  0  0  0  0  0
   41.7863   16.3273  -12.3805 C   0  0  0  0  0  0  0  0  0  0  0  0
   44.3494   16.7952  -12.6905 C   0  0  0  0  0  0  0  0  0  0  0  0
   44.5808   18.1129  -13.4860 C   0  0  0  0  0  0  0  0  0  0  0  0
   44.9333   17.0341  -11.3819 O   0  0  0  0  0  0  0  0  0  0  0  0
   44.9008   18.0349  -11.2128 H   0  0  0  0  0  0  0  0  0  0  0  0
   45.3772   12.7730  -15.5846 C   0  0  0  0  0  0  0  0  0  0  0  0
   45.5276   13.9116  -14.6139 C   0  0  0  0  0  0  0  0  0  0  0  0
   44.5329   14.7641  -14.2152 C   0  0  0  0  0  0  0  0  0  0  0  0
   45.0808   15.6909  -13.2985 C   0  0  0  0  0  0  0  0  0  0  0  0
   46.3640   15.3040  -13.2267 N   0  0  0  0  0  0  0  0  0  0  0  0
   46.5952   14.2895  -13.9836 O   0  0  0  0  0  0  0  0  0  0  0  0
 29 30  1  0  0  0
 30 31  2  0  0  0
 31 32  1  0  0  0
 32 33  2  0  0  0
 33 34  1  0  0  0
 32 25  1  0  0  0
 25 26  1  0  0  0
 25 27  1  0  0  0
 25 23  1  0  0  0
 23 24  3  0  0  0
 24  1  1  0  0  0
  1  2  2  0  0  0
  2  3  1  0  0  0
  3  4  2  0  0  0
  4  5  1  0  0  0
  5  6  1  0  0  0
  6  7  1  0  0  0
  7  8  1  0  0  0
  8  9  1  0  0  0
  9 10  1  0  0  0
  7 11  1  0  0  0
 11 12  2  0  0  0
 12 13  1  0  0  0
 13 14  2  0  0  0
 14 15  1  0  0  0
 15 16  1  0  0  0
 16 17  2  0  0  0
 13 18  1  0  0  0
 18 19  1  0  0  0
 18 20  2  0  0  0
 34 30  1  0  0  0
 17  1  1  0  0  0
 16  4  1  0  0  0
 10  7  1  0  0  0
 15 11  1  0  0  0
 27 28  1  0  0  0
 19 21  1  0  0  0
 19 22  1  0  0  0
M  END
> <minimizedAffinity>
-8.68658

> <CNNscore>
0.1742480248

> <CNNaffinity>
6.5318436623

> <CNN_VS>
1.1381608248

> <CNNaffinity_variance>
0.1426012814

$$$$
[H]O[C@](C#Cc1c([H])c([H])c2c(c1[H])-n1nc(C(=O)N([H])[H])c([H])c1C1(C([H])([H])O2)C([H])([H])C([H])([H])C1([H])[H])(c1noc(C([H])([H])[H])c1[H])C([H])([H])[H]


 34 38  0  0  0  0  0  0  0  0999 V2000
   41.8499   12.8793  -16.0542 C   0  0  0  0  0  0  0  0  0  0  0  0
   41.2294   12.0953  -16.9561 C   0  0  0  0  0  0  0  0  0  0  0  0
   39.8266   11.9306  -16.9846 C   0  0  0  0  0  0  0  0  0  0  0  0
   39.0426   12.5832  -16.0669 C   0  0  0  0  0  0  0  0  0  0  0  0
   37.6673   12.3783  -16.1414 O   0  0  0  0  0  0  0  0  0  0  0  0
   36.6136   13.0387  -15.5287 C   0  0  0  0  0  0  0  0  0  0  0  0
   36.6565   13.2854  -14.0649 C   0  0  0  0  0  0  0  0  0  0  0  0
   35.3468   14.0058  -13.6703 C   0  0  0  0  0  0  0  0  0  0  0  0
   34.7880   12.6545  -13.3130 C   0  0  0  0  0  0  0  0  0  0  0  0
   36.2028   12.1478  -13.1578 C   0  0  0  0  0  0  0  0  0  0  0  0
   37.8249   14.0181  -13.5623 C   0  0  0  0  0  0  0  0  0  0  0  0
   37.8128   14.8060  -12.4262 C   0  0  0  0  0  0  0  0  0  0  0  0
   39.0709   15.3544  -12.2298 C   0  0  0  0  0  0  0  0  0  0  0  0
   39.8121   14.8672  -13.2708 N   0  0  0  0  0  0  0  0  0  0  0  0
   39.0689   14.0934  -14.0308 N   0  0  0  0  0  0  0  0  0  0  0  0
   39.6664   13.3946  -15.1352 C   0  0  0  0  0  0  0  0  0  0  0  0
   41.0228   13.5514  -15.1164 C   0  0  0  0  0  0  0  0  0  0  0  0
   39.5962   16.1702  -11.1415 C   0  0  0  0  0  0  0  0  0  0  0  0
   40.8278   15.8472  -10.5172 N   0  0  0  0  0  0  0  0  0  0  0  0
   38.9647   17.1561  -10.7556 O   0  0  0  0  0  0  0  0  0  0  0  0
   40.9596   14.9748   -9.9642 H   0  0  0  0  0  0  0  0  0  0  0  0
   41.6741   16.4787  -10.6002 H   0  0  0  0  0  0  0  0  0  0  0  0
   44.4068   13.1851  -15.5844 C   0  0  0  0  0  0  0  0  0  0  0  0
   43.2548   13.0265  -15.8729 C   0  0  0  0  0  0  0  0  0  0  0  0
   45.7329   13.4188  -15.1053 C   0  0  0  0  0  0  0  0  0  0  0  0
   45.9994   12.4468  -13.9191 C   0  0  0  0  0  0  0  0  0  0  0  0
   46.6838   13.0326  -16.1336 O   0  0  0  0  0  0  0  0  0  0  0  0
   46.8986   12.0499  -15.9951 H   0  0  0  0  0  0  0  0  0  0  0  0
   45.1289   18.1337  -13.3690 C   0  0  0  0  0  0  0  0  0  0  0  0
   45.7541   16.8841  -13.9249 C   0  0  0  0  0  0  0  0  0  0  0  0
   45.0953   15.7227  -14.2284 C   0  0  0  0  0  0  0  0  0  0  0  0
   46.0375   14.7922  -14.7245 C   0  0  0  0  0  0  0  0  0  0  0  0
   47.1845   15.4875  -14.6771 N   0  0  0  0  0  0  0  0  0  0  0  0
   46.9991   16.6753  -14.2188 O   0  0  0  0  0  0  0  0  0  0  0  0
 29 30  1  0  0  0
 30 31  2  0  0  0
 31 32  1  0  0  0
 32 33  2  0  0  0
 33 34  1  0  0  0
 32 25  1  0  0  0
 25 26  1  0  0  0
 25 27  1  0  0  0
 25 23  1  0  0  0
 23 24  3  0  0  0
 24  1  1  0  0  0
  1  2  2  0  0  0
  2  3  1  0  0  0
  3  4  2  0  0  0
  4  5  1  0  0  0
  5  6  1  0  0  0
  6  7  1  0  0  0
  7  8  1  0  0  0
  8  9  1  0  0  0
  9 10  1  0  0  0
  7 11  1  0  0  0
 11 12  2  0  0  0
 12 13  1  0  0  0
 13 14  2  0  0  0
 14 15  1  0  0  0
 15 16  1  0  0  0
 16 17  2  0  0  0
 13 18  1  0  0  0
 18 19  1  0  0  0
 18 20  2  0  0  0
 34 30  1  0  0  0
 17  1  1  0  0  0
 16  4  1  0  0  0
 10  7  1  0  0  0
 15 11  1  0  0  0
 27 28  1  0  0  0
 19 21  1  0  0  0
 19 22  1  0  0  0
M  END
> <minimizedAffinity>
-9.68949

> <CNNscore>
0.1719741225

> <CNNaffinity>
6.3428978920

> <CNN_VS>
1.0908143520

> <CNNaffinity_variance>
0.1054819077

$$$$
[H]O[C@](C#Cc1c([H])c([H])c2c(c1[H])-n1nc(C(=O)N([H])[H])c([H])c1C1(C([H])([H])O2)C([H])([H])C([H])([H])C1([H])[H])(c1noc(C([H])([H])[H])c1[H])C([H])([H])[H]


 34 38  0  0  0  0  0  0  0  0999 V2000
   35.9906   14.4685  -13.0242 C   0  0  0  0  0  0  0  0  0  0  0  0
   34.7845   14.0057  -13.4042 C   0  0  0  0  0  0  0  0  0  0  0  0
   34.6270   13.0289  -14.4126 C   0  0  0  0  0  0  0  0  0  0  0  0
   35.7307   12.5161  -15.0465 C   0  0  0  0  0  0  0  0  0  0  0  0
   35.5126   11.5600  -16.0349 O   0  0  0  0  0  0  0  0  0  0  0  0
   36.3904   10.7089  -16.6883 C   0  0  0  0  0  0  0  0  0  0  0  0
   37.6417   11.2556  -17.2721 C   0  0  0  0  0  0  0  0  0  0  0  0
   38.3934   10.0881  -17.9518 C   0  0  0  0  0  0  0  0  0  0  0  0
   37.7412   10.5058  -19.2425 C   0  0  0  0  0  0  0  0  0  0  0  0
   37.5423   11.8842  -18.6570 C   0  0  0  0  0  0  0  0  0  0  0  0
   38.5275   11.9789  -16.3518 C   0  0  0  0  0  0  0  0  0  0  0  0
   39.8981   12.0697  -16.5100 C   0  0  0  0  0  0  0  0  0  0  0  0
   40.4348   12.8190  -15.4744 C   0  0  0  0  0  0  0  0  0  0  0  0
   39.3500   13.1629  -14.7159 N   0  0  0  0  0  0  0  0  0  0  0  0
   38.2537   12.6653  -15.2444 N   0  0  0  0  0  0  0  0  0  0  0  0
   36.9772   12.9806  -14.6645 C   0  0  0  0  0  0  0  0  0  0  0  0
   37.1214   13.9226  -13.6864 C   0  0  0  0  0  0  0  0  0  0  0  0
   41.7986   13.2761  -15.2355 C   0  0  0  0  0  0  0  0  0  0  0  0
   42.7351   13.3618  -16.2968 N   0  0  0  0  0  0  0  0  0  0  0  0
   42.1469   13.5944  -14.0965 O   0  0  0  0  0  0  0  0  0  0  0  0
   43.0765   12.5209  -16.8072 H   0  0  0  0  0  0  0  0  0  0  0  0
   43.1179   14.2934  -16.6250 H   0  0  0  0  0  0  0  0  0  0  0  0
   36.5687   16.3237  -11.2704 C   0  0  0  0  0  0  0  0  0  0  0  0
   36.2496   15.5224  -12.1020 C   0  0  0  0  0  0  0  0  0  0  0  0
   37.0429   17.1753  -10.2251 C   0  0  0  0  0  0  0  0  0  0  0  0
   38.4532   16.6770   -9.7945 C   0  0  0  0  0  0  0  0  0  0  0  0
   37.2584   18.5086  -10.7604 O   0  0  0  0  0  0  0  0  0  0  0  0
   38.2120   18.5462  -11.1074 H   0  0  0  0  0  0  0  0  0  0  0  0
   33.3830   16.1832   -6.8739 C   0  0  0  0  0  0  0  0  0  0  0  0
   34.5451   16.8358   -7.5703 C   0  0  0  0  0  0  0  0  0  0  0  0
   35.1004   16.4335   -8.7555 C   0  0  0  0  0  0  0  0  0  0  0  0
   36.1674   17.3073   -9.0675 C   0  0  0  0  0  0  0  0  0  0  0  0
   36.1520   18.1642   -8.0346 N   0  0  0  0  0  0  0  0  0  0  0  0
   35.2205   17.8765   -7.1950 O   0  0  0  0  0  0  0  0  0  0  0  0
 29 30  1  0  0  0
 30 31  2  0  0  0
 31 32  1  0  0  0
 32 33  2  0  0  0
 33 34  1  0  0  0
 32 25  1  0  0  0
 25 26  1  0  0  0
 25 27  1  0  0  0
 25 23  1  0  0  0
 23 24  3  0  0  0
 24  1  1  0  0  0
  1  2  2  0  0  0
  2  3  1  0  0  0
  3  4  2  0  0  0
  4  5  1  0  0  0
  5  6  1  0  0  0
  6  7  1  0  0  0
  7  8  1  0  0  0
  8  9  1  0  0  0
  9 10  1  0  0  0
  7 11  1  0  0  0
 11 12  2  0  0  0
 12 13  1  0  0  0
 13 14  2  0  0  0
 14 15  1  0  0  0
 15 16  1  0  0  0
 16 17  2  0  0  0
 13 18  1  0  0  0
 18 19  1  0  0  0
 18 20  2  0  0  0
 34 30  1  0  0  0
 17  1  1  0  0  0
 16  4  1  0  0  0
 10  7  1  0  0  0
 15 11  1  0  0  0
 27 28  1  0  0  0
 19 21  1  0  0  0
 19 22  1  0  0  0
M  END
> <minimizedAffinity>
-7.58629

> <CNNscore>
0.1668578982

> <CNNaffinity>
6.4659681320

> <CNN_VS>
1.0788978338

> <CNNaffinity_variance>
0.1678573638

$$$$
[H]OC(C#Cc1c([H])c([H])c2c(c1[H])-c1nc(C(=O)N([H])[H])c(-c3c([H])nn([H])c3[H])n1C([H])([H])C([H])([H])O2)(C([H])([H])[H])C([H])([H])[H]


 32 35  0  0  0  0  0  0  0  0999 V2000
   42.7115   13.8084  -14.3791 C   0  0  0  0  0  0  0  0  0  0  0  0
   43.4635   13.2320  -15.3847 C   0  0  0  0  0  0  0  0  0  0  0  0
   42.8667   12.4873  -16.4067 C   0  0  0  0  0  0  0  0  0  0  0  0
   41.5037   12.3402  -16.3882 C   0  0  0  0  0  0  0  0  0  0  0  0
   40.9817   11.5742  -17.4596 O   0  0  0  0  0  0  0  0  0  0  0  0
   39.7272   11.8619  -18.0321 C   0  0  0  0  0  0  0  0  0  0  0  0
   38.5462   11.3956  -17.1750 C   0  0  0  0  0  0  0  0  0  0  0  0
   38.3760   12.1365  -15.9447 N   0  0  0  0  0  0  0  0  0  0  0  0
   39.2948   12.8133  -15.2174 C   0  0  0  0  0  0  0  0  0  0  0  0
   38.6887   13.4086  -14.1931 N   0  0  0  0  0  0  0  0  0  0  0  0
   37.3397   13.1008  -14.2590 C   0  0  0  0  0  0  0  0  0  0  0  0
   37.1333   12.3111  -15.3470 C   0  0  0  0  0  0  0  0  0  0  0  0
   40.7614   12.9159  -15.3837 C   0  0  0  0  0  0  0  0  0  0  0  0
   41.3449   13.6565  -14.3665 C   0  0  0  0  0  0  0  0  0  0  0  0
   35.8321   11.9004  -15.9245 C   0  0  0  0  0  0  0  0  0  0  0  0
   34.5838   11.9700  -15.3535 C   0  0  0  0  0  0  0  0  0  0  0  0
   33.6958   11.3189  -16.1505 N   0  0  0  0  0  0  0  0  0  0  0  0
   34.2823   10.8381  -17.1927 N   0  0  0  0  0  0  0  0  0  0  0  0
   35.6026   11.1733  -17.0941 C   0  0  0  0  0  0  0  0  0  0  0  0
   33.8545   10.2872  -17.9872 H   0  0  0  0  0  0  0  0  0  0  0  0
   36.4281   13.5775  -13.2186 C   0  0  0  0  0  0  0  0  0  0  0  0
   35.9058   14.9316  -13.3158 N   0  0  0  0  0  0  0  0  0  0  0  0
   36.0628   12.9050  -12.2481 O   0  0  0  0  0  0  0  0  0  0  0  0
   35.8368   15.3197  -14.2727 H   0  0  0  0  0  0  0  0  0  0  0  0
   35.6175   15.4871  -12.5111 H   0  0  0  0  0  0  0  0  0  0  0  0
   43.8743   15.2234  -12.4424 C   0  0  0  0  0  0  0  0  0  0  0  0
   43.3586   14.5821  -13.3233 C   0  0  0  0  0  0  0  0  0  0  0  0
   44.9090   17.3523  -11.8762 C   0  0  0  0  0  0  0  0  0  0  0  0
   44.4704   15.9964  -11.3770 C   0  0  0  0  0  0  0  0  0  0  0  0
   43.4942   16.2053  -10.2556 C   0  0  0  0  0  0  0  0  0  0  0  0
   45.6044   15.3730  -10.8283 O   0  0  0  0  0  0  0  0  0  0  0  0
   46.3464   15.3537  -11.4816 H   0  0  0  0  0  0  0  0  0  0  0  0
 28 29  1  0  0  0
 29 30  1  0  0  0
 29 31  1  0  0  0
 29 26  1  0  0  0
 26 27  3  0  0  0
 27  1  1  0  0  0
  1  2  2  0  0  0
  2  3  1  0  0  0
  3  4  2  0  0  0
  4  5  1  0  0  0
  5  6  1  0  0  0
  6  7  1  0  0  0
  7  8  1  0  0  0
  8  9  1  0  0  0
  9 10  2  0  0  0
 10 11  1  0  0  0
 11 21  1  0  0  0
 21 22  1  0  0  0
 21 23  2  0  0  0
 11 12  2  0  0  0
 12 15  1  0  0  0
 15 16  1  0  0  0
 16 17  2  0  0  0
 17 18  1  0  0  0
 18 19  1  0  0  0
  9 13  1  0  0  0
 13 14  2  0  0  0
 14  1  1  0  0  0
 13  4  1  0  0  0
 12  8  1  0  0  0
 19 15  2  0  0  0
 31 32  1  0  0  0
 22 24  1  0  0  0
 22 25  1  0  0  0
 18 20  1  0  0  0
M  END
> <minimizedAffinity>
-8.70662

> <CNNscore>
0.6588272452

> <CNNaffinity>
6.9862594604

> <CNN_VS>
4.6027379036

> <CNNaffinity_variance>
0.2345695943

$$$$
[H]OC(C#Cc1c([H])c([H])c2c(c1[H])-c1nc(C(=O)N([H])[H])c(-c3c([H])nn([H])c3[H])n1C([H])([H])C([H])([H])O2)(C([H])([H])[H])C([H])([H])[H]


 32 35  0  0  0  0  0  0  0  0999 V2000
   40.9806   15.0874   -8.2632 C   0  0  0  0  0  0  0  0  0  0  0  0
   40.9635   13.9021   -7.5534 C   0  0  0  0  0  0  0  0  0  0  0  0
   39.9868   13.6446   -6.5866 C   0  0  0  0  0  0  0  0  0  0  0  0
   39.0360   14.6052   -6.3562 C   0  0  0  0  0  0  0  0  0  0  0  0
   38.0846   14.2629   -5.3638 O   0  0  0  0  0  0  0  0  0  0  0  0
   36.7420   14.6800   -5.4512 C   0  0  0  0  0  0  0  0  0  0  0  0
   36.5375   16.1530   -5.0834 C   0  0  0  0  0  0  0  0  0  0  0  0
   37.0963   17.0863   -6.0363 N   0  0  0  0  0  0  0  0  0  0  0  0
   38.1236   16.9172   -6.9007 C   0  0  0  0  0  0  0  0  0  0  0  0
   38.2556   18.0142   -7.6423 N   0  0  0  0  0  0  0  0  0  0  0  0
   37.2881   18.9198   -7.2391 C   0  0  0  0  0  0  0  0  0  0  0  0
   36.5591   18.3518   -6.2412 C   0  0  0  0  0  0  0  0  0  0  0  0
   39.0595   15.7831   -7.0657 C   0  0  0  0  0  0  0  0  0  0  0  0
   40.0242   16.0466   -8.0267 C   0  0  0  0  0  0  0  0  0  0  0  0
   35.3055   18.8652   -5.6411 C   0  0  0  0  0  0  0  0  0  0  0  0
   35.1302   19.4822   -4.4255 C   0  0  0  0  0  0  0  0  0  0  0  0
   33.7992   19.6231   -4.1887 N   0  0  0  0  0  0  0  0  0  0  0  0
   33.1068   19.1435   -5.1644 N   0  0  0  0  0  0  0  0  0  0  0  0
   33.9965   18.6648   -6.0834 C   0  0  0  0  0  0  0  0  0  0  0  0
   32.0549   19.1112   -5.2650 H   0  0  0  0  0  0  0  0  0  0  0  0
   37.2304   20.2492   -7.8476 C   0  0  0  0  0  0  0  0  0  0  0  0
   35.9371   20.7725   -8.2589 N   0  0  0  0  0  0  0  0  0  0  0  0
   38.2140   20.9722   -8.0411 O   0  0  0  0  0  0  0  0  0  0  0  0
   35.1195   20.4143   -7.7351 H   0  0  0  0  0  0  0  0  0  0  0  0
   35.8126   21.4498   -9.0107 H   0  0  0  0  0  0  0  0  0  0  0  0
   42.8624   15.5541  -10.0925 C   0  0  0  0  0  0  0  0  0  0  0  0
   42.0111   15.3320   -9.2683 C   0  0  0  0  0  0  0  0  0  0  0  0
   44.8259   14.6763  -11.2316 C   0  0  0  0  0  0  0  0  0  0  0  0
   43.8817   15.8442  -11.0748 C   0  0  0  0  0  0  0  0  0  0  0  0
   43.2685   16.1318  -12.4147 C   0  0  0  0  0  0  0  0  0  0  0  0
   44.6619   16.9608  -10.7280 O   0  0  0  0  0  0  0  0  0  0  0  0
   45.2184   16.7686   -9.9336 H   0  0  0  0  0  0  0  0  0  0  0  0
 28 29  1  0  0  0
 29 30  1  0  0  0
 29 31  1  0  0  0
 29 26  1  0  0  0
 26 27  3  0  0  0
 27  1  1  0  0  0
  1  2  2  0  0  0
  2  3  1  0  0  0
  3  4  2  0  0  0
  4  5  1  0  0  0
  5  6  1  0  0  0
  6  7  1  0  0  0
  7  8  1  0  0  0
  8  9  1  0  0  0
  9 10  2  0  0  0
 10 11  1  0  0  0
 11 21  1  0  0  0
 21 22  1  0  0  0
 21 23  2  0  0  0
 11 12  2  0  0  0
 12 15  1  0  0  0
 15 16  1  0  0  0
 16 17  2  0  0  0
 17 18  1  0  0  0
 18 19  1  0  0  0
  9 13  1  0  0  0
 13 14  2  0  0  0
 14  1  1  0  0  0
 13  4  1  0  0  0
 12  8  1  0  0  0
 19 15  2  0  0  0
 31 32  1  0  0  0
 22 24  1  0  0  0
 22 25  1  0  0  0
 18 20  1  0  0  0
M  END
> <minimizedAffinity>
-4.68341

> <CNNscore>
0.4651848376

> <CNNaffinity>
5.5267686844

> <CNN_VS>
2.5709691048

> <CNNaffinity_variance>
0.8191787601

$$$$
[H]OC(C#Cc1c([H])c([H])c2c(c1[H])-c1nc(C(=O)N([H])[H])c(-c3c([H])nn([H])c3[H])n1C([H])([H])C([H])([H])O2)(C([H])([H])[H])C([H])([H])[H]


 32 35  0  0  0  0  0  0  0  0999 V2000
   45.0401   13.2602   -9.1872 C   0  0  0  0  0  0  0  0  0  0  0  0
   45.9959   12.2712   -9.0559 C   0  0  0  0  0  0  0  0  0  0  0  0
   47.1822   12.3001   -9.7955 C   0  0  0  0  0  0  0  0  0  0  0  0
   47.3778   13.3433  -10.6634 C   0  0  0  0  0  0  0  0  0  0  0  0
   48.6048   13.2964  -11.3701 O   0  0  0  0  0  0  0  0  0  0  0  0
   49.3067   14.4689  -11.7119 C   0  0  0  0  0  0  0  0  0  0  0  0
   48.6962   15.2188  -12.9000 C   0  0  0  0  0  0  0  0  0  0  0  0
   47.4153   15.8299  -12.6219 N   0  0  0  0  0  0  0  0  0  0  0  0
   46.4811   15.4841  -11.7060 C   0  0  0  0  0  0  0  0  0  0  0  0
   45.4837   16.3641  -11.7457 N   0  0  0  0  0  0  0  0  0  0  0  0
   45.7814   17.3016  -12.7211 C   0  0  0  0  0  0  0  0  0  0  0  0
   46.9828   16.9801  -13.2716 C   0  0  0  0  0  0  0  0  0  0  0  0
   46.4217   14.3239  -10.7898 C   0  0  0  0  0  0  0  0  0  0  0  0
   45.2426   14.3033  -10.0598 C   0  0  0  0  0  0  0  0  0  0  0  0
   47.7891   17.7980  -14.2078 C   0  0  0  0  0  0  0  0  0  0  0  0
   47.9962   17.6026  -15.5524 C   0  0  0  0  0  0  0  0  0  0  0  0
   48.9452   18.4743  -15.9852 N   0  0  0  0  0  0  0  0  0  0  0  0
   49.3612   19.2165  -15.0170 N   0  0  0  0  0  0  0  0  0  0  0  0
   48.6743   18.8330  -13.9006 C   0  0  0  0  0  0  0  0  0  0  0  0
   50.0902   19.9816  -15.0472 H   0  0  0  0  0  0  0  0  0  0  0  0
   44.8273   18.3678  -13.0275 C   0  0  0  0  0  0  0  0  0  0  0  0
   43.4877   18.0020  -13.4600 N   0  0  0  0  0  0  0  0  0  0  0  0
   45.0786   19.5751  -12.9446 O   0  0  0  0  0  0  0  0  0  0  0  0
   43.1406   17.0867  -13.1241 H   0  0  0  0  0  0  0  0  0  0  0  0
   42.9040   18.5889  -14.0552 H   0  0  0  0  0  0  0  0  0  0  0  0
   42.7907   13.1842   -7.7591 C   0  0  0  0  0  0  0  0  0  0  0  0
   43.8096   13.2074   -8.4029 C   0  0  0  0  0  0  0  0  0  0  0  0
   41.8605   13.2619   -5.5114 C   0  0  0  0  0  0  0  0  0  0  0  0
   41.5671   13.1806   -6.9903 C   0  0  0  0  0  0  0  0  0  0  0  0
   40.6992   14.3489   -7.3588 C   0  0  0  0  0  0  0  0  0  0  0  0
   40.8052   12.0175   -7.1958 O   0  0  0  0  0  0  0  0  0  0  0  0
   41.2631   11.2256   -6.8202 H   0  0  0  0  0  0  0  0  0  0  0  0
 28 29  1  0  0  0
 29 30  1  0  0  0
 29 31  1  0  0  0
 29 26  1  0  0  0
 26 27  3  0  0  0
 27  1  1  0  0  0
  1  2  2  0  0  0
  2  3  1  0  0  0
  3  4  2  0  0  0
  4  5  1  0  0  0
  5  6  1  0  0  0
  6  7  1  0  0  0
  7  8  1  0  0  0
  8  9  1  0  0  0
  9 10  2  0  0  0
 10 11  1  0  0  0
 11 21  1  0  0  0
 21 22  1  0  0  0
 21 23  2  0  0  0
 11 12  2  0  0  0
 12 15  1  0  0  0
 15 16  1  0  0  0
 16 17  2  0  0  0
 17 18  1  0  0  0
 18 19  1  0  0  0
  9 13  1  0  0  0
 13 14  2  0  0  0
 14  1  1  0  0  0
 13  4  1  0  0  0
 12  8  1  0  0  0
 19 15  2  0  0  0
 31 32  1  0  0  0
 22 24  1  0  0  0
 22 25  1  0  0  0
 18 20  1  0  0  0
M  END
> <minimizedAffinity>
-4.06312

> <CNNscore>
0.4389262795

> <CNNaffinity>
5.2729759216

> <CNN_VS>
2.3144476414

> <CNNaffinity_variance>
0.5555778742

$$$$
[H]OC(C#Cc1c([H])c([H])c2c(c1[H])-c1nc(C(=O)N([H])[H])c(-c3c([H])nn([H])c3[H])n1C([H])([H])C([H])([H])O2)(C([H])([H])[H])C([H])([H])[H]


 32 35  0  0  0  0  0  0  0  0999 V2000
   40.4852   16.1074  -11.2485 C   0  0  0  0  0  0  0  0  0  0  0  0
   41.8590   16.1497  -11.1074 C   0  0  0  0  0  0  0  0  0  0  0  0
   42.7052   15.4905  -12.0042 C   0  0  0  0  0  0  0  0  0  0  0  0
   42.1350   14.7935  -13.0381 C   0  0  0  0  0  0  0  0  0  0  0  0
   43.0629   14.1581  -13.8997 O   0  0  0  0  0  0  0  0  0  0  0  0
   42.8204   14.0282  -15.2812 C   0  0  0  0  0  0  0  0  0  0  0  0
   41.8110   12.9271  -15.6207 C   0  0  0  0  0  0  0  0  0  0  0  0
   40.4552   13.2167  -15.2090 N   0  0  0  0  0  0  0  0  0  0  0  0
   40.0147   14.0191  -14.2123 C   0  0  0  0  0  0  0  0  0  0  0  0
   38.6845   14.0494  -14.2316 N   0  0  0  0  0  0  0  0  0  0  0  0
   38.2549   13.2369  -15.2680 C   0  0  0  0  0  0  0  0  0  0  0  0
   39.3490   12.7150  -15.8848 C   0  0  0  0  0  0  0  0  0  0  0  0
   40.7667   14.7548  -13.1720 C   0  0  0  0  0  0  0  0  0  0  0  0
   39.9200   15.4062  -12.2875 C   0  0  0  0  0  0  0  0  0  0  0  0
   39.3857   11.9530  -17.1549 C   0  0  0  0  0  0  0  0  0  0  0  0
   38.8852   10.6994  -17.4140 C   0  0  0  0  0  0  0  0  0  0  0  0
   39.2959   10.3054  -18.6484 N   0  0  0  0  0  0  0  0  0  0  0  0
   40.0220   11.2153  -19.2018 N   0  0  0  0  0  0  0  0  0  0  0  0
   40.1039   12.2505  -18.3147 C   0  0  0  0  0  0  0  0  0  0  0  0
   40.4799   11.1958  -20.1545 H   0  0  0  0  0  0  0  0  0  0  0  0
   36.8237   13.0327  -15.4936 C   0  0  0  0  0  0  0  0  0  0  0  0
   35.8876   14.0120  -14.9640 N   0  0  0  0  0  0  0  0  0  0  0  0
   36.3432   12.0755  -16.1103 O   0  0  0  0  0  0  0  0  0  0  0  0
   36.2556   14.9730  -14.8543 H   0  0  0  0  0  0  0  0  0  0  0  0
   34.9245   13.7955  -14.7090 H   0  0  0  0  0  0  0  0  0  0  0  0
   38.8969   17.3832   -9.5296 C   0  0  0  0  0  0  0  0  0  0  0  0
   39.6230   16.8050  -10.2987 C   0  0  0  0  0  0  0  0  0  0  0  0
   37.7618   19.4926   -9.0992 C   0  0  0  0  0  0  0  0  0  0  0  0
   38.0107   18.0805   -8.6260 C   0  0  0  0  0  0  0  0  0  0  0  0
   36.6860   17.3808   -8.5280 C   0  0  0  0  0  0  0  0  0  0  0  0
   38.5301   18.1685   -7.3229 O   0  0  0  0  0  0  0  0  0  0  0  0
   39.3228   18.7592   -7.2988 H   0  0  0  0  0  0  0  0  0  0  0  0
 28 29  1  0  0  0
 29 30  1  0  0  0
 29 31  1  0  0  0
 29 26  1  0  0  0
 26 27  3  0  0  0
 27  1  1  0  0  0
  1  2  2  0  0  0
  2  3  1  0  0  0
  3  4  2  0  0  0
  4  5  1  0  0  0
  5  6  1  0  0  0
  6  7  1  0  0  0
  7  8  1  0  0  0
  8  9  1  0  0  0
  9 10  2  0  0  0
 10 11  1  0  0  0
 11 21  1  0  0  0
 21 22  1  0  0  0
 21 23  2  0  0  0
 11 12  2  0  0  0
 12 15  1  0  0  0
 15 16  1  0  0  0
 16 17  2  0  0  0
 17 18  1  0  0  0
 18 19  1  0  0  0
  9 13  1  0  0  0
 13 14  2  0  0  0
 14  1  1  0  0  0
 13  4  1  0  0  0
 12  8  1  0  0  0
 19 15  2  0  0  0
 31 32  1  0  0  0
 22 24  1  0  0  0
 22 25  1  0  0  0
 18 20  1  0  0  0
M  END
> <minimizedAffinity>
-6.73407

> <CNNscore>
0.3919399083

> <CNNaffinity>
6.3453035355

> <CNN_VS>
2.4869775772

> <CNNaffinity_variance>
0.3136486411

$$$$
[H]OC(C#Cc1c([H])c([H])c2c(c1[H])-c1nc(C(=O)N([H])[H])c(-c3c([H])nn([H])c3[H])n1C([H])([H])C([H])([H])O2)(C([H])([H])[H])C([H])([H])[H]


 32 35  0  0  0  0  0  0  0  0999 V2000
   41.3834   13.0492   -5.9918 C   0  0  0  0  0  0  0  0  0  0  0  0
   42.0712   12.1785   -5.1686 C   0  0  0  0  0  0  0  0  0  0  0  0
   43.3138   11.6539   -5.5371 C   0  0  0  0  0  0  0  0  0  0  0  0
   43.8401   12.0270   -6.7468 C   0  0  0  0  0  0  0  0  0  0  0  0
   45.1012   11.4520   -7.0404 O   0  0  0  0  0  0  0  0  0  0  0  0
   46.0833   12.1540   -7.7663 C   0  0  0  0  0  0  0  0  0  0  0  0
   45.8027   12.2108   -9.2713 C   0  0  0  0  0  0  0  0  0  0  0  0
   44.6669   13.0296   -9.6333 N   0  0  0  0  0  0  0  0  0  0  0  0
   43.5762   13.3547   -8.9013 C   0  0  0  0  0  0  0  0  0  0  0  0
   42.8129   14.1896   -9.6020 N   0  0  0  0  0  0  0  0  0  0  0  0
   43.4273   14.4038  -10.8249 C   0  0  0  0  0  0  0  0  0  0  0  0
   44.5836   13.6883  -10.8545 C   0  0  0  0  0  0  0  0  0  0  0  0
   43.1497   12.8934   -7.5617 C   0  0  0  0  0  0  0  0  0  0  0  0
   41.9170   13.4189   -7.2040 C   0  0  0  0  0  0  0  0  0  0  0  0
   45.6585   13.7607  -11.8716 C   0  0  0  0  0  0  0  0  0  0  0  0
   46.6214   14.7286  -12.0298 C   0  0  0  0  0  0  0  0  0  0  0  0
   47.2874   14.5042  -13.1933 N   0  0  0  0  0  0  0  0  0  0  0  0
   46.8239   13.4615  -13.7928 N   0  0  0  0  0  0  0  0  0  0  0  0
   45.8164   12.9708  -13.0120 C   0  0  0  0  0  0  0  0  0  0  0  0
   47.1391   13.0414  -14.7104 H   0  0  0  0  0  0  0  0  0  0  0  0
   42.7795   15.2438  -11.8327 C   0  0  0  0  0  0  0  0  0  0  0  0
   41.9662   14.6046  -12.8553 N   0  0  0  0  0  0  0  0  0  0  0  0
   42.8729   16.4752  -11.8807 O   0  0  0  0  0  0  0  0  0  0  0  0
   41.5355   13.7021  -12.5888 H   0  0  0  0  0  0  0  0  0  0  0  0
   41.8116   14.9965  -13.7837 H   0  0  0  0  0  0  0  0  0  0  0  0
   39.0239   14.0444   -5.2516 C   0  0  0  0  0  0  0  0  0  0  0  0
   40.0873   13.5838   -5.5838 C   0  0  0  0  0  0  0  0  0  0  0  0
   36.6119   13.9250   -5.5533 C   0  0  0  0  0  0  0  0  0  0  0  0
   37.7581   14.6190   -4.8572 C   0  0  0  0  0  0  0  0  0  0  0  0
   37.5502   14.4922   -3.3758 C   0  0  0  0  0  0  0  0  0  0  0  0
   37.6651   15.9855   -5.1731 O   0  0  0  0  0  0  0  0  0  0  0  0
   37.6330   16.1193   -6.1523 H   0  0  0  0  0  0  0  0  0  0  0  0
 28 29  1  0  0  0
 29 30  1  0  0  0
 29 31  1  0  0  0
 29 26  1  0  0  0
 26 27  3  0  0  0
 27  1  1  0  0  0
  1  2  2  0  0  0
  2  3  1  0  0  0
  3  4  2  0  0  0
  4  5  1  0  0  0
  5  6  1  0  0  0
  6  7  1  0  0  0
  7  8  1  0  0  0
  8  9  1  0  0  0
  9 10  2  0  0  0
 10 11  1  0  0  0
 11 21  1  0  0  0
 21 22  1  0  0  0
 21 23  2  0  0  0
 11 12  2  0  0  0
 12 15  1  0  0  0
 15 16  1  0  0  0
 16 17  2  0  0  0
 17 18  1  0  0  0
 18 19  1  0  0  0
  9 13  1  0  0  0
 13 14  2  0  0  0
 14  1  1  0  0  0
 13  4  1  0  0  0
 12  8  1  0  0  0
 19 15  2  0  0  0
 31 32  1  0  0  0
 22 24  1  0  0  0
 22 25  1  0  0  0
 18 20  1  0  0  0
M  END
> <minimizedAffinity>
-4.84350

> <CNNscore>
0.2776230574

> <CNNaffinity>
5.1117753983

> <CNN_VS>
1.4191466570

> <CNNaffinity_variance>
0.3693451881

$$$$
[H]OC(C#Cc1c([H])c([H])c2c(c1[H])-c1nc(C(=O)N([H])[H])c(-c3c([H])nn([H])c3[H])n1C([H])([H])C([H])([H])O2)(C([H])([H])[H])C([H])([H])[H]


 32 35  0  0  0  0  0  0  0  0999 V2000
   40.0740   14.2040   -7.5960 C   0  0  0  0  0  0  0  0  0  0  0  0
   39.5770   13.8013   -6.3714 C   0  0  0  0  0  0  0  0  0  0  0  0
   40.3398   13.0246   -5.4940 C   0  0  0  0  0  0  0  0  0  0  0  0
   41.6060   12.6677   -5.8803 C   0  0  0  0  0  0  0  0  0  0  0  0
   42.3096   11.8839   -4.9328 O   0  0  0  0  0  0  0  0  0  0  0  0
   43.7031   12.0019   -4.7641 C   0  0  0  0  0  0  0  0  0  0  0  0
   44.5100   11.3168   -5.8714 C   0  0  0  0  0  0  0  0  0  0  0  0
   44.4125   11.9609   -7.1626 N   0  0  0  0  0  0  0  0  0  0  0  0
   43.4212   12.7349   -7.6620 C   0  0  0  0  0  0  0  0  0  0  0  0
   43.7771   13.1780   -8.8653 N   0  0  0  0  0  0  0  0  0  0  0  0
   45.0330   12.6688   -9.1524 C   0  0  0  0  0  0  0  0  0  0  0  0
   45.4393   11.9114   -8.0982 C   0  0  0  0  0  0  0  0  0  0  0  0
   42.0941   13.0713   -7.1012 C   0  0  0  0  0  0  0  0  0  0  0  0
   41.3445   13.8421   -7.9773 C   0  0  0  0  0  0  0  0  0  0  0  0
   46.7849   11.3333   -7.8738 C   0  0  0  0  0  0  0  0  0  0  0  0
   47.8588   11.8949   -7.2254 C   0  0  0  0  0  0  0  0  0  0  0  0
   48.9493   11.1044   -7.4089 N   0  0  0  0  0  0  0  0  0  0  0  0
   48.6536   10.0750   -8.1261 N   0  0  0  0  0  0  0  0  0  0  0  0
   47.3271   10.1758   -8.4356 C   0  0  0  0  0  0  0  0  0  0  0  0
   49.2895    9.2881   -8.4329 H   0  0  0  0  0  0  0  0  0  0  0  0
   45.6578   12.9468  -10.4459 C   0  0  0  0  0  0  0  0  0  0  0  0
   46.5685   14.0759  -10.5523 N   0  0  0  0  0  0  0  0  0  0  0  0
   45.4667   12.2833  -11.4710 O   0  0  0  0  0  0  0  0  0  0  0  0
   47.0580   14.3430   -9.6805 H   0  0  0  0  0  0  0  0  0  0  0  0
   46.7350   14.5904  -11.4166 H   0  0  0  0  0  0  0  0  0  0  0  0
   38.5888   15.7024   -9.2252 C   0  0  0  0  0  0  0  0  0  0  0  0
   39.2575   15.0154   -8.4943 C   0  0  0  0  0  0  0  0  0  0  0  0
   37.3738   15.7995  -11.3318 C   0  0  0  0  0  0  0  0  0  0  0  0
   37.7926   16.5453  -10.0875 C   0  0  0  0  0  0  0  0  0  0  0  0
   36.5517   17.0124   -9.3833 C   0  0  0  0  0  0  0  0  0  0  0  0
   38.4864   17.6928  -10.5091 O   0  0  0  0  0  0  0  0  0  0  0  0
   39.2280   17.4524  -11.1173 H   0  0  0  0  0  0  0  0  0  0  0  0
 28 29  1  0  0  0
 29 30  1  0  0  0
 29 31  1  0  0  0
 29 26  1  0  0  0
 26 27  3  0  0  0
 27  1  1  0  0  0
  1  2  2  0  0  0
  2  3  1  0  0  0
  3  4  2  0  0  0
  4  5  1  0  0  0
  5  6  1  0  0  0
  6  7  1  0  0  0
  7  8  1  0  0  0
  8  9  1  0  0  0
  9 10  2  0  0  0
 10 11  1  0  0  0
 11 21  1  0  0  0
 21 22  1  0  0  0
 21 23  2  0  0  0
 11 12  2  0  0  0
 12 15  1  0  0  0
 15 16  1  0  0  0
 16 17  2  0  0  0
 17 18  1  0  0  0
 18 19  1  0  0  0
  9 13  1  0  0  0
 13 14  2  0  0  0
 14  1  1  0  0  0
 13  4  1  0  0  0
 12  8  1  0  0  0
 19 15  2  0  0  0
 31 32  1  0  0  0
 22 24  1  0  0  0
 22 25  1  0  0  0
 18 20  1  0  0  0
M  END
> <minimizedAffinity>
-4.74173

> <CNNscore>
0.2773690820

> <CNNaffinity>
5.1417360306

> <CNN_VS>
1.4261585474

> <CNNaffinity_variance>
0.3360772729

$$$$
[H]OC(C#Cc1c([H])c([H])c2c(c1[H])-c1nc(C(=O)N([H])[H])c(-c3c([H])nn([H])c3[H])n1C([H])([H])C([H])([H])O2)(C([H])([H])[H])C([H])([H])[H]


 32 35  0  0  0  0  0  0  0  0999 V2000
   38.6332   12.2157  -16.0481 C   0  0  0  0  0  0  0  0  0  0  0  0
   38.9077   11.6056  -17.2570 C   0  0  0  0  0  0  0  0  0  0  0  0
   40.2091   11.5446  -17.7646 C   0  0  0  0  0  0  0  0  0  0  0  0
   41.2177   12.1099  -17.0277 C   0  0  0  0  0  0  0  0  0  0  0  0
   42.5034   12.0018  -17.6128 O   0  0  0  0  0  0  0  0  0  0  0  0
   43.6622   11.8426  -16.8279 C   0  0  0  0  0  0  0  0  0  0  0  0
   44.1219   13.1382  -16.1521 C   0  0  0  0  0  0  0  0  0  0  0  0
   43.2393   13.6087  -15.1075 N   0  0  0  0  0  0  0  0  0  0  0  0
   41.9133   13.3940  -14.9441 C   0  0  0  0  0  0  0  0  0  0  0  0
   41.5169   13.9562  -13.8050 N   0  0  0  0  0  0  0  0  0  0  0  0
   42.6197   14.5566  -13.2199 C   0  0  0  0  0  0  0  0  0  0  0  0
   43.6981   14.3446  -14.0212 C   0  0  0  0  0  0  0  0  0  0  0  0
   40.9371   12.7164  -15.8256 C   0  0  0  0  0  0  0  0  0  0  0  0
   39.6494   12.7810  -15.3145 C   0  0  0  0  0  0  0  0  0  0  0  0
   45.1182   14.6300  -13.7094 C   0  0  0  0  0  0  0  0  0  0  0  0
   45.9561   13.9591  -12.8510 C   0  0  0  0  0  0  0  0  0  0  0  0
   47.1129   14.6614  -12.7231 N   0  0  0  0  0  0  0  0  0  0  0  0
   47.0799   15.7332  -13.4382 N   0  0  0  0  0  0  0  0  0  0  0  0
   45.8662   15.7543  -14.0642 C   0  0  0  0  0  0  0  0  0  0  0  0
   47.8285   16.4724  -13.5423 H   0  0  0  0  0  0  0  0  0  0  0  0
   42.4694   15.3071  -11.9729 C   0  0  0  0  0  0  0  0  0  0  0  0
   42.6414   14.6045  -10.7110 N   0  0  0  0  0  0  0  0  0  0  0  0
   42.2034   16.5124  -11.9107 O   0  0  0  0  0  0  0  0  0  0  0  0
   43.2622   13.7769  -10.7377 H   0  0  0  0  0  0  0  0  0  0  0  0
   42.1929   14.8859   -9.8398 H   0  0  0  0  0  0  0  0  0  0  0  0
   36.1436   12.3118  -15.1006 C   0  0  0  0  0  0  0  0  0  0  0  0
   37.2654   12.2657  -15.5394 C   0  0  0  0  0  0  0  0  0  0  0  0
   34.2883   13.7889  -14.5530 C   0  0  0  0  0  0  0  0  0  0  0  0
   34.8080   12.3712  -14.5521 C   0  0  0  0  0  0  0  0  0  0  0  0
   33.8611   11.5264  -15.3544 C   0  0  0  0  0  0  0  0  0  0  0  0
   34.7498   11.9121  -13.2248 O   0  0  0  0  0  0  0  0  0  0  0  0
   35.2278   12.5289  -12.6175 H   0  0  0  0  0  0  0  0  0  0  0  0
 28 29  1  0  0  0
 29 30  1  0  0  0
 29 31  1  0  0  0
 29 26  1  0  0  0
 26 27  3  0  0  0
 27  1  1  0  0  0
  1  2  2  0  0  0
  2  3  1  0  0  0
  3  4  2  0  0  0
  4  5  1  0  0  0
  5  6  1  0  0  0
  6  7  1  0  0  0
  7  8  1  0  0  0
  8  9  1  0  0  0
  9 10  2  0  0  0
 10 11  1  0  0  0
 11 21  1  0  0  0
 21 22  1  0  0  0
 21 23  2  0  0  0
 11 12  2  0  0  0
 12 15  1  0  0  0
 15 16  1  0  0  0
 16 17  2  0  0  0
 17 18  1  0  0  0
 18 19  1  0  0  0
  9 13  1  0  0  0
 13 14  2  0  0  0
 14  1  1  0  0  0
 13  4  1  0  0  0
 12  8  1  0  0  0
 19 15  2  0  0  0
 31 32  1  0  0  0
 22 24  1  0  0  0
 22 25  1  0  0  0
 18 20  1  0  0  0
M  END
> <minimizedAffinity>
-8.47817

> <CNNscore>
0.1823917776

> <CNNaffinity>
6.2170343399

> <CNN_VS>
1.1339359283

> <CNNaffinity_variance>
0.0554013364

$$$$
[H]OC(C#Cc1c([H])c([H])c2c(c1[H])-c1nc(C(=O)N([H])[H])c(-c3c([H])nn([H])c3[H])n1C([H])([H])C([H])([H])O2)(C([H])([H])[H])C([H])([H])[H]


 32 35  0  0  0  0  0  0  0  0999 V2000
   36.2583   13.0988  -14.8812 C   0  0  0  0  0  0  0  0  0  0  0  0
   35.8251   12.3467  -15.9562 C   0  0  0  0  0  0  0  0  0  0  0  0
   36.7284   11.7657  -16.8515 C   0  0  0  0  0  0  0  0  0  0  0  0
   38.0682   11.9611  -16.6363 C   0  0  0  0  0  0  0  0  0  0  0  0
   38.9125   11.3369  -17.5876 O   0  0  0  0  0  0  0  0  0  0  0  0
   40.1684   10.8098  -17.2286 C   0  0  0  0  0  0  0  0  0  0  0  0
   41.2452   11.8820  -17.0347 C   0  0  0  0  0  0  0  0  0  0  0  0
   41.0451   12.7219  -15.8746 N   0  0  0  0  0  0  0  0  0  0  0  0
   39.8971   13.0332  -15.2292 C   0  0  0  0  0  0  0  0  0  0  0  0
   40.1826   13.7819  -14.1668 N   0  0  0  0  0  0  0  0  0  0  0  0
   41.5554   13.9636  -14.1301 C   0  0  0  0  0  0  0  0  0  0  0  0
   42.1028   13.3061  -15.1875 C   0  0  0  0  0  0  0  0  0  0  0  0
   38.4925   12.7116  -15.5647 C   0  0  0  0  0  0  0  0  0  0  0  0
   37.6036   13.2911  -14.6716 C   0  0  0  0  0  0  0  0  0  0  0  0
   43.5409   13.0584  -15.4438 C   0  0  0  0  0  0  0  0  0  0  0  0
   44.1240   12.4651  -16.5380 C   0  0  0  0  0  0  0  0  0  0  0  0
   45.4451   12.2706  -16.2843 N   0  0  0  0  0  0  0  0  0  0  0  0
   45.7535   12.6974  -15.1078 N   0  0  0  0  0  0  0  0  0  0  0  0
   44.6076   13.1919  -14.5530 C   0  0  0  0  0  0  0  0  0  0  0  0
   46.6988   12.6827  -14.6345 H   0  0  0  0  0  0  0  0  0  0  0  0
   42.1557   14.8014  -13.0916 C   0  0  0  0  0  0  0  0  0  0  0  0
   42.5648   14.1782  -11.8427 N   0  0  0  0  0  0  0  0  0  0  0  0
   42.3444   16.0182  -13.1981 O   0  0  0  0  0  0  0  0  0  0  0  0
   42.8188   13.1766  -11.9015 H   0  0  0  0  0  0  0  0  0  0  0  0
   42.6088   14.6707  -10.9511 H   0  0  0  0  0  0  0  0  0  0  0  0
   34.5067   14.2055  -13.2042 C   0  0  0  0  0  0  0  0  0  0  0  0
   35.2947   13.6947  -13.9600 C   0  0  0  0  0  0  0  0  0  0  0  0
   32.4221   13.9156  -11.9821 C   0  0  0  0  0  0  0  0  0  0  0  0
   33.5724   14.8397  -12.3026 C   0  0  0  0  0  0  0  0  0  0  0  0
   34.2429   15.2151  -11.0128 C   0  0  0  0  0  0  0  0  0  0  0  0
   33.0192   16.0152  -12.8392 O   0  0  0  0  0  0  0  0  0  0  0  0
   32.4281   15.8087  -13.6046 H   0  0  0  0  0  0  0  0  0  0  0  0
 28 29  1  0  0  0
 29 30  1  0  0  0
 29 31  1  0  0  0
 29 26  1  0  0  0
 26 27  3  0  0  0
 27  1  1  0  0  0
  1  2  2  0  0  0
  2  3  1  0  0  0
  3  4  2  0  0  0
  4  5  1  0  0  0
  5  6  1  0  0  0
  6  7  1  0  0  0
  7  8  1  0  0  0
  8  9  1  0  0  0
  9 10  2  0  0  0
 10 11  1  0  0  0
 11 21  1  0  0  0
 21 22  1  0  0  0
 21 23  2  0  0  0
 11 12  2  0  0  0
 12 15  1  0  0  0
 15 16  1  0  0  0
 16 17  2  0  0  0
 17 18  1  0  0  0
 18 19  1  0  0  0
  9 13  1  0  0  0
 13 14  2  0  0  0
 14  1  1  0  0  0
 13  4  1  0  0  0
 12  8  1  0  0  0
 19 15  2  0  0  0
 31 32  1  0  0  0
 22 24  1  0  0  0
 22 25  1  0  0  0
 18 20  1  0  0  0
M  END
> <minimizedAffinity>
-6.73493

> <CNNscore>
0.1792324930

> <CNNaffinity>
6.4842796326

> <CNN_VS>
1.1621936560

> <CNNaffinity_variance>
0.2106453180

$$$$
[H]OC(C#Cc1c([H])c([H])c2c(c1[H])-c1nc(C(=O)N([H])[H])c(-c3c([H])nn([H])c3[H])n1C([H])([H])C([H])([H])O2)(C([H])([H])[H])C([H])([H])[H]


 32 35  0  0  0  0  0  0  0  0999 V2000
   42.9229   15.8482  -11.5826 C   0  0  0  0  0  0  0  0  0  0  0  0
   42.0506   16.1611  -12.6072 C   0  0  0  0  0  0  0  0  0  0  0  0
   40.6993   16.4225  -12.3609 C   0  0  0  0  0  0  0  0  0  0  0  0
   40.2544   16.3605  -11.0655 C   0  0  0  0  0  0  0  0  0  0  0  0
   38.8750   16.6405  -10.9047 O   0  0  0  0  0  0  0  0  0  0  0  0
   38.3828   17.3024   -9.7628 C   0  0  0  0  0  0  0  0  0  0  0  0
   38.3043   16.4032   -8.5251 C   0  0  0  0  0  0  0  0  0  0  0  0
   39.5907   16.0163   -7.9895 N   0  0  0  0  0  0  0  0  0  0  0  0
   40.7846   15.9116   -8.6177 C   0  0  0  0  0  0  0  0  0  0  0  0
   41.7203   15.5923   -7.7270 N   0  0  0  0  0  0  0  0  0  0  0  0
   41.1095   15.4818   -6.4886 C   0  0  0  0  0  0  0  0  0  0  0  0
   39.7839   15.7459   -6.6398 C   0  0  0  0  0  0  0  0  0  0  0  0
   41.1281   16.0474  -10.0504 C   0  0  0  0  0  0  0  0  0  0  0  0
   42.4699   15.7873  -10.2857 C   0  0  0  0  0  0  0  0  0  0  0  0
   38.7786   15.9370   -5.5683 C   0  0  0  0  0  0  0  0  0  0  0  0
   37.8504   15.0392   -5.0976 C   0  0  0  0  0  0  0  0  0  0  0  0
   37.0078   15.6801   -4.2450 N   0  0  0  0  0  0  0  0  0  0  0  0
   37.3283   16.9235   -4.1323 N   0  0  0  0  0  0  0  0  0  0  0  0
   38.4164   17.1261   -4.9325 C   0  0  0  0  0  0  0  0  0  0  0  0
   36.8614   17.6678   -3.5442 H   0  0  0  0  0  0  0  0  0  0  0  0
   41.8924   15.0814   -5.3191 C   0  0  0  0  0  0  0  0  0  0  0  0
   42.4195   13.7269   -5.2631 N   0  0  0  0  0  0  0  0  0  0  0  0
   42.1433   15.8198   -4.3603 O   0  0  0  0  0  0  0  0  0  0  0  0
   42.5990   13.2757   -6.1770 H   0  0  0  0  0  0  0  0  0  0  0  0
   42.6107   13.2285   -4.3945 H   0  0  0  0  0  0  0  0  0  0  0  0
   45.4952   15.3565  -12.0795 C   0  0  0  0  0  0  0  0  0  0  0  0
   44.3300   15.5799  -11.8660 C   0  0  0  0  0  0  0  0  0  0  0  0
   47.2135   15.1219  -13.7870 C   0  0  0  0  0  0  0  0  0  0  0  0
   46.8960   15.0880  -12.3112 C   0  0  0  0  0  0  0  0  0  0  0  0
   47.7579   16.1079  -11.6249 C   0  0  0  0  0  0  0  0  0  0  0  0
   47.2887   13.8255  -11.8343 O   0  0  0  0  0  0  0  0  0  0  0  0
   46.8707   13.1031  -12.3646 H   0  0  0  0  0  0  0  0  0  0  0  0
 28 29  1  0  0  0
 29 30  1  0  0  0
 29 31  1  0  0  0
 29 26  1  0  0  0
 26 27  3  0  0  0
 27  1  1  0  0  0
  1  2  2  0  0  0
  2  3  1  0  0  0
  3  4  2  0  0  0
  4  5  1  0  0  0
  5  6  1  0  0  0
  6  7  1  0  0  0
  7  8  1  0  0  0
  8  9  1  0  0  0
  9 10  2  0  0  0
 10 11  1  0  0  0
 11 21  1  0  0  0
 21 22  1  0  0  0
 21 23  2  0  0  0
 11 12  2  0  0  0
 12 15  1  0  0  0
 15 16  1  0  0  0
 16 17  2  0  0  0
 17 18  1  0  0  0
 18 19  1  0  0  0
  9 13  1  0  0  0
 13 14  2  0  0  0
 14  1  1  0  0  0
 13  4  1  0  0  0
 12  8  1  0  0  0
 19 15  2  0  0  0
 31 32  1  0  0  0
 22 24  1  0  0  0
 22 25  1  0  0  0
 18 20  1  0  0  0
M  END
> <minimizedAffinity>
-5.07860

> <CNNscore>
0.1678607464

> <CNNaffinity>
5.0474910736

> <CNN_VS>
0.8472756147

> <CNNaffinity_variance>
0.5004535317

$$$$
[H]O[C@](C#Cc1c([H])c([H])c2c(c1[H])-c1nc(C(=O)N([H])[H])c([H])n1C1([H])C([H])([H])C2([H])C1([H])[H])(c1nc([H])c(C([H])([H])[H])o1)C([H])([H])[H]


 32 36  0  0  0  0  0  0  0  0999 V2000
   36.5939   13.8083  -13.0565 C   0  0  0  0  0  0  0  0  0  0  0  0
   35.2607   13.5620  -12.7750 C   0  0  0  0  0  0  0  0  0  0  0  0
   34.4550   12.7657  -13.5638 C   0  0  0  0  0  0  0  0  0  0  0  0
   34.9847   12.1913  -14.6716 C   0  0  0  0  0  0  0  0  0  0  0  0
   34.0192   11.3446  -15.4651 C   0  0  0  0  0  0  0  0  0  0  0  0
   34.1241   11.6786  -16.9561 C   0  0  0  0  0  0  0  0  0  0  0  0
   35.1331   10.5675  -17.1900 C   0  0  0  0  0  0  0  0  0  0  0  0
   34.6935   10.0355  -15.8184 C   0  0  0  0  0  0  0  0  0  0  0  0
   36.5037   11.0490  -17.1225 N   0  0  0  0  0  0  0  0  0  0  0  0
   37.4580   10.7635  -18.0107 C   0  0  0  0  0  0  0  0  0  0  0  0
   38.6477   11.3954  -17.6338 C   0  0  0  0  0  0  0  0  0  0  0  0
   38.3344   12.0525  -16.4956 N   0  0  0  0  0  0  0  0  0  0  0  0
   37.0512   11.8605  -16.1671 C   0  0  0  0  0  0  0  0  0  0  0  0
   36.3248   12.4015  -15.0101 C   0  0  0  0  0  0  0  0  0  0  0  0
   37.0906   13.2043  -14.1924 C   0  0  0  0  0  0  0  0  0  0  0  0
   39.9253   11.3505  -18.3243 C   0  0  0  0  0  0  0  0  0  0  0  0
   41.0769   11.9076  -17.7359 N   0  0  0  0  0  0  0  0  0  0  0  0
   40.0021   10.8122  -19.4503 O   0  0  0  0  0  0  0  0  0  0  0  0
   40.9748   12.4495  -16.8345 H   0  0  0  0  0  0  0  0  0  0  0  0
   42.0108   11.7839  -18.1879 H   0  0  0  0  0  0  0  0  0  0  0  0
   38.0925   15.3609  -11.5170 C   0  0  0  0  0  0  0  0  0  0  0  0
   37.4131   14.6450  -12.2131 C   0  0  0  0  0  0  0  0  0  0  0  0
   38.9397   16.2173  -10.6528 C   0  0  0  0  0  0  0  0  0  0  0  0
   40.2958   16.2503  -11.3239 C   0  0  0  0  0  0  0  0  0  0  0  0
   38.4685   17.5128  -10.6127 O   0  0  0  0  0  0  0  0  0  0  0  0
   37.5307   17.5963  -10.3111 H   0  0  0  0  0  0  0  0  0  0  0  0
   38.0841   13.4797   -6.6176 C   0  0  0  0  0  0  0  0  0  0  0  0
   38.7157   14.4995   -7.4829 C   0  0  0  0  0  0  0  0  0  0  0  0
   39.7424   15.3647   -7.2212 C   0  0  0  0  0  0  0  0  0  0  0  0
   39.9280   16.0746   -8.3411 N   0  0  0  0  0  0  0  0  0  0  0  0
   39.0468   15.6676   -9.2744 C   0  0  0  0  0  0  0  0  0  0  0  0
   38.3301   14.7228   -8.7372 O   0  0  0  0  0  0  0  0  0  0  0  0
 27 28  1  0  0  0
 28 29  2  0  0  0
 29 30  1  0  0  0
 30 31  2  0  0  0
 31 32  1  0  0  0
 31 23  1  0  0  0
 23 24  1  0  0  0
 23 25  1  0  0  0
 23 21  1  0  0  0
 21 22  3  0  0  0
 22  1  1  0  0  0
  1  2  2  0  0  0
  2  3  1  0  0  0
  3  4  2  0  0  0
  4  5  1  0  0  0
  5  6  1  0  0  0
  6  7  1  0  0  0
  7  8  1  0  0  0
  7  9  1  0  0  0
  9 10  1  0  0  0
 10 11  2  0  0  0
 11 12  1  0  0  0
 12 13  2  0  0  0
 13 14  1  0  0  0
 14 15  2  0  0  0
 11 16  1  0  0  0
 16 17  1  0  0  0
 16 18  2  0  0  0
 32 28  1  0  0  0
 15  1  1  0  0  0
 14  4  1  0  0  0
  8  5  1  0  0  0
 13  9  1  0  0  0
 25 26  1  0  0  0
 17 19  1  0  0  0
 17 20  1  0  0  0
M  END
> <minimizedAffinity>
-8.26180

> <CNNscore>
0.4626004398

> <CNNaffinity>
6.9145841599

> <CNN_VS>
3.1986896992

> <CNNaffinity_variance>
0.3062273264

$$$$
[H]O[C@](C#Cc1c([H])c([H])c2c(c1[H])-c1nc(C(=O)N([H])[H])c([H])n1C1([H])C([H])([H])C2([H])C1([H])[H])(c1nc([H])c(C([H])([H])[H])o1)C([H])([H])[H]


 32 36  0  0  0  0  0  0  0  0999 V2000
   35.8924   12.9825  -13.5165 C   0  0  0  0  0  0  0  0  0  0  0  0
   34.7318   12.4440  -14.0459 C   0  0  0  0  0  0  0  0  0  0  0  0
   34.6929   11.7576  -15.2429 C   0  0  0  0  0  0  0  0  0  0  0  0
   35.8423   11.5968  -15.9435 C   0  0  0  0  0  0  0  0  0  0  0  0
   35.6895   10.8362  -17.2384 C   0  0  0  0  0  0  0  0  0  0  0  0
   36.4203   11.5651  -18.3699 C   0  0  0  0  0  0  0  0  0  0  0  0
   37.6821   10.7470  -18.1558 C   0  0  0  0  0  0  0  0  0  0  0  0
   36.7935    9.8039  -17.3321 C   0  0  0  0  0  0  0  0  0  0  0  0
   38.6324   11.4228  -17.2868 N   0  0  0  0  0  0  0  0  0  0  0  0
   39.9372   11.5515  -17.5357 C   0  0  0  0  0  0  0  0  0  0  0  0
   40.5423   12.2571  -16.4904 C   0  0  0  0  0  0  0  0  0  0  0  0
   39.5313   12.5258  -15.6354 N   0  0  0  0  0  0  0  0  0  0  0  0
   38.3726   12.0350  -16.0915 C   0  0  0  0  0  0  0  0  0  0  0  0
   37.0473   12.1172  -15.4622 C   0  0  0  0  0  0  0  0  0  0  0  0
   37.0373   12.7952  -14.2623 C   0  0  0  0  0  0  0  0  0  0  0  0
   41.9445   12.6177  -16.3675 C   0  0  0  0  0  0  0  0  0  0  0  0
   42.8904   12.1396  -17.2946 N   0  0  0  0  0  0  0  0  0  0  0  0
   42.3134   13.3592  -15.4307 O   0  0  0  0  0  0  0  0  0  0  0  0
   42.5813   11.4322  -18.0161 H   0  0  0  0  0  0  0  0  0  0  0  0
   43.8772   12.4818  -17.2630 H   0  0  0  0  0  0  0  0  0  0  0  0
   35.9041   14.2763  -11.2030 C   0  0  0  0  0  0  0  0  0  0  0  0
   35.9035   13.6951  -12.2617 C   0  0  0  0  0  0  0  0  0  0  0  0
   35.9114   15.0131   -9.9166 C   0  0  0  0  0  0  0  0  0  0  0  0
   34.7079   15.9292   -9.9702 C   0  0  0  0  0  0  0  0  0  0  0  0
   35.7324   14.1601   -8.8478 O   0  0  0  0  0  0  0  0  0  0  0  0
   36.3970   13.4303   -8.7930 H   0  0  0  0  0  0  0  0  0  0  0  0
   40.7147   16.1599   -9.5660 C   0  0  0  0  0  0  0  0  0  0  0  0
   39.2486   16.3546   -9.5800 C   0  0  0  0  0  0  0  0  0  0  0  0
   38.5085   17.4926   -9.4114 C   0  0  0  0  0  0  0  0  0  0  0  0
   37.2257   17.1233   -9.5156 N   0  0  0  0  0  0  0  0  0  0  0  0
   37.1637   15.7975   -9.7425 C   0  0  0  0  0  0  0  0  0  0  0  0
   38.3886   15.3578   -9.7767 O   0  0  0  0  0  0  0  0  0  0  0  0
 27 28  1  0  0  0
 28 29  2  0  0  0
 29 30  1  0  0  0
 30 31  2  0  0  0
 31 32  1  0  0  0
 31 23  1  0  0  0
 23 24  1  0  0  0
 23 25  1  0  0  0
 23 21  1  0  0  0
 21 22  3  0  0  0
 22  1  1  0  0  0
  1  2  2  0  0  0
  2  3  1  0  0  0
  3  4  2  0  0  0
  4  5  1  0  0  0
  5  6  1  0  0  0
  6  7  1  0  0  0
  7  8  1  0  0  0
  7  9  1  0  0  0
  9 10  1  0  0  0
 10 11  2  0  0  0
 11 12  1  0  0  0
 12 13  2  0  0  0
 13 14  1  0  0  0
 14 15  2  0  0  0
 11 16  1  0  0  0
 16 17  1  0  0  0
 16 18  2  0  0  0
 32 28  1  0  0  0
 15  1  1  0  0  0
 14  4  1  0  0  0
  8  5  1  0  0  0
 13  9  1  0  0  0
 25 26  1  0  0  0
 17 19  1  0  0  0
 17 20  1  0  0  0
M  END
> <minimizedAffinity>
-8.80927

> <CNNscore>
0.3922586441

> <CNNaffinity>
6.9732146263

> <CNN_VS>
2.7353036404

> <CNNaffinity_variance>
0.2449377328

$$$$
[H]O[C@](C#Cc1c([H])c([H])c2c(c1[H])-c1nc(C(=O)N([H])[H])c([H])n1C1([H])C([H])([H])C2([H])C1([H])[H])(c1nc([H])c(C([H])([H])[H])o1)C([H])([H])[H]


 32 36  0  0  0  0  0  0  0  0999 V2000
   36.5600   13.6117  -12.8868 C   0  0  0  0  0  0  0  0  0  0  0  0
   35.2229   13.4410  -12.5699 C   0  0  0  0  0  0  0  0  0  0  0  0
   34.3429   12.7278  -13.3588 C   0  0  0  0  0  0  0  0  0  0  0  0
   34.7994   12.1622  -14.5031 C   0  0  0  0  0  0  0  0  0  0  0  0
   33.7567   11.4091  -15.2932 C   0  0  0  0  0  0  0  0  0  0  0  0
   33.8368   11.7908  -16.7743 C   0  0  0  0  0  0  0  0  0  0  0  0
   34.7635   10.6268  -17.0804 C   0  0  0  0  0  0  0  0  0  0  0  0
   34.3329   10.0735  -15.7145 C   0  0  0  0  0  0  0  0  0  0  0  0
   36.1640   11.0166  -17.0418 N   0  0  0  0  0  0  0  0  0  0  0  0
   37.0697   10.7037  -17.9707 C   0  0  0  0  0  0  0  0  0  0  0  0
   38.3092   11.2437  -17.6118 C   0  0  0  0  0  0  0  0  0  0  0  0
   38.0748   11.8769  -16.4414 N   0  0  0  0  0  0  0  0  0  0  0  0
   36.7927   11.7554  -16.0773 C   0  0  0  0  0  0  0  0  0  0  0  0
   36.1392   12.2985  -14.8785 C   0  0  0  0  0  0  0  0  0  0  0  0
   36.9808   13.0196  -14.0591 C   0  0  0  0  0  0  0  0  0  0  0  0
   39.5592   11.1428  -18.3456 C   0  0  0  0  0  0  0  0  0  0  0  0
   39.5615   10.8033  -19.7122 N   0  0  0  0  0  0  0  0  0  0  0  0
   40.6414   11.3598  -17.7581 O   0  0  0  0  0  0  0  0  0  0  0  0
   38.6501   10.5215  -20.1667 H   0  0  0  0  0  0  0  0  0  0  0  0
   40.4512   10.8311  -20.2595 H   0  0  0  0  0  0  0  0  0  0  0  0
   38.2032   14.9798  -11.3203 C   0  0  0  0  0  0  0  0  0  0  0  0
   37.4577   14.3622  -12.0423 C   0  0  0  0  0  0  0  0  0  0  0  0
   39.1220   15.7567  -10.4540 C   0  0  0  0  0  0  0  0  0  0  0  0
   38.3887   17.0429  -10.1402 C   0  0  0  0  0  0  0  0  0  0  0  0
   39.3508   15.1105   -9.2573 O   0  0  0  0  0  0  0  0  0  0  0  0
   39.7104   14.1945   -9.3509 H   0  0  0  0  0  0  0  0  0  0  0  0
   43.9765   16.2505  -11.2904 C   0  0  0  0  0  0  0  0  0  0  0  0
   42.5223   16.2722  -11.5593 C   0  0  0  0  0  0  0  0  0  0  0  0
   41.8408   16.6106  -12.6961 C   0  0  0  0  0  0  0  0  0  0  0  0
   40.5411   16.4590  -12.4121 N   0  0  0  0  0  0  0  0  0  0  0  0
   40.4122   16.0389  -11.1393 C   0  0  0  0  0  0  0  0  0  0  0  0
   41.6132   15.9343  -10.6477 O   0  0  0  0  0  0  0  0  0  0  0  0
 27 28  1  0  0  0
 28 29  2  0  0  0
 29 30  1  0  0  0
 30 31  2  0  0  0
 31 32  1  0  0  0
 31 23  1  0  0  0
 23 24  1  0  0  0
 23 25  1  0  0  0
 23 21  1  0  0  0
 21 22  3  0  0  0
 22  1  1  0  0  0
  1  2  2  0  0  0
  2  3  1  0  0  0
  3  4  2  0  0  0
  4  5  1  0  0  0
  5  6  1  0  0  0
  6  7  1  0  0  0
  7  8  1  0  0  0
  7  9  1  0  0  0
  9 10  1  0  0  0
 10 11  2  0  0  0
 11 12  1  0  0  0
 12 13  2  0  0  0
 13 14  1  0  0  0
 14 15  2  0  0  0
 11 16  1  0  0  0
 16 17  1  0  0  0
 16 18  2  0  0  0
 32 28  1  0  0  0
 15  1  1  0  0  0
 14  4  1  0  0  0
  8  5  1  0  0  0
 13  9  1  0  0  0
 25 26  1  0  0  0
 17 19  1  0  0  0
 17 20  1  0  0  0
M  END
> <minimizedAffinity>
-8.46696

> <CNNscore>
0.3829070926

> <CNNaffinity>
6.8880372047

> <CNN_VS>
2.6374783516

> <CNNaffinity_variance>
0.1962385029

$$$$
[H]O[C@](C#Cc1c([H])c([H])c2c(c1[H])-c1nc(C(=O)N([H])[H])c([H])n1C1([H])C([H])([H])C2([H])C1([H])[H])(c1nc([H])c(C([H])([H])[H])o1)C([H])([H])[H]


 32 36  0  0  0  0  0  0  0  0999 V2000
   36.4858   13.8958  -12.9342 C   0  0  0  0  0  0  0  0  0  0  0  0
   35.1586   13.6969  -12.5931 C   0  0  0  0  0  0  0  0  0  0  0  0
   34.2983   12.9063  -13.3282 C   0  0  0  0  0  0  0  0  0  0  0  0
   34.7651   12.2893  -14.4413 C   0  0  0  0  0  0  0  0  0  0  0  0
   33.7436   11.4531  -15.1734 C   0  0  0  0  0  0  0  0  0  0  0  0
   33.7970   11.7472  -16.6755 C   0  0  0  0  0  0  0  0  0  0  0  0
   34.7626   10.6008  -16.9213 C   0  0  0  0  0  0  0  0  0  0  0  0
   34.3643   10.1159  -15.5200 C   0  0  0  0  0  0  0  0  0  0  0  0
   36.1484   11.0421  -16.9213 N   0  0  0  0  0  0  0  0  0  0  0  0
   37.0567   10.7062  -17.8396 C   0  0  0  0  0  0  0  0  0  0  0  0
   38.2788   11.3109  -17.5272 C   0  0  0  0  0  0  0  0  0  0  0  0
   38.0318   12.0048  -16.3945 N   0  0  0  0  0  0  0  0  0  0  0  0
   36.7581   11.8597  -16.0098 C   0  0  0  0  0  0  0  0  0  0  0  0
   36.0958   12.4505  -14.8388 C   0  0  0  0  0  0  0  0  0  0  0  0
   36.9176   13.2494  -14.0734 C   0  0  0  0  0  0  0  0  0  0  0  0
   39.5252   11.2105  -18.2672 C   0  0  0  0  0  0  0  0  0  0  0  0
   39.5285   10.7857  -19.6096 N   0  0  0  0  0  0  0  0  0  0  0  0
   40.6036   11.5045  -17.7065 O   0  0  0  0  0  0  0  0  0  0  0  0
   38.6245   10.4419  -20.0353 H   0  0  0  0  0  0  0  0  0  0  0  0
   40.4115   10.8122  -20.1675 H   0  0  0  0  0  0  0  0  0  0  0  0
   38.0859   15.4205  -11.4709 C   0  0  0  0  0  0  0  0  0  0  0  0
   37.3629   14.7276  -12.1461 C   0  0  0  0  0  0  0  0  0  0  0  0
   38.9854   16.2805  -10.6652 C   0  0  0  0  0  0  0  0  0  0  0  0
   39.7138   15.3382   -9.7314 C   0  0  0  0  0  0  0  0  0  0  0  0
   39.9354   16.8933  -11.4552 O   0  0  0  0  0  0  0  0  0  0  0  0
   39.5635   17.4360  -12.1931 H   0  0  0  0  0  0  0  0  0  0  0  0
   36.0023   18.3509   -7.3001 C   0  0  0  0  0  0  0  0  0  0  0  0
   36.9297   18.2578   -8.4485 C   0  0  0  0  0  0  0  0  0  0  0  0
   37.4315   19.2393   -9.2585 C   0  0  0  0  0  0  0  0  0  0  0  0
   38.2262   18.6241  -10.1433 N   0  0  0  0  0  0  0  0  0  0  0  0
   38.2229   17.3004   -9.8958 C   0  0  0  0  0  0  0  0  0  0  0  0
   37.4384   17.1043   -8.8755 O   0  0  0  0  0  0  0  0  0  0  0  0
 27 28  1  0  0  0
 28 29  2  0  0  0
 29 30  1  0  0  0
 30 31  2  0  0  0
 31 32  1  0  0  0
 31 23  1  0  0  0
 23 24  1  0  0  0
 23 25  1  0  0  0
 23 21  1  0  0  0
 21 22  3  0  0  0
 22  1  1  0  0  0
  1  2  2  0  0  0
  2  3  1  0  0  0
  3  4  2  0  0  0
  4  5  1  0  0  0
  5  6  1  0  0  0
  6  7  1  0  0  0
  7  8  1  0  0  0
  7  9  1  0  0  0
  9 10  1  0  0  0
 10 11  2  0  0  0
 11 12  1  0  0  0
 12 13  2  0  0  0
 13 14  1  0  0  0
 14 15  2  0  0  0
 11 16  1  0  0  0
 16 17  1  0  0  0
 16 18  2  0  0  0
 32 28  1  0  0  0
 15  1  1  0  0  0
 14  4  1  0  0  0
  8  5  1  0  0  0
 13  9  1  0  0  0
 25 26  1  0  0  0
 17 19  1  0  0  0
 17 20  1  0  0  0
M  END
> <minimizedAffinity>
-8.25514

> <CNNscore>
0.3756049871

> <CNNaffinity>
6.7958745956

> <CNN_VS>
2.5525643826

> <CNNaffinity_variance>
0.1320407093

$$$$
[H]O[C@](C#Cc1c([H])c([H])c2c(c1[H])-c1nc(C(=O)N([H])[H])c([H])n1C1([H])C([H])([H])C2([H])C1([H])[H])(c1nc([H])c(C([H])([H])[H])o1)C([H])([H])[H]


 32 36  0  0  0  0  0  0  0  0999 V2000
   39.2910   14.2356  -13.7228 C   0  0  0  0  0  0  0  0  0  0  0  0
   40.5806   14.1499  -14.2196 C   0  0  0  0  0  0  0  0  0  0  0  0
   40.9146   13.4083  -15.3349 C   0  0  0  0  0  0  0  0  0  0  0  0
   39.9396   12.7259  -15.9840 C   0  0  0  0  0  0  0  0  0  0  0  0
   40.4111   11.9450  -17.1868 C   0  0  0  0  0  0  0  0  0  0  0  0
   39.8300   10.5282  -17.1592 C   0  0  0  0  0  0  0  0  0  0  0  0
   38.6451   10.9385  -18.0165 C   0  0  0  0  0  0  0  0  0  0  0  0
   39.4604   12.1992  -18.3379 C   0  0  0  0  0  0  0  0  0  0  0  0
   37.4831   11.2869  -17.2145 N   0  0  0  0  0  0  0  0  0  0  0  0
   36.2412   10.8538  -17.4409 C   0  0  0  0  0  0  0  0  0  0  0  0
   35.3803   11.3853  -16.4750 C   0  0  0  0  0  0  0  0  0  0  0  0
   36.1800   12.1388  -15.6888 N   0  0  0  0  0  0  0  0  0  0  0  0
   37.4489   12.0960  -16.1121 C   0  0  0  0  0  0  0  0  0  0  0  0
   38.6175   12.7720  -15.5319 C   0  0  0  0  0  0  0  0  0  0  0  0
   38.3316   13.5257  -14.4139 C   0  0  0  0  0  0  0  0  0  0  0  0
   33.9494   11.1639  -16.3537 C   0  0  0  0  0  0  0  0  0  0  0  0
   33.3252   11.1922  -15.0918 N   0  0  0  0  0  0  0  0  0  0  0  0
   33.2672   10.9469  -17.3789 O   0  0  0  0  0  0  0  0  0  0  0  0
   33.9293   11.2721  -14.2285 H   0  0  0  0  0  0  0  0  0  0  0  0
   32.2845   11.1341  -15.0184 H   0  0  0  0  0  0  0  0  0  0  0  0
   38.6835   15.6715  -11.5791 C   0  0  0  0  0  0  0  0  0  0  0  0
   38.9706   15.0196  -12.5545 C   0  0  0  0  0  0  0  0  0  0  0  0
   38.3567   16.4826  -10.3820 C   0  0  0  0  0  0  0  0  0  0  0  0
   39.4516   16.1828   -9.3811 C   0  0  0  0  0  0  0  0  0  0  0  0
   38.4107   17.8324  -10.6595 O   0  0  0  0  0  0  0  0  0  0  0  0
   37.8234   18.1200  -11.4008 H   0  0  0  0  0  0  0  0  0  0  0  0
   34.8589   14.6202   -7.4143 C   0  0  0  0  0  0  0  0  0  0  0  0
   35.4532   15.3334   -8.5658 C   0  0  0  0  0  0  0  0  0  0  0  0
   34.8499   15.9710   -9.6149 C   0  0  0  0  0  0  0  0  0  0  0  0
   35.8387   16.4515  -10.3792 N   0  0  0  0  0  0  0  0  0  0  0  0
   37.0230   16.1261   -9.8271 C   0  0  0  0  0  0  0  0  0  0  0  0
   36.7670   15.4556   -8.7408 O   0  0  0  0  0  0  0  0  0  0  0  0
 27 28  1  0  0  0
 28 29  2  0  0  0
 29 30  1  0  0  0
 30 31  2  0  0  0
 31 32  1  0  0  0
 31 23  1  0  0  0
 23 24  1  0  0  0
 23 25  1  0  0  0
 23 21  1  0  0  0
 21 22  3  0  0  0
 22  1  1  0  0  0
  1  2  2  0  0  0
  2  3  1  0  0  0
  3  4  2  0  0  0
  4  5  1  0  0  0
  5  6  1  0  0  0
  6  7  1  0  0  0
  7  8  1  0  0  0
  7  9  1  0  0  0
  9 10  1  0  0  0
 10 11  2  0  0  0
 11 12  1  0  0  0
 12 13  2  0  0  0
 13 14  1  0  0  0
 14 15  2  0  0  0
 11 16  1  0  0  0
 16 17  1  0  0  0
 16 18  2  0  0  0
 32 28  1  0  0  0
 15  1  1  0  0  0
 14  4  1  0  0  0
  8  5  1  0  0  0
 13  9  1  0  0  0
 25 26  1  0  0  0
 17 19  1  0  0  0
 17 20  1  0  0  0
M  END
> <minimizedAffinity>
-9.36039

> <CNNscore>
0.3011821508

> <CNNaffinity>
6.9040246010

> <CNN_VS>
2.0793690681

> <CNNaffinity_variance>
0.1425007135

$$$$
[H]O[C@](C#Cc1c([H])c([H])c2c(c1[H])-c1nc(C(=O)N([H])[H])c([H])n1C1([H])C([H])([H])C2([H])C1([H])[H])(c1nc([H])c(C([H])([H])[H])o1)C([H])([H])[H]


 32 36  0  0  0  0  0  0  0  0999 V2000
   35.3089   13.4123  -13.4568 C   0  0  0  0  0  0  0  0  0  0  0  0
   34.1604   12.8485  -13.9864 C   0  0  0  0  0  0  0  0  0  0  0  0
   34.1566   12.0632  -15.1216 C   0  0  0  0  0  0  0  0  0  0  0  0
   35.3298   11.8255  -15.7578 C   0  0  0  0  0  0  0  0  0  0  0  0
   35.2146   10.9596  -16.9889 C   0  0  0  0  0  0  0  0  0  0  0  0
   36.0037   11.5780  -18.1468 C   0  0  0  0  0  0  0  0  0  0  0  0
   37.2403   10.7618  -17.8120 C   0  0  0  0  0  0  0  0  0  0  0  0
   36.3019    9.9062  -16.9490 C   0  0  0  0  0  0  0  0  0  0  0  0
   38.1676   11.4946  -16.9647 N   0  0  0  0  0  0  0  0  0  0  0  0
   39.4836   11.5815  -17.1693 C   0  0  0  0  0  0  0  0  0  0  0  0
   40.0596   12.3643  -16.1633 C   0  0  0  0  0  0  0  0  0  0  0  0
   39.0204   12.7205  -15.3767 N   0  0  0  0  0  0  0  0  0  0  0  0
   37.8719   12.2105  -15.8373 C   0  0  0  0  0  0  0  0  0  0  0  0
   36.5242   12.3665  -15.2727 C   0  0  0  0  0  0  0  0  0  0  0  0
   36.4790   13.1445  -14.1360 C   0  0  0  0  0  0  0  0  0  0  0  0
   41.4623   12.7125  -16.0133 C   0  0  0  0  0  0  0  0  0  0  0  0
   41.8956   13.4813  -14.9161 N   0  0  0  0  0  0  0  0  0  0  0  0
   42.2910   12.3253  -16.8659 O   0  0  0  0  0  0  0  0  0  0  0  0
   41.1708   13.8877  -14.2634 H   0  0  0  0  0  0  0  0  0  0  0  0
   42.9156   13.6431  -14.7574 H   0  0  0  0  0  0  0  0  0  0  0  0
   35.2790   14.9202  -11.2770 C   0  0  0  0  0  0  0  0  0  0  0  0
   35.2832   14.2291  -12.2674 C   0  0  0  0  0  0  0  0  0  0  0  0
   35.2527   15.7537  -10.0512 C   0  0  0  0  0  0  0  0  0  0  0  0
   36.0836   15.0012   -9.0344 C   0  0  0  0  0  0  0  0  0  0  0  0
   35.8620   16.9732  -10.2596 O   0  0  0  0  0  0  0  0  0  0  0  0
   35.4774   17.4994  -11.0028 H   0  0  0  0  0  0  0  0  0  0  0  0
   31.4437   16.7105   -7.0369 C   0  0  0  0  0  0  0  0  0  0  0  0
   32.1627   16.3613   -8.2814 C   0  0  0  0  0  0  0  0  0  0  0  0
   31.6792   16.0778   -9.5292 C   0  0  0  0  0  0  0  0  0  0  0  0
   32.7477   15.8287  -10.2967 N   0  0  0  0  0  0  0  0  0  0  0  0
   33.8644   15.9524   -9.5545 C   0  0  0  0  0  0  0  0  0  0  0  0
   33.4890   16.2719   -8.3495 O   0  0  0  0  0  0  0  0  0  0  0  0
 27 28  1  0  0  0
 28 29  2  0  0  0
 29 30  1  0  0  0
 30 31  2  0  0  0
 31 32  1  0  0  0
 31 23  1  0  0  0
 23 24  1  0  0  0
 23 25  1  0  0  0
 23 21  1  0  0  0
 21 22  3  0  0  0
 22  1  1  0  0  0
  1  2  2  0  0  0
  2  3  1  0  0  0
  3  4  2  0  0  0
  4  5  1  0  0  0
  5  6  1  0  0  0
  6  7  1  0  0  0
  7  8  1  0  0  0
  7  9  1  0  0  0
  9 10  1  0  0  0
 10 11  2  0  0  0
 11 12  1  0  0  0
 12 13  2  0  0  0
 13 14  1  0  0  0
 14 15  2  0  0  0
 11 16  1  0  0  0
 16 17  1  0  0  0
 16 18  2  0  0  0
 32 28  1  0  0  0
 15  1  1  0  0  0
 14  4  1  0  0  0
  8  5  1  0  0  0
 13  9  1  0  0  0
 25 26  1  0  0  0
 17 19  1  0  0  0
 17 20  1  0  0  0
M  END
> <minimizedAffinity>
-8.34940

> <CNNscore>
0.2595779598

> <CNNaffinity>
6.6185088158

> <CNN_VS>
1.7180190086

> <CNNaffinity_variance>
0.3198038042

$$$$
[H]O[C@](C#Cc1c([H])c([H])c2c(c1[H])-c1nc(C(=O)N([H])[H])c([H])n1C1([H])C([H])([H])C2([H])C1([H])[H])(c1nc([H])c(C([H])([H])[H])o1)C([H])([H])[H]


 32 36  0  0  0  0  0  0  0  0999 V2000
   39.7968   12.7958  -15.3520 C   0  0  0  0  0  0  0  0  0  0  0  0
   38.9710   11.9769  -16.1035 C   0  0  0  0  0  0  0  0  0  0  0  0
   37.6090   11.8831  -15.8997 C   0  0  0  0  0  0  0  0  0  0  0  0
   37.0409   12.6251  -14.9176 C   0  0  0  0  0  0  0  0  0  0  0  0
   35.5487   12.4460  -14.7759 C   0  0  0  0  0  0  0  0  0  0  0  0
   35.1762   12.2534  -13.3028 C   0  0  0  0  0  0  0  0  0  0  0  0
   34.9135   13.7381  -13.1186 C   0  0  0  0  0  0  0  0  0  0  0  0
   34.9023   13.8098  -14.6523 C   0  0  0  0  0  0  0  0  0  0  0  0
   36.0750   14.4392  -12.5948 N   0  0  0  0  0  0  0  0  0  0  0  0
   36.0493   15.3115  -11.5851 C   0  0  0  0  0  0  0  0  0  0  0  0
   37.3433   15.7875  -11.3492 C   0  0  0  0  0  0  0  0  0  0  0  0
   38.1081   15.1524  -12.2642 N   0  0  0  0  0  0  0  0  0  0  0  0
   37.3693   14.3360  -13.0251 C   0  0  0  0  0  0  0  0  0  0  0  0
   37.8209   13.4714  -14.1241 C   0  0  0  0  0  0  0  0  0  0  0  0
   39.1767   13.5321  -14.3644 C   0  0  0  0  0  0  0  0  0  0  0  0
   37.7582   16.7462  -10.3393 C   0  0  0  0  0  0  0  0  0  0  0  0
   37.4031   18.1041  -10.4527 N   0  0  0  0  0  0  0  0  0  0  0  0
   38.4358   16.3614   -9.3614 O   0  0  0  0  0  0  0  0  0  0  0  0
   36.9218   18.4309  -11.3349 H   0  0  0  0  0  0  0  0  0  0  0  0
   37.6152   18.7698   -9.6758 H   0  0  0  0  0  0  0  0  0  0  0  0
   42.4109   12.9278  -15.7707 C   0  0  0  0  0  0  0  0  0  0  0  0
   41.2182   12.8743  -15.5880 C   0  0  0  0  0  0  0  0  0  0  0  0
   43.8711   13.0152  -16.0116 C   0  0  0  0  0  0  0  0  0  0  0  0
   44.2003   11.8491  -16.9185 C   0  0  0  0  0  0  0  0  0  0  0  0
   44.2003   14.1701  -16.6898 O   0  0  0  0  0  0  0  0  0  0  0  0
   43.9074   15.0023  -16.2438 H   0  0  0  0  0  0  0  0  0  0  0  0
   45.1339   13.5183  -11.2512 C   0  0  0  0  0  0  0  0  0  0  0  0
   45.2434   13.1212  -12.6717 C   0  0  0  0  0  0  0  0  0  0  0  0
   46.2424   12.4544  -13.3264 C   0  0  0  0  0  0  0  0  0  0  0  0
   45.8480   12.3483  -14.6016 N   0  0  0  0  0  0  0  0  0  0  0  0
   44.6413   12.9292  -14.7415 C   0  0  0  0  0  0  0  0  0  0  0  0
   44.2989   13.3859  -13.5714 O   0  0  0  0  0  0  0  0  0  0  0  0
 27 28  1  0  0  0
 28 29  2  0  0  0
 29 30  1  0  0  0
 30 31  2  0  0  0
 31 32  1  0  0  0
 31 23  1  0  0  0
 23 24  1  0  0  0
 23 25  1  0  0  0
 23 21  1  0  0  0
 21 22  3  0  0  0
 22  1  1  0  0  0
  1  2  2  0  0  0
  2  3  1  0  0  0
  3  4  2  0  0  0
  4  5  1  0  0  0
  5  6  1  0  0  0
  6  7  1  0  0  0
  7  8  1  0  0  0
  7  9  1  0  0  0
  9 10  1  0  0  0
 10 11  2  0  0  0
 11 12  1  0  0  0
 12 13  2  0  0  0
 13 14  1  0  0  0
 14 15  2  0  0  0
 11 16  1  0  0  0
 16 17  1  0  0  0
 16 18  2  0  0  0
 32 28  1  0  0  0
 15  1  1  0  0  0
 14  4  1  0  0  0
  8  5  1  0  0  0
 13  9  1  0  0  0
 25 26  1  0  0  0
 17 19  1  0  0  0
 17 20  1  0  0  0
M  END
> <minimizedAffinity>
-9.98253

> <CNNscore>
0.2295135707

> <CNNaffinity>
6.0735454559

> <CNN_VS>
1.3939610720

> <CNNaffinity_variance>
0.1620606482

$$$$
[H]O[C@](C#Cc1c([H])c([H])c2c(c1[H])-c1nc(C(=O)N([H])[H])c([H])n1C1([H])C([H])([H])C2([H])C1([H])[H])(c1nc([H])c(C([H])([H])[H])o1)C([H])([H])[H]


 32 36  0  0  0  0  0  0  0  0999 V2000
   37.4203   13.6667  -14.3434 C   0  0  0  0  0  0  0  0  0  0  0  0
   36.5918   12.9616  -15.2000 C   0  0  0  0  0  0  0  0  0  0  0  0
   37.0597   12.2189  -16.2653 C   0  0  0  0  0  0  0  0  0  0  0  0
   38.3951   12.1704  -16.4939 C   0  0  0  0  0  0  0  0  0  0  0  0
   38.8006   11.3352  -17.6841 C   0  0  0  0  0  0  0  0  0  0  0  0
   39.8161   12.0949  -18.5427 C   0  0  0  0  0  0  0  0  0  0  0  0
   40.9885   11.4534  -17.8209 C   0  0  0  0  0  0  0  0  0  0  0  0
   39.9603   10.4467  -17.2854 C   0  0  0  0  0  0  0  0  0  0  0  0
   41.4850   12.2844  -16.7357 N   0  0  0  0  0  0  0  0  0  0  0  0
   42.7712   12.5641  -16.5149 C   0  0  0  0  0  0  0  0  0  0  0  0
   42.8809   13.3897  -15.3911 C   0  0  0  0  0  0  0  0  0  0  0  0
   41.6068   13.5699  -14.9795 N   0  0  0  0  0  0  0  0  0  0  0  0
   40.7486   12.9159  -15.7714 C   0  0  0  0  0  0  0  0  0  0  0  0
   39.2841   12.8609  -15.6647 C   0  0  0  0  0  0  0  0  0  0  0  0
   38.7706   13.5892  -14.6133 C   0  0  0  0  0  0  0  0  0  0  0  0
   44.0988   13.9294  -14.8108 C   0  0  0  0  0  0  0  0  0  0  0  0
   45.3332   13.7821  -15.4722 N   0  0  0  0  0  0  0  0  0  0  0  0
   44.0494   14.5299  -13.7151 O   0  0  0  0  0  0  0  0  0  0  0  0
   45.3747   13.1835  -16.3420 H   0  0  0  0  0  0  0  0  0  0  0  0
   46.1873   14.2580  -15.1037 H   0  0  0  0  0  0  0  0  0  0  0  0
   36.4816   15.0672  -12.2981 C   0  0  0  0  0  0  0  0  0  0  0  0
   36.9030   14.4346  -13.2366 C   0  0  0  0  0  0  0  0  0  0  0  0
   35.9439   15.8536  -11.1622 C   0  0  0  0  0  0  0  0  0  0  0  0
   36.6254   15.2991   -9.9299 C   0  0  0  0  0  0  0  0  0  0  0  0
   36.2928   17.1841  -11.2622 O   0  0  0  0  0  0  0  0  0  0  0  0
   36.0088   17.6178  -12.1039 H   0  0  0  0  0  0  0  0  0  0  0  0
   31.3456   15.9848   -9.3324 C   0  0  0  0  0  0  0  0  0  0  0  0
   32.4362   15.7538  -10.3044 C   0  0  0  0  0  0  0  0  0  0  0  0
   32.3895   15.2743  -11.5847 C   0  0  0  0  0  0  0  0  0  0  0  0
   33.6537   15.2612  -12.0255 N   0  0  0  0  0  0  0  0  0  0  0  0
   34.4662   15.7178  -11.0536 C   0  0  0  0  0  0  0  0  0  0  0  0
   33.7141   16.0067  -10.0309 O   0  0  0  0  0  0  0  0  0  0  0  0
 27 28  1  0  0  0
 28 29  2  0  0  0
 29 30  1  0  0  0
 30 31  2  0  0  0
 31 32  1  0  0  0
 31 23  1  0  0  0
 23 24  1  0  0  0
 23 25  1  0  0  0
 23 21  1  0  0  0
 21 22  3  0  0  0
 22  1  1  0  0  0
  1  2  2  0  0  0
  2  3  1  0  0  0
  3  4  2  0  0  0
  4  5  1  0  0  0
  5  6  1  0  0  0
  6  7  1  0  0  0
  7  8  1  0  0  0
  7  9  1  0  0  0
  9 10  1  0  0  0
 10 11  2  0  0  0
 11 12  1  0  0  0
 12 13  2  0  0  0
 13 14  1  0  0  0
 14 15  2  0  0  0
 11 16  1  0  0  0
 16 17  1  0  0  0
 16 18  2  0  0  0
 32 28  1  0  0  0
 15  1  1  0  0  0
 14  4  1  0  0  0
  8  5  1  0  0  0
 13  9  1  0  0  0
 25 26  1  0  0  0
 17 19  1  0  0  0
 17 20  1  0  0  0
M  END
> <minimizedAffinity>
-8.87095

> <CNNscore>
0.2037204206

> <CNNaffinity>
6.4402723312

> <CNN_VS>
1.3120149374

> <CNNaffinity_variance>
0.1615956724

$$$$
[H]O[C@](C#Cc1c([H])c([H])c2c(c1[H])-c1nc(C(=O)N([H])[H])c([H])n1C1([H])C([H])([H])C2([H])C1([H])[H])(c1nc([H])c(C([H])([H])[H])o1)C([H])([H])[H]


 32 36  0  0  0  0  0  0  0  0999 V2000
   40.9319   12.2784  -16.5313 C   0  0  0  0  0  0  0  0  0  0  0  0
   40.9005   11.5522  -17.7098 C   0  0  0  0  0  0  0  0  0  0  0  0
   39.7392   11.0411  -18.2535 C   0  0  0  0  0  0  0  0  0  0  0  0
   38.5653   11.2545  -17.6101 C   0  0  0  0  0  0  0  0  0  0  0  0
   37.3578   10.6509  -18.2856 C   0  0  0  0  0  0  0  0  0  0  0  0
   36.4935    9.9095  -17.2614 C   0  0  0  0  0  0  0  0  0  0  0  0
   35.6247   11.1332  -17.0272 C   0  0  0  0  0  0  0  0  0  0  0  0
   36.2493   11.6821  -18.3180 C   0  0  0  0  0  0  0  0  0  0  0  0
   36.0735   11.9133  -15.8849 N   0  0  0  0  0  0  0  0  0  0  0  0
   35.2791   12.3805  -14.9196 C   0  0  0  0  0  0  0  0  0  0  0  0
   36.0472   13.0820  -13.9845 C   0  0  0  0  0  0  0  0  0  0  0  0
   37.3111   12.9968  -14.4544 N   0  0  0  0  0  0  0  0  0  0  0  0
   37.3536   12.2990  -15.5957 C   0  0  0  0  0  0  0  0  0  0  0  0
   38.5306   11.9802  -16.4156 C   0  0  0  0  0  0  0  0  0  0  0  0
   39.7154   12.4711  -15.9107 C   0  0  0  0  0  0  0  0  0  0  0  0
   35.5781   13.7446  -12.7793 C   0  0  0  0  0  0  0  0  0  0  0  0
   34.8017   14.9163  -12.8627 N   0  0  0  0  0  0  0  0  0  0  0  0
   35.8663   13.2693  -11.6592 O   0  0  0  0  0  0  0  0  0  0  0  0
   34.6557   15.3620  -13.8096 H   0  0  0  0  0  0  0  0  0  0  0  0
   34.3820   15.3315  -12.0007 H   0  0  0  0  0  0  0  0  0  0  0  0
   43.1820   13.2570  -15.5285 C   0  0  0  0  0  0  0  0  0  0  0  0
   42.1613   12.8016  -15.9863 C   0  0  0  0  0  0  0  0  0  0  0  0
   44.4483   13.7932  -14.9745 C   0  0  0  0  0  0  0  0  0  0  0  0
   45.4753   12.7023  -15.1881 C   0  0  0  0  0  0  0  0  0  0  0  0
   44.8736   14.9022  -15.6753 O   0  0  0  0  0  0  0  0  0  0  0  0
   44.2140   15.6376  -15.7140 H   0  0  0  0  0  0  0  0  0  0  0  0
   44.3928   13.3147  -10.0472 C   0  0  0  0  0  0  0  0  0  0  0  0
   44.2799   13.9664  -11.3701 C   0  0  0  0  0  0  0  0  0  0  0  0
   43.9767   15.2608  -11.6925 C   0  0  0  0  0  0  0  0  0  0  0  0
   44.0064   15.3301  -13.0293 N   0  0  0  0  0  0  0  0  0  0  0  0
   44.3182   14.1190  -13.5286 C   0  0  0  0  0  0  0  0  0  0  0  0
   44.4774   13.3172  -12.5153 O   0  0  0  0  0  0  0  0  0  0  0  0
 27 28  1  0  0  0
 28 29  2  0  0  0
 29 30  1  0  0  0
 30 31  2  0  0  0
 31 32  1  0  0  0
 31 23  1  0  0  0
 23 24  1  0  0  0
 23 25  1  0  0  0
 23 21  1  0  0  0
 21 22  3  0  0  0
 22  1  1  0  0  0
  1  2  2  0  0  0
  2  3  1  0  0  0
  3  4  2  0  0  0
  4  5  1  0  0  0
  5  6  1  0  0  0
  6  7  1  0  0  0
  7  8  1  0  0  0
  7  9  1  0  0  0
  9 10  1  0  0  0
 10 11  2  0  0  0
 11 12  1  0  0  0
 12 13  2  0  0  0
 13 14  1  0  0  0
 14 15  2  0  0  0
 11 16  1  0  0  0
 16 17  1  0  0  0
 16 18  2  0  0  0
 32 28  1  0  0  0
 15  1  1  0  0  0
 14  4  1  0  0  0
  8  5  1  0  0  0
 13  9  1  0  0  0
 25 26  1  0  0  0
 17 19  1  0  0  0
 17 20  1  0  0  0
M  END
> <minimizedAffinity>
-9.25556

> <CNNscore>
0.1906026751

> <CNNaffinity>
6.5597672462

> <CNN_VS>
1.2503092289

> <CNNaffinity_variance>
0.1150429994

$$$$
[H]O[C@]1(C#Cc2c([H])c([H])c([H])c(-c3nc(C(=O)N([H])[H])c([H])nc3[H])c2[H])C(=O)N(C([H])([H])[H])C([H])([H])C1([H])[H]


 28 30  0  0  0  0  0  0  0  0999 V2000
   35.9134   13.2346  -12.9620 C   0  0  0  0  0  0  0  0  0  0  0  0
   34.7282   12.7353  -13.5095 C   0  0  0  0  0  0  0  0  0  0  0  0
   34.7684   12.1534  -14.7548 C   0  0  0  0  0  0  0  0  0  0  0  0
   35.9690   12.0785  -15.4258 C   0  0  0  0  0  0  0  0  0  0  0  0
   37.1659   12.5626  -14.9154 C   0  0  0  0  0  0  0  0  0  0  0  0
   37.1028   13.1419  -13.6657 C   0  0  0  0  0  0  0  0  0  0  0  0
   38.4091   12.4522  -15.6795 C   0  0  0  0  0  0  0  0  0  0  0  0
   39.6185   12.9356  -15.2450 C   0  0  0  0  0  0  0  0  0  0  0  0
   40.7471   12.8020  -16.0054 N   0  0  0  0  0  0  0  0  0  0  0  0
   40.7079   12.1931  -17.2022 C   0  0  0  0  0  0  0  0  0  0  0  0
   39.5035   11.7070  -17.6446 C   0  0  0  0  0  0  0  0  0  0  0  0
   38.3904   11.8462  -16.8797 N   0  0  0  0  0  0  0  0  0  0  0  0
   39.4406   11.0416  -18.9437 C   0  0  0  0  0  0  0  0  0  0  0  0
   38.2211   10.6457  -19.5372 N   0  0  0  0  0  0  0  0  0  0  0  0
   40.5135   10.8075  -19.5673 O   0  0  0  0  0  0  0  0  0  0  0  0
   37.7645    9.7609  -19.2499 H   0  0  0  0  0  0  0  0  0  0  0  0
   37.7719   11.2312  -20.2614 H   0  0  0  0  0  0  0  0  0  0  0  0
   35.9184   14.3879  -10.5737 C   0  0  0  0  0  0  0  0  0  0  0  0
   35.9204   13.8525  -11.6608 C   0  0  0  0  0  0  0  0  0  0  0  0
   38.1440   17.6653   -7.7508 C   0  0  0  0  0  0  0  0  0  0  0  0
   37.0983   16.7969   -8.2895 N   0  0  0  0  0  0  0  0  0  0  0  0
   35.6928   17.1150   -8.1658 C   0  0  0  0  0  0  0  0  0  0  0  0
   35.0727   16.3126   -9.2777 C   0  0  0  0  0  0  0  0  0  0  0  0
   35.9136   15.0549   -9.2716 C   0  0  0  0  0  0  0  0  0  0  0  0
   35.4266   14.2410   -8.2569 O   0  0  0  0  0  0  0  0  0  0  0  0
   37.2742   15.5620   -8.9869 C   0  0  0  0  0  0  0  0  0  0  0  0
   38.3978   15.0872   -9.2564 O   0  0  0  0  0  0  0  0  0  0  0  0
   34.9704   13.4789   -8.6973 H   0  0  0  0  0  0  0  0  0  0  0  0
 20 21  1  0  0  0
 21 22  1  0  0  0
 22 23  1  0  0  0
 23 24  1  0  0  0
 24 25  1  0  0  0
 24 18  1  0  0  0
 18 19  3  0  0  0
 19  1  1  0  0  0
  1  2  2  0  0  0
  2  3  1  0  0  0
  3  4  2  0  0  0
  4  5  1  0  0  0
  5  6  2  0  0  0
  5  7  1  0  0  0
  7  8  2  0  0  0
  8  9  1  0  0  0
  9 10  2  0  0  0
 10 11  1  0  0  0
 11 12  2  0  0  0
 11 13  1  0  0  0
 13 14  1  0  0  0
 13 15  2  0  0  0
 24 26  1  0  0  0
 26 27  2  0  0  0
 26 21  1  0  0  0
  6  1  1  0  0  0
 12  7  1  0  0  0
 25 28  1  0  0  0
 14 16  1  0  0  0
 14 17  1  0  0  0
M  END
> <minimizedAffinity>
-7.69810

> <CNNscore>
0.8773745894

> <CNNaffinity>
6.5843033791

> <CNN_VS>
5.7769002914

> <CNNaffinity_variance>
0.1693151444

$$$$
[H]O[C@]1(C#Cc2c([H])c([H])c([H])c(-c3nc(C(=O)N([H])[H])c([H])nc3[H])c2[H])C(=O)N(C([H])([H])[H])C([H])([H])C1([H])[H]


 28 30  0  0  0  0  0  0  0  0999 V2000
   42.2872   14.0550  -13.7152 C   0  0  0  0  0  0  0  0  0  0  0  0
   41.7682   15.1143  -12.9653 C   0  0  0  0  0  0  0  0  0  0  0  0
   40.4218   15.3828  -13.0435 C   0  0  0  0  0  0  0  0  0  0  0  0
   39.6249   14.6051  -13.8544 C   0  0  0  0  0  0  0  0  0  0  0  0
   40.1032   13.5457  -14.6134 C   0  0  0  0  0  0  0  0  0  0  0  0
   41.4557   13.2940  -14.5200 C   0  0  0  0  0  0  0  0  0  0  0  0
   39.2033   12.7571  -15.4560 C   0  0  0  0  0  0  0  0  0  0  0  0
   37.9248   12.4113  -15.0940 C   0  0  0  0  0  0  0  0  0  0  0  0
   37.1308   11.6715  -15.9258 N   0  0  0  0  0  0  0  0  0  0  0  0
   37.5769   11.2596  -17.1240 C   0  0  0  0  0  0  0  0  0  0  0  0
   38.8534   11.6005  -17.4942 C   0  0  0  0  0  0  0  0  0  0  0  0
   39.6315   12.3355  -16.6589 N   0  0  0  0  0  0  0  0  0  0  0  0
   39.3567   11.1619  -18.7938 C   0  0  0  0  0  0  0  0  0  0  0  0
   38.5117   10.6465  -19.8020 N   0  0  0  0  0  0  0  0  0  0  0  0
   40.5939   11.2433  -19.0334 O   0  0  0  0  0  0  0  0  0  0  0  0
   38.2093    9.6558  -19.7727 H   0  0  0  0  0  0  0  0  0  0  0  0
   38.1867   11.2487  -20.5771 H   0  0  0  0  0  0  0  0  0  0  0  0
   44.8760   13.4849  -13.6302 C   0  0  0  0  0  0  0  0  0  0  0  0
   43.6911   13.7360  -13.6654 C   0  0  0  0  0  0  0  0  0  0  0  0
   49.0016   13.4725  -16.2077 C   0  0  0  0  0  0  0  0  0  0  0  0
   48.0960   13.5009  -15.0602 N   0  0  0  0  0  0  0  0  0  0  0  0
   48.4606   14.1221  -13.8059 C   0  0  0  0  0  0  0  0  0  0  0  0
   47.1237   14.4006  -13.1735 C   0  0  0  0  0  0  0  0  0  0  0  0
   46.3106   13.1993  -13.6028 C   0  0  0  0  0  0  0  0  0  0  0  0
   46.6310   12.1582  -12.7408 O   0  0  0  0  0  0  0  0  0  0  0  0
   46.7778   12.9539  -14.9852 C   0  0  0  0  0  0  0  0  0  0  0  0
   46.2165   12.3974  -15.9524 O   0  0  0  0  0  0  0  0  0  0  0  0
   45.8382   12.0122  -12.1636 H   0  0  0  0  0  0  0  0  0  0  0  0
 20 21  1  0  0  0
 21 22  1  0  0  0
 22 23  1  0  0  0
 23 24  1  0  0  0
 24 25  1  0  0  0
 24 18  1  0  0  0
 18 19  3  0  0  0
 19  1  1  0  0  0
  1  2  2  0  0  0
  2  3  1  0  0  0
  3  4  2  0  0  0
  4  5  1  0  0  0
  5  6  2  0  0  0
  5  7  1  0  0  0
  7  8  2  0  0  0
  8  9  1  0  0  0
  9 10  2  0  0  0
 10 11  1  0  0  0
 11 12  2  0  0  0
 11 13  1  0  0  0
 13 14  1  0  0  0
 13 15  2  0  0  0
 24 26  1  0  0  0
 26 27  2  0  0  0
 26 21  1  0  0  0
  6  1  1  0  0  0
 12  7  1  0  0  0
 25 28  1  0  0  0
 14 16  1  0  0  0
 14 17  1  0  0  0
M  END
> <minimizedAffinity>
-7.47719

> <CNNscore>
0.8554772735

> <CNNaffinity>
6.5169448853

> <CNN_VS>
5.5750980377

> <CNNaffinity_variance>
0.1815373600

$$$$
[H]O[C@]1(C#Cc2c([H])c([H])c([H])c(-c3nc(C(=O)N([H])[H])c([H])nc3[H])c2[H])C(=O)N(C([H])([H])[H])C([H])([H])C1([H])[H]


 28 30  0  0  0  0  0  0  0  0999 V2000
   35.7856   12.8680  -14.7119 C   0  0  0  0  0  0  0  0  0  0  0  0
   34.6942   12.1085  -15.1429 C   0  0  0  0  0  0  0  0  0  0  0  0
   34.8694   11.2329  -16.1887 C   0  0  0  0  0  0  0  0  0  0  0  0
   36.1089   11.1283  -16.7804 C   0  0  0  0  0  0  0  0  0  0  0  0
   37.2157   11.8649  -16.3807 C   0  0  0  0  0  0  0  0  0  0  0  0
   37.0178   12.7365  -15.3307 C   0  0  0  0  0  0  0  0  0  0  0  0
   38.5067   11.7071  -17.0515 C   0  0  0  0  0  0  0  0  0  0  0  0
   38.6681   11.0739  -18.2590 C   0  0  0  0  0  0  0  0  0  0  0  0
   39.9021   10.9579  -18.8364 N   0  0  0  0  0  0  0  0  0  0  0  0
   40.9959   11.4602  -18.2400 C   0  0  0  0  0  0  0  0  0  0  0  0
   40.8442   12.0946  -17.0330 C   0  0  0  0  0  0  0  0  0  0  0  0
   39.6133   12.2031  -16.4704 N   0  0  0  0  0  0  0  0  0  0  0  0
   42.0222   12.6476  -16.3687 C   0  0  0  0  0  0  0  0  0  0  0  0
   43.3387   12.3692  -16.7990 N   0  0  0  0  0  0  0  0  0  0  0  0
   41.8663   13.4050  -15.3704 O   0  0  0  0  0  0  0  0  0  0  0  0
   43.8029   11.4860  -16.5192 H   0  0  0  0  0  0  0  0  0  0  0  0
   43.8522   13.0399  -17.3953 H   0  0  0  0  0  0  0  0  0  0  0  0
   35.5202   14.5870  -12.7098 C   0  0  0  0  0  0  0  0  0  0  0  0
   35.6503   13.7982  -13.6203 C   0  0  0  0  0  0  0  0  0  0  0  0
   32.6866   15.9808   -9.0095 C   0  0  0  0  0  0  0  0  0  0  0  0
   33.8744   15.8108   -9.8450 N   0  0  0  0  0  0  0  0  0  0  0  0
   35.2119   15.8233   -9.2947 C   0  0  0  0  0  0  0  0  0  0  0  0
   36.0075   15.0917  -10.3418 C   0  0  0  0  0  0  0  0  0  0  0  0
   35.3484   15.5518  -11.6234 C   0  0  0  0  0  0  0  0  0  0  0  0
   35.8750   16.8000  -11.9301 O   0  0  0  0  0  0  0  0  0  0  0  0
   33.9154   15.6155  -11.2601 C   0  0  0  0  0  0  0  0  0  0  0  0
   32.8876   15.5282  -11.9646 O   0  0  0  0  0  0  0  0  0  0  0  0
   36.4592   16.6760  -12.7215 H   0  0  0  0  0  0  0  0  0  0  0  0
 20 21  1  0  0  0
 21 22  1  0  0  0
 22 23  1  0  0  0
 23 24  1  0  0  0
 24 25  1  0  0  0
 24 18  1  0  0  0
 18 19  3  0  0  0
 19  1  1  0  0  0
  1  2  2  0  0  0
  2  3  1  0  0  0
  3  4  2  0  0  0
  4  5  1  0  0  0
  5  6  2  0  0  0
  5  7  1  0  0  0
  7  8  2  0  0  0
  8  9  1  0  0  0
  9 10  2  0  0  0
 10 11  1  0  0  0
 11 12  2  0  0  0
 11 13  1  0  0  0
 13 14  1  0  0  0
 13 15  2  0  0  0
 24 26  1  0  0  0
 26 27  2  0  0  0
 26 21  1  0  0  0
  6  1  1  0  0  0
 12  7  1  0  0  0
 25 28  1  0  0  0
 14 16  1  0  0  0
 14 17  1  0  0  0
M  END
> <minimizedAffinity>
-8.61264

> <CNNscore>
0.8207909465

> <CNNaffinity>
6.7513284683

> <CNN_VS>
5.5414295197

> <CNNaffinity_variance>
0.1702412218

$$$$
[H]O[C@]1(C#Cc2c([H])c([H])c([H])c(-c3nc(C(=O)N([H])[H])c([H])nc3[H])c2[H])C(=O)N(C([H])([H])[H])C([H])([H])C1([H])[H]


 28 30  0  0  0  0  0  0  0  0999 V2000
   36.2822   12.8405  -14.1410 C   0  0  0  0  0  0  0  0  0  0  0  0
   35.1455   12.2655  -14.7163 C   0  0  0  0  0  0  0  0  0  0  0  0
   35.2722   11.6098  -15.9184 C   0  0  0  0  0  0  0  0  0  0  0  0
   36.5091   11.5376  -16.5202 C   0  0  0  0  0  0  0  0  0  0  0  0
   37.6599   12.0956  -15.9802 C   0  0  0  0  0  0  0  0  0  0  0  0
   37.5102   12.7481  -14.7748 C   0  0  0  0  0  0  0  0  0  0  0  0
   38.9455   11.9838  -16.6704 C   0  0  0  0  0  0  0  0  0  0  0  0
   39.1050   11.3882  -17.8972 C   0  0  0  0  0  0  0  0  0  0  0  0
   40.3339   11.3143  -18.4921 N   0  0  0  0  0  0  0  0  0  0  0  0
   41.4244   11.8226  -17.8947 C   0  0  0  0  0  0  0  0  0  0  0  0
   41.2746   12.4197  -16.6685 C   0  0  0  0  0  0  0  0  0  0  0  0
   40.0487   12.4865  -16.0886 N   0  0  0  0  0  0  0  0  0  0  0  0
   42.4490   12.9785  -16.0028 C   0  0  0  0  0  0  0  0  0  0  0  0
   43.6906   13.1376  -16.6578 N   0  0  0  0  0  0  0  0  0  0  0  0
   42.3593   13.3359  -14.7950 O   0  0  0  0  0  0  0  0  0  0  0  0
   44.3362   12.3327  -16.7541 H   0  0  0  0  0  0  0  0  0  0  0  0
   43.9686   14.0543  -17.0470 H   0  0  0  0  0  0  0  0  0  0  0  0
   36.1450   14.1312  -11.8281 C   0  0  0  0  0  0  0  0  0  0  0  0
   36.1985   13.5373  -12.8829 C   0  0  0  0  0  0  0  0  0  0  0  0
   37.9594   17.8565   -9.2797 C   0  0  0  0  0  0  0  0  0  0  0  0
   37.0411   16.8064   -9.7177 N   0  0  0  0  0  0  0  0  0  0  0  0
   35.6116   16.9006   -9.5190 C   0  0  0  0  0  0  0  0  0  0  0  0
   35.0700   15.9561  -10.5578 C   0  0  0  0  0  0  0  0  0  0  0  0
   36.1036   14.8514  -10.5553 C   0  0  0  0  0  0  0  0  0  0  0  0
   35.8127   14.0201   -9.4811 O   0  0  0  0  0  0  0  0  0  0  0  0
   37.3771   15.5833  -10.3761 C   0  0  0  0  0  0  0  0  0  0  0  0
   38.5464   15.2824  -10.6965 O   0  0  0  0  0  0  0  0  0  0  0  0
   35.4631   13.1742   -9.8622 H   0  0  0  0  0  0  0  0  0  0  0  0
 20 21  1  0  0  0
 21 22  1  0  0  0
 22 23  1  0  0  0
 23 24  1  0  0  0
 24 25  1  0  0  0
 24 18  1  0  0  0
 18 19  3  0  0  0
 19  1  1  0  0  0
  1  2  2  0  0  0
  2  3  1  0  0  0
  3  4  2  0  0  0
  4  5  1  0  0  0
  5  6  2  0  0  0
  5  7  1  0  0  0
  7  8  2  0  0  0
  8  9  1  0  0  0
  9 10  2  0  0  0
 10 11  1  0  0  0
 11 12  2  0  0  0
 11 13  1  0  0  0
 13 14  1  0  0  0
 13 15  2  0  0  0
 24 26  1  0  0  0
 26 27  2  0  0  0
 26 21  1  0  0  0
  6  1  1  0  0  0
 12  7  1  0  0  0
 25 28  1  0  0  0
 14 16  1  0  0  0
 14 17  1  0  0  0
M  END
> <minimizedAffinity>
-8.50982

> <CNNscore>
0.8118321896

> <CNNaffinity>
6.5162277222

> <CNN_VS>
5.2900834084

> <CNNaffinity_variance>
0.1583957970

$$$$
[H]O[C@]1(C#Cc2c([H])c([H])c([H])c(-c3nc(C(=O)N([H])[H])c([H])nc3[H])c2[H])C(=O)N(C([H])([H])[H])C([H])([H])C1([H])[H]


 28 30  0  0  0  0  0  0  0  0999 V2000
   36.6755   13.9868  -12.7038 C   0  0  0  0  0  0  0  0  0  0  0  0
   35.2837   13.9692  -12.5759 C   0  0  0  0  0  0  0  0  0  0  0  0
   34.5389   13.3323  -13.5405 C   0  0  0  0  0  0  0  0  0  0  0  0
   35.1807   12.7319  -14.6012 C   0  0  0  0  0  0  0  0  0  0  0  0
   36.5595   12.7282  -14.7626 C   0  0  0  0  0  0  0  0  0  0  0  0
   37.2869   13.3724  -13.7841 C   0  0  0  0  0  0  0  0  0  0  0  0
   37.1806   12.0716  -15.9135 C   0  0  0  0  0  0  0  0  0  0  0  0
   36.5294   11.1767  -16.7260 C   0  0  0  0  0  0  0  0  0  0  0  0
   37.1644   10.5952  -17.7882 N   0  0  0  0  0  0  0  0  0  0  0  0
   38.4462   10.8814  -18.0703 C   0  0  0  0  0  0  0  0  0  0  0  0
   39.1050   11.7746  -17.2637 C   0  0  0  0  0  0  0  0  0  0  0  0
   38.4629   12.3450  -16.2122 N   0  0  0  0  0  0  0  0  0  0  0  0
   40.4997   12.0988  -17.5544 C   0  0  0  0  0  0  0  0  0  0  0  0
   41.2769   12.9317  -16.7188 N   0  0  0  0  0  0  0  0  0  0  0  0
   41.0391   11.6200  -18.5909 O   0  0  0  0  0  0  0  0  0  0  0  0
   41.1975   13.9624  -16.7907 H   0  0  0  0  0  0  0  0  0  0  0  0
   41.9309   12.5247  -16.0290 H   0  0  0  0  0  0  0  0  0  0  0  0
   38.1915   15.2068  -10.9017 C   0  0  0  0  0  0  0  0  0  0  0  0
   37.4973   14.6417  -11.7184 C   0  0  0  0  0  0  0  0  0  0  0  0
   38.2513   18.0338   -6.9434 C   0  0  0  0  0  0  0  0  0  0  0  0
   38.6907   17.0767   -7.9576 N   0  0  0  0  0  0  0  0  0  0  0  0
   39.6610   16.0428   -7.6725 C   0  0  0  0  0  0  0  0  0  0  0  0
   39.3885   15.0271   -8.7490 C   0  0  0  0  0  0  0  0  0  0  0  0
   39.0391   15.9019   -9.9327 C   0  0  0  0  0  0  0  0  0  0  0  0
   40.2355   16.3389  -10.4870 O   0  0  0  0  0  0  0  0  0  0  0  0
   38.2637   17.0029   -9.3194 C   0  0  0  0  0  0  0  0  0  0  0  0
   37.3989   17.7636   -9.8031 O   0  0  0  0  0  0  0  0  0  0  0  0
   40.3388   15.8645  -11.3514 H   0  0  0  0  0  0  0  0  0  0  0  0
 20 21  1  0  0  0
 21 22  1  0  0  0
 22 23  1  0  0  0
 23 24  1  0  0  0
 24 25  1  0  0  0
 24 18  1  0  0  0
 18 19  3  0  0  0
 19  1  1  0  0  0
  1  2  2  0  0  0
  2  3  1  0  0  0
  3  4  2  0  0  0
  4  5  1  0  0  0
  5  6  2  0  0  0
  5  7  1  0  0  0
  7  8  2  0  0  0
  8  9  1  0  0  0
  9 10  2  0  0  0
 10 11  1  0  0  0
 11 12  2  0  0  0
 11 13  1  0  0  0
 13 14  1  0  0  0
 13 15  2  0  0  0
 24 26  1  0  0  0
 26 27  2  0  0  0
 26 21  1  0  0  0
  6  1  1  0  0  0
 12  7  1  0  0  0
 25 28  1  0  0  0
 14 16  1  0  0  0
 14 17  1  0  0  0
M  END
> <minimizedAffinity>
-7.63025

> <CNNscore>
0.7850325704

> <CNNaffinity>
6.3941850662

> <CNN_VS>
5.0196433067

> <CNNaffinity_variance>
0.2067620754

$$$$
[H]O[C@]1(C#Cc2c([H])c([H])c([H])c(-c3nc(C(=O)N([H])[H])c([H])nc3[H])c2[H])C(=O)N(C([H])([H])[H])C([H])([H])C1([H])[H]


 28 30  0  0  0  0  0  0  0  0999 V2000
   37.9011   14.4802  -12.5226 C   0  0  0  0  0  0  0  0  0  0  0  0
   39.1667   15.0203  -12.7684 C   0  0  0  0  0  0  0  0  0  0  0  0
   39.8140   14.6844  -13.9342 C   0  0  0  0  0  0  0  0  0  0  0  0
   39.2015   13.8295  -14.8237 C   0  0  0  0  0  0  0  0  0  0  0  0
   37.9467   13.2735  -14.6149 C   0  0  0  0  0  0  0  0  0  0  0  0
   37.3155   13.6235  -13.4400 C   0  0  0  0  0  0  0  0  0  0  0  0
   37.3502   12.3708  -15.6003 C   0  0  0  0  0  0  0  0  0  0  0  0
   38.0672   11.7235  -16.5761 C   0  0  0  0  0  0  0  0  0  0  0  0
   37.4521   10.8910  -17.4696 N   0  0  0  0  0  0  0  0  0  0  0  0
   36.1264   10.6801  -17.4207 C   0  0  0  0  0  0  0  0  0  0  0  0
   35.4019   11.3227  -16.4488 C   0  0  0  0  0  0  0  0  0  0  0  0
   36.0247   12.1468  -15.5677 N   0  0  0  0  0  0  0  0  0  0  0  0
   33.9587   11.1060  -16.3793 C   0  0  0  0  0  0  0  0  0  0  0  0
   33.2509   11.0844  -15.1568 N   0  0  0  0  0  0  0  0  0  0  0  0
   33.3110   10.9306  -17.4491 O   0  0  0  0  0  0  0  0  0  0  0  0
   33.2385   10.2258  -14.5767 H   0  0  0  0  0  0  0  0  0  0  0  0
   32.7395   11.9207  -14.8280 H   0  0  0  0  0  0  0  0  0  0  0  0
   36.5980   15.0727  -10.2899 C   0  0  0  0  0  0  0  0  0  0  0  0
   37.1846   14.8031  -11.3153 C   0  0  0  0  0  0  0  0  0  0  0  0
   35.5810   18.5578   -7.0520 C   0  0  0  0  0  0  0  0  0  0  0  0
   35.4711   17.3186   -7.8202 N   0  0  0  0  0  0  0  0  0  0  0  0
   34.2013   16.6665   -8.0533 C   0  0  0  0  0  0  0  0  0  0  0  0
   34.4784   15.8286   -9.2723 C   0  0  0  0  0  0  0  0  0  0  0  0
   35.9069   15.3884   -9.0396 C   0  0  0  0  0  0  0  0  0  0  0  0
   35.8663   14.3097   -8.1653 O   0  0  0  0  0  0  0  0  0  0  0  0
   36.5327   16.5847   -8.4340 C   0  0  0  0  0  0  0  0  0  0  0  0
   37.7232   16.9622   -8.4096 O   0  0  0  0  0  0  0  0  0  0  0  0
   36.1051   13.5057   -8.6938 H   0  0  0  0  0  0  0  0  0  0  0  0
 20 21  1  0  0  0
 21 22  1  0  0  0
 22 23  1  0  0  0
 23 24  1  0  0  0
 24 25  1  0  0  0
 24 18  1  0  0  0
 18 19  3  0  0  0
 19  1  1  0  0  0
  1  2  2  0  0  0
  2  3  1  0  0  0
  3  4  2  0  0  0
  4  5  1  0  0  0
  5  6  2  0  0  0
  5  7  1  0  0  0
  7  8  2  0  0  0
  8  9  1  0  0  0
  9 10  2  0  0  0
 10 11  1  0  0  0
 11 12  2  0  0  0
 11 13  1  0  0  0
 13 14  1  0  0  0
 13 15  2  0  0  0
 24 26  1  0  0  0
 26 27  2  0  0  0
 26 21  1  0  0  0
  6  1  1  0  0  0
 12  7  1  0  0  0
 25 28  1  0  0  0
 14 16  1  0  0  0
 14 17  1  0  0  0
M  END
> <minimizedAffinity>
-7.77218

> <CNNscore>
0.6574889421

> <CNNaffinity>
6.1477289200

> <CNN_VS>
4.0420637131

> <CNNaffinity_variance>
0.0653850287

$$$$
[H]O[C@]1(C#Cc2c([H])c([H])c([H])c(-c3nc(C(=O)N([H])[H])c([H])nc3[H])c2[H])C(=O)N(C([H])([H])[H])C([H])([H])C1([H])[H]


 28 30  0  0  0  0  0  0  0  0999 V2000
   35.3973   13.8976  -13.5017 C   0  0  0  0  0  0  0  0  0  0  0  0
   34.0640   13.4814  -13.5558 C   0  0  0  0  0  0  0  0  0  0  0  0
   33.6984   12.5545  -14.5034 C   0  0  0  0  0  0  0  0  0  0  0  0
   34.6505   12.0636  -15.3694 C   0  0  0  0  0  0  0  0  0  0  0  0
   35.9830   12.4523  -15.3467 C   0  0  0  0  0  0  0  0  0  0  0  0
   36.3278   13.3824  -14.3888 C   0  0  0  0  0  0  0  0  0  0  0  0
   36.9464   11.8925  -16.2955 C   0  0  0  0  0  0  0  0  0  0  0  0
   36.6150   10.9972  -17.2822 C   0  0  0  0  0  0  0  0  0  0  0  0
   37.5615   10.5089  -18.1398 N   0  0  0  0  0  0  0  0  0  0  0  0
   38.8459   10.8901  -18.0439 C   0  0  0  0  0  0  0  0  0  0  0  0
   39.1863   11.7846  -17.0607 C   0  0  0  0  0  0  0  0  0  0  0  0
   38.2369   12.2618  -16.2156 N   0  0  0  0  0  0  0  0  0  0  0  0
   40.5784   12.2114  -16.9403 C   0  0  0  0  0  0  0  0  0  0  0  0
   41.5284   12.0052  -17.9655 N   0  0  0  0  0  0  0  0  0  0  0  0
   40.9555   12.7879  -15.8819 O   0  0  0  0  0  0  0  0  0  0  0  0
   41.9946   11.0854  -18.0670 H   0  0  0  0  0  0  0  0  0  0  0  0
   41.7684   12.7659  -18.6235 H   0  0  0  0  0  0  0  0  0  0  0  0
   36.1841   15.6694  -11.6918 C   0  0  0  0  0  0  0  0  0  0  0  0
   35.8272   14.8665  -12.5262 C   0  0  0  0  0  0  0  0  0  0  0  0
   36.0566   16.7734   -6.9559 C   0  0  0  0  0  0  0  0  0  0  0  0
   36.4993   16.7365   -8.3489 N   0  0  0  0  0  0  0  0  0  0  0  0
   37.8832   16.9286   -8.7230 C   0  0  0  0  0  0  0  0  0  0  0  0
   37.9523   16.2810  -10.0797 C   0  0  0  0  0  0  0  0  0  0  0  0
   36.6025   16.6276  -10.6684 C   0  0  0  0  0  0  0  0  0  0  0  0
   36.6888   17.9254  -11.1559 O   0  0  0  0  0  0  0  0  0  0  0  0
   35.6915   16.5183   -9.5074 C   0  0  0  0  0  0  0  0  0  0  0  0
   34.4653   16.2877   -9.4478 O   0  0  0  0  0  0  0  0  0  0  0  0
   36.6793   17.8592  -12.1451 H   0  0  0  0  0  0  0  0  0  0  0  0
 20 21  1  0  0  0
 21 22  1  0  0  0
 22 23  1  0  0  0
 23 24  1  0  0  0
 24 25  1  0  0  0
 24 18  1  0  0  0
 18 19  3  0  0  0
 19  1  1  0  0  0
  1  2  2  0  0  0
  2  3  1  0  0  0
  3  4  2  0  0  0
  4  5  1  0  0  0
  5  6  2  0  0  0
  5  7  1  0  0  0
  7  8  2  0  0  0
  8  9  1  0  0  0
  9 10  2  0  0  0
 10 11  1  0  0  0
 11 12  2  0  0  0
 11 13  1  0  0  0
 13 14  1  0  0  0
 13 15  2  0  0  0
 24 26  1  0  0  0
 26 27  2  0  0  0
 26 21  1  0  0  0
  6  1  1  0  0  0
 12  7  1  0  0  0
 25 28  1  0  0  0
 14 16  1  0  0  0
 14 17  1  0  0  0
M  END
> <minimizedAffinity>
-8.43688

> <CNNscore>
0.5783402324

> <CNNaffinity>
6.3895907402

> <CNN_VS>
3.6953573227

> <CNNaffinity_variance>
0.0987253636

$$$$
[H]O[C@]1(C#Cc2c([H])c([H])c([H])c(-c3nc(C(=O)N([H])[H])c([H])nc3[H])c2[H])C(=O)N(C([H])([H])[H])C([H])([H])C1([H])[H]


 28 30  0  0  0  0  0  0  0  0999 V2000
   36.7765   14.9552  -12.2494 C   0  0  0  0  0  0  0  0  0  0  0  0
   35.5353   14.5630  -12.7587 C   0  0  0  0  0  0  0  0  0  0  0  0
   35.4993   13.8281  -13.9204 C   0  0  0  0  0  0  0  0  0  0  0  0
   36.6809   13.4998  -14.5477 C   0  0  0  0  0  0  0  0  0  0  0  0
   37.9317   13.8707  -14.0730 C   0  0  0  0  0  0  0  0  0  0  0  0
   37.9446   14.6069  -12.9071 C   0  0  0  0  0  0  0  0  0  0  0  0
   39.1508   13.4898  -14.7872 C   0  0  0  0  0  0  0  0  0  0  0  0
   40.4167   13.8096  -14.3624 C   0  0  0  0  0  0  0  0  0  0  0  0
   41.5189   13.4247  -15.0743 N   0  0  0  0  0  0  0  0  0  0  0  0
   41.3977   12.7212  -16.2122 C   0  0  0  0  0  0  0  0  0  0  0  0
   40.1365   12.3971  -16.6443 C   0  0  0  0  0  0  0  0  0  0  0  0
   39.0503   12.7854  -15.9282 N   0  0  0  0  0  0  0  0  0  0  0  0
   39.9841   11.6323  -17.8798 C   0  0  0  0  0  0  0  0  0  0  0  0
   38.8126   10.9033  -18.1834 N   0  0  0  0  0  0  0  0  0  0  0  0
   40.9318   11.6169  -18.7144 O   0  0  0  0  0  0  0  0  0  0  0  0
   38.6658    9.9605  -17.7793 H   0  0  0  0  0  0  0  0  0  0  0  0
   38.0913   11.3000  -18.8091 H   0  0  0  0  0  0  0  0  0  0  0  0
   36.9562   16.3774  -10.0180 C   0  0  0  0  0  0  0  0  0  0  0  0
   36.8641   15.7259  -11.0355 C   0  0  0  0  0  0  0  0  0  0  0  0
   36.9379   20.8505   -8.1061 C   0  0  0  0  0  0  0  0  0  0  0  0
   36.8309   19.3956   -8.2047 N   0  0  0  0  0  0  0  0  0  0  0  0
   35.9984   18.6218   -7.3102 C   0  0  0  0  0  0  0  0  0  0  0  0
   35.7641   17.3554   -8.0888 C   0  0  0  0  0  0  0  0  0  0  0  0
   37.0905   17.1612   -8.7899 C   0  0  0  0  0  0  0  0  0  0  0  0
   37.9560   16.5753   -7.8750 O   0  0  0  0  0  0  0  0  0  0  0  0
   37.4893   18.5418   -9.1427 C   0  0  0  0  0  0  0  0  0  0  0  0
   38.2353   18.9726  -10.0472 O   0  0  0  0  0  0  0  0  0  0  0  0
   38.0934   15.6395   -8.1720 H   0  0  0  0  0  0  0  0  0  0  0  0
 20 21  1  0  0  0
 21 22  1  0  0  0
 22 23  1  0  0  0
 23 24  1  0  0  0
 24 25  1  0  0  0
 24 18  1  0  0  0
 18 19  3  0  0  0
 19  1  1  0  0  0
  1  2  2  0  0  0
  2  3  1  0  0  0
  3  4  2  0  0  0
  4  5  1  0  0  0
  5  6  2  0  0  0
  5  7  1  0  0  0
  7  8  2  0  0  0
  8  9  1  0  0  0
  9 10  2  0  0  0
 10 11  1  0  0  0
 11 12  2  0  0  0
 11 13  1  0  0  0
 13 14  1  0  0  0
 13 15  2  0  0  0
 24 26  1  0  0  0
 26 27  2  0  0  0
 26 21  1  0  0  0
  6  1  1  0  0  0
 12  7  1  0  0  0
 25 28  1  0  0  0
 14 16  1  0  0  0
 14 17  1  0  0  0
M  END
> <minimizedAffinity>
-7.30143

> <CNNscore>
0.5769265294

> <CNNaffinity>
5.9474282265

> <CNN_VS>
3.4312291145

> <CNNaffinity_variance>
0.1545725167

$$$$
[H]O[C@]1(C#Cc2c([H])c([H])c([H])c(-c3nc(C(=O)N([H])[H])c([H])nc3[H])c2[H])C(=O)N(C([H])([H])[H])C([H])([H])C1([H])[H]


 28 30  0  0  0  0  0  0  0  0999 V2000
   40.9538   12.3341  -16.4557 C   0  0  0  0  0  0  0  0  0  0  0  0
   40.7013   11.8303  -17.7348 C   0  0  0  0  0  0  0  0  0  0  0  0
   39.4223   11.4350  -18.0494 C   0  0  0  0  0  0  0  0  0  0  0  0
   38.4297   11.5454  -17.1008 C   0  0  0  0  0  0  0  0  0  0  0  0
   38.6415   12.0403  -15.8212 C   0  0  0  0  0  0  0  0  0  0  0  0
   39.9308   12.4308  -15.5271 C   0  0  0  0  0  0  0  0  0  0  0  0
   37.5431   12.1319  -14.8585 C   0  0  0  0  0  0  0  0  0  0  0  0
   37.7160   12.1026  -13.4968 C   0  0  0  0  0  0  0  0  0  0  0  0
   36.6485   12.1925  -12.6471 N   0  0  0  0  0  0  0  0  0  0  0  0
   35.3963   12.3124  -13.1182 C   0  0  0  0  0  0  0  0  0  0  0  0
   35.2138   12.3425  -14.4778 C   0  0  0  0  0  0  0  0  0  0  0  0
   36.2824   12.2524  -15.3106 N   0  0  0  0  0  0  0  0  0  0  0  0
   33.8592   12.4724  -15.0095 C   0  0  0  0  0  0  0  0  0  0  0  0
   32.9703   13.4858  -14.5867 N   0  0  0  0  0  0  0  0  0  0  0  0
   33.4595   11.6511  -15.8816 O   0  0  0  0  0  0  0  0  0  0  0  0
   32.4340   13.3751  -13.7070 H   0  0  0  0  0  0  0  0  0  0  0  0
   32.8449   14.3456  -15.1472 H   0  0  0  0  0  0  0  0  0  0  0  0
   43.3836   13.1297  -15.7505 C   0  0  0  0  0  0  0  0  0  0  0  0
   42.2776   12.7607  -16.0804 C   0  0  0  0  0  0  0  0  0  0  0  0
   46.9835   12.6002  -12.5217 C   0  0  0  0  0  0  0  0  0  0  0  0
   46.2842   12.9430  -13.7592 N   0  0  0  0  0  0  0  0  0  0  0  0
   46.9554   12.9759  -15.0399 C   0  0  0  0  0  0  0  0  0  0  0  0
   45.8191   12.8154  -16.0134 C   0  0  0  0  0  0  0  0  0  0  0  0
   44.7094   13.5929  -15.3405 C   0  0  0  0  0  0  0  0  0  0  0  0
   44.9177   14.9360  -15.6271 O   0  0  0  0  0  0  0  0  0  0  0  0
   44.9040   13.2831  -13.9067 C   0  0  0  0  0  0  0  0  0  0  0  0
   44.0991   13.2885  -12.9514 O   0  0  0  0  0  0  0  0  0  0  0  0
   44.2056   15.2054  -16.2622 H   0  0  0  0  0  0  0  0  0  0  0  0
 20 21  1  0  0  0
 21 22  1  0  0  0
 22 23  1  0  0  0
 23 24  1  0  0  0
 24 25  1  0  0  0
 24 18  1  0  0  0
 18 19  3  0  0  0
 19  1  1  0  0  0
  1  2  2  0  0  0
  2  3  1  0  0  0
  3  4  2  0  0  0
  4  5  1  0  0  0
  5  6  2  0  0  0
  5  7  1  0  0  0
  7  8  2  0  0  0
  8  9  1  0  0  0
  9 10  2  0  0  0
 10 11  1  0  0  0
 11 12  2  0  0  0
 11 13  1  0  0  0
 13 14  1  0  0  0
 13 15  2  0  0  0
 24 26  1  0  0  0
 26 27  2  0  0  0
 26 21  1  0  0  0
  6  1  1  0  0  0
 12  7  1  0  0  0
 25 28  1  0  0  0
 14 16  1  0  0  0
 14 17  1  0  0  0
M  END
> <minimizedAffinity>
-9.02326

> <CNNscore>
0.5762435198

> <CNNaffinity>
6.2952985764

> <CNN_VS>
3.6276249886

> <CNNaffinity_variance>
0.0130800512

$$$$
[H]O[C@]1(C#Cc2c([H])c([H])c3c(c2[H])-c2nc(C(=O)N([H])[H])c(C([H])([H])c4c([H])c([H])c([H])c([H])c4Cl)n2C2([H])C([H])([H])C3([H])C2([H])[H])C(=O)N(C([H])([H])[H])C([H])([H])C1([H])[H]


 39 44  0  0  0  0  0  0  0  0999 V2000
   39.7769   15.1277   -8.6559 C   0  0  0  0  0  0  0  0  0  0  0  0
   40.2821   16.0702   -9.5415 C   0  0  0  0  0  0  0  0  0  0  0  0
   41.6124   16.1510   -9.8749 C   0  0  0  0  0  0  0  0  0  0  0  0
   42.4508   15.2416   -9.2860 C   0  0  0  0  0  0  0  0  0  0  0  0
   43.8934   15.4208   -9.7100 C   0  0  0  0  0  0  0  0  0  0  0  0
   44.4347   14.0522   -9.9512 C   0  0  0  0  0  0  0  0  0  0  0  0
   45.0432   13.9821   -8.5107 C   0  0  0  0  0  0  0  0  0  0  0  0
   44.7173   15.4534   -8.4168 C   0  0  0  0  0  0  0  0  0  0  0  0
   44.1743   13.1618   -7.6837 N   0  0  0  0  0  0  0  0  0  0  0  0
   44.5532   12.1285   -6.8724 C   0  0  0  0  0  0  0  0  0  0  0  0
   43.4040   11.5766   -6.3824 C   0  0  0  0  0  0  0  0  0  0  0  0
   42.3542   12.3127   -6.9078 N   0  0  0  0  0  0  0  0  0  0  0  0
   42.8155   13.2742   -7.6960 C   0  0  0  0  0  0  0  0  0  0  0  0
   41.9968   14.2837   -8.3989 C   0  0  0  0  0  0  0  0  0  0  0  0
   40.6651   14.2379   -8.0948 C   0  0  0  0  0  0  0  0  0  0  0  0
   43.1314   10.3455   -5.6259 C   0  0  0  0  0  0  0  0  0  0  0  0
   42.4602   10.3513   -4.3885 N   0  0  0  0  0  0  0  0  0  0  0  0
   43.5166    9.2432   -6.0984 O   0  0  0  0  0  0  0  0  0  0  0  0
   42.8348   10.7901   -3.5273 H   0  0  0  0  0  0  0  0  0  0  0  0
   41.5268    9.8918   -4.3281 H   0  0  0  0  0  0  0  0  0  0  0  0
   37.1855   15.0951   -8.1092 C   0  0  0  0  0  0  0  0  0  0  0  0
   38.3657   15.1146   -8.3380 C   0  0  0  0  0  0  0  0  0  0  0  0
   33.0105   14.0393   -5.6805 C   0  0  0  0  0  0  0  0  0  0  0  0
   34.0418   14.7411   -6.4065 N   0  0  0  0  0  0  0  0  0  0  0  0
   33.8025   16.0161   -7.0895 C   0  0  0  0  0  0  0  0  0  0  0  0
   35.1750   16.4380   -7.6148 C   0  0  0  0  0  0  0  0  0  0  0  0
   35.7779   15.0617   -7.8783 C   0  0  0  0  0  0  0  0  0  0  0  0
   35.0641   14.4076   -8.8866 O   0  0  0  0  0  0  0  0  0  0  0  0
   35.4272   14.3749   -6.6106 C   0  0  0  0  0  0  0  0  0  0  0  0
   36.0703   13.6475   -5.8353 O   0  0  0  0  0  0  0  0  0  0  0  0
   35.5834   13.5821   -9.0891 H   0  0  0  0  0  0  0  0  0  0  0  0
   45.9338   11.8186   -6.4932 C   0  0  0  0  0  0  0  0  0  0  0  0
   46.8096   11.0816   -7.4108 C   0  0  0  0  0  0  0  0  0  0  0  0
   46.1493   10.4828   -8.5184 C   0  0  0  0  0  0  0  0  0  0  0  0
   46.7547    9.7273   -9.4759 C   0  0  0  0  0  0  0  0  0  0  0  0
   48.1110    9.5110   -9.3885 C   0  0  0  0  0  0  0  0  0  0  0  0
   48.7797   10.0715   -8.3346 C   0  0  0  0  0  0  0  0  0  0  0  0
   48.1365   10.8483   -7.3562 C   0  0  0  0  0  0  0  0  0  0  0  0
   49.1148   11.4938   -6.0607 Cl  0  0  0  0  0  0  0  0  0  0  0  0
 23 24  1  0  0  0
 24 25  1  0  0  0
 25 26  1  0  0  0
 26 27  1  0  0  0
 27 28  1  0  0  0
 27 21  1  0  0  0
 21 22  3  0  0  0
 22  1  1  0  0  0
  1  2  2  0  0  0
  2  3  1  0  0  0
  3  4  2  0  0  0
  4  5  1  0  0  0
  5  6  1  0  0  0
  6  7  1  0  0  0
  7  8  1  0  0  0
  7  9  1  0  0  0
  9 10  1  0  0  0
 10 32  1  0  0  0
 32 33  1  0  0  0
 33 34  2  0  0  0
 34 35  1  0  0  0
 35 36  2  0  0  0
 36 37  1  0  0  0
 37 38  2  0  0  0
 38 39  1  0  0  0
 10 11  2  0  0  0
 11 12  1  0  0  0
 12 13  2  0  0  0
 13 14  1  0  0  0
 14 15  2  0  0  0
 11 16  1  0  0  0
 16 17  1  0  0  0
 16 18  2  0  0  0
 27 29  1  0  0  0
 29 30  2  0  0  0
 29 24  1  0  0  0
 15  1  1  0  0  0
 14  4  1  0  0  0
  8  5  1  0  0  0
 13  9  1  0  0  0
 38 33  1  0  0  0
 28 31  1  0  0  0
 17 19  1  0  0  0
 17 20  1  0  0  0
M  END
> <minimizedAffinity>
-6.73933

> <CNNscore>
0.1185605079

> <CNNaffinity>
5.4850335121

> <CNN_VS>
0.6503083706

> <CNNaffinity_variance>
0.1098462343

$$$$
[H]O[C@]1(C#Cc2c([H])c([H])c3c(c2[H])-c2nc(C(=O)N([H])[H])c(C([H])([H])c4c([H])c([H])c([H])c([H])c4Cl)n2C2([H])C([H])([H])C3([H])C2([H])[H])C(=O)N(C([H])([H])[H])C([H])([H])C1([H])[H]


 39 44  0  0  0  0  0  0  0  0999 V2000
   40.9064   15.8292  -11.6327 C   0  0  0  0  0  0  0  0  0  0  0  0
   41.7665   15.8324  -12.7226 C   0  0  0  0  0  0  0  0  0  0  0  0
   43.1182   16.0515  -12.6127 C   0  0  0  0  0  0  0  0  0  0  0  0
   43.6051   16.2736  -11.3515 C   0  0  0  0  0  0  0  0  0  0  0  0
   45.1001   16.5138  -11.3392 C   0  0  0  0  0  0  0  0  0  0  0  0
   45.6402   15.7482  -10.1787 C   0  0  0  0  0  0  0  0  0  0  0  0
   45.5995   17.0135   -9.2580 C   0  0  0  0  0  0  0  0  0  0  0  0
   45.3201   17.7922  -10.5211 C   0  0  0  0  0  0  0  0  0  0  0  0
   44.4368   16.9149   -8.3918 N   0  0  0  0  0  0  0  0  0  0  0  0
   44.4090   17.0907   -7.0361 C   0  0  0  0  0  0  0  0  0  0  0  0
   43.1399   16.7905   -6.6305 C   0  0  0  0  0  0  0  0  0  0  0  0
   42.4278   16.4532   -7.7702 N   0  0  0  0  0  0  0  0  0  0  0  0
   43.2087   16.5275   -8.8395 C   0  0  0  0  0  0  0  0  0  0  0  0
   42.7904   16.2796  -10.2349 C   0  0  0  0  0  0  0  0  0  0  0  0
   41.4508   16.0568  -10.3888 C   0  0  0  0  0  0  0  0  0  0  0  0
   42.5337   16.6041   -5.3039 C   0  0  0  0  0  0  0  0  0  0  0  0
   42.7517   15.4497   -4.5283 N   0  0  0  0  0  0  0  0  0  0  0  0
   41.7867   17.5080   -4.8438 O   0  0  0  0  0  0  0  0  0  0  0  0
   42.4353   14.5004   -4.7993 H   0  0  0  0  0  0  0  0  0  0  0  0
   43.2658   15.5470   -3.6271 H   0  0  0  0  0  0  0  0  0  0  0  0
   38.3148   15.4446  -12.0217 C   0  0  0  0  0  0  0  0  0  0  0  0
   39.4899   15.6093  -11.8274 C   0  0  0  0  0  0  0  0  0  0  0  0
   34.3343   13.8347  -14.4726 C   0  0  0  0  0  0  0  0  0  0  0  0
   35.2752   14.1366  -13.4207 N   0  0  0  0  0  0  0  0  0  0  0  0
   34.9032   14.1433  -12.0025 C   0  0  0  0  0  0  0  0  0  0  0  0
   36.2150   14.3963  -11.2589 C   0  0  0  0  0  0  0  0  0  0  0  0
   36.9243   15.2695  -12.2892 C   0  0  0  0  0  0  0  0  0  0  0  0
   36.2343   16.4734  -12.4579 O   0  0  0  0  0  0  0  0  0  0  0  0
   36.6789   14.4759  -13.5188 C   0  0  0  0  0  0  0  0  0  0  0  0
   37.4091   14.1270  -14.4616 O   0  0  0  0  0  0  0  0  0  0  0  0
   36.8151   17.0349  -13.0404 H   0  0  0  0  0  0  0  0  0  0  0  0
   45.4989   17.6580   -6.2383 C   0  0  0  0  0  0  0  0  0  0  0  0
   45.6743   19.1115   -6.1458 C   0  0  0  0  0  0  0  0  0  0  0  0
   44.7014   19.7837   -5.3565 C   0  0  0  0  0  0  0  0  0  0  0  0
   44.6484   21.1297   -5.1578 C   0  0  0  0  0  0  0  0  0  0  0  0
   45.5989   21.9248   -5.7563 C   0  0  0  0  0  0  0  0  0  0  0  0
   46.5511   21.3122   -6.5246 C   0  0  0  0  0  0  0  0  0  0  0  0
   46.5887   19.9208   -6.7176 C   0  0  0  0  0  0  0  0  0  0  0  0
   47.8567   19.2767   -7.7322 Cl  0  0  0  0  0  0  0  0  0  0  0  0
 23 24  1  0  0  0
 24 25  1  0  0  0
 25 26  1  0  0  0
 26 27  1  0  0  0
 27 28  1  0  0  0
 27 21  1  0  0  0
 21 22  3  0  0  0
 22  1  1  0  0  0
  1  2  2  0  0  0
  2  3  1  0  0  0
  3  4  2  0  0  0
  4  5  1  0  0  0
  5  6  1  0  0  0
  6  7  1  0  0  0
  7  8  1  0  0  0
  7  9  1  0  0  0
  9 10  1  0  0  0
 10 32  1  0  0  0
 32 33  1  0  0  0
 33 34  2  0  0  0
 34 35  1  0  0  0
 35 36  2  0  0  0
 36 37  1  0  0  0
 37 38  2  0  0  0
 38 39  1  0  0  0
 10 11  2  0  0  0
 11 12  1  0  0  0
 12 13  2  0  0  0
 13 14  1  0  0  0
 14 15  2  0  0  0
 11 16  1  0  0  0
 16 17  1  0  0  0
 16 18  2  0  0  0
 27 29  1  0  0  0
 29 30  2  0  0  0
 29 24  1  0  0  0
 15  1  1  0  0  0
 14  4  1  0  0  0
  8  5  1  0  0  0
 13  9  1  0  0  0
 38 33  1  0  0  0
 28 31  1  0  0  0
 17 19  1  0  0  0
 17 20  1  0  0  0
M  END
> <minimizedAffinity>
-6.54014

> <CNNscore>
0.1143082157

> <CNNaffinity>
5.7234582901

> <CNN_VS>
0.6542382836

> <CNNaffinity_variance>
0.1187957749

$$$$
[H]O[C@]1(C#Cc2c([H])c([H])c3c(c2[H])-c2nc(C(=O)N([H])[H])c(C([H])([H])c4c([H])c([H])c([H])c([H])c4Cl)n2C2([H])C([H])([H])C3([H])C2([H])[H])C(=O)N(C([H])([H])[H])C([H])([H])C1([H])[H]


 39 44  0  0  0  0  0  0  0  0999 V2000
   40.7918   13.8153   -7.3501 C   0  0  0  0  0  0  0  0  0  0  0  0
   40.7547   13.5124   -5.9956 C   0  0  0  0  0  0  0  0  0  0  0  0
   39.6258   13.6511   -5.2251 C   0  0  0  0  0  0  0  0  0  0  0  0
   38.5018   14.1128   -5.8578 C   0  0  0  0  0  0  0  0  0  0  0  0
   37.3182   14.2397   -4.9219 C   0  0  0  0  0  0  0  0  0  0  0  0
   36.1358   13.7151   -5.6643 C   0  0  0  0  0  0  0  0  0  0  0  0
   35.7165   15.1534   -6.1178 C   0  0  0  0  0  0  0  0  0  0  0  0
   36.7528   15.6489   -5.1378 C   0  0  0  0  0  0  0  0  0  0  0  0
   36.1215   15.3358   -7.5015 N   0  0  0  0  0  0  0  0  0  0  0  0
   35.3488   15.8111   -8.5245 C   0  0  0  0  0  0  0  0  0  0  0  0
   36.0980   15.7025   -9.6612 C   0  0  0  0  0  0  0  0  0  0  0  0
   37.3208   15.1724   -9.2822 N   0  0  0  0  0  0  0  0  0  0  0  0
   37.3401   14.9490   -7.9751 C   0  0  0  0  0  0  0  0  0  0  0  0
   38.4874   14.4272   -7.2037 C   0  0  0  0  0  0  0  0  0  0  0  0
   39.6325   14.2742   -7.9339 C   0  0  0  0  0  0  0  0  0  0  0  0
   35.7770   15.8616  -11.0873 C   0  0  0  0  0  0  0  0  0  0  0  0
   36.1443   17.0048  -11.8222 N   0  0  0  0  0  0  0  0  0  0  0  0
   35.1451   14.9438  -11.6748 O   0  0  0  0  0  0  0  0  0  0  0  0
   35.7743   17.9557  -11.6393 H   0  0  0  0  0  0  0  0  0  0  0  0
   36.8334   16.8967  -12.5965 H   0  0  0  0  0  0  0  0  0  0  0  0
   43.0284   13.5456   -8.7430 C   0  0  0  0  0  0  0  0  0  0  0  0
   42.0229   13.6616   -8.0940 C   0  0  0  0  0  0  0  0  0  0  0  0
   47.4340   11.7550  -10.0951 C   0  0  0  0  0  0  0  0  0  0  0  0
   46.0617   12.2014  -10.1212 N   0  0  0  0  0  0  0  0  0  0  0  0
   45.3603   12.5349  -11.3647 C   0  0  0  0  0  0  0  0  0  0  0  0
   43.9265   12.8409  -10.9308 C   0  0  0  0  0  0  0  0  0  0  0  0
   44.2005   13.4217   -9.5471 C   0  0  0  0  0  0  0  0  0  0  0  0
   44.9269   14.6108   -9.6585 O   0  0  0  0  0  0  0  0  0  0  0  0
   45.1458   12.4070   -9.0194 C   0  0  0  0  0  0  0  0  0  0  0  0
   45.2309   11.8136   -7.9311 O   0  0  0  0  0  0  0  0  0  0  0  0
   44.9582   14.9919   -8.7388 H   0  0  0  0  0  0  0  0  0  0  0  0
   34.0458   16.4609   -8.3634 C   0  0  0  0  0  0  0  0  0  0  0  0
   32.8089   15.7322   -8.6650 C   0  0  0  0  0  0  0  0  0  0  0  0
   32.3363   15.8793   -9.9978 C   0  0  0  0  0  0  0  0  0  0  0  0
   31.1954   15.3223  -10.4900 C   0  0  0  0  0  0  0  0  0  0  0  0
   30.4208   14.5520   -9.6530 C   0  0  0  0  0  0  0  0  0  0  0  0
   30.8444   14.3891   -8.3622 C   0  0  0  0  0  0  0  0  0  0  0  0
   32.0253   14.9727   -7.8731 C   0  0  0  0  0  0  0  0  0  0  0  0
   32.4384   14.6873   -6.1997 Cl  0  0  0  0  0  0  0  0  0  0  0  0
 23 24  1  0  0  0
 24 25  1  0  0  0
 25 26  1  0  0  0
 26 27  1  0  0  0
 27 28  1  0  0  0
 27 21  1  0  0  0
 21 22  3  0  0  0
 22  1  1  0  0  0
  1  2  2  0  0  0
  2  3  1  0  0  0
  3  4  2  0  0  0
  4  5  1  0  0  0
  5  6  1  0  0  0
  6  7  1  0  0  0
  7  8  1  0  0  0
  7  9  1  0  0  0
  9 10  1  0  0  0
 10 32  1  0  0  0
 32 33  1  0  0  0
 33 34  2  0  0  0
 34 35  1  0  0  0
 35 36  2  0  0  0
 36 37  1  0  0  0
 37 38  2  0  0  0
 38 39  1  0  0  0
 10 11  2  0  0  0
 11 12  1  0  0  0
 12 13  2  0  0  0
 13 14  1  0  0  0
 14 15  2  0  0  0
 11 16  1  0  0  0
 16 17  1  0  0  0
 16 18  2  0  0  0
 27 29  1  0  0  0
 29 30  2  0  0  0
 29 24  1  0  0  0
 15  1  1  0  0  0
 14  4  1  0  0  0
  8  5  1  0  0  0
 13  9  1  0  0  0
 38 33  1  0  0  0
 28 31  1  0  0  0
 17 19  1  0  0  0
 17 20  1  0  0  0
M  END
> <minimizedAffinity>
-7.17729

> <CNNscore>
0.1083882973

> <CNNaffinity>
5.6891870499

> <CNN_VS>
0.6166412830

> <CNNaffinity_variance>
0.1287364960

$$$$
[H]O[C@]1(C#Cc2c([H])c([H])c3c(c2[H])-c2nc(C(=O)N([H])[H])c(C([H])([H])c4c([H])c([H])c([H])c([H])c4Cl)n2C2([H])C([H])([H])C3([H])C2([H])[H])C(=O)N(C([H])([H])[H])C([H])([H])C1([H])[H]


 39 44  0  0  0  0  0  0  0  0999 V2000
   39.8802   13.1512  -14.9402 C   0  0  0  0  0  0  0  0  0  0  0  0
   39.0963   12.2719  -15.6751 C   0  0  0  0  0  0  0  0  0  0  0  0
   37.7432   12.1313  -15.4834 C   0  0  0  0  0  0  0  0  0  0  0  0
   37.1748   12.9125  -14.5121 C   0  0  0  0  0  0  0  0  0  0  0  0
   35.6857   12.6756  -14.3727 C   0  0  0  0  0  0  0  0  0  0  0  0
   35.0578   14.0197  -14.2187 C   0  0  0  0  0  0  0  0  0  0  0  0
   35.0527   13.8966  -12.6583 C   0  0  0  0  0  0  0  0  0  0  0  0
   35.4276   12.4505  -12.8777 C   0  0  0  0  0  0  0  0  0  0  0  0
   36.1524   14.6866  -12.1308 N   0  0  0  0  0  0  0  0  0  0  0  0
   36.0904   15.6006  -11.1157 C   0  0  0  0  0  0  0  0  0  0  0  0
   37.3249   16.1794  -11.0370 C   0  0  0  0  0  0  0  0  0  0  0  0
   38.1083   15.5787  -12.0092 N   0  0  0  0  0  0  0  0  0  0  0  0
   37.4029   14.6735  -12.6740 C   0  0  0  0  0  0  0  0  0  0  0  0
   37.9117   13.8033  -13.7544 C   0  0  0  0  0  0  0  0  0  0  0  0
   39.2556   13.9124  -13.9779 C   0  0  0  0  0  0  0  0  0  0  0  0
   37.8370   17.3418  -10.2962 C   0  0  0  0  0  0  0  0  0  0  0  0
   37.3393   18.6437  -10.4938 N   0  0  0  0  0  0  0  0  0  0  0  0
   38.7595   17.1695   -9.4558 O   0  0  0  0  0  0  0  0  0  0  0  0
   37.4360   19.1736  -11.3795 H   0  0  0  0  0  0  0  0  0  0  0  0
   36.8379   19.1080   -9.7071 H   0  0  0  0  0  0  0  0  0  0  0  0
   42.4846   13.3363  -15.3853 C   0  0  0  0  0  0  0  0  0  0  0  0
   41.3036   13.2321  -15.1853 C   0  0  0  0  0  0  0  0  0  0  0  0
   47.0976   14.8319  -14.4224 C   0  0  0  0  0  0  0  0  0  0  0  0
   45.9593   14.0197  -14.7799 N   0  0  0  0  0  0  0  0  0  0  0  0
   46.0869   12.7514  -15.5041 C   0  0  0  0  0  0  0  0  0  0  0  0
   44.6646   12.1933  -15.5620 C   0  0  0  0  0  0  0  0  0  0  0  0
   43.8826   13.5019  -15.6177 C   0  0  0  0  0  0  0  0  0  0  0  0
   44.1724   14.1869  -16.8013 O   0  0  0  0  0  0  0  0  0  0  0  0
   44.5533   14.2547  -14.5290 C   0  0  0  0  0  0  0  0  0  0  0  0
   44.1258   14.9445  -13.5881 O   0  0  0  0  0  0  0  0  0  0  0  0
   43.5405   14.9563  -16.8263 H   0  0  0  0  0  0  0  0  0  0  0  0
   34.9565   15.7702  -10.2038 C   0  0  0  0  0  0  0  0  0  0  0  0
   35.0518   15.3280   -8.8083 C   0  0  0  0  0  0  0  0  0  0  0  0
   36.2332   14.6049   -8.4879 C   0  0  0  0  0  0  0  0  0  0  0  0
   36.5186   14.0724   -7.2677 C   0  0  0  0  0  0  0  0  0  0  0  0
   35.6094   14.2321   -6.2471 C   0  0  0  0  0  0  0  0  0  0  0  0
   34.4597   14.9223   -6.5192 C   0  0  0  0  0  0  0  0  0  0  0  0
   34.1834   15.4643   -7.7858 C   0  0  0  0  0  0  0  0  0  0  0  0
   32.6707   16.3136   -7.9922 Cl  0  0  0  0  0  0  0  0  0  0  0  0
 23 24  1  0  0  0
 24 25  1  0  0  0
 25 26  1  0  0  0
 26 27  1  0  0  0
 27 28  1  0  0  0
 27 21  1  0  0  0
 21 22  3  0  0  0
 22  1  1  0  0  0
  1  2  2  0  0  0
  2  3  1  0  0  0
  3  4  2  0  0  0
  4  5  1  0  0  0
  5  6  1  0  0  0
  6  7  1  0  0  0
  7  8  1  0  0  0
  7  9  1  0  0  0
  9 10  1  0  0  0
 10 32  1  0  0  0
 32 33  1  0  0  0
 33 34  2  0  0  0
 34 35  1  0  0  0
 35 36  2  0  0  0
 36 37  1  0  0  0
 37 38  2  0  0  0
 38 39  1  0  0  0
 10 11  2  0  0  0
 11 12  1  0  0  0
 12 13  2  0  0  0
 13 14  1  0  0  0
 14 15  2  0  0  0
 11 16  1  0  0  0
 16 17  1  0  0  0
 16 18  2  0  0  0
 27 29  1  0  0  0
 29 30  2  0  0  0
 29 24  1  0  0  0
 15  1  1  0  0  0
 14  4  1  0  0  0
  8  5  1  0  0  0
 13  9  1  0  0  0
 38 33  1  0  0  0
 28 31  1  0  0  0
 17 19  1  0  0  0
 17 20  1  0  0  0
M  END
> <minimizedAffinity>
-10.30622

> <CNNscore>
0.0982861221

> <CNNaffinity>
6.0093564987

> <CNN_VS>
0.5906363726

> <CNNaffinity_variance>
0.5330442786

$$$$
[H]O[C@]1(C#Cc2c([H])c([H])c3c(c2[H])-c2nc(C(=O)N([H])[H])c(C([H])([H])c4c([H])c([H])c([H])c([H])c4Cl)n2C2([H])C([H])([H])C3([H])C2([H])[H])C(=O)N(C([H])([H])[H])C([H])([H])C1([H])[H]


 39 44  0  0  0  0  0  0  0  0999 V2000
   36.8346   14.8911   -9.3222 C   0  0  0  0  0  0  0  0  0  0  0  0
   35.9587   15.4034   -8.3745 C   0  0  0  0  0  0  0  0  0  0  0  0
   36.3177   15.6405   -7.0698 C   0  0  0  0  0  0  0  0  0  0  0  0
   37.6100   15.3455   -6.7237 C   0  0  0  0  0  0  0  0  0  0  0  0
   37.9015   15.6320   -5.2657 C   0  0  0  0  0  0  0  0  0  0  0  0
   39.2432   16.2821   -5.2241 C   0  0  0  0  0  0  0  0  0  0  0  0
   39.9523   14.9193   -4.9237 C   0  0  0  0  0  0  0  0  0  0  0  0
   38.5640   14.3668   -4.7065 C   0  0  0  0  0  0  0  0  0  0  0  0
   40.5614   14.4371   -6.1518 N   0  0  0  0  0  0  0  0  0  0  0  0
   41.8441   13.9901   -6.3085 C   0  0  0  0  0  0  0  0  0  0  0  0
   42.0126   13.7505   -7.6424 C   0  0  0  0  0  0  0  0  0  0  0  0
   40.8067   14.0497   -8.2555 N   0  0  0  0  0  0  0  0  0  0  0  0
   39.9244   14.4655   -7.3569 C   0  0  0  0  0  0  0  0  0  0  0  0
   38.5200   14.8349   -7.6303 C   0  0  0  0  0  0  0  0  0  0  0  0
   38.1216   14.6143   -8.9188 C   0  0  0  0  0  0  0  0  0  0  0  0
   43.1960   13.4447   -8.4599 C   0  0  0  0  0  0  0  0  0  0  0  0
   43.1043   12.8294   -9.7228 N   0  0  0  0  0  0  0  0  0  0  0  0
   44.3366   13.7390   -8.0134 O   0  0  0  0  0  0  0  0  0  0  0  0
   42.7581   11.8641   -9.8740 H   0  0  0  0  0  0  0  0  0  0  0  0
   43.3965   13.3733  -10.5622 H   0  0  0  0  0  0  0  0  0  0  0  0
   36.0096   14.4133  -11.7933 C   0  0  0  0  0  0  0  0  0  0  0  0
   36.3802   14.6500  -10.6742 C   0  0  0  0  0  0  0  0  0  0  0  0
   35.5704   11.6637  -15.8787 C   0  0  0  0  0  0  0  0  0  0  0  0
   35.2665   12.4950  -14.7386 N   0  0  0  0  0  0  0  0  0  0  0  0
   34.0083   13.2370  -14.6117 C   0  0  0  0  0  0  0  0  0  0  0  0
   34.0721   13.8734  -13.2230 C   0  0  0  0  0  0  0  0  0  0  0  0
   35.5780   14.0914  -13.1146 C   0  0  0  0  0  0  0  0  0  0  0  0
   36.0027   15.0107  -14.0781 O   0  0  0  0  0  0  0  0  0  0  0  0
   36.0679   12.7648  -13.5639 C   0  0  0  0  0  0  0  0  0  0  0  0
   36.9353   11.9897  -13.1271 O   0  0  0  0  0  0  0  0  0  0  0  0
   36.9585   15.1959  -13.8677 H   0  0  0  0  0  0  0  0  0  0  0  0
   42.7664   13.6781   -5.2139 C   0  0  0  0  0  0  0  0  0  0  0  0
   43.1772   12.2931   -4.9593 C   0  0  0  0  0  0  0  0  0  0  0  0
   42.1078   11.3775   -4.7606 C   0  0  0  0  0  0  0  0  0  0  0  0
   42.2529   10.0533   -4.4789 C   0  0  0  0  0  0  0  0  0  0  0  0
   43.5233    9.5348   -4.3728 C   0  0  0  0  0  0  0  0  0  0  0  0
   44.5776   10.3873   -4.5571 C   0  0  0  0  0  0  0  0  0  0  0  0
   44.4069   11.7515   -4.8470 C   0  0  0  0  0  0  0  0  0  0  0  0
   45.8443   12.7240   -5.0481 Cl  0  0  0  0  0  0  0  0  0  0  0  0
 23 24  1  0  0  0
 24 25  1  0  0  0
 25 26  1  0  0  0
 26 27  1  0  0  0
 27 28  1  0  0  0
 27 21  1  0  0  0
 21 22  3  0  0  0
 22  1  1  0  0  0
  1  2  2  0  0  0
  2  3  1  0  0  0
  3  4  2  0  0  0
  4  5  1  0  0  0
  5  6  1  0  0  0
  6  7  1  0  0  0
  7  8  1  0  0  0
  7  9  1  0  0  0
  9 10  1  0  0  0
 10 32  1  0  0  0
 32 33  1  0  0  0
 33 34  2  0  0  0
 34 35  1  0  0  0
 35 36  2  0  0  0
 36 37  1  0  0  0
 37 38  2  0  0  0
 38 39  1  0  0  0
 10 11  2  0  0  0
 11 12  1  0  0  0
 12 13  2  0  0  0
 13 14  1  0  0  0
 14 15  2  0  0  0
 11 16  1  0  0  0
 16 17  1  0  0  0
 16 18  2  0  0  0
 27 29  1  0  0  0
 29 30  2  0  0  0
 29 24  1  0  0  0
 15  1  1  0  0  0
 14  4  1  0  0  0
  8  5  1  0  0  0
 13  9  1  0  0  0
 38 33  1  0  0  0
 28 31  1  0  0  0
 17 19  1  0  0  0
 17 20  1  0  0  0
M  END
> <minimizedAffinity>
-8.12273

> <CNNscore>
0.0968481153

> <CNNaffinity>
5.5224385262

> <CNN_VS>
0.5348377824

> <CNNaffinity_variance>
0.4170985222

$$$$
[H]O[C@]1(C#Cc2c([H])c([H])c3c(c2[H])-c2nc(C(=O)N([H])[H])c(C([H])([H])c4c([H])c([H])c([H])c([H])c4Cl)n2C2([H])C([H])([H])C3([H])C2([H])[H])C(=O)N(C([H])([H])[H])C([H])([H])C1([H])[H]


 39 44  0  0  0  0  0  0  0  0999 V2000
   39.6652   12.7775  -15.2170 C   0  0  0  0  0  0  0  0  0  0  0  0
   39.9740   12.3419  -16.4986 C   0  0  0  0  0  0  0  0  0  0  0  0
   41.2596   12.2643  -16.9767 C   0  0  0  0  0  0  0  0  0  0  0  0
   42.2589   12.6428  -16.1193 C   0  0  0  0  0  0  0  0  0  0  0  0
   43.6340   12.5307  -16.7432 C   0  0  0  0  0  0  0  0  0  0  0  0
   44.5223   11.9386  -15.7017 C   0  0  0  0  0  0  0  0  0  0  0  0
   45.0259   13.3513  -15.2533 C   0  0  0  0  0  0  0  0  0  0  0  0
   44.3295   13.8734  -16.4871 C   0  0  0  0  0  0  0  0  0  0  0  0
   44.3392   13.7161  -14.0256 N   0  0  0  0  0  0  0  0  0  0  0  0
   44.9113   14.1895  -12.8775 C   0  0  0  0  0  0  0  0  0  0  0  0
   43.9095   14.2856  -11.9542 C   0  0  0  0  0  0  0  0  0  0  0  0
   42.7462   13.8764  -12.5859 N   0  0  0  0  0  0  0  0  0  0  0  0
   43.0011   13.5310  -13.8407 C   0  0  0  0  0  0  0  0  0  0  0  0
   42.0032   13.0826  -14.8340 C   0  0  0  0  0  0  0  0  0  0  0  0
   40.7094   13.1442  -14.3980 C   0  0  0  0  0  0  0  0  0  0  0  0
   43.9078   14.5418  -10.5063 C   0  0  0  0  0  0  0  0  0  0  0  0
   43.3411   13.6454   -9.5804 N   0  0  0  0  0  0  0  0  0  0  0  0
   44.4279   15.6053  -10.0759 O   0  0  0  0  0  0  0  0  0  0  0  0
   42.3303   13.4198   -9.5354 H   0  0  0  0  0  0  0  0  0  0  0  0
   43.9710   13.1726   -8.8981 H   0  0  0  0  0  0  0  0  0  0  0  0
   37.1501   12.9221  -14.3991 C   0  0  0  0  0  0  0  0  0  0  0  0
   38.2854   12.8504  -14.7886 C   0  0  0  0  0  0  0  0  0  0  0  0
   33.2794   15.0633  -12.1909 C   0  0  0  0  0  0  0  0  0  0  0  0
   34.1051   14.3498  -13.1354 N   0  0  0  0  0  0  0  0  0  0  0  0
   33.5484   13.4790  -14.1753 C   0  0  0  0  0  0  0  0  0  0  0  0
   34.7585   13.0341  -14.9970 C   0  0  0  0  0  0  0  0  0  0  0  0
   35.8174   13.0202  -13.8990 C   0  0  0  0  0  0  0  0  0  0  0  0
   35.5087   12.0475  -12.9437 O   0  0  0  0  0  0  0  0  0  0  0  0
   35.5473   14.3307  -13.2577 C   0  0  0  0  0  0  0  0  0  0  0  0
   36.2845   15.2560  -12.8781 O   0  0  0  0  0  0  0  0  0  0  0  0
   36.2968   12.0103  -12.3359 H   0  0  0  0  0  0  0  0  0  0  0  0
   46.2952   14.6544  -12.7564 C   0  0  0  0  0  0  0  0  0  0  0  0
   46.8404   15.6243  -13.7125 C   0  0  0  0  0  0  0  0  0  0  0  0
   48.0930   15.2658  -14.2817 C   0  0  0  0  0  0  0  0  0  0  0  0
   48.7982   16.0259  -15.1643 C   0  0  0  0  0  0  0  0  0  0  0  0
   48.2807   17.2405  -15.5525 C   0  0  0  0  0  0  0  0  0  0  0  0
   47.0766   17.6191  -15.0241 C   0  0  0  0  0  0  0  0  0  0  0  0
   46.3641   16.8201  -14.1139 C   0  0  0  0  0  0  0  0  0  0  0  0
   44.8429   17.4346  -13.5133 Cl  0  0  0  0  0  0  0  0  0  0  0  0
 23 24  1  0  0  0
 24 25  1  0  0  0
 25 26  1  0  0  0
 26 27  1  0  0  0
 27 28  1  0  0  0
 27 21  1  0  0  0
 21 22  3  0  0  0
 22  1  1  0  0  0
  1  2  2  0  0  0
  2  3  1  0  0  0
  3  4  2  0  0  0
  4  5  1  0  0  0
  5  6  1  0  0  0
  6  7  1  0  0  0
  7  8  1  0  0  0
  7  9  1  0  0  0
  9 10  1  0  0  0
 10 32  1  0  0  0
 32 33  1  0  0  0
 33 34  2  0  0  0
 34 35  1  0  0  0
 35 36  2  0  0  0
 36 37  1  0  0  0
 37 38  2  0  0  0
 38 39  1  0  0  0
 10 11  2  0  0  0
 11 12  1  0  0  0
 12 13  2  0  0  0
 13 14  1  0  0  0
 14 15  2  0  0  0
 11 16  1  0  0  0
 16 17  1  0  0  0
 16 18  2  0  0  0
 27 29  1  0  0  0
 29 30  2  0  0  0
 29 24  1  0  0  0
 15  1  1  0  0  0
 14  4  1  0  0  0
  8  5  1  0  0  0
 13  9  1  0  0  0
 38 33  1  0  0  0
 28 31  1  0  0  0
 17 19  1  0  0  0
 17 20  1  0  0  0
M  END
> <minimizedAffinity>
-8.30818

> <CNNscore>
0.0922176763

> <CNNaffinity>
6.4720792770

> <CNN_VS>
0.5968400836

> <CNNaffinity_variance>
0.2492126673

$$$$
[H]O[C@]1(C#Cc2c([H])c([H])c3c(c2[H])-c2nc(C(=O)N([H])[H])c(C([H])([H])c4c([H])c([H])c([H])c([H])c4Cl)n2C2([H])C([H])([H])C3([H])C2([H])[H])C(=O)N(C([H])([H])[H])C([H])([H])C1([H])[H]


 39 44  0  0  0  0  0  0  0  0999 V2000
   37.3185   14.8948  -10.7105 C   0  0  0  0  0  0  0  0  0  0  0  0
   38.6401   15.3201  -10.6959 C   0  0  0  0  0  0  0  0  0  0  0  0
   39.2524   15.8327   -9.5780 C   0  0  0  0  0  0  0  0  0  0  0  0
   38.4914   15.9127   -8.4416 C   0  0  0  0  0  0  0  0  0  0  0  0
   39.2531   16.4991   -7.2717 C   0  0  0  0  0  0  0  0  0  0  0  0
   38.8984   15.6733   -6.0815 C   0  0  0  0  0  0  0  0  0  0  0  0
   37.7855   16.6843   -5.6462 C   0  0  0  0  0  0  0  0  0  0  0  0
   38.3622   17.6058   -6.6941 C   0  0  0  0  0  0  0  0  0  0  0  0
   36.4938   16.1394   -6.0289 N   0  0  0  0  0  0  0  0  0  0  0  0
   35.3837   16.0325   -5.2377 C   0  0  0  0  0  0  0  0  0  0  0  0
   34.4467   15.3612   -5.9702 C   0  0  0  0  0  0  0  0  0  0  0  0
   35.0221   15.0934   -7.2019 N   0  0  0  0  0  0  0  0  0  0  0  0
   36.2616   15.5632   -7.2426 C   0  0  0  0  0  0  0  0  0  0  0  0
   37.1722   15.5017   -8.4048 C   0  0  0  0  0  0  0  0  0  0  0  0
   36.6016   14.9972   -9.5396 C   0  0  0  0  0  0  0  0  0  0  0  0
   33.1421   14.7763   -5.6265 C   0  0  0  0  0  0  0  0  0  0  0  0
   31.9307   15.4697   -5.8095 N   0  0  0  0  0  0  0  0  0  0  0  0
   33.1047   13.6128   -5.1453 O   0  0  0  0  0  0  0  0  0  0  0  0
   31.6725   16.3321   -5.2954 H   0  0  0  0  0  0  0  0  0  0  0  0
   31.2486   15.1017   -6.5060 H   0  0  0  0  0  0  0  0  0  0  0  0
   36.2163   13.9601  -12.9301 C   0  0  0  0  0  0  0  0  0  0  0  0
   36.7350   14.3825  -11.9311 C   0  0  0  0  0  0  0  0  0  0  0  0
   35.6464   11.1635  -16.9672 C   0  0  0  0  0  0  0  0  0  0  0  0
   35.4083   11.8355  -15.7123 N   0  0  0  0  0  0  0  0  0  0  0  0
   34.0644   12.0269  -15.1584 C   0  0  0  0  0  0  0  0  0  0  0  0
   34.2969   12.6697  -13.7907 C   0  0  0  0  0  0  0  0  0  0  0  0
   35.5628   13.4636  -14.0973 C   0  0  0  0  0  0  0  0  0  0  0  0
   35.2933   14.4530  -15.0473 O   0  0  0  0  0  0  0  0  0  0  0  0
   36.3606   12.4255  -14.7957 C   0  0  0  0  0  0  0  0  0  0  0  0
   37.5456   12.0635  -14.7038 O   0  0  0  0  0  0  0  0  0  0  0  0
   36.1217   15.0033  -15.1024 H   0  0  0  0  0  0  0  0  0  0  0  0
   35.2145   16.6773   -3.9332 C   0  0  0  0  0  0  0  0  0  0  0  0
   34.7425   18.0634   -3.8443 C   0  0  0  0  0  0  0  0  0  0  0  0
   33.3442   18.2340   -4.0367 C   0  0  0  0  0  0  0  0  0  0  0  0
   32.6930   19.4298   -4.0297 C   0  0  0  0  0  0  0  0  0  0  0  0
   33.4216   20.5786   -3.8222 C   0  0  0  0  0  0  0  0  0  0  0  0
   34.7710   20.4530   -3.6340 C   0  0  0  0  0  0  0  0  0  0  0  0
   35.4247   19.2092   -3.6450 C   0  0  0  0  0  0  0  0  0  0  0  0
   37.1546   19.1999   -3.4004 Cl  0  0  0  0  0  0  0  0  0  0  0  0
 23 24  1  0  0  0
 24 25  1  0  0  0
 25 26  1  0  0  0
 26 27  1  0  0  0
 27 28  1  0  0  0
 27 21  1  0  0  0
 21 22  3  0  0  0
 22  1  1  0  0  0
  1  2  2  0  0  0
  2  3  1  0  0  0
  3  4  2  0  0  0
  4  5  1  0  0  0
  5  6  1  0  0  0
  6  7  1  0  0  0
  7  8  1  0  0  0
  7  9  1  0  0  0
  9 10  1  0  0  0
 10 32  1  0  0  0
 32 33  1  0  0  0
 33 34  2  0  0  0
 34 35  1  0  0  0
 35 36  2  0  0  0
 36 37  1  0  0  0
 37 38  2  0  0  0
 38 39  1  0  0  0
 10 11  2  0  0  0
 11 12  1  0  0  0
 12 13  2  0  0  0
 13 14  1  0  0  0
 14 15  2  0  0  0
 11 16  1  0  0  0
 16 17  1  0  0  0
 16 18  2  0  0  0
 27 29  1  0  0  0
 29 30  2  0  0  0
 29 24  1  0  0  0
 15  1  1  0  0  0
 14  4  1  0  0  0
  8  5  1  0  0  0
 13  9  1  0  0  0
 38 33  1  0  0  0
 28 31  1  0  0  0
 17 19  1  0  0  0
 17 20  1  0  0  0
M  END
> <minimizedAffinity>
-7.74120

> <CNNscore>
0.0898720026

> <CNNaffinity>
6.0016808510

> <CNN_VS>
0.5393830538

> <CNNaffinity_variance>
0.2586154938

$$$$
[H]O[C@]1(C#Cc2c([H])c([H])c3c(c2[H])-c2nc(C(=O)N([H])[H])c(C([H])([H])c4c([H])c([H])c([H])c([H])c4Cl)n2C2([H])C([H])([H])C3([H])C2([H])[H])C(=O)N(C([H])([H])[H])C([H])([H])C1([H])[H]


 39 44  0  0  0  0  0  0  0  0999 V2000
   40.0053   12.9543  -14.9602 C   0  0  0  0  0  0  0  0  0  0  0  0
   39.2080   12.0595  -15.6610 C   0  0  0  0  0  0  0  0  0  0  0  0
   37.8757   11.8661  -15.3873 C   0  0  0  0  0  0  0  0  0  0  0  0
   37.3428   12.6095  -14.3674 C   0  0  0  0  0  0  0  0  0  0  0  0
   35.8749   12.3159  -14.1391 C   0  0  0  0  0  0  0  0  0  0  0  0
   35.2108   13.6332  -13.9202 C   0  0  0  0  0  0  0  0  0  0  0  0
   35.3092   13.4837  -12.3652 C   0  0  0  0  0  0  0  0  0  0  0  0
   35.7206   12.0562  -12.6355 C   0  0  0  0  0  0  0  0  0  0  0  0
   36.4115   14.3045  -11.8929 N   0  0  0  0  0  0  0  0  0  0  0  0
   36.3817   15.1983  -10.8587 C   0  0  0  0  0  0  0  0  0  0  0  0
   37.5974   15.8206  -10.8467 C   0  0  0  0  0  0  0  0  0  0  0  0
   38.3382   15.2654  -11.8776 N   0  0  0  0  0  0  0  0  0  0  0  0
   37.6246   14.3464  -12.5139 C   0  0  0  0  0  0  0  0  0  0  0  0
   38.0943   13.5138  -13.6407 C   0  0  0  0  0  0  0  0  0  0  0  0
   39.4165   13.6758  -13.9461 C   0  0  0  0  0  0  0  0  0  0  0  0
   38.1140   16.9883  -10.1174 C   0  0  0  0  0  0  0  0  0  0  0  0
   37.5257   18.2633  -10.2174 N   0  0  0  0  0  0  0  0  0  0  0  0
   39.1241   16.8460   -9.3784 O   0  0  0  0  0  0  0  0  0  0  0  0
   37.5031   18.8251  -11.0883 H   0  0  0  0  0  0  0  0  0  0  0  0
   37.0798   18.6720   -9.3689 H   0  0  0  0  0  0  0  0  0  0  0  0
   42.5715   13.2381  -15.5514 C   0  0  0  0  0  0  0  0  0  0  0  0
   41.4065   13.0915  -15.2928 C   0  0  0  0  0  0  0  0  0  0  0  0
   47.2361   14.6001  -14.6400 C   0  0  0  0  0  0  0  0  0  0  0  0
   46.0772   13.8451  -15.0525 N   0  0  0  0  0  0  0  0  0  0  0  0
   46.1594   12.7068  -15.9729 C   0  0  0  0  0  0  0  0  0  0  0  0
   44.7353   12.1538  -16.0335 C   0  0  0  0  0  0  0  0  0  0  0  0
   43.9535   13.4489  -15.8371 C   0  0  0  0  0  0  0  0  0  0  0  0
   44.1735   14.3129  -16.9136 O   0  0  0  0  0  0  0  0  0  0  0  0
   44.6890   14.0270  -14.6853 C   0  0  0  0  0  0  0  0  0  0  0  0
   44.3195   14.5577  -13.6244 O   0  0  0  0  0  0  0  0  0  0  0  0
   43.5424   15.0719  -16.7804 H   0  0  0  0  0  0  0  0  0  0  0  0
   35.3028   15.3108   -9.8741 C   0  0  0  0  0  0  0  0  0  0  0  0
   33.9184   15.5256  -10.3090 C   0  0  0  0  0  0  0  0  0  0  0  0
   33.7038   15.4018  -11.7090 C   0  0  0  0  0  0  0  0  0  0  0  0
   32.5108   15.5898  -12.3379 C   0  0  0  0  0  0  0  0  0  0  0  0
   31.4107   15.9267  -11.5829 C   0  0  0  0  0  0  0  0  0  0  0  0
   31.5800   16.0556  -10.2312 C   0  0  0  0  0  0  0  0  0  0  0  0
   32.8200   15.8574   -9.6008 C   0  0  0  0  0  0  0  0  0  0  0  0
   32.8911   16.0651   -7.8676 Cl  0  0  0  0  0  0  0  0  0  0  0  0
 23 24  1  0  0  0
 24 25  1  0  0  0
 25 26  1  0  0  0
 26 27  1  0  0  0
 27 28  1  0  0  0
 27 21  1  0  0  0
 21 22  3  0  0  0
 22  1  1  0  0  0
  1  2  2  0  0  0
  2  3  1  0  0  0
  3  4  2  0  0  0
  4  5  1  0  0  0
  5  6  1  0  0  0
  6  7  1  0  0  0
  7  8  1  0  0  0
  7  9  1  0  0  0
  9 10  1  0  0  0
 10 32  1  0  0  0
 32 33  1  0  0  0
 33 34  2  0  0  0
 34 35  1  0  0  0
 35 36  2  0  0  0
 36 37  1  0  0  0
 37 38  2  0  0  0
 38 39  1  0  0  0
 10 11  2  0  0  0
 11 12  1  0  0  0
 12 13  2  0  0  0
 13 14  1  0  0  0
 14 15  2  0  0  0
 11 16  1  0  0  0
 16 17  1  0  0  0
 16 18  2  0  0  0
 27 29  1  0  0  0
 29 30  2  0  0  0
 29 24  1  0  0  0
 15  1  1  0  0  0
 14  4  1  0  0  0
  8  5  1  0  0  0
 13  9  1  0  0  0
 38 33  1  0  0  0
 28 31  1  0  0  0
 17 19  1  0  0  0
 17 20  1  0  0  0
M  END
> <minimizedAffinity>
-9.40067

> <CNNscore>
0.0846359283

> <CNNaffinity>
6.0716824532

> <CNN_VS>
0.5138824582

> <CNNaffinity_variance>
0.3072572351

$$$$
[H]O[C@]1(C#Cc2c([H])c([H])c3c(c2[H])-c2nc(C(=O)N([H])[H])c(C([H])([H])c4c([H])c([H])c([H])c([H])c4Cl)n2C2([H])C([H])([H])C3([H])C2([H])[H])C(=O)N(C([H])([H])[H])C([H])([H])C1([H])[H]


 39 44  0  0  0  0  0  0  0  0999 V2000
   36.7454   15.4686  -10.0212 C   0  0  0  0  0  0  0  0  0  0  0  0
   35.7882   16.4196   -9.6940 C   0  0  0  0  0  0  0  0  0  0  0  0
   35.8894   17.2416   -8.5979 C   0  0  0  0  0  0  0  0  0  0  0  0
   37.0018   17.0871   -7.8134 C   0  0  0  0  0  0  0  0  0  0  0  0
   37.0135   18.0300   -6.6286 C   0  0  0  0  0  0  0  0  0  0  0  0
   38.4069   18.5503   -6.5179 C   0  0  0  0  0  0  0  0  0  0  0  0
   38.7808   17.4708   -5.4478 C   0  0  0  0  0  0  0  0  0  0  0  0
   37.3034   17.1636   -5.3967 C   0  0  0  0  0  0  0  0  0  0  0  0
   39.5486   16.4233   -6.0999 N   0  0  0  0  0  0  0  0  0  0  0  0
   40.7348   15.8926   -5.6745 C   0  0  0  0  0  0  0  0  0  0  0  0
   41.1458   15.0277   -6.6483 C   0  0  0  0  0  0  0  0  0  0  0  0
   40.1753   15.0521   -7.6370 N   0  0  0  0  0  0  0  0  0  0  0  0
   39.2057   15.8953   -7.3092 C   0  0  0  0  0  0  0  0  0  0  0  0
   37.9830   16.1557   -8.0971 C   0  0  0  0  0  0  0  0  0  0  0  0
   37.8433   15.3579   -9.1979 C   0  0  0  0  0  0  0  0  0  0  0  0
   42.4061   14.3046   -6.8741 C   0  0  0  0  0  0  0  0  0  0  0  0
   42.5111   12.9074   -6.7381 N   0  0  0  0  0  0  0  0  0  0  0  0
   43.4334   14.9585   -7.1967 O   0  0  0  0  0  0  0  0  0  0  0  0
   42.3883   12.4008   -5.8421 H   0  0  0  0  0  0  0  0  0  0  0  0
   42.7208   12.3406   -7.5871 H   0  0  0  0  0  0  0  0  0  0  0  0
   36.3858   13.9031  -12.1272 C   0  0  0  0  0  0  0  0  0  0  0  0
   36.5622   14.6249  -11.1819 C   0  0  0  0  0  0  0  0  0  0  0  0
   33.7268   11.5924  -15.5963 C   0  0  0  0  0  0  0  0  0  0  0  0
   34.7597   12.3465  -14.9273 N   0  0  0  0  0  0  0  0  0  0  0  0
   36.0877   12.5615  -15.5101 C   0  0  0  0  0  0  0  0  0  0  0  0
   36.7974   13.4911  -14.5253 C   0  0  0  0  0  0  0  0  0  0  0  0
   36.1487   13.0243  -13.2259 C   0  0  0  0  0  0  0  0  0  0  0  0
   36.4984   11.6969  -12.9621 O   0  0  0  0  0  0  0  0  0  0  0  0
   34.7232   13.0027  -13.6376 C   0  0  0  0  0  0  0  0  0  0  0  0
   33.6800   13.4110  -13.1001 O   0  0  0  0  0  0  0  0  0  0  0  0
   36.1480   11.5045  -12.0498 H   0  0  0  0  0  0  0  0  0  0  0  0
   41.3255   16.1050   -4.3509 C   0  0  0  0  0  0  0  0  0  0  0  0
   42.6768   16.6606   -4.2199 C   0  0  0  0  0  0  0  0  0  0  0  0
   43.6255   15.7929   -3.6130 C   0  0  0  0  0  0  0  0  0  0  0  0
   44.9261   16.1079   -3.3613 C   0  0  0  0  0  0  0  0  0  0  0  0
   45.3839   17.3574   -3.7120 C   0  0  0  0  0  0  0  0  0  0  0  0
   44.4981   18.2201   -4.2980 C   0  0  0  0  0  0  0  0  0  0  0  0
   43.1591   17.8759   -4.5492 C   0  0  0  0  0  0  0  0  0  0  0  0
   42.1382   19.0814   -5.2952 Cl  0  0  0  0  0  0  0  0  0  0  0  0
 23 24  1  0  0  0
 24 25  1  0  0  0
 25 26  1  0  0  0
 26 27  1  0  0  0
 27 28  1  0  0  0
 27 21  1  0  0  0
 21 22  3  0  0  0
 22  1  1  0  0  0
  1  2  2  0  0  0
  2  3  1  0  0  0
  3  4  2  0  0  0
  4  5  1  0  0  0
  5  6  1  0  0  0
  6  7  1  0  0  0
  7  8  1  0  0  0
  7  9  1  0  0  0
  9 10  1  0  0  0
 10 32  1  0  0  0
 32 33  1  0  0  0
 33 34  2  0  0  0
 34 35  1  0  0  0
 35 36  2  0  0  0
 36 37  1  0  0  0
 37 38  2  0  0  0
 38 39  1  0  0  0
 10 11  2  0  0  0
 11 12  1  0  0  0
 12 13  2  0  0  0
 13 14  1  0  0  0
 14 15  2  0  0  0
 11 16  1  0  0  0
 16 17  1  0  0  0
 16 18  2  0  0  0
 27 29  1  0  0  0
 29 30  2  0  0  0
 29 24  1  0  0  0
 15  1  1  0  0  0
 14  4  1  0  0  0
  8  5  1  0  0  0
 13  9  1  0  0  0
 38 33  1  0  0  0
 28 31  1  0  0  0
 17 19  1  0  0  0
 17 20  1  0  0  0
M  END
> <minimizedAffinity>
-6.60854

> <CNNscore>
0.0825187638

> <CNNaffinity>
5.7950334549

> <CNN_VS>
0.4781990051

> <CNNaffinity_variance>
0.7040627599

$$$$
[H]O[C@](C#Cc1c([H])c2c(c([H])c1F)OC([H])([H])C([H])([H])n1c-2nc(C(=O)N([H])[H])c1C(=O)N([H])C([H])([H])[H])(c1noc(C([H])([H])[H])c1[H])C([H])([H])[H]


 37 40  0  0  0  0  0  0  0  0999 V2000
   38.2224   11.7796  -16.6035 C   0  0  0  0  0  0  0  0  0  0  0  0
   39.3285   11.7785  -17.4314 C   0  0  0  0  0  0  0  0  0  0  0  0
   40.3010   12.4771  -16.7554 N   0  0  0  0  0  0  0  0  0  0  0  0
   39.7812   12.8651  -15.6000 C   0  0  0  0  0  0  0  0  0  0  0  0
   40.5493   13.6643  -14.6284 C   0  0  0  0  0  0  0  0  0  0  0  0
   41.8999   13.4145  -14.6732 C   0  0  0  0  0  0  0  0  0  0  0  0
   42.7614   14.0858  -13.8110 C   0  0  0  0  0  0  0  0  0  0  0  0
   42.1814   14.9838  -12.9470 C   0  0  0  0  0  0  0  0  0  0  0  0
   43.0107   15.6629  -12.0867 F   0  0  0  0  0  0  0  0  0  0  0  0
   40.8073   15.2286  -12.9128 C   0  0  0  0  0  0  0  0  0  0  0  0
   39.9502   14.5625  -13.7654 C   0  0  0  0  0  0  0  0  0  0  0  0
   38.6075   14.8944  -13.6281 O   0  0  0  0  0  0  0  0  0  0  0  0
   37.5045   14.1933  -14.2052 C   0  0  0  0  0  0  0  0  0  0  0  0
   37.6924   12.7100  -14.2902 C   0  0  0  0  0  0  0  0  0  0  0  0
   38.4797   12.4423  -15.4760 N   0  0  0  0  0  0  0  0  0  0  0  0
   34.5097   10.8541  -16.8491 C   0  0  0  0  0  0  0  0  0  0  0  0
   35.7243   11.6465  -16.5600 N   0  0  0  0  0  0  0  0  0  0  0  0
   36.9848   11.0755  -16.8701 C   0  0  0  0  0  0  0  0  0  0  0  0
   36.9886    9.8979  -17.4025 O   0  0  0  0  0  0  0  0  0  0  0  0
   35.5893   12.5780  -16.1683 H   0  0  0  0  0  0  0  0  0  0  0  0
   39.5210   11.2506  -18.7802 C   0  0  0  0  0  0  0  0  0  0  0  0
   38.5184   10.8459  -19.6743 N   0  0  0  0  0  0  0  0  0  0  0  0
   40.7265   11.1520  -19.1949 O   0  0  0  0  0  0  0  0  0  0  0  0
   38.4353    9.9216  -20.1145 H   0  0  0  0  0  0  0  0  0  0  0  0
   37.7752   11.5660  -19.9204 H   0  0  0  0  0  0  0  0  0  0  0  0
   44.1749   13.8042  -13.8174 C   0  0  0  0  0  0  0  0  0  0  0  0
   45.3592   13.5946  -13.8518 C   0  0  0  0  0  0  0  0  0  0  0  0
   46.7996   13.3702  -13.9206 C   0  0  0  0  0  0  0  0  0  0  0  0
   47.2467   13.2262  -15.3885 C   0  0  0  0  0  0  0  0  0  0  0  0
   47.4934   14.5267  -13.4778 O   0  0  0  0  0  0  0  0  0  0  0  0
   48.3978   14.2476  -13.2545 H   0  0  0  0  0  0  0  0  0  0  0  0
   47.1376   12.1946  -13.1435 C   0  0  0  0  0  0  0  0  0  0  0  0
   46.4629   11.6674  -12.0718 C   0  0  0  0  0  0  0  0  0  0  0  0
   47.1212   10.5414  -11.6348 C   0  0  0  0  0  0  0  0  0  0  0  0
   46.7765    9.6443  -10.5203 C   0  0  0  0  0  0  0  0  0  0  0  0
   48.1800   10.4005  -12.4372 O   0  0  0  0  0  0  0  0  0  0  0  0
   48.1852   11.3736  -13.3226 N   0  0  0  0  0  0  0  0  0  0  0  0
 16 17  1  0  0  0
 17 18  1  0  0  0
 18 19  2  0  0  0
 18  1  1  0  0  0
  1  2  2  0  0  0
  2  3  1  0  0  0
  3  4  2  0  0  0
  4  5  1  0  0  0
  5  6  2  0  0  0
  6  7  1  0  0  0
  7 26  1  0  0  0
 26 27  3  0  0  0
 28 27  1  0  0  0
 28 29  1  0  0  0
 28 30  1  0  0  0
 28 32  1  0  0  0
 32 33  1  0  0  0
 33 34  2  0  0  0
 34 35  1  0  0  0
 34 36  1  0  0  0
 36 37  1  0  0  0
  7  8  2  0  0  0
  8  9  1  0  0  0
  8 10  1  0  0  0
 10 11  2  0  0  0
 11 12  1  0  0  0
 12 13  1  0  0  0
 13 14  1  0  0  0
 14 15  1  0  0  0
  2 21  1  0  0  0
 21 22  1  0  0  0
 21 23  2  0  0  0
 15  1  1  0  0  0
 15  4  1  0  0  0
 11  5  1  0  0  0
 37 32  2  0  0  0
 17 20  1  0  0  0
 30 31  1  0  0  0
 22 24  1  0  0  0
 22 25  1  0  0  0
M  END
> <minimizedAffinity>
-9.11263

> <CNNscore>
0.8000742197

> <CNNaffinity>
7.3816666603

> <CNN_VS>
5.9058814049

> <CNNaffinity_variance>
0.1687058508

$$$$
[H]O[C@](C#Cc1c([H])c2c(c([H])c1F)OC([H])([H])C([H])([H])n1c-2nc(C(=O)N([H])[H])c1C(=O)N([H])C([H])([H])[H])(c1noc(C([H])([H])[H])c1[H])C([H])([H])[H]


 37 40  0  0  0  0  0  0  0  0999 V2000
   37.8885   11.6578  -16.6911 C   0  0  0  0  0  0  0  0  0  0  0  0
   38.9851   11.6613  -17.5315 C   0  0  0  0  0  0  0  0  0  0  0  0
   39.9566   12.3788  -16.8739 N   0  0  0  0  0  0  0  0  0  0  0  0
   39.4451   12.7727  -15.7168 C   0  0  0  0  0  0  0  0  0  0  0  0
   40.2143   13.5914  -14.7625 C   0  0  0  0  0  0  0  0  0  0  0  0
   41.5673   13.3575  -14.8201 C   0  0  0  0  0  0  0  0  0  0  0  0
   42.4301   14.0484  -13.9749 C   0  0  0  0  0  0  0  0  0  0  0  0
   41.8490   14.9484  -13.1138 C   0  0  0  0  0  0  0  0  0  0  0  0
   42.6795   15.6466  -12.2701 F   0  0  0  0  0  0  0  0  0  0  0  0
   40.4725   15.1769  -13.0665 C   0  0  0  0  0  0  0  0  0  0  0  0
   39.6140   14.4914  -13.9022 C   0  0  0  0  0  0  0  0  0  0  0  0
   38.2690   14.8085  -13.7531 O   0  0  0  0  0  0  0  0  0  0  0  0
   37.1683   14.0879  -14.3102 C   0  0  0  0  0  0  0  0  0  0  0  0
   37.3733   12.6062  -14.3817 C   0  0  0  0  0  0  0  0  0  0  0  0
   38.1504   12.3355  -15.5735 N   0  0  0  0  0  0  0  0  0  0  0  0
   34.1821   10.7087  -16.9406 C   0  0  0  0  0  0  0  0  0  0  0  0
   35.3903   11.5198  -16.6785 N   0  0  0  0  0  0  0  0  0  0  0  0
   36.6567   10.9359  -16.9361 C   0  0  0  0  0  0  0  0  0  0  0  0
   36.6712    9.7300  -17.4005 O   0  0  0  0  0  0  0  0  0  0  0  0
   35.2473   12.4717  -16.3425 H   0  0  0  0  0  0  0  0  0  0  0  0
   39.1688   11.1215  -18.8768 C   0  0  0  0  0  0  0  0  0  0  0  0
   38.1619   10.6855  -19.7511 N   0  0  0  0  0  0  0  0  0  0  0  0
   40.3699   11.0429  -19.3082 O   0  0  0  0  0  0  0  0  0  0  0  0
   38.0917    9.7545  -20.1793 H   0  0  0  0  0  0  0  0  0  0  0  0
   37.4004   11.3871  -19.9945 H   0  0  0  0  0  0  0  0  0  0  0  0
   43.8468   13.7839  -13.9944 C   0  0  0  0  0  0  0  0  0  0  0  0
   45.0234   13.5360  -14.0382 C   0  0  0  0  0  0  0  0  0  0  0  0
   46.4436   13.2111  -14.1227 C   0  0  0  0  0  0  0  0  0  0  0  0
   46.9166   12.5461  -12.8152 C   0  0  0  0  0  0  0  0  0  0  0  0
   46.6543   12.2026  -15.0991 O   0  0  0  0  0  0  0  0  0  0  0  0
   47.5969   12.2296  -15.3370 H   0  0  0  0  0  0  0  0  0  0  0  0
   47.1937   14.4179  -14.4074 C   0  0  0  0  0  0  0  0  0  0  0  0
   46.9543   15.6892  -13.9508 C   0  0  0  0  0  0  0  0  0  0  0  0
   47.9123   16.5372  -14.4563 C   0  0  0  0  0  0  0  0  0  0  0  0
   48.0673   17.9853  -14.2459 C   0  0  0  0  0  0  0  0  0  0  0  0
   48.7136   15.7785  -15.2093 O   0  0  0  0  0  0  0  0  0  0  0  0
   48.2882   14.5340  -15.1771 N   0  0  0  0  0  0  0  0  0  0  0  0
 16 17  1  0  0  0
 17 18  1  0  0  0
 18 19  2  0  0  0
 18  1  1  0  0  0
  1  2  2  0  0  0
  2  3  1  0  0  0
  3  4  2  0  0  0
  4  5  1  0  0  0
  5  6  2  0  0  0
  6  7  1  0  0  0
  7 26  1  0  0  0
 26 27  3  0  0  0
 28 27  1  0  0  0
 28 29  1  0  0  0
 28 30  1  0  0  0
 28 32  1  0  0  0
 32 33  1  0  0  0
 33 34  2  0  0  0
 34 35  1  0  0  0
 34 36  1  0  0  0
 36 37  1  0  0  0
  7  8  2  0  0  0
  8  9  1  0  0  0
  8 10  1  0  0  0
 10 11  2  0  0  0
 11 12  1  0  0  0
 12 13  1  0  0  0
 13 14  1  0  0  0
 14 15  1  0  0  0
  2 21  1  0  0  0
 21 22  1  0  0  0
 21 23  2  0  0  0
 15  1  1  0  0  0
 15  4  1  0  0  0
 11  5  1  0  0  0
 37 32  2  0  0  0
 17 20  1  0  0  0
 30 31  1  0  0  0
 22 24  1  0  0  0
 22 25  1  0  0  0
M  END
> <minimizedAffinity>
-8.76547

> <CNNscore>
0.7187312841

> <CNNaffinity>
7.4254531860

> <CNN_VS>
5.3369054794

> <CNNaffinity_variance>
0.2672319710

$$$$
[H]O[C@](C#Cc1c([H])c2c(c([H])c1F)OC([H])([H])C([H])([H])n1c-2nc(C(=O)N([H])[H])c1C(=O)N([H])C([H])([H])[H])(c1noc(C([H])([H])[H])c1[H])C([H])([H])[H]


 37 40  0  0  0  0  0  0  0  0999 V2000
   38.2859   11.9874  -16.4883 C   0  0  0  0  0  0  0  0  0  0  0  0
   39.4872   11.9818  -17.1707 C   0  0  0  0  0  0  0  0  0  0  0  0
   40.3613   12.7041  -16.3927 N   0  0  0  0  0  0  0  0  0  0  0  0
   39.6972   13.1092  -15.3201 C   0  0  0  0  0  0  0  0  0  0  0  0
   40.3306   13.9357  -14.2768 C   0  0  0  0  0  0  0  0  0  0  0  0
   41.6782   13.6996  -14.1465 C   0  0  0  0  0  0  0  0  0  0  0  0
   42.4189   14.3971  -13.1973 C   0  0  0  0  0  0  0  0  0  0  0  0
   41.7276   15.3057  -12.4319 C   0  0  0  0  0  0  0  0  0  0  0  0
   42.4366   16.0106  -11.4888 F   0  0  0  0  0  0  0  0  0  0  0  0
   40.3582   15.5363  -12.5756 C   0  0  0  0  0  0  0  0  0  0  0  0
   39.6205   14.8444  -13.5148 C   0  0  0  0  0  0  0  0  0  0  0  0
   38.2684   15.1645  -13.5541 O   0  0  0  0  0  0  0  0  0  0  0  0
   37.2526   14.4402  -14.2503 C   0  0  0  0  0  0  0  0  0  0  0  0
   37.4618   12.9577  -14.2798 C   0  0  0  0  0  0  0  0  0  0  0  0
   38.3940   12.6750  -15.3515 N   0  0  0  0  0  0  0  0  0  0  0  0
   34.6374   10.9781  -17.0970 C   0  0  0  0  0  0  0  0  0  0  0  0
   35.7984   11.7870  -16.6677 N   0  0  0  0  0  0  0  0  0  0  0  0
   37.0974   11.2649  -16.8932 C   0  0  0  0  0  0  0  0  0  0  0  0
   37.1822   10.1150  -17.4769 O   0  0  0  0  0  0  0  0  0  0  0  0
   35.6023   12.6947  -16.2467 H   0  0  0  0  0  0  0  0  0  0  0  0
   39.8520   11.4295  -18.4733 C   0  0  0  0  0  0  0  0  0  0  0  0
   38.9739   10.9601  -19.4618 N   0  0  0  0  0  0  0  0  0  0  0  0
   41.0996   11.3724  -18.7472 O   0  0  0  0  0  0  0  0  0  0  0  0
   38.9781   10.0225  -19.8811 H   0  0  0  0  0  0  0  0  0  0  0  0
   38.2353   11.6414  -19.8107 H   0  0  0  0  0  0  0  0  0  0  0  0
   43.8242   14.1306  -13.0203 C   0  0  0  0  0  0  0  0  0  0  0  0
   44.9941   13.8779  -12.8970 C   0  0  0  0  0  0  0  0  0  0  0  0
   46.4095   13.5435  -12.7763 C   0  0  0  0  0  0  0  0  0  0  0  0
   47.1464   14.6298  -11.9686 C   0  0  0  0  0  0  0  0  0  0  0  0
   46.5676   12.3786  -11.9807 O   0  0  0  0  0  0  0  0  0  0  0  0
   47.4536   12.0244  -12.1681 H   0  0  0  0  0  0  0  0  0  0  0  0
   46.9781   13.3870  -14.1000 C   0  0  0  0  0  0  0  0  0  0  0  0
   48.1093   13.9732  -14.6085 C   0  0  0  0  0  0  0  0  0  0  0  0
   48.2949   13.5463  -15.9029 C   0  0  0  0  0  0  0  0  0  0  0  0
   49.3660   13.9010  -16.8477 C   0  0  0  0  0  0  0  0  0  0  0  0
   47.2821   12.7152  -16.1642 O   0  0  0  0  0  0  0  0  0  0  0  0
   46.5114   12.6240  -15.1019 N   0  0  0  0  0  0  0  0  0  0  0  0
 16 17  1  0  0  0
 17 18  1  0  0  0
 18 19  2  0  0  0
 18  1  1  0  0  0
  1  2  2  0  0  0
  2  3  1  0  0  0
  3  4  2  0  0  0
  4  5  1  0  0  0
  5  6  2  0  0  0
  6  7  1  0  0  0
  7 26  1  0  0  0
 26 27  3  0  0  0
 28 27  1  0  0  0
 28 29  1  0  0  0
 28 30  1  0  0  0
 28 32  1  0  0  0
 32 33  1  0  0  0
 33 34  2  0  0  0
 34 35  1  0  0  0
 34 36  1  0  0  0
 36 37  1  0  0  0
  7  8  2  0  0  0
  8  9  1  0  0  0
  8 10  1  0  0  0
 10 11  2  0  0  0
 11 12  1  0  0  0
 12 13  1  0  0  0
 13 14  1  0  0  0
 14 15  1  0  0  0
  2 21  1  0  0  0
 21 22  1  0  0  0
 21 23  2  0  0  0
 15  1  1  0  0  0
 15  4  1  0  0  0
 11  5  1  0  0  0
 37 32  2  0  0  0
 17 20  1  0  0  0
 30 31  1  0  0  0
 22 24  1  0  0  0
 22 25  1  0  0  0
M  END
> <minimizedAffinity>
-8.90247

> <CNNscore>
0.6141279936

> <CNNaffinity>
7.2013559341

> <CNN_VS>
4.4225544930

> <CNNaffinity_variance>
0.1187025532

$$$$
[H]O[C@](C#Cc1c([H])c2c(c([H])c1F)OC([H])([H])C([H])([H])n1c-2nc(C(=O)N([H])[H])c1C(=O)N([H])C([H])([H])[H])(c1noc(C([H])([H])[H])c1[H])C([H])([H])[H]


 37 40  0  0  0  0  0  0  0  0999 V2000
   35.1438   14.2731  -12.4596 C   0  0  0  0  0  0  0  0  0  0  0  0
   36.3074   14.1710  -11.7218 C   0  0  0  0  0  0  0  0  0  0  0  0
   37.2235   13.5686  -12.5517 N   0  0  0  0  0  0  0  0  0  0  0  0
   36.6182   13.3313  -13.7063 C   0  0  0  0  0  0  0  0  0  0  0  0
   37.3084   12.6667  -14.8265 C   0  0  0  0  0  0  0  0  0  0  0  0
   38.6602   12.9131  -14.8489 C   0  0  0  0  0  0  0  0  0  0  0  0
   39.4521   12.3615  -15.8513 C   0  0  0  0  0  0  0  0  0  0  0  0
   38.8049   11.5806  -16.7790 C   0  0  0  0  0  0  0  0  0  0  0  0
   39.5649   11.0210  -17.7782 F   0  0  0  0  0  0  0  0  0  0  0  0
   37.4306   11.3378  -16.7437 C   0  0  0  0  0  0  0  0  0  0  0  0
   36.6422   11.8855  -15.7519 C   0  0  0  0  0  0  0  0  0  0  0  0
   35.2910   11.5697  -15.8321 O   0  0  0  0  0  0  0  0  0  0  0  0
   34.2376   12.1869  -15.0901 C   0  0  0  0  0  0  0  0  0  0  0  0
   34.4404   13.6473  -14.8286 C   0  0  0  0  0  0  0  0  0  0  0  0
   35.3139   13.7624  -13.6791 N   0  0  0  0  0  0  0  0  0  0  0  0
   31.4660   15.1249  -11.7894 C   0  0  0  0  0  0  0  0  0  0  0  0
   32.6517   14.3792  -12.2633 N   0  0  0  0  0  0  0  0  0  0  0  0
   33.9334   14.9329  -12.0146 C   0  0  0  0  0  0  0  0  0  0  0  0
   33.9818   16.0533  -11.3724 O   0  0  0  0  0  0  0  0  0  0  0  0
   32.4846   13.4884  -12.7302 H   0  0  0  0  0  0  0  0  0  0  0  0
   36.6012   14.5209  -10.3340 C   0  0  0  0  0  0  0  0  0  0  0  0
   35.7031   14.5055   -9.2562 N   0  0  0  0  0  0  0  0  0  0  0  0
   37.8018   14.8718  -10.0689 O   0  0  0  0  0  0  0  0  0  0  0  0
   35.4805   15.2972   -8.6409 H   0  0  0  0  0  0  0  0  0  0  0  0
   35.2077   13.5855   -9.0570 H   0  0  0  0  0  0  0  0  0  0  0  0
   40.8640   12.6445  -15.9122 C   0  0  0  0  0  0  0  0  0  0  0  0
   42.0493   12.8494  -15.9409 C   0  0  0  0  0  0  0  0  0  0  0  0
   43.4929   13.0629  -15.9567 C   0  0  0  0  0  0  0  0  0  0  0  0
   44.1943   11.9062  -16.6953 C   0  0  0  0  0  0  0  0  0  0  0  0
   43.8079   14.1977  -16.7490 O   0  0  0  0  0  0  0  0  0  0  0  0
   44.7040   14.4798  -16.4981 H   0  0  0  0  0  0  0  0  0  0  0  0
   43.9716   13.1926  -14.5950 C   0  0  0  0  0  0  0  0  0  0  0  0
   43.2419   13.4604  -13.4647 C   0  0  0  0  0  0  0  0  0  0  0  0
   44.0866   13.4888  -12.3794 C   0  0  0  0  0  0  0  0  0  0  0  0
   43.7648   13.7362  -10.9649 C   0  0  0  0  0  0  0  0  0  0  0  0
   45.3089   13.2428  -12.8591 O   0  0  0  0  0  0  0  0  0  0  0  0
   45.2365   13.0686  -14.1611 N   0  0  0  0  0  0  0  0  0  0  0  0
 16 17  1  0  0  0
 17 18  1  0  0  0
 18 19  2  0  0  0
 18  1  1  0  0  0
  1  2  2  0  0  0
  2  3  1  0  0  0
  3  4  2  0  0  0
  4  5  1  0  0  0
  5  6  2  0  0  0
  6  7  1  0  0  0
  7 26  1  0  0  0
 26 27  3  0  0  0
 28 27  1  0  0  0
 28 29  1  0  0  0
 28 30  1  0  0  0
 28 32  1  0  0  0
 32 33  1  0  0  0
 33 34  2  0  0  0
 34 35  1  0  0  0
 34 36  1  0  0  0
 36 37  1  0  0  0
  7  8  2  0  0  0
  8  9  1  0  0  0
  8 10  1  0  0  0
 10 11  2  0  0  0
 11 12  1  0  0  0
 12 13  1  0  0  0
 13 14  1  0  0  0
 14 15  1  0  0  0
  2 21  1  0  0  0
 21 22  1  0  0  0
 21 23  2  0  0  0
 15  1  1  0  0  0
 15  4  1  0  0  0
 11  5  1  0  0  0
 37 32  2  0  0  0
 17 20  1  0  0  0
 30 31  1  0  0  0
 22 24  1  0  0  0
 22 25  1  0  0  0
M  END
> <minimizedAffinity>
-10.32571

> <CNNscore>
0.4003115892

> <CNNaffinity>
6.9176740646

> <CNN_VS>
2.7692251205

> <CNNaffinity_variance>
0.1041224375

$$$$
[H]O[C@](C#Cc1c([H])c2c(c([H])c1F)OC([H])([H])C([H])([H])n1c-2nc(C(=O)N([H])[H])c1C(=O)N([H])C([H])([H])[H])(c1noc(C([H])([H])[H])c1[H])C([H])([H])[H]


 37 40  0  0  0  0  0  0  0  0999 V2000
   36.6657   11.5600  -16.3712 C   0  0  0  0  0  0  0  0  0  0  0  0
   37.8614   11.6374  -17.0591 C   0  0  0  0  0  0  0  0  0  0  0  0
   38.6632   12.4751  -16.3199 N   0  0  0  0  0  0  0  0  0  0  0  0
   37.9645   12.8642  -15.2635 C   0  0  0  0  0  0  0  0  0  0  0  0
   38.5171   13.7948  -14.2627 C   0  0  0  0  0  0  0  0  0  0  0  0
   39.8811   13.6946  -14.1291 C   0  0  0  0  0  0  0  0  0  0  0  0
   40.5528   14.5028  -13.2170 C   0  0  0  0  0  0  0  0  0  0  0  0
   39.7786   15.3758  -12.4905 C   0  0  0  0  0  0  0  0  0  0  0  0
   40.4179   16.1880  -11.5846 F   0  0  0  0  0  0  0  0  0  0  0  0
   38.3932   15.4678  -12.6372 C   0  0  0  0  0  0  0  0  0  0  0  0
   37.7241   14.6658  -13.5395 C   0  0  0  0  0  0  0  0  0  0  0  0
   36.3476   14.8533  -13.5861 O   0  0  0  0  0  0  0  0  0  0  0  0
   35.4049   14.0039  -14.2427 C   0  0  0  0  0  0  0  0  0  0  0  0
   35.7548   12.5484  -14.2052 C   0  0  0  0  0  0  0  0  0  0  0  0
   36.7087   12.3066  -15.2678 N   0  0  0  0  0  0  0  0  0  0  0  0
   33.1562   10.2890  -17.2481 C   0  0  0  0  0  0  0  0  0  0  0  0
   34.2406   11.2284  -16.8902 N   0  0  0  0  0  0  0  0  0  0  0  0
   35.5513   10.7093  -16.7359 C   0  0  0  0  0  0  0  0  0  0  0  0
   35.7157    9.4430  -16.9345 O   0  0  0  0  0  0  0  0  0  0  0  0
   33.9902   12.2118  -16.7922 H   0  0  0  0  0  0  0  0  0  0  0  0
   38.2759   11.0627  -18.3369 C   0  0  0  0  0  0  0  0  0  0  0  0
   37.4366   10.5735  -19.3491 N   0  0  0  0  0  0  0  0  0  0  0  0
   39.5331   11.0038  -18.5625 O   0  0  0  0  0  0  0  0  0  0  0  0
   37.4582    9.6286  -19.7510 H   0  0  0  0  0  0  0  0  0  0  0  0
   36.7104   11.2466  -19.7378 H   0  0  0  0  0  0  0  0  0  0  0  0
   41.9773   14.3802  -13.0356 C   0  0  0  0  0  0  0  0  0  0  0  0
   43.1613   14.2409  -12.8725 C   0  0  0  0  0  0  0  0  0  0  0  0
   44.5911   14.0328  -12.6674 C   0  0  0  0  0  0  0  0  0  0  0  0
   45.2949   15.3810  -12.4171 C   0  0  0  0  0  0  0  0  0  0  0  0
   44.8102   13.3188  -11.4603 O   0  0  0  0  0  0  0  0  0  0  0  0
   45.7071   12.9462  -11.5091 H   0  0  0  0  0  0  0  0  0  0  0  0
   45.1446   13.3493  -13.8191 C   0  0  0  0  0  0  0  0  0  0  0  0
   44.6223   13.2681  -15.0850 C   0  0  0  0  0  0  0  0  0  0  0  0
   45.4723   12.5309  -15.8765 C   0  0  0  0  0  0  0  0  0  0  0  0
   45.3360   12.1771  -17.2984 C   0  0  0  0  0  0  0  0  0  0  0  0
   46.4904   12.1739  -15.0886 O   0  0  0  0  0  0  0  0  0  0  0  0
   46.2941   12.6576  -13.8809 N   0  0  0  0  0  0  0  0  0  0  0  0
 16 17  1  0  0  0
 17 18  1  0  0  0
 18 19  2  0  0  0
 18  1  1  0  0  0
  1  2  2  0  0  0
  2  3  1  0  0  0
  3  4  2  0  0  0
  4  5  1  0  0  0
  5  6  2  0  0  0
  6  7  1  0  0  0
  7 26  1  0  0  0
 26 27  3  0  0  0
 28 27  1  0  0  0
 28 29  1  0  0  0
 28 30  1  0  0  0
 28 32  1  0  0  0
 32 33  1  0  0  0
 33 34  2  0  0  0
 34 35  1  0  0  0
 34 36  1  0  0  0
 36 37  1  0  0  0
  7  8  2  0  0  0
  8  9  1  0  0  0
  8 10  1  0  0  0
 10 11  2  0  0  0
 11 12  1  0  0  0
 12 13  1  0  0  0
 13 14  1  0  0  0
 14 15  1  0  0  0
  2 21  1  0  0  0
 21 22  1  0  0  0
 21 23  2  0  0  0
 15  1  1  0  0  0
 15  4  1  0  0  0
 11  5  1  0  0  0
 37 32  2  0  0  0
 17 20  1  0  0  0
 30 31  1  0  0  0
 22 24  1  0  0  0
 22 25  1  0  0  0
M  END
> <minimizedAffinity>
-7.46356

> <CNNscore>
0.3440007567

> <CNNaffinity>
7.1624474525

> <CNN_VS>
2.4638874531

> <CNNaffinity_variance>
0.4060062468

$$$$
[H]O[C@](C#Cc1c([H])c2c(c([H])c1F)OC([H])([H])C([H])([H])n1c-2nc(C(=O)N([H])[H])c1C(=O)N([H])C([H])([H])[H])(c1noc(C([H])([H])[H])c1[H])C([H])([H])[H]


 37 40  0  0  0  0  0  0  0  0999 V2000
   35.8697   14.4789  -12.2932 C   0  0  0  0  0  0  0  0  0  0  0  0
   36.9850   14.3453  -11.4888 C   0  0  0  0  0  0  0  0  0  0  0  0
   37.9550   13.7849  -12.2863 N   0  0  0  0  0  0  0  0  0  0  0  0
   37.4251   13.6006  -13.4867 C   0  0  0  0  0  0  0  0  0  0  0  0
   38.1883   12.9911  -14.5907 C   0  0  0  0  0  0  0  0  0  0  0  0
   39.5374   13.2418  -14.5160 C   0  0  0  0  0  0  0  0  0  0  0  0
   40.3941   12.7400  -15.4909 C   0  0  0  0  0  0  0  0  0  0  0  0
   39.8112   12.0019  -16.4932 C   0  0  0  0  0  0  0  0  0  0  0  0
   40.6358   11.4918  -17.4673 F   0  0  0  0  0  0  0  0  0  0  0  0
   38.4387   11.7541  -16.5564 C   0  0  0  0  0  0  0  0  0  0  0  0
   37.5862   12.2525  -15.5920 C   0  0  0  0  0  0  0  0  0  0  0  0
   36.2445   11.9373  -15.7722 O   0  0  0  0  0  0  0  0  0  0  0  0
   35.1430   12.5162  -15.0704 C   0  0  0  0  0  0  0  0  0  0  0  0
   35.3208   13.9633  -14.7286 C   0  0  0  0  0  0  0  0  0  0  0  0
   36.1193   14.0265  -13.5220 N   0  0  0  0  0  0  0  0  0  0  0  0
   32.1542   15.2265  -11.7129 C   0  0  0  0  0  0  0  0  0  0  0  0
   33.3728   14.5036  -12.1360 N   0  0  0  0  0  0  0  0  0  0  0  0
   34.6300   15.1139  -11.8953 C   0  0  0  0  0  0  0  0  0  0  0  0
   34.6288   16.2632  -11.3043 O   0  0  0  0  0  0  0  0  0  0  0  0
   33.2445   13.5872  -12.5640 H   0  0  0  0  0  0  0  0  0  0  0  0
   37.1886   14.6304  -10.0703 C   0  0  0  0  0  0  0  0  0  0  0  0
   36.2086   14.6381   -9.0664 N   0  0  0  0  0  0  0  0  0  0  0  0
   38.3839   14.8942   -9.7003 O   0  0  0  0  0  0  0  0  0  0  0  0
   35.9872   15.4222   -8.4410 H   0  0  0  0  0  0  0  0  0  0  0  0
   35.6429   13.7461   -8.9406 H   0  0  0  0  0  0  0  0  0  0  0  0
   41.8055   13.0292  -15.4490 C   0  0  0  0  0  0  0  0  0  0  0  0
   42.9893   13.2445  -15.4425 C   0  0  0  0  0  0  0  0  0  0  0  0
   44.4290   13.4817  -15.4668 C   0  0  0  0  0  0  0  0  0  0  0  0
   45.0894   12.6363  -16.5734 C   0  0  0  0  0  0  0  0  0  0  0  0
   44.6950   14.8164  -15.8701 O   0  0  0  0  0  0  0  0  0  0  0  0
   45.6035   15.0222  -15.5906 H   0  0  0  0  0  0  0  0  0  0  0  0
   44.9851   13.1797  -14.1631 C   0  0  0  0  0  0  0  0  0  0  0  0
   46.0249   12.3369  -13.8626 C   0  0  0  0  0  0  0  0  0  0  0  0
   46.2348   12.3475  -12.5031 C   0  0  0  0  0  0  0  0  0  0  0  0
   47.2344   11.6067  -11.7173 C   0  0  0  0  0  0  0  0  0  0  0  0
   45.3266   13.1869  -11.9980 O   0  0  0  0  0  0  0  0  0  0  0  0
   44.5950   13.6742  -12.9769 N   0  0  0  0  0  0  0  0  0  0  0  0
 16 17  1  0  0  0
 17 18  1  0  0  0
 18 19  2  0  0  0
 18  1  1  0  0  0
  1  2  2  0  0  0
  2  3  1  0  0  0
  3  4  2  0  0  0
  4  5  1  0  0  0
  5  6  2  0  0  0
  6  7  1  0  0  0
  7 26  1  0  0  0
 26 27  3  0  0  0
 28 27  1  0  0  0
 28 29  1  0  0  0
 28 30  1  0  0  0
 28 32  1  0  0  0
 32 33  1  0  0  0
 33 34  2  0  0  0
 34 35  1  0  0  0
 34 36  1  0  0  0
 36 37  1  0  0  0
  7  8  2  0  0  0
  8  9  1  0  0  0
  8 10  1  0  0  0
 10 11  2  0  0  0
 11 12  1  0  0  0
 12 13  1  0  0  0
 13 14  1  0  0  0
 14 15  1  0  0  0
  2 21  1  0  0  0
 21 22  1  0  0  0
 21 23  2  0  0  0
 15  1  1  0  0  0
 15  4  1  0  0  0
 11  5  1  0  0  0
 37 32  2  0  0  0
 17 20  1  0  0  0
 30 31  1  0  0  0
 22 24  1  0  0  0
 22 25  1  0  0  0
M  END
> <minimizedAffinity>
-9.13447

> <CNNscore>
0.2198026925

> <CNNaffinity>
6.3228106499

> <CNN_VS>
1.3897707462

> <CNNaffinity_variance>
0.1837060750

$$$$
[H]O[C@](C#Cc1c([H])c2c(c([H])c1F)OC([H])([H])C([H])([H])n1c-2nc(C(=O)N([H])[H])c1C(=O)N([H])C([H])([H])[H])(c1noc(C([H])([H])[H])c1[H])C([H])([H])[H]


 37 40  0  0  0  0  0  0  0  0999 V2000
   37.7663   16.3799   -8.4338 C   0  0  0  0  0  0  0  0  0  0  0  0
   38.8757   15.5671   -8.5656 C   0  0  0  0  0  0  0  0  0  0  0  0
   38.7389   14.9440   -9.7838 N   0  0  0  0  0  0  0  0  0  0  0  0
   37.6071   15.3716  -10.3241 C   0  0  0  0  0  0  0  0  0  0  0  0
   37.1349   14.8847  -11.6328 C   0  0  0  0  0  0  0  0  0  0  0  0
   38.1595   14.5366  -12.4799 C   0  0  0  0  0  0  0  0  0  0  0  0
   37.8766   14.0646  -13.7579 C   0  0  0  0  0  0  0  0  0  0  0  0
   36.5468   13.9747  -14.0941 C   0  0  0  0  0  0  0  0  0  0  0  0
   36.2400   13.5082  -15.3499 F   0  0  0  0  0  0  0  0  0  0  0  0
   35.5157   14.3310  -13.2229 C   0  0  0  0  0  0  0  0  0  0  0  0
   35.7934   14.8016  -11.9554 C   0  0  0  0  0  0  0  0  0  0  0  0
   34.6790   15.1240  -11.1897 O   0  0  0  0  0  0  0  0  0  0  0  0
   34.6860   15.8456   -9.9567 C   0  0  0  0  0  0  0  0  0  0  0  0
   35.7314   16.9146   -9.8731 C   0  0  0  0  0  0  0  0  0  0  0  0
   36.9755   16.2730   -9.5015 N   0  0  0  0  0  0  0  0  0  0  0  0
   37.9687   19.3942   -6.0729 C   0  0  0  0  0  0  0  0  0  0  0  0
   38.2525   18.5191   -7.2306 N   0  0  0  0  0  0  0  0  0  0  0  0
   37.5362   17.3000   -7.3388 C   0  0  0  0  0  0  0  0  0  0  0  0
   36.6656   17.0391   -6.4201 O   0  0  0  0  0  0  0  0  0  0  0  0
   38.9397   18.8509   -7.9067 H   0  0  0  0  0  0  0  0  0  0  0  0
   39.9798   15.2891   -7.6498 C   0  0  0  0  0  0  0  0  0  0  0  0
   39.9430   14.4621   -6.5172 N   0  0  0  0  0  0  0  0  0  0  0  0
   41.0991   15.8508   -7.9079 O   0  0  0  0  0  0  0  0  0  0  0  0
   40.1811   14.7379   -5.5568 H   0  0  0  0  0  0  0  0  0  0  0  0
   39.6417   13.4533   -6.6687 H   0  0  0  0  0  0  0  0  0  0  0  0
   38.9408   13.7350  -14.6723 C   0  0  0  0  0  0  0  0  0  0  0  0
   39.8338   13.4259  -15.4171 C   0  0  0  0  0  0  0  0  0  0  0  0
   40.9176   13.0144  -16.3036 C   0  0  0  0  0  0  0  0  0  0  0  0
   41.6498   14.2515  -16.8594 C   0  0  0  0  0  0  0  0  0  0  0  0
   41.9242   12.3428  -15.5615 O   0  0  0  0  0  0  0  0  0  0  0  0
   42.4565   11.8360  -16.1982 H   0  0  0  0  0  0  0  0  0  0  0  0
   40.3782   12.1924  -17.3681 C   0  0  0  0  0  0  0  0  0  0  0  0
   39.0727   11.8235  -17.5720 C   0  0  0  0  0  0  0  0  0  0  0  0
   38.9957   11.0471  -18.7050 C   0  0  0  0  0  0  0  0  0  0  0  0
   37.8123   10.4241  -19.3188 C   0  0  0  0  0  0  0  0  0  0  0  0
   40.2444   10.9522  -19.1704 O   0  0  0  0  0  0  0  0  0  0  0  0
   41.0531   11.6272  -18.3824 N   0  0  0  0  0  0  0  0  0  0  0  0
 16 17  1  0  0  0
 17 18  1  0  0  0
 18 19  2  0  0  0
 18  1  1  0  0  0
  1  2  2  0  0  0
  2  3  1  0  0  0
  3  4  2  0  0  0
  4  5  1  0  0  0
  5  6  2  0  0  0
  6  7  1  0  0  0
  7 26  1  0  0  0
 26 27  3  0  0  0
 28 27  1  0  0  0
 28 29  1  0  0  0
 28 30  1  0  0  0
 28 32  1  0  0  0
 32 33  1  0  0  0
 33 34  2  0  0  0
 34 35  1  0  0  0
 34 36  1  0  0  0
 36 37  1  0  0  0
  7  8  2  0  0  0
  8  9  1  0  0  0
  8 10  1  0  0  0
 10 11  2  0  0  0
 11 12  1  0  0  0
 12 13  1  0  0  0
 13 14  1  0  0  0
 14 15  1  0  0  0
  2 21  1  0  0  0
 21 22  1  0  0  0
 21 23  2  0  0  0
 15  1  1  0  0  0
 15  4  1  0  0  0
 11  5  1  0  0  0
 37 32  2  0  0  0
 17 20  1  0  0  0
 30 31  1  0  0  0
 22 24  1  0  0  0
 22 25  1  0  0  0
M  END
> <minimizedAffinity>
-6.76790

> <CNNscore>
0.2130453140

> <CNNaffinity>
6.2215499878

> <CNN_VS>
1.3254721165

> <CNNaffinity_variance>
0.4254262447

$$$$
[H]O[C@](C#Cc1c([H])c2c(c([H])c1F)OC([H])([H])C([H])([H])n1c-2nc(C(=O)N([H])[H])c1C(=O)N([H])C([H])([H])[H])(c1noc(C([H])([H])[H])c1[H])C([H])([H])[H]


 37 40  0  0  0  0  0  0  0  0999 V2000
   36.5082   12.1406  -15.2020 C   0  0  0  0  0  0  0  0  0  0  0  0
   36.8816   12.3038  -13.8819 C   0  0  0  0  0  0  0  0  0  0  0  0
   38.2480   12.4570  -13.8971 N   0  0  0  0  0  0  0  0  0  0  0  0
   38.6425   12.3812  -15.1598 C   0  0  0  0  0  0  0  0  0  0  0  0
   40.0630   12.4819  -15.5404 C   0  0  0  0  0  0  0  0  0  0  0  0
   40.7955   13.2695  -14.6850 C   0  0  0  0  0  0  0  0  0  0  0  0
   42.1534   13.4698  -14.9134 C   0  0  0  0  0  0  0  0  0  0  0  0
   42.6853   12.8428  -16.0149 C   0  0  0  0  0  0  0  0  0  0  0  0
   44.0255   13.0217  -16.2614 F   0  0  0  0  0  0  0  0  0  0  0  0
   41.9293   12.0444  -16.8753 C   0  0  0  0  0  0  0  0  0  0  0  0
   40.5818   11.8457  -16.6525 C   0  0  0  0  0  0  0  0  0  0  0  0
   39.9444   11.0337  -17.5833 O   0  0  0  0  0  0  0  0  0  0  0  0
   38.5329   10.8639  -17.7245 C   0  0  0  0  0  0  0  0  0  0  0  0
   37.7313   12.0959  -17.4381 C   0  0  0  0  0  0  0  0  0  0  0  0
   37.5742   12.1837  -16.0010 N   0  0  0  0  0  0  0  0  0  0  0  0
   33.3098   10.9425  -16.9443 C   0  0  0  0  0  0  0  0  0  0  0  0
   34.7182   10.9633  -16.4944 N   0  0  0  0  0  0  0  0  0  0  0  0
   35.1418   12.0382  -15.6720 C   0  0  0  0  0  0  0  0  0  0  0  0
   34.2589   12.9273  -15.3553 O   0  0  0  0  0  0  0  0  0  0  0  0
   35.3106   10.1861  -16.7850 H   0  0  0  0  0  0  0  0  0  0  0  0
   36.0994   12.2659  -12.6484 C   0  0  0  0  0  0  0  0  0  0  0  0
   35.7885   13.3529  -11.8177 N   0  0  0  0  0  0  0  0  0  0  0  0
   35.6435   11.1266  -12.2888 O   0  0  0  0  0  0  0  0  0  0  0  0
   36.0019   13.4312  -10.8160 H   0  0  0  0  0  0  0  0  0  0  0  0
   35.2820   14.1724  -12.2686 H   0  0  0  0  0  0  0  0  0  0  0  0
   42.9259   14.3264  -14.0492 C   0  0  0  0  0  0  0  0  0  0  0  0
   43.5922   15.0107  -13.3175 C   0  0  0  0  0  0  0  0  0  0  0  0
   44.4246   15.8091  -12.4234 C   0  0  0  0  0  0  0  0  0  0  0  0
   43.7797   15.8902  -11.0260 C   0  0  0  0  0  0  0  0  0  0  0  0
   45.6541   15.1429  -12.1797 O   0  0  0  0  0  0  0  0  0  0  0  0
   46.2781   15.8104  -11.8468 H   0  0  0  0  0  0  0  0  0  0  0  0
   44.6167   17.1256  -12.9980 C   0  0  0  0  0  0  0  0  0  0  0  0
   43.7978   18.2211  -12.8929 C   0  0  0  0  0  0  0  0  0  0  0  0
   44.3586   19.2706  -13.5830 C   0  0  0  0  0  0  0  0  0  0  0  0
   43.8494   20.6406  -13.7541 C   0  0  0  0  0  0  0  0  0  0  0  0
   45.5001   18.8038  -14.0968 O   0  0  0  0  0  0  0  0  0  0  0  0
   45.6480   17.5434  -13.7499 N   0  0  0  0  0  0  0  0  0  0  0  0
 16 17  1  0  0  0
 17 18  1  0  0  0
 18 19  2  0  0  0
 18  1  1  0  0  0
  1  2  2  0  0  0
  2  3  1  0  0  0
  3  4  2  0  0  0
  4  5  1  0  0  0
  5  6  2  0  0  0
  6  7  1  0  0  0
  7 26  1  0  0  0
 26 27  3  0  0  0
 28 27  1  0  0  0
 28 29  1  0  0  0
 28 30  1  0  0  0
 28 32  1  0  0  0
 32 33  1  0  0  0
 33 34  2  0  0  0
 34 35  1  0  0  0
 34 36  1  0  0  0
 36 37  1  0  0  0
  7  8  2  0  0  0
  8  9  1  0  0  0
  8 10  1  0  0  0
 10 11  2  0  0  0
 11 12  1  0  0  0
 12 13  1  0  0  0
 13 14  1  0  0  0
 14 15  1  0  0  0
  2 21  1  0  0  0
 21 22  1  0  0  0
 21 23  2  0  0  0
 15  1  1  0  0  0
 15  4  1  0  0  0
 11  5  1  0  0  0
 37 32  2  0  0  0
 17 20  1  0  0  0
 30 31  1  0  0  0
 22 24  1  0  0  0
 22 25  1  0  0  0
M  END
> <minimizedAffinity>
-7.56759

> <CNNscore>
0.1819516867

> <CNNaffinity>
6.5893454552

> <CNN_VS>
1.1989425421

> <CNNaffinity_variance>
0.1513484418

$$$$
[H]O[C@](C#Cc1c([H])c2c(c([H])c1F)OC([H])([H])C([H])([H])n1c-2nc(C(=O)N([H])[H])c1C(=O)N([H])C([H])([H])[H])(c1noc(C([H])([H])[H])c1[H])C([H])([H])[H]


 37 40  0  0  0  0  0  0  0  0999 V2000
   38.6520   12.8938  -15.4310 C   0  0  0  0  0  0  0  0  0  0  0  0
   39.8170   13.0014  -16.1658 C   0  0  0  0  0  0  0  0  0  0  0  0
   40.6939   13.7045  -15.3736 N   0  0  0  0  0  0  0  0  0  0  0  0
   40.0656   13.9916  -14.2429 C   0  0  0  0  0  0  0  0  0  0  0  0
   40.7108   14.7658  -13.1672 C   0  0  0  0  0  0  0  0  0  0  0  0
   42.0727   14.5884  -13.1179 C   0  0  0  0  0  0  0  0  0  0  0  0
   42.8262   15.2468  -12.1511 C   0  0  0  0  0  0  0  0  0  0  0  0
   42.1321   16.0577  -11.2850 C   0  0  0  0  0  0  0  0  0  0  0  0
   42.8534   16.7223  -10.3222 F   0  0  0  0  0  0  0  0  0  0  0  0
   40.7480   16.2295  -11.3471 C   0  0  0  0  0  0  0  0  0  0  0  0
   39.9977   15.5760  -12.3036 C   0  0  0  0  0  0  0  0  0  0  0  0
   38.6320   15.8297  -12.2555 O   0  0  0  0  0  0  0  0  0  0  0  0
   37.6177   15.1112  -12.9599 C   0  0  0  0  0  0  0  0  0  0  0  0
   37.8940   13.6478  -13.1169 C   0  0  0  0  0  0  0  0  0  0  0  0
   38.7841   13.4961  -14.2492 N   0  0  0  0  0  0  0  0  0  0  0  0
   36.2865   10.4891  -17.2539 C   0  0  0  0  0  0  0  0  0  0  0  0
   37.5324   11.1980  -16.8907 N   0  0  0  0  0  0  0  0  0  0  0  0
   37.4798   12.1459  -15.8373 C   0  0  0  0  0  0  0  0  0  0  0  0
   36.3417   12.3182  -15.2496 O   0  0  0  0  0  0  0  0  0  0  0  0
   38.3755   10.9510  -17.4081 H   0  0  0  0  0  0  0  0  0  0  0  0
   40.1421   12.5704  -17.5236 C   0  0  0  0  0  0  0  0  0  0  0  0
   40.3559   13.3958  -18.6377 N   0  0  0  0  0  0  0  0  0  0  0  0
   40.2503   11.3115  -17.7192 O   0  0  0  0  0  0  0  0  0  0  0  0
   39.8494   13.3531  -19.5303 H   0  0  0  0  0  0  0  0  0  0  0  0
   41.1162   14.1344  -18.5494 H   0  0  0  0  0  0  0  0  0  0  0  0
   44.2495   15.0385  -12.0603 C   0  0  0  0  0  0  0  0  0  0  0  0
   45.4389   14.8902  -11.9551 C   0  0  0  0  0  0  0  0  0  0  0  0
   46.8809   14.7332  -11.7943 C   0  0  0  0  0  0  0  0  0  0  0  0
   47.1939   14.0200  -10.4644 C   0  0  0  0  0  0  0  0  0  0  0  0
   47.3846   13.8379  -12.7738 O   0  0  0  0  0  0  0  0  0  0  0  0
   48.3436   13.9889  -12.8307 H   0  0  0  0  0  0  0  0  0  0  0  0
   47.5136   16.0352  -11.8617 C   0  0  0  0  0  0  0  0  0  0  0  0
   46.9953   17.2016  -12.3643 C   0  0  0  0  0  0  0  0  0  0  0  0
   47.9262   18.2048  -12.2256 C   0  0  0  0  0  0  0  0  0  0  0  0
   47.8242   19.6198  -12.6166 C   0  0  0  0  0  0  0  0  0  0  0  0
   48.9906   17.6406  -11.6479 O   0  0  0  0  0  0  0  0  0  0  0  0
   48.7434   16.3660  -11.4352 N   0  0  0  0  0  0  0  0  0  0  0  0
 16 17  1  0  0  0
 17 18  1  0  0  0
 18 19  2  0  0  0
 18  1  1  0  0  0
  1  2  2  0  0  0
  2  3  1  0  0  0
  3  4  2  0  0  0
  4  5  1  0  0  0
  5  6  2  0  0  0
  6  7  1  0  0  0
  7 26  1  0  0  0
 26 27  3  0  0  0
 28 27  1  0  0  0
 28 29  1  0  0  0
 28 30  1  0  0  0
 28 32  1  0  0  0
 32 33  1  0  0  0
 33 34  2  0  0  0
 34 35  1  0  0  0
 34 36  1  0  0  0
 36 37  1  0  0  0
  7  8  2  0  0  0
  8  9  1  0  0  0
  8 10  1  0  0  0
 10 11  2  0  0  0
 11 12  1  0  0  0
 12 13  1  0  0  0
 13 14  1  0  0  0
 14 15  1  0  0  0
  2 21  1  0  0  0
 21 22  1  0  0  0
 21 23  2  0  0  0
 15  1  1  0  0  0
 15  4  1  0  0  0
 11  5  1  0  0  0
 37 32  2  0  0  0
 17 20  1  0  0  0
 30 31  1  0  0  0
 22 24  1  0  0  0
 22 25  1  0  0  0
M  END
> <minimizedAffinity>
-7.12319

> <CNNscore>
0.1811042130

> <CNNaffinity>
6.2389917374

> <CNN_VS>
1.1299077272

> <CNNaffinity_variance>
0.1730787009

$$$$
[H]O[C@](C#Cc1c([H])c([H])c2c(c1[H])-c1nc(C(=O)N([H])[H])c(C(=O)N([H])C([H])([H])[H])n1C1([H])C([H])([H])C2([H])C1([H])[H])(c1noc(C([H])([H])[H])n1)C([H])([H])[H]


 37 41  0  0  0  0  0  0  0  0999 V2000
   37.3043   11.7962  -16.2530 C   0  0  0  0  0  0  0  0  0  0  0  0
   38.5946   11.8697  -16.6745 C   0  0  0  0  0  0  0  0  0  0  0  0
   39.2723   12.6894  -15.8152 N   0  0  0  0  0  0  0  0  0  0  0  0
   38.4106   13.1032  -14.8998 C   0  0  0  0  0  0  0  0  0  0  0  0
   38.7441   14.0214  -13.7732 C   0  0  0  0  0  0  0  0  0  0  0  0
   40.0531   14.3997  -13.7570 C   0  0  0  0  0  0  0  0  0  0  0  0
   40.5107   15.2467  -12.7761 C   0  0  0  0  0  0  0  0  0  0  0  0
   39.6482   15.7039  -11.8234 C   0  0  0  0  0  0  0  0  0  0  0  0
   38.2921   15.3520  -11.7858 C   0  0  0  0  0  0  0  0  0  0  0  0
   37.8959   14.5032  -12.7921 C   0  0  0  0  0  0  0  0  0  0  0  0
   36.4295   14.1633  -12.6901 C   0  0  0  0  0  0  0  0  0  0  0  0
   36.2778   12.6445  -12.8495 C   0  0  0  0  0  0  0  0  0  0  0  0
   35.9878   12.7897  -14.3455 C   0  0  0  0  0  0  0  0  0  0  0  0
   35.7874   14.2824  -14.0579 C   0  0  0  0  0  0  0  0  0  0  0  0
   37.1981   12.5720  -15.1442 N   0  0  0  0  0  0  0  0  0  0  0  0
   33.7489   10.6836  -17.1171 C   0  0  0  0  0  0  0  0  0  0  0  0
   34.8679   11.4642  -16.6548 N   0  0  0  0  0  0  0  0  0  0  0  0
   36.1831   10.9829  -16.7389 C   0  0  0  0  0  0  0  0  0  0  0  0
   36.3540    9.8466  -17.2482 O   0  0  0  0  0  0  0  0  0  0  0  0
   34.6746   12.4058  -16.2822 H   0  0  0  0  0  0  0  0  0  0  0  0
   39.1779   11.2816  -17.8800 C   0  0  0  0  0  0  0  0  0  0  0  0
   38.4555   10.7632  -18.9718 N   0  0  0  0  0  0  0  0  0  0  0  0
   40.4528   11.2165  -18.0006 O   0  0  0  0  0  0  0  0  0  0  0  0
   38.7073    9.8480  -19.4327 H   0  0  0  0  0  0  0  0  0  0  0  0
   37.6303   11.3076  -19.3465 H   0  0  0  0  0  0  0  0  0  0  0  0
   41.9048   15.6001  -12.8232 C   0  0  0  0  0  0  0  0  0  0  0  0
   43.0743   15.9034  -12.8418 C   0  0  0  0  0  0  0  0  0  0  0  0
   44.5066   16.2967  -12.8488 C   0  0  0  0  0  0  0  0  0  0  0  0
   45.0500   15.9891  -11.4618 C   0  0  0  0  0  0  0  0  0  0  0  0
   45.1295   15.5611  -13.8274 O   0  0  0  0  0  0  0  0  0  0  0  0
   46.1120   15.5639  -13.6101 H   0  0  0  0  0  0  0  0  0  0  0  0
   44.6713   17.7400  -13.0729 C   0  0  0  0  0  0  0  0  0  0  0  0
   45.7994   18.4322  -12.8967 N   0  0  0  0  0  0  0  0  0  0  0  0
   45.5711   19.6857  -13.1920 O   0  0  0  0  0  0  0  0  0  0  0  0
   44.3252   19.8592  -13.5611 C   0  0  0  0  0  0  0  0  0  0  0  0
   43.6439   21.1261  -13.9811 C   0  0  0  0  0  0  0  0  0  0  0  0
   43.7527   18.6199  -13.4852 N   0  0  0  0  0  0  0  0  0  0  0  0
 16 17  1  0  0  0
 17 18  1  0  0  0
 18 19  2  0  0  0
 18  1  1  0  0  0
  1  2  2  0  0  0
  2  3  1  0  0  0
  3  4  2  0  0  0
  4  5  1  0  0  0
  5  6  2  0  0  0
  6  7  1  0  0  0
  7  8  2  0  0  0
  8  9  1  0  0  0
  9 10  2  0  0  0
 10 11  1  0  0  0
 11 12  1  0  0  0
 12 13  1  0  0  0
 13 14  1  0  0  0
 13 15  1  0  0  0
  7 26  1  0  0  0
 26 27  3  0  0  0
 28 27  1  0  0  0
 28 29  1  0  0  0
 28 30  1  0  0  0
 28 32  1  0  0  0
 32 33  2  0  0  0
 33 34  1  0  0  0
 34 35  1  0  0  0
 35 36  1  0  0  0
 35 37  2  0  0  0
  2 21  1  0  0  0
 21 22  1  0  0  0
 21 23  2  0  0  0
 15  1  1  0  0  0
 37 32  1  0  0  0
 15  4  1  0  0  0
 10  5  1  0  0  0
 14 11  1  0  0  0
 17 20  1  0  0  0
 30 31  1  0  0  0
 22 24  1  0  0  0
 22 25  1  0  0  0
M  END
> <minimizedAffinity>
-9.13332

> <CNNscore>
0.6302047372

> <CNNaffinity>
7.3005576134

> <CNN_VS>
4.6008458138

> <CNNaffinity_variance>
0.1935130060

$$$$
[H]O[C@](C#Cc1c([H])c([H])c2c(c1[H])-c1nc(C(=O)N([H])[H])c(C(=O)N([H])C([H])([H])[H])n1C1([H])C([H])([H])C2([H])C1([H])[H])(c1noc(C([H])([H])[H])n1)C([H])([H])[H]


 37 41  0  0  0  0  0  0  0  0999 V2000
   37.3280   11.8815  -16.1855 C   0  0  0  0  0  0  0  0  0  0  0  0
   38.5773   11.8270  -16.7187 C   0  0  0  0  0  0  0  0  0  0  0  0
   39.3931   12.6215  -15.9620 N   0  0  0  0  0  0  0  0  0  0  0  0
   38.6529   13.1454  -14.9980 C   0  0  0  0  0  0  0  0  0  0  0  0
   39.1590   14.0785  -13.9507 C   0  0  0  0  0  0  0  0  0  0  0  0
   40.4906   14.3443  -14.0650 C   0  0  0  0  0  0  0  0  0  0  0  0
   41.1010   15.1899  -13.1699 C   0  0  0  0  0  0  0  0  0  0  0  0
   40.3669   15.7586  -12.1707 C   0  0  0  0  0  0  0  0  0  0  0  0
   38.9955   15.5254  -12.0001 C   0  0  0  0  0  0  0  0  0  0  0  0
   38.4436   14.6717  -12.9258 C   0  0  0  0  0  0  0  0  0  0  0  0
   36.9693   14.4625  -12.6823 C   0  0  0  0  0  0  0  0  0  0  0  0
   36.6813   12.9567  -12.7529 C   0  0  0  0  0  0  0  0  0  0  0  0
   36.2719   13.0628  -14.2241 C   0  0  0  0  0  0  0  0  0  0  0  0
   36.2196   14.5780  -13.9945 C   0  0  0  0  0  0  0  0  0  0  0  0
   37.3844   12.7095  -15.1114 N   0  0  0  0  0  0  0  0  0  0  0  0
   33.6311   11.0386  -16.6831 C   0  0  0  0  0  0  0  0  0  0  0  0
   34.8464   11.7399  -16.3573 N   0  0  0  0  0  0  0  0  0  0  0  0
   36.1057   11.1468  -16.5331 C   0  0  0  0  0  0  0  0  0  0  0  0
   36.1379    9.9809  -17.0016 O   0  0  0  0  0  0  0  0  0  0  0  0
   34.7640   12.7084  -16.0138 H   0  0  0  0  0  0  0  0  0  0  0  0
   39.0011   11.1411  -17.9391 C   0  0  0  0  0  0  0  0  0  0  0  0
   38.1434   10.6031  -18.9176 N   0  0  0  0  0  0  0  0  0  0  0  0
   40.2515   10.9993  -18.1849 O   0  0  0  0  0  0  0  0  0  0  0  0
   38.3002    9.6511  -19.3448 H   0  0  0  0  0  0  0  0  0  0  0  0
   37.3111   11.1704  -19.2389 H   0  0  0  0  0  0  0  0  0  0  0  0
   42.5094   15.4211  -13.3532 C   0  0  0  0  0  0  0  0  0  0  0  0
   43.6923   15.6000  -13.5230 C   0  0  0  0  0  0  0  0  0  0  0  0
   45.1493   15.7942  -13.7368 C   0  0  0  0  0  0  0  0  0  0  0  0
   45.8604   14.8894  -12.7421 C   0  0  0  0  0  0  0  0  0  0  0  0
   45.4221   15.4529  -15.0390 O   0  0  0  0  0  0  0  0  0  0  0  0
   46.4075   15.2540  -15.0855 H   0  0  0  0  0  0  0  0  0  0  0  0
   45.5607   17.1746  -13.4442 C   0  0  0  0  0  0  0  0  0  0  0  0
   44.7779   18.2537  -13.5197 N   0  0  0  0  0  0  0  0  0  0  0  0
   45.4821   19.3049  -13.1889 O   0  0  0  0  0  0  0  0  0  0  0  0
   46.7140   18.9678  -12.8935 C   0  0  0  0  0  0  0  0  0  0  0  0
   47.8467   19.8513  -12.4667 C   0  0  0  0  0  0  0  0  0  0  0  0
   46.7636   17.6112  -13.0561 N   0  0  0  0  0  0  0  0  0  0  0  0
 16 17  1  0  0  0
 17 18  1  0  0  0
 18 19  2  0  0  0
 18  1  1  0  0  0
  1  2  2  0  0  0
  2  3  1  0  0  0
  3  4  2  0  0  0
  4  5  1  0  0  0
  5  6  2  0  0  0
  6  7  1  0  0  0
  7  8  2  0  0  0
  8  9  1  0  0  0
  9 10  2  0  0  0
 10 11  1  0  0  0
 11 12  1  0  0  0
 12 13  1  0  0  0
 13 14  1  0  0  0
 13 15  1  0  0  0
  7 26  1  0  0  0
 26 27  3  0  0  0
 28 27  1  0  0  0
 28 29  1  0  0  0
 28 30  1  0  0  0
 28 32  1  0  0  0
 32 33  2  0  0  0
 33 34  1  0  0  0
 34 35  1  0  0  0
 35 36  1  0  0  0
 35 37  2  0  0  0
  2 21  1  0  0  0
 21 22  1  0  0  0
 21 23  2  0  0  0
 15  1  1  0  0  0
 37 32  1  0  0  0
 15  4  1  0  0  0
 10  5  1  0  0  0
 14 11  1  0  0  0
 17 20  1  0  0  0
 30 31  1  0  0  0
 22 24  1  0  0  0
 22 25  1  0  0  0
M  END
> <minimizedAffinity>
-8.79753

> <CNNscore>
0.4875165522

> <CNNaffinity>
7.2181434631

> <CNN_VS>
3.5189645290

> <CNNaffinity_variance>
0.3283637166

$$$$
[H]O[C@](C#Cc1c([H])c([H])c2c(c1[H])-c1nc(C(=O)N([H])[H])c(C(=O)N([H])C([H])([H])[H])n1C1([H])C([H])([H])C2([H])C1([H])[H])(c1noc(C([H])([H])[H])n1)C([H])([H])[H]


 37 41  0  0  0  0  0  0  0  0999 V2000
   37.6926   12.0152  -16.1989 C   0  0  0  0  0  0  0  0  0  0  0  0
   38.9847   12.1865  -16.5849 C   0  0  0  0  0  0  0  0  0  0  0  0
   39.5817   13.0340  -15.6934 N   0  0  0  0  0  0  0  0  0  0  0  0
   38.6706   13.3687  -14.7937 C   0  0  0  0  0  0  0  0  0  0  0  0
   38.9108   14.2853  -13.6423 C   0  0  0  0  0  0  0  0  0  0  0  0
   40.1893   14.7532  -13.5848 C   0  0  0  0  0  0  0  0  0  0  0  0
   40.5619   15.6103  -12.5771 C   0  0  0  0  0  0  0  0  0  0  0  0
   39.6460   15.9875  -11.6392 C   0  0  0  0  0  0  0  0  0  0  0  0
   38.3173   15.5415  -11.6437 C   0  0  0  0  0  0  0  0  0  0  0  0
   38.0068   14.6874  -12.6753 C   0  0  0  0  0  0  0  0  0  0  0  0
   36.5656   14.2445  -12.6181 C   0  0  0  0  0  0  0  0  0  0  0  0
   36.5246   12.7223  -12.8088 C   0  0  0  0  0  0  0  0  0  0  0  0
   36.2626   12.8766  -14.3091 C   0  0  0  0  0  0  0  0  0  0  0  0
   35.9511   14.3458  -13.9998 C   0  0  0  0  0  0  0  0  0  0  0  0
   37.5048   12.7595  -15.0795 N   0  0  0  0  0  0  0  0  0  0  0  0
   34.2412   10.6329  -17.0950 C   0  0  0  0  0  0  0  0  0  0  0  0
   35.2907   11.4813  -16.5912 N   0  0  0  0  0  0  0  0  0  0  0  0
   36.6435   11.1357  -16.7287 C   0  0  0  0  0  0  0  0  0  0  0  0
   36.9106   10.0611  -17.3235 O   0  0  0  0  0  0  0  0  0  0  0  0
   35.0170   12.3704  -16.1469 H   0  0  0  0  0  0  0  0  0  0  0  0
   39.6377   11.6644  -17.7852 C   0  0  0  0  0  0  0  0  0  0  0  0
   38.9813   11.1075  -18.8994 N   0  0  0  0  0  0  0  0  0  0  0  0
   40.9159   11.7016  -17.8785 O   0  0  0  0  0  0  0  0  0  0  0  0
   39.3142   10.2220  -19.3670 H   0  0  0  0  0  0  0  0  0  0  0  0
   38.1238   11.5909  -19.2849 H   0  0  0  0  0  0  0  0  0  0  0  0
   41.9286   16.0606  -12.5811 C   0  0  0  0  0  0  0  0  0  0  0  0
   43.0820   16.4205  -12.5953 C   0  0  0  0  0  0  0  0  0  0  0  0
   44.5074   16.8378  -12.6102 C   0  0  0  0  0  0  0  0  0  0  0  0
   44.5534   18.2094  -13.2661 C   0  0  0  0  0  0  0  0  0  0  0  0
   44.9397   16.8689  -11.3068 O   0  0  0  0  0  0  0  0  0  0  0  0
   45.7539   17.4599  -11.2861 H   0  0  0  0  0  0  0  0  0  0  0  0
   45.3283   15.9339  -13.4285 C   0  0  0  0  0  0  0  0  0  0  0  0
   46.5637   16.1863  -13.8677 N   0  0  0  0  0  0  0  0  0  0  0  0
   46.9787   15.1585  -14.5617 O   0  0  0  0  0  0  0  0  0  0  0  0
   46.0620   14.2223  -14.6036 C   0  0  0  0  0  0  0  0  0  0  0  0
   46.1200   12.8889  -15.2851 C   0  0  0  0  0  0  0  0  0  0  0  0
   45.0112   14.7165  -13.8819 N   0  0  0  0  0  0  0  0  0  0  0  0
 16 17  1  0  0  0
 17 18  1  0  0  0
 18 19  2  0  0  0
 18  1  1  0  0  0
  1  2  2  0  0  0
  2  3  1  0  0  0
  3  4  2  0  0  0
  4  5  1  0  0  0
  5  6  2  0  0  0
  6  7  1  0  0  0
  7  8  2  0  0  0
  8  9  1  0  0  0
  9 10  2  0  0  0
 10 11  1  0  0  0
 11 12  1  0  0  0
 12 13  1  0  0  0
 13 14  1  0  0  0
 13 15  1  0  0  0
  7 26  1  0  0  0
 26 27  3  0  0  0
 28 27  1  0  0  0
 28 29  1  0  0  0
 28 30  1  0  0  0
 28 32  1  0  0  0
 32 33  2  0  0  0
 33 34  1  0  0  0
 34 35  1  0  0  0
 35 36  1  0  0  0
 35 37  2  0  0  0
  2 21  1  0  0  0
 21 22  1  0  0  0
 21 23  2  0  0  0
 15  1  1  0  0  0
 37 32  1  0  0  0
 15  4  1  0  0  0
 10  5  1  0  0  0
 14 11  1  0  0  0
 17 20  1  0  0  0
 30 31  1  0  0  0
 22 24  1  0  0  0
 22 25  1  0  0  0
M  END
> <minimizedAffinity>
-8.87823

> <CNNscore>
0.4196802676

> <CNNaffinity>
7.1788873672

> <CNN_VS>
3.0128374100

> <CNNaffinity_variance>
0.1782894135

$$$$
[H]O[C@](C#Cc1c([H])c([H])c2c(c1[H])-c1nc(C(=O)N([H])[H])c(C(=O)N([H])C([H])([H])[H])n1C1([H])C([H])([H])C2([H])C1([H])[H])(c1noc(C([H])([H])[H])n1)C([H])([H])[H]


 37 41  0  0  0  0  0  0  0  0999 V2000
   37.9359   12.1347  -16.2879 C   0  0  0  0  0  0  0  0  0  0  0  0
   39.2087   12.3607  -16.7085 C   0  0  0  0  0  0  0  0  0  0  0  0
   39.8084   13.1951  -15.8066 N   0  0  0  0  0  0  0  0  0  0  0  0
   38.9176   13.4688  -14.8667 C   0  0  0  0  0  0  0  0  0  0  0  0
   39.1674   14.3516  -13.6913 C   0  0  0  0  0  0  0  0  0  0  0  0
   40.4321   14.8579  -13.6578 C   0  0  0  0  0  0  0  0  0  0  0  0
   40.8112   15.6906  -12.6322 C   0  0  0  0  0  0  0  0  0  0  0  0
   39.9156   16.0052  -11.6526 C   0  0  0  0  0  0  0  0  0  0  0  0
   38.6019   15.5175  -11.6307 C   0  0  0  0  0  0  0  0  0  0  0  0
   38.2839   14.6906  -12.6820 C   0  0  0  0  0  0  0  0  0  0  0  0
   36.8597   14.2001  -12.5948 C   0  0  0  0  0  0  0  0  0  0  0  0
   36.8593   12.6849  -12.8389 C   0  0  0  0  0  0  0  0  0  0  0  0
   36.5433   12.8833  -14.3235 C   0  0  0  0  0  0  0  0  0  0  0  0
   36.1971   14.3301  -13.9517 C   0  0  0  0  0  0  0  0  0  0  0  0
   37.7623   12.8330  -15.1369 N   0  0  0  0  0  0  0  0  0  0  0  0
   34.5318   10.4945  -16.8772 C   0  0  0  0  0  0  0  0  0  0  0  0
   35.5687   11.3630  -16.3816 N   0  0  0  0  0  0  0  0  0  0  0  0
   36.8974   11.2413  -16.8153 C   0  0  0  0  0  0  0  0  0  0  0  0
   37.1509   10.3529  -17.6675 O   0  0  0  0  0  0  0  0  0  0  0  0
   35.2983   12.1003  -15.7137 H   0  0  0  0  0  0  0  0  0  0  0  0
   39.8374   11.9021  -17.9470 C   0  0  0  0  0  0  0  0  0  0  0  0
   39.9653   10.5602  -18.3538 N   0  0  0  0  0  0  0  0  0  0  0  0
   40.3225   12.7601  -18.7671 O   0  0  0  0  0  0  0  0  0  0  0  0
   40.8605   10.1753  -18.7588 H   0  0  0  0  0  0  0  0  0  0  0  0
   39.1369    9.9114  -18.2518 H   0  0  0  0  0  0  0  0  0  0  0  0
   42.1625   16.1842  -12.6636 C   0  0  0  0  0  0  0  0  0  0  0  0
   43.2980   16.5948  -12.7115 C   0  0  0  0  0  0  0  0  0  0  0  0
   44.6991   17.0816  -12.7890 C   0  0  0  0  0  0  0  0  0  0  0  0
   45.5200   15.9530  -13.3941 C   0  0  0  0  0  0  0  0  0  0  0  0
   44.6998   18.2067  -13.5769 O   0  0  0  0  0  0  0  0  0  0  0  0
   45.6431   18.3294  -13.9051 H   0  0  0  0  0  0  0  0  0  0  0  0
   45.2514   17.3577  -11.4552 C   0  0  0  0  0  0  0  0  0  0  0  0
   46.4616   17.8620  -11.2020 N   0  0  0  0  0  0  0  0  0  0  0  0
   46.6066   17.9704   -9.9068 O   0  0  0  0  0  0  0  0  0  0  0  0
   45.5327   17.5550   -9.2801 C   0  0  0  0  0  0  0  0  0  0  0  0
   45.2735   17.5047   -7.8050 C   0  0  0  0  0  0  0  0  0  0  0  0
   44.6700   17.1650  -10.2665 N   0  0  0  0  0  0  0  0  0  0  0  0
 16 17  1  0  0  0
 17 18  1  0  0  0
 18 19  2  0  0  0
 18  1  1  0  0  0
  1  2  2  0  0  0
  2  3  1  0  0  0
  3  4  2  0  0  0
  4  5  1  0  0  0
  5  6  2  0  0  0
  6  7  1  0  0  0
  7  8  2  0  0  0
  8  9  1  0  0  0
  9 10  2  0  0  0
 10 11  1  0  0  0
 11 12  1  0  0  0
 12 13  1  0  0  0
 13 14  1  0  0  0
 13 15  1  0  0  0
  7 26  1  0  0  0
 26 27  3  0  0  0
 28 27  1  0  0  0
 28 29  1  0  0  0
 28 30  1  0  0  0
 28 32  1  0  0  0
 32 33  2  0  0  0
 33 34  1  0  0  0
 34 35  1  0  0  0
 35 36  1  0  0  0
 35 37  2  0  0  0
  2 21  1  0  0  0
 21 22  1  0  0  0
 21 23  2  0  0  0
 15  1  1  0  0  0
 37 32  1  0  0  0
 15  4  1  0  0  0
 10  5  1  0  0  0
 14 11  1  0  0  0
 17 20  1  0  0  0
 30 31  1  0  0  0
 22 24  1  0  0  0
 22 25  1  0  0  0
M  END
> <minimizedAffinity>
-8.60259

> <CNNscore>
0.3086552024

> <CNNaffinity>
6.9574599266

> <CNN_VS>
2.1474561691

> <CNNaffinity_variance>
0.2324565947

$$$$
[H]O[C@](C#Cc1c([H])c([H])c2c(c1[H])-c1nc(C(=O)N([H])[H])c(C(=O)N([H])C([H])([H])[H])n1C1([H])C([H])([H])C2([H])C1([H])[H])(c1noc(C([H])([H])[H])n1)C([H])([H])[H]


 37 41  0  0  0  0  0  0  0  0999 V2000
   33.1978   15.5454   -9.1975 C   0  0  0  0  0  0  0  0  0  0  0  0
   34.4221   15.5203   -9.7878 C   0  0  0  0  0  0  0  0  0  0  0  0
   35.3519   15.2655   -8.8183 N   0  0  0  0  0  0  0  0  0  0  0  0
   34.7045   15.1438   -7.6704 C   0  0  0  0  0  0  0  0  0  0  0  0
   35.3513   14.8651   -6.3561 C   0  0  0  0  0  0  0  0  0  0  0  0
   36.7046   14.7292   -6.4406 C   0  0  0  0  0  0  0  0  0  0  0  0
   37.4404   14.4702   -5.3090 C   0  0  0  0  0  0  0  0  0  0  0  0
   36.8084   14.3510   -4.1060 C   0  0  0  0  0  0  0  0  0  0  0  0
   35.4212   14.4802   -3.9536 C   0  0  0  0  0  0  0  0  0  0  0  0
   34.7417   14.7383   -5.1207 C   0  0  0  0  0  0  0  0  0  0  0  0
   33.2564   14.8618   -4.8856 C   0  0  0  0  0  0  0  0  0  0  0  0
   32.5325   14.0188   -5.9441 C   0  0  0  0  0  0  0  0  0  0  0  0
   32.3412   15.2413   -6.8454 C   0  0  0  0  0  0  0  0  0  0  0  0
   32.7286   16.0779   -5.6202 C   0  0  0  0  0  0  0  0  0  0  0  0
   33.3844   15.3110   -7.8736 N   0  0  0  0  0  0  0  0  0  0  0  0
   29.9952   14.7171  -11.1165 C   0  0  0  0  0  0  0  0  0  0  0  0
   31.3062   14.6180  -10.5277 N   0  0  0  0  0  0  0  0  0  0  0  0
   31.8562   15.6701   -9.7799 C   0  0  0  0  0  0  0  0  0  0  0  0
   31.1556   16.7025   -9.6278 O   0  0  0  0  0  0  0  0  0  0  0  0
   31.8215   13.7336  -10.6503 H   0  0  0  0  0  0  0  0  0  0  0  0
   34.7494   15.8095  -11.1838 C   0  0  0  0  0  0  0  0  0  0  0  0
   35.8189   16.6114  -11.6262 N   0  0  0  0  0  0  0  0  0  0  0  0
   34.0325   15.3065  -12.1203 O   0  0  0  0  0  0  0  0  0  0  0  0
   35.7083   17.3284  -12.3924 H   0  0  0  0  0  0  0  0  0  0  0  0
   36.7688   16.4938  -11.1773 H   0  0  0  0  0  0  0  0  0  0  0  0
   38.8634   14.3378   -5.4771 C   0  0  0  0  0  0  0  0  0  0  0  0
   40.0612   14.2447   -5.6060 C   0  0  0  0  0  0  0  0  0  0  0  0
   41.5353   14.1564   -5.7650 C   0  0  0  0  0  0  0  0  0  0  0  0
   42.1339   15.2527   -4.8969 C   0  0  0  0  0  0  0  0  0  0  0  0
   41.9178   12.9018   -5.3573 O   0  0  0  0  0  0  0  0  0  0  0  0
   42.8988   12.9550   -5.1396 H   0  0  0  0  0  0  0  0  0  0  0  0
   41.9479   14.4216   -7.1506 C   0  0  0  0  0  0  0  0  0  0  0  0
   42.9577   13.8268   -7.7904 N   0  0  0  0  0  0  0  0  0  0  0  0
   43.0284   14.3124   -9.0026 O   0  0  0  0  0  0  0  0  0  0  0  0
   42.0985   15.2154   -9.1990 C   0  0  0  0  0  0  0  0  0  0  0  0
   41.8216   16.0165  -10.4349 C   0  0  0  0  0  0  0  0  0  0  0  0
   41.4107   15.2845   -8.0195 N   0  0  0  0  0  0  0  0  0  0  0  0
 16 17  1  0  0  0
 17 18  1  0  0  0
 18 19  2  0  0  0
 18  1  1  0  0  0
  1  2  2  0  0  0
  2  3  1  0  0  0
  3  4  2  0  0  0
  4  5  1  0  0  0
  5  6  2  0  0  0
  6  7  1  0  0  0
  7  8  2  0  0  0
  8  9  1  0  0  0
  9 10  2  0  0  0
 10 11  1  0  0  0
 11 12  1  0  0  0
 12 13  1  0  0  0
 13 14  1  0  0  0
 13 15  1  0  0  0
  7 26  1  0  0  0
 26 27  3  0  0  0
 28 27  1  0  0  0
 28 29  1  0  0  0
 28 30  1  0  0  0
 28 32  1  0  0  0
 32 33  2  0  0  0
 33 34  1  0  0  0
 34 35  1  0  0  0
 35 36  1  0  0  0
 35 37  2  0  0  0
  2 21  1  0  0  0
 21 22  1  0  0  0
 21 23  2  0  0  0
 15  1  1  0  0  0
 37 32  1  0  0  0
 15  4  1  0  0  0
 10  5  1  0  0  0
 14 11  1  0  0  0
 17 20  1  0  0  0
 30 31  1  0  0  0
 22 24  1  0  0  0
 22 25  1  0  0  0
M  END
> <minimizedAffinity>
-6.87259

> <CNNscore>
0.2532384694

> <CNNaffinity>
5.9086246490

> <CNN_VS>
1.4962910414

> <CNNaffinity_variance>
0.3262090087

$$$$
[H]O[C@](C#Cc1c([H])c([H])c2c(c1[H])-c1nc(C(=O)N([H])[H])c(C(=O)N([H])C([H])([H])[H])n1C1([H])C([H])([H])C2([H])C1([H])[H])(c1noc(C([H])([H])[H])n1)C([H])([H])[H]


 37 41  0  0  0  0  0  0  0  0999 V2000
   36.6498   12.3020  -15.4219 C   0  0  0  0  0  0  0  0  0  0  0  0
   37.8395   12.0177  -16.0150 C   0  0  0  0  0  0  0  0  0  0  0  0
   38.8130   12.7257  -15.3666 N   0  0  0  0  0  0  0  0  0  0  0  0
   38.2242   13.4229  -14.4080 C   0  0  0  0  0  0  0  0  0  0  0  0
   38.9319   14.3354  -13.4646 C   0  0  0  0  0  0  0  0  0  0  0  0
   40.2782   14.3826  -13.6698 C   0  0  0  0  0  0  0  0  0  0  0  0
   41.0658   15.1822  -12.8766 C   0  0  0  0  0  0  0  0  0  0  0  0
   40.4920   15.9251  -11.8869 C   0  0  0  0  0  0  0  0  0  0  0  0
   39.1150   15.9200  -11.6260 C   0  0  0  0  0  0  0  0  0  0  0  0
   38.3819   15.1012  -12.4521 C   0  0  0  0  0  0  0  0  0  0  0  0
   36.9117   15.1408  -12.1151 C   0  0  0  0  0  0  0  0  0  0  0  0
   36.3956   13.6968  -12.0533 C   0  0  0  0  0  0  0  0  0  0  0  0
   35.9129   13.7645  -13.5045 C   0  0  0  0  0  0  0  0  0  0  0  0
   36.1051   15.2815  -13.3904 C   0  0  0  0  0  0  0  0  0  0  0  0
   36.8998   13.1827  -14.4197 N   0  0  0  0  0  0  0  0  0  0  0  0
   33.5594   10.9118  -17.1947 C   0  0  0  0  0  0  0  0  0  0  0  0
   34.8713   11.4525  -16.9462 N   0  0  0  0  0  0  0  0  0  0  0  0
   35.3106   11.7442  -15.6460 C   0  0  0  0  0  0  0  0  0  0  0  0
   34.5211   11.5021  -14.6984 O   0  0  0  0  0  0  0  0  0  0  0  0
   35.4929   11.5946  -17.7563 H   0  0  0  0  0  0  0  0  0  0  0  0
   38.0752   11.1925  -17.1994 C   0  0  0  0  0  0  0  0  0  0  0  0
   39.2027   11.2669  -18.0397 N   0  0  0  0  0  0  0  0  0  0  0  0
   37.2115   10.3073  -17.5374 O   0  0  0  0  0  0  0  0  0  0  0  0
   39.1253   11.2514  -19.0919 H   0  0  0  0  0  0  0  0  0  0  0  0
   40.1634   11.3407  -17.6046 H   0  0  0  0  0  0  0  0  0  0  0  0
   42.4782   15.1786  -13.1519 C   0  0  0  0  0  0  0  0  0  0  0  0
   43.6640   15.1536  -13.3830 C   0  0  0  0  0  0  0  0  0  0  0  0
   45.1238   15.1013  -13.6520 C   0  0  0  0  0  0  0  0  0  0  0  0
   45.5049   16.4459  -14.2526 C   0  0  0  0  0  0  0  0  0  0  0  0
   45.7539   14.8684  -12.4540 O   0  0  0  0  0  0  0  0  0  0  0  0
   46.7078   15.1688  -12.5657 H   0  0  0  0  0  0  0  0  0  0  0  0
   45.4554   14.0692  -14.6446 C   0  0  0  0  0  0  0  0  0  0  0  0
   46.6422   13.4730  -14.7822 N   0  0  0  0  0  0  0  0  0  0  0  0
   46.5664   12.6123  -15.7639 O   0  0  0  0  0  0  0  0  0  0  0  0
   45.3663   12.6103  -16.2916 C   0  0  0  0  0  0  0  0  0  0  0  0
   44.8484   11.7839  -17.4294 C   0  0  0  0  0  0  0  0  0  0  0  0
   44.6593   13.5381  -15.5785 N   0  0  0  0  0  0  0  0  0  0  0  0
 16 17  1  0  0  0
 17 18  1  0  0  0
 18 19  2  0  0  0
 18  1  1  0  0  0
  1  2  2  0  0  0
  2  3  1  0  0  0
  3  4  2  0  0  0
  4  5  1  0  0  0
  5  6  2  0  0  0
  6  7  1  0  0  0
  7  8  2  0  0  0
  8  9  1  0  0  0
  9 10  2  0  0  0
 10 11  1  0  0  0
 11 12  1  0  0  0
 12 13  1  0  0  0
 13 14  1  0  0  0
 13 15  1  0  0  0
  7 26  1  0  0  0
 26 27  3  0  0  0
 28 27  1  0  0  0
 28 29  1  0  0  0
 28 30  1  0  0  0
 28 32  1  0  0  0
 32 33  2  0  0  0
 33 34  1  0  0  0
 34 35  1  0  0  0
 35 36  1  0  0  0
 35 37  2  0  0  0
  2 21  1  0  0  0
 21 22  1  0  0  0
 21 23  2  0  0  0
 15  1  1  0  0  0
 37 32  1  0  0  0
 15  4  1  0  0  0
 10  5  1  0  0  0
 14 11  1  0  0  0
 17 20  1  0  0  0
 30 31  1  0  0  0
 22 24  1  0  0  0
 22 25  1  0  0  0
M  END
> <minimizedAffinity>
-8.61160

> <CNNscore>
0.2090166360

> <CNNaffinity>
7.0157012939

> <CNN_VS>
1.4663982391

> <CNNaffinity_variance>
0.0452013537

$$$$
[H]O[C@](C#Cc1c([H])c([H])c2c(c1[H])-c1nc(C(=O)N([H])[H])c(C(=O)N([H])C([H])([H])[H])n1C1([H])C([H])([H])C2([H])C1([H])[H])(c1noc(C([H])([H])[H])n1)C([H])([H])[H]


 37 41  0  0  0  0  0  0  0  0999 V2000
   36.4234   11.9158  -15.9765 C   0  0  0  0  0  0  0  0  0  0  0  0
   37.4982   11.4125  -16.6394 C   0  0  0  0  0  0  0  0  0  0  0  0
   38.6234   11.9812  -16.1104 N   0  0  0  0  0  0  0  0  0  0  0  0
   38.2364   12.8103  -15.1542 C   0  0  0  0  0  0  0  0  0  0  0  0
   39.1576   13.6382  -14.3239 C   0  0  0  0  0  0  0  0  0  0  0  0
   40.4721   13.4542  -14.6326 C   0  0  0  0  0  0  0  0  0  0  0  0
   41.4412   14.1507  -13.9510 C   0  0  0  0  0  0  0  0  0  0  0  0
   41.0788   15.0238  -12.9677 C   0  0  0  0  0  0  0  0  0  0  0  0
   39.7456   15.2570  -12.6038 C   0  0  0  0  0  0  0  0  0  0  0  0
   38.8243   14.5312  -13.3211 C   0  0  0  0  0  0  0  0  0  0  0  0
   37.4130   14.8273  -12.8770 C   0  0  0  0  0  0  0  0  0  0  0  0
   36.6801   13.4921  -12.6891 C   0  0  0  0  0  0  0  0  0  0  0  0
   36.0937   13.5689  -14.1011 C   0  0  0  0  0  0  0  0  0  0  0  0
   36.5345   15.0375  -14.0941 C   0  0  0  0  0  0  0  0  0  0  0  0
   36.8944   12.7902  -15.0513 N   0  0  0  0  0  0  0  0  0  0  0  0
   33.1106   10.5216  -17.2831 C   0  0  0  0  0  0  0  0  0  0  0  0
   34.5056   10.8621  -17.1680 N   0  0  0  0  0  0  0  0  0  0  0  0
   34.9983   11.5752  -16.0647 C   0  0  0  0  0  0  0  0  0  0  0  0
   34.1786   11.8956  -15.1674 O   0  0  0  0  0  0  0  0  0  0  0  0
   35.1410   10.5402  -17.9132 H   0  0  0  0  0  0  0  0  0  0  0  0
   37.4985   10.5043  -17.7860 C   0  0  0  0  0  0  0  0  0  0  0  0
   38.0502   10.7814  -19.0515 N   0  0  0  0  0  0  0  0  0  0  0  0
   36.9676    9.3426  -17.6747 O   0  0  0  0  0  0  0  0  0  0  0  0
   37.5479   10.5494  -19.9501 H   0  0  0  0  0  0  0  0  0  0  0  0
   39.0020   11.2381  -19.1080 H   0  0  0  0  0  0  0  0  0  0  0  0
   42.8066   13.9024  -14.3315 C   0  0  0  0  0  0  0  0  0  0  0  0
   43.9465   13.6894  -14.6713 C   0  0  0  0  0  0  0  0  0  0  0  0
   45.3390   13.4085  -15.1051 C   0  0  0  0  0  0  0  0  0  0  0  0
   45.2412   12.5292  -16.3424 C   0  0  0  0  0  0  0  0  0  0  0  0
   45.9378   14.6158  -15.3700 O   0  0  0  0  0  0  0  0  0  0  0  0
   46.7225   14.4240  -15.9701 H   0  0  0  0  0  0  0  0  0  0  0  0
   46.0812   12.6507  -14.0876 C   0  0  0  0  0  0  0  0  0  0  0  0
   47.3367   12.2116  -14.2048 N   0  0  0  0  0  0  0  0  0  0  0  0
   47.6630   11.5805  -13.1068 O   0  0  0  0  0  0  0  0  0  0  0  0
   46.6671   11.5808  -12.2543 C   0  0  0  0  0  0  0  0  0  0  0  0
   46.6107   10.9753  -10.8847 C   0  0  0  0  0  0  0  0  0  0  0  0
   45.6601   12.2624  -12.8793 N   0  0  0  0  0  0  0  0  0  0  0  0
 16 17  1  0  0  0
 17 18  1  0  0  0
 18 19  2  0  0  0
 18  1  1  0  0  0
  1  2  2  0  0  0
  2  3  1  0  0  0
  3  4  2  0  0  0
  4  5  1  0  0  0
  5  6  2  0  0  0
  6  7  1  0  0  0
  7  8  2  0  0  0
  8  9  1  0  0  0
  9 10  2  0  0  0
 10 11  1  0  0  0
 11 12  1  0  0  0
 12 13  1  0  0  0
 13 14  1  0  0  0
 13 15  1  0  0  0
  7 26  1  0  0  0
 26 27  3  0  0  0
 28 27  1  0  0  0
 28 29  1  0  0  0
 28 30  1  0  0  0
 28 32  1  0  0  0
 32 33  2  0  0  0
 33 34  1  0  0  0
 34 35  1  0  0  0
 35 36  1  0  0  0
 35 37  2  0  0  0
  2 21  1  0  0  0
 21 22  1  0  0  0
 21 23  2  0  0  0
 15  1  1  0  0  0
 37 32  1  0  0  0
 15  4  1  0  0  0
 10  5  1  0  0  0
 14 11  1  0  0  0
 17 20  1  0  0  0
 30 31  1  0  0  0
 22 24  1  0  0  0
 22 25  1  0  0  0
M  END
> <minimizedAffinity>
-8.95701

> <CNNscore>
0.1989842057

> <CNNaffinity>
7.1067085266

> <CNN_VS>
1.4141227007

> <CNNaffinity_variance>
0.1872827560

$$$$
[H]O[C@](C#Cc1c([H])c([H])c2c(c1[H])-c1nc(C(=O)N([H])[H])c(C(=O)N([H])C([H])([H])[H])n1C1([H])C([H])([H])C2([H])C1([H])[H])(c1noc(C([H])([H])[H])n1)C([H])([H])[H]


 37 41  0  0  0  0  0  0  0  0999 V2000
   44.7377   13.8872  -14.5099 C   0  0  0  0  0  0  0  0  0  0  0  0
   43.8591   13.1998  -15.2868 C   0  0  0  0  0  0  0  0  0  0  0  0
   42.5954   13.4980  -14.8583 N   0  0  0  0  0  0  0  0  0  0  0  0
   42.7092   14.3418  -13.8450 C   0  0  0  0  0  0  0  0  0  0  0  0
   41.5620   14.9154  -13.0846 C   0  0  0  0  0  0  0  0  0  0  0  0
   40.3492   14.4955  -13.5427 C   0  0  0  0  0  0  0  0  0  0  0  0
   39.1966   14.9396  -12.9401 C   0  0  0  0  0  0  0  0  0  0  0  0
   39.2756   15.8000  -11.8846 C   0  0  0  0  0  0  0  0  0  0  0  0
   40.4912   16.2679  -11.3674 C   0  0  0  0  0  0  0  0  0  0  0  0
   41.6067   15.7883  -12.0122 C   0  0  0  0  0  0  0  0  0  0  0  0
   42.8775   16.3332  -11.4083 C   0  0  0  0  0  0  0  0  0  0  0  0
   43.7800   16.8198  -12.5502 C   0  0  0  0  0  0  0  0  0  0  0  0
   44.5370   15.4894  -12.5731 C   0  0  0  0  0  0  0  0  0  0  0  0
   43.8718   15.2047  -11.2212 C   0  0  0  0  0  0  0  0  0  0  0  0
   44.0100   14.5967  -13.6102 N   0  0  0  0  0  0  0  0  0  0  0  0
   48.4609   13.0202  -14.4017 C   0  0  0  0  0  0  0  0  0  0  0  0
   47.0259   12.9180  -14.3284 N   0  0  0  0  0  0  0  0  0  0  0  0
   46.1971   14.0171  -14.5996 C   0  0  0  0  0  0  0  0  0  0  0  0
   46.7524   15.0966  -14.9254 O   0  0  0  0  0  0  0  0  0  0  0  0
   46.6217   11.9987  -14.0952 H   0  0  0  0  0  0  0  0  0  0  0  0
   44.1622   12.2259  -16.3351 C   0  0  0  0  0  0  0  0  0  0  0  0
   43.3869   11.9929  -17.4872 N   0  0  0  0  0  0  0  0  0  0  0  0
   45.2177   11.5037  -16.2434 O   0  0  0  0  0  0  0  0  0  0  0  0
   43.1648   11.0206  -17.8317 H   0  0  0  0  0  0  0  0  0  0  0  0
   43.0121   12.8193  -18.0297 H   0  0  0  0  0  0  0  0  0  0  0  0
   37.9542   14.4544  -13.4802 C   0  0  0  0  0  0  0  0  0  0  0  0
   36.9008   14.0648  -13.9259 C   0  0  0  0  0  0  0  0  0  0  0  0
   35.5936   13.5962  -14.4530 C   0  0  0  0  0  0  0  0  0  0  0  0
   34.8499   12.9718  -13.2822 C   0  0  0  0  0  0  0  0  0  0  0  0
   34.9393   14.6919  -14.9610 O   0  0  0  0  0  0  0  0  0  0  0  0
   33.9619   14.4548  -14.9955 H   0  0  0  0  0  0  0  0  0  0  0  0
   35.7633   12.5501  -15.4714 C   0  0  0  0  0  0  0  0  0  0  0  0
   34.8199   11.6963  -15.8763 N   0  0  0  0  0  0  0  0  0  0  0  0
   35.3300   10.9125  -16.7905 O   0  0  0  0  0  0  0  0  0  0  0  0
   36.5868   11.2114  -17.0137 C   0  0  0  0  0  0  0  0  0  0  0  0
   37.5425   10.5701  -17.9734 C   0  0  0  0  0  0  0  0  0  0  0  0
   36.8622   12.2542  -16.1735 N   0  0  0  0  0  0  0  0  0  0  0  0
 16 17  1  0  0  0
 17 18  1  0  0  0
 18 19  2  0  0  0
 18  1  1  0  0  0
  1  2  2  0  0  0
  2  3  1  0  0  0
  3  4  2  0  0  0
  4  5  1  0  0  0
  5  6  2  0  0  0
  6  7  1  0  0  0
  7  8  2  0  0  0
  8  9  1  0  0  0
  9 10  2  0  0  0
 10 11  1  0  0  0
 11 12  1  0  0  0
 12 13  1  0  0  0
 13 14  1  0  0  0
 13 15  1  0  0  0
  7 26  1  0  0  0
 26 27  3  0  0  0
 28 27  1  0  0  0
 28 29  1  0  0  0
 28 30  1  0  0  0
 28 32  1  0  0  0
 32 33  2  0  0  0
 33 34  1  0  0  0
 34 35  1  0  0  0
 35 36  1  0  0  0
 35 37  2  0  0  0
  2 21  1  0  0  0
 21 22  1  0  0  0
 21 23  2  0  0  0
 15  1  1  0  0  0
 37 32  1  0  0  0
 15  4  1  0  0  0
 10  5  1  0  0  0
 14 11  1  0  0  0
 17 20  1  0  0  0
 30 31  1  0  0  0
 22 24  1  0  0  0
 22 25  1  0  0  0
M  END
> <minimizedAffinity>
-8.91647

> <CNNscore>
0.1949351579

> <CNNaffinity>
6.4573392868

> <CNN_VS>
1.2587624788

> <CNNaffinity_variance>
0.0879702121

$$$$
[H]O[C@](C#Cc1c([H])c([H])c2c(c1[H])-c1nc(C(=O)N([H])[H])c(C(=O)N([H])C([H])([H])[H])n1C1([H])C([H])([H])C2([H])C1([H])[H])(c1noc(C([H])([H])[H])n1)C([H])([H])[H]


 37 41  0  0  0  0  0  0  0  0999 V2000
   36.9833   12.2052  -15.8011 C   0  0  0  0  0  0  0  0  0  0  0  0
   37.0034   12.8624  -14.6113 C   0  0  0  0  0  0  0  0  0  0  0  0
   38.3010   13.1925  -14.3344 N   0  0  0  0  0  0  0  0  0  0  0  0
   39.0460   12.7419  -15.3312 C   0  0  0  0  0  0  0  0  0  0  0  0
   40.5270   12.8909  -15.4191 C   0  0  0  0  0  0  0  0  0  0  0  0
   41.0640   13.5617  -14.3615 C   0  0  0  0  0  0  0  0  0  0  0  0
   42.4201   13.7766  -14.3019 C   0  0  0  0  0  0  0  0  0  0  0  0
   43.2209   13.3152  -15.3052 C   0  0  0  0  0  0  0  0  0  0  0  0
   42.7300   12.6191  -16.4181 C   0  0  0  0  0  0  0  0  0  0  0  0
   41.3673   12.4363  -16.4198 C   0  0  0  0  0  0  0  0  0  0  0  0
   40.9068   11.6850  -17.6445 C   0  0  0  0  0  0  0  0  0  0  0  0
   39.7002   12.4265  -18.2356 C   0  0  0  0  0  0  0  0  0  0  0  0
   38.7230   11.5138  -17.4905 C   0  0  0  0  0  0  0  0  0  0  0  0
   39.9290   10.6021  -17.2343 C   0  0  0  0  0  0  0  0  0  0  0  0
   38.2648   12.1329  -16.2427 N   0  0  0  0  0  0  0  0  0  0  0  0
   33.5094   10.9402  -16.7793 C   0  0  0  0  0  0  0  0  0  0  0  0
   34.6281   11.4192  -16.0085 N   0  0  0  0  0  0  0  0  0  0  0  0
   35.8571   11.7262  -16.6116 C   0  0  0  0  0  0  0  0  0  0  0  0
   35.9446   11.5823  -17.8572 O   0  0  0  0  0  0  0  0  0  0  0  0
   34.4895   11.5566  -14.9963 H   0  0  0  0  0  0  0  0  0  0  0  0
   35.8825   13.1062  -13.7038 C   0  0  0  0  0  0  0  0  0  0  0  0
   35.1590   14.3097  -13.5988 N   0  0  0  0  0  0  0  0  0  0  0  0
   35.4848   12.1710  -12.9220 O   0  0  0  0  0  0  0  0  0  0  0  0
   34.8976   14.7325  -12.6680 H   0  0  0  0  0  0  0  0  0  0  0  0
   34.8650   14.8108  -14.4820 H   0  0  0  0  0  0  0  0  0  0  0  0
   42.9133   14.4937  -13.1559 C   0  0  0  0  0  0  0  0  0  0  0  0
   43.3178   15.0811  -12.1805 C   0  0  0  0  0  0  0  0  0  0  0  0
   43.7928   15.7968  -10.9688 C   0  0  0  0  0  0  0  0  0  0  0  0
   44.8729   14.9269  -10.3440 C   0  0  0  0  0  0  0  0  0  0  0  0
   44.2766   17.0163  -11.3756 O   0  0  0  0  0  0  0  0  0  0  0  0
   44.8899   17.3417  -10.6472 H   0  0  0  0  0  0  0  0  0  0  0  0
   42.7219   15.9470   -9.9734 C   0  0  0  0  0  0  0  0  0  0  0  0
   42.8846   16.3361   -8.7064 N   0  0  0  0  0  0  0  0  0  0  0  0
   41.7151   16.3545   -8.1214 O   0  0  0  0  0  0  0  0  0  0  0  0
   40.7704   15.9901   -8.9541 C   0  0  0  0  0  0  0  0  0  0  0  0
   39.2980   15.8725   -8.7016 C   0  0  0  0  0  0  0  0  0  0  0  0
   41.4120   15.7308  -10.1332 N   0  0  0  0  0  0  0  0  0  0  0  0
 16 17  1  0  0  0
 17 18  1  0  0  0
 18 19  2  0  0  0
 18  1  1  0  0  0
  1  2  2  0  0  0
  2  3  1  0  0  0
  3  4  2  0  0  0
  4  5  1  0  0  0
  5  6  2  0  0  0
  6  7  1  0  0  0
  7  8  2  0  0  0
  8  9  1  0  0  0
  9 10  2  0  0  0
 10 11  1  0  0  0
 11 12  1  0  0  0
 12 13  1  0  0  0
 13 14  1  0  0  0
 13 15  1  0  0  0
  7 26  1  0  0  0
 26 27  3  0  0  0
 28 27  1  0  0  0
 28 29  1  0  0  0
 28 30  1  0  0  0
 28 32  1  0  0  0
 32 33  2  0  0  0
 33 34  1  0  0  0
 34 35  1  0  0  0
 35 36  1  0  0  0
 35 37  2  0  0  0
  2 21  1  0  0  0
 21 22  1  0  0  0
 21 23  2  0  0  0
 15  1  1  0  0  0
 37 32  1  0  0  0
 15  4  1  0  0  0
 10  5  1  0  0  0
 14 11  1  0  0  0
 17 20  1  0  0  0
 30 31  1  0  0  0
 22 24  1  0  0  0
 22 25  1  0  0  0
M  END
> <minimizedAffinity>
-8.81461

> <CNNscore>
0.1819530576

> <CNNaffinity>
6.8779129982

> <CNN_VS>
1.2514573336

> <CNNaffinity_variance>
0.0517810062

$$$$
[H]OC([H])([H])C1([H])Oc2c([H])c([H])c(C#CC3(O[H])C([H])([H])C([H])([H])C([H])([H])C3([H])[H])c([H])c2-c2nc(C(=O)N([H])[H])c([H])n2C1([H])[H]


 31 34  0  0  0  0  0  0  0  0999 V2000
   35.4870   11.2719  -16.5683 C   0  0  0  0  0  0  0  0  0  0  0  0
   36.4034   10.4882  -17.2312 C   0  0  0  0  0  0  0  0  0  0  0  0
   37.6285   10.9392  -16.9209 N   0  0  0  0  0  0  0  0  0  0  0  0
   38.8299   10.3742  -17.4198 C   0  0  0  0  0  0  0  0  0  0  0  0
   39.8601   11.3290  -17.9055 C   0  0  0  0  0  0  0  0  0  0  0  0
   40.4099   12.1864  -16.9684 O   0  0  0  0  0  0  0  0  0  0  0  0
   39.8681   12.8838  -15.8702 C   0  0  0  0  0  0  0  0  0  0  0  0
   40.7716   13.6759  -15.2155 C   0  0  0  0  0  0  0  0  0  0  0  0
   40.3184   14.3986  -14.1199 C   0  0  0  0  0  0  0  0  0  0  0  0
   38.9963   14.3005  -13.7288 C   0  0  0  0  0  0  0  0  0  0  0  0
   38.0928   13.4994  -14.3949 C   0  0  0  0  0  0  0  0  0  0  0  0
   38.5353   12.7656  -15.5007 C   0  0  0  0  0  0  0  0  0  0  0  0
   37.4595   11.9732  -16.0887 C   0  0  0  0  0  0  0  0  0  0  0  0
   36.1426   12.1923  -15.8603 N   0  0  0  0  0  0  0  0  0  0  0  0
   33.3264   11.2816  -15.3795 N   0  0  0  0  0  0  0  0  0  0  0  0
   34.0361   11.1604  -16.5983 C   0  0  0  0  0  0  0  0  0  0  0  0
   33.3891   10.9626  -17.6516 O   0  0  0  0  0  0  0  0  0  0  0  0
   33.1397   12.2376  -15.0002 H   0  0  0  0  0  0  0  0  0  0  0  0
   33.0029   10.4471  -14.8801 H   0  0  0  0  0  0  0  0  0  0  0  0
   39.4073   12.1431  -19.1005 C   0  0  0  0  0  0  0  0  0  0  0  0
   39.6049   11.5182  -20.3035 O   0  0  0  0  0  0  0  0  0  0  0  0
   38.9459   11.7935  -20.9853 H   0  0  0  0  0  0  0  0  0  0  0  0
   38.5582   15.0718  -12.5770 C   0  0  0  0  0  0  0  0  0  0  0  0
   38.1749   15.7067  -11.6259 C   0  0  0  0  0  0  0  0  0  0  0  0
   37.6857   16.4866  -10.4781 C   0  0  0  0  0  0  0  0  0  0  0  0
   36.7602   17.4214  -10.9413 O   0  0  0  0  0  0  0  0  0  0  0  0
   37.0078   15.6007   -9.4603 C   0  0  0  0  0  0  0  0  0  0  0  0
   37.9061   15.5514   -8.2512 C   0  0  0  0  0  0  0  0  0  0  0  0
   38.7955   16.7517   -8.3370 C   0  0  0  0  0  0  0  0  0  0  0  0
   38.7914   17.2144   -9.7754 C   0  0  0  0  0  0  0  0  0  0  0  0
   36.4812   17.2515  -11.8661 H   0  0  0  0  0  0  0  0  0  0  0  0
 15 16  1  0  0  0
 16 17  2  0  0  0
 16  1  1  0  0  0
  1  2  2  0  0  0
  2  3  1  0  0  0
  3  4  1  0  0  0
  4  5  1  0  0  0
  5 20  1  0  0  0
 20 21  1  0  0  0
  5  6  1  0  0  0
  6  7  1  0  0  0
  7  8  2  0  0  0
  8  9  1  0  0  0
  9 10  2  0  0  0
 10 11  1  0  0  0
 11 12  2  0  0  0
 12 13  1  0  0  0
 13 14  2  0  0  0
 10 23  1  0  0  0
 23 24  3  0  0  0
 24 25  1  0  0  0
 25 26  1  0  0  0
 25 27  1  0  0  0
 27 28  1  0  0  0
 28 29  1  0  0  0
 29 30  1  0  0  0
 14  1  1  0  0  0
 30 25  1  0  0  0
 13  3  1  0  0  0
 12  7  1  0  0  0
 15 18  1  0  0  0
 15 19  1  0  0  0
 21 22  1  0  0  0
 26 31  1  0  0  0
M  END
> <minimizedAffinity>
-8.70604

> <CNNscore>
0.5163077712

> <CNNaffinity>
6.7641782761

> <CNN_VS>
3.4923977852

> <CNNaffinity_variance>
0.2279705554

$$$$
[H]OC([H])([H])C1([H])Oc2c([H])c([H])c(C#CC3(O[H])C([H])([H])C([H])([H])C([H])([H])C3([H])[H])c([H])c2-c2nc(C(=O)N([H])[H])c([H])n2C1([H])[H]


 31 34  0  0  0  0  0  0  0  0999 V2000
   42.2661   15.6160  -12.6570 C   0  0  0  0  0  0  0  0  0  0  0  0
   43.4695   15.6083  -13.3243 C   0  0  0  0  0  0  0  0  0  0  0  0
   44.4066   16.0736  -12.4839 N   0  0  0  0  0  0  0  0  0  0  0  0
   45.7770   16.2095  -12.8234 C   0  0  0  0  0  0  0  0  0  0  0  0
   46.4352   17.4816  -12.4266 C   0  0  0  0  0  0  0  0  0  0  0  0
   46.5330   17.7391  -11.0702 O   0  0  0  0  0  0  0  0  0  0  0  0
   45.6613   17.5172   -9.9854 C   0  0  0  0  0  0  0  0  0  0  0  0
   46.1402   17.9719   -8.7869 C   0  0  0  0  0  0  0  0  0  0  0  0
   45.3417   17.7924   -7.6653 C   0  0  0  0  0  0  0  0  0  0  0  0
   44.1120   17.1730   -7.7869 C   0  0  0  0  0  0  0  0  0  0  0  0
   43.6375   16.7180   -8.9991 C   0  0  0  0  0  0  0  0  0  0  0  0
   44.4313   16.8921  -10.1378 C   0  0  0  0  0  0  0  0  0  0  0  0
   43.7860   16.3573  -11.3331 C   0  0  0  0  0  0  0  0  0  0  0  0
   42.4632   16.0805  -11.4227 N   0  0  0  0  0  0  0  0  0  0  0  0
   40.8375   13.8912  -13.6894 N   0  0  0  0  0  0  0  0  0  0  0  0
   40.9668   15.1991  -13.1636 C   0  0  0  0  0  0  0  0  0  0  0  0
   39.9607   15.9440  -13.1551 O   0  0  0  0  0  0  0  0  0  0  0  0
   40.7170   13.0929  -13.0254 H   0  0  0  0  0  0  0  0  0  0  0  0
   40.8619   13.7321  -14.7016 H   0  0  0  0  0  0  0  0  0  0  0  0
   45.8475   18.6995  -13.1100 C   0  0  0  0  0  0  0  0  0  0  0  0
   46.4265   19.8815  -12.7298 O   0  0  0  0  0  0  0  0  0  0  0  0
   46.3948   20.5644  -13.4424 H   0  0  0  0  0  0  0  0  0  0  0  0
   43.3037   17.0026   -6.5905 C   0  0  0  0  0  0  0  0  0  0  0  0
   42.6234   16.8792   -5.6023 C   0  0  0  0  0  0  0  0  0  0  0  0
   41.7926   16.7539   -4.3944 C   0  0  0  0  0  0  0  0  0  0  0  0
   42.5844   16.2473   -3.3641 O   0  0  0  0  0  0  0  0  0  0  0  0
   41.2415   18.0927   -3.9649 C   0  0  0  0  0  0  0  0  0  0  0  0
   39.7589   18.0657   -4.2341 C   0  0  0  0  0  0  0  0  0  0  0  0
   39.3712   16.6228   -4.3171 C   0  0  0  0  0  0  0  0  0  0  0  0
   40.6281   15.8335   -4.6009 C   0  0  0  0  0  0  0  0  0  0  0  0
   43.5410   16.2611   -3.5803 H   0  0  0  0  0  0  0  0  0  0  0  0
 15 16  1  0  0  0
 16 17  2  0  0  0
 16  1  1  0  0  0
  1  2  2  0  0  0
  2  3  1  0  0  0
  3  4  1  0  0  0
  4  5  1  0  0  0
  5 20  1  0  0  0
 20 21  1  0  0  0
  5  6  1  0  0  0
  6  7  1  0  0  0
  7  8  2  0  0  0
  8  9  1  0  0  0
  9 10  2  0  0  0
 10 11  1  0  0  0
 11 12  2  0  0  0
 12 13  1  0  0  0
 13 14  2  0  0  0
 10 23  1  0  0  0
 23 24  3  0  0  0
 24 25  1  0  0  0
 25 26  1  0  0  0
 25 27  1  0  0  0
 27 28  1  0  0  0
 28 29  1  0  0  0
 29 30  1  0  0  0
 14  1  1  0  0  0
 30 25  1  0  0  0
 13  3  1  0  0  0
 12  7  1  0  0  0
 15 18  1  0  0  0
 15 19  1  0  0  0
 21 22  1  0  0  0
 26 31  1  0  0  0
M  END
> <minimizedAffinity>
-5.32844

> <CNNscore>
0.4055757821

> <CNNaffinity>
4.7840356827

> <CNN_VS>
1.9402890205

> <CNNaffinity_variance>
0.1883633882

$$$$
[H]OC([H])([H])C1([H])Oc2c([H])c([H])c(C#CC3(O[H])C([H])([H])C([H])([H])C([H])([H])C3([H])[H])c([H])c2-c2nc(C(=O)N([H])[H])c([H])n2C1([H])[H]


 31 34  0  0  0  0  0  0  0  0999 V2000
   35.3893   15.8303   -9.7838 C   0  0  0  0  0  0  0  0  0  0  0  0
   34.5955   16.3032   -8.7641 C   0  0  0  0  0  0  0  0  0  0  0  0
   35.2112   16.0269   -7.6042 N   0  0  0  0  0  0  0  0  0  0  0  0
   34.6889   16.3671   -6.3302 C   0  0  0  0  0  0  0  0  0  0  0  0
   34.7512   15.3123   -5.2849 C   0  0  0  0  0  0  0  0  0  0  0  0
   36.0108   14.8994   -4.8870 O   0  0  0  0  0  0  0  0  0  0  0  0
   37.2153   14.6819   -5.5855 C   0  0  0  0  0  0  0  0  0  0  0  0
   38.2372   14.2228   -4.7997 C   0  0  0  0  0  0  0  0  0  0  0  0
   39.4606   13.9823   -5.4109 C   0  0  0  0  0  0  0  0  0  0  0  0
   39.6098   14.2081   -6.7663 C   0  0  0  0  0  0  0  0  0  0  0  0
   38.5740   14.6708   -7.5504 C   0  0  0  0  0  0  0  0  0  0  0  0
   37.3357   14.9175   -6.9482 C   0  0  0  0  0  0  0  0  0  0  0  0
   36.3525   15.4006   -7.9130 C   0  0  0  0  0  0  0  0  0  0  0  0
   36.4782   15.2709   -9.2553 N   0  0  0  0  0  0  0  0  0  0  0  0
   36.0367   16.6297  -12.0250 N   0  0  0  0  0  0  0  0  0  0  0  0
   35.1330   15.9012  -11.2149 C   0  0  0  0  0  0  0  0  0  0  0  0
   34.1513   15.3479  -11.7600 O   0  0  0  0  0  0  0  0  0  0  0  0
   36.9313   16.1732  -12.3148 H   0  0  0  0  0  0  0  0  0  0  0  0
   35.8164   17.5860  -12.3208 H   0  0  0  0  0  0  0  0  0  0  0  0
   33.9226   14.0884   -5.6179 C   0  0  0  0  0  0  0  0  0  0  0  0
   32.8471   13.9052   -4.7893 O   0  0  0  0  0  0  0  0  0  0  0  0
   32.0997   13.4403   -5.2370 H   0  0  0  0  0  0  0  0  0  0  0  0
   40.9053   13.9450   -7.3713 C   0  0  0  0  0  0  0  0  0  0  0  0
   41.9822   13.7101   -7.8609 C   0  0  0  0  0  0  0  0  0  0  0  0
   43.3038   13.4137   -8.4360 C   0  0  0  0  0  0  0  0  0  0  0  0
   43.1197   12.7203   -9.6320 O   0  0  0  0  0  0  0  0  0  0  0  0
   44.0734   14.6801   -8.7268 C   0  0  0  0  0  0  0  0  0  0  0  0
   45.2074   14.7437   -7.7361 C   0  0  0  0  0  0  0  0  0  0  0  0
   45.4142   13.3468   -7.2410 C   0  0  0  0  0  0  0  0  0  0  0  0
   44.1448   12.5764   -7.5209 C   0  0  0  0  0  0  0  0  0  0  0  0
   42.1892   12.7398   -9.9413 H   0  0  0  0  0  0  0  0  0  0  0  0
 15 16  1  0  0  0
 16 17  2  0  0  0
 16  1  1  0  0  0
  1  2  2  0  0  0
  2  3  1  0  0  0
  3  4  1  0  0  0
  4  5  1  0  0  0
  5 20  1  0  0  0
 20 21  1  0  0  0
  5  6  1  0  0  0
  6  7  1  0  0  0
  7  8  2  0  0  0
  8  9  1  0  0  0
  9 10  2  0  0  0
 10 11  1  0  0  0
 11 12  2  0  0  0
 12 13  1  0  0  0
 13 14  2  0  0  0
 10 23  1  0  0  0
 23 24  3  0  0  0
 24 25  1  0  0  0
 25 26  1  0  0  0
 25 27  1  0  0  0
 27 28  1  0  0  0
 28 29  1  0  0  0
 29 30  1  0  0  0
 14  1  1  0  0  0
 30 25  1  0  0  0
 13  3  1  0  0  0
 12  7  1  0  0  0
 15 18  1  0  0  0
 15 19  1  0  0  0
 21 22  1  0  0  0
 26 31  1  0  0  0
M  END
> <minimizedAffinity>
-6.16861

> <CNNscore>
0.4013996720

> <CNNaffinity>
5.0756921768

> <CNN_VS>
2.0373811722

> <CNNaffinity_variance>
0.3488972187

$$$$
[H]OC([H])([H])C1([H])Oc2c([H])c([H])c(C#CC3(O[H])C([H])([H])C([H])([H])C([H])([H])C3([H])[H])c([H])c2-c2nc(C(=O)N([H])[H])c([H])n2C1([H])[H]


 31 34  0  0  0  0  0  0  0  0999 V2000
   44.1602   14.2361   -7.9544 C   0  0  0  0  0  0  0  0  0  0  0  0
   44.6770   14.9108   -9.0366 C   0  0  0  0  0  0  0  0  0  0  0  0
   43.6613   15.5340   -9.6536 N   0  0  0  0  0  0  0  0  0  0  0  0
   43.8118   16.3332  -10.8157 C   0  0  0  0  0  0  0  0  0  0  0  0
   42.8208   16.1170  -11.9020 C   0  0  0  0  0  0  0  0  0  0  0  0
   41.5012   16.4191  -11.6144 O   0  0  0  0  0  0  0  0  0  0  0  0
   40.7060   16.2492  -10.4634 C   0  0  0  0  0  0  0  0  0  0  0  0
   39.4085   16.6543  -10.6208 C   0  0  0  0  0  0  0  0  0  0  0  0
   38.5564   16.5208   -9.5326 C   0  0  0  0  0  0  0  0  0  0  0  0
   39.0313   15.9942   -8.3462 C   0  0  0  0  0  0  0  0  0  0  0  0
   40.3408   15.5884   -8.1969 C   0  0  0  0  0  0  0  0  0  0  0  0
   41.2107   15.7170   -9.2849 C   0  0  0  0  0  0  0  0  0  0  0  0
   42.5534   15.2440   -8.9618 C   0  0  0  0  0  0  0  0  0  0  0  0
   42.8436   14.4431   -7.9088 N   0  0  0  0  0  0  0  0  0  0  0  0
   44.1822   12.9416   -5.8556 N   0  0  0  0  0  0  0  0  0  0  0  0
   44.8817   13.4193   -6.9896 C   0  0  0  0  0  0  0  0  0  0  0  0
   46.0908   13.1211   -7.1177 O   0  0  0  0  0  0  0  0  0  0  0  0
   43.5759   12.0963   -5.9591 H   0  0  0  0  0  0  0  0  0  0  0  0
   44.2696   13.4165   -4.9515 H   0  0  0  0  0  0  0  0  0  0  0  0
   42.8804   14.7261  -12.5000 C   0  0  0  0  0  0  0  0  0  0  0  0
   41.6957   14.3060  -13.0447 O   0  0  0  0  0  0  0  0  0  0  0  0
   41.8261   13.6699  -13.7887 H   0  0  0  0  0  0  0  0  0  0  0  0
   38.1099   15.8697   -7.2285 C   0  0  0  0  0  0  0  0  0  0  0  0
   37.3548   15.7485   -6.2959 C   0  0  0  0  0  0  0  0  0  0  0  0
   36.4351   15.5753   -5.1605 C   0  0  0  0  0  0  0  0  0  0  0  0
   36.4915   16.7212   -4.3674 O   0  0  0  0  0  0  0  0  0  0  0  0
   35.0125   15.3835   -5.6296 C   0  0  0  0  0  0  0  0  0  0  0  0
   34.6443   13.9501   -5.3450 C   0  0  0  0  0  0  0  0  0  0  0  0
   35.5949   13.4709   -4.2935 C   0  0  0  0  0  0  0  0  0  0  0  0
   36.7940   14.3901   -4.3165 C   0  0  0  0  0  0  0  0  0  0  0  0
   36.9593   17.4628   -4.8069 H   0  0  0  0  0  0  0  0  0  0  0  0
 15 16  1  0  0  0
 16 17  2  0  0  0
 16  1  1  0  0  0
  1  2  2  0  0  0
  2  3  1  0  0  0
  3  4  1  0  0  0
  4  5  1  0  0  0
  5 20  1  0  0  0
 20 21  1  0  0  0
  5  6  1  0  0  0
  6  7  1  0  0  0
  7  8  2  0  0  0
  8  9  1  0  0  0
  9 10  2  0  0  0
 10 11  1  0  0  0
 11 12  2  0  0  0
 12 13  1  0  0  0
 13 14  2  0  0  0
 10 23  1  0  0  0
 23 24  3  0  0  0
 24 25  1  0  0  0
 25 26  1  0  0  0
 25 27  1  0  0  0
 27 28  1  0  0  0
 28 29  1  0  0  0
 29 30  1  0  0  0
 14  1  1  0  0  0
 30 25  1  0  0  0
 13  3  1  0  0  0
 12  7  1  0  0  0
 15 18  1  0  0  0
 15 19  1  0  0  0
 21 22  1  0  0  0
 26 31  1  0  0  0
M  END
> <minimizedAffinity>
-5.06103

> <CNNscore>
0.3505852818

> <CNNaffinity>
4.8305692673

> <CNN_VS>
1.6935265064

> <CNNaffinity_variance>
0.5603699684

$$$$
[H]OC([H])([H])C1([H])Oc2c([H])c([H])c(C#CC3(O[H])C([H])([H])C([H])([H])C([H])([H])C3([H])[H])c([H])c2-c2nc(C(=O)N([H])[H])c([H])n2C1([H])[H]


 31 34  0  0  0  0  0  0  0  0999 V2000
   39.5171   16.1660  -10.6930 C   0  0  0  0  0  0  0  0  0  0  0  0
   38.8018   17.2557  -10.2521 C   0  0  0  0  0  0  0  0  0  0  0  0
   38.5535   17.0809   -8.9451 N   0  0  0  0  0  0  0  0  0  0  0  0
   37.8351   18.0059   -8.1452 C   0  0  0  0  0  0  0  0  0  0  0  0
   36.8050   17.4374   -7.2371 C   0  0  0  0  0  0  0  0  0  0  0  0
   37.2521   16.5992   -6.2306 O   0  0  0  0  0  0  0  0  0  0  0  0
   38.2562   15.6119   -6.1783 C   0  0  0  0  0  0  0  0  0  0  0  0
   38.3436   14.9727   -4.9716 C   0  0  0  0  0  0  0  0  0  0  0  0
   39.3090   13.9840   -4.8357 C   0  0  0  0  0  0  0  0  0  0  0  0
   40.1373   13.6789   -5.8993 C   0  0  0  0  0  0  0  0  0  0  0  0
   40.0418   14.3285   -7.1121 C   0  0  0  0  0  0  0  0  0  0  0  0
   39.0737   15.3268   -7.2635 C   0  0  0  0  0  0  0  0  0  0  0  0
   39.1053   15.9117   -8.6006 C   0  0  0  0  0  0  0  0  0  0  0  0
   39.7048   15.3333   -9.6686 N   0  0  0  0  0  0  0  0  0  0  0  0
   39.6400   14.7042  -12.6753 N   0  0  0  0  0  0  0  0  0  0  0  0
   40.0108   15.9128  -12.0387 C   0  0  0  0  0  0  0  0  0  0  0  0
   40.7472   16.7146  -12.6568 O   0  0  0  0  0  0  0  0  0  0  0  0
   38.6975   14.6412  -13.1230 H   0  0  0  0  0  0  0  0  0  0  0  0
   40.2844   13.9074  -12.6958 H   0  0  0  0  0  0  0  0  0  0  0  0
   35.6712   16.7512   -7.9715 C   0  0  0  0  0  0  0  0  0  0  0  0
   35.2166   17.4454   -9.0615 O   0  0  0  0  0  0  0  0  0  0  0  0
   34.8483   16.8529   -9.7604 H   0  0  0  0  0  0  0  0  0  0  0  0
   41.1362   12.6380   -5.7198 C   0  0  0  0  0  0  0  0  0  0  0  0
   41.9566   11.7640   -5.5869 C   0  0  0  0  0  0  0  0  0  0  0  0
   42.9405   10.6808   -5.4332 C   0  0  0  0  0  0  0  0  0  0  0  0
   43.1681   10.1097   -6.6851 O   0  0  0  0  0  0  0  0  0  0  0  0
   44.2521   11.2015   -4.8955 C   0  0  0  0  0  0  0  0  0  0  0  0
   44.3871   10.6840   -3.4865 C   0  0  0  0  0  0  0  0  0  0  0  0
   43.4772    9.5006   -3.3825 C   0  0  0  0  0  0  0  0  0  0  0  0
   42.4639    9.6113   -4.4979 C   0  0  0  0  0  0  0  0  0  0  0  0
   42.7974   10.6454   -7.4184 H   0  0  0  0  0  0  0  0  0  0  0  0
 15 16  1  0  0  0
 16 17  2  0  0  0
 16  1  1  0  0  0
  1  2  2  0  0  0
  2  3  1  0  0  0
  3  4  1  0  0  0
  4  5  1  0  0  0
  5 20  1  0  0  0
 20 21  1  0  0  0
  5  6  1  0  0  0
  6  7  1  0  0  0
  7  8  2  0  0  0
  8  9  1  0  0  0
  9 10  2  0  0  0
 10 11  1  0  0  0
 11 12  2  0  0  0
 12 13  1  0  0  0
 13 14  2  0  0  0
 10 23  1  0  0  0
 23 24  3  0  0  0
 24 25  1  0  0  0
 25 26  1  0  0  0
 25 27  1  0  0  0
 27 28  1  0  0  0
 28 29  1  0  0  0
 29 30  1  0  0  0
 14  1  1  0  0  0
 30 25  1  0  0  0
 13  3  1  0  0  0
 12  7  1  0  0  0
 15 18  1  0  0  0
 15 19  1  0  0  0
 21 22  1  0  0  0
 26 31  1  0  0  0
M  END
> <minimizedAffinity>
-6.65001

> <CNNscore>
0.3300364912

> <CNNaffinity>
4.8389406204

> <CNN_VS>
1.5970269442

> <CNNaffinity_variance>
0.4493597150

$$$$
[H]OC([H])([H])C1([H])Oc2c([H])c([H])c(C#CC3(O[H])C([H])([H])C([H])([H])C([H])([H])C3([H])[H])c([H])c2-c2nc(C(=O)N([H])[H])c([H])n2C1([H])[H]


 31 34  0  0  0  0  0  0  0  0999 V2000
   35.5771   15.0035   -9.9189 C   0  0  0  0  0  0  0  0  0  0  0  0
   34.6770   15.8253   -9.2802 C   0  0  0  0  0  0  0  0  0  0  0  0
   34.9844   15.8323   -7.9740 N   0  0  0  0  0  0  0  0  0  0  0  0
   34.2715   16.5731   -6.9970 C   0  0  0  0  0  0  0  0  0  0  0  0
   33.9417   15.8608   -5.7349 C   0  0  0  0  0  0  0  0  0  0  0  0
   35.0061   15.4552   -4.9488 O   0  0  0  0  0  0  0  0  0  0  0  0
   36.2773   14.9277   -5.2516 C   0  0  0  0  0  0  0  0  0  0  0  0
   37.0243   14.6129   -4.1492 C   0  0  0  0  0  0  0  0  0  0  0  0
   38.2919   14.0866   -4.3599 C   0  0  0  0  0  0  0  0  0  0  0  0
   38.7545   13.8990   -5.6487 C   0  0  0  0  0  0  0  0  0  0  0  0
   37.9944   14.2192   -6.7539 C   0  0  0  0  0  0  0  0  0  0  0  0
   36.7154   14.7503   -6.5569 C   0  0  0  0  0  0  0  0  0  0  0  0
   36.0467   15.0330   -7.8234 C   0  0  0  0  0  0  0  0  0  0  0  0
   36.4259   14.5127   -9.0151 N   0  0  0  0  0  0  0  0  0  0  0  0
   34.9186   15.5044  -12.2420 N   0  0  0  0  0  0  0  0  0  0  0  0
   35.6392   14.6873  -11.3383 C   0  0  0  0  0  0  0  0  0  0  0  0
   36.3001   13.7270  -11.7946 O   0  0  0  0  0  0  0  0  0  0  0  0
   35.3350   16.4173  -12.5350 H   0  0  0  0  0  0  0  0  0  0  0  0
   34.0063   15.2051  -12.6009 H   0  0  0  0  0  0  0  0  0  0  0  0
   33.0116   14.6820   -5.9371 C   0  0  0  0  0  0  0  0  0  0  0  0
   32.8262   13.9231   -4.8117 O   0  0  0  0  0  0  0  0  0  0  0  0
   31.9424   13.4829   -4.7939 H   0  0  0  0  0  0  0  0  0  0  0  0
   40.0867   13.3457   -5.8302 C   0  0  0  0  0  0  0  0  0  0  0  0
   41.1856   12.8693   -5.9713 C   0  0  0  0  0  0  0  0  0  0  0  0
   42.5232   12.2748   -6.1217 C   0  0  0  0  0  0  0  0  0  0  0  0
   42.8513   12.2626   -7.4772 O   0  0  0  0  0  0  0  0  0  0  0  0
   43.5672   13.0754   -5.3803 C   0  0  0  0  0  0  0  0  0  0  0  0
   44.0092   12.2417   -4.2052 C   0  0  0  0  0  0  0  0  0  0  0  0
   43.6450   10.8273   -4.5304 C   0  0  0  0  0  0  0  0  0  0  0  0
   42.5805   10.8704   -5.6020 C   0  0  0  0  0  0  0  0  0  0  0  0
   42.2419   12.8077   -8.0190 H   0  0  0  0  0  0  0  0  0  0  0  0
 15 16  1  0  0  0
 16 17  2  0  0  0
 16  1  1  0  0  0
  1  2  2  0  0  0
  2  3  1  0  0  0
  3  4  1  0  0  0
  4  5  1  0  0  0
  5 20  1  0  0  0
 20 21  1  0  0  0
  5  6  1  0  0  0
  6  7  1  0  0  0
  7  8  2  0  0  0
  8  9  1  0  0  0
  9 10  2  0  0  0
 10 11  1  0  0  0
 11 12  2  0  0  0
 12 13  1  0  0  0
 13 14  2  0  0  0
 10 23  1  0  0  0
 23 24  3  0  0  0
 24 25  1  0  0  0
 25 26  1  0  0  0
 25 27  1  0  0  0
 27 28  1  0  0  0
 28 29  1  0  0  0
 29 30  1  0  0  0
 14  1  1  0  0  0
 30 25  1  0  0  0
 13  3  1  0  0  0
 12  7  1  0  0  0
 15 18  1  0  0  0
 15 19  1  0  0  0
 21 22  1  0  0  0
 26 31  1  0  0  0
M  END
> <minimizedAffinity>
-6.44634

> <CNNscore>
0.2803741992

> <CNNaffinity>
4.6703443527

> <CNN_VS>
1.3094440699

> <CNNaffinity_variance>
0.3297359347

$$$$
[H]OC([H])([H])C1([H])Oc2c([H])c([H])c(C#CC3(O[H])C([H])([H])C([H])([H])C([H])([H])C3([H])[H])c([H])c2-c2nc(C(=O)N([H])[H])c([H])n2C1([H])[H]


 31 34  0  0  0  0  0  0  0  0999 V2000
   36.8529   12.6684  -15.5403 C   0  0  0  0  0  0  0  0  0  0  0  0
   37.0706   11.6721  -16.4641 C   0  0  0  0  0  0  0  0  0  0  0  0
   38.3961   11.5601  -16.6408 N   0  0  0  0  0  0  0  0  0  0  0  0
   39.0010   10.6300  -17.5244 C   0  0  0  0  0  0  0  0  0  0  0  0
   40.0933   11.1498  -18.3880 C   0  0  0  0  0  0  0  0  0  0  0  0
   41.2358   11.5994  -17.7492 O   0  0  0  0  0  0  0  0  0  0  0  0
   41.4492   12.3163  -16.5549 C   0  0  0  0  0  0  0  0  0  0  0  0
   42.7644   12.6006  -16.3059 C   0  0  0  0  0  0  0  0  0  0  0  0
   43.0620   13.3057  -15.1474 C   0  0  0  0  0  0  0  0  0  0  0  0
   42.0444   13.6928  -14.2958 C   0  0  0  0  0  0  0  0  0  0  0  0
   40.7216   13.4019  -14.5551 C   0  0  0  0  0  0  0  0  0  0  0  0
   40.4069   12.6921  -15.7187 C   0  0  0  0  0  0  0  0  0  0  0  0
   38.9697   12.4678  -15.8426 C   0  0  0  0  0  0  0  0  0  0  0  0
   38.0308   13.1612  -15.1556 N   0  0  0  0  0  0  0  0  0  0  0  0
   35.5136   14.4470  -14.4800 N   0  0  0  0  0  0  0  0  0  0  0  0
   35.5749   13.1453  -15.0325 C   0  0  0  0  0  0  0  0  0  0  0  0
   34.5296   12.4570  -15.0626 O   0  0  0  0  0  0  0  0  0  0  0  0
   35.4415   15.2644  -15.1276 H   0  0  0  0  0  0  0  0  0  0  0  0
   35.5396   14.5835  -13.4645 H   0  0  0  0  0  0  0  0  0  0  0  0
   39.6321   12.2143  -19.3626 C   0  0  0  0  0  0  0  0  0  0  0  0
   39.3915   11.7420  -20.6259 O   0  0  0  0  0  0  0  0  0  0  0  0
   38.7011   12.2652  -21.1000 H   0  0  0  0  0  0  0  0  0  0  0  0
   42.3943   14.4296  -13.0923 C   0  0  0  0  0  0  0  0  0  0  0  0
   42.6883   15.0227  -12.0841 C   0  0  0  0  0  0  0  0  0  0  0  0
   43.0383   15.7267  -10.8404 C   0  0  0  0  0  0  0  0  0  0  0  0
   43.8909   16.7842  -11.1562 O   0  0  0  0  0  0  0  0  0  0  0  0
   41.8107   16.2841  -10.1600 C   0  0  0  0  0  0  0  0  0  0  0  0
   41.5942   15.4731   -8.9084 C   0  0  0  0  0  0  0  0  0  0  0  0
   42.9071   14.8297   -8.5899 C   0  0  0  0  0  0  0  0  0  0  0  0
   43.7293   14.8308   -9.8577 C   0  0  0  0  0  0  0  0  0  0  0  0
   43.9291   16.9648  -12.1195 H   0  0  0  0  0  0  0  0  0  0  0  0
 15 16  1  0  0  0
 16 17  2  0  0  0
 16  1  1  0  0  0
  1  2  2  0  0  0
  2  3  1  0  0  0
  3  4  1  0  0  0
  4  5  1  0  0  0
  5 20  1  0  0  0
 20 21  1  0  0  0
  5  6  1  0  0  0
  6  7  1  0  0  0
  7  8  2  0  0  0
  8  9  1  0  0  0
  9 10  2  0  0  0
 10 11  1  0  0  0
 11 12  2  0  0  0
 12 13  1  0  0  0
 13 14  2  0  0  0
 10 23  1  0  0  0
 23 24  3  0  0  0
 24 25  1  0  0  0
 25 26  1  0  0  0
 25 27  1  0  0  0
 27 28  1  0  0  0
 28 29  1  0  0  0
 29 30  1  0  0  0
 14  1  1  0  0  0
 30 25  1  0  0  0
 13  3  1  0  0  0
 12  7  1  0  0  0
 15 18  1  0  0  0
 15 19  1  0  0  0
 21 22  1  0  0  0
 26 31  1  0  0  0
M  END
> <minimizedAffinity>
-7.94043

> <CNNscore>
0.2797669470

> <CNNaffinity>
6.2364883423

> <CNN_VS>
1.7447632551

> <CNNaffinity_variance>
0.2521559596

$$$$
[H]OC([H])([H])C1([H])Oc2c([H])c([H])c(C#CC3(O[H])C([H])([H])C([H])([H])C([H])([H])C3([H])[H])c([H])c2-c2nc(C(=O)N([H])[H])c([H])n2C1([H])[H]


 31 34  0  0  0  0  0  0  0  0999 V2000
   43.2000   16.8092   -7.5752 C   0  0  0  0  0  0  0  0  0  0  0  0
   44.4447   17.1647   -8.0420 C   0  0  0  0  0  0  0  0  0  0  0  0
   44.4882   16.8771   -9.3520 N   0  0  0  0  0  0  0  0  0  0  0  0
   45.6192   17.1084  -10.1760 C   0  0  0  0  0  0  0  0  0  0  0  0
   46.0031   16.0086  -11.0990 C   0  0  0  0  0  0  0  0  0  0  0  0
   45.0935   15.6750  -12.0874 O   0  0  0  0  0  0  0  0  0  0  0  0
   43.6871   15.5890  -12.1088 C   0  0  0  0  0  0  0  0  0  0  0  0
   43.1750   15.1707  -13.3068 C   0  0  0  0  0  0  0  0  0  0  0  0
   41.7950   15.0588  -13.4126 C   0  0  0  0  0  0  0  0  0  0  0  0
   40.9937   15.3660  -12.3291 C   0  0  0  0  0  0  0  0  0  0  0  0
   41.5189   15.7868  -11.1254 C   0  0  0  0  0  0  0  0  0  0  0  0
   42.9076   15.9042  -11.0042 C   0  0  0  0  0  0  0  0  0  0  0  0
   43.2972   16.3588   -9.6729 C   0  0  0  0  0  0  0  0  0  0  0  0
   42.4893   16.3096   -8.5869 N   0  0  0  0  0  0  0  0  0  0  0  0
   43.0269   18.0937   -5.4773 N   0  0  0  0  0  0  0  0  0  0  0  0
   42.6914   16.9346   -6.2172 C   0  0  0  0  0  0  0  0  0  0  0  0
   41.9721   16.0649   -5.6756 O   0  0  0  0  0  0  0  0  0  0  0  0
   42.4866   18.9721   -5.6480 H   0  0  0  0  0  0  0  0  0  0  0  0
   43.7851   18.0703   -4.7880 H   0  0  0  0  0  0  0  0  0  0  0  0
   46.4246   14.7427  -10.3809 C   0  0  0  0  0  0  0  0  0  0  0  0
   47.7775   14.5277  -10.3850 O   0  0  0  0  0  0  0  0  0  0  0  0
   48.0823   14.0215   -9.5938 H   0  0  0  0  0  0  0  0  0  0  0  0
   39.5532   15.2369  -12.4772 C   0  0  0  0  0  0  0  0  0  0  0  0
   38.3567   15.1506  -12.6012 C   0  0  0  0  0  0  0  0  0  0  0  0
   36.8942   15.0676  -12.7406 C   0  0  0  0  0  0  0  0  0  0  0  0
   36.3532   16.3257  -12.4767 O   0  0  0  0  0  0  0  0  0  0  0  0
   36.4976   14.6560  -14.1384 C   0  0  0  0  0  0  0  0  0  0  0  0
   35.9459   13.2566  -14.0456 C   0  0  0  0  0  0  0  0  0  0  0  0
   35.5461   13.0542  -12.6179 C   0  0  0  0  0  0  0  0  0  0  0  0
   36.2902   14.0774  -11.7917 C   0  0  0  0  0  0  0  0  0  0  0  0
   37.0335   17.0316  -12.4473 H   0  0  0  0  0  0  0  0  0  0  0  0
 15 16  1  0  0  0
 16 17  2  0  0  0
 16  1  1  0  0  0
  1  2  2  0  0  0
  2  3  1  0  0  0
  3  4  1  0  0  0
  4  5  1  0  0  0
  5 20  1  0  0  0
 20 21  1  0  0  0
  5  6  1  0  0  0
  6  7  1  0  0  0
  7  8  2  0  0  0
  8  9  1  0  0  0
  9 10  2  0  0  0
 10 11  1  0  0  0
 11 12  2  0  0  0
 12 13  1  0  0  0
 13 14  2  0  0  0
 10 23  1  0  0  0
 23 24  3  0  0  0
 24 25  1  0  0  0
 25 26  1  0  0  0
 25 27  1  0  0  0
 27 28  1  0  0  0
 28 29  1  0  0  0
 29 30  1  0  0  0
 14  1  1  0  0  0
 30 25  1  0  0  0
 13  3  1  0  0  0
 12  7  1  0  0  0
 15 18  1  0  0  0
 15 19  1  0  0  0
 21 22  1  0  0  0
 26 31  1  0  0  0
M  END
> <minimizedAffinity>
-5.28728

> <CNNscore>
0.2594740093

> <CNNaffinity>
5.4020166397

> <CNN_VS>
1.4016829729

> <CNNaffinity_variance>
0.5412620902

$$$$
[H]OC([H])([H])C1([H])Oc2c([H])c([H])c(C#CC3(O[H])C([H])([H])C([H])([H])C([H])([H])C3([H])[H])c([H])c2-c2nc(C(=O)N([H])[H])c([H])n2C1([H])[H]


 31 34  0  0  0  0  0  0  0  0999 V2000
   35.8047   14.7848  -11.4486 C   0  0  0  0  0  0  0  0  0  0  0  0
   34.8980   15.5746  -10.7796 C   0  0  0  0  0  0  0  0  0  0  0  0
   35.3813   15.7995   -9.5482 N   0  0  0  0  0  0  0  0  0  0  0  0
   34.7167   16.5791   -8.5672 C   0  0  0  0  0  0  0  0  0  0  0  0
   34.6684   16.0150   -7.1930 C   0  0  0  0  0  0  0  0  0  0  0  0
   35.8781   15.8518   -6.5407 O   0  0  0  0  0  0  0  0  0  0  0  0
   37.1549   15.4419   -6.9738 C   0  0  0  0  0  0  0  0  0  0  0  0
   38.0851   15.3743   -5.9725 C   0  0  0  0  0  0  0  0  0  0  0  0
   39.3711   14.9779   -6.3148 C   0  0  0  0  0  0  0  0  0  0  0  0
   39.6703   14.6692   -7.6285 C   0  0  0  0  0  0  0  0  0  0  0  0
   38.7260   14.7402   -8.6311 C   0  0  0  0  0  0  0  0  0  0  0  0
   37.4262   15.1381   -8.3009 C   0  0  0  0  0  0  0  0  0  0  0  0
   36.5543   15.1606   -9.4715 C   0  0  0  0  0  0  0  0  0  0  0  0
   36.8311   14.5285  -10.6369 N   0  0  0  0  0  0  0  0  0  0  0  0
   36.2134   15.0900  -13.8613 N   0  0  0  0  0  0  0  0  0  0  0  0
   35.7105   14.2840  -12.8121 C   0  0  0  0  0  0  0  0  0  0  0  0
   35.2056   13.1745  -13.0975 O   0  0  0  0  0  0  0  0  0  0  0  0
   37.2425   15.0905  -14.0449 H   0  0  0  0  0  0  0  0  0  0  0  0
   35.5794   15.6613  -14.4289 H   0  0  0  0  0  0  0  0  0  0  0  0
   33.8909   14.7176   -7.1043 C   0  0  0  0  0  0  0  0  0  0  0  0
   32.7626   14.6937   -7.8809 O   0  0  0  0  0  0  0  0  0  0  0  0
   32.5292   13.7822   -8.1808 H   0  0  0  0  0  0  0  0  0  0  0  0
   41.0274   14.2581   -7.9491 C   0  0  0  0  0  0  0  0  0  0  0  0
   42.1482   13.8973   -8.2105 C   0  0  0  0  0  0  0  0  0  0  0  0
   43.5133   13.4387   -8.5122 C   0  0  0  0  0  0  0  0  0  0  0  0
   43.7205   12.2171   -7.8720 O   0  0  0  0  0  0  0  0  0  0  0  0
   43.7128   13.2448   -9.9965 C   0  0  0  0  0  0  0  0  0  0  0  0
   44.6430   14.3354  -10.4620 C   0  0  0  0  0  0  0  0  0  0  0  0
   45.3689   14.8187   -9.2461 C   0  0  0  0  0  0  0  0  0  0  0  0
   44.5538   14.4091   -8.0415 C   0  0  0  0  0  0  0  0  0  0  0  0
   42.8903   11.8250   -7.5270 H   0  0  0  0  0  0  0  0  0  0  0  0
 15 16  1  0  0  0
 16 17  2  0  0  0
 16  1  1  0  0  0
  1  2  2  0  0  0
  2  3  1  0  0  0
  3  4  1  0  0  0
  4  5  1  0  0  0
  5 20  1  0  0  0
 20 21  1  0  0  0
  5  6  1  0  0  0
  6  7  1  0  0  0
  7  8  2  0  0  0
  8  9  1  0  0  0
  9 10  2  0  0  0
 10 11  1  0  0  0
 11 12  2  0  0  0
 12 13  1  0  0  0
 13 14  2  0  0  0
 10 23  1  0  0  0
 23 24  3  0  0  0
 24 25  1  0  0  0
 25 26  1  0  0  0
 25 27  1  0  0  0
 27 28  1  0  0  0
 28 29  1  0  0  0
 29 30  1  0  0  0
 14  1  1  0  0  0
 30 25  1  0  0  0
 13  3  1  0  0  0
 12  7  1  0  0  0
 15 18  1  0  0  0
 15 19  1  0  0  0
 21 22  1  0  0  0
 26 31  1  0  0  0
M  END
> <minimizedAffinity>
-5.51959

> <CNNscore>
0.2498899251

> <CNNaffinity>
5.0898466110

> <CNN_VS>
1.2719013691

> <CNNaffinity_variance>
0.2559322119

$$$$
[H]O[C@](C#Cc1c([H])c([H])c2c(c1[H])-c1nc(C(=O)N([H])[H])sc1[C@](F)(C([H])([H])[H])C([H])([H])O2)(c1nc([H])c([H])c([H])n1)C([H])([H])[H]


 33 36  0  0  0  0  0  0  0  0999 V2000
   35.6687   13.5797  -12.7892 C   0  0  0  0  0  0  0  0  0  0  0  0
   34.3700   13.2626  -13.1945 C   0  0  0  0  0  0  0  0  0  0  0  0
   34.0887   12.6154  -14.3659 C   0  0  0  0  0  0  0  0  0  0  0  0
   35.1433   12.2690  -15.1690 C   0  0  0  0  0  0  0  0  0  0  0  0
   34.7958   11.5902  -16.3496 O   0  0  0  0  0  0  0  0  0  0  0  0
   35.4613   10.4128  -16.8385 C   0  0  0  0  0  0  0  0  0  0  0  0
   36.7131   10.7663  -17.5389 C   0  0  0  0  0  0  0  0  0  0  0  0
   36.3384   11.5373  -18.8059 C   0  0  0  0  0  0  0  0  0  0  0  0
   37.3855    9.5876  -17.9427 F   0  0  0  0  0  0  0  0  0  0  0  0
   37.7000   11.5208  -16.7241 C   0  0  0  0  0  0  0  0  0  0  0  0
   39.3891   11.5993  -17.1465 S   0  0  0  0  0  0  0  0  0  0  0  0
   39.9175   12.5946  -15.8687 C   0  0  0  0  0  0  0  0  0  0  0  0
   38.8238   12.8141  -15.2037 N   0  0  0  0  0  0  0  0  0  0  0  0
   37.6879   12.2920  -15.5982 C   0  0  0  0  0  0  0  0  0  0  0  0
   36.4510   12.5805  -14.7917 C   0  0  0  0  0  0  0  0  0  0  0  0
   36.7047   13.2304  -13.6071 C   0  0  0  0  0  0  0  0  0  0  0  0
   41.3239   13.0156  -15.6993 C   0  0  0  0  0  0  0  0  0  0  0  0
   42.2867   12.9037  -16.6987 N   0  0  0  0  0  0  0  0  0  0  0  0
   41.6950   13.5059  -14.5821 O   0  0  0  0  0  0  0  0  0  0  0  0
   42.5134   13.6978  -17.3079 H   0  0  0  0  0  0  0  0  0  0  0  0
   42.7948   12.0041  -16.8304 H   0  0  0  0  0  0  0  0  0  0  0  0
   35.9676   14.6605  -10.3939 C   0  0  0  0  0  0  0  0  0  0  0  0
   35.8397   14.2038  -11.4935 C   0  0  0  0  0  0  0  0  0  0  0  0
   34.7213   15.2847   -8.3901 C   0  0  0  0  0  0  0  0  0  0  0  0
   36.1063   15.1495   -8.9971 C   0  0  0  0  0  0  0  0  0  0  0  0
   36.8854   14.3147   -8.2890 O   0  0  0  0  0  0  0  0  0  0  0  0
   37.7001   14.8242   -7.9721 H   0  0  0  0  0  0  0  0  0  0  0  0
   36.6771   16.5324   -9.0092 C   0  0  0  0  0  0  0  0  0  0  0  0
   36.1806   17.4584   -8.1657 N   0  0  0  0  0  0  0  0  0  0  0  0
   36.7376   18.6929   -8.1589 C   0  0  0  0  0  0  0  0  0  0  0  0
   37.7891   19.0040   -8.9917 C   0  0  0  0  0  0  0  0  0  0  0  0
   38.2688   18.0383   -9.8360 C   0  0  0  0  0  0  0  0  0  0  0  0
   37.6828   16.8260   -9.8082 N   0  0  0  0  0  0  0  0  0  0  0  0
 24 25  1  0  0  0
 25 26  1  0  0  0
 25 22  1  0  0  0
 22 23  3  0  0  0
 23  1  1  0  0  0
  1  2  2  0  0  0
  2  3  1  0  0  0
  3  4  2  0  0  0
  4  5  1  0  0  0
  5  6  1  0  0  0
  6  7  1  0  0  0
  7  8  1  0  0  0
  7  9  1  0  0  0
  7 10  1  0  0  0
 10 11  1  0  0  0
 11 12  1  0  0  0
 12 13  2  0  0  0
 13 14  1  0  0  0
 14 15  1  0  0  0
 15 16  2  0  0  0
 12 17  1  0  0  0
 17 18  1  0  0  0
 17 19  2  0  0  0
 25 28  1  0  0  0
 28 29  2  0  0  0
 29 30  1  0  0  0
 30 31  2  0  0  0
 31 32  1  0  0  0
 32 33  2  0  0  0
 16  1  1  0  0  0
 33 28  1  0  0  0
 15  4  1  0  0  0
 14 10  2  0  0  0
 26 27  1  0  0  0
 18 20  1  0  0  0
 18 21  1  0  0  0
M  END
> <minimizedAffinity>
-8.36039

> <CNNscore>
0.4343291521

> <CNNaffinity>
7.0204286575

> <CNN_VS>
3.0491769314

> <CNNaffinity_variance>
0.2746084630

$$$$
[H]O[C@](C#Cc1c([H])c([H])c2c(c1[H])-c1nc(C(=O)N([H])[H])sc1[C@](F)(C([H])([H])[H])C([H])([H])O2)(c1nc([H])c([H])c([H])n1)C([H])([H])[H]


 33 36  0  0  0  0  0  0  0  0999 V2000
   35.8231   13.5631  -12.8265 C   0  0  0  0  0  0  0  0  0  0  0  0
   34.5140   13.2627  -13.2106 C   0  0  0  0  0  0  0  0  0  0  0  0
   34.2053   12.6206  -14.3779 C   0  0  0  0  0  0  0  0  0  0  0  0
   35.2421   12.2622  -15.1988 C   0  0  0  0  0  0  0  0  0  0  0  0
   34.8667   11.5893  -16.3743 O   0  0  0  0  0  0  0  0  0  0  0  0
   35.5094   10.4044  -16.8755 C   0  0  0  0  0  0  0  0  0  0  0  0
   36.7537   10.7433  -17.5961 C   0  0  0  0  0  0  0  0  0  0  0  0
   36.3677   11.5206  -18.8558 C   0  0  0  0  0  0  0  0  0  0  0  0
   37.4047    9.5568  -18.0123 F   0  0  0  0  0  0  0  0  0  0  0  0
   37.7632   11.4844  -16.7968 C   0  0  0  0  0  0  0  0  0  0  0  0
   39.4460   11.5424  -17.2470 S   0  0  0  0  0  0  0  0  0  0  0  0
   40.0078   12.5293  -15.9770 C   0  0  0  0  0  0  0  0  0  0  0  0
   38.9281   12.7615  -15.2938 N   0  0  0  0  0  0  0  0  0  0  0  0
   37.7794   12.2542  -15.6700 C   0  0  0  0  0  0  0  0  0  0  0  0
   36.5597   12.5569  -14.8428 C   0  0  0  0  0  0  0  0  0  0  0  0
   36.8410   13.2020  -13.6619 C   0  0  0  0  0  0  0  0  0  0  0  0
   41.4220   12.9326  -15.8304 C   0  0  0  0  0  0  0  0  0  0  0  0
   42.4150   12.6056  -16.7498 N   0  0  0  0  0  0  0  0  0  0  0  0
   41.7708   13.6135  -14.8102 O   0  0  0  0  0  0  0  0  0  0  0  0
   42.6927   13.2635  -17.4869 H   0  0  0  0  0  0  0  0  0  0  0  0
   42.8937   11.6826  -16.6892 H   0  0  0  0  0  0  0  0  0  0  0  0
   36.1262   14.7201  -10.4677 C   0  0  0  0  0  0  0  0  0  0  0  0
   36.0233   14.1833  -11.5331 C   0  0  0  0  0  0  0  0  0  0  0  0
   37.0667   14.6251   -8.2172 C   0  0  0  0  0  0  0  0  0  0  0  0
   36.1739   15.4171   -9.1556 C   0  0  0  0  0  0  0  0  0  0  0  0
   36.6082   16.6784   -9.3164 O   0  0  0  0  0  0  0  0  0  0  0  0
   35.8798   17.3117   -9.0130 H   0  0  0  0  0  0  0  0  0  0  0  0
   34.8144   15.3952   -8.5317 C   0  0  0  0  0  0  0  0  0  0  0  0
   33.8033   16.0554   -9.1295 N   0  0  0  0  0  0  0  0  0  0  0  0
   32.5695   15.9894   -8.5750 C   0  0  0  0  0  0  0  0  0  0  0  0
   32.3433   15.2655   -7.4258 C   0  0  0  0  0  0  0  0  0  0  0  0
   33.3939   14.6064   -6.8448 C   0  0  0  0  0  0  0  0  0  0  0  0
   34.6024   14.7017   -7.4315 N   0  0  0  0  0  0  0  0  0  0  0  0
 24 25  1  0  0  0
 25 26  1  0  0  0
 25 22  1  0  0  0
 22 23  3  0  0  0
 23  1  1  0  0  0
  1  2  2  0  0  0
  2  3  1  0  0  0
  3  4  2  0  0  0
  4  5  1  0  0  0
  5  6  1  0  0  0
  6  7  1  0  0  0
  7  8  1  0  0  0
  7  9  1  0  0  0
  7 10  1  0  0  0
 10 11  1  0  0  0
 11 12  1  0  0  0
 12 13  2  0  0  0
 13 14  1  0  0  0
 14 15  1  0  0  0
 15 16  2  0  0  0
 12 17  1  0  0  0
 17 18  1  0  0  0
 17 19  2  0  0  0
 25 28  1  0  0  0
 28 29  2  0  0  0
 29 30  1  0  0  0
 30 31  2  0  0  0
 31 32  1  0  0  0
 32 33  2  0  0  0
 16  1  1  0  0  0
 33 28  1  0  0  0
 15  4  1  0  0  0
 14 10  2  0  0  0
 26 27  1  0  0  0
 18 20  1  0  0  0
 18 21  1  0  0  0
M  END
> <minimizedAffinity>
-8.22476

> <CNNscore>
0.4277274311

> <CNNaffinity>
7.0057992935

> <CNN_VS>
2.9965724945

> <CNNaffinity_variance>
0.3385197818

$$$$
[H]O[C@](C#Cc1c([H])c([H])c2c(c1[H])-c1nc(C(=O)N([H])[H])sc1[C@](F)(C([H])([H])[H])C([H])([H])O2)(c1nc([H])c([H])c([H])n1)C([H])([H])[H]


 33 36  0  0  0  0  0  0  0  0999 V2000
   35.6437   13.5539  -12.8943 C   0  0  0  0  0  0  0  0  0  0  0  0
   34.3554   13.2235  -13.3214 C   0  0  0  0  0  0  0  0  0  0  0  0
   34.1008   12.5701  -14.4954 C   0  0  0  0  0  0  0  0  0  0  0  0
   35.1726   12.2309  -15.2786 C   0  0  0  0  0  0  0  0  0  0  0  0
   34.8524   11.5452  -16.4630 O   0  0  0  0  0  0  0  0  0  0  0  0
   35.5373   10.3725  -16.9362 C   0  0  0  0  0  0  0  0  0  0  0  0
   36.7980   10.7353  -17.6154 C   0  0  0  0  0  0  0  0  0  0  0  0
   36.4388   11.4989  -18.8914 C   0  0  0  0  0  0  0  0  0  0  0  0
   37.4883    9.5616  -18.0033 F   0  0  0  0  0  0  0  0  0  0  0  0
   37.7633   11.5016  -16.7857 C   0  0  0  0  0  0  0  0  0  0  0  0
   39.4589   11.5943  -17.1784 S   0  0  0  0  0  0  0  0  0  0  0  0
   39.9554   12.5985  -15.8947 C   0  0  0  0  0  0  0  0  0  0  0  0
   38.8480   12.8099  -15.2500 N   0  0  0  0  0  0  0  0  0  0  0  0
   37.7242   12.2762  -15.6628 C   0  0  0  0  0  0  0  0  0  0  0  0
   36.4706   12.5557  -14.8793 C   0  0  0  0  0  0  0  0  0  0  0  0
   36.6972   13.2117  -13.6926 C   0  0  0  0  0  0  0  0  0  0  0  0
   41.3546   13.0330  -15.7019 C   0  0  0  0  0  0  0  0  0  0  0  0
   42.3095   13.0256  -16.7149 N   0  0  0  0  0  0  0  0  0  0  0  0
   41.7267   13.4352  -14.5504 O   0  0  0  0  0  0  0  0  0  0  0  0
   42.5143   13.8728  -17.2569 H   0  0  0  0  0  0  0  0  0  0  0  0
   42.8343   12.1511  -16.9260 H   0  0  0  0  0  0  0  0  0  0  0  0
   35.8411   14.6843  -10.5114 C   0  0  0  0  0  0  0  0  0  0  0  0
   35.7860   14.1837  -11.5977 C   0  0  0  0  0  0  0  0  0  0  0  0
   36.1636   16.7563   -9.2620 C   0  0  0  0  0  0  0  0  0  0  0  0
   35.8283   15.2799   -9.1495 C   0  0  0  0  0  0  0  0  0  0  0  0
   34.6341   15.0793   -8.5673 O   0  0  0  0  0  0  0  0  0  0  0  0
   34.7711   14.5245   -7.7324 H   0  0  0  0  0  0  0  0  0  0  0  0
   36.9286   14.6783   -8.3337 C   0  0  0  0  0  0  0  0  0  0  0  0
   38.2007   15.0626   -8.5563 N   0  0  0  0  0  0  0  0  0  0  0  0
   39.1800   14.5408   -7.7797 C   0  0  0  0  0  0  0  0  0  0  0  0
   38.8915   13.6370   -6.7818 C   0  0  0  0  0  0  0  0  0  0  0  0
   37.5874   13.2689   -6.5831 C   0  0  0  0  0  0  0  0  0  0  0  0
   36.6482   13.8133   -7.3802 N   0  0  0  0  0  0  0  0  0  0  0  0
 24 25  1  0  0  0
 25 26  1  0  0  0
 25 22  1  0  0  0
 22 23  3  0  0  0
 23  1  1  0  0  0
  1  2  2  0  0  0
  2  3  1  0  0  0
  3  4  2  0  0  0
  4  5  1  0  0  0
  5  6  1  0  0  0
  6  7  1  0  0  0
  7  8  1  0  0  0
  7  9  1  0  0  0
  7 10  1  0  0  0
 10 11  1  0  0  0
 11 12  1  0  0  0
 12 13  2  0  0  0
 13 14  1  0  0  0
 14 15  1  0  0  0
 15 16  2  0  0  0
 12 17  1  0  0  0
 17 18  1  0  0  0
 17 19  2  0  0  0
 25 28  1  0  0  0
 28 29  2  0  0  0
 29 30  1  0  0  0
 30 31  2  0  0  0
 31 32  1  0  0  0
 32 33  2  0  0  0
 16  1  1  0  0  0
 33 28  1  0  0  0
 15  4  1  0  0  0
 14 10  2  0  0  0
 26 27  1  0  0  0
 18 20  1  0  0  0
 18 21  1  0  0  0
M  END
> <minimizedAffinity>
-8.58831

> <CNNscore>
0.4237603545

> <CNNaffinity>
7.0348229408

> <CNN_VS>
2.9810791016

> <CNNaffinity_variance>
0.2099892646

$$$$
[H]O[C@](C#Cc1c([H])c([H])c2c(c1[H])-c1nc(C(=O)N([H])[H])sc1[C@](F)(C([H])([H])[H])C([H])([H])O2)(c1nc([H])c([H])c([H])n1)C([H])([H])[H]


 33 36  0  0  0  0  0  0  0  0999 V2000
   36.1805   14.4445  -12.8438 C   0  0  0  0  0  0  0  0  0  0  0  0
   34.8153   14.4412  -12.5478 C   0  0  0  0  0  0  0  0  0  0  0  0
   33.9055   13.6740  -13.2215 C   0  0  0  0  0  0  0  0  0  0  0  0
   34.3725   12.8764  -14.2328 C   0  0  0  0  0  0  0  0  0  0  0  0
   33.3961   12.0970  -14.8768 O   0  0  0  0  0  0  0  0  0  0  0  0
   33.5455   10.7020  -15.1933 C   0  0  0  0  0  0  0  0  0  0  0  0
   34.3444   10.5222  -16.4229 C   0  0  0  0  0  0  0  0  0  0  0  0
   33.5359   11.0865  -17.5925 C   0  0  0  0  0  0  0  0  0  0  0  0
   34.5404    9.1418  -16.6693 F   0  0  0  0  0  0  0  0  0  0  0  0
   35.7081   11.1102  -16.3804 C   0  0  0  0  0  0  0  0  0  0  0  0
   36.9734   10.6044  -17.4671 S   0  0  0  0  0  0  0  0  0  0  0  0
   38.2033   11.6471  -16.9168 C   0  0  0  0  0  0  0  0  0  0  0  0
   37.6156   12.3087  -15.9662 N   0  0  0  0  0  0  0  0  0  0  0  0
   36.3630   12.0689  -15.6632 C   0  0  0  0  0  0  0  0  0  0  0  0
   35.7312   12.8660  -14.5546 C   0  0  0  0  0  0  0  0  0  0  0  0
   36.6240   13.6466  -13.8592 C   0  0  0  0  0  0  0  0  0  0  0  0
   39.5646   11.6671  -17.4916 C   0  0  0  0  0  0  0  0  0  0  0  0
   40.6215   12.3877  -16.9424 N   0  0  0  0  0  0  0  0  0  0  0  0
   39.8011   10.9975  -18.5508 O   0  0  0  0  0  0  0  0  0  0  0  0
   41.2979   11.9406  -16.3132 H   0  0  0  0  0  0  0  0  0  0  0  0
   40.7383   13.3959  -17.1764 H   0  0  0  0  0  0  0  0  0  0  0  0
   37.7876   15.8569  -11.2889 C   0  0  0  0  0  0  0  0  0  0  0  0
   37.0514   15.2482  -12.0111 C   0  0  0  0  0  0  0  0  0  0  0  0
   39.2600   15.5115   -9.3730 C   0  0  0  0  0  0  0  0  0  0  0  0
   38.7176   16.5384  -10.3508 C   0  0  0  0  0  0  0  0  0  0  0  0
   39.7003   17.1488  -11.0343 O   0  0  0  0  0  0  0  0  0  0  0  0
   39.6521   18.1426  -10.8506 H   0  0  0  0  0  0  0  0  0  0  0  0
   37.9540   17.5209   -9.5203 C   0  0  0  0  0  0  0  0  0  0  0  0
   37.0303   17.0707   -8.6487 N   0  0  0  0  0  0  0  0  0  0  0  0
   36.3789   17.9702   -7.8735 C   0  0  0  0  0  0  0  0  0  0  0  0
   36.6485   19.3173   -7.9664 C   0  0  0  0  0  0  0  0  0  0  0  0
   37.5938   19.7397   -8.8629 C   0  0  0  0  0  0  0  0  0  0  0  0
   38.2147   18.8092   -9.6128 N   0  0  0  0  0  0  0  0  0  0  0  0
 24 25  1  0  0  0
 25 26  1  0  0  0
 25 22  1  0  0  0
 22 23  3  0  0  0
 23  1  1  0  0  0
  1  2  2  0  0  0
  2  3  1  0  0  0
  3  4  2  0  0  0
  4  5  1  0  0  0
  5  6  1  0  0  0
  6  7  1  0  0  0
  7  8  1  0  0  0
  7  9  1  0  0  0
  7 10  1  0  0  0
 10 11  1  0  0  0
 11 12  1  0  0  0
 12 13  2  0  0  0
 13 14  1  0  0  0
 14 15  1  0  0  0
 15 16  2  0  0  0
 12 17  1  0  0  0
 17 18  1  0  0  0
 17 19  2  0  0  0
 25 28  1  0  0  0
 28 29  2  0  0  0
 29 30  1  0  0  0
 30 31  2  0  0  0
 31 32  1  0  0  0
 32 33  2  0  0  0
 16  1  1  0  0  0
 33 28  1  0  0  0
 15  4  1  0  0  0
 14 10  2  0  0  0
 26 27  1  0  0  0
 18 20  1  0  0  0
 18 21  1  0  0  0
M  END
> <minimizedAffinity>
-8.58782

> <CNNscore>
0.4111763537

> <CNNaffinity>
6.9925255775

> <CNN_VS>
2.8751611710

> <CNNaffinity_variance>
0.1764430404

$$$$
[H]O[C@](C#Cc1c([H])c([H])c2c(c1[H])-c1nc(C(=O)N([H])[H])sc1[C@](F)(C([H])([H])[H])C([H])([H])O2)(c1nc([H])c([H])c([H])n1)C([H])([H])[H]


 33 36  0  0  0  0  0  0  0  0999 V2000
   41.3945   13.2596  -14.8579 C   0  0  0  0  0  0  0  0  0  0  0  0
   42.0200   12.6396  -15.9423 C   0  0  0  0  0  0  0  0  0  0  0  0
   41.3399   11.9281  -16.8918 C   0  0  0  0  0  0  0  0  0  0  0  0
   39.9801   11.8283  -16.7575 C   0  0  0  0  0  0  0  0  0  0  0  0
   39.3325   11.1019  -17.7716 O   0  0  0  0  0  0  0  0  0  0  0  0
   38.1307   11.5266  -18.4376 C   0  0  0  0  0  0  0  0  0  0  0  0
   36.9392   11.2319  -17.6155 C   0  0  0  0  0  0  0  0  0  0  0  0
   36.7986    9.7113  -17.5240 C   0  0  0  0  0  0  0  0  0  0  0  0
   35.7790   11.7274  -18.2583 F   0  0  0  0  0  0  0  0  0  0  0  0
   36.9350   11.8530  -16.2659 C   0  0  0  0  0  0  0  0  0  0  0  0
   35.4706   12.0682  -15.3456 S   0  0  0  0  0  0  0  0  0  0  0  0
   36.1541   12.7789  -13.9562 C   0  0  0  0  0  0  0  0  0  0  0  0
   37.4195   12.8177  -14.2457 N   0  0  0  0  0  0  0  0  0  0  0  0
   37.8541   12.3644  -15.3964 C   0  0  0  0  0  0  0  0  0  0  0  0
   39.3302   12.4319  -15.6791 C   0  0  0  0  0  0  0  0  0  0  0  0
   40.0392   13.1428  -14.7400 C   0  0  0  0  0  0  0  0  0  0  0  0
   35.3556   13.1973  -12.7852 C   0  0  0  0  0  0  0  0  0  0  0  0
   33.9980   13.4995  -12.8474 N   0  0  0  0  0  0  0  0  0  0  0  0
   35.9255   13.2973  -11.6488 O   0  0  0  0  0  0  0  0  0  0  0  0
   33.2872   12.7978  -12.6115 H   0  0  0  0  0  0  0  0  0  0  0  0
   33.6920   14.4542  -13.1295 H   0  0  0  0  0  0  0  0  0  0  0  0
   42.8523   14.6794  -13.1686 C   0  0  0  0  0  0  0  0  0  0  0  0
   42.2173   14.0429  -13.9596 C   0  0  0  0  0  0  0  0  0  0  0  0
   42.5910   16.3696  -11.4271 C   0  0  0  0  0  0  0  0  0  0  0  0
   43.5784   15.4543  -12.1285 C   0  0  0  0  0  0  0  0  0  0  0  0
   44.1870   14.6196  -11.2692 O   0  0  0  0  0  0  0  0  0  0  0  0
   45.1846   14.7822  -11.3131 H   0  0  0  0  0  0  0  0  0  0  0  0
   44.5702   16.3609  -12.7863 C   0  0  0  0  0  0  0  0  0  0  0  0
   44.2413   17.6485  -13.0081 N   0  0  0  0  0  0  0  0  0  0  0  0
   45.1662   18.4664  -13.5647 C   0  0  0  0  0  0  0  0  0  0  0  0
   46.4182   18.0014  -13.8996 C   0  0  0  0  0  0  0  0  0  0  0  0
   46.7187   16.6869  -13.6599 C   0  0  0  0  0  0  0  0  0  0  0  0
   45.7670   15.9116  -13.1057 N   0  0  0  0  0  0  0  0  0  0  0  0
 24 25  1  0  0  0
 25 26  1  0  0  0
 25 22  1  0  0  0
 22 23  3  0  0  0
 23  1  1  0  0  0
  1  2  2  0  0  0
  2  3  1  0  0  0
  3  4  2  0  0  0
  4  5  1  0  0  0
  5  6  1  0  0  0
  6  7  1  0  0  0
  7  8  1  0  0  0
  7  9  1  0  0  0
  7 10  1  0  0  0
 10 11  1  0  0  0
 11 12  1  0  0  0
 12 13  2  0  0  0
 13 14  1  0  0  0
 14 15  1  0  0  0
 15 16  2  0  0  0
 12 17  1  0  0  0
 17 18  1  0  0  0
 17 19  2  0  0  0
 25 28  1  0  0  0
 28 29  2  0  0  0
 29 30  1  0  0  0
 30 31  2  0  0  0
 31 32  1  0  0  0
 32 33  2  0  0  0
 16  1  1  0  0  0
 33 28  1  0  0  0
 15  4  1  0  0  0
 14 10  2  0  0  0
 26 27  1  0  0  0
 18 20  1  0  0  0
 18 21  1  0  0  0
M  END
> <minimizedAffinity>
-7.59595

> <CNNscore>
0.3940987289

> <CNNaffinity>
6.8357381821

> <CNN_VS>
2.6939556599

> <CNNaffinity_variance>
0.4389501214

$$$$
[H]O[C@](C#Cc1c([H])c([H])c2c(c1[H])-c1nc(C(=O)N([H])[H])sc1[C@](F)(C([H])([H])[H])C([H])([H])O2)(c1nc([H])c([H])c([H])n1)C([H])([H])[H]


 33 36  0  0  0  0  0  0  0  0999 V2000
   42.4216   15.4270  -13.0358 C   0  0  0  0  0  0  0  0  0  0  0  0
   41.8504   16.2251  -12.0418 C   0  0  0  0  0  0  0  0  0  0  0  0
   40.5099   16.2389  -11.7717 C   0  0  0  0  0  0  0  0  0  0  0  0
   39.7026   15.4251  -12.5221 C   0  0  0  0  0  0  0  0  0  0  0  0
   38.3380   15.4668  -12.1879 O   0  0  0  0  0  0  0  0  0  0  0  0
   37.5013   14.3075  -12.0326 C   0  0  0  0  0  0  0  0  0  0  0  0
   37.0529   13.8001  -13.3456 C   0  0  0  0  0  0  0  0  0  0  0  0
   36.1263   14.8503  -13.9611 C   0  0  0  0  0  0  0  0  0  0  0  0
   36.2954   12.6171  -13.1689 F   0  0  0  0  0  0  0  0  0  0  0  0
   38.1434   13.4308  -14.2846 C   0  0  0  0  0  0  0  0  0  0  0  0
   37.8821   12.3692  -15.6420 S   0  0  0  0  0  0  0  0  0  0  0  0
   39.4619   12.3900  -16.2797 C   0  0  0  0  0  0  0  0  0  0  0  0
   40.0925   13.1758  -15.4604 N   0  0  0  0  0  0  0  0  0  0  0  0
   39.4679   13.7185  -14.4437 C   0  0  0  0  0  0  0  0  0  0  0  0
   40.2463   14.6226  -13.5271 C   0  0  0  0  0  0  0  0  0  0  0  0
   41.5984   14.6276  -13.7757 C   0  0  0  0  0  0  0  0  0  0  0  0
   39.8574   11.6345  -17.4866 C   0  0  0  0  0  0  0  0  0  0  0  0
   38.9801   10.8389  -18.2186 N   0  0  0  0  0  0  0  0  0  0  0  0
   41.0648   11.6990  -17.8916 O   0  0  0  0  0  0  0  0  0  0  0  0
   38.5086   11.2006  -19.0553 H   0  0  0  0  0  0  0  0  0  0  0  0
   38.8012    9.8566  -17.9222 H   0  0  0  0  0  0  0  0  0  0  0  0
   45.0469   15.5101  -13.3460 C   0  0  0  0  0  0  0  0  0  0  0  0
   43.8630   15.4500  -13.1768 C   0  0  0  0  0  0  0  0  0  0  0  0
   47.2584   14.7289  -12.6702 C   0  0  0  0  0  0  0  0  0  0  0  0
   46.5016   15.6356  -13.6241 C   0  0  0  0  0  0  0  0  0  0  0  0
   46.7553   15.3360  -14.9091 O   0  0  0  0  0  0  0  0  0  0  0  0
   47.1523   16.1510  -15.3584 H   0  0  0  0  0  0  0  0  0  0  0  0
   46.9513   17.0253  -13.3004 C   0  0  0  0  0  0  0  0  0  0  0  0
   46.0323   18.0011  -13.1636 N   0  0  0  0  0  0  0  0  0  0  0  0
   46.4527   19.2439  -12.8277 C   0  0  0  0  0  0  0  0  0  0  0  0
   47.7880   19.5139  -12.6276 C   0  0  0  0  0  0  0  0  0  0  0  0
   48.6948   18.4981  -12.7748 C   0  0  0  0  0  0  0  0  0  0  0  0
   48.2302   17.2794  -13.1105 N   0  0  0  0  0  0  0  0  0  0  0  0
 24 25  1  0  0  0
 25 26  1  0  0  0
 25 22  1  0  0  0
 22 23  3  0  0  0
 23  1  1  0  0  0
  1  2  2  0  0  0
  2  3  1  0  0  0
  3  4  2  0  0  0
  4  5  1  0  0  0
  5  6  1  0  0  0
  6  7  1  0  0  0
  7  8  1  0  0  0
  7  9  1  0  0  0
  7 10  1  0  0  0
 10 11  1  0  0  0
 11 12  1  0  0  0
 12 13  2  0  0  0
 13 14  1  0  0  0
 14 15  1  0  0  0
 15 16  2  0  0  0
 12 17  1  0  0  0
 17 18  1  0  0  0
 17 19  2  0  0  0
 25 28  1  0  0  0
 28 29  2  0  0  0
 29 30  1  0  0  0
 30 31  2  0  0  0
 31 32  1  0  0  0
 32 33  2  0  0  0
 16  1  1  0  0  0
 33 28  1  0  0  0
 15  4  1  0  0  0
 14 10  2  0  0  0
 26 27  1  0  0  0
 18 20  1  0  0  0
 18 21  1  0  0  0
M  END
> <minimizedAffinity>
-7.26952

> <CNNscore>
0.3465585113

> <CNNaffinity>
6.3647022247

> <CNN_VS>
2.2057416439

> <CNNaffinity_variance>
0.3178203106

$$$$
[H]O[C@](C#Cc1c([H])c([H])c2c(c1[H])-c1nc(C(=O)N([H])[H])sc1[C@](F)(C([H])([H])[H])C([H])([H])O2)(c1nc([H])c([H])c([H])n1)C([H])([H])[H]


 33 36  0  0  0  0  0  0  0  0999 V2000
   36.4100   14.2689  -12.7257 C   0  0  0  0  0  0  0  0  0  0  0  0
   35.0527   14.2810  -12.3955 C   0  0  0  0  0  0  0  0  0  0  0  0
   34.1101   13.5628  -13.0781 C   0  0  0  0  0  0  0  0  0  0  0  0
   34.5347   12.8004  -14.1344 C   0  0  0  0  0  0  0  0  0  0  0  0
   33.5261   12.0702  -14.7861 O   0  0  0  0  0  0  0  0  0  0  0  0
   33.6371   10.6875  -15.1659 C   0  0  0  0  0  0  0  0  0  0  0  0
   34.4016   10.5447  -16.4220 C   0  0  0  0  0  0  0  0  0  0  0  0
   33.5772   11.1760  -17.5454 C   0  0  0  0  0  0  0  0  0  0  0  0
   34.5613    9.1726  -16.7324 F   0  0  0  0  0  0  0  0  0  0  0  0
   35.7784   11.1019  -16.3889 C   0  0  0  0  0  0  0  0  0  0  0  0
   37.0054   10.6176  -17.5282 S   0  0  0  0  0  0  0  0  0  0  0  0
   38.2709   11.6097  -16.9650 C   0  0  0  0  0  0  0  0  0  0  0  0
   37.7213   12.2414  -15.9723 N   0  0  0  0  0  0  0  0  0  0  0  0
   36.4715   12.0147  -15.6481 C   0  0  0  0  0  0  0  0  0  0  0  0
   35.8846   12.7759  -14.4907 C   0  0  0  0  0  0  0  0  0  0  0  0
   36.8109   13.5068  -13.7853 C   0  0  0  0  0  0  0  0  0  0  0  0
   39.6178   11.6263  -17.5729 C   0  0  0  0  0  0  0  0  0  0  0  0
   40.7168   12.2530  -16.9918 N   0  0  0  0  0  0  0  0  0  0  0  0
   39.8009   11.0442  -18.6925 O   0  0  0  0  0  0  0  0  0  0  0  0
   41.3885   11.7255  -16.4228 H   0  0  0  0  0  0  0  0  0  0  0  0
   40.8702   13.2725  -17.1399 H   0  0  0  0  0  0  0  0  0  0  0  0
   38.0586   15.5909  -11.1353 C   0  0  0  0  0  0  0  0  0  0  0  0
   37.3183   15.0173  -11.8816 C   0  0  0  0  0  0  0  0  0  0  0  0
   38.5425   17.6955   -9.9975 C   0  0  0  0  0  0  0  0  0  0  0  0
   38.9590   16.2434  -10.1489 C   0  0  0  0  0  0  0  0  0  0  0  0
   38.9189   15.5850   -8.9783 O   0  0  0  0  0  0  0  0  0  0  0  0
   39.8450   15.2322   -8.7745 H   0  0  0  0  0  0  0  0  0  0  0  0
   40.3514   16.2790  -10.6948 C   0  0  0  0  0  0  0  0  0  0  0  0
   41.3910   16.0632   -9.8653 N   0  0  0  0  0  0  0  0  0  0  0  0
   42.6423   16.0557  -10.3836 C   0  0  0  0  0  0  0  0  0  0  0  0
   42.8571   16.2626  -11.7278 C   0  0  0  0  0  0  0  0  0  0  0  0
   41.7773   16.4786  -12.5421 C   0  0  0  0  0  0  0  0  0  0  0  0
   40.5526   16.4780  -11.9818 N   0  0  0  0  0  0  0  0  0  0  0  0
 24 25  1  0  0  0
 25 26  1  0  0  0
 25 22  1  0  0  0
 22 23  3  0  0  0
 23  1  1  0  0  0
  1  2  2  0  0  0
  2  3  1  0  0  0
  3  4  2  0  0  0
  4  5  1  0  0  0
  5  6  1  0  0  0
  6  7  1  0  0  0
  7  8  1  0  0  0
  7  9  1  0  0  0
  7 10  1  0  0  0
 10 11  1  0  0  0
 11 12  1  0  0  0
 12 13  2  0  0  0
 13 14  1  0  0  0
 14 15  1  0  0  0
 15 16  2  0  0  0
 12 17  1  0  0  0
 17 18  1  0  0  0
 17 19  2  0  0  0
 25 28  1  0  0  0
 28 29  2  0  0  0
 29 30  1  0  0  0
 30 31  2  0  0  0
 31 32  1  0  0  0
 32 33  2  0  0  0
 16  1  1  0  0  0
 33 28  1  0  0  0
 15  4  1  0  0  0
 14 10  2  0  0  0
 26 27  1  0  0  0
 18 20  1  0  0  0
 18 21  1  0  0  0
M  END
> <minimizedAffinity>
-8.74547

> <CNNscore>
0.3447813094

> <CNNaffinity>
6.9361295700

> <CNN_VS>
2.3914477825

> <CNNaffinity_variance>
0.1083135381

$$$$
[H]O[C@](C#Cc1c([H])c([H])c2c(c1[H])-c1nc(C(=O)N([H])[H])sc1[C@](F)(C([H])([H])[H])C([H])([H])O2)(c1nc([H])c([H])c([H])n1)C([H])([H])[H]


 33 36  0  0  0  0  0  0  0  0999 V2000
   36.4447   14.4167  -12.8538 C   0  0  0  0  0  0  0  0  0  0  0  0
   35.0904   14.4349  -12.5116 C   0  0  0  0  0  0  0  0  0  0  0  0
   34.1447   13.6898  -13.1601 C   0  0  0  0  0  0  0  0  0  0  0  0
   34.5629   12.8928  -14.1932 C   0  0  0  0  0  0  0  0  0  0  0  0
   33.5515   12.1364  -14.8099 O   0  0  0  0  0  0  0  0  0  0  0  0
   33.6650   10.7419  -15.1425 C   0  0  0  0  0  0  0  0  0  0  0  0
   34.4185   10.5586  -16.3999 C   0  0  0  0  0  0  0  0  0  0  0  0
   33.5812   11.1473  -17.5369 C   0  0  0  0  0  0  0  0  0  0  0  0
   34.5812    9.1772  -16.6640 F   0  0  0  0  0  0  0  0  0  0  0  0
   35.7932   11.1220  -16.3990 C   0  0  0  0  0  0  0  0  0  0  0  0
   37.0117   10.6034  -17.5321 S   0  0  0  0  0  0  0  0  0  0  0  0
   38.2781   11.6194  -17.0155 C   0  0  0  0  0  0  0  0  0  0  0  0
   37.7349   12.2830  -16.0402 N   0  0  0  0  0  0  0  0  0  0  0  0
   36.4891   12.0628  -15.6968 C   0  0  0  0  0  0  0  0  0  0  0  0
   35.9095   12.8613  -14.5610 C   0  0  0  0  0  0  0  0  0  0  0  0
   36.8391   13.6199  -13.8900 C   0  0  0  0  0  0  0  0  0  0  0  0
   39.6193   11.6203  -17.6360 C   0  0  0  0  0  0  0  0  0  0  0  0
   40.7293   12.2405  -17.0691 N   0  0  0  0  0  0  0  0  0  0  0  0
   39.7865   11.0299  -18.7539 O   0  0  0  0  0  0  0  0  0  0  0  0
   41.4016   11.7103  -16.5033 H   0  0  0  0  0  0  0  0  0  0  0  0
   40.8905   13.2576  -17.2247 H   0  0  0  0  0  0  0  0  0  0  0  0
   38.0733   15.8301  -11.3224 C   0  0  0  0  0  0  0  0  0  0  0  0
   37.3575   15.1976  -12.0446 C   0  0  0  0  0  0  0  0  0  0  0  0
   40.3707   16.3565  -10.6878 C   0  0  0  0  0  0  0  0  0  0  0  0
   38.9078   16.5974  -10.3610 C   0  0  0  0  0  0  0  0  0  0  0  0
   38.5906   17.9021  -10.4106 O   0  0  0  0  0  0  0  0  0  0  0  0
   38.2475   18.1856   -9.5019 H   0  0  0  0  0  0  0  0  0  0  0  0
   38.7080   16.0506   -8.9829 C   0  0  0  0  0  0  0  0  0  0  0  0
   39.0784   14.7829   -8.7160 N   0  0  0  0  0  0  0  0  0  0  0  0
   38.9309   14.3175   -7.4527 C   0  0  0  0  0  0  0  0  0  0  0  0
   38.4150   15.1153   -6.4560 C   0  0  0  0  0  0  0  0  0  0  0  0
   38.0491   16.3990   -6.7626 C   0  0  0  0  0  0  0  0  0  0  0  0
   38.2133   16.8172   -8.0322 N   0  0  0  0  0  0  0  0  0  0  0  0
 24 25  1  0  0  0
 25 26  1  0  0  0
 25 22  1  0  0  0
 22 23  3  0  0  0
 23  1  1  0  0  0
  1  2  2  0  0  0
  2  3  1  0  0  0
  3  4  2  0  0  0
  4  5  1  0  0  0
  5  6  1  0  0  0
  6  7  1  0  0  0
  7  8  1  0  0  0
  7  9  1  0  0  0
  7 10  1  0  0  0
 10 11  1  0  0  0
 11 12  1  0  0  0
 12 13  2  0  0  0
 13 14  1  0  0  0
 14 15  1  0  0  0
 15 16  2  0  0  0
 12 17  1  0  0  0
 17 18  1  0  0  0
 17 19  2  0  0  0
 25 28  1  0  0  0
 28 29  2  0  0  0
 29 30  1  0  0  0
 30 31  2  0  0  0
 31 32  1  0  0  0
 32 33  2  0  0  0
 16  1  1  0  0  0
 33 28  1  0  0  0
 15  4  1  0  0  0
 14 10  2  0  0  0
 26 27  1  0  0  0
 18 20  1  0  0  0
 18 21  1  0  0  0
M  END
> <minimizedAffinity>
-8.60824

> <CNNscore>
0.3364688158

> <CNNaffinity>
6.9557633400

> <CNN_VS>
2.3403973579

> <CNNaffinity_variance>
0.2943873405

$$$$
[H]O[C@](C#Cc1c([H])c([H])c2c(c1[H])-c1nc(C(=O)N([H])[H])sc1[C@](F)(C([H])([H])[H])C([H])([H])O2)(c1nc([H])c([H])c([H])n1)C([H])([H])[H]


 33 36  0  0  0  0  0  0  0  0999 V2000
   41.1386   15.6164  -12.6654 C   0  0  0  0  0  0  0  0  0  0  0  0
   40.3113   16.2136  -11.7112 C   0  0  0  0  0  0  0  0  0  0  0  0
   38.9704   15.9610  -11.6203 C   0  0  0  0  0  0  0  0  0  0  0  0
   38.4285   15.0775  -12.5164 C   0  0  0  0  0  0  0  0  0  0  0  0
   37.0512   14.8427  -12.3636 O   0  0  0  0  0  0  0  0  0  0  0  0
   36.4389   13.5416  -12.3873 C   0  0  0  0  0  0  0  0  0  0  0  0
   36.2551   13.0697  -13.7751 C   0  0  0  0  0  0  0  0  0  0  0  0
   35.2249   13.9800  -14.4460 C   0  0  0  0  0  0  0  0  0  0  0  0
   35.7220   11.7581  -13.7685 F   0  0  0  0  0  0  0  0  0  0  0  0
   37.4999   12.9828  -14.5814 C   0  0  0  0  0  0  0  0  0  0  0  0
   37.6096   12.0054  -16.0203 S   0  0  0  0  0  0  0  0  0  0  0  0
   39.2208   12.3654  -16.4414 C   0  0  0  0  0  0  0  0  0  0  0  0
   39.5877   13.1837  -15.5020 N   0  0  0  0  0  0  0  0  0  0  0  0
   38.7544   13.5189  -14.5472 C   0  0  0  0  0  0  0  0  0  0  0  0
   39.2311   14.4721  -13.4853 C   0  0  0  0  0  0  0  0  0  0  0  0
   40.5772   14.7434  -13.5524 C   0  0  0  0  0  0  0  0  0  0  0  0
   39.8940   11.7953  -17.6270 C   0  0  0  0  0  0  0  0  0  0  0  0
   41.2053   12.0951  -17.9860 N   0  0  0  0  0  0  0  0  0  0  0  0
   39.2528   10.9869  -18.3763 O   0  0  0  0  0  0  0  0  0  0  0  0
   41.9827   11.4827  -17.7141 H   0  0  0  0  0  0  0  0  0  0  0  0
   41.4068   12.9493  -18.5467 H   0  0  0  0  0  0  0  0  0  0  0  0
   43.7330   16.1291  -12.6300 C   0  0  0  0  0  0  0  0  0  0  0  0
   42.5553   15.9130  -12.6131 C   0  0  0  0  0  0  0  0  0  0  0  0
   45.4533   17.4487  -13.7512 C   0  0  0  0  0  0  0  0  0  0  0  0
   45.1986   16.3570  -12.7274 C   0  0  0  0  0  0  0  0  0  0  0  0
   45.6996   16.6730  -11.5214 O   0  0  0  0  0  0  0  0  0  0  0  0
   46.3759   15.9680  -11.2580 H   0  0  0  0  0  0  0  0  0  0  0  0
   45.8569   15.1303  -13.2751 C   0  0  0  0  0  0  0  0  0  0  0  0
   46.7896   14.4968  -12.5373 N   0  0  0  0  0  0  0  0  0  0  0  0
   47.3443   13.3634  -13.0292 C   0  0  0  0  0  0  0  0  0  0  0  0
   46.9692   12.8614  -14.2553 C   0  0  0  0  0  0  0  0  0  0  0  0
   46.0181   13.5309  -14.9784 C   0  0  0  0  0  0  0  0  0  0  0  0
   45.4956   14.6537  -14.4492 N   0  0  0  0  0  0  0  0  0  0  0  0
 24 25  1  0  0  0
 25 26  1  0  0  0
 25 22  1  0  0  0
 22 23  3  0  0  0
 23  1  1  0  0  0
  1  2  2  0  0  0
  2  3  1  0  0  0
  3  4  2  0  0  0
  4  5  1  0  0  0
  5  6  1  0  0  0
  6  7  1  0  0  0
  7  8  1  0  0  0
  7  9  1  0  0  0
  7 10  1  0  0  0
 10 11  1  0  0  0
 11 12  1  0  0  0
 12 13  2  0  0  0
 13 14  1  0  0  0
 14 15  1  0  0  0
 15 16  2  0  0  0
 12 17  1  0  0  0
 17 18  1  0  0  0
 17 19  2  0  0  0
 25 28  1  0  0  0
 28 29  2  0  0  0
 29 30  1  0  0  0
 30 31  2  0  0  0
 31 32  1  0  0  0
 32 33  2  0  0  0
 16  1  1  0  0  0
 33 28  1  0  0  0
 15  4  1  0  0  0
 14 10  2  0  0  0
 26 27  1  0  0  0
 18 20  1  0  0  0
 18 21  1  0  0  0
M  END
> <minimizedAffinity>
-8.07083

> <CNNscore>
0.3157184124

> <CNNaffinity>
6.5206284523

> <CNN_VS>
2.0586824417

> <CNNaffinity_variance>
0.1592231691

$$$$
[H]O[C@](C#Cc1c([H])c2c(c([H])c1F)OC([H])([H])C([H])([H])n1c-2nc(C(=O)N([H])[H])c1C(=O)N([H])C([H])([H])[H])(c1noc(C([H])([H])[H])n1)C([H])([H])[H]


 37 40  0  0  0  0  0  0  0  0999 V2000
   38.1759   11.9488  -16.5218 C   0  0  0  0  0  0  0  0  0  0  0  0
   39.3222   11.8281  -17.2736 C   0  0  0  0  0  0  0  0  0  0  0  0
   40.3635   12.4778  -16.6051 N   0  0  0  0  0  0  0  0  0  0  0  0
   39.8484   12.9653  -15.5074 C   0  0  0  0  0  0  0  0  0  0  0  0
   40.6882   13.7338  -14.5444 C   0  0  0  0  0  0  0  0  0  0  0  0
   42.0302   13.4719  -14.6587 C   0  0  0  0  0  0  0  0  0  0  0  0
   42.9351   14.1071  -13.8500 C   0  0  0  0  0  0  0  0  0  0  0  0
   42.4094   15.0174  -12.9239 C   0  0  0  0  0  0  0  0  0  0  0  0
   43.2980   15.6551  -12.1145 F   0  0  0  0  0  0  0  0  0  0  0  0
   41.0623   15.2801  -12.8091 C   0  0  0  0  0  0  0  0  0  0  0  0
   40.1751   14.6346  -13.6255 C   0  0  0  0  0  0  0  0  0  0  0  0
   38.8324   14.9339  -13.4651 O   0  0  0  0  0  0  0  0  0  0  0  0
   37.7657   14.0343  -13.4009 C   0  0  0  0  0  0  0  0  0  0  0  0
   37.5546   13.0254  -14.4338 C   0  0  0  0  0  0  0  0  0  0  0  0
   38.5421   12.6858  -15.3989 N   0  0  0  0  0  0  0  0  0  0  0  0
   34.4175   10.9741  -16.9793 C   0  0  0  0  0  0  0  0  0  0  0  0
   35.5875   11.7843  -16.5228 N   0  0  0  0  0  0  0  0  0  0  0  0
   36.8806   11.3813  -16.8210 C   0  0  0  0  0  0  0  0  0  0  0  0
   36.8931   10.2719  -17.4942 O   0  0  0  0  0  0  0  0  0  0  0  0
   35.3144   12.6078  -15.9805 H   0  0  0  0  0  0  0  0  0  0  0  0
   39.5874   11.2653  -18.5810 C   0  0  0  0  0  0  0  0  0  0  0  0
   38.7163   10.7794  -19.5615 N   0  0  0  0  0  0  0  0  0  0  0  0
   40.8458   11.1861  -18.9533 O   0  0  0  0  0  0  0  0  0  0  0  0
   38.7205    9.7593  -19.8584 H   0  0  0  0  0  0  0  0  0  0  0  0
   38.0145   11.3989  -20.0709 H   0  0  0  0  0  0  0  0  0  0  0  0
   44.3559   13.8606  -13.9136 C   0  0  0  0  0  0  0  0  0  0  0  0
   45.5476   13.6714  -13.9415 C   0  0  0  0  0  0  0  0  0  0  0  0
   47.0151   13.4567  -13.9461 C   0  0  0  0  0  0  0  0  0  0  0  0
   47.4173   13.2331  -15.3822 C   0  0  0  0  0  0  0  0  0  0  0  0
   47.6643   14.5564  -13.3931 O   0  0  0  0  0  0  0  0  0  0  0  0
   47.8719   14.3645  -12.4553 H   0  0  0  0  0  0  0  0  0  0  0  0
   47.3572   12.2143  -13.1956 C   0  0  0  0  0  0  0  0  0  0  0  0
   48.4548   11.4722  -13.3973 N   0  0  0  0  0  0  0  0  0  0  0  0
   48.4667   10.4595  -12.5864 O   0  0  0  0  0  0  0  0  0  0  0  0
   47.3776   10.5380  -11.8533 C   0  0  0  0  0  0  0  0  0  0  0  0
   47.0380    9.5478  -10.8003 C   0  0  0  0  0  0  0  0  0  0  0  0
   46.6768   11.6226  -12.2198 N   0  0  0  0  0  0  0  0  0  0  0  0
 16 17  1  0  0  0
 17 18  1  0  0  0
 18 19  2  0  0  0
 18  1  1  0  0  0
  1  2  2  0  0  0
  2  3  1  0  0  0
  3  4  2  0  0  0
  4  5  1  0  0  0
  5  6  2  0  0  0
  6  7  1  0  0  0
  7 26  1  0  0  0
 26 27  3  0  0  0
 28 27  1  0  0  0
 28 29  1  0  0  0
 28 30  1  0  0  0
 28 32  1  0  0  0
 32 33  2  0  0  0
 33 34  1  0  0  0
 34 35  1  0  0  0
 35 36  1  0  0  0
 35 37  2  0  0  0
  7  8  2  0  0  0
  8  9  1  0  0  0
  8 10  1  0  0  0
 10 11  2  0  0  0
 11 12  1  0  0  0
 12 13  1  0  0  0
 13 14  1  0  0  0
 14 15  1  0  0  0
  2 21  1  0  0  0
 21 22  1  0  0  0
 21 23  2  0  0  0
 15  1  1  0  0  0
 15  4  1  0  0  0
 11  5  1  0  0  0
 37 32  1  0  0  0
 17 20  1  0  0  0
 30 31  1  0  0  0
 22 24  1  0  0  0
 22 25  1  0  0  0
M  END
> <minimizedAffinity>
-9.26313

> <CNNscore>
0.7675520182

> <CNNaffinity>
7.3467001915

> <CNN_VS>
5.6389746666

> <CNNaffinity_variance>
0.1594423056

$$$$
[H]O[C@](C#Cc1c([H])c2c(c([H])c1F)OC([H])([H])C([H])([H])n1c-2nc(C(=O)N([H])[H])c1C(=O)N([H])C([H])([H])[H])(c1noc(C([H])([H])[H])n1)C([H])([H])[H]


 37 40  0  0  0  0  0  0  0  0999 V2000
   38.0547   11.8897  -16.5529 C   0  0  0  0  0  0  0  0  0  0  0  0
   39.1813   11.7813  -17.3356 C   0  0  0  0  0  0  0  0  0  0  0  0
   40.2327   12.4446  -16.6968 N   0  0  0  0  0  0  0  0  0  0  0  0
   39.7420   12.9280  -15.5862 C   0  0  0  0  0  0  0  0  0  0  0  0
   40.5986   13.7082  -14.6477 C   0  0  0  0  0  0  0  0  0  0  0  0
   41.9400   13.4621  -14.7983 C   0  0  0  0  0  0  0  0  0  0  0  0
   42.8590   14.1096  -14.0157 C   0  0  0  0  0  0  0  0  0  0  0  0
   42.3480   15.0153  -13.0769 C   0  0  0  0  0  0  0  0  0  0  0  0
   43.2506   15.6650  -12.2931 F   0  0  0  0  0  0  0  0  0  0  0  0
   41.0015   15.2621  -12.9257 C   0  0  0  0  0  0  0  0  0  0  0  0
   40.1000   14.6045  -13.7165 C   0  0  0  0  0  0  0  0  0  0  0  0
   38.7587   14.8881  -13.5198 O   0  0  0  0  0  0  0  0  0  0  0  0
   37.7051   13.9759  -13.4250 C   0  0  0  0  0  0  0  0  0  0  0  0
   37.4779   12.9627  -14.4502 C   0  0  0  0  0  0  0  0  0  0  0  0
   38.4427   12.6331  -15.4415 N   0  0  0  0  0  0  0  0  0  0  0  0
   34.2960   10.8801  -16.9240 C   0  0  0  0  0  0  0  0  0  0  0  0
   35.4677   11.7100  -16.5090 N   0  0  0  0  0  0  0  0  0  0  0  0
   36.7586   11.3062  -16.8156 C   0  0  0  0  0  0  0  0  0  0  0  0
   36.7678   10.1781  -17.4570 O   0  0  0  0  0  0  0  0  0  0  0  0
   35.1977   12.5471  -15.9863 H   0  0  0  0  0  0  0  0  0  0  0  0
   39.4174   11.2192  -18.6489 C   0  0  0  0  0  0  0  0  0  0  0  0
   38.5241   10.7427  -19.6139 N   0  0  0  0  0  0  0  0  0  0  0  0
   40.6679   11.1306  -19.0448 O   0  0  0  0  0  0  0  0  0  0  0  0
   38.5144    9.7233  -19.9130 H   0  0  0  0  0  0  0  0  0  0  0  0
   37.8180   11.3690  -20.1087 H   0  0  0  0  0  0  0  0  0  0  0  0
   44.2804   13.8799  -14.1177 C   0  0  0  0  0  0  0  0  0  0  0  0
   45.4632   13.6626  -14.2195 C   0  0  0  0  0  0  0  0  0  0  0  0
   46.9095   13.3681  -14.3645 C   0  0  0  0  0  0  0  0  0  0  0  0
   47.3814   12.8396  -13.0332 C   0  0  0  0  0  0  0  0  0  0  0  0
   47.1130   12.4467  -15.3874 O   0  0  0  0  0  0  0  0  0  0  0  0
   47.3653   12.9275  -16.2027 H   0  0  0  0  0  0  0  0  0  0  0  0
   47.6676   14.6241  -14.6322 C   0  0  0  0  0  0  0  0  0  0  0  0
   48.7304   14.7224  -15.4427 N   0  0  0  0  0  0  0  0  0  0  0  0
   49.1636   15.9451  -15.4678 O   0  0  0  0  0  0  0  0  0  0  0  0
   48.3850   16.6478  -14.6743 C   0  0  0  0  0  0  0  0  0  0  0  0
   48.5667   18.1034  -14.4443 C   0  0  0  0  0  0  0  0  0  0  0  0
   47.4506   15.8416  -14.1467 N   0  0  0  0  0  0  0  0  0  0  0  0
 16 17  1  0  0  0
 17 18  1  0  0  0
 18 19  2  0  0  0
 18  1  1  0  0  0
  1  2  2  0  0  0
  2  3  1  0  0  0
  3  4  2  0  0  0
  4  5  1  0  0  0
  5  6  2  0  0  0
  6  7  1  0  0  0
  7 26  1  0  0  0
 26 27  3  0  0  0
 28 27  1  0  0  0
 28 29  1  0  0  0
 28 30  1  0  0  0
 28 32  1  0  0  0
 32 33  2  0  0  0
 33 34  1  0  0  0
 34 35  1  0  0  0
 35 36  1  0  0  0
 35 37  2  0  0  0
  7  8  2  0  0  0
  8  9  1  0  0  0
  8 10  1  0  0  0
 10 11  2  0  0  0
 11 12  1  0  0  0
 12 13  1  0  0  0
 13 14  1  0  0  0
 14 15  1  0  0  0
  2 21  1  0  0  0
 21 22  1  0  0  0
 21 23  2  0  0  0
 15  1  1  0  0  0
 15  4  1  0  0  0
 11  5  1  0  0  0
 37 32  1  0  0  0
 17 20  1  0  0  0
 30 31  1  0  0  0
 22 24  1  0  0  0
 22 25  1  0  0  0
M  END
> <minimizedAffinity>
-8.81067

> <CNNscore>
0.7423932552

> <CNNaffinity>
7.4377121925

> <CNN_VS>
5.5217075348

> <CNNaffinity_variance>
0.2563697696

$$$$
[H]O[C@](C#Cc1c([H])c2c(c([H])c1F)OC([H])([H])C([H])([H])n1c-2nc(C(=O)N([H])[H])c1C(=O)N([H])C([H])([H])[H])(c1noc(C([H])([H])[H])n1)C([H])([H])[H]


 37 40  0  0  0  0  0  0  0  0999 V2000
   38.4638   12.2389  -16.2689 C   0  0  0  0  0  0  0  0  0  0  0  0
   39.7111   12.1672  -16.8458 C   0  0  0  0  0  0  0  0  0  0  0  0
   40.6072   12.8986  -16.0613 N   0  0  0  0  0  0  0  0  0  0  0  0
   39.9130   13.3851  -15.0666 C   0  0  0  0  0  0  0  0  0  0  0  0
   40.5610   14.2312  -14.0238 C   0  0  0  0  0  0  0  0  0  0  0  0
   41.9181   14.0490  -13.9371 C   0  0  0  0  0  0  0  0  0  0  0  0
   42.6601   14.7617  -13.0327 C   0  0  0  0  0  0  0  0  0  0  0  0
   41.9562   15.6644  -12.2250 C   0  0  0  0  0  0  0  0  0  0  0  0
   42.6818   16.3785  -11.3224 F   0  0  0  0  0  0  0  0  0  0  0  0
   40.5939   15.8472  -12.3121 C   0  0  0  0  0  0  0  0  0  0  0  0
   39.8710   15.1250  -13.2212 C   0  0  0  0  0  0  0  0  0  0  0  0
   38.5044   15.3458  -13.2638 O   0  0  0  0  0  0  0  0  0  0  0  0
   37.4923   14.3847  -13.3177 C   0  0  0  0  0  0  0  0  0  0  0  0
   37.4892   13.3353  -14.3316 C   0  0  0  0  0  0  0  0  0  0  0  0
   38.6227   13.0292  -15.1338 N   0  0  0  0  0  0  0  0  0  0  0  0
   34.8694   11.0011  -17.1817 C   0  0  0  0  0  0  0  0  0  0  0  0
   35.9132   11.8848  -16.5790 N   0  0  0  0  0  0  0  0  0  0  0  0
   37.2591   11.5846  -16.7271 C   0  0  0  0  0  0  0  0  0  0  0  0
   37.4342   10.4942  -17.4087 O   0  0  0  0  0  0  0  0  0  0  0  0
   35.5169   12.6739  -16.0621 H   0  0  0  0  0  0  0  0  0  0  0  0
   40.1927   11.5841  -18.0805 C   0  0  0  0  0  0  0  0  0  0  0  0
   39.5000   11.1068  -19.1980 N   0  0  0  0  0  0  0  0  0  0  0  0
   41.4952   11.4728  -18.2204 O   0  0  0  0  0  0  0  0  0  0  0  0
   39.5330   10.0837  -19.4822 H   0  0  0  0  0  0  0  0  0  0  0  0
   38.9158   11.7361  -19.8292 H   0  0  0  0  0  0  0  0  0  0  0  0
   44.0870   14.6011  -12.8852 C   0  0  0  0  0  0  0  0  0  0  0  0
   45.2820   14.4604  -12.7917 C   0  0  0  0  0  0  0  0  0  0  0  0
   46.7522   14.2822  -12.7112 C   0  0  0  0  0  0  0  0  0  0  0  0
   47.3421   15.6460  -12.4539 C   0  0  0  0  0  0  0  0  0  0  0  0
   47.0732   13.3815  -11.7000 O   0  0  0  0  0  0  0  0  0  0  0  0
   47.2201   12.4979  -12.0963 H   0  0  0  0  0  0  0  0  0  0  0  0
   47.2876   13.8119  -14.0212 C   0  0  0  0  0  0  0  0  0  0  0  0
   46.8332   12.7498  -14.7005 N   0  0  0  0  0  0  0  0  0  0  0  0
   47.5015   12.6032  -15.8028 O   0  0  0  0  0  0  0  0  0  0  0  0
   48.3933   13.5689  -15.8461 C   0  0  0  0  0  0  0  0  0  0  0  0
   49.3517   13.7356  -16.9679 C   0  0  0  0  0  0  0  0  0  0  0  0
   48.2740   14.3285  -14.7459 N   0  0  0  0  0  0  0  0  0  0  0  0
 16 17  1  0  0  0
 17 18  1  0  0  0
 18 19  2  0  0  0
 18  1  1  0  0  0
  1  2  2  0  0  0
  2  3  1  0  0  0
  3  4  2  0  0  0
  4  5  1  0  0  0
  5  6  2  0  0  0
  6  7  1  0  0  0
  7 26  1  0  0  0
 26 27  3  0  0  0
 28 27  1  0  0  0
 28 29  1  0  0  0
 28 30  1  0  0  0
 28 32  1  0  0  0
 32 33  2  0  0  0
 33 34  1  0  0  0
 34 35  1  0  0  0
 35 36  1  0  0  0
 35 37  2  0  0  0
  7  8  2  0  0  0
  8  9  1  0  0  0
  8 10  1  0  0  0
 10 11  2  0  0  0
 11 12  1  0  0  0
 12 13  1  0  0  0
 13 14  1  0  0  0
 14 15  1  0  0  0
  2 21  1  0  0  0
 21 22  1  0  0  0
 21 23  2  0  0  0
 15  1  1  0  0  0
 15  4  1  0  0  0
 11  5  1  0  0  0
 37 32  1  0  0  0
 17 20  1  0  0  0
 30 31  1  0  0  0
 22 24  1  0  0  0
 22 25  1  0  0  0
M  END
> <minimizedAffinity>
-8.60392

> <CNNscore>
0.3956474364

> <CNNaffinity>
6.9496140480

> <CNN_VS>
2.7495970726

> <CNNaffinity_variance>
0.1438146234

$$$$
[H]O[C@](C#Cc1c([H])c2c(c([H])c1F)OC([H])([H])C([H])([H])n1c-2nc(C(=O)N([H])[H])c1C(=O)N([H])C([H])([H])[H])(c1noc(C([H])([H])[H])n1)C([H])([H])[H]


 37 40  0  0  0  0  0  0  0  0999 V2000
   31.7860   15.5132  -10.0169 C   0  0  0  0  0  0  0  0  0  0  0  0
   31.2247   15.0111  -11.1686 C   0  0  0  0  0  0  0  0  0  0  0  0
   32.2462   14.7599  -12.0889 N   0  0  0  0  0  0  0  0  0  0  0  0
   33.3622   15.1058  -11.5033 C   0  0  0  0  0  0  0  0  0  0  0  0
   34.6690   14.9725  -12.2087 C   0  0  0  0  0  0  0  0  0  0  0  0
   34.6442   14.0677  -13.2399 C   0  0  0  0  0  0  0  0  0  0  0  0
   35.7655   13.8389  -13.9928 C   0  0  0  0  0  0  0  0  0  0  0  0
   36.9074   14.5727  -13.6461 C   0  0  0  0  0  0  0  0  0  0  0  0
   38.0280   14.3545  -14.3863 F   0  0  0  0  0  0  0  0  0  0  0  0
   36.9322   15.4808  -12.6110 C   0  0  0  0  0  0  0  0  0  0  0  0
   35.8021   15.6941  -11.8707 C   0  0  0  0  0  0  0  0  0  0  0  0
   35.8840   16.6154  -10.8398 O   0  0  0  0  0  0  0  0  0  0  0  0
   35.4065   16.4713   -9.5350 C   0  0  0  0  0  0  0  0  0  0  0  0
   34.0232   16.0928   -9.2658 C   0  0  0  0  0  0  0  0  0  0  0  0
   33.1554   15.5671  -10.2620 N   0  0  0  0  0  0  0  0  0  0  0  0
   30.0404   15.7803   -6.5288 C   0  0  0  0  0  0  0  0  0  0  0  0
   30.7798   15.1356   -7.6564 N   0  0  0  0  0  0  0  0  0  0  0  0
   31.0937   15.8604   -8.7964 C   0  0  0  0  0  0  0  0  0  0  0  0
   30.6607   17.0815   -8.7218 O   0  0  0  0  0  0  0  0  0  0  0  0
   30.9866   14.1485   -7.4842 H   0  0  0  0  0  0  0  0  0  0  0  0
   29.8540   14.8032  -11.5863 C   0  0  0  0  0  0  0  0  0  0  0  0
   29.3210   14.4405  -12.8275 N   0  0  0  0  0  0  0  0  0  0  0  0
   28.9208   14.9641  -10.6744 O   0  0  0  0  0  0  0  0  0  0  0  0
   28.6865   15.0923  -13.3763 H   0  0  0  0  0  0  0  0  0  0  0  0
   29.5078   13.4958  -13.2841 H   0  0  0  0  0  0  0  0  0  0  0  0
   35.8037   12.8884  -15.0784 C   0  0  0  0  0  0  0  0  0  0  0  0
   35.8575   12.1105  -15.9996 C   0  0  0  0  0  0  0  0  0  0  0  0
   35.9495   11.1732  -17.1453 C   0  0  0  0  0  0  0  0  0  0  0  0
   35.6254    9.8006  -16.6112 C   0  0  0  0  0  0  0  0  0  0  0  0
   35.0693   11.5564  -18.1528 O   0  0  0  0  0  0  0  0  0  0  0  0
   35.5622   12.0663  -18.8284 H   0  0  0  0  0  0  0  0  0  0  0  0
   37.3478   11.1248  -17.6615 C   0  0  0  0  0  0  0  0  0  0  0  0
   37.7201   10.5647  -18.8207 N   0  0  0  0  0  0  0  0  0  0  0  0
   39.0008   10.6881  -18.9874 O   0  0  0  0  0  0  0  0  0  0  0  0
   39.4676   11.3290  -17.9381 C   0  0  0  0  0  0  0  0  0  0  0  0
   40.9043   11.6623  -17.7668 C   0  0  0  0  0  0  0  0  0  0  0  0
   38.4531   11.6071  -17.1043 N   0  0  0  0  0  0  0  0  0  0  0  0
 16 17  1  0  0  0
 17 18  1  0  0  0
 18 19  2  0  0  0
 18  1  1  0  0  0
  1  2  2  0  0  0
  2  3  1  0  0  0
  3  4  2  0  0  0
  4  5  1  0  0  0
  5  6  2  0  0  0
  6  7  1  0  0  0
  7 26  1  0  0  0
 26 27  3  0  0  0
 28 27  1  0  0  0
 28 29  1  0  0  0
 28 30  1  0  0  0
 28 32  1  0  0  0
 32 33  2  0  0  0
 33 34  1  0  0  0
 34 35  1  0  0  0
 35 36  1  0  0  0
 35 37  2  0  0  0
  7  8  2  0  0  0
  8  9  1  0  0  0
  8 10  1  0  0  0
 10 11  2  0  0  0
 11 12  1  0  0  0
 12 13  1  0  0  0
 13 14  1  0  0  0
 14 15  1  0  0  0
  2 21  1  0  0  0
 21 22  1  0  0  0
 21 23  2  0  0  0
 15  1  1  0  0  0
 15  4  1  0  0  0
 11  5  1  0  0  0
 37 32  1  0  0  0
 17 20  1  0  0  0
 30 31  1  0  0  0
 22 24  1  0  0  0
 22 25  1  0  0  0
M  END
> <minimizedAffinity>
-9.40902

> <CNNscore>
0.3267035484

> <CNNaffinity>
6.7919602394

> <CNN_VS>
2.2189574242

> <CNNaffinity_variance>
0.1984274238

$$$$
[H]O[C@](C#Cc1c([H])c2c(c([H])c1F)OC([H])([H])C([H])([H])n1c-2nc(C(=O)N([H])[H])c1C(=O)N([H])C([H])([H])[H])(c1noc(C([H])([H])[H])n1)C([H])([H])[H]


 37 40  0  0  0  0  0  0  0  0999 V2000
   34.7612   13.9025  -12.8772 C   0  0  0  0  0  0  0  0  0  0  0  0
   35.9503   14.0285  -12.1963 C   0  0  0  0  0  0  0  0  0  0  0  0
   36.9734   13.4937  -12.9842 N   0  0  0  0  0  0  0  0  0  0  0  0
   36.4070   13.0655  -14.0814 C   0  0  0  0  0  0  0  0  0  0  0  0
   37.2144   12.4241  -15.1584 C   0  0  0  0  0  0  0  0  0  0  0  0
   38.5460   12.7520  -15.1128 C   0  0  0  0  0  0  0  0  0  0  0  0
   39.4224   12.2347  -16.0298 C   0  0  0  0  0  0  0  0  0  0  0  0
   38.8794   11.3717  -16.9905 C   0  0  0  0  0  0  0  0  0  0  0  0
   39.7396   10.8512  -17.9072 F   0  0  0  0  0  0  0  0  0  0  0  0
   37.5428   11.0428  -17.0363 C   0  0  0  0  0  0  0  0  0  0  0  0
   36.6840   11.5707  -16.1120 C   0  0  0  0  0  0  0  0  0  0  0  0
   35.3504   11.2092  -16.2065 O   0  0  0  0  0  0  0  0  0  0  0  0
   34.2372   12.0490  -16.1250 C   0  0  0  0  0  0  0  0  0  0  0  0
   34.0488   12.9599  -15.0007 C   0  0  0  0  0  0  0  0  0  0  0  0
   35.0838   13.2781  -14.0790 N   0  0  0  0  0  0  0  0  0  0  0  0
   31.0135   14.5523  -11.9728 C   0  0  0  0  0  0  0  0  0  0  0  0
   32.1938   13.8161  -12.5193 N   0  0  0  0  0  0  0  0  0  0  0  0
   33.4631   14.3702  -12.4464 C   0  0  0  0  0  0  0  0  0  0  0  0
   33.4436   15.5388  -11.8824 O   0  0  0  0  0  0  0  0  0  0  0  0
   31.9426   12.9188  -12.9420 H   0  0  0  0  0  0  0  0  0  0  0  0
   36.2787   14.5010  -10.8676 C   0  0  0  0  0  0  0  0  0  0  0  0
   35.5057   14.5689   -9.7039 N   0  0  0  0  0  0  0  0  0  0  0  0
   37.5023   14.9422  -10.6759 O   0  0  0  0  0  0  0  0  0  0  0  0
   35.2605   15.4966   -9.2481 H   0  0  0  0  0  0  0  0  0  0  0  0
   35.1326   13.7040   -9.2055 H   0  0  0  0  0  0  0  0  0  0  0  0
   40.8296   12.5558  -16.0411 C   0  0  0  0  0  0  0  0  0  0  0  0
   42.0120   12.7980  -16.0359 C   0  0  0  0  0  0  0  0  0  0  0  0
   43.4707   13.0649  -16.0143 C   0  0  0  0  0  0  0  0  0  0  0  0
   44.1435   11.8523  -16.6069 C   0  0  0  0  0  0  0  0  0  0  0  0
   43.7595   14.2197  -16.7352 O   0  0  0  0  0  0  0  0  0  0  0  0
   43.8471   14.9700  -16.1117 H   0  0  0  0  0  0  0  0  0  0  0  0
   43.9516   13.1909  -14.6083 C   0  0  0  0  0  0  0  0  0  0  0  0
   45.2377   13.1761  -14.2317 N   0  0  0  0  0  0  0  0  0  0  0  0
   45.3295   13.3094  -12.9444 O   0  0  0  0  0  0  0  0  0  0  0  0
   44.1043   13.4118  -12.4776 C   0  0  0  0  0  0  0  0  0  0  0  0
   43.7999   13.5809  -11.0342 C   0  0  0  0  0  0  0  0  0  0  0  0
   43.2361   13.3394  -13.4988 N   0  0  0  0  0  0  0  0  0  0  0  0
 16 17  1  0  0  0
 17 18  1  0  0  0
 18 19  2  0  0  0
 18  1  1  0  0  0
  1  2  2  0  0  0
  2  3  1  0  0  0
  3  4  2  0  0  0
  4  5  1  0  0  0
  5  6  2  0  0  0
  6  7  1  0  0  0
  7 26  1  0  0  0
 26 27  3  0  0  0
 28 27  1  0  0  0
 28 29  1  0  0  0
 28 30  1  0  0  0
 28 32  1  0  0  0
 32 33  2  0  0  0
 33 34  1  0  0  0
 34 35  1  0  0  0
 35 36  1  0  0  0
 35 37  2  0  0  0
  7  8  2  0  0  0
  8  9  1  0  0  0
  8 10  1  0  0  0
 10 11  2  0  0  0
 11 12  1  0  0  0
 12 13  1  0  0  0
 13 14  1  0  0  0
 14 15  1  0  0  0
  2 21  1  0  0  0
 21 22  1  0  0  0
 21 23  2  0  0  0
 15  1  1  0  0  0
 15  4  1  0  0  0
 11  5  1  0  0  0
 37 32  1  0  0  0
 17 20  1  0  0  0
 30 31  1  0  0  0
 22 24  1  0  0  0
 22 25  1  0  0  0
M  END
> <minimizedAffinity>
-10.32450

> <CNNscore>
0.2860676944

> <CNNaffinity>
6.8305292130

> <CNN_VS>
1.9539937973

> <CNNaffinity_variance>
0.0686077476

$$$$
[H]O[C@](C#Cc1c([H])c2c(c([H])c1F)OC([H])([H])C([H])([H])n1c-2nc(C(=O)N([H])[H])c1C(=O)N([H])C([H])([H])[H])(c1noc(C([H])([H])[H])n1)C([H])([H])[H]


 37 40  0  0  0  0  0  0  0  0999 V2000
   35.4427   14.3418  -12.4850 C   0  0  0  0  0  0  0  0  0  0  0  0
   36.6752   14.4112  -11.8770 C   0  0  0  0  0  0  0  0  0  0  0  0
   37.6202   13.8155  -12.7169 N   0  0  0  0  0  0  0  0  0  0  0  0
   36.9681   13.4076  -13.7734 C   0  0  0  0  0  0  0  0  0  0  0  0
   37.6754   12.7142  -14.8879 C   0  0  0  0  0  0  0  0  0  0  0  0
   39.0227   12.9716  -14.9249 C   0  0  0  0  0  0  0  0  0  0  0  0
   39.8148   12.4001  -15.8853 C   0  0  0  0  0  0  0  0  0  0  0  0
   39.1713   11.5579  -16.8015 C   0  0  0  0  0  0  0  0  0  0  0  0
   39.9471   10.9840  -17.7606 F   0  0  0  0  0  0  0  0  0  0  0  0
   37.8190   11.2997  -16.7644 C   0  0  0  0  0  0  0  0  0  0  0  0
   37.0454   11.8811  -15.7979 C   0  0  0  0  0  0  0  0  0  0  0  0
   35.6915   11.5897  -15.8091 O   0  0  0  0  0  0  0  0  0  0  0  0
   34.6305   12.4880  -15.6728 C   0  0  0  0  0  0  0  0  0  0  0  0
   34.5571   13.4181  -14.5509 C   0  0  0  0  0  0  0  0  0  0  0  0
   35.6602   13.6898  -13.6958 N   0  0  0  0  0  0  0  0  0  0  0  0
   31.7752   15.2918  -11.5196 C   0  0  0  0  0  0  0  0  0  0  0  0
   32.8727   14.5318  -12.1917 N   0  0  0  0  0  0  0  0  0  0  0  0
   34.1987   14.8816  -11.9846 C   0  0  0  0  0  0  0  0  0  0  0  0
   34.3063   15.8994  -11.1867 O   0  0  0  0  0  0  0  0  0  0  0  0
   32.5260   13.7843  -12.7982 H   0  0  0  0  0  0  0  0  0  0  0  0
   37.1062   14.8781  -10.5759 C   0  0  0  0  0  0  0  0  0  0  0  0
   36.5303   14.7216   -9.3110 N   0  0  0  0  0  0  0  0  0  0  0  0
   38.2278   15.5623  -10.5283 O   0  0  0  0  0  0  0  0  0  0  0  0
   36.1754   15.5516   -8.7508 H   0  0  0  0  0  0  0  0  0  0  0  0
   36.4263   13.7735   -8.8355 H   0  0  0  0  0  0  0  0  0  0  0  0
   41.2337   12.6461  -15.9835 C   0  0  0  0  0  0  0  0  0  0  0  0
   42.4248   12.8310  -16.0436 C   0  0  0  0  0  0  0  0  0  0  0  0
   43.8932   13.0333  -16.0938 C   0  0  0  0  0  0  0  0  0  0  0  0
   44.4744   11.8294  -16.7916 C   0  0  0  0  0  0  0  0  0  0  0  0
   44.1938   14.2146  -16.7654 O   0  0  0  0  0  0  0  0  0  0  0  0
   44.3513   14.9229  -16.1075 H   0  0  0  0  0  0  0  0  0  0  0  0
   44.4585   13.0567  -14.7140 C   0  0  0  0  0  0  0  0  0  0  0  0
   43.8438   13.5718  -13.6403 N   0  0  0  0  0  0  0  0  0  0  0  0
   44.5909   13.4369  -12.5882 O   0  0  0  0  0  0  0  0  0  0  0  0
   45.6945   12.8334  -12.9721 C   0  0  0  0  0  0  0  0  0  0  0  0
   46.8011   12.5007  -12.0396 C   0  0  0  0  0  0  0  0  0  0  0  0
   45.6284   12.5907  -14.2906 N   0  0  0  0  0  0  0  0  0  0  0  0
 16 17  1  0  0  0
 17 18  1  0  0  0
 18 19  2  0  0  0
 18  1  1  0  0  0
  1  2  2  0  0  0
  2  3  1  0  0  0
  3  4  2  0  0  0
  4  5  1  0  0  0
  5  6  2  0  0  0
  6  7  1  0  0  0
  7 26  1  0  0  0
 26 27  3  0  0  0
 28 27  1  0  0  0
 28 29  1  0  0  0
 28 30  1  0  0  0
 28 32  1  0  0  0
 32 33  2  0  0  0
 33 34  1  0  0  0
 34 35  1  0  0  0
 35 36  1  0  0  0
 35 37  2  0  0  0
  7  8  2  0  0  0
  8  9  1  0  0  0
  8 10  1  0  0  0
 10 11  2  0  0  0
 11 12  1  0  0  0
 12 13  1  0  0  0
 13 14  1  0  0  0
 14 15  1  0  0  0
  2 21  1  0  0  0
 21 22  1  0  0  0
 21 23  2  0  0  0
 15  1  1  0  0  0
 15  4  1  0  0  0
 11  5  1  0  0  0
 37 32  1  0  0  0
 17 20  1  0  0  0
 30 31  1  0  0  0
 22 24  1  0  0  0
 22 25  1  0  0  0
M  END
> <minimizedAffinity>
-9.98762

> <CNNscore>
0.2550453842

> <CNNaffinity>
6.5665693283

> <CNN_VS>
1.6747732162

> <CNNaffinity_variance>
0.1049710363

$$$$
[H]O[C@](C#Cc1c([H])c2c(c([H])c1F)OC([H])([H])C([H])([H])n1c-2nc(C(=O)N([H])[H])c1C(=O)N([H])C([H])([H])[H])(c1noc(C([H])([H])[H])n1)C([H])([H])[H]


 37 40  0  0  0  0  0  0  0  0999 V2000
   33.4229   14.9285  -11.8810 C   0  0  0  0  0  0  0  0  0  0  0  0
   34.3094   15.3856  -10.9329 C   0  0  0  0  0  0  0  0  0  0  0  0
   35.6076   15.0908  -11.3585 N   0  0  0  0  0  0  0  0  0  0  0  0
   35.4882   14.4801  -12.5078 C   0  0  0  0  0  0  0  0  0  0  0  0
   36.6917   14.0136  -13.2543 C   0  0  0  0  0  0  0  0  0  0  0  0
   37.8432   14.6710  -12.9014 C   0  0  0  0  0  0  0  0  0  0  0  0
   39.0372   14.3498  -13.4910 C   0  0  0  0  0  0  0  0  0  0  0  0
   39.0015   13.3316  -14.4526 C   0  0  0  0  0  0  0  0  0  0  0  0
   40.1810   13.0030  -15.0459 F   0  0  0  0  0  0  0  0  0  0  0  0
   37.8456   12.6719  -14.8069 C   0  0  0  0  0  0  0  0  0  0  0  0
   36.6635   13.0083  -14.2069 C   0  0  0  0  0  0  0  0  0  0  0  0
   35.5316   12.3155  -14.6033 O   0  0  0  0  0  0  0  0  0  0  0  0
   34.2780   12.8477  -14.9137 C   0  0  0  0  0  0  0  0  0  0  0  0
   33.5754   13.7341  -13.9918 C   0  0  0  0  0  0  0  0  0  0  0  0
   34.2062   14.3492  -12.8756 N   0  0  0  0  0  0  0  0  0  0  0  0
   29.5276   14.6432  -12.0559 C   0  0  0  0  0  0  0  0  0  0  0  0
   30.9507   14.2035  -12.1802 N   0  0  0  0  0  0  0  0  0  0  0  0
   31.9846   15.0712  -11.8616 C   0  0  0  0  0  0  0  0  0  0  0  0
   31.5381   16.2294  -11.4829 O   0  0  0  0  0  0  0  0  0  0  0  0
   31.0427   13.2460  -12.5289 H   0  0  0  0  0  0  0  0  0  0  0  0
   34.1318   15.9897   -9.6291 C   0  0  0  0  0  0  0  0  0  0  0  0
   32.9757   16.4213   -8.9708 N   0  0  0  0  0  0  0  0  0  0  0  0
   35.2129   16.1750   -8.9043 O   0  0  0  0  0  0  0  0  0  0  0  0
   32.8188   17.4433   -8.7268 H   0  0  0  0  0  0  0  0  0  0  0  0
   32.1996   15.7566   -8.6680 H   0  0  0  0  0  0  0  0  0  0  0  0
   40.2768   15.0170  -13.1722 C   0  0  0  0  0  0  0  0  0  0  0  0
   41.3262   15.5476  -12.9005 C   0  0  0  0  0  0  0  0  0  0  0  0
   42.6302   16.1683  -12.5631 C   0  0  0  0  0  0  0  0  0  0  0  0
   43.7004   15.2325  -13.0663 C   0  0  0  0  0  0  0  0  0  0  0  0
   42.7293   17.4277  -13.1468 O   0  0  0  0  0  0  0  0  0  0  0  0
   42.4957   18.1062  -12.4800 H   0  0  0  0  0  0  0  0  0  0  0  0
   42.7894   16.2625  -11.0833 C   0  0  0  0  0  0  0  0  0  0  0  0
   41.7899   16.1694  -10.1954 N   0  0  0  0  0  0  0  0  0  0  0  0
   42.2502   16.2880   -8.9882 O   0  0  0  0  0  0  0  0  0  0  0  0
   43.5507   16.4586   -9.0848 C   0  0  0  0  0  0  0  0  0  0  0  0
   44.4341   16.6308   -7.9039 C   0  0  0  0  0  0  0  0  0  0  0  0
   43.9017   16.4458  -10.3803 N   0  0  0  0  0  0  0  0  0  0  0  0
 16 17  1  0  0  0
 17 18  1  0  0  0
 18 19  2  0  0  0
 18  1  1  0  0  0
  1  2  2  0  0  0
  2  3  1  0  0  0
  3  4  2  0  0  0
  4  5  1  0  0  0
  5  6  2  0  0  0
  6  7  1  0  0  0
  7 26  1  0  0  0
 26 27  3  0  0  0
 28 27  1  0  0  0
 28 29  1  0  0  0
 28 30  1  0  0  0
 28 32  1  0  0  0
 32 33  2  0  0  0
 33 34  1  0  0  0
 34 35  1  0  0  0
 35 36  1  0  0  0
 35 37  2  0  0  0
  7  8  2  0  0  0
  8  9  1  0  0  0
  8 10  1  0  0  0
 10 11  2  0  0  0
 11 12  1  0  0  0
 12 13  1  0  0  0
 13 14  1  0  0  0
 14 15  1  0  0  0
  2 21  1  0  0  0
 21 22  1  0  0  0
 21 23  2  0  0  0
 15  1  1  0  0  0
 15  4  1  0  0  0
 11  5  1  0  0  0
 37 32  1  0  0  0
 17 20  1  0  0  0
 30 31  1  0  0  0
 22 24  1  0  0  0
 22 25  1  0  0  0
M  END
> <minimizedAffinity>
-8.30993

> <CNNscore>
0.1974723190

> <CNNaffinity>
6.2445421219

> <CNN_VS>
1.2331242561

> <CNNaffinity_variance>
0.1763559133

$$$$
[H]O[C@](C#Cc1c([H])c2c(c([H])c1F)OC([H])([H])C([H])([H])n1c-2nc(C(=O)N([H])[H])c1C(=O)N([H])C([H])([H])[H])(c1noc(C([H])([H])[H])n1)C([H])([H])[H]


 37 40  0  0  0  0  0  0  0  0999 V2000
   35.2161   14.3053  -12.4171 C   0  0  0  0  0  0  0  0  0  0  0  0
   36.4063   14.4389  -11.7394 C   0  0  0  0  0  0  0  0  0  0  0  0
   37.4298   13.9055  -12.5277 N   0  0  0  0  0  0  0  0  0  0  0  0
   36.8628   13.4709  -13.6221 C   0  0  0  0  0  0  0  0  0  0  0  0
   37.6704   12.8290  -14.6986 C   0  0  0  0  0  0  0  0  0  0  0  0
   39.0007   13.1627  -14.6572 C   0  0  0  0  0  0  0  0  0  0  0  0
   39.8772   12.6458  -15.5742 C   0  0  0  0  0  0  0  0  0  0  0  0
   39.3357   11.7770  -16.5306 C   0  0  0  0  0  0  0  0  0  0  0  0
   40.1960   11.2568  -17.4474 F   0  0  0  0  0  0  0  0  0  0  0  0
   38.0004   11.4422  -16.5721 C   0  0  0  0  0  0  0  0  0  0  0  0
   37.1415   11.9699  -15.6478 C   0  0  0  0  0  0  0  0  0  0  0  0
   35.8092   11.6024  -15.7380 O   0  0  0  0  0  0  0  0  0  0  0  0
   34.6926   12.4378  -15.6570 C   0  0  0  0  0  0  0  0  0  0  0  0
   34.5029   13.3520  -14.5356 C   0  0  0  0  0  0  0  0  0  0  0  0
   35.5387   13.6779  -13.6174 N   0  0  0  0  0  0  0  0  0  0  0  0
   31.4625   14.9609  -11.5422 C   0  0  0  0  0  0  0  0  0  0  0  0
   32.6423   14.2359  -12.1045 N   0  0  0  0  0  0  0  0  0  0  0  0
   33.9171   14.7692  -11.9851 C   0  0  0  0  0  0  0  0  0  0  0  0
   33.9029   15.9098  -11.3663 O   0  0  0  0  0  0  0  0  0  0  0  0
   32.3870   13.3632  -12.5735 H   0  0  0  0  0  0  0  0  0  0  0  0
   36.7357   14.9176  -10.4132 C   0  0  0  0  0  0  0  0  0  0  0  0
   37.4914   16.0196  -10.0000 N   0  0  0  0  0  0  0  0  0  0  0  0
   36.2576   14.2355   -9.3961 O   0  0  0  0  0  0  0  0  0  0  0  0
   38.3976   15.9053   -9.4574 H   0  0  0  0  0  0  0  0  0  0  0  0
   37.1997   17.0264  -10.1921 H   0  0  0  0  0  0  0  0  0  0  0  0
   41.2830   12.9727  -15.5900 C   0  0  0  0  0  0  0  0  0  0  0  0
   42.4627   13.2251  -15.6252 C   0  0  0  0  0  0  0  0  0  0  0  0
   43.9160   13.5126  -15.6945 C   0  0  0  0  0  0  0  0  0  0  0  0
   44.6293   12.1993  -15.4929 C   0  0  0  0  0  0  0  0  0  0  0  0
   44.2346   14.0905  -16.9197 O   0  0  0  0  0  0  0  0  0  0  0  0
   44.2825   15.0627  -16.8097 H   0  0  0  0  0  0  0  0  0  0  0  0
   44.3190   14.4082  -14.5722 C   0  0  0  0  0  0  0  0  0  0  0  0
   45.1528   15.4516  -14.6829 N   0  0  0  0  0  0  0  0  0  0  0  0
   45.3006   16.0316  -13.5319 O   0  0  0  0  0  0  0  0  0  0  0  0
   44.5639   15.3688  -12.6672 C   0  0  0  0  0  0  0  0  0  0  0  0
   44.4721   15.7379  -11.2319 C   0  0  0  0  0  0  0  0  0  0  0  0
   43.9478   14.3565  -13.2976 N   0  0  0  0  0  0  0  0  0  0  0  0
 16 17  1  0  0  0
 17 18  1  0  0  0
 18 19  2  0  0  0
 18  1  1  0  0  0
  1  2  2  0  0  0
  2  3  1  0  0  0
  3  4  2  0  0  0
  4  5  1  0  0  0
  5  6  2  0  0  0
  6  7  1  0  0  0
  7 26  1  0  0  0
 26 27  3  0  0  0
 28 27  1  0  0  0
 28 29  1  0  0  0
 28 30  1  0  0  0
 28 32  1  0  0  0
 32 33  2  0  0  0
 33 34  1  0  0  0
 34 35  1  0  0  0
 35 36  1  0  0  0
 35 37  2  0  0  0
  7  8  2  0  0  0
  8  9  1  0  0  0
  8 10  1  0  0  0
 10 11  2  0  0  0
 11 12  1  0  0  0
 12 13  1  0  0  0
 13 14  1  0  0  0
 14 15  1  0  0  0
  2 21  1  0  0  0
 21 22  1  0  0  0
 21 23  2  0  0  0
 15  1  1  0  0  0
 15  4  1  0  0  0
 11  5  1  0  0  0
 37 32  1  0  0  0
 17 20  1  0  0  0
 30 31  1  0  0  0
 22 24  1  0  0  0
 22 25  1  0  0  0
M  END
> <minimizedAffinity>
-9.48243

> <CNNscore>
0.1935379803

> <CNNaffinity>
6.5605292320

> <CNN_VS>
1.2697116137

> <CNNaffinity_variance>
0.1038626581

$$$$
[H]O[C@](C#Cc1c([H])c2c(c([H])c1F)OC([H])([H])C([H])([H])n1c-2nc(C(=O)N([H])[H])c1C(=O)N([H])C([H])([H])[H])(c1noc(C([H])([H])[H])n1)C([H])([H])[H]


 37 40  0  0  0  0  0  0  0  0999 V2000
   38.4193   12.7176  -15.2382 C   0  0  0  0  0  0  0  0  0  0  0  0
   39.5482   12.5490  -16.0068 C   0  0  0  0  0  0  0  0  0  0  0  0
   40.6008   13.2500  -15.4117 N   0  0  0  0  0  0  0  0  0  0  0  0
   40.1085   13.8125  -14.3396 C   0  0  0  0  0  0  0  0  0  0  0  0
   40.9657   14.6521  -13.4546 C   0  0  0  0  0  0  0  0  0  0  0  0
   42.3064   14.3893  -13.5821 C   0  0  0  0  0  0  0  0  0  0  0  0
   43.2260   15.0853  -12.8430 C   0  0  0  0  0  0  0  0  0  0  0  0
   42.7162   16.0571  -11.9720 C   0  0  0  0  0  0  0  0  0  0  0  0
   43.6195   16.7555  -11.2320 F   0  0  0  0  0  0  0  0  0  0  0  0
   41.3706   16.3208  -11.8440 C   0  0  0  0  0  0  0  0  0  0  0  0
   40.4685   15.6140  -12.5905 C   0  0  0  0  0  0  0  0  0  0  0  0
   39.1280   15.9174  -12.4196 O   0  0  0  0  0  0  0  0  0  0  0  0
   38.0692   15.0196  -12.2655 C   0  0  0  0  0  0  0  0  0  0  0  0
   37.8404   13.9382  -13.2182 C   0  0  0  0  0  0  0  0  0  0  0  0
   38.8071   13.5350  -14.1800 N   0  0  0  0  0  0  0  0  0  0  0  0
   35.0170   11.2878  -16.5287 C   0  0  0  0  0  0  0  0  0  0  0  0
   36.3505   11.9583  -16.6059 N   0  0  0  0  0  0  0  0  0  0  0  0
   37.1210   12.1238  -15.4647 C   0  0  0  0  0  0  0  0  0  0  0  0
   36.5277   11.6477  -14.4132 O   0  0  0  0  0  0  0  0  0  0  0  0
   36.5843   12.2722  -17.5512 H   0  0  0  0  0  0  0  0  0  0  0  0
   39.7861   11.8951  -17.2765 C   0  0  0  0  0  0  0  0  0  0  0  0
   40.6227   12.2431  -18.3420 N   0  0  0  0  0  0  0  0  0  0  0  0
   39.1318   10.7779  -17.5050 O   0  0  0  0  0  0  0  0  0  0  0  0
   40.2358   12.4896  -19.3002 H   0  0  0  0  0  0  0  0  0  0  0  0
   41.6850   12.2688  -18.2595 H   0  0  0  0  0  0  0  0  0  0  0  0
   44.6464   14.8418  -12.9229 C   0  0  0  0  0  0  0  0  0  0  0  0
   45.8377   14.6655  -13.0034 C   0  0  0  0  0  0  0  0  0  0  0  0
   47.3049   14.4806  -13.1158 C   0  0  0  0  0  0  0  0  0  0  0  0
   47.7252   13.6196  -11.9512 C   0  0  0  0  0  0  0  0  0  0  0  0
   47.6238   13.8910  -14.3354 O   0  0  0  0  0  0  0  0  0  0  0  0
   47.8964   14.5903  -14.9648 H   0  0  0  0  0  0  0  0  0  0  0  0
   48.0030   15.7901  -12.9684 C   0  0  0  0  0  0  0  0  0  0  0  0
   48.9569   16.0551  -12.0652 N   0  0  0  0  0  0  0  0  0  0  0  0
   49.3674   17.2793  -12.1926 O   0  0  0  0  0  0  0  0  0  0  0  0
   48.6831   17.8162  -13.1790 C   0  0  0  0  0  0  0  0  0  0  0  0
   48.8752   19.2185  -13.6277 C   0  0  0  0  0  0  0  0  0  0  0  0
   47.8303   16.9040  -13.6715 N   0  0  0  0  0  0  0  0  0  0  0  0
 16 17  1  0  0  0
 17 18  1  0  0  0
 18 19  2  0  0  0
 18  1  1  0  0  0
  1  2  2  0  0  0
  2  3  1  0  0  0
  3  4  2  0  0  0
  4  5  1  0  0  0
  5  6  2  0  0  0
  6  7  1  0  0  0
  7 26  1  0  0  0
 26 27  3  0  0  0
 28 27  1  0  0  0
 28 29  1  0  0  0
 28 30  1  0  0  0
 28 32  1  0  0  0
 32 33  2  0  0  0
 33 34  1  0  0  0
 34 35  1  0  0  0
 35 36  1  0  0  0
 35 37  2  0  0  0
  7  8  2  0  0  0
  8  9  1  0  0  0
  8 10  1  0  0  0
 10 11  2  0  0  0
 11 12  1  0  0  0
 12 13  1  0  0  0
 13 14  1  0  0  0
 14 15  1  0  0  0
  2 21  1  0  0  0
 21 22  1  0  0  0
 21 23  2  0  0  0
 15  1  1  0  0  0
 15  4  1  0  0  0
 11  5  1  0  0  0
 37 32  1  0  0  0
 17 20  1  0  0  0
 30 31  1  0  0  0
 22 24  1  0  0  0
 22 25  1  0  0  0
M  END
> <minimizedAffinity>
-7.58978

> <CNNscore>
0.1812547594

> <CNNaffinity>
6.2303805351

> <CNN_VS>
1.1292861700

> <CNNaffinity_variance>
0.0950055271

$$$$
[H]O[C@]1(C#Cc2c([H])c([H])c3c(c2[H])-c2nc(C(=O)N([H])[H])c(C([H])([H])n4c(C([H])([H])[H])nc5c([H])c([H])c([H])c([H])c54)n2C([H])([H])C([H])([H])O3)C(=O)N(C([H])([H])[H])C([H])([H])C1([H])[H]


 41 46  0  0  0  0  0  0  0  0999 V2000
   38.1728   15.9189   -6.3005 C   0  0  0  0  0  0  0  0  0  0  0  0
   38.6371   16.1467   -5.0260 C   0  0  0  0  0  0  0  0  0  0  0  0
   40.0023   16.3817   -4.8640 C   0  0  0  0  0  0  0  0  0  0  0  0
   40.8545   16.3864   -5.9378 C   0  0  0  0  0  0  0  0  0  0  0  0
   42.2088   16.6439   -5.6169 O   0  0  0  0  0  0  0  0  0  0  0  0
   43.1193   17.2742   -6.5512 C   0  0  0  0  0  0  0  0  0  0  0  0
   43.4766   16.3384   -7.6857 C   0  0  0  0  0  0  0  0  0  0  0  0
   42.4786   16.1798   -8.7056 N   0  0  0  0  0  0  0  0  0  0  0  0
   42.7210   16.0787  -10.0464 C   0  0  0  0  0  0  0  0  0  0  0  0
   41.4800   15.9539  -10.6496 C   0  0  0  0  0  0  0  0  0  0  0  0
   40.5453   15.9770   -9.6611 N   0  0  0  0  0  0  0  0  0  0  0  0
   41.1344   16.1145   -8.4688 C   0  0  0  0  0  0  0  0  0  0  0  0
   40.3927   16.1584   -7.2061 C   0  0  0  0  0  0  0  0  0  0  0  0
   39.0462   15.9240   -7.3861 C   0  0  0  0  0  0  0  0  0  0  0  0
   41.0758   15.9285  -12.0635 C   0  0  0  0  0  0  0  0  0  0  0  0
   40.2882   14.9725  -12.7013 N   0  0  0  0  0  0  0  0  0  0  0  0
   41.5001   16.8912  -12.7920 O   0  0  0  0  0  0  0  0  0  0  0  0
   40.5958   13.9760  -12.7852 H   0  0  0  0  0  0  0  0  0  0  0  0
   39.3578   15.2834  -13.1031 H   0  0  0  0  0  0  0  0  0  0  0  0
   35.6177   15.4817   -6.7437 C   0  0  0  0  0  0  0  0  0  0  0  0
   36.7803   15.6874   -6.5564 C   0  0  0  0  0  0  0  0  0  0  0  0
   33.6179   15.9369   -3.3609 C   0  0  0  0  0  0  0  0  0  0  0  0
   33.6400   15.9147   -4.8159 N   0  0  0  0  0  0  0  0  0  0  0  0
   33.7079   17.1001   -5.6335 C   0  0  0  0  0  0  0  0  0  0  0  0
   33.4524   16.5606   -7.0415 C   0  0  0  0  0  0  0  0  0  0  0  0
   34.1954   15.2203   -6.9422 C   0  0  0  0  0  0  0  0  0  0  0  0
   33.9424   14.3838   -7.9951 O   0  0  0  0  0  0  0  0  0  0  0  0
   33.6016   14.7357   -5.6431 C   0  0  0  0  0  0  0  0  0  0  0  0
   33.1748   13.6233   -5.3172 O   0  0  0  0  0  0  0  0  0  0  0  0
   33.6636   14.9417   -8.7655 H   0  0  0  0  0  0  0  0  0  0  0  0
   43.9999   15.9940  -10.7346 C   0  0  0  0  0  0  0  0  0  0  0  0
   44.5240   14.7249  -11.1512 N   0  0  0  0  0  0  0  0  0  0  0  0
   44.7532   13.6051  -10.4972 C   0  0  0  0  0  0  0  0  0  0  0  0
   44.6851   13.3026   -9.0330 C   0  0  0  0  0  0  0  0  0  0  0  0
   45.1140   12.6255  -11.3824 N   0  0  0  0  0  0  0  0  0  0  0  0
   45.1156   13.1178  -12.6174 C   0  0  0  0  0  0  0  0  0  0  0  0
   45.3657   12.5512  -13.8552 C   0  0  0  0  0  0  0  0  0  0  0  0
   45.2439   13.3088  -14.9890 C   0  0  0  0  0  0  0  0  0  0  0  0
   44.8705   14.6300  -14.8736 C   0  0  0  0  0  0  0  0  0  0  0  0
   44.6304   15.1663  -13.6410 C   0  0  0  0  0  0  0  0  0  0  0  0
   44.7443   14.4395  -12.4827 C   0  0  0  0  0  0  0  0  0  0  0  0
 22 23  1  0  0  0
 23 24  1  0  0  0
 24 25  1  0  0  0
 25 26  1  0  0  0
 26 27  1  0  0  0
 26 20  1  0  0  0
 20 21  3  0  0  0
 21  1  1  0  0  0
  1  2  2  0  0  0
  2  3  1  0  0  0
  3  4  2  0  0  0
  4  5  1  0  0  0
  5  6  1  0  0  0
  6  7  1  0  0  0
  7  8  1  0  0  0
  8  9  1  0  0  0
  9 31  1  0  0  0
 31 32  1  0  0  0
 32 33  1  0  0  0
 33 34  1  0  0  0
 33 35  2  0  0  0
 35 36  1  0  0  0
 36 37  2  0  0  0
 37 38  1  0  0  0
 38 39  2  0  0  0
 39 40  1  0  0  0
 40 41  2  0  0  0
  9 10  2  0  0  0
 10 11  1  0  0  0
 11 12  2  0  0  0
 12 13  1  0  0  0
 13 14  2  0  0  0
 10 15  1  0  0  0
 15 16  1  0  0  0
 15 17  2  0  0  0
 26 28  1  0  0  0
 28 29  2  0  0  0
 28 23  1  0  0  0
 14  1  1  0  0  0
 13  4  1  0  0  0
 12  8  1  0  0  0
 41 32  1  0  0  0
 41 36  1  0  0  0
 27 30  1  0  0  0
 16 18  1  0  0  0
 16 19  1  0  0  0
M  END
> <minimizedAffinity>
-6.84940

> <CNNscore>
0.1508241594

> <CNNaffinity>
5.8634705544

> <CNN_VS>
0.8843530416

> <CNNaffinity_variance>
0.1289206594

$$$$
[H]O[C@]1(C#Cc2c([H])c([H])c3c(c2[H])-c2nc(C(=O)N([H])[H])c(C([H])([H])n4c(C([H])([H])[H])nc5c([H])c([H])c([H])c([H])c54)n2C([H])([H])C([H])([H])O3)C(=O)N(C([H])([H])[H])C([H])([H])C1([H])[H]


 41 46  0  0  0  0  0  0  0  0999 V2000
   39.2482   12.2355  -16.3342 C   0  0  0  0  0  0  0  0  0  0  0  0
   39.5411   11.5997  -17.5183 C   0  0  0  0  0  0  0  0  0  0  0  0
   40.8792   11.5317  -17.9057 C   0  0  0  0  0  0  0  0  0  0  0  0
   41.8708   12.0790  -17.1334 C   0  0  0  0  0  0  0  0  0  0  0  0
   43.1782   11.9265  -17.6543 O   0  0  0  0  0  0  0  0  0  0  0  0
   44.3480   11.8606  -16.8021 C   0  0  0  0  0  0  0  0  0  0  0  0
   44.6571   13.2091  -16.1885 C   0  0  0  0  0  0  0  0  0  0  0  0
   43.8272   13.6006  -15.0843 N   0  0  0  0  0  0  0  0  0  0  0  0
   44.2523   14.2553  -13.9630 C   0  0  0  0  0  0  0  0  0  0  0  0
   43.1299   14.4155  -13.1668 C   0  0  0  0  0  0  0  0  0  0  0  0
   42.0792   13.8639  -13.8324 N   0  0  0  0  0  0  0  0  0  0  0  0
   42.4842   13.3614  -15.0033 C   0  0  0  0  0  0  0  0  0  0  0  0
   41.5793   12.7128  -15.9557 C   0  0  0  0  0  0  0  0  0  0  0  0
   40.2623   12.7902  -15.5562 C   0  0  0  0  0  0  0  0  0  0  0  0
   42.9640   14.9316  -11.7995 C   0  0  0  0  0  0  0  0  0  0  0  0
   43.0139   14.2078  -10.6101 N   0  0  0  0  0  0  0  0  0  0  0  0
   42.7436   16.1873  -11.6903 O   0  0  0  0  0  0  0  0  0  0  0  0
   42.3186   13.4558  -10.3963 H   0  0  0  0  0  0  0  0  0  0  0  0
   43.7839   14.4399   -9.9195 H   0  0  0  0  0  0  0  0  0  0  0  0
   36.7862   12.4119  -15.4270 C   0  0  0  0  0  0  0  0  0  0  0  0
   37.8999   12.3330  -15.8542 C   0  0  0  0  0  0  0  0  0  0  0  0
   36.8567   14.0209  -11.8137 C   0  0  0  0  0  0  0  0  0  0  0  0
   36.1373   13.7179  -13.0420 N   0  0  0  0  0  0  0  0  0  0  0  0
   35.9489   14.6640  -14.1133 C   0  0  0  0  0  0  0  0  0  0  0  0
   34.9440   13.9561  -15.0231 C   0  0  0  0  0  0  0  0  0  0  0  0
   35.4380   12.5095  -14.8757 C   0  0  0  0  0  0  0  0  0  0  0  0
   34.5729   11.5879  -15.3994 O   0  0  0  0  0  0  0  0  0  0  0  0
   35.5207   12.4580  -13.3705 C   0  0  0  0  0  0  0  0  0  0  0  0
   35.1654   11.5839  -12.5732 O   0  0  0  0  0  0  0  0  0  0  0  0
   34.0248   12.0434  -16.0882 H   0  0  0  0  0  0  0  0  0  0  0  0
   45.5705   14.7977  -13.6726 C   0  0  0  0  0  0  0  0  0  0  0  0
   46.2540   14.4500  -12.4598 N   0  0  0  0  0  0  0  0  0  0  0  0
   46.8262   13.3349  -12.0558 C   0  0  0  0  0  0  0  0  0  0  0  0
   46.8366   11.9696  -12.6689 C   0  0  0  0  0  0  0  0  0  0  0  0
   47.4815   13.5601  -10.8754 N   0  0  0  0  0  0  0  0  0  0  0  0
   47.3317   14.8315  -10.5168 C   0  0  0  0  0  0  0  0  0  0  0  0
   47.8125   15.5704   -9.4497 C   0  0  0  0  0  0  0  0  0  0  0  0
   47.5263   16.9062   -9.3613 C   0  0  0  0  0  0  0  0  0  0  0  0
   46.7604   17.4925  -10.3452 C   0  0  0  0  0  0  0  0  0  0  0  0
   46.2967   16.7421  -11.3874 C   0  0  0  0  0  0  0  0  0  0  0  0
   46.5608   15.4010  -11.5088 C   0  0  0  0  0  0  0  0  0  0  0  0
 22 23  1  0  0  0
 23 24  1  0  0  0
 24 25  1  0  0  0
 25 26  1  0  0  0
 26 27  1  0  0  0
 26 20  1  0  0  0
 20 21  3  0  0  0
 21  1  1  0  0  0
  1  2  2  0  0  0
  2  3  1  0  0  0
  3  4  2  0  0  0
  4  5  1  0  0  0
  5  6  1  0  0  0
  6  7  1  0  0  0
  7  8  1  0  0  0
  8  9  1  0  0  0
  9 31  1  0  0  0
 31 32  1  0  0  0
 32 33  1  0  0  0
 33 34  1  0  0  0
 33 35  2  0  0  0
 35 36  1  0  0  0
 36 37  2  0  0  0
 37 38  1  0  0  0
 38 39  2  0  0  0
 39 40  1  0  0  0
 40 41  2  0  0  0
  9 10  2  0  0  0
 10 11  1  0  0  0
 11 12  2  0  0  0
 12 13  1  0  0  0
 13 14  2  0  0  0
 10 15  1  0  0  0
 15 16  1  0  0  0
 15 17  2  0  0  0
 26 28  1  0  0  0
 28 29  2  0  0  0
 28 23  1  0  0  0
 14  1  1  0  0  0
 13  4  1  0  0  0
 12  8  1  0  0  0
 41 32  1  0  0  0
 41 36  1  0  0  0
 27 30  1  0  0  0
 16 18  1  0  0  0
 16 19  1  0  0  0
M  END
> <minimizedAffinity>
-8.94566

> <CNNscore>
0.1423202604

> <CNNaffinity>
6.6495270729

> <CNN_VS>
0.9463624358

> <CNNaffinity_variance>
0.0707037747

$$$$
[H]O[C@]1(C#Cc2c([H])c([H])c3c(c2[H])-c2nc(C(=O)N([H])[H])c(C([H])([H])n4c(C([H])([H])[H])nc5c([H])c([H])c([H])c([H])c54)n2C([H])([H])C([H])([H])O3)C(=O)N(C([H])([H])[H])C([H])([H])C1([H])[H]


 41 46  0  0  0  0  0  0  0  0999 V2000
   39.3049   12.2570  -16.3073 C   0  0  0  0  0  0  0  0  0  0  0  0
   39.6062   11.6388  -17.4985 C   0  0  0  0  0  0  0  0  0  0  0  0
   40.9468   11.5799  -17.8791 C   0  0  0  0  0  0  0  0  0  0  0  0
   41.9324   12.1190  -17.0935 C   0  0  0  0  0  0  0  0  0  0  0  0
   43.2431   11.9774  -17.6089 O   0  0  0  0  0  0  0  0  0  0  0  0
   44.4082   11.9027  -16.7510 C   0  0  0  0  0  0  0  0  0  0  0  0
   44.7100   13.2433  -16.1168 C   0  0  0  0  0  0  0  0  0  0  0  0
   43.8727   13.6170  -15.0120 N   0  0  0  0  0  0  0  0  0  0  0  0
   44.2896   14.2571  -13.8793 C   0  0  0  0  0  0  0  0  0  0  0  0
   43.1622   14.4030  -13.0873 C   0  0  0  0  0  0  0  0  0  0  0  0
   42.1169   13.8579  -13.7667 N   0  0  0  0  0  0  0  0  0  0  0  0
   42.5300   13.3730  -14.9422 C   0  0  0  0  0  0  0  0  0  0  0  0
   41.6324   12.7354  -15.9087 C   0  0  0  0  0  0  0  0  0  0  0  0
   40.3128   12.8036  -15.5158 C   0  0  0  0  0  0  0  0  0  0  0  0
   42.9870   14.8994  -11.7139 C   0  0  0  0  0  0  0  0  0  0  0  0
   43.0519   14.1626  -10.5333 N   0  0  0  0  0  0  0  0  0  0  0  0
   42.7420   16.1492  -11.5896 O   0  0  0  0  0  0  0  0  0  0  0  0
   42.3717   13.3947  -10.3281 H   0  0  0  0  0  0  0  0  0  0  0  0
   43.8177   14.4016   -9.8402 H   0  0  0  0  0  0  0  0  0  0  0  0
   36.8371   12.4296  -15.4150 C   0  0  0  0  0  0  0  0  0  0  0  0
   37.9535   12.3441  -15.8337 C   0  0  0  0  0  0  0  0  0  0  0  0
   36.8961   14.0244  -11.7952 C   0  0  0  0  0  0  0  0  0  0  0  0
   36.1855   13.7397  -13.0330 N   0  0  0  0  0  0  0  0  0  0  0  0
   36.0281   14.6930  -14.1029 C   0  0  0  0  0  0  0  0  0  0  0  0
   35.0205   14.0079  -15.0271 C   0  0  0  0  0  0  0  0  0  0  0  0
   35.4846   12.5515  -14.8792 C   0  0  0  0  0  0  0  0  0  0  0  0
   34.6081   11.6487  -15.4164 O   0  0  0  0  0  0  0  0  0  0  0  0
   35.5485   12.4931  -13.3733 C   0  0  0  0  0  0  0  0  0  0  0  0
   35.1669   11.6234  -12.5835 O   0  0  0  0  0  0  0  0  0  0  0  0
   34.0771   12.1172  -16.1100 H   0  0  0  0  0  0  0  0  0  0  0  0
   45.6046   14.7990  -13.5736 C   0  0  0  0  0  0  0  0  0  0  0  0
   46.2431   14.5080  -12.3221 N   0  0  0  0  0  0  0  0  0  0  0  0
   46.4882   15.2487  -11.2612 C   0  0  0  0  0  0  0  0  0  0  0  0
   46.3163   16.7191  -11.0408 C   0  0  0  0  0  0  0  0  0  0  0  0
   46.9852   14.4600  -10.2591 N   0  0  0  0  0  0  0  0  0  0  0  0
   47.0594   13.2001  -10.6772 C   0  0  0  0  0  0  0  0  0  0  0  0
   47.4495   12.0253  -10.0580 C   0  0  0  0  0  0  0  0  0  0  0  0
   47.3751   10.8393  -10.7376 C   0  0  0  0  0  0  0  0  0  0  0  0
   46.9086   10.8394  -12.0340 C   0  0  0  0  0  0  0  0  0  0  0  0
   46.5309   12.0117  -12.6235 C   0  0  0  0  0  0  0  0  0  0  0  0
   46.5933   13.2196  -11.9753 C   0  0  0  0  0  0  0  0  0  0  0  0
 22 23  1  0  0  0
 23 24  1  0  0  0
 24 25  1  0  0  0
 25 26  1  0  0  0
 26 27  1  0  0  0
 26 20  1  0  0  0
 20 21  3  0  0  0
 21  1  1  0  0  0
  1  2  2  0  0  0
  2  3  1  0  0  0
  3  4  2  0  0  0
  4  5  1  0  0  0
  5  6  1  0  0  0
  6  7  1  0  0  0
  7  8  1  0  0  0
  8  9  1  0  0  0
  9 31  1  0  0  0
 31 32  1  0  0  0
 32 33  1  0  0  0
 33 34  1  0  0  0
 33 35  2  0  0  0
 35 36  1  0  0  0
 36 37  2  0  0  0
 37 38  1  0  0  0
 38 39  2  0  0  0
 39 40  1  0  0  0
 40 41  2  0  0  0
  9 10  2  0  0  0
 10 11  1  0  0  0
 11 12  2  0  0  0
 12 13  1  0  0  0
 13 14  2  0  0  0
 10 15  1  0  0  0
 15 16  1  0  0  0
 15 17  2  0  0  0
 26 28  1  0  0  0
 28 29  2  0  0  0
 28 23  1  0  0  0
 14  1  1  0  0  0
 13  4  1  0  0  0
 12  8  1  0  0  0
 41 32  1  0  0  0
 41 36  1  0  0  0
 27 30  1  0  0  0
 16 18  1  0  0  0
 16 19  1  0  0  0
M  END
> <minimizedAffinity>
-9.26006

> <CNNscore>
0.1393574476

> <CNNaffinity>
6.6394753456

> <CNN_VS>
0.9252603650

> <CNNaffinity_variance>
0.1114996523

$$$$
[H]O[C@]1(C#Cc2c([H])c([H])c3c(c2[H])-c2nc(C(=O)N([H])[H])c(C([H])([H])n4c(C([H])([H])[H])nc5c([H])c([H])c([H])c([H])c54)n2C([H])([H])C([H])([H])O3)C(=O)N(C([H])([H])[H])C([H])([H])C1([H])[H]


 41 46  0  0  0  0  0  0  0  0999 V2000
   39.3906   12.2740  -16.2451 C   0  0  0  0  0  0  0  0  0  0  0  0
   39.7718   11.6716  -17.4214 C   0  0  0  0  0  0  0  0  0  0  0  0
   41.1310   11.6580  -17.7338 C   0  0  0  0  0  0  0  0  0  0  0  0
   42.0577   12.2249  -16.8976 C   0  0  0  0  0  0  0  0  0  0  0  0
   43.3966   12.1284  -17.3464 O   0  0  0  0  0  0  0  0  0  0  0  0
   44.5187   12.0874  -16.4308 C   0  0  0  0  0  0  0  0  0  0  0  0
   44.7442   13.4340  -15.7779 C   0  0  0  0  0  0  0  0  0  0  0  0
   43.8404   13.7750  -14.7158 N   0  0  0  0  0  0  0  0  0  0  0  0
   44.1784   14.4228  -13.5613 C   0  0  0  0  0  0  0  0  0  0  0  0
   43.0083   14.5283  -12.8270 C   0  0  0  0  0  0  0  0  0  0  0  0
   42.0170   13.9530  -13.5602 N   0  0  0  0  0  0  0  0  0  0  0  0
   42.5046   13.4873  -14.7148 C   0  0  0  0  0  0  0  0  0  0  0  0
   41.6782   12.8257  -15.7276 C   0  0  0  0  0  0  0  0  0  0  0  0
   40.3390   12.8491  -15.4018 C   0  0  0  0  0  0  0  0  0  0  0  0
   42.7479   15.0122  -11.4627 C   0  0  0  0  0  0  0  0  0  0  0  0
   43.0697   14.3785  -10.2645 N   0  0  0  0  0  0  0  0  0  0  0  0
   42.1535   16.1412  -11.3653 O   0  0  0  0  0  0  0  0  0  0  0  0
   42.6517   13.4558  -10.0026 H   0  0  0  0  0  0  0  0  0  0  0  0
   43.7580   14.8597   -9.6174 H   0  0  0  0  0  0  0  0  0  0  0  0
   36.8768   12.3607  -15.4776 C   0  0  0  0  0  0  0  0  0  0  0  0
   38.0149   12.3150  -15.8402 C   0  0  0  0  0  0  0  0  0  0  0  0
   36.6955   14.0001  -11.8819 C   0  0  0  0  0  0  0  0  0  0  0  0
   36.0577   13.6712  -13.1481 N   0  0  0  0  0  0  0  0  0  0  0  0
   35.9134   14.6042  -14.2376 C   0  0  0  0  0  0  0  0  0  0  0  0
   34.9805   13.8667  -15.1992 C   0  0  0  0  0  0  0  0  0  0  0  0
   35.4962   12.4328  -15.0089 C   0  0  0  0  0  0  0  0  0  0  0  0
   34.6843   11.4879  -15.5746 O   0  0  0  0  0  0  0  0  0  0  0  0
   35.4895   12.3953  -13.5010 C   0  0  0  0  0  0  0  0  0  0  0  0
   35.1061   11.5200  -12.7182 O   0  0  0  0  0  0  0  0  0  0  0  0
   34.1687   11.9255  -16.2993 H   0  0  0  0  0  0  0  0  0  0  0  0
   45.4580   15.0055  -13.1878 C   0  0  0  0  0  0  0  0  0  0  0  0
   45.9407   16.1898  -13.8385 N   0  0  0  0  0  0  0  0  0  0  0  0
   45.5728   17.4520  -13.7640 C   0  0  0  0  0  0  0  0  0  0  0  0
   44.4051   18.0856  -13.0747 C   0  0  0  0  0  0  0  0  0  0  0  0
   46.4546   18.2265  -14.4683 N   0  0  0  0  0  0  0  0  0  0  0  0
   47.3997   17.4569  -14.9995 C   0  0  0  0  0  0  0  0  0  0  0  0
   48.5251   17.7363  -15.7553 C   0  0  0  0  0  0  0  0  0  0  0  0
   49.3627   16.7210  -16.1319 C   0  0  0  0  0  0  0  0  0  0  0  0
   49.0664   15.4318  -15.7465 C   0  0  0  0  0  0  0  0  0  0  0  0
   47.9494   15.1816  -15.0020 C   0  0  0  0  0  0  0  0  0  0  0  0
   47.0856   16.1722  -14.6078 C   0  0  0  0  0  0  0  0  0  0  0  0
 22 23  1  0  0  0
 23 24  1  0  0  0
 24 25  1  0  0  0
 25 26  1  0  0  0
 26 27  1  0  0  0
 26 20  1  0  0  0
 20 21  3  0  0  0
 21  1  1  0  0  0
  1  2  2  0  0  0
  2  3  1  0  0  0
  3  4  2  0  0  0
  4  5  1  0  0  0
  5  6  1  0  0  0
  6  7  1  0  0  0
  7  8  1  0  0  0
  8  9  1  0  0  0
  9 31  1  0  0  0
 31 32  1  0  0  0
 32 33  1  0  0  0
 33 34  1  0  0  0
 33 35  2  0  0  0
 35 36  1  0  0  0
 36 37  2  0  0  0
 37 38  1  0  0  0
 38 39  2  0  0  0
 39 40  1  0  0  0
 40 41  2  0  0  0
  9 10  2  0  0  0
 10 11  1  0  0  0
 11 12  2  0  0  0
 12 13  1  0  0  0
 13 14  2  0  0  0
 10 15  1  0  0  0
 15 16  1  0  0  0
 15 17  2  0  0  0
 26 28  1  0  0  0
 28 29  2  0  0  0
 28 23  1  0  0  0
 14  1  1  0  0  0
 13  4  1  0  0  0
 12  8  1  0  0  0
 41 32  1  0  0  0
 41 36  1  0  0  0
 27 30  1  0  0  0
 16 18  1  0  0  0
 16 19  1  0  0  0
M  END
> <minimizedAffinity>
-9.63920

> <CNNscore>
0.1221387759

> <CNNaffinity>
6.5230689049

> <CNN_VS>
0.7967196703

> <CNNaffinity_variance>
0.1792941988

$$$$
[H]O[C@]1(C#Cc2c([H])c([H])c3c(c2[H])-c2nc(C(=O)N([H])[H])c(C([H])([H])n4c(C([H])([H])[H])nc5c([H])c([H])c([H])c([H])c54)n2C([H])([H])C([H])([H])O3)C(=O)N(C([H])([H])[H])C([H])([H])C1([H])[H]


 41 46  0  0  0  0  0  0  0  0999 V2000
   35.1351   15.7305   -9.3791 C   0  0  0  0  0  0  0  0  0  0  0  0
   35.0716   16.2391  -10.6555 C   0  0  0  0  0  0  0  0  0  0  0  0
   36.2744   16.5045  -11.3098 C   0  0  0  0  0  0  0  0  0  0  0  0
   37.4804   16.2666  -10.7031 C   0  0  0  0  0  0  0  0  0  0  0  0
   38.6121   16.5807  -11.4933 O   0  0  0  0  0  0  0  0  0  0  0  0
   39.8774   15.8915  -11.3415 C   0  0  0  0  0  0  0  0  0  0  0  0
   40.5637   16.2815  -10.0502 C   0  0  0  0  0  0  0  0  0  0  0  0
   40.0459   15.6745   -8.8567 N   0  0  0  0  0  0  0  0  0  0  0  0
   40.7924   15.2320   -7.8014 C   0  0  0  0  0  0  0  0  0  0  0  0
   39.8899   14.7122   -6.8877 C   0  0  0  0  0  0  0  0  0  0  0  0
   38.6455   14.8647   -7.4162 N   0  0  0  0  0  0  0  0  0  0  0  0
   38.7197   15.4491   -8.6165 C   0  0  0  0  0  0  0  0  0  0  0  0
   37.5437   15.7617   -9.4323 C   0  0  0  0  0  0  0  0  0  0  0  0
   36.3652   15.4932   -8.7695 C   0  0  0  0  0  0  0  0  0  0  0  0
   40.0838   13.9872   -5.6228 C   0  0  0  0  0  0  0  0  0  0  0  0
   40.5521   12.6856   -5.4568 N   0  0  0  0  0  0  0  0  0  0  0  0
   39.7834   14.6224   -4.5533 O   0  0  0  0  0  0  0  0  0  0  0  0
   40.0277   11.8621   -5.8329 H   0  0  0  0  0  0  0  0  0  0  0  0
   41.4646   12.5489   -4.9349 H   0  0  0  0  0  0  0  0  0  0  0  0
   32.9442   15.1744   -8.0349 C   0  0  0  0  0  0  0  0  0  0  0  0
   33.9452   15.4125   -8.6434 C   0  0  0  0  0  0  0  0  0  0  0  0
   33.6004   15.1777   -4.1337 C   0  0  0  0  0  0  0  0  0  0  0  0
   32.6866   15.3327   -5.2558 N   0  0  0  0  0  0  0  0  0  0  0  0
   32.2917   16.6097   -5.7959 C   0  0  0  0  0  0  0  0  0  0  0  0
   31.1621   16.2404   -6.7584 C   0  0  0  0  0  0  0  0  0  0  0  0
   31.7101   14.9122   -7.3006 C   0  0  0  0  0  0  0  0  0  0  0  0
   30.7905   14.2051   -8.0261 O   0  0  0  0  0  0  0  0  0  0  0  0
   32.0538   14.2624   -5.9835 C   0  0  0  0  0  0  0  0  0  0  0  0
   31.8641   13.1107   -5.5791 O   0  0  0  0  0  0  0  0  0  0  0  0
   30.1200   14.8470   -8.3740 H   0  0  0  0  0  0  0  0  0  0  0  0
   42.2245   15.3645   -7.5826 C   0  0  0  0  0  0  0  0  0  0  0  0
   42.7418   15.6478   -6.2746 N   0  0  0  0  0  0  0  0  0  0  0  0
   42.5388   16.6464   -5.4405 C   0  0  0  0  0  0  0  0  0  0  0  0
   41.7989   17.9340   -5.6268 C   0  0  0  0  0  0  0  0  0  0  0  0
   43.1483   16.3740   -4.2457 N   0  0  0  0  0  0  0  0  0  0  0  0
   43.7477   15.1890   -4.3099 C   0  0  0  0  0  0  0  0  0  0  0  0
   44.4580   14.4432   -3.3852 C   0  0  0  0  0  0  0  0  0  0  0  0
   44.9306   13.2046   -3.7266 C   0  0  0  0  0  0  0  0  0  0  0  0
   44.6862   12.7215   -4.9935 C   0  0  0  0  0  0  0  0  0  0  0  0
   43.9839   13.4767   -5.8885 C   0  0  0  0  0  0  0  0  0  0  0  0
   43.4967   14.7227   -5.5836 C   0  0  0  0  0  0  0  0  0  0  0  0
 22 23  1  0  0  0
 23 24  1  0  0  0
 24 25  1  0  0  0
 25 26  1  0  0  0
 26 27  1  0  0  0
 26 20  1  0  0  0
 20 21  3  0  0  0
 21  1  1  0  0  0
  1  2  2  0  0  0
  2  3  1  0  0  0
  3  4  2  0  0  0
  4  5  1  0  0  0
  5  6  1  0  0  0
  6  7  1  0  0  0
  7  8  1  0  0  0
  8  9  1  0  0  0
  9 31  1  0  0  0
 31 32  1  0  0  0
 32 33  1  0  0  0
 33 34  1  0  0  0
 33 35  2  0  0  0
 35 36  1  0  0  0
 36 37  2  0  0  0
 37 38  1  0  0  0
 38 39  2  0  0  0
 39 40  1  0  0  0
 40 41  2  0  0  0
  9 10  2  0  0  0
 10 11  1  0  0  0
 11 12  2  0  0  0
 12 13  1  0  0  0
 13 14  2  0  0  0
 10 15  1  0  0  0
 15 16  1  0  0  0
 15 17  2  0  0  0
 26 28  1  0  0  0
 28 29  2  0  0  0
 28 23  1  0  0  0
 14  1  1  0  0  0
 13  4  1  0  0  0
 12  8  1  0  0  0
 41 32  1  0  0  0
 41 36  1  0  0  0
 27 30  1  0  0  0
 16 18  1  0  0  0
 16 19  1  0  0  0
M  END
> <minimizedAffinity>
-6.80778

> <CNNscore>
0.1098196357

> <CNNaffinity>
5.7964959145

> <CNN_VS>
0.6365690827

> <CNNaffinity_variance>
0.1371589601

$$$$
[H]O[C@]1(C#Cc2c([H])c([H])c3c(c2[H])-c2nc(C(=O)N([H])[H])c(C([H])([H])n4c(C([H])([H])[H])nc5c([H])c([H])c([H])c([H])c54)n2C([H])([H])C([H])([H])O3)C(=O)N(C([H])([H])[H])C([H])([H])C1([H])[H]


 41 46  0  0  0  0  0  0  0  0999 V2000
   35.7200   15.6274   -8.7369 C   0  0  0  0  0  0  0  0  0  0  0  0
   35.4819   16.4399   -9.8209 C   0  0  0  0  0  0  0  0  0  0  0  0
   36.5754   16.8275  -10.5951 C   0  0  0  0  0  0  0  0  0  0  0  0
   37.8456   16.4133  -10.2879 C   0  0  0  0  0  0  0  0  0  0  0  0
   38.8500   16.8838  -11.1674 O   0  0  0  0  0  0  0  0  0  0  0  0
   40.0715   16.1446  -11.4136 C   0  0  0  0  0  0  0  0  0  0  0  0
   40.9878   16.1814  -10.2096 C   0  0  0  0  0  0  0  0  0  0  0  0
   40.6334   15.3100   -9.1250 N   0  0  0  0  0  0  0  0  0  0  0  0
   41.5114   14.5982   -8.3575 C   0  0  0  0  0  0  0  0  0  0  0  0
   40.7385   13.8915   -7.4505 C   0  0  0  0  0  0  0  0  0  0  0  0
   39.4375   14.2047   -7.6968 N   0  0  0  0  0  0  0  0  0  0  0  0
   39.3528   15.0678   -8.7144 C   0  0  0  0  0  0  0  0  0  0  0  0
   38.0828   15.6058   -9.2084 C   0  0  0  0  0  0  0  0  0  0  0  0
   37.0144   15.2123   -8.4311 C   0  0  0  0  0  0  0  0  0  0  0  0
   41.0878   12.8689   -6.4528 C   0  0  0  0  0  0  0  0  0  0  0  0
   41.8887   13.0270   -5.3239 N   0  0  0  0  0  0  0  0  0  0  0  0
   40.6054   11.6996   -6.6465 O   0  0  0  0  0  0  0  0  0  0  0  0
   42.9013   13.2785   -5.4009 H   0  0  0  0  0  0  0  0  0  0  0  0
   41.4408   12.8857   -4.3735 H   0  0  0  0  0  0  0  0  0  0  0  0
   33.7480   14.8130   -7.1994 C   0  0  0  0  0  0  0  0  0  0  0  0
   34.6491   15.1682   -7.9000 C   0  0  0  0  0  0  0  0  0  0  0  0
   30.6912   17.2917   -7.6008 C   0  0  0  0  0  0  0  0  0  0  0  0
   31.2079   15.9796   -7.2411 N   0  0  0  0  0  0  0  0  0  0  0  0
   31.1683   14.8360   -8.1180 C   0  0  0  0  0  0  0  0  0  0  0  0
   31.5867   13.6860   -7.2007 C   0  0  0  0  0  0  0  0  0  0  0  0
   32.6363   14.4090   -6.3440 C   0  0  0  0  0  0  0  0  0  0  0  0
   33.0312   13.6868   -5.2511 O   0  0  0  0  0  0  0  0  0  0  0  0
   31.8255   15.6299   -5.9874 C   0  0  0  0  0  0  0  0  0  0  0  0
   31.6893   16.2210   -4.9113 O   0  0  0  0  0  0  0  0  0  0  0  0
   32.8669   12.7288   -5.4451 H   0  0  0  0  0  0  0  0  0  0  0  0
   42.9657   14.6332   -8.3714 C   0  0  0  0  0  0  0  0  0  0  0  0
   43.6706   15.8587   -8.1262 N   0  0  0  0  0  0  0  0  0  0  0  0
   44.3088   16.6871   -8.9266 C   0  0  0  0  0  0  0  0  0  0  0  0
   44.6563   16.5638  -10.3772 C   0  0  0  0  0  0  0  0  0  0  0  0
   44.6814   17.8022   -8.2260 N   0  0  0  0  0  0  0  0  0  0  0  0
   44.2783   17.6922   -6.9638 C   0  0  0  0  0  0  0  0  0  0  0  0
   44.3651   18.5384   -5.8719 C   0  0  0  0  0  0  0  0  0  0  0  0
   43.8048   18.1706   -4.6782 C   0  0  0  0  0  0  0  0  0  0  0  0
   43.1598   16.9565   -4.5880 C   0  0  0  0  0  0  0  0  0  0  0  0
   43.0885   16.1387   -5.6792 C   0  0  0  0  0  0  0  0  0  0  0  0
   43.6395   16.4719   -6.8909 C   0  0  0  0  0  0  0  0  0  0  0  0
 22 23  1  0  0  0
 23 24  1  0  0  0
 24 25  1  0  0  0
 25 26  1  0  0  0
 26 27  1  0  0  0
 26 20  1  0  0  0
 20 21  3  0  0  0
 21  1  1  0  0  0
  1  2  2  0  0  0
  2  3  1  0  0  0
  3  4  2  0  0  0
  4  5  1  0  0  0
  5  6  1  0  0  0
  6  7  1  0  0  0
  7  8  1  0  0  0
  8  9  1  0  0  0
  9 31  1  0  0  0
 31 32  1  0  0  0
 32 33  1  0  0  0
 33 34  1  0  0  0
 33 35  2  0  0  0
 35 36  1  0  0  0
 36 37  2  0  0  0
 37 38  1  0  0  0
 38 39  2  0  0  0
 39 40  1  0  0  0
 40 41  2  0  0  0
  9 10  2  0  0  0
 10 11  1  0  0  0
 11 12  2  0  0  0
 12 13  1  0  0  0
 13 14  2  0  0  0
 10 15  1  0  0  0
 15 16  1  0  0  0
 15 17  2  0  0  0
 26 28  1  0  0  0
 28 29  2  0  0  0
 28 23  1  0  0  0
 14  1  1  0  0  0
 13  4  1  0  0  0
 12  8  1  0  0  0
 41 32  1  0  0  0
 41 36  1  0  0  0
 27 30  1  0  0  0
 16 18  1  0  0  0
 16 19  1  0  0  0
M  END
> <minimizedAffinity>
-7.44406

> <CNNscore>
0.0963983238

> <CNNaffinity>
5.7650642395

> <CNN_VS>
0.5557425022

> <CNNaffinity_variance>
0.1733028442

$$$$
[H]O[C@]1(C#Cc2c([H])c([H])c3c(c2[H])-c2nc(C(=O)N([H])[H])c(C([H])([H])n4c(C([H])([H])[H])nc5c([H])c([H])c([H])c([H])c54)n2C([H])([H])C([H])([H])O3)C(=O)N(C([H])([H])[H])C([H])([H])C1([H])[H]


 41 46  0  0  0  0  0  0  0  0999 V2000
   39.7057   12.4922  -16.1320 C   0  0  0  0  0  0  0  0  0  0  0  0
   39.9591   12.0656  -17.4149 C   0  0  0  0  0  0  0  0  0  0  0  0
   41.2917   11.9519  -17.8106 C   0  0  0  0  0  0  0  0  0  0  0  0
   42.3160   12.2540  -16.9511 C   0  0  0  0  0  0  0  0  0  0  0  0
   43.6124   12.0854  -17.4938 O   0  0  0  0  0  0  0  0  0  0  0  0
   44.7590   11.7568  -16.6712 C   0  0  0  0  0  0  0  0  0  0  0  0
   45.1766   12.9336  -15.8160 C   0  0  0  0  0  0  0  0  0  0  0  0
   44.3680   13.1842  -14.6564 N   0  0  0  0  0  0  0  0  0  0  0  0
   44.8323   13.5770  -13.4330 C   0  0  0  0  0  0  0  0  0  0  0  0
   43.7166   13.6851  -12.6188 C   0  0  0  0  0  0  0  0  0  0  0  0
   42.6315   13.3640  -13.3742 N   0  0  0  0  0  0  0  0  0  0  0  0
   43.0081   13.0552  -14.6194 C   0  0  0  0  0  0  0  0  0  0  0  0
   42.0639   12.6799  -15.6749 C   0  0  0  0  0  0  0  0  0  0  0  0
   40.7529   12.7987  -15.2656 C   0  0  0  0  0  0  0  0  0  0  0  0
   43.5764   13.9491  -11.1787 C   0  0  0  0  0  0  0  0  0  0  0  0
   42.7346   14.8750  -10.5662 N   0  0  0  0  0  0  0  0  0  0  0  0
   44.3153   13.2526  -10.4000 O   0  0  0  0  0  0  0  0  0  0  0  0
   42.8381   15.9029  -10.7309 H   0  0  0  0  0  0  0  0  0  0  0  0
   41.9767   14.5074   -9.9225 H   0  0  0  0  0  0  0  0  0  0  0  0
   37.2495   12.6986  -15.2152 C   0  0  0  0  0  0  0  0  0  0  0  0
   38.3642   12.6185  -15.6397 C   0  0  0  0  0  0  0  0  0  0  0  0
   37.2554   14.2730  -11.5861 C   0  0  0  0  0  0  0  0  0  0  0  0
   36.5545   13.9715  -12.8253 N   0  0  0  0  0  0  0  0  0  0  0  0
   36.3641   14.9252  -13.8896 C   0  0  0  0  0  0  0  0  0  0  0  0
   35.3802   14.2115  -14.8176 C   0  0  0  0  0  0  0  0  0  0  0  0
   35.8939   12.7710  -14.6785 C   0  0  0  0  0  0  0  0  0  0  0  0
   35.0486   11.8419  -15.2209 O   0  0  0  0  0  0  0  0  0  0  0  0
   35.9604   12.7059  -13.1730 C   0  0  0  0  0  0  0  0  0  0  0  0
   35.6091   11.8190  -12.3883 O   0  0  0  0  0  0  0  0  0  0  0  0
   34.5016   12.2960  -15.9115 H   0  0  0  0  0  0  0  0  0  0  0  0
   46.1888   13.9353  -13.0483 C   0  0  0  0  0  0  0  0  0  0  0  0
   46.8051   15.1248  -13.5621 N   0  0  0  0  0  0  0  0  0  0  0  0
   47.6795   15.3217  -14.5269 C   0  0  0  0  0  0  0  0  0  0  0  0
   48.4637   14.3426  -15.3434 C   0  0  0  0  0  0  0  0  0  0  0  0
   47.8348   16.6656  -14.7346 N   0  0  0  0  0  0  0  0  0  0  0  0
   47.0525   17.3404  -13.8978 C   0  0  0  0  0  0  0  0  0  0  0  0
   46.8080   18.6913  -13.7219 C   0  0  0  0  0  0  0  0  0  0  0  0
   45.8929   19.1029  -12.7906 C   0  0  0  0  0  0  0  0  0  0  0  0
   45.2279   18.1560  -12.0424 C   0  0  0  0  0  0  0  0  0  0  0  0
   45.4876   16.8292  -12.2337 C   0  0  0  0  0  0  0  0  0  0  0  0
   46.3988   16.3789  -13.1555 C   0  0  0  0  0  0  0  0  0  0  0  0
 22 23  1  0  0  0
 23 24  1  0  0  0
 24 25  1  0  0  0
 25 26  1  0  0  0
 26 27  1  0  0  0
 26 20  1  0  0  0
 20 21  3  0  0  0
 21  1  1  0  0  0
  1  2  2  0  0  0
  2  3  1  0  0  0
  3  4  2  0  0  0
  4  5  1  0  0  0
  5  6  1  0  0  0
  6  7  1  0  0  0
  7  8  1  0  0  0
  8  9  1  0  0  0
  9 31  1  0  0  0
 31 32  1  0  0  0
 32 33  1  0  0  0
 33 34  1  0  0  0
 33 35  2  0  0  0
 35 36  1  0  0  0
 36 37  2  0  0  0
 37 38  1  0  0  0
 38 39  2  0  0  0
 39 40  1  0  0  0
 40 41  2  0  0  0
  9 10  2  0  0  0
 10 11  1  0  0  0
 11 12  2  0  0  0
 12 13  1  0  0  0
 13 14  2  0  0  0
 10 15  1  0  0  0
 15 16  1  0  0  0
 15 17  2  0  0  0
 26 28  1  0  0  0
 28 29  2  0  0  0
 28 23  1  0  0  0
 14  1  1  0  0  0
 13  4  1  0  0  0
 12  8  1  0  0  0
 41 32  1  0  0  0
 41 36  1  0  0  0
 27 30  1  0  0  0
 16 18  1  0  0  0
 16 19  1  0  0  0
M  END
> <minimizedAffinity>
-8.87971

> <CNNscore>
0.0930189714

> <CNNaffinity>
6.2794342041

> <CNN_VS>
0.5841065049

> <CNNaffinity_variance>
0.2628106773

$$$$
[H]O[C@]1(C#Cc2c([H])c([H])c3c(c2[H])-c2nc(C(=O)N([H])[H])c(C([H])([H])n4c(C([H])([H])[H])nc5c([H])c([H])c([H])c([H])c54)n2C([H])([H])C([H])([H])O3)C(=O)N(C([H])([H])[H])C([H])([H])C1([H])[H]


 41 46  0  0  0  0  0  0  0  0999 V2000
   35.6169   15.6627   -8.4814 C   0  0  0  0  0  0  0  0  0  0  0  0
   35.3008   16.3865   -9.6075 C   0  0  0  0  0  0  0  0  0  0  0  0
   36.3339   16.6973  -10.4915 C   0  0  0  0  0  0  0  0  0  0  0  0
   37.6217   16.2952  -10.2483 C   0  0  0  0  0  0  0  0  0  0  0  0
   38.5583   16.6810  -11.2370 O   0  0  0  0  0  0  0  0  0  0  0  0
   39.7538   15.9104  -11.5132 C   0  0  0  0  0  0  0  0  0  0  0  0
   40.7595   16.0353  -10.3892 C   0  0  0  0  0  0  0  0  0  0  0  0
   40.4846   15.2594   -9.2129 N   0  0  0  0  0  0  0  0  0  0  0  0
   41.4151   14.6028   -8.4580 C   0  0  0  0  0  0  0  0  0  0  0  0
   40.7102   13.9814   -7.4400 C   0  0  0  0  0  0  0  0  0  0  0  0
   39.3958   14.2880   -7.6121 N   0  0  0  0  0  0  0  0  0  0  0  0
   39.2379   15.0659   -8.6879 C   0  0  0  0  0  0  0  0  0  0  0  0
   37.9366   15.5760   -9.1270 C   0  0  0  0  0  0  0  0  0  0  0  0
   36.9288   15.2594   -8.2413 C   0  0  0  0  0  0  0  0  0  0  0  0
   41.1296   13.0398   -6.3908 C   0  0  0  0  0  0  0  0  0  0  0  0
   41.9791   13.2939   -5.3163 N   0  0  0  0  0  0  0  0  0  0  0  0
   40.6653   11.8505   -6.4777 O   0  0  0  0  0  0  0  0  0  0  0  0
   42.9809   13.5589   -5.4602 H   0  0  0  0  0  0  0  0  0  0  0  0
   41.5800   13.2123   -4.3376 H   0  0  0  0  0  0  0  0  0  0  0  0
   33.7648   14.9989   -6.7363 C   0  0  0  0  0  0  0  0  0  0  0  0
   34.6107   15.2854   -7.5309 C   0  0  0  0  0  0  0  0  0  0  0  0
   30.4356   16.9752   -7.5487 C   0  0  0  0  0  0  0  0  0  0  0  0
   31.1065   15.8422   -6.9289 N   0  0  0  0  0  0  0  0  0  0  0  0
   31.1850   14.5331   -7.5277 C   0  0  0  0  0  0  0  0  0  0  0  0
   31.7486   13.6719   -6.3966 C   0  0  0  0  0  0  0  0  0  0  0  0
   32.7215   14.6793   -5.7666 C   0  0  0  0  0  0  0  0  0  0  0  0
   33.2154   14.2693   -4.5583 O   0  0  0  0  0  0  0  0  0  0  0  0
   31.7810   15.8533   -5.6560 C   0  0  0  0  0  0  0  0  0  0  0  0
   31.5952   16.6531   -4.7331 O   0  0  0  0  0  0  0  0  0  0  0  0
   33.1598   13.2801   -4.5278 H   0  0  0  0  0  0  0  0  0  0  0  0
   42.8642   14.6202   -8.5848 C   0  0  0  0  0  0  0  0  0  0  0  0
   43.5697   15.8589   -8.7485 N   0  0  0  0  0  0  0  0  0  0  0  0
   43.8088   16.8562   -7.9224 C   0  0  0  0  0  0  0  0  0  0  0  0
   43.2940   17.1205   -6.5421 C   0  0  0  0  0  0  0  0  0  0  0  0
   44.6659   17.7438   -8.5148 N   0  0  0  0  0  0  0  0  0  0  0  0
   44.9832   17.3138   -9.7322 C   0  0  0  0  0  0  0  0  0  0  0  0
   45.8242   17.8077  -10.7143 C   0  0  0  0  0  0  0  0  0  0  0  0
   45.9950   17.1101  -11.8797 C   0  0  0  0  0  0  0  0  0  0  0  0
   45.3217   15.9204  -12.0518 C   0  0  0  0  0  0  0  0  0  0  0  0
   44.4965   15.4546  -11.0686 C   0  0  0  0  0  0  0  0  0  0  0  0
   44.2986   16.1266   -9.8887 C   0  0  0  0  0  0  0  0  0  0  0  0
 22 23  1  0  0  0
 23 24  1  0  0  0
 24 25  1  0  0  0
 25 26  1  0  0  0
 26 27  1  0  0  0
 26 20  1  0  0  0
 20 21  3  0  0  0
 21  1  1  0  0  0
  1  2  2  0  0  0
  2  3  1  0  0  0
  3  4  2  0  0  0
  4  5  1  0  0  0
  5  6  1  0  0  0
  6  7  1  0  0  0
  7  8  1  0  0  0
  8  9  1  0  0  0
  9 31  1  0  0  0
 31 32  1  0  0  0
 32 33  1  0  0  0
 33 34  1  0  0  0
 33 35  2  0  0  0
 35 36  1  0  0  0
 36 37  2  0  0  0
 37 38  1  0  0  0
 38 39  2  0  0  0
 39 40  1  0  0  0
 40 41  2  0  0  0
  9 10  2  0  0  0
 10 11  1  0  0  0
 11 12  2  0  0  0
 12 13  1  0  0  0
 13 14  2  0  0  0
 10 15  1  0  0  0
 15 16  1  0  0  0
 15 17  2  0  0  0
 26 28  1  0  0  0
 28 29  2  0  0  0
 28 23  1  0  0  0
 14  1  1  0  0  0
 13  4  1  0  0  0
 12  8  1  0  0  0
 41 32  1  0  0  0
 41 36  1  0  0  0
 27 30  1  0  0  0
 16 18  1  0  0  0
 16 19  1  0  0  0
M  END
> <minimizedAffinity>
-7.51279

> <CNNscore>
0.0885862783

> <CNNaffinity>
5.7583723068

> <CNN_VS>
0.5101127625

> <CNNaffinity_variance>
0.2215097249

$$$$
[H]O[C@]1(C#Cc2c([H])c([H])c3c(c2[H])-c2nc(C(=O)N([H])[H])c(C([H])([H])n4c(C([H])([H])[H])nc5c([H])c([H])c([H])c([H])c54)n2C([H])([H])C([H])([H])O3)C(=O)N(C([H])([H])[H])C([H])([H])C1([H])[H]


 41 46  0  0  0  0  0  0  0  0999 V2000
   34.7554   15.9433  -10.0743 C   0  0  0  0  0  0  0  0  0  0  0  0
   34.9185   16.0273  -11.4374 C   0  0  0  0  0  0  0  0  0  0  0  0
   36.2209   16.0705  -11.9346 C   0  0  0  0  0  0  0  0  0  0  0  0
   37.3035   16.0301  -11.0945 C   0  0  0  0  0  0  0  0  0  0  0  0
   38.5594   16.0773  -11.7457 O   0  0  0  0  0  0  0  0  0  0  0  0
   39.7463   15.4657  -11.1832 C   0  0  0  0  0  0  0  0  0  0  0  0
   40.2444   16.2378   -9.9805 C   0  0  0  0  0  0  0  0  0  0  0  0
   39.5153   16.0364   -8.7602 N   0  0  0  0  0  0  0  0  0  0  0  0
   40.0638   15.9437   -7.5124 C   0  0  0  0  0  0  0  0  0  0  0  0
   39.0035   15.7390   -6.6444 C   0  0  0  0  0  0  0  0  0  0  0  0
   37.8663   15.7229   -7.3912 N   0  0  0  0  0  0  0  0  0  0  0  0
   38.1576   15.9021   -8.6837 C   0  0  0  0  0  0  0  0  0  0  0  0
   37.1412   15.9479   -9.7378 C   0  0  0  0  0  0  0  0  0  0  0  0
   35.8613   15.9044   -9.2277 C   0  0  0  0  0  0  0  0  0  0  0  0
   38.9590   15.4454   -5.2038 C   0  0  0  0  0  0  0  0  0  0  0  0
   39.0208   14.1948   -4.5930 N   0  0  0  0  0  0  0  0  0  0  0  0
   38.8455   16.4529   -4.4231 O   0  0  0  0  0  0  0  0  0  0  0  0
   38.2818   13.4710   -4.7496 H   0  0  0  0  0  0  0  0  0  0  0  0
   39.8457   13.9921   -3.9588 H   0  0  0  0  0  0  0  0  0  0  0  0
   32.3606   15.7917   -8.9981 C   0  0  0  0  0  0  0  0  0  0  0  0
   33.4503   15.8756   -9.4825 C   0  0  0  0  0  0  0  0  0  0  0  0
   32.5713   14.2494   -5.3612 C   0  0  0  0  0  0  0  0  0  0  0  0
   31.8580   15.0410   -6.3525 N   0  0  0  0  0  0  0  0  0  0  0  0
   31.8792   16.4819   -6.3921 C   0  0  0  0  0  0  0  0  0  0  0  0
   30.8021   16.8123   -7.4262 C   0  0  0  0  0  0  0  0  0  0  0  0
   31.0300   15.6579   -8.4130 C   0  0  0  0  0  0  0  0  0  0  0  0
   30.0381   15.5441   -9.3486 O   0  0  0  0  0  0  0  0  0  0  0  0
   31.0441   14.5212   -7.4216 C   0  0  0  0  0  0  0  0  0  0  0  0
   30.5112   13.4076   -7.4644 O   0  0  0  0  0  0  0  0  0  0  0  0
   29.6050   16.4308   -9.4409 H   0  0  0  0  0  0  0  0  0  0  0  0
   41.4498   16.1330   -7.1128 C   0  0  0  0  0  0  0  0  0  0  0  0
   42.4643   15.2076   -7.5289 N   0  0  0  0  0  0  0  0  0  0  0  0
   42.5715   13.9006   -7.4098 C   0  0  0  0  0  0  0  0  0  0  0  0
   41.7290   12.9204   -6.6552 C   0  0  0  0  0  0  0  0  0  0  0  0
   43.6615   13.4662   -8.1146 N   0  0  0  0  0  0  0  0  0  0  0  0
   44.2606   14.5019   -8.6941 C   0  0  0  0  0  0  0  0  0  0  0  0
   45.3587   14.6059   -9.5303 C   0  0  0  0  0  0  0  0  0  0  0  0
   45.7269   15.8288  -10.0232 C   0  0  0  0  0  0  0  0  0  0  0  0
   44.9901   16.9397   -9.6750 C   0  0  0  0  0  0  0  0  0  0  0  0
   43.9116   16.8115   -8.8474 C   0  0  0  0  0  0  0  0  0  0  0  0
   43.5136   15.6036   -8.3321 C   0  0  0  0  0  0  0  0  0  0  0  0
 22 23  1  0  0  0
 23 24  1  0  0  0
 24 25  1  0  0  0
 25 26  1  0  0  0
 26 27  1  0  0  0
 26 20  1  0  0  0
 20 21  3  0  0  0
 21  1  1  0  0  0
  1  2  2  0  0  0
  2  3  1  0  0  0
  3  4  2  0  0  0
  4  5  1  0  0  0
  5  6  1  0  0  0
  6  7  1  0  0  0
  7  8  1  0  0  0
  8  9  1  0  0  0
  9 31  1  0  0  0
 31 32  1  0  0  0
 32 33  1  0  0  0
 33 34  1  0  0  0
 33 35  2  0  0  0
 35 36  1  0  0  0
 36 37  2  0  0  0
 37 38  1  0  0  0
 38 39  2  0  0  0
 39 40  1  0  0  0
 40 41  2  0  0  0
  9 10  2  0  0  0
 10 11  1  0  0  0
 11 12  2  0  0  0
 12 13  1  0  0  0
 13 14  2  0  0  0
 10 15  1  0  0  0
 15 16  1  0  0  0
 15 17  2  0  0  0
 26 28  1  0  0  0
 28 29  2  0  0  0
 28 23  1  0  0  0
 14  1  1  0  0  0
 13  4  1  0  0  0
 12  8  1  0  0  0
 41 32  1  0  0  0
 41 36  1  0  0  0
 27 30  1  0  0  0
 16 18  1  0  0  0
 16 19  1  0  0  0
M  END
> <minimizedAffinity>
-6.93008

> <CNNscore>
0.0708030388

> <CNNaffinity>
5.8981142044

> <CNN_VS>
0.4176044166

> <CNNaffinity_variance>
0.1368788481

$$$$
[H]OC(C#Cc1c([H])c([H])c2c(c1[H])-c1nc(C(=O)N([H])[H])c([H])n1C1([H])C([H])([H])C2([H])C1([H])[H])(C([H])([H])[H])C([H])([H])[H]


 27 30  0  0  0  0  0  0  0  0999 V2000
   36.5288   13.7182  -13.0776 C   0  0  0  0  0  0  0  0  0  0  0  0
   35.1983   13.4960  -12.7972 C   0  0  0  0  0  0  0  0  0  0  0  0
   34.3832   12.7148  -13.6074 C   0  0  0  0  0  0  0  0  0  0  0  0
   34.9877   12.1703  -14.7176 C   0  0  0  0  0  0  0  0  0  0  0  0
   34.0232   11.3570  -15.5077 C   0  0  0  0  0  0  0  0  0  0  0  0
   34.7172   10.0367  -15.8092 C   0  0  0  0  0  0  0  0  0  0  0  0
   35.1433   10.5232  -17.2004 C   0  0  0  0  0  0  0  0  0  0  0  0
   34.1702   11.6696  -17.0018 C   0  0  0  0  0  0  0  0  0  0  0  0
   36.5329   11.0099  -17.1600 N   0  0  0  0  0  0  0  0  0  0  0  0
   37.4974   10.7336  -18.0454 C   0  0  0  0  0  0  0  0  0  0  0  0
   38.6405   11.3878  -17.6345 C   0  0  0  0  0  0  0  0  0  0  0  0
   38.3326   12.0550  -16.4908 N   0  0  0  0  0  0  0  0  0  0  0  0
   37.0599   11.8227  -16.2105 C   0  0  0  0  0  0  0  0  0  0  0  0
   36.3311   12.3736  -15.0328 C   0  0  0  0  0  0  0  0  0  0  0  0
   37.0999   13.1455  -14.2151 C   0  0  0  0  0  0  0  0  0  0  0  0
   39.9135   11.3472  -18.3209 C   0  0  0  0  0  0  0  0  0  0  0  0
   41.0845   11.9007  -17.7475 N   0  0  0  0  0  0  0  0  0  0  0  0
   39.9880   10.8117  -19.4481 O   0  0  0  0  0  0  0  0  0  0  0  0
   41.9003   12.1464  -18.3437 H   0  0  0  0  0  0  0  0  0  0  0  0
   41.1554   12.0728  -16.7270 H   0  0  0  0  0  0  0  0  0  0  0  0
   38.0636   15.2317  -11.5230 C   0  0  0  0  0  0  0  0  0  0  0  0
   37.3671   14.5307  -12.2303 C   0  0  0  0  0  0  0  0  0  0  0  0
   39.0364   15.5157   -9.2737 C   0  0  0  0  0  0  0  0  0  0  0  0
   38.9107   16.0912  -10.6790 C   0  0  0  0  0  0  0  0  0  0  0  0
   40.2868   16.2640  -11.2741 C   0  0  0  0  0  0  0  0  0  0  0  0
   38.2791   17.3343  -10.6115 O   0  0  0  0  0  0  0  0  0  0  0  0
   37.5429   17.2983   -9.9445 H   0  0  0  0  0  0  0  0  0  0  0  0
 23 24  1  0  0  0
 24 25  1  0  0  0
 24 26  1  0  0  0
 24 21  1  0  0  0
 21 22  3  0  0  0
 22  1  1  0  0  0
  1  2  2  0  0  0
  2  3  1  0  0  0
  3  4  2  0  0  0
  4  5  1  0  0  0
  5  6  1  0  0  0
  6  7  1  0  0  0
  7  8  1  0  0  0
  7  9  1  0  0  0
  9 10  1  0  0  0
 10 11  2  0  0  0
 11 12  1  0  0  0
 12 13  2  0  0  0
 13 14  1  0  0  0
 14 15  2  0  0  0
 11 16  1  0  0  0
 16 17  1  0  0  0
 16 18  2  0  0  0
 15  1  1  0  0  0
 14  4  1  0  0  0
  8  5  1  0  0  0
 13  9  1  0  0  0
 26 27  1  0  0  0
 17 19  1  0  0  0
 17 20  1  0  0  0
M  END
> <minimizedAffinity>
-7.63314

> <CNNscore>
0.6662706733

> <CNNaffinity>
6.8034186363

> <CNN_VS>
4.5329184532

> <CNNaffinity_variance>
0.3561013341

$$$$
[H]OC(C#Cc1c([H])c([H])c2c(c1[H])-c1nc(C(=O)N([H])[H])c([H])n1C1([H])C([H])([H])C2([H])C1([H])[H])(C([H])([H])[H])C([H])([H])[H]


 27 30  0  0  0  0  0  0  0  0999 V2000
   35.7013   13.0375  -13.4472 C   0  0  0  0  0  0  0  0  0  0  0  0
   34.5204   12.5212  -13.9340 C   0  0  0  0  0  0  0  0  0  0  0  0
   34.4464   11.8258  -15.1349 C   0  0  0  0  0  0  0  0  0  0  0  0
   35.6331   11.6812  -15.8170 C   0  0  0  0  0  0  0  0  0  0  0  0
   35.4340   10.9237  -17.0831 C   0  0  0  0  0  0  0  0  0  0  0  0
   36.5215    9.8601  -17.1253 C   0  0  0  0  0  0  0  0  0  0  0  0
   37.4095   10.7351  -18.0195 C   0  0  0  0  0  0  0  0  0  0  0  0
   36.1871   11.6079  -18.2304 C   0  0  0  0  0  0  0  0  0  0  0  0
   38.4125   11.4370  -17.2007 N   0  0  0  0  0  0  0  0  0  0  0  0
   39.7169   11.5582  -17.4736 C   0  0  0  0  0  0  0  0  0  0  0  0
   40.2908   12.2869  -16.4522 C   0  0  0  0  0  0  0  0  0  0  0  0
   39.3010   12.5933  -15.5720 N   0  0  0  0  0  0  0  0  0  0  0  0
   38.1711   12.0777  -16.0297 C   0  0  0  0  0  0  0  0  0  0  0  0
   36.8467   12.1901  -15.3550 C   0  0  0  0  0  0  0  0  0  0  0  0
   36.8811   12.8665  -14.1732 C   0  0  0  0  0  0  0  0  0  0  0  0
   41.6912   12.6400  -16.3682 C   0  0  0  0  0  0  0  0  0  0  0  0
   42.6362   12.1588  -17.3074 N   0  0  0  0  0  0  0  0  0  0  0  0
   42.0831   13.3880  -15.4463 O   0  0  0  0  0  0  0  0  0  0  0  0
   43.6510   12.1516  -17.0806 H   0  0  0  0  0  0  0  0  0  0  0  0
   42.3404   11.8049  -18.2365 H   0  0  0  0  0  0  0  0  0  0  0  0
   35.8191   14.3480  -11.1382 C   0  0  0  0  0  0  0  0  0  0  0  0
   35.7681   13.7579  -12.1993 C   0  0  0  0  0  0  0  0  0  0  0  0
   37.2225   15.7194   -9.6428 C   0  0  0  0  0  0  0  0  0  0  0  0
   35.8657   15.0570   -9.8483 C   0  0  0  0  0  0  0  0  0  0  0  0
   34.7796   16.1006   -9.7533 C   0  0  0  0  0  0  0  0  0  0  0  0
   35.6686   14.0960   -8.8552 O   0  0  0  0  0  0  0  0  0  0  0  0
   36.5192   13.6089   -8.6893 H   0  0  0  0  0  0  0  0  0  0  0  0
 23 24  1  0  0  0
 24 25  1  0  0  0
 24 26  1  0  0  0
 24 21  1  0  0  0
 21 22  3  0  0  0
 22  1  1  0  0  0
  1  2  2  0  0  0
  2  3  1  0  0  0
  3  4  2  0  0  0
  4  5  1  0  0  0
  5  6  1  0  0  0
  6  7  1  0  0  0
  7  8  1  0  0  0
  7  9  1  0  0  0
  9 10  1  0  0  0
 10 11  2  0  0  0
 11 12  1  0  0  0
 12 13  2  0  0  0
 13 14  1  0  0  0
 14 15  2  0  0  0
 11 16  1  0  0  0
 16 17  1  0  0  0
 16 18  2  0  0  0
 15  1  1  0  0  0
 14  4  1  0  0  0
  8  5  1  0  0  0
 13  9  1  0  0  0
 26 27  1  0  0  0
 17 19  1  0  0  0
 17 20  1  0  0  0
M  END
> <minimizedAffinity>
-8.17043

> <CNNscore>
0.5763862133

> <CNNaffinity>
6.7545318604

> <CNN_VS>
3.8932189941

> <CNNaffinity_variance>
0.3168160021

$$$$
[H]OC(C#Cc1c([H])c([H])c2c(c1[H])-c1nc(C(=O)N([H])[H])c([H])n1C1([H])C([H])([H])C2([H])C1([H])[H])(C([H])([H])[H])C([H])([H])[H]


 27 30  0  0  0  0  0  0  0  0999 V2000
   40.6417   15.3835  -12.8869 C   0  0  0  0  0  0  0  0  0  0  0  0
   39.6425   15.6304  -11.9711 C   0  0  0  0  0  0  0  0  0  0  0  0
   38.3751   15.0703  -12.0772 C   0  0  0  0  0  0  0  0  0  0  0  0
   38.1736   14.2463  -13.1611 C   0  0  0  0  0  0  0  0  0  0  0  0
   36.7864   13.7060  -13.1723 C   0  0  0  0  0  0  0  0  0  0  0  0
   36.9083   12.2088  -13.4159 C   0  0  0  0  0  0  0  0  0  0  0  0
   36.6418   12.3827  -14.9167 C   0  0  0  0  0  0  0  0  0  0  0  0
   36.1977   13.7947  -14.5855 C   0  0  0  0  0  0  0  0  0  0  0  0
   37.9156   12.3999  -15.6558 N   0  0  0  0  0  0  0  0  0  0  0  0
   38.1873   11.7368  -16.7859 C   0  0  0  0  0  0  0  0  0  0  0  0
   39.4885   12.0298  -17.1388 C   0  0  0  0  0  0  0  0  0  0  0  0
   39.9792   12.8779  -16.1964 N   0  0  0  0  0  0  0  0  0  0  0  0
   39.0253   13.0967  -15.3051 C   0  0  0  0  0  0  0  0  0  0  0  0
   39.1611   13.9738  -14.1076 C   0  0  0  0  0  0  0  0  0  0  0  0
   40.3921   14.5407  -13.9711 C   0  0  0  0  0  0  0  0  0  0  0  0
   40.1704   11.5110  -18.3045 C   0  0  0  0  0  0  0  0  0  0  0  0
   39.4604   10.9234  -19.3802 N   0  0  0  0  0  0  0  0  0  0  0  0
   41.4170   11.5802  -18.3698 O   0  0  0  0  0  0  0  0  0  0  0  0
   39.9429   10.2907  -20.0497 H   0  0  0  0  0  0  0  0  0  0  0  0
   38.4501   11.1090  -19.5244 H   0  0  0  0  0  0  0  0  0  0  0  0
   43.0605   16.4667  -12.6880 C   0  0  0  0  0  0  0  0  0  0  0  0
   41.9544   15.9696  -12.7681 C   0  0  0  0  0  0  0  0  0  0  0  0
   44.4321   18.4385  -13.2510 C   0  0  0  0  0  0  0  0  0  0  0  0
   44.4059   17.0594  -12.6035 C   0  0  0  0  0  0  0  0  0  0  0  0
   44.8710   17.1695  -11.1720 C   0  0  0  0  0  0  0  0  0  0  0  0
   45.2637   16.2077  -13.3019 O   0  0  0  0  0  0  0  0  0  0  0  0
   45.1814   16.3788  -14.2777 H   0  0  0  0  0  0  0  0  0  0  0  0
 23 24  1  0  0  0
 24 25  1  0  0  0
 24 26  1  0  0  0
 24 21  1  0  0  0
 21 22  3  0  0  0
 22  1  1  0  0  0
  1  2  2  0  0  0
  2  3  1  0  0  0
  3  4  2  0  0  0
  4  5  1  0  0  0
  5  6  1  0  0  0
  6  7  1  0  0  0
  7  8  1  0  0  0
  7  9  1  0  0  0
  9 10  1  0  0  0
 10 11  2  0  0  0
 11 12  1  0  0  0
 12 13  2  0  0  0
 13 14  1  0  0  0
 14 15  2  0  0  0
 11 16  1  0  0  0
 16 17  1  0  0  0
 16 18  2  0  0  0
 15  1  1  0  0  0
 14  4  1  0  0  0
  8  5  1  0  0  0
 13  9  1  0  0  0
 26 27  1  0  0  0
 17 19  1  0  0  0
 17 20  1  0  0  0
M  END
> <minimizedAffinity>
-8.02118

> <CNNscore>
0.5652807951

> <CNNaffinity>
6.4023680687

> <CNN_VS>
3.6191356182

> <CNNaffinity_variance>
0.3264625669

$$$$
[H]OC(C#Cc1c([H])c([H])c2c(c1[H])-c1nc(C(=O)N([H])[H])c([H])n1C1([H])C([H])([H])C2([H])C1([H])[H])(C([H])([H])[H])C([H])([H])[H]


 27 30  0  0  0  0  0  0  0  0999 V2000
   36.7800   15.4639   -9.7321 C   0  0  0  0  0  0  0  0  0  0  0  0
   38.1137   15.2449   -9.4645 C   0  0  0  0  0  0  0  0  0  0  0  0
   38.7476   15.7673   -8.3436 C   0  0  0  0  0  0  0  0  0  0  0  0
   37.9583   16.5237   -7.5075 C   0  0  0  0  0  0  0  0  0  0  0  0
   38.7398   17.0292   -6.3456 C   0  0  0  0  0  0  0  0  0  0  0  0
   37.9073   16.7375   -5.1056 C   0  0  0  0  0  0  0  0  0  0  0  0
   37.3401   18.1628   -5.0924 C   0  0  0  0  0  0  0  0  0  0  0  0
   38.4204   18.5087   -6.0992 C   0  0  0  0  0  0  0  0  0  0  0  0
   36.0123   18.1824   -5.7294 N   0  0  0  0  0  0  0  0  0  0  0  0
   34.9190   18.8012   -5.2685 C   0  0  0  0  0  0  0  0  0  0  0  0
   33.8976   18.5671   -6.1659 C   0  0  0  0  0  0  0  0  0  0  0  0
   34.4083   17.7990   -7.1646 N   0  0  0  0  0  0  0  0  0  0  0  0
   35.6841   17.5709   -6.8949 C   0  0  0  0  0  0  0  0  0  0  0  0
   36.6057   16.7663   -7.7464 C   0  0  0  0  0  0  0  0  0  0  0  0
   36.0178   16.2379   -8.8557 C   0  0  0  0  0  0  0  0  0  0  0  0
   32.5454   19.0643   -6.0342 C   0  0  0  0  0  0  0  0  0  0  0  0
   31.9017   19.7548   -7.0903 N   0  0  0  0  0  0  0  0  0  0  0  0
   31.9245   18.8829   -4.9644 O   0  0  0  0  0  0  0  0  0  0  0  0
   31.0814   20.3651   -6.9009 H   0  0  0  0  0  0  0  0  0  0  0  0
   32.2311   19.6688   -8.0701 H   0  0  0  0  0  0  0  0  0  0  0  0
   35.5990   14.4438  -11.8833 C   0  0  0  0  0  0  0  0  0  0  0  0
   36.1308   14.9174  -10.8985 C   0  0  0  0  0  0  0  0  0  0  0  0
   35.2954   12.3883  -13.2134 C   0  0  0  0  0  0  0  0  0  0  0  0
   34.9692   13.8713  -13.0850 C   0  0  0  0  0  0  0  0  0  0  0  0
   33.4713   14.0543  -13.0627 C   0  0  0  0  0  0  0  0  0  0  0  0
   35.5000   14.5549  -14.1802 O   0  0  0  0  0  0  0  0  0  0  0  0
   36.3975   14.1876  -14.3993 H   0  0  0  0  0  0  0  0  0  0  0  0
 23 24  1  0  0  0
 24 25  1  0  0  0
 24 26  1  0  0  0
 24 21  1  0  0  0
 21 22  3  0  0  0
 22  1  1  0  0  0
  1  2  2  0  0  0
  2  3  1  0  0  0
  3  4  2  0  0  0
  4  5  1  0  0  0
  5  6  1  0  0  0
  6  7  1  0  0  0
  7  8  1  0  0  0
  7  9  1  0  0  0
  9 10  1  0  0  0
 10 11  2  0  0  0
 11 12  1  0  0  0
 12 13  2  0  0  0
 13 14  1  0  0  0
 14 15  2  0  0  0
 11 16  1  0  0  0
 16 17  1  0  0  0
 16 18  2  0  0  0
 15  1  1  0  0  0
 14  4  1  0  0  0
  8  5  1  0  0  0
 13  9  1  0  0  0
 26 27  1  0  0  0
 17 19  1  0  0  0
 17 20  1  0  0  0
M  END
> <minimizedAffinity>
-5.31889

> <CNNscore>
0.3199196458

> <CNNaffinity>
5.1821336746

> <CNN_VS>
1.6578663588

> <CNNaffinity_variance>
0.6309713125

$$$$
[H]OC(C#Cc1c([H])c([H])c2c(c1[H])-c1nc(C(=O)N([H])[H])c([H])n1C1([H])C([H])([H])C2([H])C1([H])[H])(C([H])([H])[H])C([H])([H])[H]


 27 30  0  0  0  0  0  0  0  0999 V2000
   39.7685   12.7523  -15.4357 C   0  0  0  0  0  0  0  0  0  0  0  0
   38.9598   11.9311  -16.1905 C   0  0  0  0  0  0  0  0  0  0  0  0
   37.5885   11.8376  -15.9853 C   0  0  0  0  0  0  0  0  0  0  0  0
   37.0796   12.6205  -14.9742 C   0  0  0  0  0  0  0  0  0  0  0  0
   35.6076   12.4394  -14.8459 C   0  0  0  0  0  0  0  0  0  0  0  0
   35.0056   13.8351  -14.7726 C   0  0  0  0  0  0  0  0  0  0  0  0
   34.9470   13.7816  -13.2406 C   0  0  0  0  0  0  0  0  0  0  0  0
   35.2211   12.2954  -13.3689 C   0  0  0  0  0  0  0  0  0  0  0  0
   36.1126   14.4761  -12.6674 N   0  0  0  0  0  0  0  0  0  0  0  0
   36.0977   15.3487  -11.6531 C   0  0  0  0  0  0  0  0  0  0  0  0
   37.3971   15.7587  -11.4365 C   0  0  0  0  0  0  0  0  0  0  0  0
   38.1786   15.1119  -12.3414 N   0  0  0  0  0  0  0  0  0  0  0  0
   37.3974   14.3401  -13.0805 C   0  0  0  0  0  0  0  0  0  0  0  0
   37.8676   13.4631  -14.1903 C   0  0  0  0  0  0  0  0  0  0  0  0
   39.2086   13.5290  -14.4202 C   0  0  0  0  0  0  0  0  0  0  0  0
   37.8123   16.7042  -10.4232 C   0  0  0  0  0  0  0  0  0  0  0  0
   37.3522   18.0438  -10.4242 N   0  0  0  0  0  0  0  0  0  0  0  0
   38.5964   16.3356   -9.5220 O   0  0  0  0  0  0  0  0  0  0  0  0
   37.8704   18.7817   -9.9061 H   0  0  0  0  0  0  0  0  0  0  0  0
   36.4939   18.3185  -10.9378 H   0  0  0  0  0  0  0  0  0  0  0  0
   42.3928   12.9096  -15.8245 C   0  0  0  0  0  0  0  0  0  0  0  0
   41.1911   12.8427  -15.6563 C   0  0  0  0  0  0  0  0  0  0  0  0
   44.5634   13.1269  -14.6722 C   0  0  0  0  0  0  0  0  0  0  0  0
   43.8507   12.9970  -16.0129 C   0  0  0  0  0  0  0  0  0  0  0  0
   44.3848   11.7927  -16.7491 C   0  0  0  0  0  0  0  0  0  0  0  0
   44.0888   14.1437  -16.7726 O   0  0  0  0  0  0  0  0  0  0  0  0
   44.0535   14.9455  -16.1859 H   0  0  0  0  0  0  0  0  0  0  0  0
 23 24  1  0  0  0
 24 25  1  0  0  0
 24 26  1  0  0  0
 24 21  1  0  0  0
 21 22  3  0  0  0
 22  1  1  0  0  0
  1  2  2  0  0  0
  2  3  1  0  0  0
  3  4  2  0  0  0
  4  5  1  0  0  0
  5  6  1  0  0  0
  6  7  1  0  0  0
  7  8  1  0  0  0
  7  9  1  0  0  0
  9 10  1  0  0  0
 10 11  2  0  0  0
 11 12  1  0  0  0
 12 13  2  0  0  0
 13 14  1  0  0  0
 14 15  2  0  0  0
 11 16  1  0  0  0
 16 17  1  0  0  0
 16 18  2  0  0  0
 15  1  1  0  0  0
 14  4  1  0  0  0
  8  5  1  0  0  0
 13  9  1  0  0  0
 26 27  1  0  0  0
 17 19  1  0  0  0
 17 20  1  0  0  0
M  END
> <minimizedAffinity>
-9.55794

> <CNNscore>
0.2806107998

> <CNNaffinity>
5.8065690994

> <CNN_VS>
1.6293859482

> <CNNaffinity_variance>
0.0556209907

$$$$
[H]OC(C#Cc1c([H])c([H])c2c(c1[H])-c1nc(C(=O)N([H])[H])c([H])n1C1([H])C([H])([H])C2([H])C1([H])[H])(C([H])([H])[H])C([H])([H])[H]


 27 30  0  0  0  0  0  0  0  0999 V2000
   35.3530   15.7649  -10.4074 C   0  0  0  0  0  0  0  0  0  0  0  0
   36.5448   16.3720  -10.0772 C   0  0  0  0  0  0  0  0  0  0  0  0
   36.6861   17.1846   -8.9587 C   0  0  0  0  0  0  0  0  0  0  0  0
   35.5550   17.3497   -8.1920 C   0  0  0  0  0  0  0  0  0  0  0  0
   35.8232   18.2356   -7.0260 C   0  0  0  0  0  0  0  0  0  0  0  0
   35.2442   17.5321   -5.8072 C   0  0  0  0  0  0  0  0  0  0  0  0
   33.9525   18.3561   -5.8853 C   0  0  0  0  0  0  0  0  0  0  0  0
   34.6865   19.2523   -6.8644 C   0  0  0  0  0  0  0  0  0  0  0  0
   32.9040   17.5847   -6.5744 N   0  0  0  0  0  0  0  0  0  0  0  0
   31.6298   17.4543   -6.1874 C   0  0  0  0  0  0  0  0  0  0  0  0
   30.9931   16.6522   -7.1120 C   0  0  0  0  0  0  0  0  0  0  0  0
   31.9150   16.3121   -8.0514 N   0  0  0  0  0  0  0  0  0  0  0  0
   33.0651   16.8780   -7.7210 C   0  0  0  0  0  0  0  0  0  0  0  0
   34.3323   16.7511   -8.4955 C   0  0  0  0  0  0  0  0  0  0  0  0
   34.2313   15.9607   -9.6002 C   0  0  0  0  0  0  0  0  0  0  0  0
   29.5998   16.2663   -7.0580 C   0  0  0  0  0  0  0  0  0  0  0  0
   29.1608   15.1775   -6.2654 N   0  0  0  0  0  0  0  0  0  0  0  0
   28.7578   16.9059   -7.7250 O   0  0  0  0  0  0  0  0  0  0  0  0
   28.2493   14.7159   -6.4588 H   0  0  0  0  0  0  0  0  0  0  0  0
   29.7339   14.8175   -5.4794 H   0  0  0  0  0  0  0  0  0  0  0  0
   35.0830   14.2077  -12.5440 C   0  0  0  0  0  0  0  0  0  0  0  0
   35.2162   14.9230  -11.5707 C   0  0  0  0  0  0  0  0  0  0  0  0
   33.6060   13.6228  -14.4316 C   0  0  0  0  0  0  0  0  0  0  0  0
   34.9173   13.3281  -13.7134 C   0  0  0  0  0  0  0  0  0  0  0  0
   36.0639   13.4781  -14.6831 C   0  0  0  0  0  0  0  0  0  0  0  0
   34.8919   12.0187  -13.2298 O   0  0  0  0  0  0  0  0  0  0  0  0
   33.9883   11.8141  -12.8693 H   0  0  0  0  0  0  0  0  0  0  0  0
 23 24  1  0  0  0
 24 25  1  0  0  0
 24 26  1  0  0  0
 24 21  1  0  0  0
 21 22  3  0  0  0
 22  1  1  0  0  0
  1  2  2  0  0  0
  2  3  1  0  0  0
  3  4  2  0  0  0
  4  5  1  0  0  0
  5  6  1  0  0  0
  6  7  1  0  0  0
  7  8  1  0  0  0
  7  9  1  0  0  0
  9 10  1  0  0  0
 10 11  2  0  0  0
 11 12  1  0  0  0
 12 13  2  0  0  0
 13 14  1  0  0  0
 14 15  2  0  0  0
 11 16  1  0  0  0
 16 17  1  0  0  0
 16 18  2  0  0  0
 15  1  1  0  0  0
 14  4  1  0  0  0
  8  5  1  0  0  0
 13  9  1  0  0  0
 26 27  1  0  0  0
 17 19  1  0  0  0
 17 20  1  0  0  0
M  END
> <minimizedAffinity>
-6.26190

> <CNNscore>
0.2745642066

> <CNNaffinity>
5.2686209679

> <CNN_VS>
1.4465746880

> <CNNaffinity_variance>
0.6231452227

$$$$
[H]OC(C#Cc1c([H])c([H])c2c(c1[H])-c1nc(C(=O)N([H])[H])c([H])n1C1([H])C([H])([H])C2([H])C1([H])[H])(C([H])([H])[H])C([H])([H])[H]


 27 30  0  0  0  0  0  0  0  0999 V2000
   42.1759   13.6951  -14.2250 C   0  0  0  0  0  0  0  0  0  0  0  0
   43.0699   13.2546  -15.1762 C   0  0  0  0  0  0  0  0  0  0  0  0
   42.6679   12.6032  -16.3361 C   0  0  0  0  0  0  0  0  0  0  0  0
   41.3113   12.4217  -16.4813 C   0  0  0  0  0  0  0  0  0  0  0  0
   40.9988   11.7163  -17.7545 C   0  0  0  0  0  0  0  0  0  0  0  0
   39.8789   12.5028  -18.4201 C   0  0  0  0  0  0  0  0  0  0  0  0
   38.8133   11.5511  -17.8610 C   0  0  0  0  0  0  0  0  0  0  0  0
   39.9564   10.6192  -17.5069 C   0  0  0  0  0  0  0  0  0  0  0  0
   38.2154   12.1242  -16.6431 N   0  0  0  0  0  0  0  0  0  0  0  0
   36.9117   12.1737  -16.3458 C   0  0  0  0  0  0  0  0  0  0  0  0
   36.7871   12.7892  -15.1173 C   0  0  0  0  0  0  0  0  0  0  0  0
   38.0412   13.1016  -14.6954 N   0  0  0  0  0  0  0  0  0  0  0  0
   38.8975   12.6977  -15.6205 C   0  0  0  0  0  0  0  0  0  0  0  0
   40.3777   12.8541  -15.5397 C   0  0  0  0  0  0  0  0  0  0  0  0
   40.8085   13.4892  -14.4144 C   0  0  0  0  0  0  0  0  0  0  0  0
   35.5356   13.0384  -14.4357 C   0  0  0  0  0  0  0  0  0  0  0  0
   34.9685   14.3349  -14.3744 N   0  0  0  0  0  0  0  0  0  0  0  0
   34.9351   12.0899  -13.8854 O   0  0  0  0  0  0  0  0  0  0  0  0
   34.2618   14.5695  -13.6485 H   0  0  0  0  0  0  0  0  0  0  0  0
   35.2427   15.0754  -15.0470 H   0  0  0  0  0  0  0  0  0  0  0  0
   42.9816   14.9338  -12.0160 C   0  0  0  0  0  0  0  0  0  0  0  0
   42.6029   14.3705  -13.0240 C   0  0  0  0  0  0  0  0  0  0  0  0
   44.3798   16.7612  -11.1260 C   0  0  0  0  0  0  0  0  0  0  0  0
   43.4489   15.6025  -10.7900 C   0  0  0  0  0  0  0  0  0  0  0  0
   42.2925   16.1124   -9.9651 C   0  0  0  0  0  0  0  0  0  0  0  0
   44.1522   14.6466  -10.0551 O   0  0  0  0  0  0  0  0  0  0  0  0
   45.0693   14.5492  -10.4263 H   0  0  0  0  0  0  0  0  0  0  0  0
 23 24  1  0  0  0
 24 25  1  0  0  0
 24 26  1  0  0  0
 24 21  1  0  0  0
 21 22  3  0  0  0
 22  1  1  0  0  0
  1  2  2  0  0  0
  2  3  1  0  0  0
  3  4  2  0  0  0
  4  5  1  0  0  0
  5  6  1  0  0  0
  6  7  1  0  0  0
  7  8  1  0  0  0
  7  9  1  0  0  0
  9 10  1  0  0  0
 10 11  2  0  0  0
 11 12  1  0  0  0
 12 13  2  0  0  0
 13 14  1  0  0  0
 14 15  2  0  0  0
 11 16  1  0  0  0
 16 17  1  0  0  0
 16 18  2  0  0  0
 15  1  1  0  0  0
 14  4  1  0  0  0
  8  5  1  0  0  0
 13  9  1  0  0  0
 26 27  1  0  0  0
 17 19  1  0  0  0
 17 20  1  0  0  0
M  END
> <minimizedAffinity>
-7.68371

> <CNNscore>
0.2653504014

> <CNNaffinity>
6.0754084587

> <CNN_VS>
1.6121120453

> <CNNaffinity_variance>
0.2101074159

$$$$
[H]OC(C#Cc1c([H])c([H])c2c(c1[H])-c1nc(C(=O)N([H])[H])c([H])n1C1([H])C([H])([H])C2([H])C1([H])[H])(C([H])([H])[H])C([H])([H])[H]


 27 30  0  0  0  0  0  0  0  0999 V2000
   36.6758   16.5527   -9.9069 C   0  0  0  0  0  0  0  0  0  0  0  0
   37.3314   17.7171  -10.2422 C   0  0  0  0  0  0  0  0  0  0  0  0
   37.7737   18.6277   -9.2901 C   0  0  0  0  0  0  0  0  0  0  0  0
   37.5165   18.2957   -7.9793 C   0  0  0  0  0  0  0  0  0  0  0  0
   38.0327   19.3393   -7.0516 C   0  0  0  0  0  0  0  0  0  0  0  0
   38.8019   18.6061   -5.9623 C   0  0  0  0  0  0  0  0  0  0  0  0
   37.5941   18.6436   -5.0172 C   0  0  0  0  0  0  0  0  0  0  0  0
   36.9864   19.6509   -5.9745 C   0  0  0  0  0  0  0  0  0  0  0  0
   36.8660   17.3648   -5.0794 N   0  0  0  0  0  0  0  0  0  0  0  0
   36.4102   16.6587   -4.0381 C   0  0  0  0  0  0  0  0  0  0  0  0
   35.7909   15.5316   -4.5375 C   0  0  0  0  0  0  0  0  0  0  0  0
   35.8896   15.5858   -5.8923 N   0  0  0  0  0  0  0  0  0  0  0  0
   36.5391   16.6940   -6.2121 C   0  0  0  0  0  0  0  0  0  0  0  0
   36.8559   17.1264   -7.6030 C   0  0  0  0  0  0  0  0  0  0  0  0
   36.4365   16.2569   -8.5640 C   0  0  0  0  0  0  0  0  0  0  0  0
   35.1632   14.5039   -3.7357 C   0  0  0  0  0  0  0  0  0  0  0  0
   35.8566   13.3270   -3.3611 N   0  0  0  0  0  0  0  0  0  0  0  0
   33.9797   14.6527   -3.3611 O   0  0  0  0  0  0  0  0  0  0  0  0
   35.3353   12.4772   -3.0652 H   0  0  0  0  0  0  0  0  0  0  0  0
   36.8930   13.2852   -3.3730 H   0  0  0  0  0  0  0  0  0  0  0  0
   35.8558   14.8164  -11.7443 C   0  0  0  0  0  0  0  0  0  0  0  0
   36.2204   15.6136  -10.9026 C   0  0  0  0  0  0  0  0  0  0  0  0
   35.7947   14.3540  -14.1669 C   0  0  0  0  0  0  0  0  0  0  0  0
   35.4259   13.8562  -12.7747 C   0  0  0  0  0  0  0  0  0  0  0  0
   36.0394   12.4956  -12.5508 C   0  0  0  0  0  0  0  0  0  0  0  0
   34.0370   13.7567  -12.6754 O   0  0  0  0  0  0  0  0  0  0  0  0
   33.6139   14.5318  -13.1321 H   0  0  0  0  0  0  0  0  0  0  0  0
 23 24  1  0  0  0
 24 25  1  0  0  0
 24 26  1  0  0  0
 24 21  1  0  0  0
 21 22  3  0  0  0
 22  1  1  0  0  0
  1  2  2  0  0  0
  2  3  1  0  0  0
  3  4  2  0  0  0
  4  5  1  0  0  0
  5  6  1  0  0  0
  6  7  1  0  0  0
  7  8  1  0  0  0
  7  9  1  0  0  0
  9 10  1  0  0  0
 10 11  2  0  0  0
 11 12  1  0  0  0
 12 13  2  0  0  0
 13 14  1  0  0  0
 14 15  2  0  0  0
 11 16  1  0  0  0
 16 17  1  0  0  0
 16 18  2  0  0  0
 15  1  1  0  0  0
 14  4  1  0  0  0
  8  5  1  0  0  0
 13  9  1  0  0  0
 26 27  1  0  0  0
 17 19  1  0  0  0
 17 20  1  0  0  0
M  END
> <minimizedAffinity>
-5.77942

> <CNNscore>
0.2442089915

> <CNNaffinity>
4.8492341042

> <CNN_VS>
1.1842265129

> <CNNaffinity_variance>
0.2523398399

$$$$
[H]OC(C#Cc1c([H])c([H])c2c(c1[H])-c1nc(C(=O)N([H])[H])c([H])n1C1([H])C([H])([H])C2([H])C1([H])[H])(C([H])([H])[H])C([H])([H])[H]


 27 30  0  0  0  0  0  0  0  0999 V2000
   39.5206   11.9061  -16.5877 C   0  0  0  0  0  0  0  0  0  0  0  0
   39.1207   11.0952  -17.6272 C   0  0  0  0  0  0  0  0  0  0  0  0
   37.7972   10.7143  -17.8126 C   0  0  0  0  0  0  0  0  0  0  0  0
   36.8997   11.1987  -16.8884 C   0  0  0  0  0  0  0  0  0  0  0  0
   35.5189   10.7279  -17.1851 C   0  0  0  0  0  0  0  0  0  0  0  0
   34.6191   11.9527  -17.1068 C   0  0  0  0  0  0  0  0  0  0  0  0
   34.2109   11.6201  -15.6658 C   0  0  0  0  0  0  0  0  0  0  0  0
   34.8344   10.2568  -15.8962 C   0  0  0  0  0  0  0  0  0  0  0  0
   35.0197   12.4067  -14.7190 N   0  0  0  0  0  0  0  0  0  0  0  0
   34.5681   13.0688  -13.6475 C   0  0  0  0  0  0  0  0  0  0  0  0
   35.6522   13.6679  -13.0399 C   0  0  0  0  0  0  0  0  0  0  0  0
   36.7515   13.3470  -13.7725 N   0  0  0  0  0  0  0  0  0  0  0  0
   36.3627   12.5863  -14.7836 C   0  0  0  0  0  0  0  0  0  0  0  0
   37.2683   12.0212  -15.8240 C   0  0  0  0  0  0  0  0  0  0  0  0
   38.5753   12.3742  -15.6737 C   0  0  0  0  0  0  0  0  0  0  0  0
   35.5908   14.4805  -11.8444 C   0  0  0  0  0  0  0  0  0  0  0  0
   35.0423   15.7863  -11.8612 N   0  0  0  0  0  0  0  0  0  0  0  0
   36.0311   14.0241  -10.7670 O   0  0  0  0  0  0  0  0  0  0  0  0
   35.2724   16.4665  -11.1091 H   0  0  0  0  0  0  0  0  0  0  0  0
   34.4030   16.0926  -12.6184 H   0  0  0  0  0  0  0  0  0  0  0  0
   42.0601   12.6078  -16.2381 C   0  0  0  0  0  0  0  0  0  0  0  0
   40.8971   12.2962  -16.4035 C   0  0  0  0  0  0  0  0  0  0  0  0
   43.7468   13.2059  -14.5400 C   0  0  0  0  0  0  0  0  0  0  0  0
   43.4677   12.9820  -16.0213 C   0  0  0  0  0  0  0  0  0  0  0  0
   44.4069   11.9275  -16.5538 C   0  0  0  0  0  0  0  0  0  0  0  0
   43.6763   14.1761  -16.7136 O   0  0  0  0  0  0  0  0  0  0  0  0
   43.3263   14.9372  -16.1783 H   0  0  0  0  0  0  0  0  0  0  0  0
 23 24  1  0  0  0
 24 25  1  0  0  0
 24 26  1  0  0  0
 24 21  1  0  0  0
 21 22  3  0  0  0
 22  1  1  0  0  0
  1  2  2  0  0  0
  2  3  1  0  0  0
  3  4  2  0  0  0
  4  5  1  0  0  0
  5  6  1  0  0  0
  6  7  1  0  0  0
  7  8  1  0  0  0
  7  9  1  0  0  0
  9 10  1  0  0  0
 10 11  2  0  0  0
 11 12  1  0  0  0
 12 13  2  0  0  0
 13 14  1  0  0  0
 14 15  2  0  0  0
 11 16  1  0  0  0
 16 17  1  0  0  0
 16 18  2  0  0  0
 15  1  1  0  0  0
 14  4  1  0  0  0
  8  5  1  0  0  0
 13  9  1  0  0  0
 26 27  1  0  0  0
 17 19  1  0  0  0
 17 20  1  0  0  0
M  END
> <minimizedAffinity>
-8.90172

> <CNNscore>
0.2436239719

> <CNNaffinity>
6.3965153694

> <CNN_VS>
1.5583444834

> <CNNaffinity_variance>
0.1052561775

$$$$
[H]O[C@](C#Cc1c([H])c([H])c2c(c1[H])-n1nc(C(=O)N([H])[H])c(C(=O)N([H])C([H])([H])[H])c1[C@]([H])(F)C([H])([H])O2)(c1noc(C([H])([H])[H])c1[H])C([H])([H])[H]


 37 40  0  0  0  0  0  0  0  0999 V2000
   37.1442   12.1684  -16.1364 C   0  0  0  0  0  0  0  0  0  0  0  0
   37.2954   12.8081  -14.9348 C   0  0  0  0  0  0  0  0  0  0  0  0
   38.6393   13.0824  -14.7504 N   0  0  0  0  0  0  0  0  0  0  0  0
   39.3132   12.6475  -15.7715 N   0  0  0  0  0  0  0  0  0  0  0  0
   38.4697   12.0853  -16.6492 C   0  0  0  0  0  0  0  0  0  0  0  0
   38.6755   11.4330  -17.9438 C   0  0  0  0  0  0  0  0  0  0  0  0
   38.2198   10.1246  -17.8129 F   0  0  0  0  0  0  0  0  0  0  0  0
   40.0079   11.4530  -18.5718 C   0  0  0  0  0  0  0  0  0  0  0  0
   41.1342   11.3026  -17.7678 O   0  0  0  0  0  0  0  0  0  0  0  0
   41.5622   12.1232  -16.7210 C   0  0  0  0  0  0  0  0  0  0  0  0
   42.9574   12.2467  -16.6849 C   0  0  0  0  0  0  0  0  0  0  0  0
   43.4376   13.0340  -15.6772 C   0  0  0  0  0  0  0  0  0  0  0  0
   42.6448   13.6856  -14.7353 C   0  0  0  0  0  0  0  0  0  0  0  0
   41.3023   13.5388  -14.8158 C   0  0  0  0  0  0  0  0  0  0  0  0
   40.7445   12.7553  -15.8088 C   0  0  0  0  0  0  0  0  0  0  0  0
   33.7047   10.5130  -16.7526 C   0  0  0  0  0  0  0  0  0  0  0  0
   34.8524   11.0221  -16.0284 N   0  0  0  0  0  0  0  0  0  0  0  0
   35.9293   11.6016  -16.7011 C   0  0  0  0  0  0  0  0  0  0  0  0
   35.8033   11.6233  -17.9812 O   0  0  0  0  0  0  0  0  0  0  0  0
   34.8208   10.8923  -15.0253 H   0  0  0  0  0  0  0  0  0  0  0  0
   36.2990   13.1843  -13.9495 C   0  0  0  0  0  0  0  0  0  0  0  0
   35.8551   14.4668  -13.5878 N   0  0  0  0  0  0  0  0  0  0  0  0
   35.7141   12.2279  -13.2910 O   0  0  0  0  0  0  0  0  0  0  0  0
   34.9712   14.8956  -13.9950 H   0  0  0  0  0  0  0  0  0  0  0  0
   36.4049   15.0307  -12.8968 H   0  0  0  0  0  0  0  0  0  0  0  0
   43.2833   14.4399  -13.6893 C   0  0  0  0  0  0  0  0  0  0  0  0
   43.7653   15.1349  -12.8135 C   0  0  0  0  0  0  0  0  0  0  0  0
   44.2686   16.0176  -11.7817 C   0  0  0  0  0  0  0  0  0  0  0  0
   43.1189   16.3667  -10.7991 C   0  0  0  0  0  0  0  0  0  0  0  0
   45.1630   15.2756  -10.9350 O   0  0  0  0  0  0  0  0  0  0  0  0
   45.9354   14.9908  -11.4894 H   0  0  0  0  0  0  0  0  0  0  0  0
   44.8928   17.2110  -12.3009 C   0  0  0  0  0  0  0  0  0  0  0  0
   46.1794   17.6356  -11.9702 C   0  0  0  0  0  0  0  0  0  0  0  0
   46.4372   18.7795  -12.6735 C   0  0  0  0  0  0  0  0  0  0  0  0
   47.6809   19.6026  -12.6578 C   0  0  0  0  0  0  0  0  0  0  0  0
   45.3790   19.0472  -13.3925 O   0  0  0  0  0  0  0  0  0  0  0  0
   44.4536   18.1239  -13.1781 N   0  0  0  0  0  0  0  0  0  0  0  0
 16 17  1  0  0  0
 17 18  1  0  0  0
 18 19  2  0  0  0
 18  1  1  0  0  0
  1  2  1  0  0  0
  2  3  2  0  0  0
  3  4  1  0  0  0
  4  5  1  0  0  0
  5  6  1  0  0  0
  6  7  1  0  0  0
  6  8  1  0  0  0
  8  9  1  0  0  0
  9 10  1  0  0  0
 10 11  2  0  0  0
 11 12  1  0  0  0
 12 13  2  0  0  0
 13 14  1  0  0  0
 14 15  2  0  0  0
 13 26  1  0  0  0
 26 27  3  0  0  0
 28 27  1  0  0  0
 28 29  1  0  0  0
 28 30  1  0  0  0
 28 32  1  0  0  0
 32 33  1  0  0  0
 33 34  2  0  0  0
 34 35  1  0  0  0
 34 36  1  0  0  0
 36 37  1  0  0  0
  2 21  1  0  0  0
 21 22  1  0  0  0
 21 23  2  0  0  0
  5  1  2  0  0  0
 15 10  1  0  0  0
 37 32  2  0  0  0
  4 15  1  0  0  0
 17 20  1  0  0  0
 30 31  1  0  0  0
 22 24  1  0  0  0
 22 25  1  0  0  0
M  END
> <minimizedAffinity>
-8.78090

> <CNNscore>
0.5656818151

> <CNNaffinity>
7.0688071251

> <CNN_VS>
3.9986956120

> <CNNaffinity_variance>
0.2613855898

$$$$
[H]O[C@](C#Cc1c([H])c([H])c2c(c1[H])-n1nc(C(=O)N([H])[H])c(C(=O)N([H])C([H])([H])[H])c1[C@]([H])(F)C([H])([H])O2)(c1noc(C([H])([H])[H])c1[H])C([H])([H])[H]


 37 40  0  0  0  0  0  0  0  0999 V2000
   35.6244   13.9109  -13.5425 C   0  0  0  0  0  0  0  0  0  0  0  0
   36.7377   14.4100  -12.9200 C   0  0  0  0  0  0  0  0  0  0  0  0
   37.8547   14.0090  -13.6321 N   0  0  0  0  0  0  0  0  0  0  0  0
   37.4839   13.2964  -14.6522 N   0  0  0  0  0  0  0  0  0  0  0  0
   36.1466   13.1994  -14.6594 C   0  0  0  0  0  0  0  0  0  0  0  0
   35.2069   12.5177  -15.5517 C   0  0  0  0  0  0  0  0  0  0  0  0
   34.5185   11.5881  -14.7778 F   0  0  0  0  0  0  0  0  0  0  0  0
   35.6956   11.8924  -16.7927 C   0  0  0  0  0  0  0  0  0  0  0  0
   36.9186   11.2278  -16.7762 O   0  0  0  0  0  0  0  0  0  0  0  0
   38.1810   11.7519  -16.4861 C   0  0  0  0  0  0  0  0  0  0  0  0
   39.1815   11.1928  -17.2920 C   0  0  0  0  0  0  0  0  0  0  0  0
   40.4413   11.6623  -17.0508 C   0  0  0  0  0  0  0  0  0  0  0  0
   40.7585   12.6215  -16.0918 C   0  0  0  0  0  0  0  0  0  0  0  0
   39.7560   13.1346  -15.3422 C   0  0  0  0  0  0  0  0  0  0  0  0
   38.4552   12.7056  -15.5293 C   0  0  0  0  0  0  0  0  0  0  0  0
   32.1137   15.0280  -12.3688 C   0  0  0  0  0  0  0  0  0  0  0  0
   33.4979   15.1295  -12.7868 N   0  0  0  0  0  0  0  0  0  0  0  0
   34.2411   13.9902  -13.0994 C   0  0  0  0  0  0  0  0  0  0  0  0
   33.5948   12.8854  -12.9704 O   0  0  0  0  0  0  0  0  0  0  0  0
   33.8767   16.0678  -12.7975 H   0  0  0  0  0  0  0  0  0  0  0  0
   36.8484   15.2252  -11.7249 C   0  0  0  0  0  0  0  0  0  0  0  0
   36.8041   16.6236  -11.6027 N   0  0  0  0  0  0  0  0  0  0  0  0
   37.0112   14.6102  -10.5910 O   0  0  0  0  0  0  0  0  0  0  0  0
   35.9137   17.1407  -11.3367 H   0  0  0  0  0  0  0  0  0  0  0  0
   37.6692   17.1878  -11.7788 H   0  0  0  0  0  0  0  0  0  0  0  0
   42.1374   12.9867  -15.9012 C   0  0  0  0  0  0  0  0  0  0  0  0
   43.3153   13.2231  -15.7036 C   0  0  0  0  0  0  0  0  0  0  0  0
   44.7246   13.4207  -15.4355 C   0  0  0  0  0  0  0  0  0  0  0  0
   45.5603   12.7305  -16.5465 C   0  0  0  0  0  0  0  0  0  0  0  0
   45.0448   14.8066  -15.6456 O   0  0  0  0  0  0  0  0  0  0  0  0
   44.5352   15.3376  -14.9798 H   0  0  0  0  0  0  0  0  0  0  0  0
   45.1280   12.9732  -14.1238 C   0  0  0  0  0  0  0  0  0  0  0  0
   44.4470   13.2731  -12.9443 C   0  0  0  0  0  0  0  0  0  0  0  0
   45.1013   12.6567  -11.9140 C   0  0  0  0  0  0  0  0  0  0  0  0
   44.7516   12.6789  -10.4643 C   0  0  0  0  0  0  0  0  0  0  0  0
   46.1221   12.0173  -12.4216 O   0  0  0  0  0  0  0  0  0  0  0  0
   46.1501   12.1995  -13.7333 N   0  0  0  0  0  0  0  0  0  0  0  0
 16 17  1  0  0  0
 17 18  1  0  0  0
 18 19  2  0  0  0
 18  1  1  0  0  0
  1  2  1  0  0  0
  2  3  2  0  0  0
  3  4  1  0  0  0
  4  5  1  0  0  0
  5  6  1  0  0  0
  6  7  1  0  0  0
  6  8  1  0  0  0
  8  9  1  0  0  0
  9 10  1  0  0  0
 10 11  2  0  0  0
 11 12  1  0  0  0
 12 13  2  0  0  0
 13 14  1  0  0  0
 14 15  2  0  0  0
 13 26  1  0  0  0
 26 27  3  0  0  0
 28 27  1  0  0  0
 28 29  1  0  0  0
 28 30  1  0  0  0
 28 32  1  0  0  0
 32 33  1  0  0  0
 33 34  2  0  0  0
 34 35  1  0  0  0
 34 36  1  0  0  0
 36 37  1  0  0  0
  2 21  1  0  0  0
 21 22  1  0  0  0
 21 23  2  0  0  0
  5  1  2  0  0  0
 15 10  1  0  0  0
 37 32  2  0  0  0
  4 15  1  0  0  0
 17 20  1  0  0  0
 30 31  1  0  0  0
 22 24  1  0  0  0
 22 25  1  0  0  0
M  END
> <minimizedAffinity>
-9.70731

> <CNNscore>
0.4766824245

> <CNNaffinity>
7.0082483292

> <CNN_VS>
3.3407087326

> <CNNaffinity_variance>
0.0294032935

$$$$
[H]O[C@](C#Cc1c([H])c([H])c2c(c1[H])-n1nc(C(=O)N([H])[H])c(C(=O)N([H])C([H])([H])[H])c1[C@]([H])(F)C([H])([H])O2)(c1noc(C([H])([H])[H])c1[H])C([H])([H])[H]


 37 40  0  0  0  0  0  0  0  0999 V2000
   37.3632   12.0716  -16.2163 C   0  0  0  0  0  0  0  0  0  0  0  0
   38.5960   11.8681  -16.7775 C   0  0  0  0  0  0  0  0  0  0  0  0
   39.5363   12.5568  -16.0312 N   0  0  0  0  0  0  0  0  0  0  0  0
   38.9460   13.1658  -15.0480 N   0  0  0  0  0  0  0  0  0  0  0  0
   37.6303   12.9126  -15.0992 C   0  0  0  0  0  0  0  0  0  0  0  0
   36.5050   13.3420  -14.2665 C   0  0  0  0  0  0  0  0  0  0  0  0
   35.6373   14.0482  -15.0944 F   0  0  0  0  0  0  0  0  0  0  0  0
   36.7560   14.0932  -13.0245 C   0  0  0  0  0  0  0  0  0  0  0  0
   37.7651   15.0519  -13.0089 O   0  0  0  0  0  0  0  0  0  0  0  0
   39.1324   14.8684  -13.2313 C   0  0  0  0  0  0  0  0  0  0  0  0
   39.9150   15.6812  -12.4006 C   0  0  0  0  0  0  0  0  0  0  0  0
   41.2634   15.5506  -12.5759 C   0  0  0  0  0  0  0  0  0  0  0  0
   41.8628   14.6907  -13.4932 C   0  0  0  0  0  0  0  0  0  0  0  0
   41.0637   13.9227  -14.2690 C   0  0  0  0  0  0  0  0  0  0  0  0
   39.6888   14.0027  -14.1484 C   0  0  0  0  0  0  0  0  0  0  0  0
   33.7896   10.6629  -16.6581 C   0  0  0  0  0  0  0  0  0  0  0  0
   35.0272   11.0347  -16.0016 N   0  0  0  0  0  0  0  0  0  0  0  0
   36.0700   11.6289  -16.7141 C   0  0  0  0  0  0  0  0  0  0  0  0
   35.8282   11.7933  -17.9669 O   0  0  0  0  0  0  0  0  0  0  0  0
   35.0805   10.8003  -15.0187 H   0  0  0  0  0  0  0  0  0  0  0  0
   38.9702   11.0898  -17.9433 C   0  0  0  0  0  0  0  0  0  0  0  0
   38.1480   10.5515  -18.9468 N   0  0  0  0  0  0  0  0  0  0  0  0
   40.2337   10.8366  -18.1166 O   0  0  0  0  0  0  0  0  0  0  0  0
   37.9919   11.0447  -19.8759 H   0  0  0  0  0  0  0  0  0  0  0  0
   37.6652    9.6355  -18.7864 H   0  0  0  0  0  0  0  0  0  0  0  0
   43.2967   14.6926  -13.6159 C   0  0  0  0  0  0  0  0  0  0  0  0
   44.5006   14.7284  -13.7935 C   0  0  0  0  0  0  0  0  0  0  0  0
   45.9171   14.8146  -14.0823 C   0  0  0  0  0  0  0  0  0  0  0  0
   46.7014   13.9359  -13.0714 C   0  0  0  0  0  0  0  0  0  0  0  0
   46.1774   14.1373  -15.3236 O   0  0  0  0  0  0  0  0  0  0  0  0
   45.6947   14.6259  -16.0401 H   0  0  0  0  0  0  0  0  0  0  0  0
   46.4188   16.1679  -14.0977 C   0  0  0  0  0  0  0  0  0  0  0  0
   46.2490   17.0837  -13.0597 C   0  0  0  0  0  0  0  0  0  0  0  0
   46.8815   18.2426  -13.4154 C   0  0  0  0  0  0  0  0  0  0  0  0
   46.9811   19.5082  -12.6324 C   0  0  0  0  0  0  0  0  0  0  0  0
   47.4081   18.0577  -14.5973 O   0  0  0  0  0  0  0  0  0  0  0  0
   47.1382   16.8297  -15.0143 N   0  0  0  0  0  0  0  0  0  0  0  0
 16 17  1  0  0  0
 17 18  1  0  0  0
 18 19  2  0  0  0
 18  1  1  0  0  0
  1  2  1  0  0  0
  2  3  2  0  0  0
  3  4  1  0  0  0
  4  5  1  0  0  0
  5  6  1  0  0  0
  6  7  1  0  0  0
  6  8  1  0  0  0
  8  9  1  0  0  0
  9 10  1  0  0  0
 10 11  2  0  0  0
 11 12  1  0  0  0
 12 13  2  0  0  0
 13 14  1  0  0  0
 14 15  2  0  0  0
 13 26  1  0  0  0
 26 27  3  0  0  0
 28 27  1  0  0  0
 28 29  1  0  0  0
 28 30  1  0  0  0
 28 32  1  0  0  0
 32 33  1  0  0  0
 33 34  2  0  0  0
 34 35  1  0  0  0
 34 36  1  0  0  0
 36 37  1  0  0  0
  2 21  1  0  0  0
 21 22  1  0  0  0
 21 23  2  0  0  0
  5  1  2  0  0  0
 15 10  1  0  0  0
 37 32  2  0  0  0
  4 15  1  0  0  0
 17 20  1  0  0  0
 30 31  1  0  0  0
 22 24  1  0  0  0
 22 25  1  0  0  0
M  END
> <minimizedAffinity>
-8.53160

> <CNNscore>
0.4614284635

> <CNNaffinity>
6.9818625450

> <CNN_VS>
3.2216300964

> <CNNaffinity_variance>
0.4590479434

$$$$
[H]O[C@](C#Cc1c([H])c([H])c2c(c1[H])-n1nc(C(=O)N([H])[H])c(C(=O)N([H])C([H])([H])[H])c1[C@]([H])(F)C([H])([H])O2)(c1noc(C([H])([H])[H])c1[H])C([H])([H])[H]


 37 40  0  0  0  0  0  0  0  0999 V2000
   35.4445   14.8021  -12.6406 C   0  0  0  0  0  0  0  0  0  0  0  0
   36.7166   15.1807  -12.3025 C   0  0  0  0  0  0  0  0  0  0  0  0
   37.6036   14.5466  -13.1548 N   0  0  0  0  0  0  0  0  0  0  0  0
   36.9436   13.8057  -13.9923 N   0  0  0  0  0  0  0  0  0  0  0  0
   35.6315   13.9156  -13.7387 C   0  0  0  0  0  0  0  0  0  0  0  0
   34.4492   13.3050  -14.3496 C   0  0  0  0  0  0  0  0  0  0  0  0
   33.8142   12.5705  -13.3524 F   0  0  0  0  0  0  0  0  0  0  0  0
   34.5901   12.4967  -15.5729 C   0  0  0  0  0  0  0  0  0  0  0  0
   35.6922   11.6563  -15.7022 O   0  0  0  0  0  0  0  0  0  0  0  0
   37.0452   12.0049  -15.7189 C   0  0  0  0  0  0  0  0  0  0  0  0
   37.7794   11.2243  -16.6215 C   0  0  0  0  0  0  0  0  0  0  0  0
   39.1128   11.5149  -16.6785 C   0  0  0  0  0  0  0  0  0  0  0  0
   39.7413   12.5007  -15.9211 C   0  0  0  0  0  0  0  0  0  0  0  0
   38.9877   13.2311  -15.0673 C   0  0  0  0  0  0  0  0  0  0  0  0
   37.6308   12.9917  -14.9549 C   0  0  0  0  0  0  0  0  0  0  0  0
   31.7882   15.6179  -11.6829 C   0  0  0  0  0  0  0  0  0  0  0  0
   32.9304   15.2940  -12.5144 N   0  0  0  0  0  0  0  0  0  0  0  0
   34.2020   15.1353  -11.9613 C   0  0  0  0  0  0  0  0  0  0  0  0
   34.2505   15.3119  -10.6879 O   0  0  0  0  0  0  0  0  0  0  0  0
   32.7370   15.2299  -13.5057 H   0  0  0  0  0  0  0  0  0  0  0  0
   37.1733   16.0790  -11.2587 C   0  0  0  0  0  0  0  0  0  0  0  0
   36.6713   17.3399  -10.8969 N   0  0  0  0  0  0  0  0  0  0  0  0
   38.1850   15.6968  -10.5371 O   0  0  0  0  0  0  0  0  0  0  0  0
   35.9868   17.4674  -10.0931 H   0  0  0  0  0  0  0  0  0  0  0  0
   36.9716   18.1906  -11.4298 H   0  0  0  0  0  0  0  0  0  0  0  0
   41.1662   12.6656  -16.0367 C   0  0  0  0  0  0  0  0  0  0  0  0
   42.3736   12.8215  -16.0544 C   0  0  0  0  0  0  0  0  0  0  0  0
   43.8067   13.0179  -15.9858 C   0  0  0  0  0  0  0  0  0  0  0  0
   44.5183   11.8849  -16.7726 C   0  0  0  0  0  0  0  0  0  0  0  0
   44.1518   14.1768  -16.7637 O   0  0  0  0  0  0  0  0  0  0  0  0
   43.7204   14.9635  -16.3395 H   0  0  0  0  0  0  0  0  0  0  0  0
   44.3095   13.1125  -14.6362 C   0  0  0  0  0  0  0  0  0  0  0  0
   43.5332   13.4477  -13.5272 C   0  0  0  0  0  0  0  0  0  0  0  0
   44.3392   13.4073  -12.4234 C   0  0  0  0  0  0  0  0  0  0  0  0
   43.9654   13.6861  -11.0067 C   0  0  0  0  0  0  0  0  0  0  0  0
   45.5374   13.0703  -12.8223 O   0  0  0  0  0  0  0  0  0  0  0  0
   45.5332   12.8946  -14.1352 N   0  0  0  0  0  0  0  0  0  0  0  0
 16 17  1  0  0  0
 17 18  1  0  0  0
 18 19  2  0  0  0
 18  1  1  0  0  0
  1  2  1  0  0  0
  2  3  2  0  0  0
  3  4  1  0  0  0
  4  5  1  0  0  0
  5  6  1  0  0  0
  6  7  1  0  0  0
  6  8  1  0  0  0
  8  9  1  0  0  0
  9 10  1  0  0  0
 10 11  2  0  0  0
 11 12  1  0  0  0
 12 13  2  0  0  0
 13 14  1  0  0  0
 14 15  2  0  0  0
 13 26  1  0  0  0
 26 27  3  0  0  0
 28 27  1  0  0  0
 28 29  1  0  0  0
 28 30  1  0  0  0
 28 32  1  0  0  0
 32 33  1  0  0  0
 33 34  2  0  0  0
 34 35  1  0  0  0
 34 36  1  0  0  0
 36 37  1  0  0  0
  2 21  1  0  0  0
 21 22  1  0  0  0
 21 23  2  0  0  0
  5  1  2  0  0  0
 15 10  1  0  0  0
 37 32  2  0  0  0
  4 15  1  0  0  0
 17 20  1  0  0  0
 30 31  1  0  0  0
 22 24  1  0  0  0
 22 25  1  0  0  0
M  END
> <minimizedAffinity>
-10.38843

> <CNNscore>
0.4233447015

> <CNNaffinity>
6.8195228577

> <CNN_VS>
2.8870089054

> <CNNaffinity_variance>
0.0788956657

$$$$
[H]O[C@](C#Cc1c([H])c([H])c2c(c1[H])-n1nc(C(=O)N([H])[H])c(C(=O)N([H])C([H])([H])[H])c1[C@]([H])(F)C([H])([H])O2)(c1noc(C([H])([H])[H])c1[H])C([H])([H])[H]


 37 40  0  0  0  0  0  0  0  0999 V2000
   43.6928   14.2939  -13.8788 C   0  0  0  0  0  0  0  0  0  0  0  0
   42.6266   14.7232  -13.1337 C   0  0  0  0  0  0  0  0  0  0  0  0
   41.4697   14.1950  -13.6795 N   0  0  0  0  0  0  0  0  0  0  0  0
   41.7716   13.4683  -14.7122 N   0  0  0  0  0  0  0  0  0  0  0  0
   43.1008   13.4829  -14.8879 C   0  0  0  0  0  0  0  0  0  0  0  0
   43.9760   12.8618  -15.8841 C   0  0  0  0  0  0  0  0  0  0  0  0
   44.6337   13.8959  -16.5435 F   0  0  0  0  0  0  0  0  0  0  0  0
   43.4187   11.9048  -16.8554 C   0  0  0  0  0  0  0  0  0  0  0  0
   42.1619   12.1523  -17.4003 O   0  0  0  0  0  0  0  0  0  0  0  0
   40.9391   12.2611  -16.7331 C   0  0  0  0  0  0  0  0  0  0  0  0
   39.8869   11.6963  -17.4660 C   0  0  0  0  0  0  0  0  0  0  0  0
   38.6622   11.7773  -16.8666 C   0  0  0  0  0  0  0  0  0  0  0  0
   38.4255   12.3636  -15.6254 C   0  0  0  0  0  0  0  0  0  0  0  0
   39.4756   12.8907  -14.9546 C   0  0  0  0  0  0  0  0  0  0  0  0
   40.7449   12.8468  -15.5004 C   0  0  0  0  0  0  0  0  0  0  0  0
   47.1072   16.1082  -13.8472 C   0  0  0  0  0  0  0  0  0  0  0  0
   45.6897   15.8931  -14.0605 N   0  0  0  0  0  0  0  0  0  0  0  0
   45.0903   14.6737  -13.7416 C   0  0  0  0  0  0  0  0  0  0  0  0
   45.9009   13.7938  -13.2685 O   0  0  0  0  0  0  0  0  0  0  0  0
   45.1949   16.6693  -14.4811 H   0  0  0  0  0  0  0  0  0  0  0  0
   42.5948   15.5784  -11.9621 C   0  0  0  0  0  0  0  0  0  0  0  0
   42.0673   15.3115  -10.6881 N   0  0  0  0  0  0  0  0  0  0  0  0
   43.1190   16.7635  -12.0688 O   0  0  0  0  0  0  0  0  0  0  0  0
   42.6757   14.9789   -9.8818 H   0  0  0  0  0  0  0  0  0  0  0  0
   41.0419   15.4382  -10.5138 H   0  0  0  0  0  0  0  0  0  0  0  0
   37.0748   12.4327  -15.1337 C   0  0  0  0  0  0  0  0  0  0  0  0
   35.9628   12.5003  -14.6425 C   0  0  0  0  0  0  0  0  0  0  0  0
   34.6795   12.5969  -13.9785 C   0  0  0  0  0  0  0  0  0  0  0  0
   33.5491   12.5864  -15.0422 C   0  0  0  0  0  0  0  0  0  0  0  0
   34.4305   11.3686  -13.2737 O   0  0  0  0  0  0  0  0  0  0  0  0
   35.1259   11.2784  -12.5713 H   0  0  0  0  0  0  0  0  0  0  0  0
   34.5678   13.7431  -13.1084 C   0  0  0  0  0  0  0  0  0  0  0  0
   35.6405   14.3342  -12.4415 C   0  0  0  0  0  0  0  0  0  0  0  0
   35.1596   15.4055  -11.7409 C   0  0  0  0  0  0  0  0  0  0  0  0
   35.9236   16.3514  -10.8770 C   0  0  0  0  0  0  0  0  0  0  0  0
   33.8726   15.4734  -11.9584 O   0  0  0  0  0  0  0  0  0  0  0  0
   33.5085   14.4897  -12.7675 N   0  0  0  0  0  0  0  0  0  0  0  0
 16 17  1  0  0  0
 17 18  1  0  0  0
 18 19  2  0  0  0
 18  1  1  0  0  0
  1  2  1  0  0  0
  2  3  2  0  0  0
  3  4  1  0  0  0
  4  5  1  0  0  0
  5  6  1  0  0  0
  6  7  1  0  0  0
  6  8  1  0  0  0
  8  9  1  0  0  0
  9 10  1  0  0  0
 10 11  2  0  0  0
 11 12  1  0  0  0
 12 13  2  0  0  0
 13 14  1  0  0  0
 14 15  2  0  0  0
 13 26  1  0  0  0
 26 27  3  0  0  0
 28 27  1  0  0  0
 28 29  1  0  0  0
 28 30  1  0  0  0
 28 32  1  0  0  0
 32 33  1  0  0  0
 33 34  2  0  0  0
 34 35  1  0  0  0
 34 36  1  0  0  0
 36 37  1  0  0  0
  2 21  1  0  0  0
 21 22  1  0  0  0
 21 23  2  0  0  0
  5  1  2  0  0  0
 15 10  1  0  0  0
 37 32  2  0  0  0
  4 15  1  0  0  0
 17 20  1  0  0  0
 30 31  1  0  0  0
 22 24  1  0  0  0
 22 25  1  0  0  0
M  END
> <minimizedAffinity>
-8.72525

> <CNNscore>
0.2348235101

> <CNNaffinity>
6.5189294815

> <CNN_VS>
1.5307979584

> <CNNaffinity_variance>
0.2744319439

$$$$
[H]O[C@](C#Cc1c([H])c([H])c2c(c1[H])-n1nc(C(=O)N([H])[H])c(C(=O)N([H])C([H])([H])[H])c1[C@]([H])(F)C([H])([H])O2)(c1noc(C([H])([H])[H])c1[H])C([H])([H])[H]


 37 40  0  0  0  0  0  0  0  0999 V2000
   37.9731   12.6050  -15.3961 C   0  0  0  0  0  0  0  0  0  0  0  0
   38.2847   13.3085  -14.2629 C   0  0  0  0  0  0  0  0  0  0  0  0
   39.6508   13.5291  -14.2459 N   0  0  0  0  0  0  0  0  0  0  0  0
   40.1871   13.0015  -15.3041 N   0  0  0  0  0  0  0  0  0  0  0  0
   39.2278   12.4279  -16.0449 C   0  0  0  0  0  0  0  0  0  0  0  0
   39.2597   11.6891  -17.3087 C   0  0  0  0  0  0  0  0  0  0  0  0
   38.7689   10.4142  -17.0428 F   0  0  0  0  0  0  0  0  0  0  0  0
   40.5125   11.6074  -18.0793 C   0  0  0  0  0  0  0  0  0  0  0  0
   41.7153   11.4526  -17.3959 O   0  0  0  0  0  0  0  0  0  0  0  0
   42.2915   12.3139  -16.4586 C   0  0  0  0  0  0  0  0  0  0  0  0
   43.6858   12.3727  -16.5844 C   0  0  0  0  0  0  0  0  0  0  0  0
   44.3081   13.1959  -15.6895 C   0  0  0  0  0  0  0  0  0  0  0  0
   43.6536   13.9405  -14.7110 C   0  0  0  0  0  0  0  0  0  0  0  0
   42.3057   13.8533  -14.6335 C   0  0  0  0  0  0  0  0  0  0  0  0
   41.6082   13.0384  -15.5055 C   0  0  0  0  0  0  0  0  0  0  0  0
   34.9120   11.1693  -17.2720 C   0  0  0  0  0  0  0  0  0  0  0  0
   36.2400   11.7109  -17.0619 N   0  0  0  0  0  0  0  0  0  0  0  0
   36.6802   12.0635  -15.7853 C   0  0  0  0  0  0  0  0  0  0  0  0
   35.8115   11.8746  -14.8554 O   0  0  0  0  0  0  0  0  0  0  0  0
   36.7901   11.8399  -17.9014 H   0  0  0  0  0  0  0  0  0  0  0  0
   37.4219   13.7909  -13.2009 C   0  0  0  0  0  0  0  0  0  0  0  0
   36.7230   13.0566  -12.2288 N   0  0  0  0  0  0  0  0  0  0  0  0
   37.2488   15.0759  -13.1043 O   0  0  0  0  0  0  0  0  0  0  0  0
   37.1054   12.9088  -11.2476 H   0  0  0  0  0  0  0  0  0  0  0  0
   35.7943   12.6335  -12.4661 H   0  0  0  0  0  0  0  0  0  0  0  0
   44.4361   14.7256  -13.7933 C   0  0  0  0  0  0  0  0  0  0  0  0
   45.0675   15.4570  -13.0524 C   0  0  0  0  0  0  0  0  0  0  0  0
   45.7767   16.3971  -12.2096 C   0  0  0  0  0  0  0  0  0  0  0  0
   45.3340   16.1999  -10.7351 C   0  0  0  0  0  0  0  0  0  0  0  0
   47.1615   16.0140  -12.1539 O   0  0  0  0  0  0  0  0  0  0  0  0
   47.5329   16.0934  -13.0709 H   0  0  0  0  0  0  0  0  0  0  0  0
   45.6198   17.7710  -12.6232 C   0  0  0  0  0  0  0  0  0  0  0  0
   44.4246   18.3250  -13.0812 C   0  0  0  0  0  0  0  0  0  0  0  0
   44.6506   19.6467  -13.3487 C   0  0  0  0  0  0  0  0  0  0  0  0
   43.6779   20.6567  -13.8571 C   0  0  0  0  0  0  0  0  0  0  0  0
   45.9043   19.8956  -13.0755 O   0  0  0  0  0  0  0  0  0  0  0  0
   46.4913   18.7887  -12.6458 N   0  0  0  0  0  0  0  0  0  0  0  0
 16 17  1  0  0  0
 17 18  1  0  0  0
 18 19  2  0  0  0
 18  1  1  0  0  0
  1  2  1  0  0  0
  2  3  2  0  0  0
  3  4  1  0  0  0
  4  5  1  0  0  0
  5  6  1  0  0  0
  6  7  1  0  0  0
  6  8  1  0  0  0
  8  9  1  0  0  0
  9 10  1  0  0  0
 10 11  2  0  0  0
 11 12  1  0  0  0
 12 13  2  0  0  0
 13 14  1  0  0  0
 14 15  2  0  0  0
 13 26  1  0  0  0
 26 27  3  0  0  0
 28 27  1  0  0  0
 28 29  1  0  0  0
 28 30  1  0  0  0
 28 32  1  0  0  0
 32 33  1  0  0  0
 33 34  2  0  0  0
 34 35  1  0  0  0
 34 36  1  0  0  0
 36 37  1  0  0  0
  2 21  1  0  0  0
 21 22  1  0  0  0
 21 23  2  0  0  0
  5  1  2  0  0  0
 15 10  1  0  0  0
 37 32  2  0  0  0
  4 15  1  0  0  0
 17 20  1  0  0  0
 30 31  1  0  0  0
 22 24  1  0  0  0
 22 25  1  0  0  0
M  END
> <minimizedAffinity>
-9.04026

> <CNNscore>
0.2319581509

> <CNNaffinity>
6.4013137817

> <CNN_VS>
1.4848369360

> <CNNaffinity_variance>
0.1004526392

$$$$
[H]O[C@](C#Cc1c([H])c([H])c2c(c1[H])-n1nc(C(=O)N([H])[H])c(C(=O)N([H])C([H])([H])[H])c1[C@]([H])(F)C([H])([H])O2)(c1noc(C([H])([H])[H])c1[H])C([H])([H])[H]


 37 40  0  0  0  0  0  0  0  0999 V2000
   39.7353   15.2750   -7.8876 C   0  0  0  0  0  0  0  0  0  0  0  0
   38.7080   15.1131   -8.7790 C   0  0  0  0  0  0  0  0  0  0  0  0
   37.5430   14.8834   -8.0682 N   0  0  0  0  0  0  0  0  0  0  0  0
   37.8030   14.8979   -6.7961 N   0  0  0  0  0  0  0  0  0  0  0  0
   39.1109   15.1320   -6.6162 C   0  0  0  0  0  0  0  0  0  0  0  0
   39.9430   15.2394   -5.4161 C   0  0  0  0  0  0  0  0  0  0  0  0
   40.9029   14.2351   -5.5001 F   0  0  0  0  0  0  0  0  0  0  0  0
   39.3134   15.2388   -4.0844 C   0  0  0  0  0  0  0  0  0  0  0  0
   38.2310   14.3951   -3.8509 O   0  0  0  0  0  0  0  0  0  0  0  0
   36.9891   14.3885   -4.4912 C   0  0  0  0  0  0  0  0  0  0  0  0
   35.9414   14.1025   -3.6059 C   0  0  0  0  0  0  0  0  0  0  0  0
   34.7002   14.0760   -4.1757 C   0  0  0  0  0  0  0  0  0  0  0  0
   34.4432   14.3096   -5.5246 C   0  0  0  0  0  0  0  0  0  0  0  0
   35.4884   14.5866   -6.3378 C   0  0  0  0  0  0  0  0  0  0  0  0
   36.7741   14.6286   -5.8315 C   0  0  0  0  0  0  0  0  0  0  0  0
   43.3669   16.5405   -8.2875 C   0  0  0  0  0  0  0  0  0  0  0  0
   41.9578   16.5536   -7.9481 N   0  0  0  0  0  0  0  0  0  0  0  0
   41.1520   15.4369   -8.1755 C   0  0  0  0  0  0  0  0  0  0  0  0
   41.7673   14.4403   -8.7076 O   0  0  0  0  0  0  0  0  0  0  0  0
   41.6126   17.4290   -7.5760 H   0  0  0  0  0  0  0  0  0  0  0  0
   38.7198   15.1551  -10.2292 C   0  0  0  0  0  0  0  0  0  0  0  0
   39.7736   15.4922  -11.0944 N   0  0  0  0  0  0  0  0  0  0  0  0
   37.6200   14.8426  -10.8484 O   0  0  0  0  0  0  0  0  0  0  0  0
   40.3878   14.7548  -11.5527 H   0  0  0  0  0  0  0  0  0  0  0  0
   39.9731   16.4997  -11.3017 H   0  0  0  0  0  0  0  0  0  0  0  0
   33.0921   14.1947   -6.0065 C   0  0  0  0  0  0  0  0  0  0  0  0
   31.9676   14.1531   -6.4713 C   0  0  0  0  0  0  0  0  0  0  0  0
   30.6577   14.1601   -7.0889 C   0  0  0  0  0  0  0  0  0  0  0  0
   30.0538   12.7316   -7.0280 C   0  0  0  0  0  0  0  0  0  0  0  0
   29.7542   14.8968   -6.2473 O   0  0  0  0  0  0  0  0  0  0  0  0
   30.0742   15.8356   -6.2113 H   0  0  0  0  0  0  0  0  0  0  0  0
   30.6624   14.6684   -8.4398 C   0  0  0  0  0  0  0  0  0  0  0  0
   30.0260   14.0515   -9.5166 C   0  0  0  0  0  0  0  0  0  0  0  0
   30.2208   14.8323  -10.6221 C   0  0  0  0  0  0  0  0  0  0  0  0
   29.7299   14.5923  -12.0099 C   0  0  0  0  0  0  0  0  0  0  0  0
   30.9325   15.8653  -10.2548 O   0  0  0  0  0  0  0  0  0  0  0  0
   31.2031   15.7782   -8.9610 N   0  0  0  0  0  0  0  0  0  0  0  0
 16 17  1  0  0  0
 17 18  1  0  0  0
 18 19  2  0  0  0
 18  1  1  0  0  0
  1  2  1  0  0  0
  2  3  2  0  0  0
  3  4  1  0  0  0
  4  5  1  0  0  0
  5  6  1  0  0  0
  6  7  1  0  0  0
  6  8  1  0  0  0
  8  9  1  0  0  0
  9 10  1  0  0  0
 10 11  2  0  0  0
 11 12  1  0  0  0
 12 13  2  0  0  0
 13 14  1  0  0  0
 14 15  2  0  0  0
 13 26  1  0  0  0
 26 27  3  0  0  0
 28 27  1  0  0  0
 28 29  1  0  0  0
 28 30  1  0  0  0
 28 32  1  0  0  0
 32 33  1  0  0  0
 33 34  2  0  0  0
 34 35  1  0  0  0
 34 36  1  0  0  0
 36 37  1  0  0  0
  2 21  1  0  0  0
 21 22  1  0  0  0
 21 23  2  0  0  0
  5  1  2  0  0  0
 15 10  1  0  0  0
 37 32  2  0  0  0
  4 15  1  0  0  0
 17 20  1  0  0  0
 30 31  1  0  0  0
 22 24  1  0  0  0
 22 25  1  0  0  0
M  END
> <minimizedAffinity>
-7.49485

> <CNNscore>
0.2281111926

> <CNNaffinity>
5.4899621010

> <CNN_VS>
1.2523218393

> <CNNaffinity_variance>
0.2660267949

$$$$
[H]O[C@](C#Cc1c([H])c([H])c2c(c1[H])-n1nc(C(=O)N([H])[H])c(C(=O)N([H])C([H])([H])[H])c1[C@]([H])(F)C([H])([H])O2)(c1noc(C([H])([H])[H])c1[H])C([H])([H])[H]


 37 40  0  0  0  0  0  0  0  0999 V2000
   36.5681   13.7600  -13.4815 C   0  0  0  0  0  0  0  0  0  0  0  0
   37.6712   14.1727  -12.7823 C   0  0  0  0  0  0  0  0  0  0  0  0
   38.7997   13.8609  -13.5203 N   0  0  0  0  0  0  0  0  0  0  0  0
   38.4457   13.2839  -14.6283 N   0  0  0  0  0  0  0  0  0  0  0  0
   37.1086   13.1933  -14.6703 C   0  0  0  0  0  0  0  0  0  0  0  0
   36.1834   12.6328  -15.6573 C   0  0  0  0  0  0  0  0  0  0  0  0
   35.4805   11.6155  -15.0186 F   0  0  0  0  0  0  0  0  0  0  0  0
   36.6926   12.1674  -16.9588 C   0  0  0  0  0  0  0  0  0  0  0  0
   37.9143   11.5017  -17.0056 O   0  0  0  0  0  0  0  0  0  0  0  0
   39.1721   11.9807  -16.6303 C   0  0  0  0  0  0  0  0  0  0  0  0
   40.1857   11.5242  -17.4833 C   0  0  0  0  0  0  0  0  0  0  0  0
   41.4418   11.9552  -17.1635 C   0  0  0  0  0  0  0  0  0  0  0  0
   41.7437   12.7846  -16.0859 C   0  0  0  0  0  0  0  0  0  0  0  0
   40.7290   13.2026  -15.2946 C   0  0  0  0  0  0  0  0  0  0  0  0
   39.4311   12.8051  -15.5563 C   0  0  0  0  0  0  0  0  0  0  0  0
   32.9288   14.7195  -12.5952 C   0  0  0  0  0  0  0  0  0  0  0  0
   34.2983   14.8716  -13.0450 N   0  0  0  0  0  0  0  0  0  0  0  0
   35.1774   13.7876  -13.0555 C   0  0  0  0  0  0  0  0  0  0  0  0
   34.6652   12.6872  -12.6292 O   0  0  0  0  0  0  0  0  0  0  0  0
   34.5627   15.8119  -13.3093 H   0  0  0  0  0  0  0  0  0  0  0  0
   37.7624   14.8302  -11.4922 C   0  0  0  0  0  0  0  0  0  0  0  0
   38.8367   14.8554  -10.5879 N   0  0  0  0  0  0  0  0  0  0  0  0
   36.7249   15.4993  -11.0841 O   0  0  0  0  0  0  0  0  0  0  0  0
   39.5274   15.6632  -10.5517 H   0  0  0  0  0  0  0  0  0  0  0  0
   38.9746   14.0572   -9.9232 H   0  0  0  0  0  0  0  0  0  0  0  0
   43.1195   13.1180  -15.8274 C   0  0  0  0  0  0  0  0  0  0  0  0
   44.2867   13.3358  -15.5579 C   0  0  0  0  0  0  0  0  0  0  0  0
   45.6747   13.5195  -15.1880 C   0  0  0  0  0  0  0  0  0  0  0  0
   46.0403   12.5232  -14.0554 C   0  0  0  0  0  0  0  0  0  0  0  0
   46.5053   13.0558  -16.2661 O   0  0  0  0  0  0  0  0  0  0  0  0
   46.3257   13.6323  -17.0538 H   0  0  0  0  0  0  0  0  0  0  0  0
   45.9947   14.8764  -14.8139 C   0  0  0  0  0  0  0  0  0  0  0  0
   47.2854   15.3418  -14.5639 C   0  0  0  0  0  0  0  0  0  0  0  0
   47.2009   16.6745  -14.2699 C   0  0  0  0  0  0  0  0  0  0  0  0
   48.3133   17.6102  -13.9358 C   0  0  0  0  0  0  0  0  0  0  0  0
   45.9399   17.0129  -14.3324 O   0  0  0  0  0  0  0  0  0  0  0  0
   45.2130   15.9528  -14.6525 N   0  0  0  0  0  0  0  0  0  0  0  0
 16 17  1  0  0  0
 17 18  1  0  0  0
 18 19  2  0  0  0
 18  1  1  0  0  0
  1  2  1  0  0  0
  2  3  2  0  0  0
  3  4  1  0  0  0
  4  5  1  0  0  0
  5  6  1  0  0  0
  6  7  1  0  0  0
  6  8  1  0  0  0
  8  9  1  0  0  0
  9 10  1  0  0  0
 10 11  2  0  0  0
 11 12  1  0  0  0
 12 13  2  0  0  0
 13 14  1  0  0  0
 14 15  2  0  0  0
 13 26  1  0  0  0
 26 27  3  0  0  0
 28 27  1  0  0  0
 28 29  1  0  0  0
 28 30  1  0  0  0
 28 32  1  0  0  0
 32 33  1  0  0  0
 33 34  2  0  0  0
 34 35  1  0  0  0
 34 36  1  0  0  0
 36 37  1  0  0  0
  2 21  1  0  0  0
 21 22  1  0  0  0
 21 23  2  0  0  0
  5  1  2  0  0  0
 15 10  1  0  0  0
 37 32  2  0  0  0
  4 15  1  0  0  0
 17 20  1  0  0  0
 30 31  1  0  0  0
 22 24  1  0  0  0
 22 25  1  0  0  0
M  END
> <minimizedAffinity>
-9.35534

> <CNNscore>
0.2231756002

> <CNNaffinity>
6.6290884018

> <CNN_VS>
1.4794508219

> <CNNaffinity_variance>
0.1712395251

$$$$
[H]O[C@](C#Cc1c([H])c([H])c2c(c1[H])-n1nc(C(=O)N([H])[H])c(C(=O)N([H])C([H])([H])[H])c1[C@]([H])(F)C([H])([H])O2)(c1noc(C([H])([H])[H])c1[H])C([H])([H])[H]


 37 40  0  0  0  0  0  0  0  0999 V2000
   41.7548   13.3395  -15.5685 C   0  0  0  0  0  0  0  0  0  0  0  0
   41.2085   13.7079  -14.3677 C   0  0  0  0  0  0  0  0  0  0  0  0
   42.2148   13.7330  -13.4178 N   0  0  0  0  0  0  0  0  0  0  0  0
   43.3412   13.4025  -13.9727 N   0  0  0  0  0  0  0  0  0  0  0  0
   43.1351   13.1536  -15.2740 C   0  0  0  0  0  0  0  0  0  0  0  0
   44.0279   12.7361  -16.3570 C   0  0  0  0  0  0  0  0  0  0  0  0
   43.5544   11.5122  -16.8204 F   0  0  0  0  0  0  0  0  0  0  0  0
   45.4812   12.6711  -16.1259 C   0  0  0  0  0  0  0  0  0  0  0  0
   45.9487   12.1997  -14.9023 O   0  0  0  0  0  0  0  0  0  0  0  0
   45.7214   12.7306  -13.6300 C   0  0  0  0  0  0  0  0  0  0  0  0
   46.8512   12.6298  -12.8075 C   0  0  0  0  0  0  0  0  0  0  0  0
   46.6886   13.1278  -11.5460 C   0  0  0  0  0  0  0  0  0  0  0  0
   45.5132   13.7017  -11.0669 C   0  0  0  0  0  0  0  0  0  0  0  0
   44.4515   13.7803  -11.9018 C   0  0  0  0  0  0  0  0  0  0  0  0
   44.5420   13.2950  -13.1930 C   0  0  0  0  0  0  0  0  0  0  0  0
   40.0301   11.7780  -18.6568 C   0  0  0  0  0  0  0  0  0  0  0  0
   40.7358   11.8524  -17.3929 N   0  0  0  0  0  0  0  0  0  0  0  0
   41.0653   13.0834  -16.8236 C   0  0  0  0  0  0  0  0  0  0  0  0
   40.7005   14.1023  -17.5191 O   0  0  0  0  0  0  0  0  0  0  0  0
   40.9918   10.9604  -16.9895 H   0  0  0  0  0  0  0  0  0  0  0  0
   39.8360   14.0376  -14.0324 C   0  0  0  0  0  0  0  0  0  0  0  0
   38.7888   13.1809  -13.6554 N   0  0  0  0  0  0  0  0  0  0  0  0
   39.4915   15.2906  -14.0749 O   0  0  0  0  0  0  0  0  0  0  0  0
   38.5311   13.0159  -12.6369 H   0  0  0  0  0  0  0  0  0  0  0  0
   38.2370   12.6802  -14.3920 H   0  0  0  0  0  0  0  0  0  0  0  0
   45.4585   14.1362   -9.6961 C   0  0  0  0  0  0  0  0  0  0  0  0
   45.4509   14.4347   -8.5158 C   0  0  0  0  0  0  0  0  0  0  0  0
   45.4902   14.7153   -7.0956 C   0  0  0  0  0  0  0  0  0  0  0  0
   46.9497   15.0358   -6.6759 C   0  0  0  0  0  0  0  0  0  0  0  0
   44.8329   15.9712   -6.8546 O   0  0  0  0  0  0  0  0  0  0  0  0
   43.8806   15.8672   -7.1138 H   0  0  0  0  0  0  0  0  0  0  0  0
   44.9336   13.6581   -6.2857 C   0  0  0  0  0  0  0  0  0  0  0  0
   45.4012   12.3443   -6.2740 C   0  0  0  0  0  0  0  0  0  0  0  0
   44.6542   11.6414   -5.3698 C   0  0  0  0  0  0  0  0  0  0  0  0
   44.7785   10.2010   -5.0031 C   0  0  0  0  0  0  0  0  0  0  0  0
   43.7798   12.4655   -4.8553 O   0  0  0  0  0  0  0  0  0  0  0  0
   43.9341   13.6662   -5.3931 N   0  0  0  0  0  0  0  0  0  0  0  0
 16 17  1  0  0  0
 17 18  1  0  0  0
 18 19  2  0  0  0
 18  1  1  0  0  0
  1  2  1  0  0  0
  2  3  2  0  0  0
  3  4  1  0  0  0
  4  5  1  0  0  0
  5  6  1  0  0  0
  6  7  1  0  0  0
  6  8  1  0  0  0
  8  9  1  0  0  0
  9 10  1  0  0  0
 10 11  2  0  0  0
 11 12  1  0  0  0
 12 13  2  0  0  0
 13 14  1  0  0  0
 14 15  2  0  0  0
 13 26  1  0  0  0
 26 27  3  0  0  0
 28 27  1  0  0  0
 28 29  1  0  0  0
 28 30  1  0  0  0
 28 32  1  0  0  0
 32 33  1  0  0  0
 33 34  2  0  0  0
 34 35  1  0  0  0
 34 36  1  0  0  0
 36 37  1  0  0  0
  2 21  1  0  0  0
 21 22  1  0  0  0
 21 23  2  0  0  0
  5  1  2  0  0  0
 15 10  1  0  0  0
 37 32  2  0  0  0
  4 15  1  0  0  0
 17 20  1  0  0  0
 30 31  1  0  0  0
 22 24  1  0  0  0
 22 25  1  0  0  0
M  END
> <minimizedAffinity>
-7.22486

> <CNNscore>
0.2205224335

> <CNNaffinity>
5.6472425461

> <CNN_VS>
1.2453436852

> <CNNaffinity_variance>
0.1003742591

$$$$
[H]O[C@]1(C#Cc2c([H])c([H])c3c(c2[H])-c2nc(C(=O)N([H])[H])sc2[C@]([H])(C#N)C([H])([H])O3)C(=O)N(C([H])([H])[H])C([H])([H])C1([H])[H]


 32 35  0  0  0  0  0  0  0  0999 V2000
   33.5909   10.8236  -16.5905 C   0  0  0  0  0  0  0  0  0  0  0  0
   33.1417   11.0879  -15.3132 C   0  0  0  0  0  0  0  0  0  0  0  0
   33.9701   11.5899  -14.3294 C   0  0  0  0  0  0  0  0  0  0  0  0
   35.2967   11.8280  -14.6632 C   0  0  0  0  0  0  0  0  0  0  0  0
   36.0349   12.3326  -13.5940 O   0  0  0  0  0  0  0  0  0  0  0  0
   37.4548   12.3732  -13.4125 C   0  0  0  0  0  0  0  0  0  0  0  0
   38.0312   13.2686  -14.4851 C   0  0  0  0  0  0  0  0  0  0  0  0
   38.0980   12.5199  -15.7796 C   0  0  0  0  0  0  0  0  0  0  0  0
   39.4542   12.4063  -16.8070 S   0  0  0  0  0  0  0  0  0  0  0  0
   38.7606   11.4191  -18.0298 C   0  0  0  0  0  0  0  0  0  0  0  0
   37.5343   11.2358  -17.5790 N   0  0  0  0  0  0  0  0  0  0  0  0
   37.1690   11.7707  -16.4587 C   0  0  0  0  0  0  0  0  0  0  0  0
   35.7887   11.5797  -15.9238 C   0  0  0  0  0  0  0  0  0  0  0  0
   34.9257   11.0796  -16.8710 C   0  0  0  0  0  0  0  0  0  0  0  0
   39.3835   10.9047  -19.2734 C   0  0  0  0  0  0  0  0  0  0  0  0
   38.5061   10.6164  -20.3440 N   0  0  0  0  0  0  0  0  0  0  0  0
   40.6026   10.7367  -19.3702 O   0  0  0  0  0  0  0  0  0  0  0  0
   38.8755   10.6696  -21.3135 H   0  0  0  0  0  0  0  0  0  0  0  0
   37.5095   10.3533  -20.2180 H   0  0  0  0  0  0  0  0  0  0  0  0
   31.9972    9.8402  -18.4699 C   0  0  0  0  0  0  0  0  0  0  0  0
   32.7188   10.2989  -17.6135 C   0  0  0  0  0  0  0  0  0  0  0  0
   32.5477    8.6414  -22.9148 C   0  0  0  0  0  0  0  0  0  0  0  0
   31.7809    8.6565  -21.6779 N   0  0  0  0  0  0  0  0  0  0  0  0
   31.1621    7.4901  -21.0350 C   0  0  0  0  0  0  0  0  0  0  0  0
   31.3921    7.7806  -19.5719 C   0  0  0  0  0  0  0  0  0  0  0  0
   31.1494    9.2737  -19.4901 C   0  0  0  0  0  0  0  0  0  0  0  0
   29.7972    9.4367  -19.1611 O   0  0  0  0  0  0  0  0  0  0  0  0
   31.4655    9.7554  -20.8400 C   0  0  0  0  0  0  0  0  0  0  0  0
   31.4616   10.9492  -21.2101 O   0  0  0  0  0  0  0  0  0  0  0  0
   29.6459   10.4029  -19.0100 H   0  0  0  0  0  0  0  0  0  0  0  0
   39.3880   13.7094  -14.1482 C   0  0  0  0  0  0  0  0  0  0  0  0
   40.4553   14.0756  -13.8894 N   0  0  0  0  0  0  0  0  0  0  0  0
 22 23  1  0  0  0
 23 24  1  0  0  0
 24 25  1  0  0  0
 25 26  1  0  0  0
 26 27  1  0  0  0
 26 20  1  0  0  0
 20 21  3  0  0  0
 21  1  1  0  0  0
  1  2  2  0  0  0
  2  3  1  0  0  0
  3  4  2  0  0  0
  4  5  1  0  0  0
  5  6  1  0  0  0
  6  7  1  0  0  0
  7 31  1  0  0  0
 31 32  3  0  0  0
  7  8  1  0  0  0
  8  9  1  0  0  0
  9 10  1  0  0  0
 10 11  2  0  0  0
 11 12  1  0  0  0
 12 13  1  0  0  0
 13 14  2  0  0  0
 10 15  1  0  0  0
 15 16  1  0  0  0
 15 17  2  0  0  0
 26 28  1  0  0  0
 28 29  2  0  0  0
 28 23  1  0  0  0
 14  1  1  0  0  0
 13  4  1  0  0  0
 12  8  2  0  0  0
 27 30  1  0  0  0
 16 18  1  0  0  0
 16 19  1  0  0  0
M  END
> <minimizedAffinity>
-7.39469

> <CNNscore>
0.8789961934

> <CNNaffinity>
7.8979439735

> <CNN_VS>
6.9422626495

> <CNNaffinity_variance>
0.2550477982

$$$$
[H]O[C@]1(C#Cc2c([H])c([H])c3c(c2[H])-c2nc(C(=O)N([H])[H])sc2[C@]([H])(C#N)C([H])([H])O3)C(=O)N(C([H])([H])[H])C([H])([H])C1([H])[H]


 32 35  0  0  0  0  0  0  0  0999 V2000
   41.2792   14.3409  -13.8604 C   0  0  0  0  0  0  0  0  0  0  0  0
   40.6326   15.0676  -12.8822 C   0  0  0  0  0  0  0  0  0  0  0  0
   39.2576   15.0752  -12.7569 C   0  0  0  0  0  0  0  0  0  0  0  0
   38.5239   14.3168  -13.6594 C   0  0  0  0  0  0  0  0  0  0  0  0
   37.1506   14.4011  -13.4364 O   0  0  0  0  0  0  0  0  0  0  0  0
   36.0683   14.0802  -14.3177 C   0  0  0  0  0  0  0  0  0  0  0  0
   36.1278   12.5964  -14.5995 C   0  0  0  0  0  0  0  0  0  0  0  0
   37.1931   12.3221  -15.6146 C   0  0  0  0  0  0  0  0  0  0  0  0
   37.0189   11.3823  -17.0267 S   0  0  0  0  0  0  0  0  0  0  0  0
   38.6177   11.5429  -17.6339 C   0  0  0  0  0  0  0  0  0  0  0  0
   39.1883   12.3052  -16.7207 N   0  0  0  0  0  0  0  0  0  0  0  0
   38.5068   12.7128  -15.6989 C   0  0  0  0  0  0  0  0  0  0  0  0
   39.1257   13.5766  -14.6508 C   0  0  0  0  0  0  0  0  0  0  0  0
   40.4983   13.6003  -14.7364 C   0  0  0  0  0  0  0  0  0  0  0  0
   39.2043   10.9706  -18.8699 C   0  0  0  0  0  0  0  0  0  0  0  0
   38.2903   10.5288  -19.8540 N   0  0  0  0  0  0  0  0  0  0  0  0
   40.4250   10.8839  -19.0321 O   0  0  0  0  0  0  0  0  0  0  0  0
   38.5966   10.5255  -20.8467 H   0  0  0  0  0  0  0  0  0  0  0  0
   37.3264   10.2059  -19.6423 H   0  0  0  0  0  0  0  0  0  0  0  0
   43.9242   14.3395  -14.0685 C   0  0  0  0  0  0  0  0  0  0  0  0
   42.7169   14.3381  -13.9849 C   0  0  0  0  0  0  0  0  0  0  0  0
   47.3682   12.6377  -11.4724 C   0  0  0  0  0  0  0  0  0  0  0  0
   46.8690   13.2590  -12.6902 N   0  0  0  0  0  0  0  0  0  0  0  0
   47.1655   12.8248  -14.0614 C   0  0  0  0  0  0  0  0  0  0  0  0
   45.8414   13.0434  -14.7520 C   0  0  0  0  0  0  0  0  0  0  0  0
   45.3645   14.3472  -14.1457 C   0  0  0  0  0  0  0  0  0  0  0  0
   45.8122   15.3660  -14.9971 O   0  0  0  0  0  0  0  0  0  0  0  0
   46.0154   14.3818  -12.8307 C   0  0  0  0  0  0  0  0  0  0  0  0
   45.8524   15.2604  -11.9568 O   0  0  0  0  0  0  0  0  0  0  0  0
   45.4273   16.2155  -14.6666 H   0  0  0  0  0  0  0  0  0  0  0  0
   34.8569   12.0973  -15.1330 C   0  0  0  0  0  0  0  0  0  0  0  0
   33.8582   11.7103  -15.5723 N   0  0  0  0  0  0  0  0  0  0  0  0
 22 23  1  0  0  0
 23 24  1  0  0  0
 24 25  1  0  0  0
 25 26  1  0  0  0
 26 27  1  0  0  0
 26 20  1  0  0  0
 20 21  3  0  0  0
 21  1  1  0  0  0
  1  2  2  0  0  0
  2  3  1  0  0  0
  3  4  2  0  0  0
  4  5  1  0  0  0
  5  6  1  0  0  0
  6  7  1  0  0  0
  7 31  1  0  0  0
 31 32  3  0  0  0
  7  8  1  0  0  0
  8  9  1  0  0  0
  9 10  1  0  0  0
 10 11  2  0  0  0
 11 12  1  0  0  0
 12 13  1  0  0  0
 13 14  2  0  0  0
 10 15  1  0  0  0
 15 16  1  0  0  0
 15 17  2  0  0  0
 26 28  1  0  0  0
 28 29  2  0  0  0
 28 23  1  0  0  0
 14  1  1  0  0  0
 13  4  1  0  0  0
 12  8  2  0  0  0
 27 30  1  0  0  0
 16 18  1  0  0  0
 16 19  1  0  0  0
M  END
> <minimizedAffinity>
-8.05708

> <CNNscore>
0.8147336841

> <CNNaffinity>
7.4218339920

> <CNN_VS>
6.0468182564

> <CNNaffinity_variance>
0.5965110064

$$$$
[H]O[C@]1(C#Cc2c([H])c([H])c3c(c2[H])-c2nc(C(=O)N([H])[H])sc2[C@]([H])(C#N)C([H])([H])O3)C(=O)N(C([H])([H])[H])C([H])([H])C1([H])[H]


 32 35  0  0  0  0  0  0  0  0999 V2000
   39.9677   15.1082  -12.9536 C   0  0  0  0  0  0  0  0  0  0  0  0
   38.8917   15.5767  -12.2283 C   0  0  0  0  0  0  0  0  0  0  0  0
   37.5928   15.2052  -12.5129 C   0  0  0  0  0  0  0  0  0  0  0  0
   37.3899   14.3289  -13.5706 C   0  0  0  0  0  0  0  0  0  0  0  0
   36.0431   14.0261  -13.7634 O   0  0  0  0  0  0  0  0  0  0  0  0
   35.3943   13.4749  -14.9150 C   0  0  0  0  0  0  0  0  0  0  0  0
   35.9383   12.0807  -15.1273 C   0  0  0  0  0  0  0  0  0  0  0  0
   37.2845   12.1623  -15.7768 C   0  0  0  0  0  0  0  0  0  0  0  0
   37.7920   11.2915  -17.1522 S   0  0  0  0  0  0  0  0  0  0  0  0
   39.3896   11.9124  -17.2668 C   0  0  0  0  0  0  0  0  0  0  0  0
   39.4387   12.7478  -16.2468 N   0  0  0  0  0  0  0  0  0  0  0  0
   38.4059   12.8977  -15.4816 C   0  0  0  0  0  0  0  0  0  0  0  0
   38.4323   13.8361  -14.3213 C   0  0  0  0  0  0  0  0  0  0  0  0
   39.7090   14.2347  -14.0003 C   0  0  0  0  0  0  0  0  0  0  0  0
   40.4427   11.5906  -18.2601 C   0  0  0  0  0  0  0  0  0  0  0  0
   41.7714   11.9052  -17.8927 N   0  0  0  0  0  0  0  0  0  0  0  0
   40.1751   11.0757  -19.3496 O   0  0  0  0  0  0  0  0  0  0  0  0
   42.5440   11.3518  -18.3122 H   0  0  0  0  0  0  0  0  0  0  0  0
   42.0218   12.6602  -17.2253 H   0  0  0  0  0  0  0  0  0  0  0  0
   42.4532   15.8339  -12.3751 C   0  0  0  0  0  0  0  0  0  0  0  0
   41.3226   15.5012  -12.6499 C   0  0  0  0  0  0  0  0  0  0  0  0
   46.6556   15.2526  -14.2458 C   0  0  0  0  0  0  0  0  0  0  0  0
   45.7565   15.8726  -13.2838 N   0  0  0  0  0  0  0  0  0  0  0  0
   45.6491   17.3115  -13.0100 C   0  0  0  0  0  0  0  0  0  0  0  0
   44.1635   17.4809  -12.8053 C   0  0  0  0  0  0  0  0  0  0  0  0
   43.7938   16.2355  -12.0259 C   0  0  0  0  0  0  0  0  0  0  0  0
   43.8734   16.5798  -10.6700 O   0  0  0  0  0  0  0  0  0  0  0  0
   44.8139   15.2575  -12.4223 C   0  0  0  0  0  0  0  0  0  0  0  0
   44.8586   14.0611  -12.0635 O   0  0  0  0  0  0  0  0  0  0  0  0
   43.5424   15.8056  -10.1503 H   0  0  0  0  0  0  0  0  0  0  0  0
   35.0649   11.2876  -15.9972 C   0  0  0  0  0  0  0  0  0  0  0  0
   34.3620   10.6593  -16.6691 N   0  0  0  0  0  0  0  0  0  0  0  0
 22 23  1  0  0  0
 23 24  1  0  0  0
 24 25  1  0  0  0
 25 26  1  0  0  0
 26 27  1  0  0  0
 26 20  1  0  0  0
 20 21  3  0  0  0
 21  1  1  0  0  0
  1  2  2  0  0  0
  2  3  1  0  0  0
  3  4  2  0  0  0
  4  5  1  0  0  0
  5  6  1  0  0  0
  6  7  1  0  0  0
  7 31  1  0  0  0
 31 32  3  0  0  0
  7  8  1  0  0  0
  8  9  1  0  0  0
  9 10  1  0  0  0
 10 11  2  0  0  0
 11 12  1  0  0  0
 12 13  1  0  0  0
 13 14  2  0  0  0
 10 15  1  0  0  0
 15 16  1  0  0  0
 15 17  2  0  0  0
 26 28  1  0  0  0
 28 29  2  0  0  0
 28 23  1  0  0  0
 14  1  1  0  0  0
 13  4  1  0  0  0
 12  8  2  0  0  0
 27 30  1  0  0  0
 16 18  1  0  0  0
 16 19  1  0  0  0
M  END
> <minimizedAffinity>
-8.46068

> <CNNscore>
0.7166642547

> <CNNaffinity>
6.9842505455

> <CNN_VS>
5.0053625107

> <CNNaffinity_variance>
0.2436145097

$$$$
[H]O[C@]1(C#Cc2c([H])c([H])c3c(c2[H])-c2nc(C(=O)N([H])[H])sc2[C@]([H])(C#N)C([H])([H])O3)C(=O)N(C([H])([H])[H])C([H])([H])C1([H])[H]


 32 35  0  0  0  0  0  0  0  0999 V2000
   38.6030   14.8063  -13.1635 C   0  0  0  0  0  0  0  0  0  0  0  0
   37.5332   15.3295  -12.4671 C   0  0  0  0  0  0  0  0  0  0  0  0
   36.2279   14.9779  -12.7476 C   0  0  0  0  0  0  0  0  0  0  0  0
   36.0120   14.0643  -13.7708 C   0  0  0  0  0  0  0  0  0  0  0  0
   34.6598   13.7862  -13.9628 O   0  0  0  0  0  0  0  0  0  0  0  0
   34.0066   13.2042  -15.0967 C   0  0  0  0  0  0  0  0  0  0  0  0
   34.5183   11.7900  -15.2476 C   0  0  0  0  0  0  0  0  0  0  0  0
   35.8710   11.8128  -15.8882 C   0  0  0  0  0  0  0  0  0  0  0  0
   36.3679   10.8750  -17.2228 S   0  0  0  0  0  0  0  0  0  0  0  0
   37.9809   11.4523  -17.3486 C   0  0  0  0  0  0  0  0  0  0  0  0
   38.0423   12.3271  -16.3629 N   0  0  0  0  0  0  0  0  0  0  0  0
   37.0076   12.5327  -15.6134 C   0  0  0  0  0  0  0  0  0  0  0  0
   37.0478   13.5167  -14.4918 C   0  0  0  0  0  0  0  0  0  0  0  0
   38.3314   13.8974  -14.1762 C   0  0  0  0  0  0  0  0  0  0  0  0
   39.0335   11.0653  -18.3189 C   0  0  0  0  0  0  0  0  0  0  0  0
   38.5957   10.7238  -19.6192 N   0  0  0  0  0  0  0  0  0  0  0  0
   40.2282   11.0420  -18.0092 O   0  0  0  0  0  0  0  0  0  0  0  0
   39.2520   10.8596  -20.4129 H   0  0  0  0  0  0  0  0  0  0  0  0
   37.6525   10.3435  -19.8288 H   0  0  0  0  0  0  0  0  0  0  0  0
   41.1075   15.4756  -12.5990 C   0  0  0  0  0  0  0  0  0  0  0  0
   39.9647   15.1789  -12.8642 C   0  0  0  0  0  0  0  0  0  0  0  0
   44.1884   14.0091   -9.4598 C   0  0  0  0  0  0  0  0  0  0  0  0
   43.8346   14.7714  -10.6481 N   0  0  0  0  0  0  0  0  0  0  0  0
   44.5451   14.7408  -11.9330 C   0  0  0  0  0  0  0  0  0  0  0  0
   43.4074   14.8203  -12.9215 C   0  0  0  0  0  0  0  0  0  0  0  0
   42.4697   15.8133  -12.2660 C   0  0  0  0  0  0  0  0  0  0  0  0
   42.8094   17.0734  -12.7759 O   0  0  0  0  0  0  0  0  0  0  0  0
   42.7658   15.6835  -10.8343 C   0  0  0  0  0  0  0  0  0  0  0  0
   42.1747   16.2796   -9.9083 O   0  0  0  0  0  0  0  0  0  0  0  0
   42.1440   17.7193  -12.4306 H   0  0  0  0  0  0  0  0  0  0  0  0
   33.6327   10.9832  -16.0922 C   0  0  0  0  0  0  0  0  0  0  0  0
   32.9180   10.3583  -16.7548 N   0  0  0  0  0  0  0  0  0  0  0  0
 22 23  1  0  0  0
 23 24  1  0  0  0
 24 25  1  0  0  0
 25 26  1  0  0  0
 26 27  1  0  0  0
 26 20  1  0  0  0
 20 21  3  0  0  0
 21  1  1  0  0  0
  1  2  2  0  0  0
  2  3  1  0  0  0
  3  4  2  0  0  0
  4  5  1  0  0  0
  5  6  1  0  0  0
  6  7  1  0  0  0
  7 31  1  0  0  0
 31 32  3  0  0  0
  7  8  1  0  0  0
  8  9  1  0  0  0
  9 10  1  0  0  0
 10 11  2  0  0  0
 11 12  1  0  0  0
 12 13  1  0  0  0
 13 14  2  0  0  0
 10 15  1  0  0  0
 15 16  1  0  0  0
 15 17  2  0  0  0
 26 28  1  0  0  0
 28 29  2  0  0  0
 28 23  1  0  0  0
 14  1  1  0  0  0
 13  4  1  0  0  0
 12  8  2  0  0  0
 27 30  1  0  0  0
 16 18  1  0  0  0
 16 19  1  0  0  0
M  END
> <minimizedAffinity>
-8.02337

> <CNNscore>
0.7037375569

> <CNNaffinity>
7.2001504898

> <CNN_VS>
5.0670161247

> <CNNaffinity_variance>
0.3296283782

$$$$
[H]O[C@]1(C#Cc2c([H])c([H])c3c(c2[H])-c2nc(C(=O)N([H])[H])sc2[C@]([H])(C#N)C([H])([H])O3)C(=O)N(C([H])([H])[H])C([H])([H])C1([H])[H]


 32 35  0  0  0  0  0  0  0  0999 V2000
   40.2387   15.0432  -12.9390 C   0  0  0  0  0  0  0  0  0  0  0  0
   39.1888   15.5519  -12.2027 C   0  0  0  0  0  0  0  0  0  0  0  0
   37.8733   15.2373  -12.4796 C   0  0  0  0  0  0  0  0  0  0  0  0
   37.6259   14.3769  -13.5411 C   0  0  0  0  0  0  0  0  0  0  0  0
   36.2662   14.1324  -13.7254 O   0  0  0  0  0  0  0  0  0  0  0  0
   35.5862   13.6162  -14.8753 C   0  0  0  0  0  0  0  0  0  0  0  0
   36.0694   12.2018  -15.1001 C   0  0  0  0  0  0  0  0  0  0  0  0
   37.4130   12.2307  -15.7593 C   0  0  0  0  0  0  0  0  0  0  0  0
   37.8733   11.3481  -17.1438 S   0  0  0  0  0  0  0  0  0  0  0  0
   39.4948   11.9018  -17.2668 C   0  0  0  0  0  0  0  0  0  0  0  0
   39.5865   12.7280  -16.2422 N   0  0  0  0  0  0  0  0  0  0  0  0
   38.5666   12.9164  -15.4683 C   0  0  0  0  0  0  0  0  0  0  0  0
   38.6410   13.8455  -14.3026 C   0  0  0  0  0  0  0  0  0  0  0  0
   39.9358   14.1879  -13.9889 C   0  0  0  0  0  0  0  0  0  0  0  0
   40.5261   11.5423  -18.2700 C   0  0  0  0  0  0  0  0  0  0  0  0
   41.8644   11.8520  -17.9353 N   0  0  0  0  0  0  0  0  0  0  0  0
   40.2332   11.0015  -19.3403 O   0  0  0  0  0  0  0  0  0  0  0  0
   42.6234   11.2793  -18.3537 H   0  0  0  0  0  0  0  0  0  0  0  0
   42.1349   12.6218  -17.2929 H   0  0  0  0  0  0  0  0  0  0  0  0
   42.7654   15.6366  -12.3891 C   0  0  0  0  0  0  0  0  0  0  0  0
   41.6112   15.3768  -12.6432 C   0  0  0  0  0  0  0  0  0  0  0  0
   45.5582   19.3023  -12.9002 C   0  0  0  0  0  0  0  0  0  0  0  0
   45.2628   17.9822  -12.3631 N   0  0  0  0  0  0  0  0  0  0  0  0
   45.4168   17.5692  -10.9622 C   0  0  0  0  0  0  0  0  0  0  0  0
   44.2151   16.6777  -10.7650 C   0  0  0  0  0  0  0  0  0  0  0  0
   44.1440   15.9247  -12.0776 C   0  0  0  0  0  0  0  0  0  0  0  0
   44.8711   14.7411  -11.8940 O   0  0  0  0  0  0  0  0  0  0  0  0
   44.7776   16.8348  -13.0392 C   0  0  0  0  0  0  0  0  0  0  0  0
   44.8816   16.6418  -14.2697 O   0  0  0  0  0  0  0  0  0  0  0  0
   44.7539   14.1946  -12.7105 H   0  0  0  0  0  0  0  0  0  0  0  0
   35.1570   11.4516  -15.9681 C   0  0  0  0  0  0  0  0  0  0  0  0
   34.4386   10.8432  -16.6418 N   0  0  0  0  0  0  0  0  0  0  0  0
 22 23  1  0  0  0
 23 24  1  0  0  0
 24 25  1  0  0  0
 25 26  1  0  0  0
 26 27  1  0  0  0
 26 20  1  0  0  0
 20 21  3  0  0  0
 21  1  1  0  0  0
  1  2  2  0  0  0
  2  3  1  0  0  0
  3  4  2  0  0  0
  4  5  1  0  0  0
  5  6  1  0  0  0
  6  7  1  0  0  0
  7 31  1  0  0  0
 31 32  3  0  0  0
  7  8  1  0  0  0
  8  9  1  0  0  0
  9 10  1  0  0  0
 10 11  2  0  0  0
 11 12  1  0  0  0
 12 13  1  0  0  0
 13 14  2  0  0  0
 10 15  1  0  0  0
 15 16  1  0  0  0
 15 17  2  0  0  0
 26 28  1  0  0  0
 28 29  2  0  0  0
 28 23  1  0  0  0
 14  1  1  0  0  0
 13  4  1  0  0  0
 12  8  2  0  0  0
 27 30  1  0  0  0
 16 18  1  0  0  0
 16 19  1  0  0  0
M  END
> <minimizedAffinity>
-8.51894

> <CNNscore>
0.6985250115

> <CNNaffinity>
6.9105110168

> <CNN_VS>
4.8271646500

> <CNNaffinity_variance>
0.2698462903

$$$$
[H]O[C@]1(C#Cc2c([H])c([H])c3c(c2[H])-c2nc(C(=O)N([H])[H])sc2[C@]([H])(C#N)C([H])([H])O3)C(=O)N(C([H])([H])[H])C([H])([H])C1([H])[H]


 32 35  0  0  0  0  0  0  0  0999 V2000
   36.0872   13.7031  -12.2395 C   0  0  0  0  0  0  0  0  0  0  0  0
   34.7909   13.4402  -12.6315 C   0  0  0  0  0  0  0  0  0  0  0  0
   34.4893   12.8974  -13.8647 C   0  0  0  0  0  0  0  0  0  0  0  0
   35.5455   12.6158  -14.7209 C   0  0  0  0  0  0  0  0  0  0  0  0
   35.1215   12.0726  -15.9325 O   0  0  0  0  0  0  0  0  0  0  0  0
   35.8222   11.9791  -17.1780 C   0  0  0  0  0  0  0  0  0  0  0  0
   37.0161   11.0762  -16.9685 C   0  0  0  0  0  0  0  0  0  0  0  0
   38.1039   11.8371  -16.2768 C   0  0  0  0  0  0  0  0  0  0  0  0
   39.7387   11.9139  -16.7556 S   0  0  0  0  0  0  0  0  0  0  0  0
   40.3183   12.9396  -15.5054 C   0  0  0  0  0  0  0  0  0  0  0  0
   39.2273   13.1614  -14.7975 N   0  0  0  0  0  0  0  0  0  0  0  0
   38.1038   12.6269  -15.1535 C   0  0  0  0  0  0  0  0  0  0  0  0
   36.8537   12.8610  -14.3725 C   0  0  0  0  0  0  0  0  0  0  0  0
   37.1052   13.4027  -13.1334 C   0  0  0  0  0  0  0  0  0  0  0  0
   41.6942   13.4458  -15.2816 C   0  0  0  0  0  0  0  0  0  0  0  0
   42.5903   13.3344  -16.3696 N   0  0  0  0  0  0  0  0  0  0  0  0
   42.0399   13.9382  -14.2038 O   0  0  0  0  0  0  0  0  0  0  0  0
   43.3753   14.0117  -16.4343 H   0  0  0  0  0  0  0  0  0  0  0  0
   42.5098   12.6122  -17.1114 H   0  0  0  0  0  0  0  0  0  0  0  0
   36.6726   14.7429   -9.8699 C   0  0  0  0  0  0  0  0  0  0  0  0
   36.3944   14.2706  -10.9487 C   0  0  0  0  0  0  0  0  0  0  0  0
   39.3509   13.4089   -6.3280 C   0  0  0  0  0  0  0  0  0  0  0  0
   38.5491   14.4050   -7.0232 N   0  0  0  0  0  0  0  0  0  0  0  0
   38.9588   15.7832   -7.3220 C   0  0  0  0  0  0  0  0  0  0  0  0
   38.3687   15.9942   -8.6950 C   0  0  0  0  0  0  0  0  0  0  0  0
   37.0265   15.3001   -8.5873 C   0  0  0  0  0  0  0  0  0  0  0  0
   36.1044   16.2810   -8.1988 O   0  0  0  0  0  0  0  0  0  0  0  0
   37.2397   14.2820   -7.5519 C   0  0  0  0  0  0  0  0  0  0  0  0
   36.4042   13.4295   -7.1813 O   0  0  0  0  0  0  0  0  0  0  0  0
   35.2070   15.8645   -8.2173 H   0  0  0  0  0  0  0  0  0  0  0  0
   37.5496   10.5832  -18.2417 C   0  0  0  0  0  0  0  0  0  0  0  0
   37.9540   10.1835  -19.2501 N   0  0  0  0  0  0  0  0  0  0  0  0
 22 23  1  0  0  0
 23 24  1  0  0  0
 24 25  1  0  0  0
 25 26  1  0  0  0
 26 27  1  0  0  0
 26 20  1  0  0  0
 20 21  3  0  0  0
 21  1  1  0  0  0
  1  2  2  0  0  0
  2  3  1  0  0  0
  3  4  2  0  0  0
  4  5  1  0  0  0
  5  6  1  0  0  0
  6  7  1  0  0  0
  7 31  1  0  0  0
 31 32  3  0  0  0
  7  8  1  0  0  0
  8  9  1  0  0  0
  9 10  1  0  0  0
 10 11  2  0  0  0
 11 12  1  0  0  0
 12 13  1  0  0  0
 13 14  2  0  0  0
 10 15  1  0  0  0
 15 16  1  0  0  0
 15 17  2  0  0  0
 26 28  1  0  0  0
 28 29  2  0  0  0
 28 23  1  0  0  0
 14  1  1  0  0  0
 13  4  1  0  0  0
 12  8  2  0  0  0
 27 30  1  0  0  0
 16 18  1  0  0  0
 16 19  1  0  0  0
M  END
> <minimizedAffinity>
-7.94718

> <CNNscore>
0.6851059794

> <CNNaffinity>
6.9901304245

> <CNN_VS>
4.7889800072

> <CNNaffinity_variance>
0.3419602811

$$$$
[H]O[C@]1(C#Cc2c([H])c([H])c3c(c2[H])-c2nc(C(=O)N([H])[H])sc2[C@]([H])(C#N)C([H])([H])O3)C(=O)N(C([H])([H])[H])C([H])([H])C1([H])[H]


 32 35  0  0  0  0  0  0  0  0999 V2000
   40.8514   13.0820  -15.1919 C   0  0  0  0  0  0  0  0  0  0  0  0
   41.2110   12.3333  -16.2934 C   0  0  0  0  0  0  0  0  0  0  0  0
   40.2877   11.6257  -17.0372 C   0  0  0  0  0  0  0  0  0  0  0  0
   38.9582   11.6866  -16.6415 C   0  0  0  0  0  0  0  0  0  0  0  0
   38.1204   10.9358  -17.4644 O   0  0  0  0  0  0  0  0  0  0  0  0
   36.7952   10.4555  -17.2116 C   0  0  0  0  0  0  0  0  0  0  0  0
   35.8907   11.6570  -17.0594 C   0  0  0  0  0  0  0  0  0  0  0  0
   36.0663   12.2460  -15.6945 C   0  0  0  0  0  0  0  0  0  0  0  0
   34.8181   12.6518  -14.6060 S   0  0  0  0  0  0  0  0  0  0  0  0
   35.7900   13.2436  -13.3191 C   0  0  0  0  0  0  0  0  0  0  0  0
   37.0100   13.0953  -13.7991 N   0  0  0  0  0  0  0  0  0  0  0  0
   37.1853   12.6003  -14.9819 C   0  0  0  0  0  0  0  0  0  0  0  0
   38.5536   12.4203  -15.5502 C   0  0  0  0  0  0  0  0  0  0  0  0
   39.5094   13.1087  -14.8399 C   0  0  0  0  0  0  0  0  0  0  0  0
   35.3642   13.7823  -12.0047 C   0  0  0  0  0  0  0  0  0  0  0  0
   34.0594   14.3231  -11.9392 N   0  0  0  0  0  0  0  0  0  0  0  0
   36.1079   13.7605  -11.0197 O   0  0  0  0  0  0  0  0  0  0  0  0
   33.5673   14.3164  -11.0244 H   0  0  0  0  0  0  0  0  0  0  0  0
   33.5615   14.7285  -12.7553 H   0  0  0  0  0  0  0  0  0  0  0  0
   42.6317   14.4254  -13.7549 C   0  0  0  0  0  0  0  0  0  0  0  0
   41.8224   13.8190  -14.4195 C   0  0  0  0  0  0  0  0  0  0  0  0
   46.2842   17.1520  -14.6046 C   0  0  0  0  0  0  0  0  0  0  0  0
   45.3021   16.5713  -13.7010 N   0  0  0  0  0  0  0  0  0  0  0  0
   44.4843   17.3094  -12.7298 C   0  0  0  0  0  0  0  0  0  0  0  0
   43.1633   16.5850  -12.8187 C   0  0  0  0  0  0  0  0  0  0  0  0
   43.5891   15.1365  -12.9437 C   0  0  0  0  0  0  0  0  0  0  0  0
   43.6200   14.6200  -11.6416 O   0  0  0  0  0  0  0  0  0  0  0  0
   44.9219   15.2138  -13.5537 C   0  0  0  0  0  0  0  0  0  0  0  0
   45.6268   14.2404  -13.8966 O   0  0  0  0  0  0  0  0  0  0  0  0
   43.8032   13.6503  -11.7144 H   0  0  0  0  0  0  0  0  0  0  0  0
   34.4794   11.2930  -17.2157 C   0  0  0  0  0  0  0  0  0  0  0  0
   33.3702   10.9864  -17.3412 N   0  0  0  0  0  0  0  0  0  0  0  0
 22 23  1  0  0  0
 23 24  1  0  0  0
 24 25  1  0  0  0
 25 26  1  0  0  0
 26 27  1  0  0  0
 26 20  1  0  0  0
 20 21  3  0  0  0
 21  1  1  0  0  0
  1  2  2  0  0  0
  2  3  1  0  0  0
  3  4  2  0  0  0
  4  5  1  0  0  0
  5  6  1  0  0  0
  6  7  1  0  0  0
  7 31  1  0  0  0
 31 32  3  0  0  0
  7  8  1  0  0  0
  8  9  1  0  0  0
  9 10  1  0  0  0
 10 11  2  0  0  0
 11 12  1  0  0  0
 12 13  1  0  0  0
 13 14  2  0  0  0
 10 15  1  0  0  0
 15 16  1  0  0  0
 15 17  2  0  0  0
 26 28  1  0  0  0
 28 29  2  0  0  0
 28 23  1  0  0  0
 14  1  1  0  0  0
 13  4  1  0  0  0
 12  8  2  0  0  0
 27 30  1  0  0  0
 16 18  1  0  0  0
 16 19  1  0  0  0
M  END
> <minimizedAffinity>
-8.54575

> <CNNscore>
0.4580791593

> <CNNaffinity>
6.7055792809

> <CNN_VS>
3.0716860294

> <CNNaffinity_variance>
0.2412621081

$$$$
[H]O[C@]1(C#Cc2c([H])c([H])c3c(c2[H])-c2nc(C(=O)N([H])[H])sc2[C@]([H])(C#N)C([H])([H])O3)C(=O)N(C([H])([H])[H])C([H])([H])C1([H])[H]


 32 35  0  0  0  0  0  0  0  0999 V2000
   42.4221   13.9251  -13.8750 C   0  0  0  0  0  0  0  0  0  0  0  0
   43.4789   13.6427  -14.7157 C   0  0  0  0  0  0  0  0  0  0  0  0
   43.3116   12.9707  -15.9101 C   0  0  0  0  0  0  0  0  0  0  0  0
   42.0252   12.5765  -16.2534 C   0  0  0  0  0  0  0  0  0  0  0  0
   41.9789   11.9090  -17.4762 O   0  0  0  0  0  0  0  0  0  0  0  0
   40.9563   11.0574  -18.0053 C   0  0  0  0  0  0  0  0  0  0  0  0
   39.7118   11.8942  -18.1944 C   0  0  0  0  0  0  0  0  0  0  0  0
   39.0338   12.0883  -16.8741 C   0  0  0  0  0  0  0  0  0  0  0  0
   37.3802   11.8329  -16.5455 S   0  0  0  0  0  0  0  0  0  0  0  0
   37.3875   12.2535  -14.8799 C   0  0  0  0  0  0  0  0  0  0  0  0
   38.6534   12.5637  -14.6755 N   0  0  0  0  0  0  0  0  0  0  0  0
   39.5034   12.4925  -15.6487 C   0  0  0  0  0  0  0  0  0  0  0  0
   40.9417   12.8364  -15.4465 C   0  0  0  0  0  0  0  0  0  0  0  0
   41.1574   13.5087  -14.2660 C   0  0  0  0  0  0  0  0  0  0  0  0
   36.2580   12.2637  -13.9190 C   0  0  0  0  0  0  0  0  0  0  0  0
   35.0403   12.8108  -14.3851 N   0  0  0  0  0  0  0  0  0  0  0  0
   36.3733   11.8189  -12.7733 O   0  0  0  0  0  0  0  0  0  0  0  0
   34.1537   12.4779  -13.9580 H   0  0  0  0  0  0  0  0  0  0  0  0
   34.9794   13.5289  -15.1327 H   0  0  0  0  0  0  0  0  0  0  0  0
   42.7703   15.2016  -11.5754 C   0  0  0  0  0  0  0  0  0  0  0  0
   42.6050   14.6281  -12.6281 C   0  0  0  0  0  0  0  0  0  0  0  0
   45.7061   14.6775   -8.0252 C   0  0  0  0  0  0  0  0  0  0  0  0
   44.6804   15.4230   -8.7396 N   0  0  0  0  0  0  0  0  0  0  0  0
   44.7348   16.8503   -9.0809 C   0  0  0  0  0  0  0  0  0  0  0  0
   44.1067   16.8681  -10.4531 C   0  0  0  0  0  0  0  0  0  0  0  0
   42.9788   15.8666  -10.3125 C   0  0  0  0  0  0  0  0  0  0  0  0
   41.8435   16.5995   -9.9421 O   0  0  0  0  0  0  0  0  0  0  0  0
   43.4408   14.9640   -9.2514 C   0  0  0  0  0  0  0  0  0  0  0  0
   42.8438   13.9424   -8.8488 O   0  0  0  0  0  0  0  0  0  0  0  0
   41.0773   15.9734   -9.9399 H   0  0  0  0  0  0  0  0  0  0  0  0
   38.7587   11.2463  -19.1002 C   0  0  0  0  0  0  0  0  0  0  0  0
   37.9917   10.7470  -19.8091 N   0  0  0  0  0  0  0  0  0  0  0  0
 22 23  1  0  0  0
 23 24  1  0  0  0
 24 25  1  0  0  0
 25 26  1  0  0  0
 26 27  1  0  0  0
 26 20  1  0  0  0
 20 21  3  0  0  0
 21  1  1  0  0  0
  1  2  2  0  0  0
  2  3  1  0  0  0
  3  4  2  0  0  0
  4  5  1  0  0  0
  5  6  1  0  0  0
  6  7  1  0  0  0
  7 31  1  0  0  0
 31 32  3  0  0  0
  7  8  1  0  0  0
  8  9  1  0  0  0
  9 10  1  0  0  0
 10 11  2  0  0  0
 11 12  1  0  0  0
 12 13  1  0  0  0
 13 14  2  0  0  0
 10 15  1  0  0  0
 15 16  1  0  0  0
 15 17  2  0  0  0
 26 28  1  0  0  0
 28 29  2  0  0  0
 28 23  1  0  0  0
 14  1  1  0  0  0
 13  4  1  0  0  0
 12  8  2  0  0  0
 27 30  1  0  0  0
 16 18  1  0  0  0
 16 19  1  0  0  0
M  END
> <minimizedAffinity>
-6.98295

> <CNNscore>
0.4493575692

> <CNNaffinity>
6.5046415329

> <CNN_VS>
2.9229099751

> <CNNaffinity_variance>
0.1711305231

$$$$
[H]O[C@]1(C#Cc2c([H])c([H])c3c(c2[H])-c2nc(C(=O)N([H])[H])sc2[C@]([H])(C#N)C([H])([H])O3)C(=O)N(C([H])([H])[H])C([H])([H])C1([H])[H]


 32 35  0  0  0  0  0  0  0  0999 V2000
   41.3861   12.4976  -16.4041 C   0  0  0  0  0  0  0  0  0  0  0  0
   41.4478   11.7603  -17.5684 C   0  0  0  0  0  0  0  0  0  0  0  0
   40.3341   11.1599  -18.1209 C   0  0  0  0  0  0  0  0  0  0  0  0
   39.1222   11.3193  -17.4621 C   0  0  0  0  0  0  0  0  0  0  0  0
   38.0720   10.6714  -18.1102 O   0  0  0  0  0  0  0  0  0  0  0  0
   36.7869   10.2964  -17.6014 C   0  0  0  0  0  0  0  0  0  0  0  0
   36.0434   11.5641  -17.2477 C   0  0  0  0  0  0  0  0  0  0  0  0
   36.5422   12.0878  -15.9372 C   0  0  0  0  0  0  0  0  0  0  0  0
   35.5801   12.5593  -14.6107 S   0  0  0  0  0  0  0  0  0  0  0  0
   36.8402   13.0212  -13.5384 C   0  0  0  0  0  0  0  0  0  0  0  0
   37.9203   12.7871  -14.2590 N   0  0  0  0  0  0  0  0  0  0  0  0
   37.8089   12.3209  -15.4610 C   0  0  0  0  0  0  0  0  0  0  0  0
   39.0130   12.0457  -16.2989 C   0  0  0  0  0  0  0  0  0  0  0  0
   40.1502   12.6254  -15.7861 C   0  0  0  0  0  0  0  0  0  0  0  0
   36.7377   13.5476  -12.1557 C   0  0  0  0  0  0  0  0  0  0  0  0
   37.8626   14.2493  -11.6646 N   0  0  0  0  0  0  0  0  0  0  0  0
   35.7251   13.3826  -11.4693 O   0  0  0  0  0  0  0  0  0  0  0  0
   37.7137   14.9700  -10.9314 H   0  0  0  0  0  0  0  0  0  0  0  0
   38.8334   14.0863  -11.9950 H   0  0  0  0  0  0  0  0  0  0  0  0
   43.5388   13.6283  -15.3427 C   0  0  0  0  0  0  0  0  0  0  0  0
   42.5549   13.1222  -15.8328 C   0  0  0  0  0  0  0  0  0  0  0  0
   45.5438   13.4473  -11.1661 C   0  0  0  0  0  0  0  0  0  0  0  0
   45.5476   13.8174  -12.5736 N   0  0  0  0  0  0  0  0  0  0  0  0
   46.6240   13.5396  -13.5333 C   0  0  0  0  0  0  0  0  0  0  0  0
   45.8490   13.2097  -14.7857 C   0  0  0  0  0  0  0  0  0  0  0  0
   44.7143   14.2127  -14.7452 C   0  0  0  0  0  0  0  0  0  0  0  0
   45.1449   15.3261  -15.4787 O   0  0  0  0  0  0  0  0  0  0  0  0
   44.5542   14.5041  -13.3157 C   0  0  0  0  0  0  0  0  0  0  0  0
   43.6803   15.2431  -12.8134 O   0  0  0  0  0  0  0  0  0  0  0  0
   44.3794   15.9500  -15.5423 H   0  0  0  0  0  0  0  0  0  0  0  0
   34.6026   11.3266  -17.1199 C   0  0  0  0  0  0  0  0  0  0  0  0
   33.4677   11.1197  -17.0235 N   0  0  0  0  0  0  0  0  0  0  0  0
 22 23  1  0  0  0
 23 24  1  0  0  0
 24 25  1  0  0  0
 25 26  1  0  0  0
 26 27  1  0  0  0
 26 20  1  0  0  0
 20 21  3  0  0  0
 21  1  1  0  0  0
  1  2  2  0  0  0
  2  3  1  0  0  0
  3  4  2  0  0  0
  4  5  1  0  0  0
  5  6  1  0  0  0
  6  7  1  0  0  0
  7 31  1  0  0  0
 31 32  3  0  0  0
  7  8  1  0  0  0
  8  9  1  0  0  0
  9 10  1  0  0  0
 10 11  2  0  0  0
 11 12  1  0  0  0
 12 13  1  0  0  0
 13 14  2  0  0  0
 10 15  1  0  0  0
 15 16  1  0  0  0
 15 17  2  0  0  0
 26 28  1  0  0  0
 28 29  2  0  0  0
 28 23  1  0  0  0
 14  1  1  0  0  0
 13  4  1  0  0  0
 12  8  2  0  0  0
 27 30  1  0  0  0
 16 18  1  0  0  0
 16 19  1  0  0  0
M  END
> <minimizedAffinity>
-9.44124

> <CNNscore>
0.4165145755

> <CNNaffinity>
6.7027778625

> <CNN_VS>
2.7918047905

> <CNNaffinity_variance>
0.1381388903

$$$$
[H]OC([H])(c1c([H])c([H])nn1[H])c1c(C(=O)N([H])[H])nc2n1C1([H])C([H])([H])C([H])(c3c([H])c(F)c(C#CC(O[H])(C([H])([H])[H])C([H])([H])[H])c([H])c3-2)C1([H])[H]


 37 41  0  0  0  0  0  0  0  0999 V2000
   41.5564   16.0084   -8.0955 C   0  0  0  0  0  0  0  0  0  0  0  0
   40.1982   16.0249   -7.7860 C   0  0  0  0  0  0  0  0  0  0  0  0
   39.7456   16.2843   -6.5332 C   0  0  0  0  0  0  0  0  0  0  0  0
   38.2657   16.2529   -6.4174 C   0  0  0  0  0  0  0  0  0  0  0  0
   37.4201   15.9788   -7.3850 N   0  0  0  0  0  0  0  0  0  0  0  0
   36.1286   16.0435   -6.9114 C   0  0  0  0  0  0  0  0  0  0  0  0
   36.2112   16.3770   -5.5785 C   0  0  0  0  0  0  0  0  0  0  0  0
   37.5336   16.4978   -5.3081 N   0  0  0  0  0  0  0  0  0  0  0  0
   38.0927   16.8395   -4.0037 C   0  0  0  0  0  0  0  0  0  0  0  0
   39.1989   17.8933   -4.1722 C   0  0  0  0  0  0  0  0  0  0  0  0
   40.2891   16.8440   -4.0907 C   0  0  0  0  0  0  0  0  0  0  0  0
   39.2219   15.8702   -3.6231 C   0  0  0  0  0  0  0  0  0  0  0  0
   40.6608   16.5424   -5.5238 C   0  0  0  0  0  0  0  0  0  0  0  0
   42.0156   16.5409   -5.7642 C   0  0  0  0  0  0  0  0  0  0  0  0
   42.4346   16.2691   -7.0666 C   0  0  0  0  0  0  0  0  0  0  0  0
   43.7478   16.2628   -7.3227 F   0  0  0  0  0  0  0  0  0  0  0  0
   34.9605   15.7936   -7.7362 C   0  0  0  0  0  0  0  0  0  0  0  0
   34.3442   14.5817   -8.0295 N   0  0  0  0  0  0  0  0  0  0  0  0
   34.4189   16.8392   -8.2702 O   0  0  0  0  0  0  0  0  0  0  0  0
   34.6941   13.9980   -8.8214 H   0  0  0  0  0  0  0  0  0  0  0  0
   33.5248   14.2262   -7.4862 H   0  0  0  0  0  0  0  0  0  0  0  0
   35.0854   16.5622   -4.5988 C   0  0  0  0  0  0  0  0  0  0  0  0
   35.3845   15.9847   -3.3631 O   0  0  0  0  0  0  0  0  0  0  0  0
   34.5885   15.5479   -2.9472 H   0  0  0  0  0  0  0  0  0  0  0  0
   34.6070   17.9415   -4.5298 C   0  0  0  0  0  0  0  0  0  0  0  0
   34.8475   18.8502   -3.5302 C   0  0  0  0  0  0  0  0  0  0  0  0
   34.2147   20.0321   -3.8508 C   0  0  0  0  0  0  0  0  0  0  0  0
   33.6164   19.7953   -5.0294 N   0  0  0  0  0  0  0  0  0  0  0  0
   33.8441   18.5567   -5.4396 N   0  0  0  0  0  0  0  0  0  0  0  0
   33.4730   18.1377   -6.3462 H   0  0  0  0  0  0  0  0  0  0  0  0
   42.3861   15.4994  -10.5585 C   0  0  0  0  0  0  0  0  0  0  0  0
   41.9988   15.7270   -9.4398 C   0  0  0  0  0  0  0  0  0  0  0  0
   44.0834   14.3074  -11.8764 C   0  0  0  0  0  0  0  0  0  0  0  0
   42.8741   15.2391  -11.9104 C   0  0  0  0  0  0  0  0  0  0  0  0
   43.2968   16.4877  -12.6306 C   0  0  0  0  0  0  0  0  0  0  0  0
   41.8329   14.6596  -12.6307 O   0  0  0  0  0  0  0  0  0  0  0  0
   41.5140   15.2336  -13.3481 H   0  0  0  0  0  0  0  0  0  0  0  0
 33 34  1  0  0  0
 34 35  1  0  0  0
 34 36  1  0  0  0
 34 31  1  0  0  0
 31 32  3  0  0  0
 32  1  1  0  0  0
  1  2  1  0  0  0
  2  3  2  0  0  0
  3  4  1  0  0  0
  4  5  2  0  0  0
  5  6  1  0  0  0
  6 17  1  0  0  0
 17 18  1  0  0  0
 17 19  2  0  0  0
  6  7  2  0  0  0
  7 22  1  0  0  0
 22 23  1  0  0  0
 22 25  1  0  0  0
 25 26  2  0  0  0
 26 27  1  0  0  0
 27 28  2  0  0  0
 28 29  1  0  0  0
  7  8  1  0  0  0
  8  9  1  0  0  0
  9 10  1  0  0  0
 10 11  1  0  0  0
 11 12  1  0  0  0
 11 13  1  0  0  0
 13 14  2  0  0  0
 14 15  1  0  0  0
 15 16  1  0  0  0
 15  1  2  0  0  0
 13  3  1  0  0  0
  8  4  1  0  0  0
 12  9  1  0  0  0
 29 25  1  0  0  0
 36 37  1  0  0  0
 18 20  1  0  0  0
 18 21  1  0  0  0
 23 24  1  0  0  0
 29 30  1  0  0  0
M  END
> <minimizedAffinity>
-5.10586

> <CNNscore>
0.4945631027

> <CNNaffinity>
5.9814839363

> <CNN_VS>
2.9582211971

> <CNNaffinity_variance>
0.6146109104

$$$$
[H]OC([H])(c1c([H])c([H])nn1[H])c1c(C(=O)N([H])[H])nc2n1C1([H])C([H])([H])C([H])(c3c([H])c(F)c(C#CC(O[H])(C([H])([H])[H])C([H])([H])[H])c([H])c3-2)C1([H])[H]


 37 41  0  0  0  0  0  0  0  0999 V2000
   41.3519   15.9760   -8.3537 C   0  0  0  0  0  0  0  0  0  0  0  0
   40.0065   16.0818   -8.0074 C   0  0  0  0  0  0  0  0  0  0  0  0
   39.5863   16.0332   -6.7179 C   0  0  0  0  0  0  0  0  0  0  0  0
   38.1150   16.1640   -6.5670 C   0  0  0  0  0  0  0  0  0  0  0  0
   37.2454   16.2878   -7.5442 N   0  0  0  0  0  0  0  0  0  0  0  0
   35.9719   16.3843   -7.0293 C   0  0  0  0  0  0  0  0  0  0  0  0
   36.0915   16.3133   -5.6598 C   0  0  0  0  0  0  0  0  0  0  0  0
   37.4165   16.1788   -5.4101 N   0  0  0  0  0  0  0  0  0  0  0  0
   38.0095   16.0614   -4.0813 C   0  0  0  0  0  0  0  0  0  0  0  0
   39.2485   16.9658   -3.9833 C   0  0  0  0  0  0  0  0  0  0  0  0
   40.1869   15.8031   -4.2359 C   0  0  0  0  0  0  0  0  0  0  0  0
   38.9957   14.8851   -4.0258 C   0  0  0  0  0  0  0  0  0  0  0  0
   40.5224   15.8732   -5.7074 C   0  0  0  0  0  0  0  0  0  0  0  0
   41.8659   15.7626   -5.9830 C   0  0  0  0  0  0  0  0  0  0  0  0
   42.2515   15.8180   -7.3225 C   0  0  0  0  0  0  0  0  0  0  0  0
   43.5533   15.7126   -7.6131 F   0  0  0  0  0  0  0  0  0  0  0  0
   34.7853   16.5329   -7.8521 C   0  0  0  0  0  0  0  0  0  0  0  0
   33.8853   17.5924   -7.8995 N   0  0  0  0  0  0  0  0  0  0  0  0
   34.5304   15.5474   -8.6492 O   0  0  0  0  0  0  0  0  0  0  0  0
   33.0917   17.6321   -7.2222 H   0  0  0  0  0  0  0  0  0  0  0  0
   33.9654   18.3617   -8.6028 H   0  0  0  0  0  0  0  0  0  0  0  0
   34.9956   16.3595   -4.6310 C   0  0  0  0  0  0  0  0  0  0  0  0
   34.7316   17.6694   -4.2256 O   0  0  0  0  0  0  0  0  0  0  0  0
   34.5360   17.7307   -3.2481 H   0  0  0  0  0  0  0  0  0  0  0  0
   33.8152   15.5885   -5.0161 C   0  0  0  0  0  0  0  0  0  0  0  0
   33.7512   14.2382   -5.2513 C   0  0  0  0  0  0  0  0  0  0  0  0
   32.4551   13.9133   -5.5900 C   0  0  0  0  0  0  0  0  0  0  0  0
   31.7848   15.0761   -5.5472 N   0  0  0  0  0  0  0  0  0  0  0  0
   32.5846   16.0755   -5.2074 N   0  0  0  0  0  0  0  0  0  0  0  0
   32.2805   17.0918   -5.1080 H   0  0  0  0  0  0  0  0  0  0  0  0
   42.0812   16.0787  -10.8975 C   0  0  0  0  0  0  0  0  0  0  0  0
   41.7596   16.0311   -9.7367 C   0  0  0  0  0  0  0  0  0  0  0  0
   42.6217   14.7226  -12.8743 C   0  0  0  0  0  0  0  0  0  0  0  0
   42.4479   16.1310  -12.3105 C   0  0  0  0  0  0  0  0  0  0  0  0
   43.7340   16.8678  -12.5545 C   0  0  0  0  0  0  0  0  0  0  0  0
   41.4328   16.8039  -12.9853 O   0  0  0  0  0  0  0  0  0  0  0  0
   41.7299   17.6563  -13.3471 H   0  0  0  0  0  0  0  0  0  0  0  0
 33 34  1  0  0  0
 34 35  1  0  0  0
 34 36  1  0  0  0
 34 31  1  0  0  0
 31 32  3  0  0  0
 32  1  1  0  0  0
  1  2  1  0  0  0
  2  3  2  0  0  0
  3  4  1  0  0  0
  4  5  2  0  0  0
  5  6  1  0  0  0
  6 17  1  0  0  0
 17 18  1  0  0  0
 17 19  2  0  0  0
  6  7  2  0  0  0
  7 22  1  0  0  0
 22 23  1  0  0  0
 22 25  1  0  0  0
 25 26  2  0  0  0
 26 27  1  0  0  0
 27 28  2  0  0  0
 28 29  1  0  0  0
  7  8  1  0  0  0
  8  9  1  0  0  0
  9 10  1  0  0  0
 10 11  1  0  0  0
 11 12  1  0  0  0
 11 13  1  0  0  0
 13 14  2  0  0  0
 14 15  1  0  0  0
 15 16  1  0  0  0
 15  1  2  0  0  0
 13  3  1  0  0  0
  8  4  1  0  0  0
 12  9  1  0  0  0
 29 25  1  0  0  0
 36 37  1  0  0  0
 18 20  1  0  0  0
 18 21  1  0  0  0
 23 24  1  0  0  0
 29 30  1  0  0  0
M  END
> <minimizedAffinity>
-5.70174

> <CNNscore>
0.4942809641

> <CNNaffinity>
6.2471504211

> <CNN_VS>
3.0878474712

> <CNNaffinity_variance>
1.0023000240

$$$$
[H]OC([H])(c1c([H])c([H])nn1[H])c1c(C(=O)N([H])[H])nc2n1C1([H])C([H])([H])C([H])(c3c([H])c(F)c(C#CC(O[H])(C([H])([H])[H])C([H])([H])[H])c([H])c3-2)C1([H])[H]


 37 41  0  0  0  0  0  0  0  0999 V2000
   35.1489   15.1018  -11.9051 C   0  0  0  0  0  0  0  0  0  0  0  0
   35.2720   14.1833  -12.9454 C   0  0  0  0  0  0  0  0  0  0  0  0
   36.4543   13.9544  -13.5711 C   0  0  0  0  0  0  0  0  0  0  0  0
   36.3683   12.9391  -14.6511 C   0  0  0  0  0  0  0  0  0  0  0  0
   35.2814   12.3081  -15.0345 N   0  0  0  0  0  0  0  0  0  0  0  0
   35.5803   11.4405  -16.0613 C   0  0  0  0  0  0  0  0  0  0  0  0
   36.9297   11.5632  -16.3039 C   0  0  0  0  0  0  0  0  0  0  0  0
   37.3819   12.4887  -15.4234 N   0  0  0  0  0  0  0  0  0  0  0  0
   38.7660   12.9415  -15.3228 C   0  0  0  0  0  0  0  0  0  0  0  0
   39.1880   12.9990  -13.8459 C   0  0  0  0  0  0  0  0  0  0  0  0
   38.9522   14.4943  -13.7783 C   0  0  0  0  0  0  0  0  0  0  0  0
   38.8376   14.4755  -15.2923 C   0  0  0  0  0  0  0  0  0  0  0  0
   37.5803   14.6548  -13.1658 C   0  0  0  0  0  0  0  0  0  0  0  0
   37.5254   15.5756  -12.1449 C   0  0  0  0  0  0  0  0  0  0  0  0
   36.2892   15.7781  -11.5310 C   0  0  0  0  0  0  0  0  0  0  0  0
   36.2131   16.6690  -10.5356 F   0  0  0  0  0  0  0  0  0  0  0  0
   34.5936   10.5927  -16.7053 C   0  0  0  0  0  0  0  0  0  0  0  0
   33.3536   10.9425  -17.2293 N   0  0  0  0  0  0  0  0  0  0  0  0
   34.9103    9.3432  -16.8062 O   0  0  0  0  0  0  0  0  0  0  0  0
   32.5172   10.9818  -16.6056 H   0  0  0  0  0  0  0  0  0  0  0  0
   33.2179   11.1644  -18.2419 H   0  0  0  0  0  0  0  0  0  0  0  0
   37.7546   10.8425  -17.3343 C   0  0  0  0  0  0  0  0  0  0  0  0
   37.0080   10.5633  -18.4809 O   0  0  0  0  0  0  0  0  0  0  0  0
   37.2271    9.6684  -18.8663 H   0  0  0  0  0  0  0  0  0  0  0  0
   39.0449   11.4817  -17.5849 C   0  0  0  0  0  0  0  0  0  0  0  0
   40.2447   11.1809  -16.9911 C   0  0  0  0  0  0  0  0  0  0  0  0
   41.2111   12.0174  -17.5074 C   0  0  0  0  0  0  0  0  0  0  0  0
   40.5617   12.7912  -18.3922 N   0  0  0  0  0  0  0  0  0  0  0  0
   39.2754   12.4798  -18.4443 N   0  0  0  0  0  0  0  0  0  0  0  0
   38.5587   12.9562  -19.0725 H   0  0  0  0  0  0  0  0  0  0  0  0
   32.8071   15.4800  -10.7275 C   0  0  0  0  0  0  0  0  0  0  0  0
   33.8739   15.3184  -11.2653 C   0  0  0  0  0  0  0  0  0  0  0  0
   31.4981   14.9749   -8.7100 C   0  0  0  0  0  0  0  0  0  0  0  0
   31.5097   15.6518  -10.0788 C   0  0  0  0  0  0  0  0  0  0  0  0
   30.3765   15.0664  -10.8722 C   0  0  0  0  0  0  0  0  0  0  0  0
   31.2810   17.0189   -9.9479 O   0  0  0  0  0  0  0  0  0  0  0  0
   30.5361   17.3242  -10.4936 H   0  0  0  0  0  0  0  0  0  0  0  0
 33 34  1  0  0  0
 34 35  1  0  0  0
 34 36  1  0  0  0
 34 31  1  0  0  0
 31 32  3  0  0  0
 32  1  1  0  0  0
  1  2  1  0  0  0
  2  3  2  0  0  0
  3  4  1  0  0  0
  4  5  2  0  0  0
  5  6  1  0  0  0
  6 17  1  0  0  0
 17 18  1  0  0  0
 17 19  2  0  0  0
  6  7  2  0  0  0
  7 22  1  0  0  0
 22 23  1  0  0  0
 22 25  1  0  0  0
 25 26  2  0  0  0
 26 27  1  0  0  0
 27 28  2  0  0  0
 28 29  1  0  0  0
  7  8  1  0  0  0
  8  9  1  0  0  0
  9 10  1  0  0  0
 10 11  1  0  0  0
 11 12  1  0  0  0
 11 13  1  0  0  0
 13 14  2  0  0  0
 14 15  1  0  0  0
 15 16  1  0  0  0
 15  1  2  0  0  0
 13  3  1  0  0  0
  8  4  1  0  0  0
 12  9  1  0  0  0
 29 25  1  0  0  0
 36 37  1  0  0  0
 18 20  1  0  0  0
 18 21  1  0  0  0
 23 24  1  0  0  0
 29 30  1  0  0  0
M  END
> <minimizedAffinity>
-7.13962

> <CNNscore>
0.2711207867

> <CNNaffinity>
6.8395957947

> <CNN_VS>
1.8543566465

> <CNNaffinity_variance>
0.2266630679

$$$$
[H]OC([H])(c1c([H])c([H])nn1[H])c1c(C(=O)N([H])[H])nc2n1C1([H])C([H])([H])C([H])(c3c([H])c(F)c(C#CC(O[H])(C([H])([H])[H])C([H])([H])[H])c([H])c3-2)C1([H])[H]


 37 41  0  0  0  0  0  0  0  0999 V2000
   40.0415   12.6885  -15.1160 C   0  0  0  0  0  0  0  0  0  0  0  0
   39.4952   13.4359  -14.0749 C   0  0  0  0  0  0  0  0  0  0  0  0
   38.1744   13.3883  -13.7668 C   0  0  0  0  0  0  0  0  0  0  0  0
   37.7986   14.2602  -12.6253 C   0  0  0  0  0  0  0  0  0  0  0  0
   38.6086   15.0476  -11.9543 N   0  0  0  0  0  0  0  0  0  0  0  0
   37.9113   15.7044  -10.9649 C   0  0  0  0  0  0  0  0  0  0  0  0
   36.6045   15.2810  -11.0530 C   0  0  0  0  0  0  0  0  0  0  0  0
   36.5697   14.3973  -12.0797 N   0  0  0  0  0  0  0  0  0  0  0  0
   35.3753   13.6941  -12.5379 C   0  0  0  0  0  0  0  0  0  0  0  0
   35.7046   12.2120  -12.7777 C   0  0  0  0  0  0  0  0  0  0  0  0
   35.8510   12.4278  -14.2704 C   0  0  0  0  0  0  0  0  0  0  0  0
   35.2320   13.7988  -14.0636 C   0  0  0  0  0  0  0  0  0  0  0  0
   37.3361   12.5705  -14.5094 C   0  0  0  0  0  0  0  0  0  0  0  0
   37.8133   11.8075  -15.5502 C   0  0  0  0  0  0  0  0  0  0  0  0
   39.1774   11.8883  -15.8306 C   0  0  0  0  0  0  0  0  0  0  0  0
   39.6627   11.1545  -16.8387 F   0  0  0  0  0  0  0  0  0  0  0  0
   38.5228   16.6472  -10.0461 C   0  0  0  0  0  0  0  0  0  0  0  0
   38.5629   18.0355  -10.1211 N   0  0  0  0  0  0  0  0  0  0  0  0
   39.1094   16.1263   -9.0183 O   0  0  0  0  0  0  0  0  0  0  0  0
   39.3115   18.5054  -10.6769 H   0  0  0  0  0  0  0  0  0  0  0  0
   37.8673   18.6414   -9.6292 H   0  0  0  0  0  0  0  0  0  0  0  0
   35.4350   15.7043  -10.2075 C   0  0  0  0  0  0  0  0  0  0  0  0
   35.6779   16.9258   -9.5760 O   0  0  0  0  0  0  0  0  0  0  0  0
   35.3131   16.9503   -8.6467 H   0  0  0  0  0  0  0  0  0  0  0  0
   34.1582   15.6240  -10.9142 C   0  0  0  0  0  0  0  0  0  0  0  0
   32.9290   15.3486  -10.3701 C   0  0  0  0  0  0  0  0  0  0  0  0
   31.9893   15.3672  -11.3785 C   0  0  0  0  0  0  0  0  0  0  0  0
   32.6831   15.6524  -12.4923 N   0  0  0  0  0  0  0  0  0  0  0  0
   33.9713   15.8063  -12.2256 N   0  0  0  0  0  0  0  0  0  0  0  0
   34.7193   16.0368  -12.9484 H   0  0  0  0  0  0  0  0  0  0  0  0
   42.6301   12.8127  -15.6617 C   0  0  0  0  0  0  0  0  0  0  0  0
   41.4511   12.7669  -15.4139 C   0  0  0  0  0  0  0  0  0  0  0  0
   44.5658   14.2852  -16.0128 C   0  0  0  0  0  0  0  0  0  0  0  0
   44.0609   12.8453  -15.9538 C   0  0  0  0  0  0  0  0  0  0  0  0
   44.4052   12.2008  -17.2662 C   0  0  0  0  0  0  0  0  0  0  0  0
   44.7135   12.1413  -14.9453 O   0  0  0  0  0  0  0  0  0  0  0  0
   45.1300   11.3256  -15.2725 H   0  0  0  0  0  0  0  0  0  0  0  0
 33 34  1  0  0  0
 34 35  1  0  0  0
 34 36  1  0  0  0
 34 31  1  0  0  0
 31 32  3  0  0  0
 32  1  1  0  0  0
  1  2  1  0  0  0
  2  3  2  0  0  0
  3  4  1  0  0  0
  4  5  2  0  0  0
  5  6  1  0  0  0
  6 17  1  0  0  0
 17 18  1  0  0  0
 17 19  2  0  0  0
  6  7  2  0  0  0
  7 22  1  0  0  0
 22 23  1  0  0  0
 22 25  1  0  0  0
 25 26  2  0  0  0
 26 27  1  0  0  0
 27 28  2  0  0  0
 28 29  1  0  0  0
  7  8  1  0  0  0
  8  9  1  0  0  0
  9 10  1  0  0  0
 10 11  1  0  0  0
 11 12  1  0  0  0
 11 13  1  0  0  0
 13 14  2  0  0  0
 14 15  1  0  0  0
 15 16  1  0  0  0
 15  1  2  0  0  0
 13  3  1  0  0  0
  8  4  1  0  0  0
 12  9  1  0  0  0
 29 25  1  0  0  0
 36 37  1  0  0  0
 18 20  1  0  0  0
 18 21  1  0  0  0
 23 24  1  0  0  0
 29 30  1  0  0  0
M  END
> <minimizedAffinity>
-7.70522

> <CNNscore>
0.1858160943

> <CNNaffinity>
6.6091895103

> <CNN_VS>
1.2280937433

> <CNNaffinity_variance>
0.0715412423

$$$$
[H]OC([H])(c1c([H])c([H])nn1[H])c1c(C(=O)N([H])[H])nc2n1C1([H])C([H])([H])C([H])(c3c([H])c(F)c(C#CC(O[H])(C([H])([H])[H])C([H])([H])[H])c([H])c3-2)C1([H])[H]


 37 41  0  0  0  0  0  0  0  0999 V2000
   39.7937   12.7698  -15.4332 C   0  0  0  0  0  0  0  0  0  0  0  0
   39.1752   13.5263  -14.4402 C   0  0  0  0  0  0  0  0  0  0  0  0
   37.8414   13.4526  -14.2010 C   0  0  0  0  0  0  0  0  0  0  0  0
   37.3848   14.3401  -13.1017 C   0  0  0  0  0  0  0  0  0  0  0  0
   38.1390   15.1623  -12.4078 N   0  0  0  0  0  0  0  0  0  0  0  0
   37.3747   15.8234  -11.4723 C   0  0  0  0  0  0  0  0  0  0  0  0
   36.0848   15.3655  -11.6189 C   0  0  0  0  0  0  0  0  0  0  0  0
   36.1257   14.4585  -12.6249 N   0  0  0  0  0  0  0  0  0  0  0  0
   34.9745   13.7155  -13.1285 C   0  0  0  0  0  0  0  0  0  0  0  0
   35.3513   12.2372  -13.3155 C   0  0  0  0  0  0  0  0  0  0  0  0
   35.5717   12.4231  -14.8032 C   0  0  0  0  0  0  0  0  0  0  0  0
   34.9100   13.7825  -14.6617 C   0  0  0  0  0  0  0  0  0  0  0  0
   37.0635   12.5976  -14.9670 C   0  0  0  0  0  0  0  0  0  0  0  0
   37.6134   11.8238  -15.9630 C   0  0  0  0  0  0  0  0  0  0  0  0
   38.9881   11.9325  -16.1732 C   0  0  0  0  0  0  0  0  0  0  0  0
   39.5437   11.1887  -17.1367 F   0  0  0  0  0  0  0  0  0  0  0  0
   37.9138   16.8015  -10.5451 C   0  0  0  0  0  0  0  0  0  0  0  0
   37.5921   18.1485  -10.4153 N   0  0  0  0  0  0  0  0  0  0  0  0
   38.8148   16.3613   -9.7290 O   0  0  0  0  0  0  0  0  0  0  0  0
   38.0660   18.8573  -11.0178 H   0  0  0  0  0  0  0  0  0  0  0  0
   36.8885   18.4899   -9.7215 H   0  0  0  0  0  0  0  0  0  0  0  0
   34.8624   15.7781  -10.8464 C   0  0  0  0  0  0  0  0  0  0  0  0
   33.6925   15.3423  -11.4721 O   0  0  0  0  0  0  0  0  0  0  0  0
   32.9578   16.0161  -11.4118 H   0  0  0  0  0  0  0  0  0  0  0  0
   34.9498   15.4600   -9.4226 C   0  0  0  0  0  0  0  0  0  0  0  0
   34.5652   16.2561   -8.3732 C   0  0  0  0  0  0  0  0  0  0  0  0
   34.8176   15.5830   -7.1970 C   0  0  0  0  0  0  0  0  0  0  0  0
   35.3441   14.4077   -7.5775 N   0  0  0  0  0  0  0  0  0  0  0  0
   35.4262   14.3266   -8.8969 N   0  0  0  0  0  0  0  0  0  0  0  0
   35.8106   13.4896   -9.4325 H   0  0  0  0  0  0  0  0  0  0  0  0
   42.4055   12.9538  -15.8314 C   0  0  0  0  0  0  0  0  0  0  0  0
   41.2150   12.8769  -15.6583 C   0  0  0  0  0  0  0  0  0  0  0  0
   44.3730   11.8013  -16.7477 C   0  0  0  0  0  0  0  0  0  0  0  0
   43.8517   13.0377  -16.0187 C   0  0  0  0  0  0  0  0  0  0  0  0
   44.6048   13.1385  -14.7229 C   0  0  0  0  0  0  0  0  0  0  0  0
   44.1154   14.1869  -16.7591 O   0  0  0  0  0  0  0  0  0  0  0  0
   44.6028   14.8545  -16.2466 H   0  0  0  0  0  0  0  0  0  0  0  0
 33 34  1  0  0  0
 34 35  1  0  0  0
 34 36  1  0  0  0
 34 31  1  0  0  0
 31 32  3  0  0  0
 32  1  1  0  0  0
  1  2  1  0  0  0
  2  3  2  0  0  0
  3  4  1  0  0  0
  4  5  2  0  0  0
  5  6  1  0  0  0
  6 17  1  0  0  0
 17 18  1  0  0  0
 17 19  2  0  0  0
  6  7  2  0  0  0
  7 22  1  0  0  0
 22 23  1  0  0  0
 22 25  1  0  0  0
 25 26  2  0  0  0
 26 27  1  0  0  0
 27 28  2  0  0  0
 28 29  1  0  0  0
  7  8  1  0  0  0
  8  9  1  0  0  0
  9 10  1  0  0  0
 10 11  1  0  0  0
 11 12  1  0  0  0
 11 13  1  0  0  0
 13 14  2  0  0  0
 14 15  1  0  0  0
 15 16  1  0  0  0
 15  1  2  0  0  0
 13  3  1  0  0  0
  8  4  1  0  0  0
 12  9  1  0  0  0
 29 25  1  0  0  0
 36 37  1  0  0  0
 18 20  1  0  0  0
 18 21  1  0  0  0
 23 24  1  0  0  0
 29 30  1  0  0  0
M  END
> <minimizedAffinity>
-10.52503

> <CNNscore>
0.1702991128

> <CNNaffinity>
6.3826379776

> <CNN_VS>
1.0869575739

> <CNNaffinity_variance>
0.1880599111

$$$$
[H]OC([H])(c1c([H])c([H])nn1[H])c1c(C(=O)N([H])[H])nc2n1C1([H])C([H])([H])C([H])(c3c([H])c(F)c(C#CC(O[H])(C([H])([H])[H])C([H])([H])[H])c([H])c3-2)C1([H])[H]


 37 41  0  0  0  0  0  0  0  0999 V2000
   36.8424   13.3914  -14.2345 C   0  0  0  0  0  0  0  0  0  0  0  0
   35.7243   13.7622  -13.4906 C   0  0  0  0  0  0  0  0  0  0  0  0
   35.8170   14.5556  -12.3935 C   0  0  0  0  0  0  0  0  0  0  0  0
   34.5091   14.8299  -11.7464 C   0  0  0  0  0  0  0  0  0  0  0  0
   33.3434   14.3591  -12.1284 N   0  0  0  0  0  0  0  0  0  0  0  0
   32.3528   14.8246  -11.2926 C   0  0  0  0  0  0  0  0  0  0  0  0
   32.9680   15.6223  -10.3545 C   0  0  0  0  0  0  0  0  0  0  0  0
   34.2879   15.6042  -10.6609 N   0  0  0  0  0  0  0  0  0  0  0  0
   35.3276   16.3152   -9.9231 C   0  0  0  0  0  0  0  0  0  0  0  0
   36.2787   17.0136  -10.9080 C   0  0  0  0  0  0  0  0  0  0  0  0
   37.3025   15.9021  -10.7953 C   0  0  0  0  0  0  0  0  0  0  0  0
   36.5082   15.3838   -9.6096 C   0  0  0  0  0  0  0  0  0  0  0  0
   37.0630   15.0156  -11.9952 C   0  0  0  0  0  0  0  0  0  0  0  0
   38.2059   14.6856  -12.6867 C   0  0  0  0  0  0  0  0  0  0  0  0
   38.0625   13.8679  -13.8077 C   0  0  0  0  0  0  0  0  0  0  0  0
   39.1610   13.5347  -14.4950 F   0  0  0  0  0  0  0  0  0  0  0  0
   30.9498   14.4868  -11.4490 C   0  0  0  0  0  0  0  0  0  0  0  0
   30.1639   14.5385  -12.5954 N   0  0  0  0  0  0  0  0  0  0  0  0
   30.3491   14.0826  -10.3777 O   0  0  0  0  0  0  0  0  0  0  0  0
   29.7008   15.4333  -12.8692 H   0  0  0  0  0  0  0  0  0  0  0  0
   30.0068   13.7021  -13.2026 H   0  0  0  0  0  0  0  0  0  0  0  0
   32.3339   16.3617   -9.2087 C   0  0  0  0  0  0  0  0  0  0  0  0
   31.1036   16.9114   -9.5751 O   0  0  0  0  0  0  0  0  0  0  0  0
   30.9567   17.8128   -9.1708 H   0  0  0  0  0  0  0  0  0  0  0  0
   32.3137   15.5884   -7.9687 C   0  0  0  0  0  0  0  0  0  0  0  0
   32.8087   15.9720   -6.7479 C   0  0  0  0  0  0  0  0  0  0  0  0
   32.5899   14.9526   -5.8462 C   0  0  0  0  0  0  0  0  0  0  0  0
   31.9721   13.9925   -6.5532 N   0  0  0  0  0  0  0  0  0  0  0  0
   31.8043   14.3617   -7.8140 N   0  0  0  0  0  0  0  0  0  0  0  0
   31.3388   13.7672   -8.5657 H   0  0  0  0  0  0  0  0  0  0  0  0
   36.5967   11.8232  -16.3544 C   0  0  0  0  0  0  0  0  0  0  0  0
   36.7035   12.5449  -15.3947 C   0  0  0  0  0  0  0  0  0  0  0  0
   35.6942    9.6790  -17.1460 C   0  0  0  0  0  0  0  0  0  0  0  0
   36.4849   10.9342  -17.5080 C   0  0  0  0  0  0  0  0  0  0  0  0
   37.8189   10.4823  -18.0302 C   0  0  0  0  0  0  0  0  0  0  0  0
   35.8427   11.6385  -18.5229 O   0  0  0  0  0  0  0  0  0  0  0  0
   36.4246   11.8052  -19.2841 H   0  0  0  0  0  0  0  0  0  0  0  0
 33 34  1  0  0  0
 34 35  1  0  0  0
 34 36  1  0  0  0
 34 31  1  0  0  0
 31 32  3  0  0  0
 32  1  1  0  0  0
  1  2  1  0  0  0
  2  3  2  0  0  0
  3  4  1  0  0  0
  4  5  2  0  0  0
  5  6  1  0  0  0
  6 17  1  0  0  0
 17 18  1  0  0  0
 17 19  2  0  0  0
  6  7  2  0  0  0
  7 22  1  0  0  0
 22 23  1  0  0  0
 22 25  1  0  0  0
 25 26  2  0  0  0
 26 27  1  0  0  0
 27 28  2  0  0  0
 28 29  1  0  0  0
  7  8  1  0  0  0
  8  9  1  0  0  0
  9 10  1  0  0  0
 10 11  1  0  0  0
 11 12  1  0  0  0
 11 13  1  0  0  0
 13 14  2  0  0  0
 14 15  1  0  0  0
 15 16  1  0  0  0
 15  1  2  0  0  0
 13  3  1  0  0  0
  8  4  1  0  0  0
 12  9  1  0  0  0
 29 25  1  0  0  0
 36 37  1  0  0  0
 18 20  1  0  0  0
 18 21  1  0  0  0
 23 24  1  0  0  0
 29 30  1  0  0  0
M  END
> <minimizedAffinity>
-7.97939

> <CNNscore>
0.1356736869

> <CNNaffinity>
6.3170871735

> <CNN_VS>
0.8570625186

> <CNNaffinity_variance>
0.0744576007

$$$$
[H]OC([H])(c1c([H])c([H])nn1[H])c1c(C(=O)N([H])[H])nc2n1C1([H])C([H])([H])C([H])(c3c([H])c(F)c(C#CC(O[H])(C([H])([H])[H])C([H])([H])[H])c([H])c3-2)C1([H])[H]


 37 41  0  0  0  0  0  0  0  0999 V2000
   40.1015   16.0317   -8.4281 C   0  0  0  0  0  0  0  0  0  0  0  0
   41.3284   15.4864   -8.8000 C   0  0  0  0  0  0  0  0  0  0  0  0
   41.7759   15.5206  -10.0807 C   0  0  0  0  0  0  0  0  0  0  0  0
   43.1050   14.8843  -10.2629 C   0  0  0  0  0  0  0  0  0  0  0  0
   43.8183   14.3013   -9.3260 N   0  0  0  0  0  0  0  0  0  0  0  0
   44.9948   13.8250   -9.8603 C   0  0  0  0  0  0  0  0  0  0  0  0
   44.9804   14.1448  -11.1991 C   0  0  0  0  0  0  0  0  0  0  0  0
   43.8095   14.7927  -11.4127 N   0  0  0  0  0  0  0  0  0  0  0  0
   43.3659   15.3154  -12.7014 C   0  0  0  0  0  0  0  0  0  0  0  0
   42.7976   16.7320  -12.5200 C   0  0  0  0  0  0  0  0  0  0  0  0
   41.3714   16.2201  -12.5140 C   0  0  0  0  0  0  0  0  0  0  0  0
   41.9200   14.8884  -12.9951 C   0  0  0  0  0  0  0  0  0  0  0  0
   40.9904   16.1168  -11.0556 C   0  0  0  0  0  0  0  0  0  0  0  0
   39.7690   16.6734  -10.7534 C   0  0  0  0  0  0  0  0  0  0  0  0
   39.3497   16.6150   -9.4243 C   0  0  0  0  0  0  0  0  0  0  0  0
   38.1650   17.1505   -9.1082 F   0  0  0  0  0  0  0  0  0  0  0  0
   46.0037   13.1301   -9.0816 C   0  0  0  0  0  0  0  0  0  0  0  0
   47.3055   13.5251   -8.7921 N   0  0  0  0  0  0  0  0  0  0  0  0
   45.6435   11.9898   -8.5899 O   0  0  0  0  0  0  0  0  0  0  0  0
   48.0741   13.3211   -9.4687 H   0  0  0  0  0  0  0  0  0  0  0  0
   47.5546   14.0199   -7.9055 H   0  0  0  0  0  0  0  0  0  0  0  0
   46.0265   13.8394  -12.2353 C   0  0  0  0  0  0  0  0  0  0  0  0
   45.5516   12.9362  -13.1886 O   0  0  0  0  0  0  0  0  0  0  0  0
   46.2506   12.2806  -13.4697 H   0  0  0  0  0  0  0  0  0  0  0  0
   46.6535   15.0386  -12.7875 C   0  0  0  0  0  0  0  0  0  0  0  0
   47.1909   16.0877  -12.0850 C   0  0  0  0  0  0  0  0  0  0  0  0
   47.6776   17.0130  -12.9833 C   0  0  0  0  0  0  0  0  0  0  0  0
   47.4173   16.4907  -14.1928 N   0  0  0  0  0  0  0  0  0  0  0  0
   46.8095   15.3189  -14.0856 N   0  0  0  0  0  0  0  0  0  0  0  0
   46.5033   14.7145  -14.9078 H   0  0  0  0  0  0  0  0  0  0  0  0
   39.3078   15.9199   -5.9039 C   0  0  0  0  0  0  0  0  0  0  0  0
   39.6594   15.9746   -7.0558 C   0  0  0  0  0  0  0  0  0  0  0  0
   37.5762   16.5665   -4.2846 C   0  0  0  0  0  0  0  0  0  0  0  0
   38.9005   15.8385   -4.5036 C   0  0  0  0  0  0  0  0  0  0  0  0
   39.9025   16.4496   -3.5661 C   0  0  0  0  0  0  0  0  0  0  0  0
   38.7747   14.4905   -4.1783 O   0  0  0  0  0  0  0  0  0  0  0  0
   39.4376   14.2027   -3.5275 H   0  0  0  0  0  0  0  0  0  0  0  0
 33 34  1  0  0  0
 34 35  1  0  0  0
 34 36  1  0  0  0
 34 31  1  0  0  0
 31 32  3  0  0  0
 32  1  1  0  0  0
  1  2  1  0  0  0
  2  3  2  0  0  0
  3  4  1  0  0  0
  4  5  2  0  0  0
  5  6  1  0  0  0
  6 17  1  0  0  0
 17 18  1  0  0  0
 17 19  2  0  0  0
  6  7  2  0  0  0
  7 22  1  0  0  0
 22 23  1  0  0  0
 22 25  1  0  0  0
 25 26  2  0  0  0
 26 27  1  0  0  0
 27 28  2  0  0  0
 28 29  1  0  0  0
  7  8  1  0  0  0
  8  9  1  0  0  0
  9 10  1  0  0  0
 10 11  1  0  0  0
 11 12  1  0  0  0
 11 13  1  0  0  0
 13 14  2  0  0  0
 14 15  1  0  0  0
 15 16  1  0  0  0
 15  1  2  0  0  0
 13  3  1  0  0  0
  8  4  1  0  0  0
 12  9  1  0  0  0
 29 25  1  0  0  0
 36 37  1  0  0  0
 18 20  1  0  0  0
 18 21  1  0  0  0
 23 24  1  0  0  0
 29 30  1  0  0  0
M  END
> <minimizedAffinity>
-5.10014

> <CNNscore>
0.1252266914

> <CNNaffinity>
5.4429984093

> <CNN_VS>
0.6816086769

> <CNNaffinity_variance>
0.3190754950

$$$$
[H]OC([H])(c1c([H])c([H])nn1[H])c1c(C(=O)N([H])[H])nc2n1C1([H])C([H])([H])C([H])(c3c([H])c(F)c(C#CC(O[H])(C([H])([H])[H])C([H])([H])[H])c([H])c3-2)C1([H])[H]


 37 41  0  0  0  0  0  0  0  0999 V2000
   36.7046   14.6894  -10.8977 C   0  0  0  0  0  0  0  0  0  0  0  0
   36.0090   14.9016   -9.7094 C   0  0  0  0  0  0  0  0  0  0  0  0
   36.5771   15.5118   -8.6386 C   0  0  0  0  0  0  0  0  0  0  0  0
   35.6651   15.6384   -7.4738 C   0  0  0  0  0  0  0  0  0  0  0  0
   34.4285   15.1990   -7.4084 N   0  0  0  0  0  0  0  0  0  0  0  0
   33.8906   15.4939   -6.1755 C   0  0  0  0  0  0  0  0  0  0  0  0
   34.8686   16.1499   -5.4628 C   0  0  0  0  0  0  0  0  0  0  0  0
   35.9421   16.2219   -6.2865 N   0  0  0  0  0  0  0  0  0  0  0  0
   37.2204   16.8375   -5.9428 C   0  0  0  0  0  0  0  0  0  0  0  0
   37.7056   17.7136   -7.1088 C   0  0  0  0  0  0  0  0  0  0  0  0
   38.6409   16.6306   -7.6074 C   0  0  0  0  0  0  0  0  0  0  0  0
   38.3882   15.9049   -6.2977 C   0  0  0  0  0  0  0  0  0  0  0  0
   37.8931   15.9405   -8.7243 C   0  0  0  0  0  0  0  0  0  0  0  0
   38.6345   15.7609   -9.8694 C   0  0  0  0  0  0  0  0  0  0  0  0
   38.0093   15.1290  -10.9445 C   0  0  0  0  0  0  0  0  0  0  0  0
   38.7120   14.9442  -12.0681 F   0  0  0  0  0  0  0  0  0  0  0  0
   32.5364   15.1422   -5.7886 C   0  0  0  0  0  0  0  0  0  0  0  0
   32.0392   13.9084   -5.3823 N   0  0  0  0  0  0  0  0  0  0  0  0
   31.6758   16.1064   -5.8260 O   0  0  0  0  0  0  0  0  0  0  0  0
   31.7280   13.2122   -6.0954 H   0  0  0  0  0  0  0  0  0  0  0  0
   31.9540   13.6454   -4.3740 H   0  0  0  0  0  0  0  0  0  0  0  0
   34.7935   16.6765   -4.0561 C   0  0  0  0  0  0  0  0  0  0  0  0
   35.9918   16.4697   -3.3696 O   0  0  0  0  0  0  0  0  0  0  0  0
   35.8421   16.2191   -2.4145 H   0  0  0  0  0  0  0  0  0  0  0  0
   34.2731   18.0402   -3.9818 C   0  0  0  0  0  0  0  0  0  0  0  0
   33.0892   18.4428   -3.4170 C   0  0  0  0  0  0  0  0  0  0  0  0
   32.9778   19.8093   -3.5600 C   0  0  0  0  0  0  0  0  0  0  0  0
   34.0956   20.1817   -4.2042 N   0  0  0  0  0  0  0  0  0  0  0  0
   34.8699   19.1378   -4.4584 N   0  0  0  0  0  0  0  0  0  0  0  0
   35.8086   19.1839   -4.9603 H   0  0  0  0  0  0  0  0  0  0  0  0
   35.5246   13.4763  -12.9349 C   0  0  0  0  0  0  0  0  0  0  0  0
   36.0662   14.0356  -12.0144 C   0  0  0  0  0  0  0  0  0  0  0  0
   35.8055   12.6480  -15.2312 C   0  0  0  0  0  0  0  0  0  0  0  0
   34.8646   12.7792  -14.0357 C   0  0  0  0  0  0  0  0  0  0  0  0
   33.6299   13.4850  -14.5190 C   0  0  0  0  0  0  0  0  0  0  0  0
   34.4869   11.5216  -13.5729 O   0  0  0  0  0  0  0  0  0  0  0  0
   33.5210   11.4166  -13.5312 H   0  0  0  0  0  0  0  0  0  0  0  0
 33 34  1  0  0  0
 34 35  1  0  0  0
 34 36  1  0  0  0
 34 31  1  0  0  0
 31 32  3  0  0  0
 32  1  1  0  0  0
  1  2  1  0  0  0
  2  3  2  0  0  0
  3  4  1  0  0  0
  4  5  2  0  0  0
  5  6  1  0  0  0
  6 17  1  0  0  0
 17 18  1  0  0  0
 17 19  2  0  0  0
  6  7  2  0  0  0
  7 22  1  0  0  0
 22 23  1  0  0  0
 22 25  1  0  0  0
 25 26  2  0  0  0
 26 27  1  0  0  0
 27 28  2  0  0  0
 28 29  1  0  0  0
  7  8  1  0  0  0
  8  9  1  0  0  0
  9 10  1  0  0  0
 10 11  1  0  0  0
 11 12  1  0  0  0
 11 13  1  0  0  0
 13 14  2  0  0  0
 14 15  1  0  0  0
 15 16  1  0  0  0
 15  1  2  0  0  0
 13  3  1  0  0  0
  8  4  1  0  0  0
 12  9  1  0  0  0
 29 25  1  0  0  0
 36 37  1  0  0  0
 18 20  1  0  0  0
 18 21  1  0  0  0
 23 24  1  0  0  0
 29 30  1  0  0  0
M  END
> <minimizedAffinity>
-6.47025

> <CNNscore>
0.1165181324

> <CNNaffinity>
5.6781349182

> <CNN_VS>
0.6616056561

> <CNNaffinity_variance>
0.1377671063

$$$$
[H]OC([H])(c1c([H])c([H])nn1[H])c1c(C(=O)N([H])[H])nc2n1C1([H])C([H])([H])C([H])(c3c([H])c(F)c(C#CC(O[H])(C([H])([H])[H])C([H])([H])[H])c([H])c3-2)C1([H])[H]


 37 41  0  0  0  0  0  0  0  0999 V2000
   36.6172   14.2267  -12.9094 C   0  0  0  0  0  0  0  0  0  0  0  0
   35.9922   14.7282  -11.7698 C   0  0  0  0  0  0  0  0  0  0  0  0
   36.6461   15.5053  -10.8697 C   0  0  0  0  0  0  0  0  0  0  0  0
   35.7990   15.9336   -9.7280 C   0  0  0  0  0  0  0  0  0  0  0  0
   34.5421   15.6049   -9.5316 N   0  0  0  0  0  0  0  0  0  0  0  0
   34.0815   16.1853   -8.3708 C   0  0  0  0  0  0  0  0  0  0  0  0
   35.1303   16.9044   -7.8437 C   0  0  0  0  0  0  0  0  0  0  0  0
   36.1666   16.7291   -8.6990 N   0  0  0  0  0  0  0  0  0  0  0  0
   37.4950   17.3114   -8.5339 C   0  0  0  0  0  0  0  0  0  0  0  0
   37.9784   17.8913   -9.8728 C   0  0  0  0  0  0  0  0  0  0  0  0
   38.8208   16.6658  -10.1639 C   0  0  0  0  0  0  0  0  0  0  0  0
   38.5852   16.2461   -8.7237 C   0  0  0  0  0  0  0  0  0  0  0  0
   37.9806   15.8137  -11.0864 C   0  0  0  0  0  0  0  0  0  0  0  0
   38.6553   15.3497  -12.1921 C   0  0  0  0  0  0  0  0  0  0  0  0
   37.9429   14.5546  -13.0900 C   0  0  0  0  0  0  0  0  0  0  0  0
   38.5797   14.0927  -14.1724 F   0  0  0  0  0  0  0  0  0  0  0  0
   32.7278   16.0170   -7.8746 C   0  0  0  0  0  0  0  0  0  0  0  0
   31.6907   16.9432   -7.8415 N   0  0  0  0  0  0  0  0  0  0  0  0
   32.4476   14.8476   -7.3995 O   0  0  0  0  0  0  0  0  0  0  0  0
   31.6130   17.6093   -7.0412 H   0  0  0  0  0  0  0  0  0  0  0  0
   30.9666   16.9976   -8.5936 H   0  0  0  0  0  0  0  0  0  0  0  0
   35.1535   17.7144   -6.5769 C   0  0  0  0  0  0  0  0  0  0  0  0
   36.3829   17.6043   -5.9237 O   0  0  0  0  0  0  0  0  0  0  0  0
   36.2814   17.5642   -4.9310 H   0  0  0  0  0  0  0  0  0  0  0  0
   34.6805   19.0845   -6.7640 C   0  0  0  0  0  0  0  0  0  0  0  0
   33.6332   19.6922   -6.1184 C   0  0  0  0  0  0  0  0  0  0  0  0
   33.5202   20.9839   -6.5863 C   0  0  0  0  0  0  0  0  0  0  0  0
   34.5008   21.1095   -7.4950 N   0  0  0  0  0  0  0  0  0  0  0  0
   35.1943   19.9866   -7.6067 N   0  0  0  0  0  0  0  0  0  0  0  0
   36.0206   19.8444   -8.2640 H   0  0  0  0  0  0  0  0  0  0  0  0
   35.2624   12.7194  -14.6143 C   0  0  0  0  0  0  0  0  0  0  0  0
   35.8883   13.4024  -13.8429 C   0  0  0  0  0  0  0  0  0  0  0  0
   33.7764   10.7694  -14.7810 C   0  0  0  0  0  0  0  0  0  0  0  0
   34.4845   11.8933  -15.5341 C   0  0  0  0  0  0  0  0  0  0  0  0
   35.3269   11.2510  -16.5991 C   0  0  0  0  0  0  0  0  0  0  0  0
   33.5560   12.7197  -16.1613 O   0  0  0  0  0  0  0  0  0  0  0  0
   33.7275   12.8141  -17.1139 H   0  0  0  0  0  0  0  0  0  0  0  0
 33 34  1  0  0  0
 34 35  1  0  0  0
 34 36  1  0  0  0
 34 31  1  0  0  0
 31 32  3  0  0  0
 32  1  1  0  0  0
  1  2  1  0  0  0
  2  3  2  0  0  0
  3  4  1  0  0  0
  4  5  2  0  0  0
  5  6  1  0  0  0
  6 17  1  0  0  0
 17 18  1  0  0  0
 17 19  2  0  0  0
  6  7  2  0  0  0
  7 22  1  0  0  0
 22 23  1  0  0  0
 22 25  1  0  0  0
 25 26  2  0  0  0
 26 27  1  0  0  0
 27 28  2  0  0  0
 28 29  1  0  0  0
  7  8  1  0  0  0
  8  9  1  0  0  0
  9 10  1  0  0  0
 10 11  1  0  0  0
 11 12  1  0  0  0
 11 13  1  0  0  0
 13 14  2  0  0  0
 14 15  1  0  0  0
 15 16  1  0  0  0
 15  1  2  0  0  0
 13  3  1  0  0  0
  8  4  1  0  0  0
 12  9  1  0  0  0
 29 25  1  0  0  0
 36 37  1  0  0  0
 18 20  1  0  0  0
 18 21  1  0  0  0
 23 24  1  0  0  0
 29 30  1  0  0  0
M  END
> <minimizedAffinity>
-6.74715

> <CNNscore>
0.0985106826

> <CNNaffinity>
5.9670472145

> <CNN_VS>
0.5878179073

> <CNNaffinity_variance>
0.1679103822

$$$$
[H]OC([H])([H])C(C#Cc1c([H])c([H])c2c(c1[H])-c1nc(C(=O)N([H])[H])c(C(=O)N([H])C([H])([H])[H])n1C([H])([H])C([H])([H])O2)(O[H])C([H])([H])[H]


 33 35  0  0  0  0  0  0  0  0999 V2000
   37.3651   12.1436  -16.1309 C   0  0  0  0  0  0  0  0  0  0  0  0
   37.3078   12.9906  -15.0558 C   0  0  0  0  0  0  0  0  0  0  0  0
   38.6048   13.3307  -14.7133 N   0  0  0  0  0  0  0  0  0  0  0  0
   39.3970   12.7050  -15.5643 C   0  0  0  0  0  0  0  0  0  0  0  0
   40.8540   12.8275  -15.5181 C   0  0  0  0  0  0  0  0  0  0  0  0
   41.2871   13.3303  -14.2999 C   0  0  0  0  0  0  0  0  0  0  0  0
   42.6227   13.5331  -14.0253 C   0  0  0  0  0  0  0  0  0  0  0  0
   43.5050   13.2057  -15.0359 C   0  0  0  0  0  0  0  0  0  0  0  0
   43.0948   12.7049  -16.2536 C   0  0  0  0  0  0  0  0  0  0  0  0
   41.7570   12.5101  -16.5070 C   0  0  0  0  0  0  0  0  0  0  0  0
   41.4630   12.0030  -17.7628 O   0  0  0  0  0  0  0  0  0  0  0  0
   40.1755   11.9036  -18.3950 C   0  0  0  0  0  0  0  0  0  0  0  0
   39.2066   11.1557  -17.5006 C   0  0  0  0  0  0  0  0  0  0  0  0
   38.6880   11.9694  -16.4478 N   0  0  0  0  0  0  0  0  0  0  0  0
   33.9709   10.4724  -16.8548 C   0  0  0  0  0  0  0  0  0  0  0  0
   35.0443   11.1845  -16.1938 N   0  0  0  0  0  0  0  0  0  0  0  0
   36.2924   11.4188  -16.8041 C   0  0  0  0  0  0  0  0  0  0  0  0
   36.4173   10.9426  -17.9856 O   0  0  0  0  0  0  0  0  0  0  0  0
   34.8676   11.5021  -15.2200 H   0  0  0  0  0  0  0  0  0  0  0  0
   36.1393   13.5480  -14.4171 C   0  0  0  0  0  0  0  0  0  0  0  0
   35.6673   14.8403  -14.6618 N   0  0  0  0  0  0  0  0  0  0  0  0
   35.4831   12.8534  -13.5744 O   0  0  0  0  0  0  0  0  0  0  0  0
   34.6586   15.0801  -14.7837 H   0  0  0  0  0  0  0  0  0  0  0  0
   36.3239   15.6663  -14.7387 H   0  0  0  0  0  0  0  0  0  0  0  0
   43.0378   14.0553  -12.7535 C   0  0  0  0  0  0  0  0  0  0  0  0
   43.3950   14.4937  -11.6853 C   0  0  0  0  0  0  0  0  0  0  0  0
   43.8366   15.0033  -10.3837 C   0  0  0  0  0  0  0  0  0  0  0  0
   45.2710   14.6395  -10.0916 C   0  0  0  0  0  0  0  0  0  0  0  0
   43.7030   16.3834  -10.4229 O   0  0  0  0  0  0  0  0  0  0  0  0
   44.5327   16.7503  -10.8440 H   0  0  0  0  0  0  0  0  0  0  0  0
   42.9750   14.3647   -9.3137 C   0  0  0  0  0  0  0  0  0  0  0  0
   43.0673   12.9839   -9.4798 O   0  0  0  0  0  0  0  0  0  0  0  0
   42.6162   12.4765   -8.7818 H   0  0  0  0  0  0  0  0  0  0  0  0
 15 16  1  0  0  0
 16 17  1  0  0  0
 17 18  2  0  0  0
 17  1  1  0  0  0
  1  2  2  0  0  0
  2  3  1  0  0  0
  3  4  2  0  0  0
  4  5  1  0  0  0
  5  6  2  0  0  0
  6  7  1  0  0  0
  7  8  2  0  0  0
  8  9  1  0  0  0
  9 10  2  0  0  0
 10 11  1  0  0  0
 11 12  1  0  0  0
 12 13  1  0  0  0
 13 14  1  0  0  0
  7 25  1  0  0  0
 25 26  3  0  0  0
 26 27  1  0  0  0
 27 28  1  0  0  0
 27 29  1  0  0  0
 27 31  1  0  0  0
 31 32  1  0  0  0
  2 20  1  0  0  0
 20 21  1  0  0  0
 20 22  2  0  0  0
 14  1  1  0  0  0
 14  4  1  0  0  0
 10  5  1  0  0  0
 16 19  1  0  0  0
 29 30  1  0  0  0
 32 33  1  0  0  0
 21 23  1  0  0  0
 21 24  1  0  0  0
M  END
> <minimizedAffinity>
-8.51354

> <CNNscore>
0.6751722097

> <CNNaffinity>
6.6543416977

> <CNN_VS>
4.4928264618

> <CNNaffinity_variance>
0.0718025193

$$$$
[H]OC([H])([H])C(C#Cc1c([H])c([H])c2c(c1[H])-c1nc(C(=O)N([H])[H])c(C(=O)N([H])C([H])([H])[H])n1C([H])([H])C([H])([H])O2)(O[H])C([H])([H])[H]


 33 35  0  0  0  0  0  0  0  0999 V2000
   40.1172   13.5593  -15.3716 C   0  0  0  0  0  0  0  0  0  0  0  0
   39.7736   14.1836  -14.2017 C   0  0  0  0  0  0  0  0  0  0  0  0
   38.4359   13.9252  -13.9591 N   0  0  0  0  0  0  0  0  0  0  0  0
   38.0102   13.1695  -14.9546 C   0  0  0  0  0  0  0  0  0  0  0  0
   36.6324   12.6858  -15.0412 C   0  0  0  0  0  0  0  0  0  0  0  0
   35.7843   13.4048  -14.2116 C   0  0  0  0  0  0  0  0  0  0  0  0
   34.4367   13.1275  -14.1256 C   0  0  0  0  0  0  0  0  0  0  0  0
   33.9804   12.0904  -14.9150 C   0  0  0  0  0  0  0  0  0  0  0  0
   34.8069   11.3636  -15.7460 C   0  0  0  0  0  0  0  0  0  0  0  0
   36.1489   11.6568  -15.8168 C   0  0  0  0  0  0  0  0  0  0  0  0
   36.8807   10.8615  -16.6842 O   0  0  0  0  0  0  0  0  0  0  0  0
   38.3106   10.7744  -16.8078 C   0  0  0  0  0  0  0  0  0  0  0  0
   38.9033   12.1503  -17.0402 C   0  0  0  0  0  0  0  0  0  0  0  0
   38.9986   12.9191  -15.8404 N   0  0  0  0  0  0  0  0  0  0  0  0
   43.7622   12.9315  -16.4473 C   0  0  0  0  0  0  0  0  0  0  0  0
   42.5168   12.8982  -15.7096 N   0  0  0  0  0  0  0  0  0  0  0  0
   41.3692   13.6055  -16.1194 C   0  0  0  0  0  0  0  0  0  0  0  0
   41.5094   14.2957  -17.1882 O   0  0  0  0  0  0  0  0  0  0  0  0
   42.5056   12.3419  -14.8317 H   0  0  0  0  0  0  0  0  0  0  0  0
   40.6275   14.9051  -13.2883 C   0  0  0  0  0  0  0  0  0  0  0  0
   41.7608   14.3501  -12.6879 N   0  0  0  0  0  0  0  0  0  0  0  0
   40.3586   16.1133  -12.9863 O   0  0  0  0  0  0  0  0  0  0  0  0
   42.6705   14.8513  -12.5827 H   0  0  0  0  0  0  0  0  0  0  0  0
   41.7574   13.3667  -12.2977 H   0  0  0  0  0  0  0  0  0  0  0  0
   33.5858   13.8913  -13.2565 C   0  0  0  0  0  0  0  0  0  0  0  0
   32.8719   14.5293  -12.5189 C   0  0  0  0  0  0  0  0  0  0  0  0
   31.9916   15.2836  -11.6218 C   0  0  0  0  0  0  0  0  0  0  0  0
   32.6773   15.6418  -10.3269 C   0  0  0  0  0  0  0  0  0  0  0  0
   31.6258   16.4412  -12.2928 O   0  0  0  0  0  0  0  0  0  0  0  0
   32.3504   17.1139  -12.1415 H   0  0  0  0  0  0  0  0  0  0  0  0
   30.8039   14.4061  -11.2837 C   0  0  0  0  0  0  0  0  0  0  0  0
   30.0550   14.2588  -12.4500 O   0  0  0  0  0  0  0  0  0  0  0  0
   29.3121   13.6358  -12.3598 H   0  0  0  0  0  0  0  0  0  0  0  0
 15 16  1  0  0  0
 16 17  1  0  0  0
 17 18  2  0  0  0
 17  1  1  0  0  0
  1  2  2  0  0  0
  2  3  1  0  0  0
  3  4  2  0  0  0
  4  5  1  0  0  0
  5  6  2  0  0  0
  6  7  1  0  0  0
  7  8  2  0  0  0
  8  9  1  0  0  0
  9 10  2  0  0  0
 10 11  1  0  0  0
 11 12  1  0  0  0
 12 13  1  0  0  0
 13 14  1  0  0  0
  7 25  1  0  0  0
 25 26  3  0  0  0
 26 27  1  0  0  0
 27 28  1  0  0  0
 27 29  1  0  0  0
 27 31  1  0  0  0
 31 32  1  0  0  0
  2 20  1  0  0  0
 20 21  1  0  0  0
 20 22  2  0  0  0
 14  1  1  0  0  0
 14  4  1  0  0  0
 10  5  1  0  0  0
 16 19  1  0  0  0
 29 30  1  0  0  0
 32 33  1  0  0  0
 21 23  1  0  0  0
 21 24  1  0  0  0
M  END
> <minimizedAffinity>
-7.98499

> <CNNscore>
0.5224565268

> <CNNaffinity>
6.4995946884

> <CNN_VS>
3.3957557678

> <CNNaffinity_variance>
0.0772087723

$$$$
[H]OC([H])([H])C(C#Cc1c([H])c([H])c2c(c1[H])-c1nc(C(=O)N([H])[H])c(C(=O)N([H])C([H])([H])[H])n1C([H])([H])C([H])([H])O2)(O[H])C([H])([H])[H]


 33 35  0  0  0  0  0  0  0  0999 V2000
   35.6707   12.0755  -15.6367 C   0  0  0  0  0  0  0  0  0  0  0  0
   35.9296   13.0907  -14.7542 C   0  0  0  0  0  0  0  0  0  0  0  0
   37.2893   13.3462  -14.7876 N   0  0  0  0  0  0  0  0  0  0  0  0
   37.8099   12.5088  -15.6657 C   0  0  0  0  0  0  0  0  0  0  0  0
   39.2388   12.4851  -15.9784 C   0  0  0  0  0  0  0  0  0  0  0  0
   39.9861   13.1356  -15.0075 C   0  0  0  0  0  0  0  0  0  0  0  0
   41.3582   13.2412  -15.0890 C   0  0  0  0  0  0  0  0  0  0  0  0
   41.9453   12.6604  -16.1958 C   0  0  0  0  0  0  0  0  0  0  0  0
   41.2204   12.0096  -17.1719 C   0  0  0  0  0  0  0  0  0  0  0  0
   39.8518   11.9156  -17.0711 C   0  0  0  0  0  0  0  0  0  0  0  0
   39.2296   11.2402  -18.1090 O   0  0  0  0  0  0  0  0  0  0  0  0
   37.8231   11.1716  -18.3993 C   0  0  0  0  0  0  0  0  0  0  0  0
   37.0579   10.6876  -17.1834 C   0  0  0  0  0  0  0  0  0  0  0  0
   36.8629   11.7144  -16.2102 N   0  0  0  0  0  0  0  0  0  0  0  0
   32.8219   10.2357  -17.4635 C   0  0  0  0  0  0  0  0  0  0  0  0
   34.0533   10.9475  -17.1928 N   0  0  0  0  0  0  0  0  0  0  0  0
   34.4238   11.3644  -15.8990 C   0  0  0  0  0  0  0  0  0  0  0  0
   33.5838   11.0812  -14.9756 O   0  0  0  0  0  0  0  0  0  0  0  0
   34.6572   11.1689  -18.0093 H   0  0  0  0  0  0  0  0  0  0  0  0
   34.9889   13.8649  -13.9799 C   0  0  0  0  0  0  0  0  0  0  0  0
   33.7417   14.2719  -14.4614 N   0  0  0  0  0  0  0  0  0  0  0  0
   35.2824   14.2188  -12.7917 O   0  0  0  0  0  0  0  0  0  0  0  0
   32.8605   14.2370  -13.9028 H   0  0  0  0  0  0  0  0  0  0  0  0
   33.6208   14.6470  -15.4432 H   0  0  0  0  0  0  0  0  0  0  0  0
   42.1025   13.9215  -14.0664 C   0  0  0  0  0  0  0  0  0  0  0  0
   42.7250   14.5009  -13.2076 C   0  0  0  0  0  0  0  0  0  0  0  0
   43.4912   15.2167  -12.1832 C   0  0  0  0  0  0  0  0  0  0  0  0
   44.5518   16.1030  -12.7873 C   0  0  0  0  0  0  0  0  0  0  0  0
   42.5879   15.9894  -11.4683 O   0  0  0  0  0  0  0  0  0  0  0  0
   42.4665   16.8457  -11.9706 H   0  0  0  0  0  0  0  0  0  0  0  0
   44.1913   14.1888  -11.3182 C   0  0  0  0  0  0  0  0  0  0  0  0
   43.2033   13.3858  -10.7509 O   0  0  0  0  0  0  0  0  0  0  0  0
   43.5566   12.6337  -10.2431 H   0  0  0  0  0  0  0  0  0  0  0  0
 15 16  1  0  0  0
 16 17  1  0  0  0
 17 18  2  0  0  0
 17  1  1  0  0  0
  1  2  2  0  0  0
  2  3  1  0  0  0
  3  4  2  0  0  0
  4  5  1  0  0  0
  5  6  2  0  0  0
  6  7  1  0  0  0
  7  8  2  0  0  0
  8  9  1  0  0  0
  9 10  2  0  0  0
 10 11  1  0  0  0
 11 12  1  0  0  0
 12 13  1  0  0  0
 13 14  1  0  0  0
  7 25  1  0  0  0
 25 26  3  0  0  0
 26 27  1  0  0  0
 27 28  1  0  0  0
 27 29  1  0  0  0
 27 31  1  0  0  0
 31 32  1  0  0  0
  2 20  1  0  0  0
 20 21  1  0  0  0
 20 22  2  0  0  0
 14  1  1  0  0  0
 14  4  1  0  0  0
 10  5  1  0  0  0
 16 19  1  0  0  0
 29 30  1  0  0  0
 32 33  1  0  0  0
 21 23  1  0  0  0
 21 24  1  0  0  0
M  END
> <minimizedAffinity>
-8.29950

> <CNNscore>
0.4703440368

> <CNNaffinity>
6.7445840836

> <CNN_VS>
3.1722748280

> <CNNaffinity_variance>
0.1798429787

$$$$
[H]OC([H])([H])C(C#Cc1c([H])c([H])c2c(c1[H])-c1nc(C(=O)N([H])[H])c(C(=O)N([H])C([H])([H])[H])n1C([H])([H])C([H])([H])O2)(O[H])C([H])([H])[H]


 33 35  0  0  0  0  0  0  0  0999 V2000
   40.8044   14.9081   -7.1800 C   0  0  0  0  0  0  0  0  0  0  0  0
   41.4519   14.9503   -8.3864 C   0  0  0  0  0  0  0  0  0  0  0  0
   42.3950   13.9375   -8.3981 N   0  0  0  0  0  0  0  0  0  0  0  0
   42.2998   13.3188   -7.2356 C   0  0  0  0  0  0  0  0  0  0  0  0
   43.1434   12.1777   -6.8807 C   0  0  0  0  0  0  0  0  0  0  0  0
   44.2555   12.0872   -7.7050 C   0  0  0  0  0  0  0  0  0  0  0  0
   45.1948   11.0888   -7.5595 C   0  0  0  0  0  0  0  0  0  0  0  0
   44.9630   10.1830   -6.5433 C   0  0  0  0  0  0  0  0  0  0  0  0
   43.8640   10.2554   -5.7133 C   0  0  0  0  0  0  0  0  0  0  0  0
   42.9385   11.2599   -5.8758 C   0  0  0  0  0  0  0  0  0  0  0  0
   41.8770   11.2326   -4.9854 O   0  0  0  0  0  0  0  0  0  0  0  0
   40.6596   11.9958   -5.0400 C   0  0  0  0  0  0  0  0  0  0  0  0
   40.9707   13.4762   -5.1392 C   0  0  0  0  0  0  0  0  0  0  0  0
   41.3440   13.8737   -6.4591 N   0  0  0  0  0  0  0  0  0  0  0  0
   37.5103   16.8259   -6.6244 C   0  0  0  0  0  0  0  0  0  0  0  0
   38.5110   15.9327   -7.1696 N   0  0  0  0  0  0  0  0  0  0  0  0
   39.8058   15.8166   -6.6264 C   0  0  0  0  0  0  0  0  0  0  0  0
   40.0423   16.5712   -5.6199 O   0  0  0  0  0  0  0  0  0  0  0  0
   38.2435   15.3858   -8.0120 H   0  0  0  0  0  0  0  0  0  0  0  0
   41.1776   15.8011   -9.5199 C   0  0  0  0  0  0  0  0  0  0  0  0
   41.9958   15.8699  -10.6506 N   0  0  0  0  0  0  0  0  0  0  0  0
   40.1452   16.5477   -9.5194 O   0  0  0  0  0  0  0  0  0  0  0  0
   41.6366   15.8997  -11.6303 H   0  0  0  0  0  0  0  0  0  0  0  0
   43.0506   15.8959  -10.5723 H   0  0  0  0  0  0  0  0  0  0  0  0
   46.3353   11.0236   -8.4299 C   0  0  0  0  0  0  0  0  0  0  0  0
   47.2955   10.9607   -9.1612 C   0  0  0  0  0  0  0  0  0  0  0  0
   48.4740   10.8786  -10.0291 C   0  0  0  0  0  0  0  0  0  0  0  0
   49.1746   12.2081  -10.1578 C   0  0  0  0  0  0  0  0  0  0  0  0
   49.3329    9.9508   -9.4584 O   0  0  0  0  0  0  0  0  0  0  0  0
   49.8770   10.4329   -8.7714 H   0  0  0  0  0  0  0  0  0  0  0  0
   48.0099   10.4695  -11.4119 C   0  0  0  0  0  0  0  0  0  0  0  0
   47.5987   11.6283  -12.0684 O   0  0  0  0  0  0  0  0  0  0  0  0
   47.3628   11.4842  -13.0020 H   0  0  0  0  0  0  0  0  0  0  0  0
 15 16  1  0  0  0
 16 17  1  0  0  0
 17 18  2  0  0  0
 17  1  1  0  0  0
  1  2  2  0  0  0
  2  3  1  0  0  0
  3  4  2  0  0  0
  4  5  1  0  0  0
  5  6  2  0  0  0
  6  7  1  0  0  0
  7  8  2  0  0  0
  8  9  1  0  0  0
  9 10  2  0  0  0
 10 11  1  0  0  0
 11 12  1  0  0  0
 12 13  1  0  0  0
 13 14  1  0  0  0
  7 25  1  0  0  0
 25 26  3  0  0  0
 26 27  1  0  0  0
 27 28  1  0  0  0
 27 29  1  0  0  0
 27 31  1  0  0  0
 31 32  1  0  0  0
  2 20  1  0  0  0
 20 21  1  0  0  0
 20 22  2  0  0  0
 14  1  1  0  0  0
 14  4  1  0  0  0
 10  5  1  0  0  0
 16 19  1  0  0  0
 29 30  1  0  0  0
 32 33  1  0  0  0
 21 23  1  0  0  0
 21 24  1  0  0  0
M  END
> <minimizedAffinity>
-3.45619

> <CNNscore>
0.4614045322

> <CNNaffinity>
4.9523515701

> <CNN_VS>
2.2850375175

> <CNNaffinity_variance>
1.0831066370

$$$$
[H]OC([H])([H])C(C#Cc1c([H])c([H])c2c(c1[H])-c1nc(C(=O)N([H])[H])c(C(=O)N([H])C([H])([H])[H])n1C([H])([H])C([H])([H])O2)(O[H])C([H])([H])[H]


 33 35  0  0  0  0  0  0  0  0999 V2000
   41.6876   13.0204  -15.3405 C   0  0  0  0  0  0  0  0  0  0  0  0
   42.0725   13.5421  -14.1337 C   0  0  0  0  0  0  0  0  0  0  0  0
   40.9300   13.9210  -13.4508 N   0  0  0  0  0  0  0  0  0  0  0  0
   39.9073   13.6266  -14.2323 C   0  0  0  0  0  0  0  0  0  0  0  0
   38.5206   13.8812  -13.8421 C   0  0  0  0  0  0  0  0  0  0  0  0
   38.4422   14.7791  -12.7876 C   0  0  0  0  0  0  0  0  0  0  0  0
   37.2354   15.1708  -12.2484 C   0  0  0  0  0  0  0  0  0  0  0  0
   36.1079   14.6158  -12.8209 C   0  0  0  0  0  0  0  0  0  0  0  0
   36.1645   13.7217  -13.8694 C   0  0  0  0  0  0  0  0  0  0  0  0
   37.3793   13.3441  -14.3926 C   0  0  0  0  0  0  0  0  0  0  0  0
   37.3137   12.4417  -15.4423 O   0  0  0  0  0  0  0  0  0  0  0  0
   38.3928   11.7017  -16.0385 C   0  0  0  0  0  0  0  0  0  0  0  0
   39.4959   12.6433  -16.4796 C   0  0  0  0  0  0  0  0  0  0  0  0
   40.3183   13.0752  -15.3948 N   0  0  0  0  0  0  0  0  0  0  0  0
   44.7296   12.1258  -17.5276 C   0  0  0  0  0  0  0  0  0  0  0  0
   43.9110   12.5690  -16.4187 N   0  0  0  0  0  0  0  0  0  0  0  0
   42.5029   12.5778  -16.4667 C   0  0  0  0  0  0  0  0  0  0  0  0
   41.9946   12.1778  -17.5713 O   0  0  0  0  0  0  0  0  0  0  0  0
   44.4102   12.9136  -15.5746 H   0  0  0  0  0  0  0  0  0  0  0  0
   43.4008   13.6148  -13.5732 C   0  0  0  0  0  0  0  0  0  0  0  0
   43.7788   12.9660  -12.3946 N   0  0  0  0  0  0  0  0  0  0  0  0
   44.2998   14.3046  -14.1555 O   0  0  0  0  0  0  0  0  0  0  0  0
   44.6837   12.4603  -12.2709 H   0  0  0  0  0  0  0  0  0  0  0  0
   43.1519   12.9522  -11.5424 H   0  0  0  0  0  0  0  0  0  0  0  0
   37.1891   16.1026  -11.1565 C   0  0  0  0  0  0  0  0  0  0  0  0
   37.1518   16.8928  -10.2428 C   0  0  0  0  0  0  0  0  0  0  0  0
   37.1305   17.8551   -9.1371 C   0  0  0  0  0  0  0  0  0  0  0  0
   37.8401   19.1382   -9.4911 C   0  0  0  0  0  0  0  0  0  0  0  0
   35.7981   18.1197   -8.8566 O   0  0  0  0  0  0  0  0  0  0  0  0
   35.4997   18.8394   -9.4838 H   0  0  0  0  0  0  0  0  0  0  0  0
   37.8613   17.2362   -7.9633 C   0  0  0  0  0  0  0  0  0  0  0  0
   39.2249   17.3039   -8.2445 O   0  0  0  0  0  0  0  0  0  0  0  0
   39.7896   17.0095   -7.5079 H   0  0  0  0  0  0  0  0  0  0  0  0
 15 16  1  0  0  0
 16 17  1  0  0  0
 17 18  2  0  0  0
 17  1  1  0  0  0
  1  2  2  0  0  0
  2  3  1  0  0  0
  3  4  2  0  0  0
  4  5  1  0  0  0
  5  6  2  0  0  0
  6  7  1  0  0  0
  7  8  2  0  0  0
  8  9  1  0  0  0
  9 10  2  0  0  0
 10 11  1  0  0  0
 11 12  1  0  0  0
 12 13  1  0  0  0
 13 14  1  0  0  0
  7 25  1  0  0  0
 25 26  3  0  0  0
 26 27  1  0  0  0
 27 28  1  0  0  0
 27 29  1  0  0  0
 27 31  1  0  0  0
 31 32  1  0  0  0
  2 20  1  0  0  0
 20 21  1  0  0  0
 20 22  2  0  0  0
 14  1  1  0  0  0
 14  4  1  0  0  0
 10  5  1  0  0  0
 16 19  1  0  0  0
 29 30  1  0  0  0
 32 33  1  0  0  0
 21 23  1  0  0  0
 21 24  1  0  0  0
M  END
> <minimizedAffinity>
-6.94556

> <CNNscore>
0.4218548834

> <CNNaffinity>
6.0130820274

> <CNN_VS>
2.5366480350

> <CNNaffinity_variance>
0.3131144345

$$$$
[H]OC([H])([H])C(C#Cc1c([H])c([H])c2c(c1[H])-c1nc(C(=O)N([H])[H])c(C(=O)N([H])C([H])([H])[H])n1C([H])([H])C([H])([H])O2)(O[H])C([H])([H])[H]


 33 35  0  0  0  0  0  0  0  0999 V2000
   36.7971   13.5638  -13.6749 C   0  0  0  0  0  0  0  0  0  0  0  0
   37.7657   14.3996  -13.1852 C   0  0  0  0  0  0  0  0  0  0  0  0
   38.9263   14.1721  -13.9037 N   0  0  0  0  0  0  0  0  0  0  0  0
   38.6448   13.2344  -14.7897 C   0  0  0  0  0  0  0  0  0  0  0  0
   39.6341   12.7298  -15.7419 C   0  0  0  0  0  0  0  0  0  0  0  0
   40.9269   13.0524  -15.3562 C   0  0  0  0  0  0  0  0  0  0  0  0
   42.0265   12.6815  -16.1003 C   0  0  0  0  0  0  0  0  0  0  0  0
   41.7645   11.9688  -17.2537 C   0  0  0  0  0  0  0  0  0  0  0  0
   40.4870   11.6383  -17.6546 C   0  0  0  0  0  0  0  0  0  0  0  0
   39.4035   12.0184  -16.8972 C   0  0  0  0  0  0  0  0  0  0  0  0
   38.1704   11.6313  -17.3972 O   0  0  0  0  0  0  0  0  0  0  0  0
   36.8683   12.0604  -16.9638 C   0  0  0  0  0  0  0  0  0  0  0  0
   36.7080   11.8319  -15.4737 C   0  0  0  0  0  0  0  0  0  0  0  0
   37.3593   12.8322  -14.6896 N   0  0  0  0  0  0  0  0  0  0  0  0
   33.0787   14.0998  -12.8241 C   0  0  0  0  0  0  0  0  0  0  0  0
   34.4330   14.3189  -13.2869 N   0  0  0  0  0  0  0  0  0  0  0  0
   35.4370   13.3343  -13.1991 C   0  0  0  0  0  0  0  0  0  0  0  0
   35.0700   12.2305  -12.6649 O   0  0  0  0  0  0  0  0  0  0  0  0
   34.6516   15.2594  -13.6718 H   0  0  0  0  0  0  0  0  0  0  0  0
   37.6363   15.4260  -12.1783 C   0  0  0  0  0  0  0  0  0  0  0  0
   38.5435   15.5982  -11.1293 N   0  0  0  0  0  0  0  0  0  0  0  0
   36.6498   16.2314  -12.2143 O   0  0  0  0  0  0  0  0  0  0  0  0
   38.8922   16.5274  -10.8057 H   0  0  0  0  0  0  0  0  0  0  0  0
   38.9356   14.7747  -10.5931 H   0  0  0  0  0  0  0  0  0  0  0  0
   43.3521   13.0316  -15.6727 C   0  0  0  0  0  0  0  0  0  0  0  0
   44.4658   13.3238  -15.3053 C   0  0  0  0  0  0  0  0  0  0  0  0
   45.8072   13.6963  -14.8462 C   0  0  0  0  0  0  0  0  0  0  0  0
   46.3248   12.7529  -13.7892 C   0  0  0  0  0  0  0  0  0  0  0  0
   46.6396   13.6579  -15.9552 O   0  0  0  0  0  0  0  0  0  0  0  0
   46.9441   12.7116  -16.0655 H   0  0  0  0  0  0  0  0  0  0  0  0
   45.7242   15.0766  -14.2274 C   0  0  0  0  0  0  0  0  0  0  0  0
   45.6961   15.9965  -15.2742 O   0  0  0  0  0  0  0  0  0  0  0  0
   45.5539   16.9145  -14.9823 H   0  0  0  0  0  0  0  0  0  0  0  0
 15 16  1  0  0  0
 16 17  1  0  0  0
 17 18  2  0  0  0
 17  1  1  0  0  0
  1  2  2  0  0  0
  2  3  1  0  0  0
  3  4  2  0  0  0
  4  5  1  0  0  0
  5  6  2  0  0  0
  6  7  1  0  0  0
  7  8  2  0  0  0
  8  9  1  0  0  0
  9 10  2  0  0  0
 10 11  1  0  0  0
 11 12  1  0  0  0
 12 13  1  0  0  0
 13 14  1  0  0  0
  7 25  1  0  0  0
 25 26  3  0  0  0
 26 27  1  0  0  0
 27 28  1  0  0  0
 27 29  1  0  0  0
 27 31  1  0  0  0
 31 32  1  0  0  0
  2 20  1  0  0  0
 20 21  1  0  0  0
 20 22  2  0  0  0
 14  1  1  0  0  0
 14  4  1  0  0  0
 10  5  1  0  0  0
 16 19  1  0  0  0
 29 30  1  0  0  0
 32 33  1  0  0  0
 21 23  1  0  0  0
 21 24  1  0  0  0
M  END
> <minimizedAffinity>
-8.83009

> <CNNscore>
0.3771468699

> <CNNaffinity>
6.2308349609

> <CNN_VS>
2.3499398232

> <CNNaffinity_variance>
0.1657768935

$$$$
[H]OC([H])([H])C(C#Cc1c([H])c([H])c2c(c1[H])-c1nc(C(=O)N([H])[H])c(C(=O)N([H])C([H])([H])[H])n1C([H])([H])C([H])([H])O2)(O[H])C([H])([H])[H]


 33 35  0  0  0  0  0  0  0  0999 V2000
   37.4067   13.0164  -14.8828 C   0  0  0  0  0  0  0  0  0  0  0  0
   37.6102   13.8790  -13.8383 C   0  0  0  0  0  0  0  0  0  0  0  0
   38.9737   14.0787  -13.7116 N   0  0  0  0  0  0  0  0  0  0  0  0
   39.5507   13.3581  -14.6557 C   0  0  0  0  0  0  0  0  0  0  0  0
   41.0014   13.3200  -14.8398 C   0  0  0  0  0  0  0  0  0  0  0  0
   41.6721   13.7884  -13.7195 C   0  0  0  0  0  0  0  0  0  0  0  0
   43.0482   13.8465  -13.6617 C   0  0  0  0  0  0  0  0  0  0  0  0
   43.7203   13.4103  -14.7865 C   0  0  0  0  0  0  0  0  0  0  0  0
   43.0724   12.9412  -15.9099 C   0  0  0  0  0  0  0  0  0  0  0  0
   41.6982   12.8917  -15.9467 C   0  0  0  0  0  0  0  0  0  0  0  0
   41.1577   12.4032  -17.1255 O   0  0  0  0  0  0  0  0  0  0  0  0
   39.7835   12.4377  -17.5470 C   0  0  0  0  0  0  0  0  0  0  0  0
   38.8933   11.8132  -16.4907 C   0  0  0  0  0  0  0  0  0  0  0  0
   38.6369   12.6932  -15.3955 N   0  0  0  0  0  0  0  0  0  0  0  0
   33.8675   11.4976  -14.9566 C   0  0  0  0  0  0  0  0  0  0  0  0
   35.1012   12.0980  -14.4941 N   0  0  0  0  0  0  0  0  0  0  0  0
   36.1702   12.4052  -15.3589 C   0  0  0  0  0  0  0  0  0  0  0  0
   35.9795   12.1012  -16.5876 O   0  0  0  0  0  0  0  0  0  0  0  0
   35.1836   12.2751  -13.4732 H   0  0  0  0  0  0  0  0  0  0  0  0
   36.6231   14.5702  -13.0434 C   0  0  0  0  0  0  0  0  0  0  0  0
   36.4457   15.9562  -13.0655 N   0  0  0  0  0  0  0  0  0  0  0  0
   35.8602   13.9121  -12.2637 O   0  0  0  0  0  0  0  0  0  0  0  0
   35.5133   16.4253  -13.0784 H   0  0  0  0  0  0  0  0  0  0  0  0
   37.2684   16.6215  -13.0705 H   0  0  0  0  0  0  0  0  0  0  0  0
   43.7118   14.3369  -12.4863 C   0  0  0  0  0  0  0  0  0  0  0  0
   44.2748   14.7547  -11.5017 C   0  0  0  0  0  0  0  0  0  0  0  0
   44.9783   15.2512  -10.3154 C   0  0  0  0  0  0  0  0  0  0  0  0
   46.0485   14.2949   -9.8517 C   0  0  0  0  0  0  0  0  0  0  0  0
   45.5542   16.4639  -10.6645 O   0  0  0  0  0  0  0  0  0  0  0  0
   46.4333   16.2618  -11.0967 H   0  0  0  0  0  0  0  0  0  0  0  0
   43.9683   15.3871   -9.1944 C   0  0  0  0  0  0  0  0  0  0  0  0
   43.0994   16.4190   -9.5453 O   0  0  0  0  0  0  0  0  0  0  0  0
   42.3551   16.5286   -8.9271 H   0  0  0  0  0  0  0  0  0  0  0  0
 15 16  1  0  0  0
 16 17  1  0  0  0
 17 18  2  0  0  0
 17  1  1  0  0  0
  1  2  2  0  0  0
  2  3  1  0  0  0
  3  4  2  0  0  0
  4  5  1  0  0  0
  5  6  2  0  0  0
  6  7  1  0  0  0
  7  8  2  0  0  0
  8  9  1  0  0  0
  9 10  2  0  0  0
 10 11  1  0  0  0
 11 12  1  0  0  0
 12 13  1  0  0  0
 13 14  1  0  0  0
  7 25  1  0  0  0
 25 26  3  0  0  0
 26 27  1  0  0  0
 27 28  1  0  0  0
 27 29  1  0  0  0
 27 31  1  0  0  0
 31 32  1  0  0  0
  2 20  1  0  0  0
 20 21  1  0  0  0
 20 22  2  0  0  0
 14  1  1  0  0  0
 14  4  1  0  0  0
 10  5  1  0  0  0
 16 19  1  0  0  0
 29 30  1  0  0  0
 32 33  1  0  0  0
 21 23  1  0  0  0
 21 24  1  0  0  0
M  END
> <minimizedAffinity>
-7.43976

> <CNNscore>
0.3388074040

> <CNNaffinity>
6.1115655899

> <CNN_VS>
2.0706436634

> <CNNaffinity_variance>
0.1883047521

$$$$
[H]OC([H])([H])C(C#Cc1c([H])c([H])c2c(c1[H])-c1nc(C(=O)N([H])[H])c(C(=O)N([H])C([H])([H])[H])n1C([H])([H])C([H])([H])O2)(O[H])C([H])([H])[H]


 33 35  0  0  0  0  0  0  0  0999 V2000
   44.1203   14.2949  -14.0274 C   0  0  0  0  0  0  0  0  0  0  0  0
   43.1268   14.3264  -13.0848 C   0  0  0  0  0  0  0  0  0  0  0  0
   41.9951   13.7561  -13.6410 N   0  0  0  0  0  0  0  0  0  0  0  0
   42.3174   13.3981  -14.8703 C   0  0  0  0  0  0  0  0  0  0  0  0
   41.3680   12.7497  -15.7749 C   0  0  0  0  0  0  0  0  0  0  0  0
   40.0591   12.9114  -15.3450 C   0  0  0  0  0  0  0  0  0  0  0  0
   38.9907   12.3850  -16.0390 C   0  0  0  0  0  0  0  0  0  0  0  0
   39.3010   11.6863  -17.1890 C   0  0  0  0  0  0  0  0  0  0  0  0
   40.5952   11.5142  -17.6333 C   0  0  0  0  0  0  0  0  0  0  0  0
   41.6469   12.0479  -16.9254 C   0  0  0  0  0  0  0  0  0  0  0  0
   42.9009   11.8117  -17.4659 O   0  0  0  0  0  0  0  0  0  0  0  0
   44.1824   12.0406  -16.8552 C   0  0  0  0  0  0  0  0  0  0  0  0
   44.2907   13.4768  -16.3822 C   0  0  0  0  0  0  0  0  0  0  0  0
   43.6021   13.7053  -15.1521 N   0  0  0  0  0  0  0  0  0  0  0  0
   47.1244   16.6378  -14.5963 C   0  0  0  0  0  0  0  0  0  0  0  0
   45.7959   16.0637  -14.6385 N   0  0  0  0  0  0  0  0  0  0  0  0
   45.4644   14.8610  -13.9836 C   0  0  0  0  0  0  0  0  0  0  0  0
   46.4291   14.2999  -13.3569 O   0  0  0  0  0  0  0  0  0  0  0  0
   45.0841   16.5678  -15.2038 H   0  0  0  0  0  0  0  0  0  0  0  0
   43.2100   14.7636  -11.7115 C   0  0  0  0  0  0  0  0  0  0  0  0
   43.1673   13.8929  -10.6194 N   0  0  0  0  0  0  0  0  0  0  0  0
   43.3223   16.0044  -11.4450 O   0  0  0  0  0  0  0  0  0  0  0  0
   43.7878   13.9736   -9.7837 H   0  0  0  0  0  0  0  0  0  0  0  0
   42.4862   13.0842  -10.5799 H   0  0  0  0  0  0  0  0  0  0  0  0
   37.6472   12.5707  -15.5666 C   0  0  0  0  0  0  0  0  0  0  0  0
   36.5160   12.7189  -15.1676 C   0  0  0  0  0  0  0  0  0  0  0  0
   35.1358   12.8865  -14.7032 C   0  0  0  0  0  0  0  0  0  0  0  0
   34.9555   12.4095  -13.2836 C   0  0  0  0  0  0  0  0  0  0  0  0
   34.8438   14.2403  -14.7822 O   0  0  0  0  0  0  0  0  0  0  0  0
   35.1751   14.6652  -13.9395 H   0  0  0  0  0  0  0  0  0  0  0  0
   34.2386   12.0444  -15.5869 C   0  0  0  0  0  0  0  0  0  0  0  0
   33.3112   11.4185  -14.7556 O   0  0  0  0  0  0  0  0  0  0  0  0
   32.6291   10.9195  -15.2391 H   0  0  0  0  0  0  0  0  0  0  0  0
 15 16  1  0  0  0
 16 17  1  0  0  0
 17 18  2  0  0  0
 17  1  1  0  0  0
  1  2  2  0  0  0
  2  3  1  0  0  0
  3  4  2  0  0  0
  4  5  1  0  0  0
  5  6  2  0  0  0
  6  7  1  0  0  0
  7  8  2  0  0  0
  8  9  1  0  0  0
  9 10  2  0  0  0
 10 11  1  0  0  0
 11 12  1  0  0  0
 12 13  1  0  0  0
 13 14  1  0  0  0
  7 25  1  0  0  0
 25 26  3  0  0  0
 26 27  1  0  0  0
 27 28  1  0  0  0
 27 29  1  0  0  0
 27 31  1  0  0  0
 31 32  1  0  0  0
  2 20  1  0  0  0
 20 21  1  0  0  0
 20 22  2  0  0  0
 14  1  1  0  0  0
 14  4  1  0  0  0
 10  5  1  0  0  0
 16 19  1  0  0  0
 29 30  1  0  0  0
 32 33  1  0  0  0
 21 23  1  0  0  0
 21 24  1  0  0  0
M  END
> <minimizedAffinity>
-8.39453

> <CNNscore>
0.2829865217

> <CNNaffinity>
5.9665246010

> <CNN_VS>
1.6884460449

> <CNNaffinity_variance>
0.0858097598

$$$$
[H]OC([H])([H])C(C#Cc1c([H])c([H])c2c(c1[H])-c1nc(C(=O)N([H])[H])c(C(=O)N([H])C([H])([H])[H])n1C([H])([H])C([H])([H])O2)(O[H])C([H])([H])[H]


 33 35  0  0  0  0  0  0  0  0999 V2000
   37.1140   13.2063  -13.7188 C   0  0  0  0  0  0  0  0  0  0  0  0
   37.5153   14.2433  -12.9187 C   0  0  0  0  0  0  0  0  0  0  0  0
   38.8657   14.4515  -13.1384 N   0  0  0  0  0  0  0  0  0  0  0  0
   39.2426   13.5661  -14.0424 C   0  0  0  0  0  0  0  0  0  0  0  0
   40.6170   13.4832  -14.5366 C   0  0  0  0  0  0  0  0  0  0  0  0
   41.5034   14.1425  -13.6976 C   0  0  0  0  0  0  0  0  0  0  0  0
   42.8554   14.1990  -13.9606 C   0  0  0  0  0  0  0  0  0  0  0  0
   43.2757   13.5594  -15.1101 C   0  0  0  0  0  0  0  0  0  0  0  0
   42.4109   12.8986  -15.9571 C   0  0  0  0  0  0  0  0  0  0  0  0
   41.0651   12.8545  -15.6759 C   0  0  0  0  0  0  0  0  0  0  0  0
   40.2934   12.1635  -16.5965 O   0  0  0  0  0  0  0  0  0  0  0  0
   38.8595   12.1319  -16.6990 C   0  0  0  0  0  0  0  0  0  0  0  0
   38.2465   11.7178  -15.3757 C   0  0  0  0  0  0  0  0  0  0  0  0
   38.2101   12.7849  -14.4273 N   0  0  0  0  0  0  0  0  0  0  0  0
   33.7594   11.8507  -15.0403 C   0  0  0  0  0  0  0  0  0  0  0  0
   35.0379   12.5252  -14.9580 N   0  0  0  0  0  0  0  0  0  0  0  0
   35.8237   12.5286  -13.7885 C   0  0  0  0  0  0  0  0  0  0  0  0
   35.3188   11.9023  -12.7930 O   0  0  0  0  0  0  0  0  0  0  0  0
   35.3520   13.0415  -15.8037 H   0  0  0  0  0  0  0  0  0  0  0  0
   36.7066   15.0760  -12.0605 C   0  0  0  0  0  0  0  0  0  0  0  0
   36.2491   16.3456  -12.4235 N   0  0  0  0  0  0  0  0  0  0  0  0
   36.3794   14.6645  -10.9000 O   0  0  0  0  0  0  0  0  0  0  0  0
   35.2839   16.6948  -12.2336 H   0  0  0  0  0  0  0  0  0  0  0  0
   36.8728   17.0388  -12.9234 H   0  0  0  0  0  0  0  0  0  0  0  0
   43.7464   14.8901  -13.0712 C   0  0  0  0  0  0  0  0  0  0  0  0
   44.4897   15.4746  -12.3185 C   0  0  0  0  0  0  0  0  0  0  0  0
   45.3830   16.2047  -11.4142 C   0  0  0  0  0  0  0  0  0  0  0  0
   44.6427   16.7838  -10.2345 C   0  0  0  0  0  0  0  0  0  0  0  0
   46.3364   15.3004  -10.9698 O   0  0  0  0  0  0  0  0  0  0  0  0
   45.9448   14.8169  -10.1867 H   0  0  0  0  0  0  0  0  0  0  0  0
   45.9896   17.3588  -12.1857 C   0  0  0  0  0  0  0  0  0  0  0  0
   45.5713   18.5347  -11.5652 O   0  0  0  0  0  0  0  0  0  0  0  0
   45.9808   19.3371  -11.9347 H   0  0  0  0  0  0  0  0  0  0  0  0
 15 16  1  0  0  0
 16 17  1  0  0  0
 17 18  2  0  0  0
 17  1  1  0  0  0
  1  2  2  0  0  0
  2  3  1  0  0  0
  3  4  2  0  0  0
  4  5  1  0  0  0
  5  6  2  0  0  0
  6  7  1  0  0  0
  7  8  2  0  0  0
  8  9  1  0  0  0
  9 10  2  0  0  0
 10 11  1  0  0  0
 11 12  1  0  0  0
 12 13  1  0  0  0
 13 14  1  0  0  0
  7 25  1  0  0  0
 25 26  3  0  0  0
 26 27  1  0  0  0
 27 28  1  0  0  0
 27 29  1  0  0  0
 27 31  1  0  0  0
 31 32  1  0  0  0
  2 20  1  0  0  0
 20 21  1  0  0  0
 20 22  2  0  0  0
 14  1  1  0  0  0
 14  4  1  0  0  0
 10  5  1  0  0  0
 16 19  1  0  0  0
 29 30  1  0  0  0
 32 33  1  0  0  0
 21 23  1  0  0  0
 21 24  1  0  0  0
M  END
> <minimizedAffinity>
-7.80569

> <CNNscore>
0.2809582353

> <CNNaffinity>
5.7920274734

> <CNN_VS>
1.6273177862

> <CNNaffinity_variance>
0.1092850119

$$$$
[H]O[C@@](C#Cc1c([H])c2c(c([H])c1F)OC([H])([H])C([H])([H])n1c-2nc(C(=O)N([H])[H])c1[H])(c1noc(C([H])([H])[H])n1)C([H])([H])F


 33 36  0  0  0  0  0  0  0  0999 V2000
   38.6196   14.3489  -13.3241 C   0  0  0  0  0  0  0  0  0  0  0  0
   37.7781   13.5332  -14.0430 C   0  0  0  0  0  0  0  0  0  0  0  0
   38.2159   13.0140  -15.2415 C   0  0  0  0  0  0  0  0  0  0  0  0
   37.1999   12.1560  -15.8847 C   0  0  0  0  0  0  0  0  0  0  0  0
   35.9048   12.2551  -15.6049 N   0  0  0  0  0  0  0  0  0  0  0  0
   35.2844   11.3197  -16.3768 C   0  0  0  0  0  0  0  0  0  0  0  0
   36.2560   10.6787  -17.1079 C   0  0  0  0  0  0  0  0  0  0  0  0
   37.4402   11.2042  -16.7965 N   0  0  0  0  0  0  0  0  0  0  0  0
   38.7294   10.8078  -17.3472 C   0  0  0  0  0  0  0  0  0  0  0  0
   39.4963   11.9745  -17.9302 C   0  0  0  0  0  0  0  0  0  0  0  0
   40.0386   12.8295  -16.9362 O   0  0  0  0  0  0  0  0  0  0  0  0
   39.4818   13.2966  -15.7353 C   0  0  0  0  0  0  0  0  0  0  0  0
   40.3097   14.1158  -15.0011 C   0  0  0  0  0  0  0  0  0  0  0  0
   39.8929   14.6462  -13.7993 C   0  0  0  0  0  0  0  0  0  0  0  0
   40.6882   15.4573  -13.0580 F   0  0  0  0  0  0  0  0  0  0  0  0
   33.8506   11.0459  -16.4256 C   0  0  0  0  0  0  0  0  0  0  0  0
   33.0836   10.8511  -15.2453 N   0  0  0  0  0  0  0  0  0  0  0  0
   33.2831   10.9803  -17.5311 O   0  0  0  0  0  0  0  0  0  0  0  0
   33.0122    9.9452  -14.7385 H   0  0  0  0  0  0  0  0  0  0  0  0
   32.5302   11.6495  -14.8113 H   0  0  0  0  0  0  0  0  0  0  0  0
   37.7023   15.2728  -11.0141 C   0  0  0  0  0  0  0  0  0  0  0  0
   38.1309   14.8646  -12.0628 C   0  0  0  0  0  0  0  0  0  0  0  0
   37.1462   15.7560   -9.7192 C   0  0  0  0  0  0  0  0  0  0  0  0
   35.7737   15.5803   -9.6478 O   0  0  0  0  0  0  0  0  0  0  0  0
   35.3378   16.1851  -10.3233 H   0  0  0  0  0  0  0  0  0  0  0  0
   37.6602   20.4162   -7.8446 C   0  0  0  0  0  0  0  0  0  0  0  0
   37.6455   19.2290   -8.7509 C   0  0  0  0  0  0  0  0  0  0  0  0
   37.2975   17.9677   -8.4646 N   0  0  0  0  0  0  0  0  0  0  0  0
   37.4274   17.2133   -9.5694 C   0  0  0  0  0  0  0  0  0  0  0  0
   37.8602   18.0315  -10.5338 N   0  0  0  0  0  0  0  0  0  0  0  0
   37.9856   19.2330  -10.0298 O   0  0  0  0  0  0  0  0  0  0  0  0
   37.7971   14.9601   -8.6368 C   0  0  0  0  0  0  0  0  0  0  0  0
   39.1326   14.7743   -8.9464 F   0  0  0  0  0  0  0  0  0  0  0  0
 26 27  1  0  0  0
 27 28  2  0  0  0
 28 29  1  0  0  0
 29 30  2  0  0  0
 30 31  1  0  0  0
 29 23  1  0  0  0
 23 24  1  0  0  0
 23 32  1  0  0  0
 32 33  1  0  0  0
 23 21  1  0  0  0
 21 22  3  0  0  0
 22  1  1  0  0  0
  1  2  2  0  0  0
  2  3  1  0  0  0
  3  4  1  0  0  0
  4  5  2  0  0  0
  5  6  1  0  0  0
  6  7  2  0  0  0
  7  8  1  0  0  0
  8  9  1  0  0  0
  9 10  1  0  0  0
 10 11  1  0  0  0
 11 12  1  0  0  0
 12 13  1  0  0  0
 13 14  2  0  0  0
 14 15  1  0  0  0
  6 16  1  0  0  0
 16 17  1  0  0  0
 16 18  2  0  0  0
 31 27  1  0  0  0
 14  1  1  0  0  0
 12  3  2  0  0  0
  8  4  1  0  0  0
 24 25  1  0  0  0
 17 19  1  0  0  0
 17 20  1  0  0  0
M  END
> <minimizedAffinity>
-8.96188

> <CNNscore>
0.3969530463

> <CNNaffinity>
6.7389497757

> <CNN_VS>
2.6750466824

> <CNNaffinity_variance>
0.0699147135

$$$$
[H]O[C@@](C#Cc1c([H])c2c(c([H])c1F)OC([H])([H])C([H])([H])n1c-2nc(C(=O)N([H])[H])c1[H])(c1noc(C([H])([H])[H])n1)C([H])([H])F


 33 36  0  0  0  0  0  0  0  0999 V2000
   36.3287   12.7637  -14.4958 C   0  0  0  0  0  0  0  0  0  0  0  0
   37.6044   12.7688  -15.0087 C   0  0  0  0  0  0  0  0  0  0  0  0
   37.8646   12.0518  -16.1558 C   0  0  0  0  0  0  0  0  0  0  0  0
   39.2754   12.1648  -16.5789 C   0  0  0  0  0  0  0  0  0  0  0  0
   40.2465   12.4981  -15.7354 N   0  0  0  0  0  0  0  0  0  0  0  0
   41.3933   12.5018  -16.4707 C   0  0  0  0  0  0  0  0  0  0  0  0
   41.0574   12.1626  -17.7596 C   0  0  0  0  0  0  0  0  0  0  0  0
   39.7423   11.9551  -17.8170 N   0  0  0  0  0  0  0  0  0  0  0  0
   38.9814   11.5778  -19.0006 C   0  0  0  0  0  0  0  0  0  0  0  0
   38.1497   10.3325  -18.7848 C   0  0  0  0  0  0  0  0  0  0  0  0
   37.0120   10.5640  -17.9690 O   0  0  0  0  0  0  0  0  0  0  0  0
   36.8709   11.3284  -16.8002 C   0  0  0  0  0  0  0  0  0  0  0  0
   35.5999   11.3353  -16.2710 C   0  0  0  0  0  0  0  0  0  0  0  0
   35.3165   12.0457  -15.1245 C   0  0  0  0  0  0  0  0  0  0  0  0
   34.0735   12.0673  -14.5819 F   0  0  0  0  0  0  0  0  0  0  0  0
   42.7363   12.8059  -15.9837 C   0  0  0  0  0  0  0  0  0  0  0  0
   43.8669   12.7930  -16.8444 N   0  0  0  0  0  0  0  0  0  0  0  0
   42.8969   13.0835  -14.7813 O   0  0  0  0  0  0  0  0  0  0  0  0
   44.3963   11.9343  -17.0997 H   0  0  0  0  0  0  0  0  0  0  0  0
   44.2348   13.6902  -17.2822 H   0  0  0  0  0  0  0  0  0  0  0  0
   35.8773   14.2066  -12.3173 C   0  0  0  0  0  0  0  0  0  0  0  0
   36.0893   13.5397  -13.2973 C   0  0  0  0  0  0  0  0  0  0  0  0
   35.6027   15.0563  -11.1248 C   0  0  0  0  0  0  0  0  0  0  0  0
   35.9930   14.4377   -9.9480 O   0  0  0  0  0  0  0  0  0  0  0  0
   35.4046   13.6358   -9.7972 H   0  0  0  0  0  0  0  0  0  0  0  0
   31.0014   16.2519   -9.4237 C   0  0  0  0  0  0  0  0  0  0  0  0
   32.1491   15.8448  -10.2886 C   0  0  0  0  0  0  0  0  0  0  0  0
   33.4395   15.7164   -9.9531 N   0  0  0  0  0  0  0  0  0  0  0  0
   34.1389   15.3277  -11.0331 C   0  0  0  0  0  0  0  0  0  0  0  0
   33.2576   15.2214  -12.0325 N   0  0  0  0  0  0  0  0  0  0  0  0
   32.0725   15.5333  -11.5724 O   0  0  0  0  0  0  0  0  0  0  0  0
   36.3826   16.3179  -11.2949 C   0  0  0  0  0  0  0  0  0  0  0  0
   37.6848   16.0067  -11.6430 F   0  0  0  0  0  0  0  0  0  0  0  0
 26 27  1  0  0  0
 27 28  2  0  0  0
 28 29  1  0  0  0
 29 30  2  0  0  0
 30 31  1  0  0  0
 29 23  1  0  0  0
 23 24  1  0  0  0
 23 32  1  0  0  0
 32 33  1  0  0  0
 23 21  1  0  0  0
 21 22  3  0  0  0
 22  1  1  0  0  0
  1  2  2  0  0  0
  2  3  1  0  0  0
  3  4  1  0  0  0
  4  5  2  0  0  0
  5  6  1  0  0  0
  6  7  2  0  0  0
  7  8  1  0  0  0
  8  9  1  0  0  0
  9 10  1  0  0  0
 10 11  1  0  0  0
 11 12  1  0  0  0
 12 13  1  0  0  0
 13 14  2  0  0  0
 14 15  1  0  0  0
  6 16  1  0  0  0
 16 17  1  0  0  0
 16 18  2  0  0  0
 31 27  1  0  0  0
 14  1  1  0  0  0
 12  3  2  0  0  0
  8  4  1  0  0  0
 24 25  1  0  0  0
 17 19  1  0  0  0
 17 20  1  0  0  0
M  END
> <minimizedAffinity>
-8.72952

> <CNNscore>
0.3699029982

> <CNNaffinity>
6.9588785172

> <CNN_VS>
2.5741100311

> <CNNaffinity_variance>
0.1163516194

$$$$
[H]O[C@@](C#Cc1c([H])c2c(c([H])c1F)OC([H])([H])C([H])([H])n1c-2nc(C(=O)N([H])[H])c1[H])(c1noc(C([H])([H])[H])n1)C([H])([H])F


 33 36  0  0  0  0  0  0  0  0999 V2000
   38.9326   14.3783  -13.6447 C   0  0  0  0  0  0  0  0  0  0  0  0
   38.0346   13.5648  -14.2945 C   0  0  0  0  0  0  0  0  0  0  0  0
   38.4212   12.9436  -15.4617 C   0  0  0  0  0  0  0  0  0  0  0  0
   37.3481   12.1027  -16.0305 C   0  0  0  0  0  0  0  0  0  0  0  0
   36.0657   12.2922  -15.7388 N   0  0  0  0  0  0  0  0  0  0  0  0
   35.3810   11.3437  -16.4368 C   0  0  0  0  0  0  0  0  0  0  0  0
   36.3024   10.6024  -17.1374 C   0  0  0  0  0  0  0  0  0  0  0  0
   37.5191   11.0806  -16.8796 N   0  0  0  0  0  0  0  0  0  0  0  0
   38.7743   10.5773  -17.4215 C   0  0  0  0  0  0  0  0  0  0  0  0
   39.5928   11.6582  -18.0930 C   0  0  0  0  0  0  0  0  0  0  0  0
   40.1994   12.5457  -17.1669 O   0  0  0  0  0  0  0  0  0  0  0  0
   39.6912   13.1217  -15.9921 C   0  0  0  0  0  0  0  0  0  0  0  0
   40.5761   13.9405  -15.3271 C   0  0  0  0  0  0  0  0  0  0  0  0
   40.2112   14.5719  -14.1576 C   0  0  0  0  0  0  0  0  0  0  0  0
   41.0632   15.3848  -13.4844 F   0  0  0  0  0  0  0  0  0  0  0  0
   33.9336   11.1476  -16.4458 C   0  0  0  0  0  0  0  0  0  0  0  0
   33.1700   11.1429  -15.2475 N   0  0  0  0  0  0  0  0  0  0  0  0
   33.3513   10.9790  -17.5326 O   0  0  0  0  0  0  0  0  0  0  0  0
   33.0538   10.3115  -14.6327 H   0  0  0  0  0  0  0  0  0  0  0  0
   32.6667   12.0186  -14.9128 H   0  0  0  0  0  0  0  0  0  0  0  0
   38.1246   15.5469  -11.4058 C   0  0  0  0  0  0  0  0  0  0  0  0
   38.4962   15.0030  -12.4138 C   0  0  0  0  0  0  0  0  0  0  0  0
   37.6577   16.2476  -10.1768 C   0  0  0  0  0  0  0  0  0  0  0  0
   38.4150   17.3756   -9.9051 O   0  0  0  0  0  0  0  0  0  0  0  0
   39.3469   17.0849   -9.6620 H   0  0  0  0  0  0  0  0  0  0  0  0
   36.5935   13.3258   -6.1986 C   0  0  0  0  0  0  0  0  0  0  0  0
   37.3030   14.0678   -7.2835 C   0  0  0  0  0  0  0  0  0  0  0  0
   36.7806   14.8576   -8.2308 N   0  0  0  0  0  0  0  0  0  0  0  0
   37.7715   15.3297   -9.0065 C   0  0  0  0  0  0  0  0  0  0  0  0
   38.9059   14.8165   -8.5200 N   0  0  0  0  0  0  0  0  0  0  0  0
   38.6101   14.0646   -7.4902 O   0  0  0  0  0  0  0  0  0  0  0  0
   36.2416   16.6562  -10.4147 C   0  0  0  0  0  0  0  0  0  0  0  0
   36.1083   17.1056  -11.7163 F   0  0  0  0  0  0  0  0  0  0  0  0
 26 27  1  0  0  0
 27 28  2  0  0  0
 28 29  1  0  0  0
 29 30  2  0  0  0
 30 31  1  0  0  0
 29 23  1  0  0  0
 23 24  1  0  0  0
 23 32  1  0  0  0
 32 33  1  0  0  0
 23 21  1  0  0  0
 21 22  3  0  0  0
 22  1  1  0  0  0
  1  2  2  0  0  0
  2  3  1  0  0  0
  3  4  1  0  0  0
  4  5  2  0  0  0
  5  6  1  0  0  0
  6  7  2  0  0  0
  7  8  1  0  0  0
  8  9  1  0  0  0
  9 10  1  0  0  0
 10 11  1  0  0  0
 11 12  1  0  0  0
 12 13  1  0  0  0
 13 14  2  0  0  0
 14 15  1  0  0  0
  6 16  1  0  0  0
 16 17  1  0  0  0
 16 18  2  0  0  0
 31 27  1  0  0  0
 14  1  1  0  0  0
 12  3  2  0  0  0
  8  4  1  0  0  0
 24 25  1  0  0  0
 17 19  1  0  0  0
 17 20  1  0  0  0
M  END
> <minimizedAffinity>
-8.81924

> <CNNscore>
0.3394325674

> <CNNaffinity>
6.8208227158

> <CNN_VS>
2.3152093887

> <CNNaffinity_variance>
0.0601662211

$$$$
[H]O[C@@](C#Cc1c([H])c2c(c([H])c1F)OC([H])([H])C([H])([H])n1c-2nc(C(=O)N([H])[H])c1[H])(c1noc(C([H])([H])[H])n1)C([H])([H])F


 33 36  0  0  0  0  0  0  0  0999 V2000
   40.9613   12.9158  -15.4951 C   0  0  0  0  0  0  0  0  0  0  0  0
   39.6017   12.8481  -15.3016 C   0  0  0  0  0  0  0  0  0  0  0  0
   38.8219   12.2360  -16.2581 C   0  0  0  0  0  0  0  0  0  0  0  0
   37.3889   12.2405  -15.8991 C   0  0  0  0  0  0  0  0  0  0  0  0
   36.8734   13.1134  -15.0402 N   0  0  0  0  0  0  0  0  0  0  0  0
   35.5463   12.8169  -14.9594 C   0  0  0  0  0  0  0  0  0  0  0  0
   35.3110   11.7502  -15.7936 C   0  0  0  0  0  0  0  0  0  0  0  0
   36.4591   11.3999  -16.3722 N   0  0  0  0  0  0  0  0  0  0  0  0
   36.6463   10.3145  -17.3257 C   0  0  0  0  0  0  0  0  0  0  0  0
   37.3076   10.7734  -18.6069 C   0  0  0  0  0  0  0  0  0  0  0  0
   38.6912   11.0440  -18.4467 O   0  0  0  0  0  0  0  0  0  0  0  0
   39.3776   11.6900  -17.4066 C   0  0  0  0  0  0  0  0  0  0  0  0
   40.7409   11.7682  -17.5825 C   0  0  0  0  0  0  0  0  0  0  0  0
   41.5407   12.3756  -16.6387 C   0  0  0  0  0  0  0  0  0  0  0  0
   42.8856   12.4675  -16.7890 F   0  0  0  0  0  0  0  0  0  0  0  0
   34.5509   13.5048  -14.1414 C   0  0  0  0  0  0  0  0  0  0  0  0
   33.6220   14.4215  -14.7034 N   0  0  0  0  0  0  0  0  0  0  0  0
   34.5143   13.2836  -12.9173 O   0  0  0  0  0  0  0  0  0  0  0  0
   33.8318   15.4231  -14.8923 H   0  0  0  0  0  0  0  0  0  0  0  0
   32.6377   14.1150  -14.9666 H   0  0  0  0  0  0  0  0  0  0  0  0
   42.3852   14.1054  -13.6007 C   0  0  0  0  0  0  0  0  0  0  0  0
   41.7503   13.5537  -14.4625 C   0  0  0  0  0  0  0  0  0  0  0  0
   43.1474   14.8126  -12.5338 C   0  0  0  0  0  0  0  0  0  0  0  0
   44.1713   15.5864  -13.0558 O   0  0  0  0  0  0  0  0  0  0  0  0
   44.8599   14.9753  -13.4613 H   0  0  0  0  0  0  0  0  0  0  0  0
   45.7339   10.8973  -10.6693 C   0  0  0  0  0  0  0  0  0  0  0  0
   44.8782   12.1133  -10.8114 C   0  0  0  0  0  0  0  0  0  0  0  0
   44.5469   12.7719  -11.9298 N   0  0  0  0  0  0  0  0  0  0  0  0
   43.7575   13.8119  -11.6110 C   0  0  0  0  0  0  0  0  0  0  0  0
   43.6122   13.7795  -10.2826 N   0  0  0  0  0  0  0  0  0  0  0  0
   44.2875   12.7587   -9.8186 O   0  0  0  0  0  0  0  0  0  0  0  0
   42.1825   15.6986  -11.8178 C   0  0  0  0  0  0  0  0  0  0  0  0
   41.8553   16.7691  -12.6307 F   0  0  0  0  0  0  0  0  0  0  0  0
 26 27  1  0  0  0
 27 28  2  0  0  0
 28 29  1  0  0  0
 29 30  2  0  0  0
 30 31  1  0  0  0
 29 23  1  0  0  0
 23 24  1  0  0  0
 23 32  1  0  0  0
 32 33  1  0  0  0
 23 21  1  0  0  0
 21 22  3  0  0  0
 22  1  1  0  0  0
  1  2  2  0  0  0
  2  3  1  0  0  0
  3  4  1  0  0  0
  4  5  2  0  0  0
  5  6  1  0  0  0
  6  7  2  0  0  0
  7  8  1  0  0  0
  8  9  1  0  0  0
  9 10  1  0  0  0
 10 11  1  0  0  0
 11 12  1  0  0  0
 12 13  1  0  0  0
 13 14  2  0  0  0
 14 15  1  0  0  0
  6 16  1  0  0  0
 16 17  1  0  0  0
 16 18  2  0  0  0
 31 27  1  0  0  0
 14  1  1  0  0  0
 12  3  2  0  0  0
  8  4  1  0  0  0
 24 25  1  0  0  0
 17 19  1  0  0  0
 17 20  1  0  0  0
M  END
> <minimizedAffinity>
-8.99425

> <CNNscore>
0.3326977789

> <CNNaffinity>
6.8744416237

> <CNN_VS>
2.2871115208

> <CNNaffinity_variance>
0.0802266747

$$$$
[H]O[C@@](C#Cc1c([H])c2c(c([H])c1F)OC([H])([H])C([H])([H])n1c-2nc(C(=O)N([H])[H])c1[H])(c1noc(C([H])([H])[H])n1)C([H])([H])F


 33 36  0  0  0  0  0  0  0  0999 V2000
   40.9832   12.8516  -15.5071 C   0  0  0  0  0  0  0  0  0  0  0  0
   39.6250   12.8098  -15.2968 C   0  0  0  0  0  0  0  0  0  0  0  0
   38.8206   12.2234  -16.2491 C   0  0  0  0  0  0  0  0  0  0  0  0
   37.3928   12.2538  -15.8717 C   0  0  0  0  0  0  0  0  0  0  0  0
   36.9063   13.1285  -14.9978 N   0  0  0  0  0  0  0  0  0  0  0  0
   35.5745   12.8586  -14.9029 C   0  0  0  0  0  0  0  0  0  0  0  0
   35.3066   11.8052  -15.7443 C   0  0  0  0  0  0  0  0  0  0  0  0
   36.4398   11.4373  -16.3409 N   0  0  0  0  0  0  0  0  0  0  0  0
   36.5925   10.3578  -17.3072 C   0  0  0  0  0  0  0  0  0  0  0  0
   37.2469   10.8157  -18.5923 C   0  0  0  0  0  0  0  0  0  0  0  0
   38.6378   11.0562  -18.4473 O   0  0  0  0  0  0  0  0  0  0  0  0
   39.3504   11.6776  -17.4099 C   0  0  0  0  0  0  0  0  0  0  0  0
   40.7127   11.7295  -17.6025 C   0  0  0  0  0  0  0  0  0  0  0  0
   41.5367   12.3109  -16.6632 C   0  0  0  0  0  0  0  0  0  0  0  0
   42.8813   12.3767  -16.8299 F   0  0  0  0  0  0  0  0  0  0  0  0
   34.6039   13.5586  -14.0655 C   0  0  0  0  0  0  0  0  0  0  0  0
   33.5805   14.3715  -14.6231 N   0  0  0  0  0  0  0  0  0  0  0  0
   34.6742   13.4417  -12.8286 O   0  0  0  0  0  0  0  0  0  0  0  0
   33.7134   15.3631  -14.9091 H   0  0  0  0  0  0  0  0  0  0  0  0
   32.5996   13.9901  -14.7799 H   0  0  0  0  0  0  0  0  0  0  0  0
   42.4744   13.9455  -13.6069 C   0  0  0  0  0  0  0  0  0  0  0  0
   41.7982   13.4628  -14.4785 C   0  0  0  0  0  0  0  0  0  0  0  0
   43.3065   14.5148  -12.5101 C   0  0  0  0  0  0  0  0  0  0  0  0
   42.5385   14.8905  -11.4197 O   0  0  0  0  0  0  0  0  0  0  0  0
   41.9560   15.6649  -11.6898 H   0  0  0  0  0  0  0  0  0  0  0  0
   44.8721   19.2675  -13.1855 C   0  0  0  0  0  0  0  0  0  0  0  0
   44.6913   17.7887  -13.2926 C   0  0  0  0  0  0  0  0  0  0  0  0
   43.8695   16.9977  -12.5904 N   0  0  0  0  0  0  0  0  0  0  0  0
   44.0199   15.7279  -13.0045 C   0  0  0  0  0  0  0  0  0  0  0  0
   44.9452   15.7548  -13.9688 N   0  0  0  0  0  0  0  0  0  0  0  0
   45.3371   16.9933  -14.1301 O   0  0  0  0  0  0  0  0  0  0  0  0
   44.2655   13.4512  -12.0883 C   0  0  0  0  0  0  0  0  0  0  0  0
   43.6309   12.5828  -11.2182 F   0  0  0  0  0  0  0  0  0  0  0  0
 26 27  1  0  0  0
 27 28  2  0  0  0
 28 29  1  0  0  0
 29 30  2  0  0  0
 30 31  1  0  0  0
 29 23  1  0  0  0
 23 24  1  0  0  0
 23 32  1  0  0  0
 32 33  1  0  0  0
 23 21  1  0  0  0
 21 22  3  0  0  0
 22  1  1  0  0  0
  1  2  2  0  0  0
  2  3  1  0  0  0
  3  4  1  0  0  0
  4  5  2  0  0  0
  5  6  1  0  0  0
  6  7  2  0  0  0
  7  8  1  0  0  0
  8  9  1  0  0  0
  9 10  1  0  0  0
 10 11  1  0  0  0
 11 12  1  0  0  0
 12 13  1  0  0  0
 13 14  2  0  0  0
 14 15  1  0  0  0
  6 16  1  0  0  0
 16 17  1  0  0  0
 16 18  2  0  0  0
 31 27  1  0  0  0
 14  1  1  0  0  0
 12  3  2  0  0  0
  8  4  1  0  0  0
 24 25  1  0  0  0
 17 19  1  0  0  0
 17 20  1  0  0  0
M  END
> <minimizedAffinity>
-9.33749

> <CNNscore>
0.3254568279

> <CNNaffinity>
6.8414702415

> <CNN_VS>
2.2266032696

> <CNNaffinity_variance>
0.1359348744

$$$$
[H]O[C@@](C#Cc1c([H])c2c(c([H])c1F)OC([H])([H])C([H])([H])n1c-2nc(C(=O)N([H])[H])c1[H])(c1noc(C([H])([H])[H])n1)C([H])([H])F


 33 36  0  0  0  0  0  0  0  0999 V2000
   38.9548   14.2622  -13.5971 C   0  0  0  0  0  0  0  0  0  0  0  0
   38.0493   13.4713  -14.2641 C   0  0  0  0  0  0  0  0  0  0  0  0
   38.4197   12.8968  -15.4601 C   0  0  0  0  0  0  0  0  0  0  0  0
   37.3404   12.0747  -16.0445 C   0  0  0  0  0  0  0  0  0  0  0  0
   36.0621   12.2484  -15.7264 N   0  0  0  0  0  0  0  0  0  0  0  0
   35.3695   11.3251  -16.4498 C   0  0  0  0  0  0  0  0  0  0  0  0
   36.2822   10.6145  -17.1924 C   0  0  0  0  0  0  0  0  0  0  0  0
   37.5014   11.0866  -16.9348 N   0  0  0  0  0  0  0  0  0  0  0  0
   38.7495   10.6088  -17.5147 C   0  0  0  0  0  0  0  0  0  0  0  0
   39.5546   11.7174  -18.1564 C   0  0  0  0  0  0  0  0  0  0  0  0
   40.1728   12.5708  -17.2061 O   0  0  0  0  0  0  0  0  0  0  0  0
   39.6810   13.0995  -16.0024 C   0  0  0  0  0  0  0  0  0  0  0  0
   40.5736   13.8952  -15.3199 C   0  0  0  0  0  0  0  0  0  0  0  0
   40.2249   14.4798  -14.1216 C   0  0  0  0  0  0  0  0  0  0  0  0
   41.0847   15.2692  -13.4306 F   0  0  0  0  0  0  0  0  0  0  0  0
   33.9228   11.1246  -16.4444 C   0  0  0  0  0  0  0  0  0  0  0  0
   33.1743   11.0942  -15.2369 N   0  0  0  0  0  0  0  0  0  0  0  0
   33.3273   10.9752  -17.5269 O   0  0  0  0  0  0  0  0  0  0  0  0
   33.0684   10.2507  -14.6370 H   0  0  0  0  0  0  0  0  0  0  0  0
   32.6727   11.9616  -14.8790 H   0  0  0  0  0  0  0  0  0  0  0  0
   38.1602   15.3237  -11.3008 C   0  0  0  0  0  0  0  0  0  0  0  0
   38.5355   14.8377  -12.3367 C   0  0  0  0  0  0  0  0  0  0  0  0
   37.6676   15.9353  -10.0348 C   0  0  0  0  0  0  0  0  0  0  0  0
   38.0969   15.2334   -8.9200 O   0  0  0  0  0  0  0  0  0  0  0  0
   37.6575   14.3285   -8.9224 H   0  0  0  0  0  0  0  0  0  0  0  0
   32.8361   16.0055   -8.5692 C   0  0  0  0  0  0  0  0  0  0  0  0
   34.0862   15.9618   -9.3856 C   0  0  0  0  0  0  0  0  0  0  0  0
   35.3571   15.9963   -8.9642 N   0  0  0  0  0  0  0  0  0  0  0  0
   36.1759   15.9330  -10.0281 C   0  0  0  0  0  0  0  0  0  0  0  0
   35.3872   15.8601  -11.1049 N   0  0  0  0  0  0  0  0  0  0  0  0
   34.1408   15.8781  -10.7051 O   0  0  0  0  0  0  0  0  0  0  0  0
   38.2119   17.3242   -9.9765 C   0  0  0  0  0  0  0  0  0  0  0  0
   39.5578   17.3012  -10.2956 F   0  0  0  0  0  0  0  0  0  0  0  0
 26 27  1  0  0  0
 27 28  2  0  0  0
 28 29  1  0  0  0
 29 30  2  0  0  0
 30 31  1  0  0  0
 29 23  1  0  0  0
 23 24  1  0  0  0
 23 32  1  0  0  0
 32 33  1  0  0  0
 23 21  1  0  0  0
 21 22  3  0  0  0
 22  1  1  0  0  0
  1  2  2  0  0  0
  2  3  1  0  0  0
  3  4  1  0  0  0
  4  5  2  0  0  0
  5  6  1  0  0  0
  6  7  2  0  0  0
  7  8  1  0  0  0
  8  9  1  0  0  0
  9 10  1  0  0  0
 10 11  1  0  0  0
 11 12  1  0  0  0
 12 13  1  0  0  0
 13 14  2  0  0  0
 14 15  1  0  0  0
  6 16  1  0  0  0
 16 17  1  0  0  0
 16 18  2  0  0  0
 31 27  1  0  0  0
 14  1  1  0  0  0
 12  3  2  0  0  0
  8  4  1  0  0  0
 24 25  1  0  0  0
 17 19  1  0  0  0
 17 20  1  0  0  0
M  END
> <minimizedAffinity>
-8.70424

> <CNNscore>
0.3119851351

> <CNNaffinity>
6.8173356056

> <CNN_VS>
2.1269073486

> <CNNaffinity_variance>
0.1784052551

$$$$
[H]O[C@@](C#Cc1c([H])c2c(c([H])c1F)OC([H])([H])C([H])([H])n1c-2nc(C(=O)N([H])[H])c1[H])(c1noc(C([H])([H])[H])n1)C([H])([H])F


 33 36  0  0  0  0  0  0  0  0999 V2000
   36.9661   13.5426  -13.4155 C   0  0  0  0  0  0  0  0  0  0  0  0
   38.2855   13.5719  -13.8011 C   0  0  0  0  0  0  0  0  0  0  0  0
   38.6699   12.8619  -14.9172 C   0  0  0  0  0  0  0  0  0  0  0  0
   40.1130   13.0015  -15.2002 C   0  0  0  0  0  0  0  0  0  0  0  0
   40.9906   13.3512  -14.2658 N   0  0  0  0  0  0  0  0  0  0  0  0
   42.2036   13.3773  -14.8853 C   0  0  0  0  0  0  0  0  0  0  0  0
   42.0017   13.0341  -16.2009 C   0  0  0  0  0  0  0  0  0  0  0  0
   40.7026   12.8025  -16.3866 N   0  0  0  0  0  0  0  0  0  0  0  0
   40.0683   12.4132  -17.6390 C   0  0  0  0  0  0  0  0  0  0  0  0
   39.2426   11.1524  -17.5054 C   0  0  0  0  0  0  0  0  0  0  0  0
   38.0265   11.3616  -16.8048 O   0  0  0  0  0  0  0  0  0  0  0  0
   37.7576   12.1213  -15.6556 C   0  0  0  0  0  0  0  0  0  0  0  0
   36.4410   12.1039  -15.2533 C   0  0  0  0  0  0  0  0  0  0  0  0
   36.0337   12.8071  -14.1402 C   0  0  0  0  0  0  0  0  0  0  0  0
   34.7434   12.8048  -13.7218 F   0  0  0  0  0  0  0  0  0  0  0  0
   43.4866   13.7052  -14.2693 C   0  0  0  0  0  0  0  0  0  0  0  0
   43.6991   13.5849  -12.8695 N   0  0  0  0  0  0  0  0  0  0  0  0
   44.4210   14.1021  -14.9891 O   0  0  0  0  0  0  0  0  0  0  0  0
   43.4332   14.3119  -12.1742 H   0  0  0  0  0  0  0  0  0  0  0  0
   44.1536   12.7167  -12.4550 H   0  0  0  0  0  0  0  0  0  0  0  0
   36.2816   14.9262  -11.2595 C   0  0  0  0  0  0  0  0  0  0  0  0
   36.5963   14.3120  -12.2463 C   0  0  0  0  0  0  0  0  0  0  0  0
   35.8822   15.6572  -10.0244 C   0  0  0  0  0  0  0  0  0  0  0  0
   34.5359   15.9846  -10.0295 O   0  0  0  0  0  0  0  0  0  0  0  0
   34.3733   16.6601  -10.7571 H   0  0  0  0  0  0  0  0  0  0  0  0
   37.8553   20.0039   -8.3788 C   0  0  0  0  0  0  0  0  0  0  0  0
   37.5081   18.8088   -9.2048 C   0  0  0  0  0  0  0  0  0  0  0  0
   36.6920   17.7925   -8.8963 N   0  0  0  0  0  0  0  0  0  0  0  0
   36.6594   16.9263   -9.9235 C   0  0  0  0  0  0  0  0  0  0  0  0
   37.4675   17.4276  -10.8629 N   0  0  0  0  0  0  0  0  0  0  0  0
   37.9674   18.5531  -10.4192 O   0  0  0  0  0  0  0  0  0  0  0  0
   36.1602   14.7532   -8.8692 C   0  0  0  0  0  0  0  0  0  0  0  0
   37.5260   14.5659   -8.7540 F   0  0  0  0  0  0  0  0  0  0  0  0
 26 27  1  0  0  0
 27 28  2  0  0  0
 28 29  1  0  0  0
 29 30  2  0  0  0
 30 31  1  0  0  0
 29 23  1  0  0  0
 23 24  1  0  0  0
 23 32  1  0  0  0
 32 33  1  0  0  0
 23 21  1  0  0  0
 21 22  3  0  0  0
 22  1  1  0  0  0
  1  2  2  0  0  0
  2  3  1  0  0  0
  3  4  1  0  0  0
  4  5  2  0  0  0
  5  6  1  0  0  0
  6  7  2  0  0  0
  7  8  1  0  0  0
  8  9  1  0  0  0
  9 10  1  0  0  0
 10 11  1  0  0  0
 11 12  1  0  0  0
 12 13  1  0  0  0
 13 14  2  0  0  0
 14 15  1  0  0  0
  6 16  1  0  0  0
 16 17  1  0  0  0
 16 18  2  0  0  0
 31 27  1  0  0  0
 14  1  1  0  0  0
 12  3  2  0  0  0
  8  4  1  0  0  0
 24 25  1  0  0  0
 17 19  1  0  0  0
 17 20  1  0  0  0
M  END
> <minimizedAffinity>
-8.61374

> <CNNscore>
0.2189010233

> <CNNaffinity>
6.2400274277

> <CNN_VS>
1.3659484386

> <CNNaffinity_variance>
0.1466389745

$$$$
[H]O[C@@](C#Cc1c([H])c2c(c([H])c1F)OC([H])([H])C([H])([H])n1c-2nc(C(=O)N([H])[H])c1[H])(c1noc(C([H])([H])[H])n1)C([H])([H])F


 33 36  0  0  0  0  0  0  0  0999 V2000
   36.5755   13.3084  -14.4618 C   0  0  0  0  0  0  0  0  0  0  0  0
   37.8059   13.1205  -15.0461 C   0  0  0  0  0  0  0  0  0  0  0  0
   37.9185   12.2306  -16.0916 C   0  0  0  0  0  0  0  0  0  0  0  0
   39.2990   12.1486  -16.6109 C   0  0  0  0  0  0  0  0  0  0  0  0
   40.3544   12.5005  -15.8844 N   0  0  0  0  0  0  0  0  0  0  0  0
   41.4403   12.2929  -16.6803 C   0  0  0  0  0  0  0  0  0  0  0  0
   40.9828   11.8130  -17.8843 C   0  0  0  0  0  0  0  0  0  0  0  0
   39.6542   11.7264  -17.8318 N   0  0  0  0  0  0  0  0  0  0  0  0
   38.7789   11.2641  -18.9006 C   0  0  0  0  0  0  0  0  0  0  0  0
   37.8609   10.1458  -18.4579 C   0  0  0  0  0  0  0  0  0  0  0  0
   36.8103   10.5955  -17.6168 O   0  0  0  0  0  0  0  0  0  0  0  0
   36.8216   11.5237  -16.5640 C   0  0  0  0  0  0  0  0  0  0  0  0
   35.5981   11.7252  -15.9655 C   0  0  0  0  0  0  0  0  0  0  0  0
   35.4618   12.6108  -14.9184 C   0  0  0  0  0  0  0  0  0  0  0  0
   34.2685   12.8259  -14.3105 F   0  0  0  0  0  0  0  0  0  0  0  0
   42.8366   12.5313  -16.3242 C   0  0  0  0  0  0  0  0  0  0  0  0
   43.9040   12.1615  -17.1861 N   0  0  0  0  0  0  0  0  0  0  0  0
   43.1007   13.0726  -15.2352 O   0  0  0  0  0  0  0  0  0  0  0  0
   44.3123   11.2056  -17.2326 H   0  0  0  0  0  0  0  0  0  0  0  0
   44.3482   12.8685  -17.8457 H   0  0  0  0  0  0  0  0  0  0  0  0
   36.4295   15.0766  -12.4912 C   0  0  0  0  0  0  0  0  0  0  0  0
   36.4924   14.2615  -13.3754 C   0  0  0  0  0  0  0  0  0  0  0  0
   36.3610   16.1090  -11.4193 C   0  0  0  0  0  0  0  0  0  0  0  0
   36.1238   17.3736  -11.9334 O   0  0  0  0  0  0  0  0  0  0  0  0
   36.9254   17.6561  -12.4715 H   0  0  0  0  0  0  0  0  0  0  0  0
   41.2819   16.2546  -10.2975 C   0  0  0  0  0  0  0  0  0  0  0  0
   39.7916   16.2126  -10.2074 C   0  0  0  0  0  0  0  0  0  0  0  0
   38.8979   16.1881  -11.2048 N   0  0  0  0  0  0  0  0  0  0  0  0
   37.6588   16.1516  -10.6853 C   0  0  0  0  0  0  0  0  0  0  0  0
   37.8086   16.1549   -9.3570 N   0  0  0  0  0  0  0  0  0  0  0  0
   39.0888   16.1913   -9.0864 O   0  0  0  0  0  0  0  0  0  0  0  0
   35.2346   15.7304  -10.5155 C   0  0  0  0  0  0  0  0  0  0  0  0
   34.0572   15.6997  -11.2412 F   0  0  0  0  0  0  0  0  0  0  0  0
 26 27  1  0  0  0
 27 28  2  0  0  0
 28 29  1  0  0  0
 29 30  2  0  0  0
 30 31  1  0  0  0
 29 23  1  0  0  0
 23 24  1  0  0  0
 23 32  1  0  0  0
 32 33  1  0  0  0
 23 21  1  0  0  0
 21 22  3  0  0  0
 22  1  1  0  0  0
  1  2  2  0  0  0
  2  3  1  0  0  0
  3  4  1  0  0  0
  4  5  2  0  0  0
  5  6  1  0  0  0
  6  7  2  0  0  0
  7  8  1  0  0  0
  8  9  1  0  0  0
  9 10  1  0  0  0
 10 11  1  0  0  0
 11 12  1  0  0  0
 12 13  1  0  0  0
 13 14  2  0  0  0
 14 15  1  0  0  0
  6 16  1  0  0  0
 16 17  1  0  0  0
 16 18  2  0  0  0
 31 27  1  0  0  0
 14  1  1  0  0  0
 12  3  2  0  0  0
  8  4  1  0  0  0
 24 25  1  0  0  0
 17 19  1  0  0  0
 17 20  1  0  0  0
M  END
> <minimizedAffinity>
-9.18589

> <CNNscore>
0.2186211795

> <CNNaffinity>
6.6881761551

> <CNN_VS>
1.4621769190

> <CNNaffinity_variance>
0.0440707915

$$$$
[H]O[C@@](C#Cc1c([H])c2c(c([H])c1F)OC([H])([H])C([H])([H])n1c-2nc(C(=O)N([H])[H])c1[H])(c1noc(C([H])([H])[H])n1)C([H])([H])F


 33 36  0  0  0  0  0  0  0  0999 V2000
   40.9385   13.0520  -15.3956 C   0  0  0  0  0  0  0  0  0  0  0  0
   39.5767   12.9582  -15.2309 C   0  0  0  0  0  0  0  0  0  0  0  0
   38.8313   12.3144  -16.1940 C   0  0  0  0  0  0  0  0  0  0  0  0
   37.3910   12.2939  -15.8666 C   0  0  0  0  0  0  0  0  0  0  0  0
   36.8383   13.1691  -15.0335 N   0  0  0  0  0  0  0  0  0  0  0  0
   35.5162   12.8456  -14.9769 C   0  0  0  0  0  0  0  0  0  0  0  0
   35.3220   11.7609  -15.7985 C   0  0  0  0  0  0  0  0  0  0  0  0
   36.4898   11.4262  -16.3460 N   0  0  0  0  0  0  0  0  0  0  0  0
   36.7210   10.3299  -17.2772 C   0  0  0  0  0  0  0  0  0  0  0  0
   37.4008   10.7824  -18.5510 C   0  0  0  0  0  0  0  0  0  0  0  0
   38.7745   11.0851  -18.3651 O   0  0  0  0  0  0  0  0  0  0  0  0
   39.4238   11.7622  -17.3209 C   0  0  0  0  0  0  0  0  0  0  0  0
   40.7887   11.8668  -17.4683 C   0  0  0  0  0  0  0  0  0  0  0  0
   41.5544   12.5061  -16.5173 C   0  0  0  0  0  0  0  0  0  0  0  0
   42.9001   12.6244  -16.6396 F   0  0  0  0  0  0  0  0  0  0  0  0
   34.4886   13.5250  -14.1923 C   0  0  0  0  0  0  0  0  0  0  0  0
   33.1338   13.5790  -14.6174 N   0  0  0  0  0  0  0  0  0  0  0  0
   34.8069   14.0732  -13.1214 O   0  0  0  0  0  0  0  0  0  0  0  0
   32.7616   14.2766  -15.2938 H   0  0  0  0  0  0  0  0  0  0  0  0
   32.4149   12.8848  -14.2521 H   0  0  0  0  0  0  0  0  0  0  0  0
   42.3223   14.2542  -13.4796 C   0  0  0  0  0  0  0  0  0  0  0  0
   41.6908   13.7230  -14.3566 C   0  0  0  0  0  0  0  0  0  0  0  0
   43.1075   14.8813  -12.3798 C   0  0  0  0  0  0  0  0  0  0  0  0
   43.8804   13.9528  -11.7015 O   0  0  0  0  0  0  0  0  0  0  0  0
   43.2679   13.3215  -11.2133 H   0  0  0  0  0  0  0  0  0  0  0  0
   39.0774   17.0208  -10.2172 C   0  0  0  0  0  0  0  0  0  0  0  0
   40.4276   16.4327  -10.4667 C   0  0  0  0  0  0  0  0  0  0  0  0
   40.9180   15.9284  -11.6067 N   0  0  0  0  0  0  0  0  0  0  0  0
   42.1759   15.5047  -11.3956 C   0  0  0  0  0  0  0  0  0  0  0  0
   42.4463   15.7567  -10.1110 N   0  0  0  0  0  0  0  0  0  0  0  0
   41.3920   16.3116   -9.5688 O   0  0  0  0  0  0  0  0  0  0  0  0
   44.0035   15.8992  -13.0043 C   0  0  0  0  0  0  0  0  0  0  0  0
   43.5260   17.1655  -12.7174 F   0  0  0  0  0  0  0  0  0  0  0  0
 26 27  1  0  0  0
 27 28  2  0  0  0
 28 29  1  0  0  0
 29 30  2  0  0  0
 30 31  1  0  0  0
 29 23  1  0  0  0
 23 24  1  0  0  0
 23 32  1  0  0  0
 32 33  1  0  0  0
 23 21  1  0  0  0
 21 22  3  0  0  0
 22  1  1  0  0  0
  1  2  2  0  0  0
  2  3  1  0  0  0
  3  4  1  0  0  0
  4  5  2  0  0  0
  5  6  1  0  0  0
  6  7  2  0  0  0
  7  8  1  0  0  0
  8  9  1  0  0  0
  9 10  1  0  0  0
 10 11  1  0  0  0
 11 12  1  0  0  0
 12 13  1  0  0  0
 13 14  2  0  0  0
 14 15  1  0  0  0
  6 16  1  0  0  0
 16 17  1  0  0  0
 16 18  2  0  0  0
 31 27  1  0  0  0
 14  1  1  0  0  0
 12  3  2  0  0  0
  8  4  1  0  0  0
 24 25  1  0  0  0
 17 19  1  0  0  0
 17 20  1  0  0  0
M  END
> <minimizedAffinity>
-9.06294

> <CNNscore>
0.2052790225

> <CNNaffinity>
6.6868743896

> <CNN_VS>
1.3726750612

> <CNNaffinity_variance>
0.1162894368

$$$$
[H]O[C@](C#Cc1c([H])c2c(c([H])c1F)OC([H])([H])[C@]([H])(N(C([H])([H])[H])C([H])([H])[H])c1sc(C(=O)N([H])[H])nc1-2)(c1noc(C([H])([H])[H])n1)C([H])([H])[H]


 35 38  0  0  0  0  0  0  0  0999 V2000
   36.3659   13.2492  -14.8981 C   0  0  0  0  0  0  0  0  0  0  0  0
   36.5042   14.6608  -14.4704 C   0  0  0  0  0  0  0  0  0  0  0  0
   37.6706   15.0592  -13.8513 O   0  0  0  0  0  0  0  0  0  0  0  0
   38.9855   14.6561  -13.9095 C   0  0  0  0  0  0  0  0  0  0  0  0
   39.8011   15.2720  -12.9748 C   0  0  0  0  0  0  0  0  0  0  0  0
   41.1641   14.9451  -12.9297 C   0  0  0  0  0  0  0  0  0  0  0  0
   41.9717   15.5390  -12.0243 F   0  0  0  0  0  0  0  0  0  0  0  0
   41.6884   14.0271  -13.7984 C   0  0  0  0  0  0  0  0  0  0  0  0
   40.8356   13.4403  -14.7131 C   0  0  0  0  0  0  0  0  0  0  0  0
   39.5013   13.7302  -14.7912 C   0  0  0  0  0  0  0  0  0  0  0  0
   38.7916   12.9499  -15.8479 C   0  0  0  0  0  0  0  0  0  0  0  0
   39.4604   12.3996  -16.8076 N   0  0  0  0  0  0  0  0  0  0  0  0
   38.8270   11.6889  -17.7289 C   0  0  0  0  0  0  0  0  0  0  0  0
   37.1983   11.8005  -17.2188 S   0  0  0  0  0  0  0  0  0  0  0  0
   37.4275   12.7678  -15.8300 C   0  0  0  0  0  0  0  0  0  0  0  0
   39.3959   10.9976  -18.9106 C   0  0  0  0  0  0  0  0  0  0  0  0
   38.5170   10.5219  -19.8822 N   0  0  0  0  0  0  0  0  0  0  0  0
   40.6720   10.8747  -18.9685 O   0  0  0  0  0  0  0  0  0  0  0  0
   37.7961   11.1429  -20.2872 H   0  0  0  0  0  0  0  0  0  0  0  0
   38.5753    9.5396  -20.2031 H   0  0  0  0  0  0  0  0  0  0  0  0
   34.6675   12.2009  -13.5221 C   0  0  0  0  0  0  0  0  0  0  0  0
   36.0506   12.2844  -13.9132 N   0  0  0  0  0  0  0  0  0  0  0  0
   36.8981   12.1148  -12.8043 C   0  0  0  0  0  0  0  0  0  0  0  0
   43.0934   13.6495  -13.7568 C   0  0  0  0  0  0  0  0  0  0  0  0
   44.2576   13.3423  -13.7574 C   0  0  0  0  0  0  0  0  0  0  0  0
   45.6923   12.9808  -13.7922 C   0  0  0  0  0  0  0  0  0  0  0  0
   46.0948   12.1599  -12.5907 C   0  0  0  0  0  0  0  0  0  0  0  0
   45.8801   12.1871  -14.9458 O   0  0  0  0  0  0  0  0  0  0  0  0
   46.2578   12.7783  -15.6527 H   0  0  0  0  0  0  0  0  0  0  0  0
   46.4412   14.2515  -13.9047 C   0  0  0  0  0  0  0  0  0  0  0  0
   47.5740   14.5634  -13.2487 N   0  0  0  0  0  0  0  0  0  0  0  0
   47.9503   15.7750  -13.5921 O   0  0  0  0  0  0  0  0  0  0  0  0
   47.1114   16.2809  -14.4517 C   0  0  0  0  0  0  0  0  0  0  0  0
   47.1814   17.6202  -15.0795 C   0  0  0  0  0  0  0  0  0  0  0  0
   46.1557   15.3254  -14.6547 N   0  0  0  0  0  0  0  0  0  0  0  0
 21 22  1  0  0  0
 22 23  1  0  0  0
 22  1  1  0  0  0
  1  2  1  0  0  0
  2  3  1  0  0  0
  3  4  1  0  0  0
  4  5  2  0  0  0
  5  6  1  0  0  0
  6  7  1  0  0  0
  6  8  2  0  0  0
  8  9  1  0  0  0
  9 10  2  0  0  0
 10 11  1  0  0  0
 11 12  1  0  0  0
 12 13  2  0  0  0
 13 14  1  0  0  0
 14 15  1  0  0  0
 13 16  1  0  0  0
 16 17  1  0  0  0
 16 18  2  0  0  0
  8 24  1  0  0  0
 24 25  3  0  0  0
 26 25  1  0  0  0
 26 27  1  0  0  0
 26 28  1  0  0  0
 26 30  1  0  0  0
 30 31  2  0  0  0
 31 32  1  0  0  0
 32 33  1  0  0  0
 33 34  1  0  0  0
 33 35  2  0  0  0
 15  1  1  0  0  0
 35 30  1  0  0  0
 10  4  1  0  0  0
 15 11  2  0  0  0
 17 19  1  0  0  0
 17 20  1  0  0  0
 28 29  1  0  0  0
M  END
> <minimizedAffinity>
-7.52397

> <CNNscore>
0.4475039244

> <CNNaffinity>
7.2547349930

> <CNN_VS>
3.2465224266

> <CNNaffinity_variance>
0.4787958562

$$$$
[H]O[C@](C#Cc1c([H])c2c(c([H])c1F)OC([H])([H])[C@]([H])(N(C([H])([H])[H])C([H])([H])[H])c1sc(C(=O)N([H])[H])nc1-2)(c1noc(C([H])([H])[H])n1)C([H])([H])[H]


 35 38  0  0  0  0  0  0  0  0999 V2000
   36.5251   13.2162  -14.7474 C   0  0  0  0  0  0  0  0  0  0  0  0
   36.5918   14.6359  -14.3298 C   0  0  0  0  0  0  0  0  0  0  0  0
   37.7442   15.1023  -13.7325 O   0  0  0  0  0  0  0  0  0  0  0  0
   39.0784   14.7724  -13.8105 C   0  0  0  0  0  0  0  0  0  0  0  0
   39.8738   15.4385  -12.8929 C   0  0  0  0  0  0  0  0  0  0  0  0
   41.2534   15.1880  -12.8688 C   0  0  0  0  0  0  0  0  0  0  0  0
   42.0415   15.8315  -11.9803 F   0  0  0  0  0  0  0  0  0  0  0  0
   41.8136   14.2949  -13.7412 C   0  0  0  0  0  0  0  0  0  0  0  0
   40.9797   13.6560  -14.6383 C   0  0  0  0  0  0  0  0  0  0  0  0
   39.6302   13.8709  -14.6956 C   0  0  0  0  0  0  0  0  0  0  0  0
   38.9478   13.0457  -15.7361 C   0  0  0  0  0  0  0  0  0  0  0  0
   39.6303   12.5273  -16.7038 N   0  0  0  0  0  0  0  0  0  0  0  0
   39.0223   11.7767  -17.6105 C   0  0  0  0  0  0  0  0  0  0  0  0
   37.3985   11.8011  -17.0739 S   0  0  0  0  0  0  0  0  0  0  0  0
   37.5964   12.7885  -15.6943 C   0  0  0  0  0  0  0  0  0  0  0  0
   39.6093   11.1106  -18.7977 C   0  0  0  0  0  0  0  0  0  0  0  0
   38.7434   10.6245  -19.7759 N   0  0  0  0  0  0  0  0  0  0  0  0
   40.8880   11.0176  -18.8541 O   0  0  0  0  0  0  0  0  0  0  0  0
   38.0093   11.2328  -20.1764 H   0  0  0  0  0  0  0  0  0  0  0  0
   38.8250    9.6470  -20.1065 H   0  0  0  0  0  0  0  0  0  0  0  0
   35.3104   12.5878  -12.7458 C   0  0  0  0  0  0  0  0  0  0  0  0
   36.2801   12.2416  -13.7522 N   0  0  0  0  0  0  0  0  0  0  0  0
   37.3550   11.5298  -13.1913 C   0  0  0  0  0  0  0  0  0  0  0  0
   43.2378   13.9961  -13.7210 C   0  0  0  0  0  0  0  0  0  0  0  0
   44.4088   13.7158  -13.7148 C   0  0  0  0  0  0  0  0  0  0  0  0
   45.8404   13.3409  -13.7283 C   0  0  0  0  0  0  0  0  0  0  0  0
   46.2887   12.8816  -15.0948 C   0  0  0  0  0  0  0  0  0  0  0  0
   46.5658   14.5080  -13.4004 O   0  0  0  0  0  0  0  0  0  0  0  0
   46.8050   14.4458  -12.4356 H   0  0  0  0  0  0  0  0  0  0  0  0
   46.0121   12.3082  -12.6832 C   0  0  0  0  0  0  0  0  0  0  0  0
   45.4896   12.3420  -11.4436 N   0  0  0  0  0  0  0  0  0  0  0  0
   45.8560   11.2605  -10.7927 O   0  0  0  0  0  0  0  0  0  0  0  0
   46.6021   10.5085  -11.5518 C   0  0  0  0  0  0  0  0  0  0  0  0
   47.2133    9.2091  -11.1900 C   0  0  0  0  0  0  0  0  0  0  0  0
   46.7055   11.1626  -12.7473 N   0  0  0  0  0  0  0  0  0  0  0  0
 21 22  1  0  0  0
 22 23  1  0  0  0
 22  1  1  0  0  0
  1  2  1  0  0  0
  2  3  1  0  0  0
  3  4  1  0  0  0
  4  5  2  0  0  0
  5  6  1  0  0  0
  6  7  1  0  0  0
  6  8  2  0  0  0
  8  9  1  0  0  0
  9 10  2  0  0  0
 10 11  1  0  0  0
 11 12  1  0  0  0
 12 13  2  0  0  0
 13 14  1  0  0  0
 14 15  1  0  0  0
 13 16  1  0  0  0
 16 17  1  0  0  0
 16 18  2  0  0  0
  8 24  1  0  0  0
 24 25  3  0  0  0
 26 25  1  0  0  0
 26 27  1  0  0  0
 26 28  1  0  0  0
 26 30  1  0  0  0
 30 31  2  0  0  0
 31 32  1  0  0  0
 32 33  1  0  0  0
 33 34  1  0  0  0
 33 35  2  0  0  0
 15  1  1  0  0  0
 35 30  1  0  0  0
 10  4  1  0  0  0
 15 11  2  0  0  0
 17 19  1  0  0  0
 17 20  1  0  0  0
 28 29  1  0  0  0
M  END
> <minimizedAffinity>
-7.79109

> <CNNscore>
0.4213190973

> <CNNaffinity>
7.0624456406

> <CNN_VS>
2.9755432606

> <CNNaffinity_variance>
0.3405956626

$$$$
[H]O[C@](C#Cc1c([H])c2c(c([H])c1F)OC([H])([H])[C@]([H])(N(C([H])([H])[H])C([H])([H])[H])c1sc(C(=O)N([H])[H])nc1-2)(c1noc(C([H])([H])[H])n1)C([H])([H])[H]


 35 38  0  0  0  0  0  0  0  0999 V2000
   45.1607   16.2611  -12.9718 C   0  0  0  0  0  0  0  0  0  0  0  0
   44.7743   16.2566  -11.5417 C   0  0  0  0  0  0  0  0  0  0  0  0
   43.4352   16.2833  -11.2123 O   0  0  0  0  0  0  0  0  0  0  0  0
   42.2798   15.8383  -11.8140 C   0  0  0  0  0  0  0  0  0  0  0  0
   41.1229   16.2267  -11.1591 C   0  0  0  0  0  0  0  0  0  0  0  0
   39.8777   15.8383  -11.6741 C   0  0  0  0  0  0  0  0  0  0  0  0
   38.7411   16.2087  -11.0450 F   0  0  0  0  0  0  0  0  0  0  0  0
   39.8006   15.0830  -12.8124 C   0  0  0  0  0  0  0  0  0  0  0  0
   40.9819   14.7194  -13.4295 C   0  0  0  0  0  0  0  0  0  0  0  0
   42.2163   15.0764  -12.9612 C   0  0  0  0  0  0  0  0  0  0  0  0
   43.3351   14.5784  -13.8153 C   0  0  0  0  0  0  0  0  0  0  0  0
   43.1384   13.6000  -14.6369 N   0  0  0  0  0  0  0  0  0  0  0  0
   44.1292   13.1785  -15.4088 C   0  0  0  0  0  0  0  0  0  0  0  0
   45.4113   14.2151  -14.9539 S   0  0  0  0  0  0  0  0  0  0  0  0
   44.5889   15.1451  -13.7810 C   0  0  0  0  0  0  0  0  0  0  0  0
   44.1209   12.0717  -16.3951 C   0  0  0  0  0  0  0  0  0  0  0  0
   43.0300   11.9645  -17.2560 N   0  0  0  0  0  0  0  0  0  0  0  0
   45.1236   11.2707  -16.3964 O   0  0  0  0  0  0  0  0  0  0  0  0
   42.7117   12.7815  -17.8043 H   0  0  0  0  0  0  0  0  0  0  0  0
   42.5251   11.0658  -17.3499 H   0  0  0  0  0  0  0  0  0  0  0  0
   46.3484   17.9125  -14.2904 C   0  0  0  0  0  0  0  0  0  0  0  0
   45.1206   17.4920  -13.6672 N   0  0  0  0  0  0  0  0  0  0  0  0
   44.4384   18.5877  -13.1098 C   0  0  0  0  0  0  0  0  0  0  0  0
   38.5216   14.6880  -13.3836 C   0  0  0  0  0  0  0  0  0  0  0  0
   37.4638   14.3323  -13.8355 C   0  0  0  0  0  0  0  0  0  0  0  0
   36.1595   13.8715  -14.3617 C   0  0  0  0  0  0  0  0  0  0  0  0
   35.2351   13.4197  -13.2569 C   0  0  0  0  0  0  0  0  0  0  0  0
   35.5664   14.9840  -14.9994 O   0  0  0  0  0  0  0  0  0  0  0  0
   35.7261   14.8835  -15.9773 H   0  0  0  0  0  0  0  0  0  0  0  0
   36.4575   12.8048  -15.3423 C   0  0  0  0  0  0  0  0  0  0  0  0
   35.5842   11.8950  -15.8119 N   0  0  0  0  0  0  0  0  0  0  0  0
   36.2019   11.1041  -16.6608 O   0  0  0  0  0  0  0  0  0  0  0  0
   37.4524   11.4531  -16.7741 C   0  0  0  0  0  0  0  0  0  0  0  0
   38.4796   10.8144  -17.6283 C   0  0  0  0  0  0  0  0  0  0  0  0
   37.6221   12.5262  -15.9451 N   0  0  0  0  0  0  0  0  0  0  0  0
 21 22  1  0  0  0
 22 23  1  0  0  0
 22  1  1  0  0  0
  1  2  1  0  0  0
  2  3  1  0  0  0
  3  4  1  0  0  0
  4  5  2  0  0  0
  5  6  1  0  0  0
  6  7  1  0  0  0
  6  8  2  0  0  0
  8  9  1  0  0  0
  9 10  2  0  0  0
 10 11  1  0  0  0
 11 12  1  0  0  0
 12 13  2  0  0  0
 13 14  1  0  0  0
 14 15  1  0  0  0
 13 16  1  0  0  0
 16 17  1  0  0  0
 16 18  2  0  0  0
  8 24  1  0  0  0
 24 25  3  0  0  0
 26 25  1  0  0  0
 26 27  1  0  0  0
 26 28  1  0  0  0
 26 30  1  0  0  0
 30 31  2  0  0  0
 31 32  1  0  0  0
 32 33  1  0  0  0
 33 34  1  0  0  0
 33 35  2  0  0  0
 15  1  1  0  0  0
 35 30  1  0  0  0
 10  4  1  0  0  0
 15 11  2  0  0  0
 17 19  1  0  0  0
 17 20  1  0  0  0
 28 29  1  0  0  0
M  END
> <minimizedAffinity>
-8.49440

> <CNNscore>
0.1657700837

> <CNNaffinity>
6.3836293221

> <CNN_VS>
1.0582147837

> <CNNaffinity_variance>
0.1619335264

$$$$
[H]O[C@](C#Cc1c([H])c2c(c([H])c1F)OC([H])([H])[C@]([H])(N(C([H])([H])[H])C([H])([H])[H])c1sc(C(=O)N([H])[H])nc1-2)(c1noc(C([H])([H])[H])n1)C([H])([H])[H]


 35 38  0  0  0  0  0  0  0  0999 V2000
   35.0497   16.7471   -8.7626 C   0  0  0  0  0  0  0  0  0  0  0  0
   35.2867   17.5804   -7.5609 C   0  0  0  0  0  0  0  0  0  0  0  0
   36.0598   17.0717   -6.5381 O   0  0  0  0  0  0  0  0  0  0  0  0
   37.1010   16.1743   -6.4641 C   0  0  0  0  0  0  0  0  0  0  0  0
   37.4758   15.8582   -5.1688 C   0  0  0  0  0  0  0  0  0  0  0  0
   38.5249   14.9517   -4.9582 C   0  0  0  0  0  0  0  0  0  0  0  0
   38.9021   14.6352   -3.7003 F   0  0  0  0  0  0  0  0  0  0  0  0
   39.1754   14.3821   -6.0187 C   0  0  0  0  0  0  0  0  0  0  0  0
   38.7664   14.7293   -7.2917 C   0  0  0  0  0  0  0  0  0  0  0  0
   37.7488   15.6083   -7.5414 C   0  0  0  0  0  0  0  0  0  0  0  0
   37.4844   15.8022   -8.9980 C   0  0  0  0  0  0  0  0  0  0  0  0
   38.3865   15.4877   -9.8689 N   0  0  0  0  0  0  0  0  0  0  0  0
   38.1365   15.6402  -11.1609 C   0  0  0  0  0  0  0  0  0  0  0  0
   36.5431   16.2619  -11.1526 S   0  0  0  0  0  0  0  0  0  0  0  0
   36.2850   16.2904   -9.4644 C   0  0  0  0  0  0  0  0  0  0  0  0
   39.0298   15.3611  -12.3106 C   0  0  0  0  0  0  0  0  0  0  0  0
   38.8465   14.1718  -13.0140 N   0  0  0  0  0  0  0  0  0  0  0  0
   39.9268   16.2351  -12.5907 O   0  0  0  0  0  0  0  0  0  0  0  0
   37.9099   13.9079  -13.3639 H   0  0  0  0  0  0  0  0  0  0  0  0
   39.6471   13.5391  -13.1877 H   0  0  0  0  0  0  0  0  0  0  0  0
   32.7107   16.1205   -8.8763 C   0  0  0  0  0  0  0  0  0  0  0  0
   34.0798   15.7211   -8.6790 N   0  0  0  0  0  0  0  0  0  0  0  0
   34.1792   14.7458   -7.6714 C   0  0  0  0  0  0  0  0  0  0  0  0
   40.2497   13.4186   -5.8295 C   0  0  0  0  0  0  0  0  0  0  0  0
   41.1396   12.6303   -5.6386 C   0  0  0  0  0  0  0  0  0  0  0  0
   42.2263   11.6630   -5.3669 C   0  0  0  0  0  0  0  0  0  0  0  0
   41.8352   10.6606   -4.3078 C   0  0  0  0  0  0  0  0  0  0  0  0
   42.4507   10.9599   -6.5716 O   0  0  0  0  0  0  0  0  0  0  0  0
   43.2476   11.3681   -7.0077 H   0  0  0  0  0  0  0  0  0  0  0  0
   43.4154   12.4624   -4.9992 C   0  0  0  0  0  0  0  0  0  0  0  0
   44.6495   11.9816   -4.7610 N   0  0  0  0  0  0  0  0  0  0  0  0
   45.4489   12.9799   -4.4579 O   0  0  0  0  0  0  0  0  0  0  0  0
   44.7940   14.1062   -4.4855 C   0  0  0  0  0  0  0  0  0  0  0  0
   45.3343   15.4558   -4.2035 C   0  0  0  0  0  0  0  0  0  0  0  0
   43.5094   13.7885   -4.8266 N   0  0  0  0  0  0  0  0  0  0  0  0
 21 22  1  0  0  0
 22 23  1  0  0  0
 22  1  1  0  0  0
  1  2  1  0  0  0
  2  3  1  0  0  0
  3  4  1  0  0  0
  4  5  2  0  0  0
  5  6  1  0  0  0
  6  7  1  0  0  0
  6  8  2  0  0  0
  8  9  1  0  0  0
  9 10  2  0  0  0
 10 11  1  0  0  0
 11 12  1  0  0  0
 12 13  2  0  0  0
 13 14  1  0  0  0
 14 15  1  0  0  0
 13 16  1  0  0  0
 16 17  1  0  0  0
 16 18  2  0  0  0
  8 24  1  0  0  0
 24 25  3  0  0  0
 26 25  1  0  0  0
 26 27  1  0  0  0
 26 28  1  0  0  0
 26 30  1  0  0  0
 30 31  2  0  0  0
 31 32  1  0  0  0
 32 33  1  0  0  0
 33 34  1  0  0  0
 33 35  2  0  0  0
 15  1  1  0  0  0
 35 30  1  0  0  0
 10  4  1  0  0  0
 15 11  2  0  0  0
 17 19  1  0  0  0
 17 20  1  0  0  0
 28 29  1  0  0  0
M  END
> <minimizedAffinity>
-6.54634

> <CNNscore>
0.1520081013

> <CNNaffinity>
5.4301433563

> <CNN_VS>
0.8254258037

> <CNNaffinity_variance>
0.4422043264

$$$$
[H]O[C@](C#Cc1c([H])c2c(c([H])c1F)OC([H])([H])[C@]([H])(N(C([H])([H])[H])C([H])([H])[H])c1sc(C(=O)N([H])[H])nc1-2)(c1noc(C([H])([H])[H])n1)C([H])([H])[H]


 35 38  0  0  0  0  0  0  0  0999 V2000
   46.2448   13.3417  -13.0791 C   0  0  0  0  0  0  0  0  0  0  0  0
   46.2706   13.5779  -14.5414 C   0  0  0  0  0  0  0  0  0  0  0  0
   45.1261   13.3452  -15.2751 O   0  0  0  0  0  0  0  0  0  0  0  0
   43.7765   13.3969  -15.0087 C   0  0  0  0  0  0  0  0  0  0  0  0
   42.9839   12.9286  -16.0435 C   0  0  0  0  0  0  0  0  0  0  0  0
   41.5895   12.9265  -15.8950 C   0  0  0  0  0  0  0  0  0  0  0  0
   40.8040   12.4739  -16.8965 F   0  0  0  0  0  0  0  0  0  0  0  0
   41.0121   13.3816  -14.7409 C   0  0  0  0  0  0  0  0  0  0  0  0
   41.8440   13.8396  -13.7376 C   0  0  0  0  0  0  0  0  0  0  0  0
   43.2076   13.8592  -13.8411 C   0  0  0  0  0  0  0  0  0  0  0  0
   43.8823   14.3806  -12.6155 C   0  0  0  0  0  0  0  0  0  0  0  0
   43.2203   15.0926  -11.7635 N   0  0  0  0  0  0  0  0  0  0  0  0
   43.8189   15.5323  -10.6664 C   0  0  0  0  0  0  0  0  0  0  0  0
   45.4027   14.9110  -10.8418 S   0  0  0  0  0  0  0  0  0  0  0  0
   45.2024   14.1094  -12.3366 C   0  0  0  0  0  0  0  0  0  0  0  0
   43.2532   16.3700   -9.5819 C   0  0  0  0  0  0  0  0  0  0  0  0
   41.8714   16.3671   -9.3997 N   0  0  0  0  0  0  0  0  0  0  0  0
   44.0740   17.0550   -8.8720 O   0  0  0  0  0  0  0  0  0  0  0  0
   41.3552   15.4753   -9.3127 H   0  0  0  0  0  0  0  0  0  0  0  0
   41.3486   17.2594   -9.3552 H   0  0  0  0  0  0  0  0  0  0  0  0
   45.4400   11.6255  -11.5680 C   0  0  0  0  0  0  0  0  0  0  0  0
   46.3459   12.0079  -12.6196 N   0  0  0  0  0  0  0  0  0  0  0  0
   47.6126   11.4289  -12.4278 C   0  0  0  0  0  0  0  0  0  0  0  0
   39.5695   13.3665  -14.5493 C   0  0  0  0  0  0  0  0  0  0  0  0
   38.3791   13.3819  -14.3690 C   0  0  0  0  0  0  0  0  0  0  0  0
   36.9189   13.4359  -14.1338 C   0  0  0  0  0  0  0  0  0  0  0  0
   36.5622   13.0455  -12.7196 C   0  0  0  0  0  0  0  0  0  0  0  0
   36.5289   14.7799  -14.3271 O   0  0  0  0  0  0  0  0  0  0  0  0
   36.1424   14.8465  -15.2425 H   0  0  0  0  0  0  0  0  0  0  0  0
   36.2986   12.5603  -15.1520 C   0  0  0  0  0  0  0  0  0  0  0  0
   36.9373   11.9539  -16.1695 N   0  0  0  0  0  0  0  0  0  0  0  0
   36.0679   11.2625  -16.8720 O   0  0  0  0  0  0  0  0  0  0  0  0
   34.8755   11.3854  -16.3607 C   0  0  0  0  0  0  0  0  0  0  0  0
   33.6266   10.7644  -16.8582 C   0  0  0  0  0  0  0  0  0  0  0  0
   35.0123   12.2031  -15.2743 N   0  0  0  0  0  0  0  0  0  0  0  0
 21 22  1  0  0  0
 22 23  1  0  0  0
 22  1  1  0  0  0
  1  2  1  0  0  0
  2  3  1  0  0  0
  3  4  1  0  0  0
  4  5  2  0  0  0
  5  6  1  0  0  0
  6  7  1  0  0  0
  6  8  2  0  0  0
  8  9  1  0  0  0
  9 10  2  0  0  0
 10 11  1  0  0  0
 11 12  1  0  0  0
 12 13  2  0  0  0
 13 14  1  0  0  0
 14 15  1  0  0  0
 13 16  1  0  0  0
 16 17  1  0  0  0
 16 18  2  0  0  0
  8 24  1  0  0  0
 24 25  3  0  0  0
 26 25  1  0  0  0
 26 27  1  0  0  0
 26 28  1  0  0  0
 26 30  1  0  0  0
 30 31  2  0  0  0
 31 32  1  0  0  0
 32 33  1  0  0  0
 33 34  1  0  0  0
 33 35  2  0  0  0
 15  1  1  0  0  0
 35 30  1  0  0  0
 10  4  1  0  0  0
 15 11  2  0  0  0
 17 19  1  0  0  0
 17 20  1  0  0  0
 28 29  1  0  0  0
M  END
> <minimizedAffinity>
-8.45837

> <CNNscore>
0.1218438745

> <CNNaffinity>
6.0761590004

> <CNN_VS>
0.7403427362

> <CNNaffinity_variance>
0.1753479540

$$$$
[H]O[C@](C#Cc1c([H])c2c(c([H])c1F)OC([H])([H])[C@]([H])(N(C([H])([H])[H])C([H])([H])[H])c1sc(C(=O)N([H])[H])nc1-2)(c1noc(C([H])([H])[H])n1)C([H])([H])[H]


 35 38  0  0  0  0  0  0  0  0999 V2000
   41.6788   15.4879   -6.7424 C   0  0  0  0  0  0  0  0  0  0  0  0
   41.3236   14.3948   -5.8078 C   0  0  0  0  0  0  0  0  0  0  0  0
   40.0481   14.3523   -5.2848 O   0  0  0  0  0  0  0  0  0  0  0  0
   38.8075   14.7598   -5.7206 C   0  0  0  0  0  0  0  0  0  0  0  0
   37.8109   14.6347   -4.7670 C   0  0  0  0  0  0  0  0  0  0  0  0
   36.5007   15.0189   -5.0870 C   0  0  0  0  0  0  0  0  0  0  0  0
   35.5184   14.9011   -4.1672 F   0  0  0  0  0  0  0  0  0  0  0  0
   36.2042   15.5132   -6.3279 C   0  0  0  0  0  0  0  0  0  0  0  0
   37.2315   15.6184   -7.2455 C   0  0  0  0  0  0  0  0  0  0  0  0
   38.5221   15.2554   -6.9749 C   0  0  0  0  0  0  0  0  0  0  0  0
   39.4493   15.4836   -8.1227 C   0  0  0  0  0  0  0  0  0  0  0  0
   38.9800   15.6138   -9.3202 N   0  0  0  0  0  0  0  0  0  0  0  0
   39.8064   15.8396  -10.3307 C   0  0  0  0  0  0  0  0  0  0  0  0
   41.3304   15.8700   -9.5550 S   0  0  0  0  0  0  0  0  0  0  0  0
   40.8112   15.5871   -7.9526 C   0  0  0  0  0  0  0  0  0  0  0  0
   39.4807   15.9994  -11.7681 C   0  0  0  0  0  0  0  0  0  0  0  0
   38.2383   15.5536  -12.2158 N   0  0  0  0  0  0  0  0  0  0  0  0
   40.3685   16.5398  -12.5210 O   0  0  0  0  0  0  0  0  0  0  0  0
   37.3709   15.8475  -11.7356 H   0  0  0  0  0  0  0  0  0  0  0  0
   38.1738   14.9191  -13.0310 H   0  0  0  0  0  0  0  0  0  0  0  0
   43.2810   17.2880   -6.4792 C   0  0  0  0  0  0  0  0  0  0  0  0
   41.9718   16.7595   -6.1970 N   0  0  0  0  0  0  0  0  0  0  0  0
   41.5796   17.0630   -4.8815 C   0  0  0  0  0  0  0  0  0  0  0  0
   34.8590   15.9440   -6.6787 C   0  0  0  0  0  0  0  0  0  0  0  0
   33.7332   16.2781   -6.9444 C   0  0  0  0  0  0  0  0  0  0  0  0
   32.3377   16.6738   -7.2384 C   0  0  0  0  0  0  0  0  0  0  0  0
   31.3635   16.0736   -6.2534 C   0  0  0  0  0  0  0  0  0  0  0  0
   32.2811   18.0793   -7.1068 O   0  0  0  0  0  0  0  0  0  0  0  0
   32.3306   18.4640   -8.0242 H   0  0  0  0  0  0  0  0  0  0  0  0
   32.0738   16.2689   -8.6364 C   0  0  0  0  0  0  0  0  0  0  0  0
   30.8698   16.2336   -9.2365 N   0  0  0  0  0  0  0  0  0  0  0  0
   31.0186   15.8205  -10.4753 O   0  0  0  0  0  0  0  0  0  0  0  0
   32.2753   15.5798  -10.7224 C   0  0  0  0  0  0  0  0  0  0  0  0
   32.8542   15.0992  -11.9979 C   0  0  0  0  0  0  0  0  0  0  0  0
   32.9485   15.8605   -9.5668 N   0  0  0  0  0  0  0  0  0  0  0  0
 21 22  1  0  0  0
 22 23  1  0  0  0
 22  1  1  0  0  0
  1  2  1  0  0  0
  2  3  1  0  0  0
  3  4  1  0  0  0
  4  5  2  0  0  0
  5  6  1  0  0  0
  6  7  1  0  0  0
  6  8  2  0  0  0
  8  9  1  0  0  0
  9 10  2  0  0  0
 10 11  1  0  0  0
 11 12  1  0  0  0
 12 13  2  0  0  0
 13 14  1  0  0  0
 14 15  1  0  0  0
 13 16  1  0  0  0
 16 17  1  0  0  0
 16 18  2  0  0  0
  8 24  1  0  0  0
 24 25  3  0  0  0
 26 25  1  0  0  0
 26 27  1  0  0  0
 26 28  1  0  0  0
 26 30  1  0  0  0
 30 31  2  0  0  0
 31 32  1  0  0  0
 32 33  1  0  0  0
 33 34  1  0  0  0
 33 35  2  0  0  0
 15  1  1  0  0  0
 35 30  1  0  0  0
 10  4  1  0  0  0
 15 11  2  0  0  0
 17 19  1  0  0  0
 17 20  1  0  0  0
 28 29  1  0  0  0
M  END
> <minimizedAffinity>
-6.60337

> <CNNscore>
0.1116569564

> <CNNaffinity>
5.6866679192

> <CNN_VS>
0.6349560022

> <CNNaffinity_variance>
0.3537281454

$$$$
[H]O[C@](C#Cc1c([H])c2c(c([H])c1F)OC([H])([H])[C@]([H])(N(C([H])([H])[H])C([H])([H])[H])c1sc(C(=O)N([H])[H])nc1-2)(c1noc(C([H])([H])[H])n1)C([H])([H])[H]


 35 38  0  0  0  0  0  0  0  0999 V2000
   46.8264   13.8240  -14.7596 C   0  0  0  0  0  0  0  0  0  0  0  0
   47.6558   12.8483  -14.0148 C   0  0  0  0  0  0  0  0  0  0  0  0
   47.4381   12.6820  -12.6630 O   0  0  0  0  0  0  0  0  0  0  0  0
   46.3465   12.8091  -11.8341 C   0  0  0  0  0  0  0  0  0  0  0  0
   46.6472   12.6753  -10.4888 C   0  0  0  0  0  0  0  0  0  0  0  0
   45.6205   12.7865   -9.5401 C   0  0  0  0  0  0  0  0  0  0  0  0
   45.8990   12.6568   -8.2247 F   0  0  0  0  0  0  0  0  0  0  0  0
   44.3320   13.0249   -9.9343 C   0  0  0  0  0  0  0  0  0  0  0  0
   44.0813   13.1499  -11.2870 C   0  0  0  0  0  0  0  0  0  0  0  0
   45.0524   13.0484  -12.2447 C   0  0  0  0  0  0  0  0  0  0  0  0
   44.5324   13.2409  -13.6310 C   0  0  0  0  0  0  0  0  0  0  0  0
   43.2706   13.1033  -13.8758 N   0  0  0  0  0  0  0  0  0  0  0  0
   42.8126   13.2987  -15.1035 C   0  0  0  0  0  0  0  0  0  0  0  0
   44.2358   13.6976  -15.9640 S   0  0  0  0  0  0  0  0  0  0  0  0
   45.3548   13.5896  -14.6781 C   0  0  0  0  0  0  0  0  0  0  0  0
   41.4200   13.1756  -15.5969 C   0  0  0  0  0  0  0  0  0  0  0  0
   41.2201   12.9663  -16.9604 N   0  0  0  0  0  0  0  0  0  0  0  0
   40.4744   13.2722  -14.7347 O   0  0  0  0  0  0  0  0  0  0  0  0
   41.7211   12.2083  -17.4541 H   0  0  0  0  0  0  0  0  0  0  0  0
   40.5712   13.5725  -17.4921 H   0  0  0  0  0  0  0  0  0  0  0  0
   48.5515   15.5169  -14.5741 C   0  0  0  0  0  0  0  0  0  0  0  0
   47.1498   15.1960  -14.6441 N   0  0  0  0  0  0  0  0  0  0  0  0
   46.4014   16.0206  -13.7858 C   0  0  0  0  0  0  0  0  0  0  0  0
   43.2515   13.1710   -8.9704 C   0  0  0  0  0  0  0  0  0  0  0  0
   42.3804   13.3068   -8.1502 C   0  0  0  0  0  0  0  0  0  0  0  0
   41.3314   13.4989   -7.1240 C   0  0  0  0  0  0  0  0  0  0  0  0
   41.4079   14.8673   -6.4907 C   0  0  0  0  0  0  0  0  0  0  0  0
   40.0907   13.3958   -7.7917 O   0  0  0  0  0  0  0  0  0  0  0  0
   39.7440   12.4761   -7.6303 H   0  0  0  0  0  0  0  0  0  0  0  0
   41.4933   12.3980   -6.1494 C   0  0  0  0  0  0  0  0  0  0  0  0
   40.6268   12.0715   -5.1730 N   0  0  0  0  0  0  0  0  0  0  0  0
   41.1020   11.0467   -4.5011 O   0  0  0  0  0  0  0  0  0  0  0  0
   42.2513   10.6789   -4.9931 C   0  0  0  0  0  0  0  0  0  0  0  0
   43.1069    9.5673   -4.5184 C   0  0  0  0  0  0  0  0  0  0  0  0
   42.5057   11.5267   -6.0343 N   0  0  0  0  0  0  0  0  0  0  0  0
 21 22  1  0  0  0
 22 23  1  0  0  0
 22  1  1  0  0  0
  1  2  1  0  0  0
  2  3  1  0  0  0
  3  4  1  0  0  0
  4  5  2  0  0  0
  5  6  1  0  0  0
  6  7  1  0  0  0
  6  8  2  0  0  0
  8  9  1  0  0  0
  9 10  2  0  0  0
 10 11  1  0  0  0
 11 12  1  0  0  0
 12 13  2  0  0  0
 13 14  1  0  0  0
 14 15  1  0  0  0
 13 16  1  0  0  0
 16 17  1  0  0  0
 16 18  2  0  0  0
  8 24  1  0  0  0
 24 25  3  0  0  0
 26 25  1  0  0  0
 26 27  1  0  0  0
 26 28  1  0  0  0
 26 30  1  0  0  0
 30 31  2  0  0  0
 31 32  1  0  0  0
 32 33  1  0  0  0
 33 34  1  0  0  0
 33 35  2  0  0  0
 15  1  1  0  0  0
 35 30  1  0  0  0
 10  4  1  0  0  0
 15 11  2  0  0  0
 17 19  1  0  0  0
 17 20  1  0  0  0
 28 29  1  0  0  0
M  END
> <minimizedAffinity>
-6.70254

> <CNNscore>
0.0910449177

> <CNNaffinity>
5.4101152420

> <CNN_VS>
0.4925634861

> <CNNaffinity_variance>
0.1116006374

$$$$
[H]O[C@](C#Cc1c([H])c2c(c([H])c1F)OC([H])([H])[C@]([H])(N(C([H])([H])[H])C([H])([H])[H])c1sc(C(=O)N([H])[H])nc1-2)(c1noc(C([H])([H])[H])n1)C([H])([H])[H]


 35 38  0  0  0  0  0  0  0  0999 V2000
   45.9900   14.4963  -14.0091 C   0  0  0  0  0  0  0  0  0  0  0  0
   46.4101   14.1617  -12.6284 C   0  0  0  0  0  0  0  0  0  0  0  0
   45.6832   14.6641  -11.5695 O   0  0  0  0  0  0  0  0  0  0  0  0
   44.3679   15.0240  -11.3805 C   0  0  0  0  0  0  0  0  0  0  0  0
   44.1236   15.6286  -10.1587 C   0  0  0  0  0  0  0  0  0  0  0  0
   42.8216   16.0446   -9.8453 C   0  0  0  0  0  0  0  0  0  0  0  0
   42.5684   16.6344   -8.6567 F   0  0  0  0  0  0  0  0  0  0  0  0
   41.7985   15.8575  -10.7345 C   0  0  0  0  0  0  0  0  0  0  0  0
   42.0913   15.2491  -11.9398 C   0  0  0  0  0  0  0  0  0  0  0  0
   43.3461   14.8286  -12.2850 C   0  0  0  0  0  0  0  0  0  0  0  0
   43.4076   14.2206  -13.6473 C   0  0  0  0  0  0  0  0  0  0  0  0
   42.3288   13.7917  -14.2159 N   0  0  0  0  0  0  0  0  0  0  0  0
   42.3870   13.2749  -15.4344 C   0  0  0  0  0  0  0  0  0  0  0  0
   44.0527   13.3974  -15.8026 S   0  0  0  0  0  0  0  0  0  0  0  0
   44.5872   14.1168  -14.3487 C   0  0  0  0  0  0  0  0  0  0  0  0
   41.2834   12.7143  -16.2502 C   0  0  0  0  0  0  0  0  0  0  0  0
   41.5925   12.1849  -17.5020 N   0  0  0  0  0  0  0  0  0  0  0  0
   40.1005   12.7521  -15.7540 O   0  0  0  0  0  0  0  0  0  0  0  0
   42.3495   11.4879  -17.6048 H   0  0  0  0  0  0  0  0  0  0  0  0
   41.0694   12.4896  -18.3416 H   0  0  0  0  0  0  0  0  0  0  0  0
   47.7324   16.0936  -14.5467 C   0  0  0  0  0  0  0  0  0  0  0  0
   46.3294   15.7723  -14.5161 N   0  0  0  0  0  0  0  0  0  0  0  0
   45.5640   16.8945  -14.1536 C   0  0  0  0  0  0  0  0  0  0  0  0
   40.4432   16.3028  -10.4466 C   0  0  0  0  0  0  0  0  0  0  0  0
   39.3102   16.6385  -10.2156 C   0  0  0  0  0  0  0  0  0  0  0  0
   37.9079   17.0148   -9.9289 C   0  0  0  0  0  0  0  0  0  0  0  0
   37.8166   18.3390   -9.2094 C   0  0  0  0  0  0  0  0  0  0  0  0
   37.2637   17.1520  -11.1788 O   0  0  0  0  0  0  0  0  0  0  0  0
   36.7536   16.3122  -11.3418 H   0  0  0  0  0  0  0  0  0  0  0  0
   37.3232   15.8945   -9.1600 C   0  0  0  0  0  0  0  0  0  0  0  0
   36.2218   15.1962   -9.4921 N   0  0  0  0  0  0  0  0  0  0  0  0
   35.9990   14.2822   -8.5743 O   0  0  0  0  0  0  0  0  0  0  0  0
   36.9099   14.3456   -7.6445 C   0  0  0  0  0  0  0  0  0  0  0  0
   37.0117   13.4900   -6.4401 C   0  0  0  0  0  0  0  0  0  0  0  0
   37.7500   15.3608   -8.0066 N   0  0  0  0  0  0  0  0  0  0  0  0
 21 22  1  0  0  0
 22 23  1  0  0  0
 22  1  1  0  0  0
  1  2  1  0  0  0
  2  3  1  0  0  0
  3  4  1  0  0  0
  4  5  2  0  0  0
  5  6  1  0  0  0
  6  7  1  0  0  0
  6  8  2  0  0  0
  8  9  1  0  0  0
  9 10  2  0  0  0
 10 11  1  0  0  0
 11 12  1  0  0  0
 12 13  2  0  0  0
 13 14  1  0  0  0
 14 15  1  0  0  0
 13 16  1  0  0  0
 16 17  1  0  0  0
 16 18  2  0  0  0
  8 24  1  0  0  0
 24 25  3  0  0  0
 26 25  1  0  0  0
 26 27  1  0  0  0
 26 28  1  0  0  0
 26 30  1  0  0  0
 30 31  2  0  0  0
 31 32  1  0  0  0
 32 33  1  0  0  0
 33 34  1  0  0  0
 33 35  2  0  0  0
 15  1  1  0  0  0
 35 30  1  0  0  0
 10  4  1  0  0  0
 15 11  2  0  0  0
 17 19  1  0  0  0
 17 20  1  0  0  0
 28 29  1  0  0  0
M  END
> <minimizedAffinity>
-7.45085

> <CNNscore>
0.0760950595

> <CNNaffinity>
5.4741945267

> <CNN_VS>
0.4165591598

> <CNNaffinity_variance>
0.1726138145

$$$$
[H]O[C@](C#Cc1c([H])c2c(c([H])c1F)OC([H])([H])[C@]([H])(N(C([H])([H])[H])C([H])([H])[H])c1sc(C(=O)N([H])[H])nc1-2)(c1noc(C([H])([H])[H])n1)C([H])([H])[H]


 35 38  0  0  0  0  0  0  0  0999 V2000
   44.3770   14.1264  -13.1582 C   0  0  0  0  0  0  0  0  0  0  0  0
   44.8022   14.2508  -14.5718 C   0  0  0  0  0  0  0  0  0  0  0  0
   44.0626   13.6184  -15.5492 O   0  0  0  0  0  0  0  0  0  0  0  0
   42.7394   13.2646  -15.6869 C   0  0  0  0  0  0  0  0  0  0  0  0
   42.4797   12.4970  -16.8101 C   0  0  0  0  0  0  0  0  0  0  0  0
   41.1683   12.0696  -17.0629 C   0  0  0  0  0  0  0  0  0  0  0  0
   40.9001   11.3216  -18.1554 F   0  0  0  0  0  0  0  0  0  0  0  0
   40.1511   12.4046  -16.2112 C   0  0  0  0  0  0  0  0  0  0  0  0
   40.4592   13.1723  -15.1048 C   0  0  0  0  0  0  0  0  0  0  0  0
   41.7236   13.6100  -14.8212 C   0  0  0  0  0  0  0  0  0  0  0  0
   41.8007   14.4049  -13.5597 C   0  0  0  0  0  0  0  0  0  0  0  0
   40.7326   14.9345  -13.0600 N   0  0  0  0  0  0  0  0  0  0  0  0
   40.8043   15.6188  -11.9279 C   0  0  0  0  0  0  0  0  0  0  0  0
   42.4674   15.5133  -11.5432 S   0  0  0  0  0  0  0  0  0  0  0  0
   42.9835   14.5817  -12.8785 C   0  0  0  0  0  0  0  0  0  0  0  0
   39.7147   16.3147  -11.2023 C   0  0  0  0  0  0  0  0  0  0  0  0
   40.0318   16.9835  -10.0212 N   0  0  0  0  0  0  0  0  0  0  0  0
   38.5358   16.2578  -11.7061 O   0  0  0  0  0  0  0  0  0  0  0  0
   40.8129   17.6606   -9.9948 H   0  0  0  0  0  0  0  0  0  0  0  0
   39.4902   16.8036   -9.1577 H   0  0  0  0  0  0  0  0  0  0  0  0
   44.1863   12.8138  -11.1291 C   0  0  0  0  0  0  0  0  0  0  0  0
   44.6887   12.9288  -12.4734 N   0  0  0  0  0  0  0  0  0  0  0  0
   45.9790   12.3801  -12.5769 C   0  0  0  0  0  0  0  0  0  0  0  0
   38.7858   11.9529  -16.4347 C   0  0  0  0  0  0  0  0  0  0  0  0
   37.6583   11.5909  -16.6531 C   0  0  0  0  0  0  0  0  0  0  0  0
   36.2795   11.1484  -16.9585 C   0  0  0  0  0  0  0  0  0  0  0  0
   35.8447   11.5756  -18.3398 C   0  0  0  0  0  0  0  0  0  0  0  0
   36.2921    9.7361  -16.9223 O   0  0  0  0  0  0  0  0  0  0  0  0
   35.9288    9.4602  -16.0370 H   0  0  0  0  0  0  0  0  0  0  0  0
   35.4186   11.6908  -15.8849 C   0  0  0  0  0  0  0  0  0  0  0  0
   34.1251   11.3838  -15.6764 N   0  0  0  0  0  0  0  0  0  0  0  0
   33.6847   12.0590  -14.6383 O   0  0  0  0  0  0  0  0  0  0  0  0
   34.6356   12.8032  -14.1481 C   0  0  0  0  0  0  0  0  0  0  0  0
   34.5425   13.7102  -12.9812 C   0  0  0  0  0  0  0  0  0  0  0  0
   35.7339   12.5766  -14.9292 N   0  0  0  0  0  0  0  0  0  0  0  0
 21 22  1  0  0  0
 22 23  1  0  0  0
 22  1  1  0  0  0
  1  2  1  0  0  0
  2  3  1  0  0  0
  3  4  1  0  0  0
  4  5  2  0  0  0
  5  6  1  0  0  0
  6  7  1  0  0  0
  6  8  2  0  0  0
  8  9  1  0  0  0
  9 10  2  0  0  0
 10 11  1  0  0  0
 11 12  1  0  0  0
 12 13  2  0  0  0
 13 14  1  0  0  0
 14 15  1  0  0  0
 13 16  1  0  0  0
 16 17  1  0  0  0
 16 18  2  0  0  0
  8 24  1  0  0  0
 24 25  3  0  0  0
 26 25  1  0  0  0
 26 27  1  0  0  0
 26 28  1  0  0  0
 26 30  1  0  0  0
 30 31  2  0  0  0
 31 32  1  0  0  0
 32 33  1  0  0  0
 33 34  1  0  0  0
 33 35  2  0  0  0
 15  1  1  0  0  0
 35 30  1  0  0  0
 10  4  1  0  0  0
 15 11  2  0  0  0
 17 19  1  0  0  0
 17 20  1  0  0  0
 28 29  1  0  0  0
M  END
> <minimizedAffinity>
-8.41976

> <CNNscore>
0.0742135718

> <CNNaffinity>
6.3895111084

> <CNN_VS>
0.4741884470

> <CNNaffinity_variance>
0.2348457575

$$$$
[H]O[C@](C#Cc1c([H])c([H])c2c(c1[H])-c1nc(C(=O)N([H])[H])n(C([H])([H])[H])c1C1([H])C([H])([H])C2([H])C1([H])[H])(c1noc(C([H])([H])[H])n1)C([H])([H])[H]


 33 37  0  0  0  0  0  0  0  0999 V2000
   35.6976   13.3086  -13.3486 C   0  0  0  0  0  0  0  0  0  0  0  0
   34.5094   12.6608  -13.7882 C   0  0  0  0  0  0  0  0  0  0  0  0
   34.4796   11.8622  -14.8946 C   0  0  0  0  0  0  0  0  0  0  0  0
   35.6485   11.7135  -15.5637 C   0  0  0  0  0  0  0  0  0  0  0  0
   35.4383   10.8461  -16.7744 C   0  0  0  0  0  0  0  0  0  0  0  0
   36.5816    9.9021  -17.0271 C   0  0  0  0  0  0  0  0  0  0  0  0
   37.2558   10.9366  -17.9661 C   0  0  0  0  0  0  0  0  0  0  0  0
   35.9461   11.6529  -17.9910 C   0  0  0  0  0  0  0  0  0  0  0  0
   38.3143   11.6170  -17.1441 C   0  0  0  0  0  0  0  0  0  0  0  0
   38.1324   12.1901  -15.8756 C   0  0  0  0  0  0  0  0  0  0  0  0
   39.3517   12.5796  -15.4758 N   0  0  0  0  0  0  0  0  0  0  0  0
   40.2700   12.2911  -16.4134 C   0  0  0  0  0  0  0  0  0  0  0  0
   39.5955   11.6900  -17.4473 N   0  0  0  0  0  0  0  0  0  0  0  0
   40.2114   11.2287  -18.6624 C   0  0  0  0  0  0  0  0  0  0  0  0
   36.8479   12.3200  -15.1861 C   0  0  0  0  0  0  0  0  0  0  0  0
   36.8356   13.1245  -14.0557 C   0  0  0  0  0  0  0  0  0  0  0  0
   41.7155   12.4113  -16.4260 C   0  0  0  0  0  0  0  0  0  0  0  0
   42.4825   11.9783  -17.5361 N   0  0  0  0  0  0  0  0  0  0  0  0
   42.3226   12.9229  -15.4334 O   0  0  0  0  0  0  0  0  0  0  0  0
   43.4536   11.6343  -17.4473 H   0  0  0  0  0  0  0  0  0  0  0  0
   42.1092   11.9944  -18.5216 H   0  0  0  0  0  0  0  0  0  0  0  0
   35.6051   14.8350  -11.1703 C   0  0  0  0  0  0  0  0  0  0  0  0
   35.6025   14.1328  -12.1799 C   0  0  0  0  0  0  0  0  0  0  0  0
   35.7270   15.6548   -9.9863 C   0  0  0  0  0  0  0  0  0  0  0  0
   36.5672   16.9249  -10.3336 C   0  0  0  0  0  0  0  0  0  0  0  0
   34.4568   16.2026   -9.6718 O   0  0  0  0  0  0  0  0  0  0  0  0
   34.0970   16.4872  -10.5396 H   0  0  0  0  0  0  0  0  0  0  0  0
   38.7994   13.7990   -6.4208 C   0  0  0  0  0  0  0  0  0  0  0  0
   37.6240   14.1418   -7.3082 C   0  0  0  0  0  0  0  0  0  0  0  0
   37.5611   15.0089   -8.3212 N   0  0  0  0  0  0  0  0  0  0  0  0
   36.3291   14.9988   -8.8484 C   0  0  0  0  0  0  0  0  0  0  0  0
   35.6476   14.0742   -8.0871 N   0  0  0  0  0  0  0  0  0  0  0  0
   36.4420   13.5927   -7.1899 O   0  0  0  0  0  0  0  0  0  0  0  0
 28 29  1  0  0  0
 29 30  2  0  0  0
 30 31  1  0  0  0
 31 32  2  0  0  0
 32 33  1  0  0  0
 31 24  1  0  0  0
 24 25  1  0  0  0
 24 26  1  0  0  0
 24 22  1  0  0  0
 22 23  3  0  0  0
 23  1  1  0  0  0
  1  2  2  0  0  0
  2  3  1  0  0  0
  3  4  2  0  0  0
  4  5  1  0  0  0
  5  6  1  0  0  0
  6  7  1  0  0  0
  7  8  1  0  0  0
  7  9  1  0  0  0
  9 10  2  0  0  0
 10 11  1  0  0  0
 11 12  2  0  0  0
 12 17  1  0  0  0
 17 18  1  0  0  0
 17 19  2  0  0  0
 12 13  1  0  0  0
 13 14  1  0  0  0
 10 15  1  0  0  0
 15 16  2  0  0  0
 33 29  1  0  0  0
 16  1  1  0  0  0
 15  4  1  0  0  0
  8  5  1  0  0  0
 13  9  1  0  0  0
 26 27  1  0  0  0
 18 20  1  0  0  0
 18 21  1  0  0  0
M  END
> <minimizedAffinity>
-8.96558

> <CNNscore>
0.3826830983

> <CNNaffinity>
7.0908575058

> <CNN_VS>
2.7135512829

> <CNNaffinity_variance>
0.0882645398

$$$$
[H]O[C@](C#Cc1c([H])c([H])c2c(c1[H])-c1nc(C(=O)N([H])[H])n(C([H])([H])[H])c1C1([H])C([H])([H])C2([H])C1([H])[H])(c1noc(C([H])([H])[H])n1)C([H])([H])[H]


 33 37  0  0  0  0  0  0  0  0999 V2000
   35.7422   13.3086  -13.5018 C   0  0  0  0  0  0  0  0  0  0  0  0
   34.5779   12.6289  -13.9567 C   0  0  0  0  0  0  0  0  0  0  0  0
   34.5887   11.8147  -15.0521 C   0  0  0  0  0  0  0  0  0  0  0  0
   35.7743   11.6825  -15.6946 C   0  0  0  0  0  0  0  0  0  0  0  0
   35.6085   10.7941  -16.8969 C   0  0  0  0  0  0  0  0  0  0  0  0
   36.7771    9.8721  -17.1125 C   0  0  0  0  0  0  0  0  0  0  0  0
   37.4483   10.9081  -18.0519 C   0  0  0  0  0  0  0  0  0  0  0  0
   36.1242   11.5951  -18.1141 C   0  0  0  0  0  0  0  0  0  0  0  0
   38.4742   11.6229  -17.2179 C   0  0  0  0  0  0  0  0  0  0  0  0
   38.2534   12.2093  -15.9616 C   0  0  0  0  0  0  0  0  0  0  0  0
   39.4552   12.6309  -15.5422 N   0  0  0  0  0  0  0  0  0  0  0  0
   40.3991   12.3499  -16.4564 C   0  0  0  0  0  0  0  0  0  0  0  0
   39.7597   11.7199  -17.4954 N   0  0  0  0  0  0  0  0  0  0  0  0
   40.4108   11.2556  -18.6909 C   0  0  0  0  0  0  0  0  0  0  0  0
   36.9521   12.3203  -15.3009 C   0  0  0  0  0  0  0  0  0  0  0  0
   36.8986   13.1398  -14.1825 C   0  0  0  0  0  0  0  0  0  0  0  0
   41.8416   12.5016  -16.4407 C   0  0  0  0  0  0  0  0  0  0  0  0
   42.6494   11.9858  -17.4846 N   0  0  0  0  0  0  0  0  0  0  0  0
   42.4088   13.1164  -15.4837 O   0  0  0  0  0  0  0  0  0  0  0  0
   43.6243   11.6740  -17.3378 H   0  0  0  0  0  0  0  0  0  0  0  0
   42.3048   11.9025  -18.4771 H   0  0  0  0  0  0  0  0  0  0  0  0
   35.4979   14.7964  -11.3086 C   0  0  0  0  0  0  0  0  0  0  0  0
   35.6046   14.1465  -12.3472 C   0  0  0  0  0  0  0  0  0  0  0  0
   35.3969   15.4601  -10.0287 C   0  0  0  0  0  0  0  0  0  0  0  0
   33.9248   15.9395   -9.8214 C   0  0  0  0  0  0  0  0  0  0  0  0
   35.5559   14.4994   -8.9972 O   0  0  0  0  0  0  0  0  0  0  0  0
   35.0194   13.7342   -9.2975 H   0  0  0  0  0  0  0  0  0  0  0  0
   37.8194   19.6398   -8.5262 C   0  0  0  0  0  0  0  0  0  0  0  0
   37.3343   18.4141   -9.2671 C   0  0  0  0  0  0  0  0  0  0  0  0
   36.4174   17.5172   -8.8972 N   0  0  0  0  0  0  0  0  0  0  0  0
   36.2802   16.5902   -9.8552 C   0  0  0  0  0  0  0  0  0  0  0  0
   37.1761   16.9794  -10.8272 N   0  0  0  0  0  0  0  0  0  0  0  0
   37.7789   18.0555  -10.4446 O   0  0  0  0  0  0  0  0  0  0  0  0
 28 29  1  0  0  0
 29 30  2  0  0  0
 30 31  1  0  0  0
 31 32  2  0  0  0
 32 33  1  0  0  0
 31 24  1  0  0  0
 24 25  1  0  0  0
 24 26  1  0  0  0
 24 22  1  0  0  0
 22 23  3  0  0  0
 23  1  1  0  0  0
  1  2  2  0  0  0
  2  3  1  0  0  0
  3  4  2  0  0  0
  4  5  1  0  0  0
  5  6  1  0  0  0
  6  7  1  0  0  0
  7  8  1  0  0  0
  7  9  1  0  0  0
  9 10  2  0  0  0
 10 11  1  0  0  0
 11 12  2  0  0  0
 12 17  1  0  0  0
 17 18  1  0  0  0
 17 19  2  0  0  0
 12 13  1  0  0  0
 13 14  1  0  0  0
 10 15  1  0  0  0
 15 16  2  0  0  0
 33 29  1  0  0  0
 16  1  1  0  0  0
 15  4  1  0  0  0
  8  5  1  0  0  0
 13  9  1  0  0  0
 26 27  1  0  0  0
 18 20  1  0  0  0
 18 21  1  0  0  0
M  END
> <minimizedAffinity>
-9.33549

> <CNNscore>
0.3686858714

> <CNNaffinity>
7.0848898888

> <CNN_VS>
2.6120986938

> <CNNaffinity_variance>
0.1645566672

$$$$
[H]O[C@](C#Cc1c([H])c([H])c2c(c1[H])-c1nc(C(=O)N([H])[H])n(C([H])([H])[H])c1C1([H])C([H])([H])C2([H])C1([H])[H])(c1noc(C([H])([H])[H])n1)C([H])([H])[H]


 33 37  0  0  0  0  0  0  0  0999 V2000
   41.8719   13.7237  -14.4166 C   0  0  0  0  0  0  0  0  0  0  0  0
   42.6867   13.2500  -15.4827 C   0  0  0  0  0  0  0  0  0  0  0  0
   42.1701   12.5857  -16.5572 C   0  0  0  0  0  0  0  0  0  0  0  0
   40.8286   12.3953  -16.5615 C   0  0  0  0  0  0  0  0  0  0  0  0
   40.4265   11.6147  -17.7828 C   0  0  0  0  0  0  0  0  0  0  0  0
   39.1339   12.0915  -18.3861 C   0  0  0  0  0  0  0  0  0  0  0  0
   38.3365   11.0606  -17.5448 C   0  0  0  0  0  0  0  0  0  0  0  0
   39.6401   10.3821  -17.2817 C   0  0  0  0  0  0  0  0  0  0  0  0
   37.7883   11.8185  -16.3684 C   0  0  0  0  0  0  0  0  0  0  0  0
   38.5219   12.6517  -15.5090 C   0  0  0  0  0  0  0  0  0  0  0  0
   37.6215   13.2003  -14.6804 N   0  0  0  0  0  0  0  0  0  0  0  0
   36.3856   12.7574  -14.9668 C   0  0  0  0  0  0  0  0  0  0  0  0
   36.5171   11.8938  -16.0261 N   0  0  0  0  0  0  0  0  0  0  0  0
   35.4254   11.1887  -16.6423 C   0  0  0  0  0  0  0  0  0  0  0  0
   39.9735   12.8340  -15.5489 C   0  0  0  0  0  0  0  0  0  0  0  0
   40.5385   13.5049  -14.4737 C   0  0  0  0  0  0  0  0  0  0  0  0
   35.0807   13.1157  -14.4444 C   0  0  0  0  0  0  0  0  0  0  0  0
   34.5495   14.4184  -14.6154 N   0  0  0  0  0  0  0  0  0  0  0  0
   34.3809   12.2528  -13.8270 O   0  0  0  0  0  0  0  0  0  0  0  0
   33.8945   14.8500  -13.9417 H   0  0  0  0  0  0  0  0  0  0  0  0
   34.7830   15.0188  -15.4495 H   0  0  0  0  0  0  0  0  0  0  0  0
   43.1607   14.9862  -12.4601 C   0  0  0  0  0  0  0  0  0  0  0  0
   42.5300   14.3964  -13.3358 C   0  0  0  0  0  0  0  0  0  0  0  0
   43.9862   15.6995  -11.5122 C   0  0  0  0  0  0  0  0  0  0  0  0
   43.0880   16.2076  -10.3397 C   0  0  0  0  0  0  0  0  0  0  0  0
   44.8463   14.7766  -10.8635 O   0  0  0  0  0  0  0  0  0  0  0  0
   44.2682   14.0083  -10.6660 H   0  0  0  0  0  0  0  0  0  0  0  0
   47.2519   19.4161  -12.5699 C   0  0  0  0  0  0  0  0  0  0  0  0
   46.0749   18.4677  -12.5295 C   0  0  0  0  0  0  0  0  0  0  0  0
   45.9106   17.3636  -11.7974 N   0  0  0  0  0  0  0  0  0  0  0  0
   44.7127   16.8227  -12.0586 C   0  0  0  0  0  0  0  0  0  0  0  0
   44.1633   17.6663  -12.9995 N   0  0  0  0  0  0  0  0  0  0  0  0
   44.9950   18.6213  -13.2526 O   0  0  0  0  0  0  0  0  0  0  0  0
 28 29  1  0  0  0
 29 30  2  0  0  0
 30 31  1  0  0  0
 31 32  2  0  0  0
 32 33  1  0  0  0
 31 24  1  0  0  0
 24 25  1  0  0  0
 24 26  1  0  0  0
 24 22  1  0  0  0
 22 23  3  0  0  0
 23  1  1  0  0  0
  1  2  2  0  0  0
  2  3  1  0  0  0
  3  4  2  0  0  0
  4  5  1  0  0  0
  5  6  1  0  0  0
  6  7  1  0  0  0
  7  8  1  0  0  0
  7  9  1  0  0  0
  9 10  2  0  0  0
 10 11  1  0  0  0
 11 12  2  0  0  0
 12 17  1  0  0  0
 17 18  1  0  0  0
 17 19  2  0  0  0
 12 13  1  0  0  0
 13 14  1  0  0  0
 10 15  1  0  0  0
 15 16  2  0  0  0
 33 29  1  0  0  0
 16  1  1  0  0  0
 15  4  1  0  0  0
  8  5  1  0  0  0
 13  9  1  0  0  0
 26 27  1  0  0  0
 18 20  1  0  0  0
 18 21  1  0  0  0
M  END
> <minimizedAffinity>
-8.75652

> <CNNscore>
0.2989423275

> <CNNaffinity>
6.7442636490

> <CNN_VS>
2.0161459446

> <CNNaffinity_variance>
0.2320754528

$$$$
[H]O[C@](C#Cc1c([H])c([H])c2c(c1[H])-c1nc(C(=O)N([H])[H])n(C([H])([H])[H])c1C1([H])C([H])([H])C2([H])C1([H])[H])(c1noc(C([H])([H])[H])n1)C([H])([H])[H]


 33 37  0  0  0  0  0  0  0  0999 V2000
   35.6692   13.4160  -13.3108 C   0  0  0  0  0  0  0  0  0  0  0  0
   34.4890   12.7501  -13.7448 C   0  0  0  0  0  0  0  0  0  0  0  0
   34.4710   11.9347  -14.8392 C   0  0  0  0  0  0  0  0  0  0  0  0
   35.6437   11.7873  -15.5018 C   0  0  0  0  0  0  0  0  0  0  0  0
   35.4463   10.8997  -16.7000 C   0  0  0  0  0  0  0  0  0  0  0  0
   36.5998    9.9632  -16.9344 C   0  0  0  0  0  0  0  0  0  0  0  0
   37.2672   10.9900  -17.8865 C   0  0  0  0  0  0  0  0  0  0  0  0
   35.9508   11.6930  -17.9269 C   0  0  0  0  0  0  0  0  0  0  0  0
   38.3161   11.6930  -17.0712 C   0  0  0  0  0  0  0  0  0  0  0  0
   38.1240   12.2834  -15.8121 C   0  0  0  0  0  0  0  0  0  0  0  0
   39.3380   12.6907  -15.4139 N   0  0  0  0  0  0  0  0  0  0  0  0
   40.2625   12.3971  -16.3438 C   0  0  0  0  0  0  0  0  0  0  0  0
   39.5976   11.7739  -17.3709 N   0  0  0  0  0  0  0  0  0  0  0  0
   40.2224   11.3004  -18.5768 C   0  0  0  0  0  0  0  0  0  0  0  0
   36.8358   12.4110  -15.1292 C   0  0  0  0  0  0  0  0  0  0  0  0
   36.8115   13.2323  -14.0111 C   0  0  0  0  0  0  0  0  0  0  0  0
   41.7068   12.5312  -16.3531 C   0  0  0  0  0  0  0  0  0  0  0  0
   42.4847   12.0619  -17.4408 N   0  0  0  0  0  0  0  0  0  0  0  0
   42.3029   13.0881  -15.3784 O   0  0  0  0  0  0  0  0  0  0  0  0
   43.4585   11.7315  -17.3328 H   0  0  0  0  0  0  0  0  0  0  0  0
   42.1171   12.0349  -18.4282 H   0  0  0  0  0  0  0  0  0  0  0  0
   35.3891   14.9526  -11.1560 C   0  0  0  0  0  0  0  0  0  0  0  0
   35.5618   14.2567  -12.1551 C   0  0  0  0  0  0  0  0  0  0  0  0
   35.0771   15.7238   -9.9741 C   0  0  0  0  0  0  0  0  0  0  0  0
   35.7310   15.0364   -8.7333 C   0  0  0  0  0  0  0  0  0  0  0  0
   35.7644   16.9631  -10.0373 O   0  0  0  0  0  0  0  0  0  0  0  0
   36.6624   16.7233  -10.3528 H   0  0  0  0  0  0  0  0  0  0  0  0
   30.4684   16.3259   -7.9755 C   0  0  0  0  0  0  0  0  0  0  0  0
   31.6509   16.1217   -8.8956 C   0  0  0  0  0  0  0  0  0  0  0  0
   32.9538   16.1377   -8.6053 N   0  0  0  0  0  0  0  0  0  0  0  0
   33.6667   15.9010   -9.7150 C   0  0  0  0  0  0  0  0  0  0  0  0
   32.7133   15.7455  -10.6976 N   0  0  0  0  0  0  0  0  0  0  0  0
   31.5393   15.8841  -10.1778 O   0  0  0  0  0  0  0  0  0  0  0  0
 28 29  1  0  0  0
 29 30  2  0  0  0
 30 31  1  0  0  0
 31 32  2  0  0  0
 32 33  1  0  0  0
 31 24  1  0  0  0
 24 25  1  0  0  0
 24 26  1  0  0  0
 24 22  1  0  0  0
 22 23  3  0  0  0
 23  1  1  0  0  0
  1  2  2  0  0  0
  2  3  1  0  0  0
  3  4  2  0  0  0
  4  5  1  0  0  0
  5  6  1  0  0  0
  6  7  1  0  0  0
  7  8  1  0  0  0
  7  9  1  0  0  0
  9 10  2  0  0  0
 10 11  1  0  0  0
 11 12  2  0  0  0
 12 17  1  0  0  0
 17 18  1  0  0  0
 17 19  2  0  0  0
 12 13  1  0  0  0
 13 14  1  0  0  0
 10 15  1  0  0  0
 15 16  2  0  0  0
 33 29  1  0  0  0
 16  1  1  0  0  0
 15  4  1  0  0  0
  8  5  1  0  0  0
 13  9  1  0  0  0
 26 27  1  0  0  0
 18 20  1  0  0  0
 18 21  1  0  0  0
M  END
> <minimizedAffinity>
-8.84142

> <CNNscore>
0.2875590026

> <CNNaffinity>
6.8495931625

> <CNN_VS>
1.9696621895

> <CNNaffinity_variance>
0.1524304897

$$$$
[H]O[C@](C#Cc1c([H])c([H])c2c(c1[H])-c1nc(C(=O)N([H])[H])n(C([H])([H])[H])c1C1([H])C([H])([H])C2([H])C1([H])[H])(c1noc(C([H])([H])[H])n1)C([H])([H])[H]


 33 37  0  0  0  0  0  0  0  0999 V2000
   35.6291   14.4467  -12.9249 C   0  0  0  0  0  0  0  0  0  0  0  0
   34.2868   13.9978  -12.7788 C   0  0  0  0  0  0  0  0  0  0  0  0
   33.7523   13.0233  -13.5709 C   0  0  0  0  0  0  0  0  0  0  0  0
   34.5693   12.4968  -14.5150 C   0  0  0  0  0  0  0  0  0  0  0  0
   33.8215   11.4749  -15.3267 C   0  0  0  0  0  0  0  0  0  0  0  0
   34.6583   10.2752  -15.6769 C   0  0  0  0  0  0  0  0  0  0  0  0
   35.0805   10.9343  -17.0161 C   0  0  0  0  0  0  0  0  0  0  0  0
   33.9594   11.8977  -16.8070 C   0  0  0  0  0  0  0  0  0  0  0  0
   36.4457   11.5175  -16.7808 C   0  0  0  0  0  0  0  0  0  0  0  0
   36.8130   12.3540  -15.7149 C   0  0  0  0  0  0  0  0  0  0  0  0
   38.1350   12.5412  -15.8403 N   0  0  0  0  0  0  0  0  0  0  0  0
   38.6050   11.8826  -16.9131 C   0  0  0  0  0  0  0  0  0  0  0  0
   37.5283   11.2506  -17.4846 N   0  0  0  0  0  0  0  0  0  0  0  0
   37.5958   10.4375  -18.6691 C   0  0  0  0  0  0  0  0  0  0  0  0
   35.8941   12.8915  -14.7105 C   0  0  0  0  0  0  0  0  0  0  0  0
   36.3992   13.8855  -13.8847 C   0  0  0  0  0  0  0  0  0  0  0  0
   39.9505   11.6824  -17.4166 C   0  0  0  0  0  0  0  0  0  0  0  0
   40.1926   10.9463  -18.6031 N   0  0  0  0  0  0  0  0  0  0  0  0
   40.9441   12.1793  -16.7991 O   0  0  0  0  0  0  0  0  0  0  0  0
   41.0644   10.4145  -18.7654 H   0  0  0  0  0  0  0  0  0  0  0  0
   39.4998   10.9095  -19.3965 H   0  0  0  0  0  0  0  0  0  0  0  0
   36.4887   16.3156  -11.2363 C   0  0  0  0  0  0  0  0  0  0  0  0
   36.0742   15.4849  -12.0429 C   0  0  0  0  0  0  0  0  0  0  0  0
   37.0253   17.2017  -10.2284 C   0  0  0  0  0  0  0  0  0  0  0  0
   38.5135   16.8146   -9.9540 C   0  0  0  0  0  0  0  0  0  0  0  0
   37.1422   18.5053  -10.7754 O   0  0  0  0  0  0  0  0  0  0  0  0
   37.5113   18.3566  -11.6727 H   0  0  0  0  0  0  0  0  0  0  0  0
   34.8421   18.3043   -5.7996 C   0  0  0  0  0  0  0  0  0  0  0  0
   35.3838   17.6241   -7.0368 C   0  0  0  0  0  0  0  0  0  0  0  0
   35.9668   18.1681   -8.1073 N   0  0  0  0  0  0  0  0  0  0  0  0
   36.3091   17.2046   -8.9736 C   0  0  0  0  0  0  0  0  0  0  0  0
   35.8919   16.0423   -8.3623 N   0  0  0  0  0  0  0  0  0  0  0  0
   35.3506   16.3295   -7.2255 O   0  0  0  0  0  0  0  0  0  0  0  0
 28 29  1  0  0  0
 29 30  2  0  0  0
 30 31  1  0  0  0
 31 32  2  0  0  0
 32 33  1  0  0  0
 31 24  1  0  0  0
 24 25  1  0  0  0
 24 26  1  0  0  0
 24 22  1  0  0  0
 22 23  3  0  0  0
 23  1  1  0  0  0
  1  2  2  0  0  0
  2  3  1  0  0  0
  3  4  2  0  0  0
  4  5  1  0  0  0
  5  6  1  0  0  0
  6  7  1  0  0  0
  7  8  1  0  0  0
  7  9  1  0  0  0
  9 10  2  0  0  0
 10 11  1  0  0  0
 11 12  2  0  0  0
 12 17  1  0  0  0
 17 18  1  0  0  0
 17 19  2  0  0  0
 12 13  1  0  0  0
 13 14  1  0  0  0
 10 15  1  0  0  0
 15 16  2  0  0  0
 33 29  1  0  0  0
 16  1  1  0  0  0
 15  4  1  0  0  0
  8  5  1  0  0  0
 13  9  1  0  0  0
 26 27  1  0  0  0
 18 20  1  0  0  0
 18 21  1  0  0  0
M  END
> <minimizedAffinity>
-8.16475

> <CNNscore>
0.2871016860

> <CNNaffinity>
6.8243684769

> <CNN_VS>
1.9592876434

> <CNNaffinity_variance>
0.2084034383

$$$$
[H]O[C@](C#Cc1c([H])c([H])c2c(c1[H])-c1nc(C(=O)N([H])[H])n(C([H])([H])[H])c1C1([H])C([H])([H])C2([H])C1([H])[H])(c1noc(C([H])([H])[H])n1)C([H])([H])[H]


 33 37  0  0  0  0  0  0  0  0999 V2000
   41.0032   12.5233  -16.4505 C   0  0  0  0  0  0  0  0  0  0  0  0
   41.0954   11.7686  -17.6532 C   0  0  0  0  0  0  0  0  0  0  0  0
   40.0044   11.1999  -18.2440 C   0  0  0  0  0  0  0  0  0  0  0  0
   38.8146   11.3892  -17.6240 C   0  0  0  0  0  0  0  0  0  0  0  0
   37.7274   10.6671  -18.3717 C   0  0  0  0  0  0  0  0  0  0  0  0
   36.4383   11.4400  -18.4268 C   0  0  0  0  0  0  0  0  0  0  0  0
   35.9345   10.7324  -17.1416 C   0  0  0  0  0  0  0  0  0  0  0  0
   37.0292    9.7392  -17.3515 C   0  0  0  0  0  0  0  0  0  0  0  0
   36.1830   11.6933  -16.0128 C   0  0  0  0  0  0  0  0  0  0  0  0
   37.3938   12.3485  -15.7383 C   0  0  0  0  0  0  0  0  0  0  0  0
   37.1323   13.1821  -14.7210 N   0  0  0  0  0  0  0  0  0  0  0  0
   35.8457   13.0804  -14.3468 C   0  0  0  0  0  0  0  0  0  0  0  0
   35.2736   12.1420  -15.1699 N   0  0  0  0  0  0  0  0  0  0  0  0
   33.8987   11.7259  -15.0984 C   0  0  0  0  0  0  0  0  0  0  0  0
   38.6553   12.1178  -16.4439 C   0  0  0  0  0  0  0  0  0  0  0  0
   39.7894   12.6794  -15.8750 C   0  0  0  0  0  0  0  0  0  0  0  0
   35.0529   13.8222  -13.3850 C   0  0  0  0  0  0  0  0  0  0  0  0
   34.0018   14.6781  -13.7984 N   0  0  0  0  0  0  0  0  0  0  0  0
   35.2851   13.7062  -12.1407 O   0  0  0  0  0  0  0  0  0  0  0  0
   33.7178   15.5165  -13.2639 H   0  0  0  0  0  0  0  0  0  0  0  0
   33.4389   14.5006  -14.6716 H   0  0  0  0  0  0  0  0  0  0  0  0
   43.2964   13.4445  -15.4628 C   0  0  0  0  0  0  0  0  0  0  0  0
   42.2201   13.0613  -15.9177 C   0  0  0  0  0  0  0  0  0  0  0  0
   44.6012   13.7838  -14.9419 C   0  0  0  0  0  0  0  0  0  0  0  0
   45.0531   12.6710  -13.9432 C   0  0  0  0  0  0  0  0  0  0  0  0
   45.5576   13.6696  -15.9833 O   0  0  0  0  0  0  0  0  0  0  0  0
   45.3148   12.8361  -16.4413 H   0  0  0  0  0  0  0  0  0  0  0  0
   45.6275   18.5010  -13.4281 C   0  0  0  0  0  0  0  0  0  0  0  0
   45.1214   17.0821  -13.5597 C   0  0  0  0  0  0  0  0  0  0  0  0
   45.2815   16.2234  -14.5692 N   0  0  0  0  0  0  0  0  0  0  0  0
   44.6790   15.0632  -14.2749 C   0  0  0  0  0  0  0  0  0  0  0  0
   44.1390   15.2749  -13.0250 N   0  0  0  0  0  0  0  0  0  0  0  0
   44.4185   16.4748  -12.6378 O   0  0  0  0  0  0  0  0  0  0  0  0
 28 29  1  0  0  0
 29 30  2  0  0  0
 30 31  1  0  0  0
 31 32  2  0  0  0
 32 33  1  0  0  0
 31 24  1  0  0  0
 24 25  1  0  0  0
 24 26  1  0  0  0
 24 22  1  0  0  0
 22 23  3  0  0  0
 23  1  1  0  0  0
  1  2  2  0  0  0
  2  3  1  0  0  0
  3  4  2  0  0  0
  4  5  1  0  0  0
  5  6  1  0  0  0
  6  7  1  0  0  0
  7  8  1  0  0  0
  7  9  1  0  0  0
  9 10  2  0  0  0
 10 11  1  0  0  0
 11 12  2  0  0  0
 12 17  1  0  0  0
 17 18  1  0  0  0
 17 19  2  0  0  0
 12 13  1  0  0  0
 13 14  1  0  0  0
 10 15  1  0  0  0
 15 16  2  0  0  0
 33 29  1  0  0  0
 16  1  1  0  0  0
 15  4  1  0  0  0
  8  5  1  0  0  0
 13  9  1  0  0  0
 26 27  1  0  0  0
 18 20  1  0  0  0
 18 21  1  0  0  0
M  END
> <minimizedAffinity>
-9.85445

> <CNNscore>
0.2812563181

> <CNNaffinity>
6.9839448929

> <CNN_VS>
1.9642785788

> <CNNaffinity_variance>
0.1601371914

$$$$
[H]O[C@](C#Cc1c([H])c([H])c2c(c1[H])-c1nc(C(=O)N([H])[H])n(C([H])([H])[H])c1C1([H])C([H])([H])C2([H])C1([H])[H])(c1noc(C([H])([H])[H])n1)C([H])([H])[H]


 33 37  0  0  0  0  0  0  0  0999 V2000
   40.9540   12.3628  -16.6575 C   0  0  0  0  0  0  0  0  0  0  0  0
   40.9197   11.6452  -17.8858 C   0  0  0  0  0  0  0  0  0  0  0  0
   39.7633   11.1370  -18.4027 C   0  0  0  0  0  0  0  0  0  0  0  0
   38.6353   11.3496  -17.6827 C   0  0  0  0  0  0  0  0  0  0  0  0
   37.4641   10.6932  -18.3608 C   0  0  0  0  0  0  0  0  0  0  0  0
   36.2063   11.5147  -18.2879 C   0  0  0  0  0  0  0  0  0  0  0  0
   35.7795   10.7842  -16.9877 C   0  0  0  0  0  0  0  0  0  0  0  0
   36.8138    9.7586  -17.3155 C   0  0  0  0  0  0  0  0  0  0  0  0
   36.1553   11.6975  -15.8547 C   0  0  0  0  0  0  0  0  0  0  0  0
   37.4091   12.2981  -15.6600 C   0  0  0  0  0  0  0  0  0  0  0  0
   37.2629   13.1068  -14.6004 N   0  0  0  0  0  0  0  0  0  0  0  0
   36.0074   13.0404  -14.1261 C   0  0  0  0  0  0  0  0  0  0  0  0
   35.3347   12.1515  -14.9277 N   0  0  0  0  0  0  0  0  0  0  0  0
   33.9546   11.7843  -14.7572 C   0  0  0  0  0  0  0  0  0  0  0  0
   38.5999   12.0443  -16.4723 C   0  0  0  0  0  0  0  0  0  0  0  0
   39.7972   12.5446  -15.9809 C   0  0  0  0  0  0  0  0  0  0  0  0
   35.3241   13.7790  -13.0813 C   0  0  0  0  0  0  0  0  0  0  0  0
   34.3568   14.7681  -13.3885 N   0  0  0  0  0  0  0  0  0  0  0  0
   35.5781   13.5397  -11.8591 O   0  0  0  0  0  0  0  0  0  0  0  0
   34.1771   15.5850  -12.7806 H   0  0  0  0  0  0  0  0  0  0  0  0
   33.7539   14.7200  -14.2516 H   0  0  0  0  0  0  0  0  0  0  0  0
   43.3163   13.1948  -15.7574 C   0  0  0  0  0  0  0  0  0  0  0  0
   42.2298   12.8376  -16.2095 C   0  0  0  0  0  0  0  0  0  0  0  0
   44.5770   13.5359  -15.1384 C   0  0  0  0  0  0  0  0  0  0  0  0
   45.7209   12.7451  -15.8495 C   0  0  0  0  0  0  0  0  0  0  0  0
   44.8943   14.8829  -15.4499 O   0  0  0  0  0  0  0  0  0  0  0  0
   44.6748   14.9667  -16.4029 H   0  0  0  0  0  0  0  0  0  0  0  0
   45.8135   12.1216  -10.4408 C   0  0  0  0  0  0  0  0  0  0  0  0
   45.1231   12.6521  -11.6770 C   0  0  0  0  0  0  0  0  0  0  0  0
   45.5972   12.7683  -12.9195 N   0  0  0  0  0  0  0  0  0  0  0  0
   44.6500   13.2782  -13.7185 C   0  0  0  0  0  0  0  0  0  0  0  0
   43.5729   13.4687  -12.8803 N   0  0  0  0  0  0  0  0  0  0  0  0
   43.8899   13.0905  -11.6869 O   0  0  0  0  0  0  0  0  0  0  0  0
 28 29  1  0  0  0
 29 30  2  0  0  0
 30 31  1  0  0  0
 31 32  2  0  0  0
 32 33  1  0  0  0
 31 24  1  0  0  0
 24 25  1  0  0  0
 24 26  1  0  0  0
 24 22  1  0  0  0
 22 23  3  0  0  0
 23  1  1  0  0  0
  1  2  2  0  0  0
  2  3  1  0  0  0
  3  4  2  0  0  0
  4  5  1  0  0  0
  5  6  1  0  0  0
  6  7  1  0  0  0
  7  8  1  0  0  0
  7  9  1  0  0  0
  9 10  2  0  0  0
 10 11  1  0  0  0
 11 12  2  0  0  0
 12 17  1  0  0  0
 17 18  1  0  0  0
 17 19  2  0  0  0
 12 13  1  0  0  0
 13 14  1  0  0  0
 10 15  1  0  0  0
 15 16  2  0  0  0
 33 29  1  0  0  0
 16  1  1  0  0  0
 15  4  1  0  0  0
  8  5  1  0  0  0
 13  9  1  0  0  0
 26 27  1  0  0  0
 18 20  1  0  0  0
 18 21  1  0  0  0
M  END
> <minimizedAffinity>
-9.95776

> <CNNscore>
0.2725719512

> <CNNaffinity>
7.0019354820

> <CNN_VS>
1.9085311890

> <CNNaffinity_variance>
0.1062162966

$$$$
[H]O[C@](C#Cc1c([H])c([H])c2c(c1[H])-c1nc(C(=O)N([H])[H])n(C([H])([H])[H])c1C1([H])C([H])([H])C2([H])C1([H])[H])(c1noc(C([H])([H])[H])n1)C([H])([H])[H]


 33 37  0  0  0  0  0  0  0  0999 V2000
   41.9154   13.7610  -14.1040 C   0  0  0  0  0  0  0  0  0  0  0  0
   42.7885   13.3412  -15.1462 C   0  0  0  0  0  0  0  0  0  0  0  0
   42.3339   12.7242  -16.2756 C   0  0  0  0  0  0  0  0  0  0  0  0
   40.9960   12.5269  -16.3591 C   0  0  0  0  0  0  0  0  0  0  0  0
   40.6643   11.8012  -17.6341 C   0  0  0  0  0  0  0  0  0  0  0  0
   39.4013   12.2981  -18.2821 C   0  0  0  0  0  0  0  0  0  0  0  0
   38.5692   11.2253  -17.5318 C   0  0  0  0  0  0  0  0  0  0  0  0
   39.8625   10.5425  -17.2318 C   0  0  0  0  0  0  0  0  0  0  0  0
   37.9543   11.9253  -16.3524 C   0  0  0  0  0  0  0  0  0  0  0  0
   38.6355   12.7221  -15.4186 C   0  0  0  0  0  0  0  0  0  0  0  0
   37.6888   13.2272  -14.6142 N   0  0  0  0  0  0  0  0  0  0  0  0
   36.4731   12.7912  -14.9850 C   0  0  0  0  0  0  0  0  0  0  0  0
   36.6664   11.9779  -16.0743 N   0  0  0  0  0  0  0  0  0  0  0  0
   35.6140   11.2959  -16.7785 C   0  0  0  0  0  0  0  0  0  0  0  0
   40.0858   12.9140  -15.3738 C   0  0  0  0  0  0  0  0  0  0  0  0
   40.5886   13.5378  -14.2410 C   0  0  0  0  0  0  0  0  0  0  0  0
   35.1399   13.1180  -14.5161 C   0  0  0  0  0  0  0  0  0  0  0  0
   34.5996   14.4184  -14.6753 N   0  0  0  0  0  0  0  0  0  0  0  0
   34.4233   12.2289  -13.9580 O   0  0  0  0  0  0  0  0  0  0  0  0
   33.9074   14.8222  -14.0219 H   0  0  0  0  0  0  0  0  0  0  0  0
   34.8645   15.0458  -15.4797 H   0  0  0  0  0  0  0  0  0  0  0  0
   43.0931   14.9323  -12.0245 C   0  0  0  0  0  0  0  0  0  0  0  0
   42.5109   14.3869  -12.9605 C   0  0  0  0  0  0  0  0  0  0  0  0
   43.8701   15.5880  -10.9974 C   0  0  0  0  0  0  0  0  0  0  0  0
   44.5065   16.8841  -11.5932 C   0  0  0  0  0  0  0  0  0  0  0  0
   42.9900   16.1026  -10.0110 O   0  0  0  0  0  0  0  0  0  0  0  0
   42.2578   16.5025  -10.5283 H   0  0  0  0  0  0  0  0  0  0  0  0
   47.1915   13.2380   -7.9902 C   0  0  0  0  0  0  0  0  0  0  0  0
   46.4005   13.7744   -9.1620 C   0  0  0  0  0  0  0  0  0  0  0  0
   45.2877   14.5118   -9.1573 N   0  0  0  0  0  0  0  0  0  0  0  0
   44.9196   14.7820  -10.4172 C   0  0  0  0  0  0  0  0  0  0  0  0
   45.8772   14.1571  -11.1862 N   0  0  0  0  0  0  0  0  0  0  0  0
   46.7306   13.5733  -10.4124 O   0  0  0  0  0  0  0  0  0  0  0  0
 28 29  1  0  0  0
 29 30  2  0  0  0
 30 31  1  0  0  0
 31 32  2  0  0  0
 32 33  1  0  0  0
 31 24  1  0  0  0
 24 25  1  0  0  0
 24 26  1  0  0  0
 24 22  1  0  0  0
 22 23  3  0  0  0
 23  1  1  0  0  0
  1  2  2  0  0  0
  2  3  1  0  0  0
  3  4  2  0  0  0
  4  5  1  0  0  0
  5  6  1  0  0  0
  6  7  1  0  0  0
  7  8  1  0  0  0
  7  9  1  0  0  0
  9 10  2  0  0  0
 10 11  1  0  0  0
 11 12  2  0  0  0
 12 17  1  0  0  0
 17 18  1  0  0  0
 17 19  2  0  0  0
 12 13  1  0  0  0
 13 14  1  0  0  0
 10 15  1  0  0  0
 15 16  2  0  0  0
 33 29  1  0  0  0
 16  1  1  0  0  0
 15  4  1  0  0  0
  8  5  1  0  0  0
 13  9  1  0  0  0
 26 27  1  0  0  0
 18 20  1  0  0  0
 18 21  1  0  0  0
M  END
> <minimizedAffinity>
-8.21071

> <CNNscore>
0.2434506267

> <CNNaffinity>
6.5940475464

> <CNN_VS>
1.6053249836

> <CNNaffinity_variance>
0.1514294595

$$$$
[H]O[C@](C#Cc1c([H])c([H])c2c(c1[H])-c1nc(C(=O)N([H])[H])n(C([H])([H])[H])c1C1([H])C([H])([H])C2([H])C1([H])[H])(c1noc(C([H])([H])[H])n1)C([H])([H])[H]


 33 37  0  0  0  0  0  0  0  0999 V2000
   41.0618   12.5641  -16.1369 C   0  0  0  0  0  0  0  0  0  0  0  0
   41.3122   11.8613  -17.3486 C   0  0  0  0  0  0  0  0  0  0  0  0
   40.3111   11.3027  -18.0892 C   0  0  0  0  0  0  0  0  0  0  0  0
   39.0519   11.4498  -17.6108 C   0  0  0  0  0  0  0  0  0  0  0  0
   38.0763   10.7445  -18.5126 C   0  0  0  0  0  0  0  0  0  0  0  0
   36.7891   11.5014  -18.6928 C   0  0  0  0  0  0  0  0  0  0  0  0
   36.1474   10.7343  -17.5070 C   0  0  0  0  0  0  0  0  0  0  0  0
   37.2777    9.7657  -17.6219 C   0  0  0  0  0  0  0  0  0  0  0  0
   36.2403   11.6508  -16.3194 C   0  0  0  0  0  0  0  0  0  0  0  0
   37.3968   12.3106  -15.8746 C   0  0  0  0  0  0  0  0  0  0  0  0
   36.9992   13.0976  -14.8643 N   0  0  0  0  0  0  0  0  0  0  0  0
   35.6790   12.9629  -14.6529 C   0  0  0  0  0  0  0  0  0  0  0  0
   35.2278   12.0518  -15.5757 N   0  0  0  0  0  0  0  0  0  0  0  0
   33.8623   11.6142  -15.6878 C   0  0  0  0  0  0  0  0  0  0  0  0
   38.7381   12.1266  -16.4307 C   0  0  0  0  0  0  0  0  0  0  0  0
   39.7848   12.6796  -15.7070 C   0  0  0  0  0  0  0  0  0  0  0  0
   34.7625   13.6533  -13.7656 C   0  0  0  0  0  0  0  0  0  0  0  0
   33.8443   14.6150  -14.2559 N   0  0  0  0  0  0  0  0  0  0  0  0
   34.7620   13.3952  -12.5211 O   0  0  0  0  0  0  0  0  0  0  0  0
   33.5089   15.4112  -13.6877 H   0  0  0  0  0  0  0  0  0  0  0  0
   33.4394   14.5657  -15.2277 H   0  0  0  0  0  0  0  0  0  0  0  0
   43.1722   13.4798  -14.7987 C   0  0  0  0  0  0  0  0  0  0  0  0
   42.1954   13.0961  -15.4399 C   0  0  0  0  0  0  0  0  0  0  0  0
   44.3233   13.8230  -13.9949 C   0  0  0  0  0  0  0  0  0  0  0  0
   44.2578   15.3424  -13.6388 C   0  0  0  0  0  0  0  0  0  0  0  0
   44.2001   13.2036  -12.7246 O   0  0  0  0  0  0  0  0  0  0  0  0
   43.2597   13.3431  -12.4801 H   0  0  0  0  0  0  0  0  0  0  0  0
   49.0258   13.9345  -15.8578 C   0  0  0  0  0  0  0  0  0  0  0  0
   47.6143   13.5607  -15.4647 C   0  0  0  0  0  0  0  0  0  0  0  0
   46.7531   14.2269  -14.6924 N   0  0  0  0  0  0  0  0  0  0  0  0
   45.6016   13.5465  -14.6090 C   0  0  0  0  0  0  0  0  0  0  0  0
   45.8213   12.4228  -15.3758 N   0  0  0  0  0  0  0  0  0  0  0  0
   47.0172   12.4657  -15.8613 O   0  0  0  0  0  0  0  0  0  0  0  0
 28 29  1  0  0  0
 29 30  2  0  0  0
 30 31  1  0  0  0
 31 32  2  0  0  0
 32 33  1  0  0  0
 31 24  1  0  0  0
 24 25  1  0  0  0
 24 26  1  0  0  0
 24 22  1  0  0  0
 22 23  3  0  0  0
 23  1  1  0  0  0
  1  2  2  0  0  0
  2  3  1  0  0  0
  3  4  2  0  0  0
  4  5  1  0  0  0
  5  6  1  0  0  0
  6  7  1  0  0  0
  7  8  1  0  0  0
  7  9  1  0  0  0
  9 10  2  0  0  0
 10 11  1  0  0  0
 11 12  2  0  0  0
 12 17  1  0  0  0
 17 18  1  0  0  0
 17 19  2  0  0  0
 12 13  1  0  0  0
 13 14  1  0  0  0
 10 15  1  0  0  0
 15 16  2  0  0  0
 33 29  1  0  0  0
 16  1  1  0  0  0
 15  4  1  0  0  0
  8  5  1  0  0  0
 13  9  1  0  0  0
 26 27  1  0  0  0
 18 20  1  0  0  0
 18 21  1  0  0  0
M  END
> <minimizedAffinity>
-9.69901

> <CNNscore>
0.2373523712

> <CNNaffinity>
6.8131470680

> <CNN_VS>
1.6171165705

> <CNNaffinity_variance>
0.1125614196

$$$$
[H]OC(C#Cc1c([H])c2c(c([H])c1F)OC([H])([H])C([H])([H])n1c-2nc(C(=O)N([H])[H])c1[H])(C([H])([H])[H])C([H])([H])[H]


 27 29  0  0  0  0  0  0  0  0999 V2000
   36.5743   13.9462  -13.2451 C   0  0  0  0  0  0  0  0  0  0  0  0
   37.1364   13.2709  -14.3027 C   0  0  0  0  0  0  0  0  0  0  0  0
   36.3178   12.5408  -15.1306 C   0  0  0  0  0  0  0  0  0  0  0  0
   37.0760   11.8786  -16.2134 C   0  0  0  0  0  0  0  0  0  0  0  0
   38.3278   12.2574  -16.5596 N   0  0  0  0  0  0  0  0  0  0  0  0
   38.7230   11.4616  -17.5652 C   0  0  0  0  0  0  0  0  0  0  0  0
   37.6843   10.5925  -17.8211 C   0  0  0  0  0  0  0  0  0  0  0  0
   36.6604   10.8532  -16.9792 N   0  0  0  0  0  0  0  0  0  0  0  0
   35.3906   10.1730  -16.9178 C   0  0  0  0  0  0  0  0  0  0  0  0
   34.2217   11.1244  -16.9347 C   0  0  0  0  0  0  0  0  0  0  0  0
   34.0277   11.7703  -15.6888 O   0  0  0  0  0  0  0  0  0  0  0  0
   34.9384   12.4619  -14.9345 C   0  0  0  0  0  0  0  0  0  0  0  0
   34.3807   13.1407  -13.8730 C   0  0  0  0  0  0  0  0  0  0  0  0
   35.2216   13.8648  -13.0585 C   0  0  0  0  0  0  0  0  0  0  0  0
   34.6540   14.5330  -12.0096 F   0  0  0  0  0  0  0  0  0  0  0  0
   39.9915   11.4637  -18.2900 C   0  0  0  0  0  0  0  0  0  0  0  0
   41.1637   12.0433  -17.7401 N   0  0  0  0  0  0  0  0  0  0  0  0
   40.1085   10.9525  -19.4365 O   0  0  0  0  0  0  0  0  0  0  0  0
   41.0575   12.8060  -17.0442 H   0  0  0  0  0  0  0  0  0  0  0  0
   42.1248   11.7452  -17.9967 H   0  0  0  0  0  0  0  0  0  0  0  0
   38.1168   15.3754  -11.6121 C   0  0  0  0  0  0  0  0  0  0  0  0
   37.4094   14.7313  -12.3450 C   0  0  0  0  0  0  0  0  0  0  0  0
   40.3703   16.2041  -11.3482 C   0  0  0  0  0  0  0  0  0  0  0  0
   38.9972   16.1448  -10.7286 C   0  0  0  0  0  0  0  0  0  0  0  0
   39.0055   15.4772   -9.3819 C   0  0  0  0  0  0  0  0  0  0  0  0
   38.5554   17.4542  -10.5717 O   0  0  0  0  0  0  0  0  0  0  0  0
   37.6310   17.5446  -10.8976 H   0  0  0  0  0  0  0  0  0  0  0  0
 23 24  1  0  0  0
 24 25  1  0  0  0
 24 26  1  0  0  0
 24 21  1  0  0  0
 21 22  3  0  0  0
 22  1  1  0  0  0
  1  2  2  0  0  0
  2  3  1  0  0  0
  3  4  1  0  0  0
  4  5  2  0  0  0
  5  6  1  0  0  0
  6  7  2  0  0  0
  7  8  1  0  0  0
  8  9  1  0  0  0
  9 10  1  0  0  0
 10 11  1  0  0  0
 11 12  1  0  0  0
 12 13  1  0  0  0
 13 14  2  0  0  0
 14 15  1  0  0  0
  6 16  1  0  0  0
 16 17  1  0  0  0
 16 18  2  0  0  0
 14  1  1  0  0  0
 12  3  2  0  0  0
  8  4  1  0  0  0
 26 27  1  0  0  0
 17 19  1  0  0  0
 17 20  1  0  0  0
M  END
> <minimizedAffinity>
-8.65395

> <CNNscore>
0.7302073240

> <CNNaffinity>
6.8034353256

> <CNN_VS>
4.9679183960

> <CNNaffinity_variance>
0.2465637028

$$$$
[H]OC(C#Cc1c([H])c2c(c([H])c1F)OC([H])([H])C([H])([H])n1c-2nc(C(=O)N([H])[H])c1[H])(C([H])([H])[H])C([H])([H])[H]


 27 29  0  0  0  0  0  0  0  0999 V2000
   35.8964   13.2089  -13.2865 C   0  0  0  0  0  0  0  0  0  0  0  0
   37.0265   12.9461  -14.0242 C   0  0  0  0  0  0  0  0  0  0  0  0
   36.8878   12.3591  -15.2591 C   0  0  0  0  0  0  0  0  0  0  0  0
   38.1934   12.1453  -15.9190 C   0  0  0  0  0  0  0  0  0  0  0  0
   39.3175   12.7896  -15.5298 N   0  0  0  0  0  0  0  0  0  0  0  0
   40.3139   12.3729  -16.3264 C   0  0  0  0  0  0  0  0  0  0  0  0
   39.7697   11.4624  -17.2064 C   0  0  0  0  0  0  0  0  0  0  0  0
   38.4504   11.3218  -16.9517 N   0  0  0  0  0  0  0  0  0  0  0  0
   37.5174   10.4676  -17.6436 C   0  0  0  0  0  0  0  0  0  0  0  0
   36.2719   11.1987  -18.0748 C   0  0  0  0  0  0  0  0  0  0  0  0
   35.3810   11.4370  -16.9995 O   0  0  0  0  0  0  0  0  0  0  0  0
   35.6414   12.0216  -15.7883 C   0  0  0  0  0  0  0  0  0  0  0  0
   34.5124   12.2874  -15.0444 C   0  0  0  0  0  0  0  0  0  0  0  0
   34.6777   12.8757  -13.8109 C   0  0  0  0  0  0  0  0  0  0  0  0
   33.5487   13.1334  -13.0846 F   0  0  0  0  0  0  0  0  0  0  0  0
   41.7205   12.7673  -16.3156 C   0  0  0  0  0  0  0  0  0  0  0  0
   42.6578   12.2117  -17.2240 N   0  0  0  0  0  0  0  0  0  0  0  0
   42.1712   13.6180  -15.5017 O   0  0  0  0  0  0  0  0  0  0  0  0
   42.4730   11.2646  -17.6062 H   0  0  0  0  0  0  0  0  0  0  0  0
   43.5210   12.7023  -17.5282 H   0  0  0  0  0  0  0  0  0  0  0  0
   36.1110   14.3406  -10.8861 C   0  0  0  0  0  0  0  0  0  0  0  0
   36.0026   13.8304  -11.9726 C   0  0  0  0  0  0  0  0  0  0  0  0
   35.5704   16.2860   -9.5603 C   0  0  0  0  0  0  0  0  0  0  0  0
   36.2645   14.9478   -9.5612 C   0  0  0  0  0  0  0  0  0  0  0  0
   37.7343   15.0654   -9.2694 C   0  0  0  0  0  0  0  0  0  0  0  0
   35.6756   14.1738   -8.5670 O   0  0  0  0  0  0  0  0  0  0  0  0
   35.4708   13.2742   -8.9101 H   0  0  0  0  0  0  0  0  0  0  0  0
 23 24  1  0  0  0
 24 25  1  0  0  0
 24 26  1  0  0  0
 24 21  1  0  0  0
 21 22  3  0  0  0
 22  1  1  0  0  0
  1  2  2  0  0  0
  2  3  1  0  0  0
  3  4  1  0  0  0
  4  5  2  0  0  0
  5  6  1  0  0  0
  6  7  2  0  0  0
  7  8  1  0  0  0
  8  9  1  0  0  0
  9 10  1  0  0  0
 10 11  1  0  0  0
 11 12  1  0  0  0
 12 13  1  0  0  0
 13 14  2  0  0  0
 14 15  1  0  0  0
  6 16  1  0  0  0
 16 17  1  0  0  0
 16 18  2  0  0  0
 14  1  1  0  0  0
 12  3  2  0  0  0
  8  4  1  0  0  0
 26 27  1  0  0  0
 17 19  1  0  0  0
 17 20  1  0  0  0
M  END
> <minimizedAffinity>
-8.26954

> <CNNscore>
0.6546435356

> <CNNaffinity>
6.6777648926

> <CNN_VS>
4.3715558052

> <CNNaffinity_variance>
0.1689588726

$$$$
[H]OC(C#Cc1c([H])c2c(c([H])c1F)OC([H])([H])C([H])([H])n1c-2nc(C(=O)N([H])[H])c1[H])(C([H])([H])[H])C([H])([H])[H]


 27 29  0  0  0  0  0  0  0  0999 V2000
   40.3682   15.1801  -13.0810 C   0  0  0  0  0  0  0  0  0  0  0  0
   40.1324   14.3095  -14.1187 C   0  0  0  0  0  0  0  0  0  0  0  0
   38.8460   13.8811  -14.3426 C   0  0  0  0  0  0  0  0  0  0  0  0
   38.7645   12.9530  -15.4905 C   0  0  0  0  0  0  0  0  0  0  0  0
   39.7469   12.8546  -16.4154 N   0  0  0  0  0  0  0  0  0  0  0  0
   39.3626   11.9319  -17.3109 C   0  0  0  0  0  0  0  0  0  0  0  0
   38.1266   11.4732  -16.9090 C   0  0  0  0  0  0  0  0  0  0  0  0
   37.7558   12.1095  -15.7763 N   0  0  0  0  0  0  0  0  0  0  0  0
   36.5348   11.9210  -15.0331 C   0  0  0  0  0  0  0  0  0  0  0  0
   35.8345   13.2207  -14.7292 C   0  0  0  0  0  0  0  0  0  0  0  0
   36.4568   13.9419  -13.6807 O   0  0  0  0  0  0  0  0  0  0  0  0
   37.7733   14.2990  -13.5538 C   0  0  0  0  0  0  0  0  0  0  0  0
   38.0156   15.1715  -12.5152 C   0  0  0  0  0  0  0  0  0  0  0  0
   39.3124   15.5859  -12.3117 C   0  0  0  0  0  0  0  0  0  0  0  0
   39.5374   16.4514  -11.2778 F   0  0  0  0  0  0  0  0  0  0  0  0
   40.0684   11.4602  -18.4999 C   0  0  0  0  0  0  0  0  0  0  0  0
   39.3726   10.9770  -19.6376 N   0  0  0  0  0  0  0  0  0  0  0  0
   41.3269   11.4588  -18.5750 O   0  0  0  0  0  0  0  0  0  0  0  0
   38.4265   10.5721  -19.5025 H   0  0  0  0  0  0  0  0  0  0  0  0
   39.7592   11.0064  -20.6009 H   0  0  0  0  0  0  0  0  0  0  0  0
   42.8422   16.0313  -12.5878 C   0  0  0  0  0  0  0  0  0  0  0  0
   41.7188   15.6569  -12.8120 C   0  0  0  0  0  0  0  0  0  0  0  0
   44.3695   16.6239  -10.8127 C   0  0  0  0  0  0  0  0  0  0  0  0
   44.2132   16.4642  -12.3037 C   0  0  0  0  0  0  0  0  0  0  0  0
   44.4604   17.7477  -13.0456 C   0  0  0  0  0  0  0  0  0  0  0  0
   45.1488   15.5235  -12.7209 O   0  0  0  0  0  0  0  0  0  0  0  0
   44.7280   14.8642  -13.3185 H   0  0  0  0  0  0  0  0  0  0  0  0
 23 24  1  0  0  0
 24 25  1  0  0  0
 24 26  1  0  0  0
 24 21  1  0  0  0
 21 22  3  0  0  0
 22  1  1  0  0  0
  1  2  2  0  0  0
  2  3  1  0  0  0
  3  4  1  0  0  0
  4  5  2  0  0  0
  5  6  1  0  0  0
  6  7  2  0  0  0
  7  8  1  0  0  0
  8  9  1  0  0  0
  9 10  1  0  0  0
 10 11  1  0  0  0
 11 12  1  0  0  0
 12 13  1  0  0  0
 13 14  2  0  0  0
 14 15  1  0  0  0
  6 16  1  0  0  0
 16 17  1  0  0  0
 16 18  2  0  0  0
 14  1  1  0  0  0
 12  3  2  0  0  0
  8  4  1  0  0  0
 26 27  1  0  0  0
 17 19  1  0  0  0
 17 20  1  0  0  0
M  END
> <minimizedAffinity>
-7.73960

> <CNNscore>
0.4977366328

> <CNNaffinity>
6.2164840698

> <CNN_VS>
3.0941717625

> <CNNaffinity_variance>
0.2003329247

$$$$
[H]OC(C#Cc1c([H])c2c(c([H])c1F)OC([H])([H])C([H])([H])n1c-2nc(C(=O)N([H])[H])c1[H])(C([H])([H])[H])C([H])([H])[H]


 27 29  0  0  0  0  0  0  0  0999 V2000
   39.5373   12.3200  -16.0278 C   0  0  0  0  0  0  0  0  0  0  0  0
   38.7420   12.8061  -15.0170 C   0  0  0  0  0  0  0  0  0  0  0  0
   37.3946   12.5378  -15.0492 C   0  0  0  0  0  0  0  0  0  0  0  0
   36.6856   13.1296  -13.8948 C   0  0  0  0  0  0  0  0  0  0  0  0
   37.3309   13.5363  -12.7775 N   0  0  0  0  0  0  0  0  0  0  0  0
   36.4055   14.0195  -11.9342 C   0  0  0  0  0  0  0  0  0  0  0  0
   35.1858   13.8971  -12.5643 C   0  0  0  0  0  0  0  0  0  0  0  0
   35.3617   13.3433  -13.7839 N   0  0  0  0  0  0  0  0  0  0  0  0
   34.3420   13.0456  -14.7589 C   0  0  0  0  0  0  0  0  0  0  0  0
   34.4307   11.6333  -15.2779 C   0  0  0  0  0  0  0  0  0  0  0  0
   35.4850   11.4607  -16.2083 O   0  0  0  0  0  0  0  0  0  0  0  0
   36.8076   11.7902  -16.0711 C   0  0  0  0  0  0  0  0  0  0  0  0
   37.6096   11.3057  -17.0814 C   0  0  0  0  0  0  0  0  0  0  0  0
   38.9557   11.5879  -17.0264 C   0  0  0  0  0  0  0  0  0  0  0  0
   39.7386   11.1005  -18.0355 F   0  0  0  0  0  0  0  0  0  0  0  0
   36.5884   14.5795  -10.5973 C   0  0  0  0  0  0  0  0  0  0  0  0
   35.5025   14.7314   -9.6974 N   0  0  0  0  0  0  0  0  0  0  0  0
   37.7163   14.9548  -10.1772 O   0  0  0  0  0  0  0  0  0  0  0  0
   34.5479   14.8415  -10.0897 H   0  0  0  0  0  0  0  0  0  0  0  0
   35.6109   14.7385   -8.6647 H   0  0  0  0  0  0  0  0  0  0  0  0
   42.1589   12.7844  -16.0173 C   0  0  0  0  0  0  0  0  0  0  0  0
   40.9706   12.5834  -16.0287 C   0  0  0  0  0  0  0  0  0  0  0  0
   44.2999   11.8178  -16.5795 C   0  0  0  0  0  0  0  0  0  0  0  0
   43.6057   13.0151  -15.9818 C   0  0  0  0  0  0  0  0  0  0  0  0
   44.0050   13.2536  -14.5525 C   0  0  0  0  0  0  0  0  0  0  0  0
   43.9702   14.1257  -16.7353 O   0  0  0  0  0  0  0  0  0  0  0  0
   43.1765   14.6636  -16.9579 H   0  0  0  0  0  0  0  0  0  0  0  0
 23 24  1  0  0  0
 24 25  1  0  0  0
 24 26  1  0  0  0
 24 21  1  0  0  0
 21 22  3  0  0  0
 22  1  1  0  0  0
  1  2  2  0  0  0
  2  3  1  0  0  0
  3  4  1  0  0  0
  4  5  2  0  0  0
  5  6  1  0  0  0
  6  7  2  0  0  0
  7  8  1  0  0  0
  8  9  1  0  0  0
  9 10  1  0  0  0
 10 11  1  0  0  0
 11 12  1  0  0  0
 12 13  1  0  0  0
 13 14  2  0  0  0
 14 15  1  0  0  0
  6 16  1  0  0  0
 16 17  1  0  0  0
 16 18  2  0  0  0
 14  1  1  0  0  0
 12  3  2  0  0  0
  8  4  1  0  0  0
 26 27  1  0  0  0
 17 19  1  0  0  0
 17 20  1  0  0  0
M  END
> <minimizedAffinity>
-9.53709

> <CNNscore>
0.4110330939

> <CNNaffinity>
6.2323174477

> <CNN_VS>
2.5616886616

> <CNNaffinity_variance>
0.0809976384

$$$$
[H]OC(C#Cc1c([H])c2c(c([H])c1F)OC([H])([H])C([H])([H])n1c-2nc(C(=O)N([H])[H])c1[H])(C([H])([H])[H])C([H])([H])[H]


 27 29  0  0  0  0  0  0  0  0999 V2000
   40.4910   13.3804  -15.1470 C   0  0  0  0  0  0  0  0  0  0  0  0
   39.1611   13.0534  -15.2688 C   0  0  0  0  0  0  0  0  0  0  0  0
   38.7718   12.2464  -16.3109 C   0  0  0  0  0  0  0  0  0  0  0  0
   37.3156   11.9916  -16.2982 C   0  0  0  0  0  0  0  0  0  0  0  0
   36.5515   12.2015  -15.2016 N   0  0  0  0  0  0  0  0  0  0  0  0
   35.2903   11.8756  -15.5242 C   0  0  0  0  0  0  0  0  0  0  0  0
   35.3062   11.4639  -16.8394 C   0  0  0  0  0  0  0  0  0  0  0  0
   36.5669   11.5366  -17.3196 N   0  0  0  0  0  0  0  0  0  0  0  0
   37.0122   11.1970  -18.6482 C   0  0  0  0  0  0  0  0  0  0  0  0
   38.2027   10.2725  -18.6421 C   0  0  0  0  0  0  0  0  0  0  0  0
   39.4095   10.9415  -18.3210 O   0  0  0  0  0  0  0  0  0  0  0  0
   39.6788   11.7489  -17.2476 C   0  0  0  0  0  0  0  0  0  0  0  0
   41.0103   12.0800  -17.1204 C   0  0  0  0  0  0  0  0  0  0  0  0
   41.3749   12.8894  -16.0684 C   0  0  0  0  0  0  0  0  0  0  0  0
   42.6991   13.2092  -15.9552 F   0  0  0  0  0  0  0  0  0  0  0  0
   34.0906   11.9246  -14.6919 C   0  0  0  0  0  0  0  0  0  0  0  0
   33.0992   10.9119  -14.7522 N   0  0  0  0  0  0  0  0  0  0  0  0
   33.8763   12.8658  -13.8809 O   0  0  0  0  0  0  0  0  0  0  0  0
   32.9974   10.3726  -15.6332 H   0  0  0  0  0  0  0  0  0  0  0  0
   32.4680   10.6801  -13.9609 H   0  0  0  0  0  0  0  0  0  0  0  0
   41.3162   14.9226  -13.1398 C   0  0  0  0  0  0  0  0  0  0  0  0
   40.9426   14.2336  -14.0553 C   0  0  0  0  0  0  0  0  0  0  0  0
   40.5592   16.4249  -11.4063 C   0  0  0  0  0  0  0  0  0  0  0  0
   41.7608   15.7432  -12.0099 C   0  0  0  0  0  0  0  0  0  0  0  0
   42.7798   16.7242  -12.5183 C   0  0  0  0  0  0  0  0  0  0  0  0
   42.3466   14.9728  -11.0110 O   0  0  0  0  0  0  0  0  0  0  0  0
   42.5489   14.0708  -11.3490 H   0  0  0  0  0  0  0  0  0  0  0  0
 23 24  1  0  0  0
 24 25  1  0  0  0
 24 26  1  0  0  0
 24 21  1  0  0  0
 21 22  3  0  0  0
 22  1  1  0  0  0
  1  2  2  0  0  0
  2  3  1  0  0  0
  3  4  1  0  0  0
  4  5  2  0  0  0
  5  6  1  0  0  0
  6  7  2  0  0  0
  7  8  1  0  0  0
  8  9  1  0  0  0
  9 10  1  0  0  0
 10 11  1  0  0  0
 11 12  1  0  0  0
 12 13  1  0  0  0
 13 14  2  0  0  0
 14 15  1  0  0  0
  6 16  1  0  0  0
 16 17  1  0  0  0
 16 18  2  0  0  0
 14  1  1  0  0  0
 12  3  2  0  0  0
  8  4  1  0  0  0
 26 27  1  0  0  0
 17 19  1  0  0  0
 17 20  1  0  0  0
M  END
> <minimizedAffinity>
-7.84970

> <CNNscore>
0.4048285782

> <CNNaffinity>
6.4602417946

> <CNN_VS>
2.6152904034

> <CNNaffinity_variance>
0.3468438983

$$$$
[H]OC(C#Cc1c([H])c2c(c([H])c1F)OC([H])([H])C([H])([H])n1c-2nc(C(=O)N([H])[H])c1[H])(C([H])([H])[H])C([H])([H])[H]


 27 29  0  0  0  0  0  0  0  0999 V2000
   38.2399   11.7698  -16.5935 C   0  0  0  0  0  0  0  0  0  0  0  0
   38.7836   12.5628  -15.6106 C   0  0  0  0  0  0  0  0  0  0  0  0
   40.1269   12.8487  -15.6599 C   0  0  0  0  0  0  0  0  0  0  0  0
   40.5503   13.7092  -14.5348 C   0  0  0  0  0  0  0  0  0  0  0  0
   39.6701   14.4229  -13.7958 N   0  0  0  0  0  0  0  0  0  0  0  0
   40.3742   15.0879  -12.8668 C   0  0  0  0  0  0  0  0  0  0  0  0
   41.6996   14.7619  -13.0585 C   0  0  0  0  0  0  0  0  0  0  0  0
   41.8075   13.9041  -14.0966 N   0  0  0  0  0  0  0  0  0  0  0  0
   43.0178   13.3221  -14.6213 C   0  0  0  0  0  0  0  0  0  0  0  0
   43.1354   13.4777  -16.1159 C   0  0  0  0  0  0  0  0  0  0  0  0
   42.2999   12.5790  -16.8240 O   0  0  0  0  0  0  0  0  0  0  0  0
   40.9559   12.3624  -16.6718 C   0  0  0  0  0  0  0  0  0  0  0  0
   40.4054   11.5681  -17.6540 C   0  0  0  0  0  0  0  0  0  0  0  0
   39.0579   11.2963  -17.5824 C   0  0  0  0  0  0  0  0  0  0  0  0
   38.5261   10.5072  -18.5639 F   0  0  0  0  0  0  0  0  0  0  0  0
   39.8919   15.9947  -11.8278 C   0  0  0  0  0  0  0  0  0  0  0  0
   38.5068   16.2035  -11.6043 N   0  0  0  0  0  0  0  0  0  0  0  0
   40.6792   16.6351  -11.0798 O   0  0  0  0  0  0  0  0  0  0  0  0
   37.8518   16.0599  -12.3965 H   0  0  0  0  0  0  0  0  0  0  0  0
   38.1114   16.4929  -10.6888 H   0  0  0  0  0  0  0  0  0  0  0  0
   35.6495   11.1562  -16.5533 C   0  0  0  0  0  0  0  0  0  0  0  0
   36.8195   11.4443  -16.5756 C   0  0  0  0  0  0  0  0  0  0  0  0
   33.6168   11.3116  -15.2577 C   0  0  0  0  0  0  0  0  0  0  0  0
   34.2331   10.7809  -16.5270 C   0  0  0  0  0  0  0  0  0  0  0  0
   34.1454    9.2834  -16.6230 C   0  0  0  0  0  0  0  0  0  0  0  0
   33.5320   11.3354  -17.5926 O   0  0  0  0  0  0  0  0  0  0  0  0
   34.1566   11.6808  -18.2703 H   0  0  0  0  0  0  0  0  0  0  0  0
 23 24  1  0  0  0
 24 25  1  0  0  0
 24 26  1  0  0  0
 24 21  1  0  0  0
 21 22  3  0  0  0
 22  1  1  0  0  0
  1  2  2  0  0  0
  2  3  1  0  0  0
  3  4  1  0  0  0
  4  5  2  0  0  0
  5  6  1  0  0  0
  6  7  2  0  0  0
  7  8  1  0  0  0
  8  9  1  0  0  0
  9 10  1  0  0  0
 10 11  1  0  0  0
 11 12  1  0  0  0
 12 13  1  0  0  0
 13 14  2  0  0  0
 14 15  1  0  0  0
  6 16  1  0  0  0
 16 17  1  0  0  0
 16 18  2  0  0  0
 14  1  1  0  0  0
 12  3  2  0  0  0
  8  4  1  0  0  0
 26 27  1  0  0  0
 17 19  1  0  0  0
 17 20  1  0  0  0
M  END
> <minimizedAffinity>
-8.40209

> <CNNscore>
0.3686186969

> <CNNaffinity>
6.3708372116

> <CNN_VS>
2.3484096527

> <CNNaffinity_variance>
0.1127841696

$$$$
[H]OC(C#Cc1c([H])c2c(c([H])c1F)OC([H])([H])C([H])([H])n1c-2nc(C(=O)N([H])[H])c1[H])(C([H])([H])[H])C([H])([H])[H]


 27 29  0  0  0  0  0  0  0  0999 V2000
   44.6906   15.4173  -10.1751 C   0  0  0  0  0  0  0  0  0  0  0  0
   45.2055   14.1470  -10.2833 C   0  0  0  0  0  0  0  0  0  0  0  0
   45.0215   13.2685   -9.2427 C   0  0  0  0  0  0  0  0  0  0  0  0
   45.6339   11.9511   -9.5168 C   0  0  0  0  0  0  0  0  0  0  0  0
   45.9786   11.5564  -10.7641 N   0  0  0  0  0  0  0  0  0  0  0  0
   46.5018   10.3247  -10.6638 C   0  0  0  0  0  0  0  0  0  0  0  0
   46.4670    9.9814   -9.3294 C   0  0  0  0  0  0  0  0  0  0  0  0
   45.9267   10.9943   -8.6171 N   0  0  0  0  0  0  0  0  0  0  0  0
   45.7111   11.0369   -7.1921 C   0  0  0  0  0  0  0  0  0  0  0  0
   44.3061   11.4455   -6.8303 C   0  0  0  0  0  0  0  0  0  0  0  0
   44.0866   12.8363   -6.9868 O   0  0  0  0  0  0  0  0  0  0  0  0
   44.3312   13.6215   -8.0823 C   0  0  0  0  0  0  0  0  0  0  0  0
   43.8174   14.8959   -7.9795 C   0  0  0  0  0  0  0  0  0  0  0  0
   44.0150   15.7569   -9.0352 C   0  0  0  0  0  0  0  0  0  0  0  0
   43.4995   17.0177   -8.9188 F   0  0  0  0  0  0  0  0  0  0  0  0
   47.0239    9.4629  -11.7217 C   0  0  0  0  0  0  0  0  0  0  0  0
   46.3492    8.2809  -12.1217 N   0  0  0  0  0  0  0  0  0  0  0  0
   48.0964    9.7247  -12.3304 O   0  0  0  0  0  0  0  0  0  0  0  0
   45.7386    7.8035  -11.4315 H   0  0  0  0  0  0  0  0  0  0  0  0
   46.4333    7.8663  -13.0700 H   0  0  0  0  0  0  0  0  0  0  0  0
   45.0299   17.1676  -12.1525 C   0  0  0  0  0  0  0  0  0  0  0  0
   44.8651   16.3774  -11.2575 C   0  0  0  0  0  0  0  0  0  0  0  0
   45.9849   17.4359  -14.3549 C   0  0  0  0  0  0  0  0  0  0  0  0
   45.2550   18.1309  -13.2337 C   0  0  0  0  0  0  0  0  0  0  0  0
   46.0349   19.2872  -12.6734 C   0  0  0  0  0  0  0  0  0  0  0  0
   44.0584   18.6132  -13.7531 O   0  0  0  0  0  0  0  0  0  0  0  0
   43.3104   18.3890  -13.1540 H   0  0  0  0  0  0  0  0  0  0  0  0
 23 24  1  0  0  0
 24 25  1  0  0  0
 24 26  1  0  0  0
 24 21  1  0  0  0
 21 22  3  0  0  0
 22  1  1  0  0  0
  1  2  2  0  0  0
  2  3  1  0  0  0
  3  4  1  0  0  0
  4  5  2  0  0  0
  5  6  1  0  0  0
  6  7  2  0  0  0
  7  8  1  0  0  0
  8  9  1  0  0  0
  9 10  1  0  0  0
 10 11  1  0  0  0
 11 12  1  0  0  0
 12 13  1  0  0  0
 13 14  2  0  0  0
 14 15  1  0  0  0
  6 16  1  0  0  0
 16 17  1  0  0  0
 16 18  2  0  0  0
 14  1  1  0  0  0
 12  3  2  0  0  0
  8  4  1  0  0  0
 26 27  1  0  0  0
 17 19  1  0  0  0
 17 20  1  0  0  0
M  END
> <minimizedAffinity>
-5.05425

> <CNNscore>
0.3234786093

> <CNNaffinity>
4.6453919411

> <CNN_VS>
1.5026849508

> <CNNaffinity_variance>
0.0266459845

$$$$
[H]OC(C#Cc1c([H])c2c(c([H])c1F)OC([H])([H])C([H])([H])n1c-2nc(C(=O)N([H])[H])c1[H])(C([H])([H])[H])C([H])([H])[H]


 27 29  0  0  0  0  0  0  0  0999 V2000
   41.0984   12.5761  -16.0884 C   0  0  0  0  0  0  0  0  0  0  0  0
   39.8420   12.7237  -15.5496 C   0  0  0  0  0  0  0  0  0  0  0  0
   38.7788   12.1198  -16.1770 C   0  0  0  0  0  0  0  0  0  0  0  0
   37.5041   12.3754  -15.4731 C   0  0  0  0  0  0  0  0  0  0  0  0
   37.4564   12.8093  -14.1925 N   0  0  0  0  0  0  0  0  0  0  0  0
   36.1623   12.9388  -13.8618 C   0  0  0  0  0  0  0  0  0  0  0  0
   35.4269   12.5745  -14.9691 C   0  0  0  0  0  0  0  0  0  0  0  0
   36.2631   12.2242  -15.9707 N   0  0  0  0  0  0  0  0  0  0  0  0
   35.8980   11.7818  -17.2935 C   0  0  0  0  0  0  0  0  0  0  0  0
   36.5974   10.5076  -17.6924 C   0  0  0  0  0  0  0  0  0  0  0  0
   37.9520   10.7191  -18.0489 O   0  0  0  0  0  0  0  0  0  0  0  0
   38.9311   11.3636  -17.3399 C   0  0  0  0  0  0  0  0  0  0  0  0
   40.1925   11.2191  -17.8752 C   0  0  0  0  0  0  0  0  0  0  0  0
   41.2408   11.8335  -17.2283 C   0  0  0  0  0  0  0  0  0  0  0  0
   42.4862   11.6813  -17.7711 F   0  0  0  0  0  0  0  0  0  0  0  0
   35.5804   13.3753  -12.5948 C   0  0  0  0  0  0  0  0  0  0  0  0
   34.2230   13.7750  -12.4960 N   0  0  0  0  0  0  0  0  0  0  0  0
   36.2525   13.4188  -11.5291 O   0  0  0  0  0  0  0  0  0  0  0  0
   33.7563   14.1516  -13.3432 H   0  0  0  0  0  0  0  0  0  0  0  0
   33.6692   13.7113  -11.6199 H   0  0  0  0  0  0  0  0  0  0  0  0
   43.2109   13.7240  -14.9446 C   0  0  0  0  0  0  0  0  0  0  0  0
   42.2508   13.2013  -15.4520 C   0  0  0  0  0  0  0  0  0  0  0  0
   45.3195   13.2783  -13.8540 C   0  0  0  0  0  0  0  0  0  0  0  0
   44.3910   14.3575  -14.3499 C   0  0  0  0  0  0  0  0  0  0  0  0
   43.9265   15.2648  -13.2452 C   0  0  0  0  0  0  0  0  0  0  0  0
   45.0943   15.1154  -15.2800 O   0  0  0  0  0  0  0  0  0  0  0  0
   44.5488   15.2595  -16.0866 H   0  0  0  0  0  0  0  0  0  0  0  0
 23 24  1  0  0  0
 24 25  1  0  0  0
 24 26  1  0  0  0
 24 21  1  0  0  0
 21 22  3  0  0  0
 22  1  1  0  0  0
  1  2  2  0  0  0
  2  3  1  0  0  0
  3  4  1  0  0  0
  4  5  2  0  0  0
  5  6  1  0  0  0
  6  7  2  0  0  0
  7  8  1  0  0  0
  8  9  1  0  0  0
  9 10  1  0  0  0
 10 11  1  0  0  0
 11 12  1  0  0  0
 12 13  1  0  0  0
 13 14  2  0  0  0
 14 15  1  0  0  0
  6 16  1  0  0  0
 16 17  1  0  0  0
 16 18  2  0  0  0
 14  1  1  0  0  0
 12  3  2  0  0  0
  8  4  1  0  0  0
 26 27  1  0  0  0
 17 19  1  0  0  0
 17 20  1  0  0  0
M  END
> <minimizedAffinity>
-8.72859

> <CNNscore>
0.3214974403

> <CNNaffinity>
6.1561198235

> <CNN_VS>
1.9791767597

> <CNNaffinity_variance>
0.1057471856

$$$$
[H]OC(C#Cc1c([H])c2c(c([H])c1F)OC([H])([H])C([H])([H])n1c-2nc(C(=O)N([H])[H])c1[H])(C([H])([H])[H])C([H])([H])[H]


 27 29  0  0  0  0  0  0  0  0999 V2000
   40.2987   12.4131  -16.0107 C   0  0  0  0  0  0  0  0  0  0  0  0
   39.6134   13.1441  -15.0692 C   0  0  0  0  0  0  0  0  0  0  0  0
   38.2429   13.0514  -15.0298 C   0  0  0  0  0  0  0  0  0  0  0  0
   37.6623   13.8964  -13.9646 C   0  0  0  0  0  0  0  0  0  0  0  0
   38.3995   14.3782  -12.9376 N   0  0  0  0  0  0  0  0  0  0  0  0
   37.5778   15.0982  -12.1583 C   0  0  0  0  0  0  0  0  0  0  0  0
   36.3271   15.0426  -12.7348 C   0  0  0  0  0  0  0  0  0  0  0  0
   36.3813   14.2945  -13.8585 N   0  0  0  0  0  0  0  0  0  0  0  0
   35.2926   13.9894  -14.7533 C   0  0  0  0  0  0  0  0  0  0  0  0
   35.1822   12.5160  -15.0509 C   0  0  0  0  0  0  0  0  0  0  0  0
   36.1668   12.0706  -15.9669 O   0  0  0  0  0  0  0  0  0  0  0  0
   37.5248   12.2422  -15.9114 C   0  0  0  0  0  0  0  0  0  0  0  0
   38.2170   11.5119  -16.8528 C   0  0  0  0  0  0  0  0  0  0  0  0
   39.5890   11.6219  -16.8717 C   0  0  0  0  0  0  0  0  0  0  0  0
   40.2620   10.8915  -17.8111 F   0  0  0  0  0  0  0  0  0  0  0  0
   37.8850   15.8233  -10.9277 C   0  0  0  0  0  0  0  0  0  0  0  0
   38.9508   16.7568  -10.8585 N   0  0  0  0  0  0  0  0  0  0  0  0
   37.2211   15.6568   -9.8690 O   0  0  0  0  0  0  0  0  0  0  0  0
   39.7520   16.6404  -11.5079 H   0  0  0  0  0  0  0  0  0  0  0  0
   38.9731   17.5524  -10.1915 H   0  0  0  0  0  0  0  0  0  0  0  0
   42.9560   12.5287  -16.1304 C   0  0  0  0  0  0  0  0  0  0  0  0
   41.7525   12.4849  -16.0839 C   0  0  0  0  0  0  0  0  0  0  0  0
   44.8701   13.9742  -15.8461 C   0  0  0  0  0  0  0  0  0  0  0  0
   44.4205   12.5708  -16.1638 C   0  0  0  0  0  0  0  0  0  0  0  0
   44.8691   12.1207  -17.5259 C   0  0  0  0  0  0  0  0  0  0  0  0
   44.9833   11.7286  -15.2108 O   0  0  0  0  0  0  0  0  0  0  0  0
   44.3044   11.1095  -14.8577 H   0  0  0  0  0  0  0  0  0  0  0  0
 23 24  1  0  0  0
 24 25  1  0  0  0
 24 26  1  0  0  0
 24 21  1  0  0  0
 21 22  3  0  0  0
 22  1  1  0  0  0
  1  2  2  0  0  0
  2  3  1  0  0  0
  3  4  1  0  0  0
  4  5  2  0  0  0
  5  6  1  0  0  0
  6  7  2  0  0  0
  7  8  1  0  0  0
  8  9  1  0  0  0
  9 10  1  0  0  0
 10 11  1  0  0  0
 11 12  1  0  0  0
 12 13  1  0  0  0
 13 14  2  0  0  0
 14 15  1  0  0  0
  6 16  1  0  0  0
 16 17  1  0  0  0
 16 18  2  0  0  0
 14  1  1  0  0  0
 12  3  2  0  0  0
  8  4  1  0  0  0
 26 27  1  0  0  0
 17 19  1  0  0  0
 17 20  1  0  0  0
M  END
> <minimizedAffinity>
-8.05628

> <CNNscore>
0.2923450172

> <CNNaffinity>
5.9204335213

> <CNN_VS>
1.7308092117

> <CNNaffinity_variance>
0.0749255121

$$$$
[H]OC1(C#Cc2c([H])c3c(c([H])c2F)OC([H])([H])C([H])([H])n2c-3nc(C(=O)N([H])[H])c2[H])C(=O)N([H])C([H])([H])C1([H])[H]


 31 34  0  0  0  0  0  0  0  0999 V2000
   38.8779   11.4319  -17.5731 C   0  0  0  0  0  0  0  0  0  0  0  0
   37.7863   10.6417  -17.8984 C   0  0  0  0  0  0  0  0  0  0  0  0
   36.7593   10.8659  -17.0611 N   0  0  0  0  0  0  0  0  0  0  0  0
   35.4816   10.1843  -17.1542 C   0  0  0  0  0  0  0  0  0  0  0  0
   34.3239   11.1215  -16.9352 C   0  0  0  0  0  0  0  0  0  0  0  0
   34.2160   11.3952  -15.5494 O   0  0  0  0  0  0  0  0  0  0  0  0
   35.0988   12.1901  -14.8137 C   0  0  0  0  0  0  0  0  0  0  0  0
   34.5153   12.8094  -13.7241 C   0  0  0  0  0  0  0  0  0  0  0  0
   35.3128   13.6178  -12.9352 C   0  0  0  0  0  0  0  0  0  0  0  0
   34.7943   14.2619  -11.8378 F   0  0  0  0  0  0  0  0  0  0  0  0
   36.6508   13.8045  -13.2219 C   0  0  0  0  0  0  0  0  0  0  0  0
   37.2325   13.1964  -14.2955 C   0  0  0  0  0  0  0  0  0  0  0  0
   36.4572   12.3850  -15.0975 C   0  0  0  0  0  0  0  0  0  0  0  0
   37.2054   11.8017  -16.2038 C   0  0  0  0  0  0  0  0  0  0  0  0
   38.4659   12.1545  -16.4895 N   0  0  0  0  0  0  0  0  0  0  0  0
   41.2644   12.1138  -17.6007 N   0  0  0  0  0  0  0  0  0  0  0  0
   40.1752   11.4903  -18.2273 C   0  0  0  0  0  0  0  0  0  0  0  0
   40.3165   10.9787  -19.3586 O   0  0  0  0  0  0  0  0  0  0  0  0
   41.7137   12.9326  -18.0545 H   0  0  0  0  0  0  0  0  0  0  0  0
   41.6232   11.7651  -16.6917 H   0  0  0  0  0  0  0  0  0  0  0  0
   37.4628   14.6478  -12.3910 C   0  0  0  0  0  0  0  0  0  0  0  0
   38.1184   15.3487  -11.6911 C   0  0  0  0  0  0  0  0  0  0  0  0
   38.9071   16.2034  -10.8131 C   0  0  0  0  0  0  0  0  0  0  0  0
   38.2580   17.3830  -10.4906 O   0  0  0  0  0  0  0  0  0  0  0  0
   39.1806   15.4388   -9.5349 C   0  0  0  0  0  0  0  0  0  0  0  0
   40.4135   16.1420   -9.0066 C   0  0  0  0  0  0  0  0  0  0  0  0
   41.1211   16.5334  -10.2011 N   0  0  0  0  0  0  0  0  0  0  0  0
   40.2763   16.4321  -11.3393 C   0  0  0  0  0  0  0  0  0  0  0  0
   40.5577   16.5094  -12.5604 O   0  0  0  0  0  0  0  0  0  0  0  0
   37.2908   17.3374  -10.5440 H   0  0  0  0  0  0  0  0  0  0  0  0
   42.1178   16.8465  -10.2155 H   0  0  0  0  0  0  0  0  0  0  0  0
 16 17  1  0  0  0
 17 18  2  0  0  0
 17  1  1  0  0  0
  1  2  2  0  0  0
  2  3  1  0  0  0
  3  4  1  0  0  0
  4  5  1  0  0  0
  5  6  1  0  0  0
  6  7  1  0  0  0
  7  8  2  0  0  0
  8  9  1  0  0  0
  9 10  1  0  0  0
  9 11  2  0  0  0
 11 12  1  0  0  0
 12 13  2  0  0  0
 13 14  1  0  0  0
 14 15  2  0  0  0
 11 21  1  0  0  0
 21 22  3  0  0  0
 22 23  1  0  0  0
 23 24  1  0  0  0
 23 25  1  0  0  0
 25 26  1  0  0  0
 26 27  1  0  0  0
 27 28  1  0  0  0
 28 29  2  0  0  0
 15  1  1  0  0  0
 28 23  1  0  0  0
 14  3  1  0  0  0
 13  7  1  0  0  0
 16 19  1  0  0  0
 16 20  1  0  0  0
 24 30  1  0  0  0
 27 31  1  0  0  0
M  END
> <minimizedAffinity>
-9.69766

> <CNNscore>
0.7783998251

> <CNNaffinity>
6.9278097153

> <CNN_VS>
5.3926057816

> <CNNaffinity_variance>
0.2898365259

$$$$
[H]OC1(C#Cc2c([H])c3c(c([H])c2F)OC([H])([H])C([H])([H])n2c-3nc(C(=O)N([H])[H])c2[H])C(=O)N([H])C([H])([H])C1([H])[H]


 31 34  0  0  0  0  0  0  0  0999 V2000
   39.0833   11.5665  -17.8319 C   0  0  0  0  0  0  0  0  0  0  0  0
   39.4726   12.2329  -16.6804 C   0  0  0  0  0  0  0  0  0  0  0  0
   38.4506   12.3416  -15.8146 N   0  0  0  0  0  0  0  0  0  0  0  0
   38.5571   12.9914  -14.5214 C   0  0  0  0  0  0  0  0  0  0  0  0
   37.8413   12.2234  -13.4424 C   0  0  0  0  0  0  0  0  0  0  0  0
   36.4480   12.4431  -13.5755 O   0  0  0  0  0  0  0  0  0  0  0  0
   35.6427   11.9191  -14.5901 C   0  0  0  0  0  0  0  0  0  0  0  0
   34.3261   11.7285  -14.2143 C   0  0  0  0  0  0  0  0  0  0  0  0
   33.4528   11.2128  -15.1541 C   0  0  0  0  0  0  0  0  0  0  0  0
   32.1313   10.9995  -14.8442 F   0  0  0  0  0  0  0  0  0  0  0  0
   33.8769   10.8962  -16.4297 C   0  0  0  0  0  0  0  0  0  0  0  0
   35.1746   11.0818  -16.8068 C   0  0  0  0  0  0  0  0  0  0  0  0
   36.0647   11.5952  -15.8866 C   0  0  0  0  0  0  0  0  0  0  0  0
   37.4120   11.7410  -16.4229 C   0  0  0  0  0  0  0  0  0  0  0  0
   37.7654   11.2712  -17.6268 N   0  0  0  0  0  0  0  0  0  0  0  0
   39.2734   10.8321  -20.1953 N   0  0  0  0  0  0  0  0  0  0  0  0
   39.8843   11.2461  -19.0024 C   0  0  0  0  0  0  0  0  0  0  0  0
   41.1287   11.3422  -18.9405 O   0  0  0  0  0  0  0  0  0  0  0  0
   39.4920    9.8932  -20.5813 H   0  0  0  0  0  0  0  0  0  0  0  0
   38.6079   11.4536  -20.6930 H   0  0  0  0  0  0  0  0  0  0  0  0
   32.9552   10.3615  -17.3918 C   0  0  0  0  0  0  0  0  0  0  0  0
   32.2075    9.9067  -18.1948 C   0  0  0  0  0  0  0  0  0  0  0  0
   31.3043    9.3276  -19.1808 C   0  0  0  0  0  0  0  0  0  0  0  0
   29.9725    9.5823  -18.9011 O   0  0  0  0  0  0  0  0  0  0  0  0
   31.6363    9.9270  -20.5312 C   0  0  0  0  0  0  0  0  0  0  0  0
   31.0871    8.8832  -21.4812 C   0  0  0  0  0  0  0  0  0  0  0  0
   31.2854    7.6412  -20.7749 N   0  0  0  0  0  0  0  0  0  0  0  0
   31.5735    7.8849  -19.4048 C   0  0  0  0  0  0  0  0  0  0  0  0
   31.9742    7.0966  -18.5137 O   0  0  0  0  0  0  0  0  0  0  0  0
   29.8187   10.3762  -18.3659 H   0  0  0  0  0  0  0  0  0  0  0  0
   31.2234    6.6979  -21.2198 H   0  0  0  0  0  0  0  0  0  0  0  0
 16 17  1  0  0  0
 17 18  2  0  0  0
 17  1  1  0  0  0
  1  2  2  0  0  0
  2  3  1  0  0  0
  3  4  1  0  0  0
  4  5  1  0  0  0
  5  6  1  0  0  0
  6  7  1  0  0  0
  7  8  2  0  0  0
  8  9  1  0  0  0
  9 10  1  0  0  0
  9 11  2  0  0  0
 11 12  1  0  0  0
 12 13  2  0  0  0
 13 14  1  0  0  0
 14 15  2  0  0  0
 11 21  1  0  0  0
 21 22  3  0  0  0
 22 23  1  0  0  0
 23 24  1  0  0  0
 23 25  1  0  0  0
 25 26  1  0  0  0
 26 27  1  0  0  0
 27 28  1  0  0  0
 28 29  2  0  0  0
 15  1  1  0  0  0
 28 23  1  0  0  0
 14  3  1  0  0  0
 13  7  1  0  0  0
 16 19  1  0  0  0
 16 20  1  0  0  0
 24 30  1  0  0  0
 27 31  1  0  0  0
M  END
> <minimizedAffinity>
-5.93493

> <CNNscore>
0.7734937072

> <CNNaffinity>
7.3568677902

> <CNN_VS>
5.6904907227

> <CNNaffinity_variance>
0.2940395176

$$$$
[H]OC1(C#Cc2c([H])c3c(c([H])c2F)OC([H])([H])C([H])([H])n2c-3nc(C(=O)N([H])[H])c2[H])C(=O)N([H])C([H])([H])C1([H])[H]


 31 34  0  0  0  0  0  0  0  0999 V2000
   40.4536   12.4080  -16.2660 C   0  0  0  0  0  0  0  0  0  0  0  0
   39.9284   11.5841  -17.2494 C   0  0  0  0  0  0  0  0  0  0  0  0
   38.6091   11.3993  -17.0729 N   0  0  0  0  0  0  0  0  0  0  0  0
   37.7868   10.5832  -17.9470 C   0  0  0  0  0  0  0  0  0  0  0  0
   36.4582   11.2287  -18.2379 C   0  0  0  0  0  0  0  0  0  0  0  0
   35.6209   11.0769  -17.1051 O   0  0  0  0  0  0  0  0  0  0  0  0
   35.7730   11.7563  -15.8936 C   0  0  0  0  0  0  0  0  0  0  0  0
   34.5880   11.9422  -15.2063 C   0  0  0  0  0  0  0  0  0  0  0  0
   34.6398   12.6061  -13.9945 C   0  0  0  0  0  0  0  0  0  0  0  0
   33.4979   12.8232  -13.2617 F   0  0  0  0  0  0  0  0  0  0  0  0
   35.8349   13.0711  -13.4820 C   0  0  0  0  0  0  0  0  0  0  0  0
   37.0075   12.8910  -14.1552 C   0  0  0  0  0  0  0  0  0  0  0  0
   36.9813   12.2315  -15.3663 C   0  0  0  0  0  0  0  0  0  0  0  0
   38.3008   12.1099  -15.9731 C   0  0  0  0  0  0  0  0  0  0  0  0
   39.3845   12.7198  -15.4748 N   0  0  0  0  0  0  0  0  0  0  0  0
   42.8225   12.4506  -17.0060 N   0  0  0  0  0  0  0  0  0  0  0  0
   41.8289   12.8499  -16.1000 C   0  0  0  0  0  0  0  0  0  0  0  0
   42.1239   13.5928  -15.1394 O   0  0  0  0  0  0  0  0  0  0  0  0
   43.6329   11.8989  -16.6638 H   0  0  0  0  0  0  0  0  0  0  0  0
   42.7546   12.7008  -18.0107 H   0  0  0  0  0  0  0  0  0  0  0  0
   35.8686   13.7584  -12.2220 C   0  0  0  0  0  0  0  0  0  0  0  0
   35.8806   14.3386  -11.1856 C   0  0  0  0  0  0  0  0  0  0  0  0
   35.8707   15.0563   -9.9175 C   0  0  0  0  0  0  0  0  0  0  0  0
   35.9288   14.2100   -8.8233 O   0  0  0  0  0  0  0  0  0  0  0  0
   37.0782   15.9695   -9.8851 C   0  0  0  0  0  0  0  0  0  0  0  0
   36.6551   17.0133   -8.8727 C   0  0  0  0  0  0  0  0  0  0  0  0
   35.2294   17.1177   -9.0661 N   0  0  0  0  0  0  0  0  0  0  0  0
   34.7465   16.0220   -9.8315 C   0  0  0  0  0  0  0  0  0  0  0  0
   33.6203   15.8403  -10.3557 O   0  0  0  0  0  0  0  0  0  0  0  0
   36.3379   13.3491   -9.0021 H   0  0  0  0  0  0  0  0  0  0  0  0
   34.6427   17.8964   -8.6905 H   0  0  0  0  0  0  0  0  0  0  0  0
 16 17  1  0  0  0
 17 18  2  0  0  0
 17  1  1  0  0  0
  1  2  2  0  0  0
  2  3  1  0  0  0
  3  4  1  0  0  0
  4  5  1  0  0  0
  5  6  1  0  0  0
  6  7  1  0  0  0
  7  8  2  0  0  0
  8  9  1  0  0  0
  9 10  1  0  0  0
  9 11  2  0  0  0
 11 12  1  0  0  0
 12 13  2  0  0  0
 13 14  1  0  0  0
 14 15  2  0  0  0
 11 21  1  0  0  0
 21 22  3  0  0  0
 22 23  1  0  0  0
 23 24  1  0  0  0
 23 25  1  0  0  0
 25 26  1  0  0  0
 26 27  1  0  0  0
 27 28  1  0  0  0
 28 29  2  0  0  0
 15  1  1  0  0  0
 28 23  1  0  0  0
 14  3  1  0  0  0
 13  7  1  0  0  0
 16 19  1  0  0  0
 16 20  1  0  0  0
 24 30  1  0  0  0
 27 31  1  0  0  0
M  END
> <minimizedAffinity>
-8.97729

> <CNNscore>
0.5904735327

> <CNNaffinity>
6.7583045959

> <CNN_VS>
3.9905998707

> <CNNaffinity_variance>
0.2558898330

$$$$
[H]OC1(C#Cc2c([H])c3c(c([H])c2F)OC([H])([H])C([H])([H])n2c-3nc(C(=O)N([H])[H])c2[H])C(=O)N([H])C([H])([H])C1([H])[H]


 31 34  0  0  0  0  0  0  0  0999 V2000
   35.2126   11.2587  -16.4813 C   0  0  0  0  0  0  0  0  0  0  0  0
   36.0367   10.8585  -17.5218 C   0  0  0  0  0  0  0  0  0  0  0  0
   37.2924   11.3029  -17.3437 N   0  0  0  0  0  0  0  0  0  0  0  0
   38.3778   11.0410  -18.2706 C   0  0  0  0  0  0  0  0  0  0  0  0
   39.6587   10.6968  -17.5583 C   0  0  0  0  0  0  0  0  0  0  0  0
   40.2249   11.8874  -17.0397 O   0  0  0  0  0  0  0  0  0  0  0  0
   39.7253   12.6114  -15.9541 C   0  0  0  0  0  0  0  0  0  0  0  0
   40.6930   13.3115  -15.2582 C   0  0  0  0  0  0  0  0  0  0  0  0
   40.2919   14.0585  -14.1659 C   0  0  0  0  0  0  0  0  0  0  0  0
   41.2042   14.7773  -13.4317 F   0  0  0  0  0  0  0  0  0  0  0  0
   38.9674   14.1074  -13.7778 C   0  0  0  0  0  0  0  0  0  0  0  0
   38.0077   13.4189  -14.4602 C   0  0  0  0  0  0  0  0  0  0  0  0
   38.3835   12.6665  -15.5535 C   0  0  0  0  0  0  0  0  0  0  0  0
   37.2601   11.9865  -16.1855 C   0  0  0  0  0  0  0  0  0  0  0  0
   36.0307   11.9738  -15.6533 N   0  0  0  0  0  0  0  0  0  0  0  0
   33.2256   11.0004  -15.0165 N   0  0  0  0  0  0  0  0  0  0  0  0
   33.7960   10.9871  -16.2979 C   0  0  0  0  0  0  0  0  0  0  0  0
   33.0836   10.7400  -17.2944 O   0  0  0  0  0  0  0  0  0  0  0  0
   32.7844   10.1367  -14.6454 H   0  0  0  0  0  0  0  0  0  0  0  0
   33.2407   11.8624  -14.4389 H   0  0  0  0  0  0  0  0  0  0  0  0
   38.5702   14.8886  -12.6408 C   0  0  0  0  0  0  0  0  0  0  0  0
   38.2293   15.5463  -11.7123 C   0  0  0  0  0  0  0  0  0  0  0  0
   37.7896   16.3589  -10.5855 C   0  0  0  0  0  0  0  0  0  0  0  0
   38.3942   17.6041  -10.5557 O   0  0  0  0  0  0  0  0  0  0  0  0
   36.2923   16.5529  -10.7022 C   0  0  0  0  0  0  0  0  0  0  0  0
   35.9044   16.8675   -9.2725 C   0  0  0  0  0  0  0  0  0  0  0  0
   36.8328   16.0904   -8.4883 N   0  0  0  0  0  0  0  0  0  0  0  0
   37.9110   15.6357   -9.2947 C   0  0  0  0  0  0  0  0  0  0  0  0
   38.8133   14.8017   -9.0370 O   0  0  0  0  0  0  0  0  0  0  0  0
   38.7017   17.9225  -11.4185 H   0  0  0  0  0  0  0  0  0  0  0  0
   36.7182   15.8951   -7.4684 H   0  0  0  0  0  0  0  0  0  0  0  0
 16 17  1  0  0  0
 17 18  2  0  0  0
 17  1  1  0  0  0
  1  2  2  0  0  0
  2  3  1  0  0  0
  3  4  1  0  0  0
  4  5  1  0  0  0
  5  6  1  0  0  0
  6  7  1  0  0  0
  7  8  2  0  0  0
  8  9  1  0  0  0
  9 10  1  0  0  0
  9 11  2  0  0  0
 11 12  1  0  0  0
 12 13  2  0  0  0
 13 14  1  0  0  0
 14 15  2  0  0  0
 11 21  1  0  0  0
 21 22  3  0  0  0
 22 23  1  0  0  0
 23 24  1  0  0  0
 23 25  1  0  0  0
 25 26  1  0  0  0
 26 27  1  0  0  0
 27 28  1  0  0  0
 28 29  2  0  0  0
 15  1  1  0  0  0
 28 23  1  0  0  0
 14  3  1  0  0  0
 13  7  1  0  0  0
 16 19  1  0  0  0
 16 20  1  0  0  0
 24 30  1  0  0  0
 27 31  1  0  0  0
M  END
> <minimizedAffinity>
-9.07976

> <CNNscore>
0.5849321485

> <CNNaffinity>
6.8087897301

> <CNN_VS>
3.9826800823

> <CNNaffinity_variance>
0.2779362798

$$$$
[H]OC1(C#Cc2c([H])c3c(c([H])c2F)OC([H])([H])C([H])([H])n2c-3nc(C(=O)N([H])[H])c2[H])C(=O)N([H])C([H])([H])C1([H])[H]


 31 34  0  0  0  0  0  0  0  0999 V2000
   35.9534   13.7364  -13.2675 C   0  0  0  0  0  0  0  0  0  0  0  0
   34.8913   13.2248  -13.9968 C   0  0  0  0  0  0  0  0  0  0  0  0
   35.3240   12.5610  -15.0822 N   0  0  0  0  0  0  0  0  0  0  0  0
   34.4409   11.9164  -16.0364 C   0  0  0  0  0  0  0  0  0  0  0  0
   34.9579   10.5686  -16.4638 C   0  0  0  0  0  0  0  0  0  0  0  0
   36.0166   10.7589  -17.3859 O   0  0  0  0  0  0  0  0  0  0  0  0
   37.2913   11.2315  -17.0632 C   0  0  0  0  0  0  0  0  0  0  0  0
   38.2861   10.7716  -17.9058 C   0  0  0  0  0  0  0  0  0  0  0  0
   39.5826   11.1869  -17.6639 C   0  0  0  0  0  0  0  0  0  0  0  0
   40.6172   10.7660  -18.4642 F   0  0  0  0  0  0  0  0  0  0  0  0
   39.8803   12.0345  -16.6149 C   0  0  0  0  0  0  0  0  0  0  0  0
   38.9034   12.4919  -15.7800 C   0  0  0  0  0  0  0  0  0  0  0  0
   37.6021   12.0915  -16.0012 C   0  0  0  0  0  0  0  0  0  0  0  0
   36.6652   12.6543  -15.0372 C   0  0  0  0  0  0  0  0  0  0  0  0
   37.0634   13.3506  -13.9640 N   0  0  0  0  0  0  0  0  0  0  0  0
   35.5416   15.8631  -12.0557 N   0  0  0  0  0  0  0  0  0  0  0  0
   35.9123   14.5104  -12.0373 C   0  0  0  0  0  0  0  0  0  0  0  0
   36.2109   13.9609  -10.9553 O   0  0  0  0  0  0  0  0  0  0  0  0
   36.2174   16.5817  -11.7313 H   0  0  0  0  0  0  0  0  0  0  0  0
   34.6020   16.1503  -12.3893 H   0  0  0  0  0  0  0  0  0  0  0  0
   41.2327   12.4547  -16.3797 C   0  0  0  0  0  0  0  0  0  0  0  0
   42.3476   12.8037  -16.1648 C   0  0  0  0  0  0  0  0  0  0  0  0
   43.7131   13.2232  -15.8773 C   0  0  0  0  0  0  0  0  0  0  0  0
   44.0977   14.3324  -16.6112 O   0  0  0  0  0  0  0  0  0  0  0  0
   43.7991   13.5661  -14.4049 C   0  0  0  0  0  0  0  0  0  0  0  0
   45.2810   13.4123  -14.1330 C   0  0  0  0  0  0  0  0  0  0  0  0
   45.6807   12.3441  -15.0163 N   0  0  0  0  0  0  0  0  0  0  0  0
   44.6779   12.1009  -15.9935 C   0  0  0  0  0  0  0  0  0  0  0  0
   44.5663   11.1584  -16.8153 O   0  0  0  0  0  0  0  0  0  0  0  0
   43.3643   14.8963  -16.9020 H   0  0  0  0  0  0  0  0  0  0  0  0
   46.5854   11.8274  -14.9387 H   0  0  0  0  0  0  0  0  0  0  0  0
 16 17  1  0  0  0
 17 18  2  0  0  0
 17  1  1  0  0  0
  1  2  2  0  0  0
  2  3  1  0  0  0
  3  4  1  0  0  0
  4  5  1  0  0  0
  5  6  1  0  0  0
  6  7  1  0  0  0
  7  8  2  0  0  0
  8  9  1  0  0  0
  9 10  1  0  0  0
  9 11  2  0  0  0
 11 12  1  0  0  0
 12 13  2  0  0  0
 13 14  1  0  0  0
 14 15  2  0  0  0
 11 21  1  0  0  0
 21 22  3  0  0  0
 22 23  1  0  0  0
 23 24  1  0  0  0
 23 25  1  0  0  0
 25 26  1  0  0  0
 26 27  1  0  0  0
 27 28  1  0  0  0
 28 29  2  0  0  0
 15  1  1  0  0  0
 28 23  1  0  0  0
 14  3  1  0  0  0
 13  7  1  0  0  0
 16 19  1  0  0  0
 16 20  1  0  0  0
 24 30  1  0  0  0
 27 31  1  0  0  0
M  END
> <minimizedAffinity>
-10.23631

> <CNNscore>
0.5653316975

> <CNNaffinity>
6.7532072067

> <CNN_VS>
3.8178021908

> <CNNaffinity_variance>
0.0423440114

$$$$
[H]OC1(C#Cc2c([H])c3c(c([H])c2F)OC([H])([H])C([H])([H])n2c-3nc(C(=O)N([H])[H])c2[H])C(=O)N([H])C([H])([H])C1([H])[H]


 31 34  0  0  0  0  0  0  0  0999 V2000
   35.2170   11.2631  -16.5548 C   0  0  0  0  0  0  0  0  0  0  0  0
   36.0244   10.8821  -17.6154 C   0  0  0  0  0  0  0  0  0  0  0  0
   37.2870   11.3076  -17.4404 N   0  0  0  0  0  0  0  0  0  0  0  0
   38.3585   11.0589  -18.3869 C   0  0  0  0  0  0  0  0  0  0  0  0
   39.6436   10.6815  -17.6994 C   0  0  0  0  0  0  0  0  0  0  0  0
   40.2293   11.8514  -17.1558 O   0  0  0  0  0  0  0  0  0  0  0  0
   39.7505   12.5513  -16.0453 C   0  0  0  0  0  0  0  0  0  0  0  0
   40.7342   13.2217  -15.3424 C   0  0  0  0  0  0  0  0  0  0  0  0
   40.3543   13.9433  -14.2258 C   0  0  0  0  0  0  0  0  0  0  0  0
   41.2831   14.6319  -13.4834 F   0  0  0  0  0  0  0  0  0  0  0  0
   39.0350   13.9962  -13.8207 C   0  0  0  0  0  0  0  0  0  0  0  0
   38.0597   13.3371  -14.5098 C   0  0  0  0  0  0  0  0  0  0  0  0
   38.4142   12.6104  -15.6274 C   0  0  0  0  0  0  0  0  0  0  0  0
   37.2759   11.9600  -16.2640 C   0  0  0  0  0  0  0  0  0  0  0  0
   36.0527   11.9465  -15.7177 N   0  0  0  0  0  0  0  0  0  0  0  0
   33.2333   11.0430  -15.0792 N   0  0  0  0  0  0  0  0  0  0  0  0
   33.7997   11.0022  -16.3619 C   0  0  0  0  0  0  0  0  0  0  0  0
   33.0829   10.7397  -17.3513 O   0  0  0  0  0  0  0  0  0  0  0  0
   32.7890   10.1888  -14.6903 H   0  0  0  0  0  0  0  0  0  0  0  0
   33.2546   11.9158  -14.5183 H   0  0  0  0  0  0  0  0  0  0  0  0
   38.6599   14.7508  -12.6585 C   0  0  0  0  0  0  0  0  0  0  0  0
   38.3374   15.3596  -11.6909 C   0  0  0  0  0  0  0  0  0  0  0  0
   37.9361   16.0845  -10.4922 C   0  0  0  0  0  0  0  0  0  0  0  0
   37.8223   15.2633   -9.3833 O   0  0  0  0  0  0  0  0  0  0  0  0
   38.9863   17.1374  -10.2063 C   0  0  0  0  0  0  0  0  0  0  0  0
   38.2120   18.1332   -9.3682 C   0  0  0  0  0  0  0  0  0  0  0  0
   36.8743   18.0622   -9.9033 N   0  0  0  0  0  0  0  0  0  0  0  0
   36.7217   16.9079  -10.7182 C   0  0  0  0  0  0  0  0  0  0  0  0
   35.7859   16.5856  -11.4906 O   0  0  0  0  0  0  0  0  0  0  0  0
   38.3586   14.4564   -9.4237 H   0  0  0  0  0  0  0  0  0  0  0  0
   36.1284   18.7681   -9.7115 H   0  0  0  0  0  0  0  0  0  0  0  0
 16 17  1  0  0  0
 17 18  2  0  0  0
 17  1  1  0  0  0
  1  2  2  0  0  0
  2  3  1  0  0  0
  3  4  1  0  0  0
  4  5  1  0  0  0
  5  6  1  0  0  0
  6  7  1  0  0  0
  7  8  2  0  0  0
  8  9  1  0  0  0
  9 10  1  0  0  0
  9 11  2  0  0  0
 11 12  1  0  0  0
 12 13  2  0  0  0
 13 14  1  0  0  0
 14 15  2  0  0  0
 11 21  1  0  0  0
 21 22  3  0  0  0
 22 23  1  0  0  0
 23 24  1  0  0  0
 23 25  1  0  0  0
 25 26  1  0  0  0
 26 27  1  0  0  0
 27 28  1  0  0  0
 28 29  2  0  0  0
 15  1  1  0  0  0
 28 23  1  0  0  0
 14  3  1  0  0  0
 13  7  1  0  0  0
 16 19  1  0  0  0
 16 20  1  0  0  0
 24 30  1  0  0  0
 27 31  1  0  0  0
M  END
> <minimizedAffinity>
-9.31583

> <CNNscore>
0.5459095240

> <CNNaffinity>
6.7750215530

> <CNN_VS>
3.6985487938

> <CNNaffinity_variance>
0.3226599693

$$$$
[H]OC1(C#Cc2c([H])c3c(c([H])c2F)OC([H])([H])C([H])([H])n2c-3nc(C(=O)N([H])[H])c2[H])C(=O)N([H])C([H])([H])C1([H])[H]


 31 34  0  0  0  0  0  0  0  0999 V2000
   40.4090   15.9408  -10.0995 C   0  0  0  0  0  0  0  0  0  0  0  0
   39.3957   16.3334   -9.2388 C   0  0  0  0  0  0  0  0  0  0  0  0
   39.7010   16.0375   -7.9640 N   0  0  0  0  0  0  0  0  0  0  0  0
   38.8313   16.3297   -6.8396 C   0  0  0  0  0  0  0  0  0  0  0  0
   39.5959   16.8634   -5.6576 C   0  0  0  0  0  0  0  0  0  0  0  0
   40.2607   15.7859   -5.0217 O   0  0  0  0  0  0  0  0  0  0  0  0
   41.3714   15.1096   -5.5328 C   0  0  0  0  0  0  0  0  0  0  0  0
   42.1947   14.5747   -4.5597 C   0  0  0  0  0  0  0  0  0  0  0  0
   43.3210   13.8863   -4.9713 C   0  0  0  0  0  0  0  0  0  0  0  0
   44.1803   13.3305   -4.0545 F   0  0  0  0  0  0  0  0  0  0  0  0
   43.6191   13.7347   -6.3113 C   0  0  0  0  0  0  0  0  0  0  0  0
   42.8109   14.2600   -7.2764 C   0  0  0  0  0  0  0  0  0  0  0  0
   41.6813   14.9510   -6.8903 C   0  0  0  0  0  0  0  0  0  0  0  0
   40.9124   15.4555   -8.0210 C   0  0  0  0  0  0  0  0  0  0  0  0
   41.3546   15.3870   -9.2838 N   0  0  0  0  0  0  0  0  0  0  0  0
   40.7077   14.9647  -12.3620 N   0  0  0  0  0  0  0  0  0  0  0  0
   40.4677   16.0799  -11.5457 C   0  0  0  0  0  0  0  0  0  0  0  0
   40.3020   17.2058  -12.0619 O   0  0  0  0  0  0  0  0  0  0  0  0
   41.5489   14.9497  -12.9707 H   0  0  0  0  0  0  0  0  0  0  0  0
   40.0547   14.1584  -12.3626 H   0  0  0  0  0  0  0  0  0  0  0  0
   44.7933   13.0166   -6.7193 C   0  0  0  0  0  0  0  0  0  0  0  0
   45.7584   12.4061   -7.0460 C   0  0  0  0  0  0  0  0  0  0  0  0
   46.9298   11.6355   -7.4426 C   0  0  0  0  0  0  0  0  0  0  0  0
   46.6330   10.3096   -7.7087 O   0  0  0  0  0  0  0  0  0  0  0  0
   47.5019   12.2623   -8.6968 C   0  0  0  0  0  0  0  0  0  0  0  0
   48.9379   11.7827   -8.6602 C   0  0  0  0  0  0  0  0  0  0  0  0
   49.2410   11.7209   -7.2512 N   0  0  0  0  0  0  0  0  0  0  0  0
   48.0495   11.7863   -6.4795 C   0  0  0  0  0  0  0  0  0  0  0  0
   47.8987   11.9378   -5.2424 O   0  0  0  0  0  0  0  0  0  0  0  0
   45.7135   10.1482   -7.9711 H   0  0  0  0  0  0  0  0  0  0  0  0
   50.2075   11.6394   -6.8629 H   0  0  0  0  0  0  0  0  0  0  0  0
 16 17  1  0  0  0
 17 18  2  0  0  0
 17  1  1  0  0  0
  1  2  2  0  0  0
  2  3  1  0  0  0
  3  4  1  0  0  0
  4  5  1  0  0  0
  5  6  1  0  0  0
  6  7  1  0  0  0
  7  8  2  0  0  0
  8  9  1  0  0  0
  9 10  1  0  0  0
  9 11  2  0  0  0
 11 12  1  0  0  0
 12 13  2  0  0  0
 13 14  1  0  0  0
 14 15  2  0  0  0
 11 21  1  0  0  0
 21 22  3  0  0  0
 22 23  1  0  0  0
 23 24  1  0  0  0
 23 25  1  0  0  0
 25 26  1  0  0  0
 26 27  1  0  0  0
 27 28  1  0  0  0
 28 29  2  0  0  0
 15  1  1  0  0  0
 28 23  1  0  0  0
 14  3  1  0  0  0
 13  7  1  0  0  0
 16 19  1  0  0  0
 16 20  1  0  0  0
 24 30  1  0  0  0
 27 31  1  0  0  0
M  END
> <minimizedAffinity>
-3.59352

> <CNNscore>
0.5324495435

> <CNNaffinity>
5.1548614502

> <CNN_VS>
2.7447035313

> <CNNaffinity_variance>
1.2773582935

$$$$
[H]OC1(C#Cc2c([H])c3c(c([H])c2F)OC([H])([H])C([H])([H])n2c-3nc(C(=O)N([H])[H])c2[H])C(=O)N([H])C([H])([H])C1([H])[H]


 31 34  0  0  0  0  0  0  0  0999 V2000
   35.4823   12.4546  -14.8669 C   0  0  0  0  0  0  0  0  0  0  0  0
   35.2406   11.9009  -16.1145 C   0  0  0  0  0  0  0  0  0  0  0  0
   36.3846   11.7294  -16.7984 N   0  0  0  0  0  0  0  0  0  0  0  0
   36.4466   11.1692  -18.1357 C   0  0  0  0  0  0  0  0  0  0  0  0
   37.5918   10.2044  -18.2917 C   0  0  0  0  0  0  0  0  0  0  0  0
   38.7951   10.9424  -18.4121 O   0  0  0  0  0  0  0  0  0  0  0  0
   39.4213   11.6380  -17.3746 C   0  0  0  0  0  0  0  0  0  0  0  0
   40.7923   11.7399  -17.5198 C   0  0  0  0  0  0  0  0  0  0  0  0
   41.4988   12.4126  -16.5398 C   0  0  0  0  0  0  0  0  0  0  0  0
   42.8634   12.5492  -16.6245 F   0  0  0  0  0  0  0  0  0  0  0  0
   40.8602   12.9673  -15.4481 C   0  0  0  0  0  0  0  0  0  0  0  0
   39.5078   12.8702  -15.2990 C   0  0  0  0  0  0  0  0  0  0  0  0
   38.7813   12.2038  -16.2637 C   0  0  0  0  0  0  0  0  0  0  0  0
   37.3524   12.1771  -15.9782 C   0  0  0  0  0  0  0  0  0  0  0  0
   36.8382   12.6143  -14.8209 N   0  0  0  0  0  0  0  0  0  0  0  0
   33.2622   13.3144  -14.1648 N   0  0  0  0  0  0  0  0  0  0  0  0
   34.5213   12.7945  -13.8300 C   0  0  0  0  0  0  0  0  0  0  0  0
   34.8243   12.6200  -12.6303 O   0  0  0  0  0  0  0  0  0  0  0  0
   32.9946   14.2595  -13.8281 H   0  0  0  0  0  0  0  0  0  0  0  0
   32.5990   12.7648  -14.7435 H   0  0  0  0  0  0  0  0  0  0  0  0
   41.6109   13.6620  -14.4408 C   0  0  0  0  0  0  0  0  0  0  0  0
   42.2376   14.2187  -13.5992 C   0  0  0  0  0  0  0  0  0  0  0  0
   43.0207   14.8809  -12.5641 C   0  0  0  0  0  0  0  0  0  0  0  0
   42.9329   14.2446  -11.3375 O   0  0  0  0  0  0  0  0  0  0  0  0
   44.4703   14.8850  -13.0021 C   0  0  0  0  0  0  0  0  0  0  0  0
   45.0370   16.0382  -12.2005 C   0  0  0  0  0  0  0  0  0  0  0  0
   43.9353   16.9650  -12.1107 N   0  0  0  0  0  0  0  0  0  0  0  0
   42.7169   16.3313  -12.4763 C   0  0  0  0  0  0  0  0  0  0  0  0
   41.5850   16.8283  -12.6953 O   0  0  0  0  0  0  0  0  0  0  0  0
   42.7146   13.3012  -11.3887 H   0  0  0  0  0  0  0  0  0  0  0  0
   44.0316   17.9628  -11.8162 H   0  0  0  0  0  0  0  0  0  0  0  0
 16 17  1  0  0  0
 17 18  2  0  0  0
 17  1  1  0  0  0
  1  2  2  0  0  0
  2  3  1  0  0  0
  3  4  1  0  0  0
  4  5  1  0  0  0
  5  6  1  0  0  0
  6  7  1  0  0  0
  7  8  2  0  0  0
  8  9  1  0  0  0
  9 10  1  0  0  0
  9 11  2  0  0  0
 11 12  1  0  0  0
 12 13  2  0  0  0
 13 14  1  0  0  0
 14 15  2  0  0  0
 11 21  1  0  0  0
 21 22  3  0  0  0
 22 23  1  0  0  0
 23 24  1  0  0  0
 23 25  1  0  0  0
 25 26  1  0  0  0
 26 27  1  0  0  0
 27 28  1  0  0  0
 28 29  2  0  0  0
 15  1  1  0  0  0
 28 23  1  0  0  0
 14  3  1  0  0  0
 13  7  1  0  0  0
 16 19  1  0  0  0
 16 20  1  0  0  0
 24 30  1  0  0  0
 27 31  1  0  0  0
M  END
> <minimizedAffinity>
-9.36791

> <CNNscore>
0.4555471838

> <CNNaffinity>
6.5134954453

> <CNN_VS>
2.9672045708

> <CNNaffinity_variance>
0.2540466487

$$$$
[H]OC1(C#Cc2c([H])c3c(c([H])c2F)OC([H])([H])C([H])([H])n2c-3nc(C(=O)N([H])[H])c2[H])C(=O)N([H])C([H])([H])C1([H])[H]


 31 34  0  0  0  0  0  0  0  0999 V2000
   39.5554   12.1046  -16.4188 C   0  0  0  0  0  0  0  0  0  0  0  0
   38.7674   11.2646  -17.1903 C   0  0  0  0  0  0  0  0  0  0  0  0
   37.4896   11.2816  -16.7742 N   0  0  0  0  0  0  0  0  0  0  0  0
   36.4324   10.5013  -17.3901 C   0  0  0  0  0  0  0  0  0  0  0  0
   35.1579   11.2899  -17.5330 C   0  0  0  0  0  0  0  0  0  0  0  0
   34.5286   11.3709  -16.2663 O   0  0  0  0  0  0  0  0  0  0  0  0
   34.9767   12.1430  -15.1914 C   0  0  0  0  0  0  0  0  0  0  0  0
   33.9665   12.5588  -14.3443 C   0  0  0  0  0  0  0  0  0  0  0  0
   34.3151   13.3294  -13.2504 C   0  0  0  0  0  0  0  0  0  0  0  0
   33.3588   13.7749  -12.3700 F   0  0  0  0  0  0  0  0  0  0  0  0
   35.6296   13.6759  -13.0068 C   0  0  0  0  0  0  0  0  0  0  0  0
   36.6310   13.2689  -13.8387 C   0  0  0  0  0  0  0  0  0  0  0  0
   36.3080   12.4991  -14.9368 C   0  0  0  0  0  0  0  0  0  0  0  0
   37.4718   12.1362  -15.7356 C   0  0  0  0  0  0  0  0  0  0  0  0
   38.6919   12.6393  -15.5052 N   0  0  0  0  0  0  0  0  0  0  0  0
   41.6580   12.0921  -17.7379 N   0  0  0  0  0  0  0  0  0  0  0  0
   40.9800   12.3682  -16.5413 C   0  0  0  0  0  0  0  0  0  0  0  0
   41.6025   12.8456  -15.5685 O   0  0  0  0  0  0  0  0  0  0  0  0
   42.4363   11.4048  -17.7363 H   0  0  0  0  0  0  0  0  0  0  0  0
   41.3893   12.5669  -18.6206 H   0  0  0  0  0  0  0  0  0  0  0  0
   35.9720   14.4769  -11.8657 C   0  0  0  0  0  0  0  0  0  0  0  0
   36.2732   15.1295  -10.9200 C   0  0  0  0  0  0  0  0  0  0  0  0
   36.6672   15.9254   -9.7648 C   0  0  0  0  0  0  0  0  0  0  0  0
   37.3267   15.1807   -8.8018 O   0  0  0  0  0  0  0  0  0  0  0  0
   37.5945   17.0224  -10.2444 C   0  0  0  0  0  0  0  0  0  0  0  0
   37.4556   18.0538   -9.1442 C   0  0  0  0  0  0  0  0  0  0  0  0
   36.0861   17.9114   -8.7141 N   0  0  0  0  0  0  0  0  0  0  0  0
   35.5303   16.6997   -9.2064 C   0  0  0  0  0  0  0  0  0  0  0  0
   34.3400   16.3004   -9.2040 O   0  0  0  0  0  0  0  0  0  0  0  0
   37.7691   14.3871   -9.1404 H   0  0  0  0  0  0  0  0  0  0  0  0
   35.5823   18.6095   -8.1222 H   0  0  0  0  0  0  0  0  0  0  0  0
 16 17  1  0  0  0
 17 18  2  0  0  0
 17  1  1  0  0  0
  1  2  2  0  0  0
  2  3  1  0  0  0
  3  4  1  0  0  0
  4  5  1  0  0  0
  5  6  1  0  0  0
  6  7  1  0  0  0
  7  8  2  0  0  0
  8  9  1  0  0  0
  9 10  1  0  0  0
  9 11  2  0  0  0
 11 12  1  0  0  0
 12 13  2  0  0  0
 13 14  1  0  0  0
 14 15  2  0  0  0
 11 21  1  0  0  0
 21 22  3  0  0  0
 22 23  1  0  0  0
 23 24  1  0  0  0
 23 25  1  0  0  0
 25 26  1  0  0  0
 26 27  1  0  0  0
 27 28  1  0  0  0
 28 29  2  0  0  0
 15  1  1  0  0  0
 28 23  1  0  0  0
 14  3  1  0  0  0
 13  7  1  0  0  0
 16 19  1  0  0  0
 16 20  1  0  0  0
 24 30  1  0  0  0
 27 31  1  0  0  0
M  END
> <minimizedAffinity>
-8.59278

> <CNNscore>
0.4487387240

> <CNNaffinity>
6.6510534286

> <CNN_VS>
2.9845852852

> <CNNaffinity_variance>
0.3068044484

$$$$
[H]O[C@](C#Cc1c([H])c([H])c2c(c1[H])-c1nc(C(=O)N([H])[H])sc1C(F)(F)C([H])([H])O2)(c1nc([H])c([H])c([H])n1)C([H])([H])[H]


 33 36  0  0  0  0  0  0  0  0999 V2000
   41.4683   13.0142  -15.5238 C   0  0  0  0  0  0  0  0  0  0  0  0
   41.9913   12.6065  -16.7300 C   0  0  0  0  0  0  0  0  0  0  0  0
   41.2168   12.1367  -17.7873 C   0  0  0  0  0  0  0  0  0  0  0  0
   39.8771   12.0866  -17.6007 C   0  0  0  0  0  0  0  0  0  0  0  0
   39.1447   11.5992  -18.6982 O   0  0  0  0  0  0  0  0  0  0  0  0
   38.0164   10.7683  -18.7740 C   0  0  0  0  0  0  0  0  0  0  0  0
   37.4522   10.2935  -17.4673 C   0  0  0  0  0  0  0  0  0  0  0  0
   36.3823    9.4670  -17.6497 F   0  0  0  0  0  0  0  0  0  0  0  0
   38.4886    9.6057  -16.8224 F   0  0  0  0  0  0  0  0  0  0  0  0
   37.0550   11.4293  -16.5520 C   0  0  0  0  0  0  0  0  0  0  0  0
   35.5555   11.8021  -15.8635 S   0  0  0  0  0  0  0  0  0  0  0  0
   36.0132   13.2200  -14.9714 C   0  0  0  0  0  0  0  0  0  0  0  0
   37.3024   13.3130  -15.2670 N   0  0  0  0  0  0  0  0  0  0  0  0
   37.8638   12.4492  -16.0445 C   0  0  0  0  0  0  0  0  0  0  0  0
   39.3099   12.4880  -16.4098 C   0  0  0  0  0  0  0  0  0  0  0  0
   40.0979   12.9526  -15.3709 C   0  0  0  0  0  0  0  0  0  0  0  0
   35.1454   14.0407  -14.1264 C   0  0  0  0  0  0  0  0  0  0  0  0
   33.8503   14.3735  -14.5403 N   0  0  0  0  0  0  0  0  0  0  0  0
   35.5957   14.4373  -13.0109 O   0  0  0  0  0  0  0  0  0  0  0  0
   33.0443   13.6803  -14.6459 H   0  0  0  0  0  0  0  0  0  0  0  0
   33.6017   15.3686  -14.7720 H   0  0  0  0  0  0  0  0  0  0  0  0
   43.1180   13.7138  -13.5725 C   0  0  0  0  0  0  0  0  0  0  0  0
   42.3384   13.3912  -14.4256 C   0  0  0  0  0  0  0  0  0  0  0  0
   43.5040   14.2695  -11.2159 C   0  0  0  0  0  0  0  0  0  0  0  0
   44.1175   14.1376  -12.6212 C   0  0  0  0  0  0  0  0  0  0  0  0
   45.1245   13.1515  -12.4653 O   0  0  0  0  0  0  0  0  0  0  0  0
   44.9314   12.4429  -13.1406 H   0  0  0  0  0  0  0  0  0  0  0  0
   44.7881   15.3868  -12.9620 C   0  0  0  0  0  0  0  0  0  0  0  0
   46.0203   15.5705  -13.3862 N   0  0  0  0  0  0  0  0  0  0  0  0
   46.4846   16.8113  -13.6511 C   0  0  0  0  0  0  0  0  0  0  0  0
   45.6886   17.9611  -13.4921 C   0  0  0  0  0  0  0  0  0  0  0  0
   44.3966   17.7528  -13.0461 C   0  0  0  0  0  0  0  0  0  0  0  0
   43.9938   16.5127  -12.8008 N   0  0  0  0  0  0  0  0  0  0  0  0
 24 25  1  0  0  0
 25 26  1  0  0  0
 25 22  1  0  0  0
 22 23  3  0  0  0
 23  1  1  0  0  0
  1  2  2  0  0  0
  2  3  1  0  0  0
  3  4  2  0  0  0
  4  5  1  0  0  0
  5  6  1  0  0  0
  6  7  1  0  0  0
  7  8  1  0  0  0
  7  9  1  0  0  0
  7 10  1  0  0  0
 10 11  1  0  0  0
 11 12  1  0  0  0
 12 13  2  0  0  0
 13 14  1  0  0  0
 14 15  1  0  0  0
 15 16  2  0  0  0
 12 17  1  0  0  0
 17 18  1  0  0  0
 17 19  2  0  0  0
 25 28  1  0  0  0
 28 29  2  0  0  0
 29 30  1  0  0  0
 30 31  2  0  0  0
 31 32  1  0  0  0
 32 33  2  0  0  0
 16  1  1  0  0  0
 33 28  1  0  0  0
 15  4  1  0  0  0
 14 10  2  0  0  0
 26 27  1  0  0  0
 18 20  1  0  0  0
 18 21  1  0  0  0
M  END
> <minimizedAffinity>
-8.03980

> <CNNscore>
0.4979173243

> <CNNaffinity>
7.1328644753

> <CNN_VS>
3.5515768528

> <CNNaffinity_variance>
0.4669786096

$$$$
[H]O[C@](C#Cc1c([H])c([H])c2c(c1[H])-c1nc(C(=O)N([H])[H])sc1C(F)(F)C([H])([H])O2)(c1nc([H])c([H])c([H])n1)C([H])([H])[H]


 33 36  0  0  0  0  0  0  0  0999 V2000
   42.1932   13.2147  -14.5691 C   0  0  0  0  0  0  0  0  0  0  0  0
   42.8858   12.9771  -15.7348 C   0  0  0  0  0  0  0  0  0  0  0  0
   42.2738   12.6642  -16.9456 C   0  0  0  0  0  0  0  0  0  0  0  0
   40.9221   12.5957  -16.9582 C   0  0  0  0  0  0  0  0  0  0  0  0
   40.3577   12.2709  -18.2050 O   0  0  0  0  0  0  0  0  0  0  0  0
   39.2633   11.4649  -18.5539 C   0  0  0  0  0  0  0  0  0  0  0  0
   38.5285   10.8149  -17.4186 C   0  0  0  0  0  0  0  0  0  0  0  0
   37.5066   10.0278  -17.8631 F   0  0  0  0  0  0  0  0  0  0  0  0
   39.4741   10.0378  -16.7365 F   0  0  0  0  0  0  0  0  0  0  0  0
   37.9907   11.8134  -16.4189 C   0  0  0  0  0  0  0  0  0  0  0  0
   36.4043   12.0943  -15.9031 S   0  0  0  0  0  0  0  0  0  0  0  0
   36.7120   13.3708  -14.7666 C   0  0  0  0  0  0  0  0  0  0  0  0
   38.0285   13.4972  -14.8621 N   0  0  0  0  0  0  0  0  0  0  0  0
   38.7057   12.7478  -15.6655 C   0  0  0  0  0  0  0  0  0  0  0  0
   40.1880   12.8295  -15.8147 C   0  0  0  0  0  0  0  0  0  0  0  0
   40.8159   13.1397  -14.6207 C   0  0  0  0  0  0  0  0  0  0  0  0
   35.7228   14.0697  -13.9461 C   0  0  0  0  0  0  0  0  0  0  0  0
   34.4503   14.3607  -14.4517 N   0  0  0  0  0  0  0  0  0  0  0  0
   36.0471   14.3999  -12.7671 O   0  0  0  0  0  0  0  0  0  0  0  0
   33.7027   13.6335  -14.6834 H   0  0  0  0  0  0  0  0  0  0  0  0
   34.1599   15.3555  -14.6298 H   0  0  0  0  0  0  0  0  0  0  0  0
   43.4056   13.5904  -12.2438 C   0  0  0  0  0  0  0  0  0  0  0  0
   42.8953   13.4294  -13.3178 C   0  0  0  0  0  0  0  0  0  0  0  0
   44.8275   14.9899  -10.8188 C   0  0  0  0  0  0  0  0  0  0  0  0
   43.9368   13.7381  -10.9098 C   0  0  0  0  0  0  0  0  0  0  0  0
   42.9016   13.9840   -9.9724 O   0  0  0  0  0  0  0  0  0  0  0  0
   42.0426   13.8935  -10.4717 H   0  0  0  0  0  0  0  0  0  0  0  0
   44.6904   12.5872  -10.4262 C   0  0  0  0  0  0  0  0  0  0  0  0
   45.1494   11.5587  -11.1070 N   0  0  0  0  0  0  0  0  0  0  0  0
   45.8293   10.5670  -10.4908 C   0  0  0  0  0  0  0  0  0  0  0  0
   46.0828   10.5776   -9.1064 C   0  0  0  0  0  0  0  0  0  0  0  0
   45.5948   11.6641   -8.4043 C   0  0  0  0  0  0  0  0  0  0  0  0
   44.9335   12.6086   -9.0606 N   0  0  0  0  0  0  0  0  0  0  0  0
 24 25  1  0  0  0
 25 26  1  0  0  0
 25 22  1  0  0  0
 22 23  3  0  0  0
 23  1  1  0  0  0
  1  2  2  0  0  0
  2  3  1  0  0  0
  3  4  2  0  0  0
  4  5  1  0  0  0
  5  6  1  0  0  0
  6  7  1  0  0  0
  7  8  1  0  0  0
  7  9  1  0  0  0
  7 10  1  0  0  0
 10 11  1  0  0  0
 11 12  1  0  0  0
 12 13  2  0  0  0
 13 14  1  0  0  0
 14 15  1  0  0  0
 15 16  2  0  0  0
 12 17  1  0  0  0
 17 18  1  0  0  0
 17 19  2  0  0  0
 25 28  1  0  0  0
 28 29  2  0  0  0
 29 30  1  0  0  0
 30 31  2  0  0  0
 31 32  1  0  0  0
 32 33  2  0  0  0
 16  1  1  0  0  0
 33 28  1  0  0  0
 15  4  1  0  0  0
 14 10  2  0  0  0
 26 27  1  0  0  0
 18 20  1  0  0  0
 18 21  1  0  0  0
M  END
> <minimizedAffinity>
-8.55015

> <CNNscore>
0.4749419689

> <CNNaffinity>
6.8938980103

> <CNN_VS>
3.2742013931

> <CNNaffinity_variance>
0.3492231369

$$$$
[H]O[C@](C#Cc1c([H])c([H])c2c(c1[H])-c1nc(C(=O)N([H])[H])sc1C(F)(F)C([H])([H])O2)(c1nc([H])c([H])c([H])n1)C([H])([H])[H]


 33 36  0  0  0  0  0  0  0  0999 V2000
   41.7403   13.1209  -15.0192 C   0  0  0  0  0  0  0  0  0  0  0  0
   42.4142   12.8122  -16.1791 C   0  0  0  0  0  0  0  0  0  0  0  0
   41.7839   12.4128  -17.3545 C   0  0  0  0  0  0  0  0  0  0  0  0
   40.4330   12.3305  -17.3370 C   0  0  0  0  0  0  0  0  0  0  0  0
   39.8498   11.9171  -18.5485 O   0  0  0  0  0  0  0  0  0  0  0  0
   38.7581   11.0790  -18.8219 C   0  0  0  0  0  0  0  0  0  0  0  0
   38.0511   10.4996  -17.6321 C   0  0  0  0  0  0  0  0  0  0  0  0
   37.0300    9.6746  -18.0036 F   0  0  0  0  0  0  0  0  0  0  0  0
   39.0173    9.7794  -16.9173 F   0  0  0  0  0  0  0  0  0  0  0  0
   37.5205   11.5579  -16.6917 C   0  0  0  0  0  0  0  0  0  0  0  0
   35.9408   11.8573  -16.1661 S   0  0  0  0  0  0  0  0  0  0  0  0
   36.2551   13.2103  -15.1237 C   0  0  0  0  0  0  0  0  0  0  0  0
   37.5681   13.3427  -15.2521 N   0  0  0  0  0  0  0  0  0  0  0  0
   38.2388   12.5476  -16.0161 C   0  0  0  0  0  0  0  0  0  0  0  0
   39.7172   12.6335  -16.1982 C   0  0  0  0  0  0  0  0  0  0  0  0
   40.3632   13.0293  -15.0397 C   0  0  0  0  0  0  0  0  0  0  0  0
   35.2732   13.9531  -14.3335 C   0  0  0  0  0  0  0  0  0  0  0  0
   35.6845   14.8799  -13.3684 N   0  0  0  0  0  0  0  0  0  0  0  0
   34.0437   13.7382  -14.5488 O   0  0  0  0  0  0  0  0  0  0  0  0
   36.1740   15.8060  -13.5785 H   0  0  0  0  0  0  0  0  0  0  0  0
   35.5175   14.6980  -12.3463 H   0  0  0  0  0  0  0  0  0  0  0  0
   43.1063   13.6121  -12.8031 C   0  0  0  0  0  0  0  0  0  0  0  0
   42.4625   13.4261  -13.7984 C   0  0  0  0  0  0  0  0  0  0  0  0
   44.6410   15.1433  -11.6579 C   0  0  0  0  0  0  0  0  0  0  0  0
   43.9499   13.7682  -11.6423 C   0  0  0  0  0  0  0  0  0  0  0  0
   43.1812   13.7835  -10.4508 O   0  0  0  0  0  0  0  0  0  0  0  0
   42.2420   13.5807  -10.7194 H   0  0  0  0  0  0  0  0  0  0  0  0
   44.9644   12.7324  -11.4861 C   0  0  0  0  0  0  0  0  0  0  0  0
   45.0409   11.7858  -10.5750 N   0  0  0  0  0  0  0  0  0  0  0  0
   46.0647   10.9042  -10.5755 C   0  0  0  0  0  0  0  0  0  0  0  0
   47.0919   10.9463  -11.5367 C   0  0  0  0  0  0  0  0  0  0  0  0
   46.9983   11.9458  -12.4874 C   0  0  0  0  0  0  0  0  0  0  0  0
   45.9715   12.7846  -12.4387 N   0  0  0  0  0  0  0  0  0  0  0  0
 24 25  1  0  0  0
 25 26  1  0  0  0
 25 22  1  0  0  0
 22 23  3  0  0  0
 23  1  1  0  0  0
  1  2  2  0  0  0
  2  3  1  0  0  0
  3  4  2  0  0  0
  4  5  1  0  0  0
  5  6  1  0  0  0
  6  7  1  0  0  0
  7  8  1  0  0  0
  7  9  1  0  0  0
  7 10  1  0  0  0
 10 11  1  0  0  0
 11 12  1  0  0  0
 12 13  2  0  0  0
 13 14  1  0  0  0
 14 15  1  0  0  0
 15 16  2  0  0  0
 12 17  1  0  0  0
 17 18  1  0  0  0
 17 19  2  0  0  0
 25 28  1  0  0  0
 28 29  2  0  0  0
 29 30  1  0  0  0
 30 31  2  0  0  0
 31 32  1  0  0  0
 32 33  2  0  0  0
 16  1  1  0  0  0
 33 28  1  0  0  0
 15  4  1  0  0  0
 14 10  2  0  0  0
 26 27  1  0  0  0
 18 20  1  0  0  0
 18 21  1  0  0  0
M  END
> <minimizedAffinity>
-8.42130

> <CNNscore>
0.4050272405

> <CNNaffinity>
6.8040437698

> <CNN_VS>
2.7558231354

> <CNNaffinity_variance>
0.3625890613

$$$$
[H]O[C@](C#Cc1c([H])c([H])c2c(c1[H])-c1nc(C(=O)N([H])[H])sc1C(F)(F)C([H])([H])O2)(c1nc([H])c([H])c([H])n1)C([H])([H])[H]


 33 36  0  0  0  0  0  0  0  0999 V2000
   42.0472   13.2075  -14.6977 C   0  0  0  0  0  0  0  0  0  0  0  0
   42.7521   12.9252  -15.8458 C   0  0  0  0  0  0  0  0  0  0  0  0
   42.1529   12.5686  -17.0509 C   0  0  0  0  0  0  0  0  0  0  0  0
   40.8012   12.5023  -17.0760 C   0  0  0  0  0  0  0  0  0  0  0  0
   40.2500   12.1322  -18.3160 O   0  0  0  0  0  0  0  0  0  0  0  0
   39.1576   11.3158  -18.6468 C   0  0  0  0  0  0  0  0  0  0  0  0
   38.4087   10.7100  -17.4964 C   0  0  0  0  0  0  0  0  0  0  0  0
   37.3900    9.9089  -17.9227 F   0  0  0  0  0  0  0  0  0  0  0  0
   39.3449    9.9572  -16.7753 F   0  0  0  0  0  0  0  0  0  0  0  0
   37.8622   11.7462  -16.5408 C   0  0  0  0  0  0  0  0  0  0  0  0
   36.2708   12.0492  -16.0535 S   0  0  0  0  0  0  0  0  0  0  0  0
   36.5689   13.3666  -14.9621 C   0  0  0  0  0  0  0  0  0  0  0  0
   37.8867   13.4868  -15.0474 N   0  0  0  0  0  0  0  0  0  0  0  0
   38.5709   12.7067  -15.8148 C   0  0  0  0  0  0  0  0  0  0  0  0
   40.0550   12.7799  -15.9503 C   0  0  0  0  0  0  0  0  0  0  0  0
   40.6704   13.1333  -14.7618 C   0  0  0  0  0  0  0  0  0  0  0  0
   35.5723   14.0976  -14.1793 C   0  0  0  0  0  0  0  0  0  0  0  0
   35.9629   15.0750  -13.2566 N   0  0  0  0  0  0  0  0  0  0  0  0
   34.3488   13.8253  -14.3620 O   0  0  0  0  0  0  0  0  0  0  0  0
   36.4099   16.0118  -13.5096 H   0  0  0  0  0  0  0  0  0  0  0  0
   35.8227   14.9240  -12.2255 H   0  0  0  0  0  0  0  0  0  0  0  0
   43.2322   13.6812  -12.3761 C   0  0  0  0  0  0  0  0  0  0  0  0
   42.7359   13.4674  -13.4474 C   0  0  0  0  0  0  0  0  0  0  0  0
   43.0565   15.1355  -10.4100 C   0  0  0  0  0  0  0  0  0  0  0  0
   43.7393   13.9107  -11.0443 C   0  0  0  0  0  0  0  0  0  0  0  0
   43.4002   12.8410  -10.1775 O   0  0  0  0  0  0  0  0  0  0  0  0
   42.9717   12.1426  -10.7467 H   0  0  0  0  0  0  0  0  0  0  0  0
   45.1851   14.0845  -10.9675 C   0  0  0  0  0  0  0  0  0  0  0  0
   46.0732   14.0315  -11.9372 N   0  0  0  0  0  0  0  0  0  0  0  0
   47.3880   14.2116  -11.6839 C   0  0  0  0  0  0  0  0  0  0  0  0
   47.8757   14.4637  -10.3879 C   0  0  0  0  0  0  0  0  0  0  0  0
   46.9314   14.5167   -9.3794 C   0  0  0  0  0  0  0  0  0  0  0  0
   45.6537   14.3318   -9.6854 N   0  0  0  0  0  0  0  0  0  0  0  0
 24 25  1  0  0  0
 25 26  1  0  0  0
 25 22  1  0  0  0
 22 23  3  0  0  0
 23  1  1  0  0  0
  1  2  2  0  0  0
  2  3  1  0  0  0
  3  4  2  0  0  0
  4  5  1  0  0  0
  5  6  1  0  0  0
  6  7  1  0  0  0
  7  8  1  0  0  0
  7  9  1  0  0  0
  7 10  1  0  0  0
 10 11  1  0  0  0
 11 12  1  0  0  0
 12 13  2  0  0  0
 13 14  1  0  0  0
 14 15  1  0  0  0
 15 16  2  0  0  0
 12 17  1  0  0  0
 17 18  1  0  0  0
 17 19  2  0  0  0
 25 28  1  0  0  0
 28 29  2  0  0  0
 29 30  1  0  0  0
 30 31  2  0  0  0
 31 32  1  0  0  0
 32 33  2  0  0  0
 16  1  1  0  0  0
 33 28  1  0  0  0
 15  4  1  0  0  0
 14 10  2  0  0  0
 26 27  1  0  0  0
 18 20  1  0  0  0
 18 21  1  0  0  0
M  END
> <minimizedAffinity>
-8.15762

> <CNNscore>
0.3549317420

> <CNNaffinity>
6.6313629150

> <CNN_VS>
2.3536810875

> <CNNaffinity_variance>
0.3501411080

$$$$
[H]O[C@](C#Cc1c([H])c([H])c2c(c1[H])-c1nc(C(=O)N([H])[H])sc1C(F)(F)C([H])([H])O2)(c1nc([H])c([H])c([H])n1)C([H])([H])[H]


 33 36  0  0  0  0  0  0  0  0999 V2000
   42.0963   13.1770  -14.8081 C   0  0  0  0  0  0  0  0  0  0  0  0
   42.7723   12.8828  -15.9705 C   0  0  0  0  0  0  0  0  0  0  0  0
   42.1429   12.5205  -17.1584 C   0  0  0  0  0  0  0  0  0  0  0  0
   40.7907   12.4610  -17.1510 C   0  0  0  0  0  0  0  0  0  0  0  0
   40.2084   12.0847  -18.3748 O   0  0  0  0  0  0  0  0  0  0  0  0
   39.1044   11.2716  -18.6736 C   0  0  0  0  0  0  0  0  0  0  0  0
   38.3801   10.6780  -17.5014 C   0  0  0  0  0  0  0  0  0  0  0  0
   37.3476    9.8790  -17.8974 F   0  0  0  0  0  0  0  0  0  0  0  0
   39.3294    9.9256  -16.7971 F   0  0  0  0  0  0  0  0  0  0  0  0
   37.8615   11.7239  -16.5407 C   0  0  0  0  0  0  0  0  0  0  0  0
   36.2837   12.0385  -16.0181 S   0  0  0  0  0  0  0  0  0  0  0  0
   36.6142   13.3622  -14.9437 C   0  0  0  0  0  0  0  0  0  0  0  0
   37.9301   13.4751  -15.0612 N   0  0  0  0  0  0  0  0  0  0  0  0
   38.5921   12.6859  -15.8387 C   0  0  0  0  0  0  0  0  0  0  0  0
   40.0728   12.7506  -16.0100 C   0  0  0  0  0  0  0  0  0  0  0  0
   40.7180   13.1094  -14.8390 C   0  0  0  0  0  0  0  0  0  0  0  0
   35.6400   14.1039  -14.1430 C   0  0  0  0  0  0  0  0  0  0  0  0
   36.0558   15.1000  -13.2517 N   0  0  0  0  0  0  0  0  0  0  0  0
   34.4125   13.8236  -14.2809 O   0  0  0  0  0  0  0  0  0  0  0  0
   36.4903   16.0336  -13.5364 H   0  0  0  0  0  0  0  0  0  0  0  0
   35.9496   14.9678  -12.2140 H   0  0  0  0  0  0  0  0  0  0  0  0
   43.3440   13.7016  -12.5307 C   0  0  0  0  0  0  0  0  0  0  0  0
   42.8158   13.4424  -13.5764 C   0  0  0  0  0  0  0  0  0  0  0  0
   44.5466   12.8073  -10.5903 C   0  0  0  0  0  0  0  0  0  0  0  0
   43.8861   14.0384  -11.2360 C   0  0  0  0  0  0  0  0  0  0  0  0
   44.9447   14.9744  -11.3535 O   0  0  0  0  0  0  0  0  0  0  0  0
   44.9801   15.2398  -12.3146 H   0  0  0  0  0  0  0  0  0  0  0  0
   42.9182   14.5991  -10.3005 C   0  0  0  0  0  0  0  0  0  0  0  0
   42.7028   14.2718   -9.0441 N   0  0  0  0  0  0  0  0  0  0  0  0
   41.7505   14.8975   -8.3182 C   0  0  0  0  0  0  0  0  0  0  0  0
   40.9472   15.9206   -8.8555 C   0  0  0  0  0  0  0  0  0  0  0  0
   41.1848   16.2538  -10.1762 C   0  0  0  0  0  0  0  0  0  0  0  0
   42.1322   15.6059  -10.8417 N   0  0  0  0  0  0  0  0  0  0  0  0
 24 25  1  0  0  0
 25 26  1  0  0  0
 25 22  1  0  0  0
 22 23  3  0  0  0
 23  1  1  0  0  0
  1  2  2  0  0  0
  2  3  1  0  0  0
  3  4  2  0  0  0
  4  5  1  0  0  0
  5  6  1  0  0  0
  6  7  1  0  0  0
  7  8  1  0  0  0
  7  9  1  0  0  0
  7 10  1  0  0  0
 10 11  1  0  0  0
 11 12  1  0  0  0
 12 13  2  0  0  0
 13 14  1  0  0  0
 14 15  1  0  0  0
 15 16  2  0  0  0
 12 17  1  0  0  0
 17 18  1  0  0  0
 17 19  2  0  0  0
 25 28  1  0  0  0
 28 29  2  0  0  0
 29 30  1  0  0  0
 30 31  2  0  0  0
 31 32  1  0  0  0
 32 33  2  0  0  0
 16  1  1  0  0  0
 33 28  1  0  0  0
 15  4  1  0  0  0
 14 10  2  0  0  0
 26 27  1  0  0  0
 18 20  1  0  0  0
 18 21  1  0  0  0
M  END
> <minimizedAffinity>
-8.33153

> <CNNscore>
0.2587377727

> <CNNaffinity>
6.6513037682

> <CNN_VS>
1.7209435701

> <CNNaffinity_variance>
0.2507518232

$$$$
[H]O[C@](C#Cc1c([H])c([H])c2c(c1[H])-c1nc(C(=O)N([H])[H])sc1C(F)(F)C([H])([H])O2)(c1nc([H])c([H])c([H])n1)C([H])([H])[H]


 33 36  0  0  0  0  0  0  0  0999 V2000
   36.7634   14.6842  -12.0706 C   0  0  0  0  0  0  0  0  0  0  0  0
   35.5739   14.0022  -11.9489 C   0  0  0  0  0  0  0  0  0  0  0  0
   35.2207   12.9184  -12.7484 C   0  0  0  0  0  0  0  0  0  0  0  0
   36.1096   12.5273  -13.6912 C   0  0  0  0  0  0  0  0  0  0  0  0
   35.6992   11.4324  -14.4731 O   0  0  0  0  0  0  0  0  0  0  0  0
   35.8574   11.1472  -15.8380 C   0  0  0  0  0  0  0  0  0  0  0  0
   36.5989   12.1692  -16.6485 C   0  0  0  0  0  0  0  0  0  0  0  0
   36.6686   11.8165  -17.9645 F   0  0  0  0  0  0  0  0  0  0  0  0
   35.8883   13.3685  -16.5076 F   0  0  0  0  0  0  0  0  0  0  0  0
   37.9938   12.4320  -16.1278 C   0  0  0  0  0  0  0  0  0  0  0  0
   39.4928   12.2710  -16.8948 S   0  0  0  0  0  0  0  0  0  0  0  0
   40.5191   12.7881  -15.5928 C   0  0  0  0  0  0  0  0  0  0  0  0
   39.6301   13.0519  -14.6450 N   0  0  0  0  0  0  0  0  0  0  0  0
   38.3681   12.8922  -14.8629 C   0  0  0  0  0  0  0  0  0  0  0  0
   37.3145   13.1794  -13.8462 C   0  0  0  0  0  0  0  0  0  0  0  0
   37.6467   14.2548  -13.0404 C   0  0  0  0  0  0  0  0  0  0  0  0
   41.9784   12.8893  -15.6157 C   0  0  0  0  0  0  0  0  0  0  0  0
   42.6919   12.6820  -16.8020 N   0  0  0  0  0  0  0  0  0  0  0  0
   42.5768   13.1729  -14.5359 O   0  0  0  0  0  0  0  0  0  0  0  0
   42.6623   13.3252  -17.6545 H   0  0  0  0  0  0  0  0  0  0  0  0
   43.3214   11.8465  -16.9088 H   0  0  0  0  0  0  0  0  0  0  0  0
   37.2557   16.8044  -10.5604 C   0  0  0  0  0  0  0  0  0  0  0  0
   37.0239   15.8718  -11.2788 C   0  0  0  0  0  0  0  0  0  0  0  0
   39.0212   17.7070   -9.1183 C   0  0  0  0  0  0  0  0  0  0  0  0
   37.5777   17.8597   -9.6297 C   0  0  0  0  0  0  0  0  0  0  0  0
   37.5721   19.1247  -10.2704 O   0  0  0  0  0  0  0  0  0  0  0  0
   37.2447   18.9680  -11.1997 H   0  0  0  0  0  0  0  0  0  0  0  0
   36.6794   17.9536   -8.4849 C   0  0  0  0  0  0  0  0  0  0  0  0
   36.2148   16.9874   -7.7217 N   0  0  0  0  0  0  0  0  0  0  0  0
   35.3774   17.2558   -6.6960 C   0  0  0  0  0  0  0  0  0  0  0  0
   34.9613   18.5647   -6.3887 C   0  0  0  0  0  0  0  0  0  0  0  0
   35.4574   19.5694   -7.1988 C   0  0  0  0  0  0  0  0  0  0  0  0
   36.2759   19.2482   -8.1923 N   0  0  0  0  0  0  0  0  0  0  0  0
 24 25  1  0  0  0
 25 26  1  0  0  0
 25 22  1  0  0  0
 22 23  3  0  0  0
 23  1  1  0  0  0
  1  2  2  0  0  0
  2  3  1  0  0  0
  3  4  2  0  0  0
  4  5  1  0  0  0
  5  6  1  0  0  0
  6  7  1  0  0  0
  7  8  1  0  0  0
  7  9  1  0  0  0
  7 10  1  0  0  0
 10 11  1  0  0  0
 11 12  1  0  0  0
 12 13  2  0  0  0
 13 14  1  0  0  0
 14 15  1  0  0  0
 15 16  2  0  0  0
 12 17  1  0  0  0
 17 18  1  0  0  0
 17 19  2  0  0  0
 25 28  1  0  0  0
 28 29  2  0  0  0
 29 30  1  0  0  0
 30 31  2  0  0  0
 31 32  1  0  0  0
 32 33  2  0  0  0
 16  1  1  0  0  0
 33 28  1  0  0  0
 15  4  1  0  0  0
 14 10  2  0  0  0
 26 27  1  0  0  0
 18 20  1  0  0  0
 18 21  1  0  0  0
M  END
> <minimizedAffinity>
-7.04043

> <CNNscore>
0.2339173108

> <CNNaffinity>
6.4332914352

> <CNN_VS>
1.5048582554

> <CNNaffinity_variance>
0.3575635552

$$$$
[H]O[C@](C#Cc1c([H])c([H])c2c(c1[H])-c1nc(C(=O)N([H])[H])sc1C(F)(F)C([H])([H])O2)(c1nc([H])c([H])c([H])n1)C([H])([H])[H]


 33 36  0  0  0  0  0  0  0  0999 V2000
   38.1873   15.0305  -10.6102 C   0  0  0  0  0  0  0  0  0  0  0  0
   39.3643   15.6858  -10.8931 C   0  0  0  0  0  0  0  0  0  0  0  0
   39.9180   15.7612  -12.1683 C   0  0  0  0  0  0  0  0  0  0  0  0
   39.2468   15.1516  -13.1732 C   0  0  0  0  0  0  0  0  0  0  0  0
   39.8538   15.2545  -14.4380 O   0  0  0  0  0  0  0  0  0  0  0  0
   39.9742   14.3384  -15.4941 C   0  0  0  0  0  0  0  0  0  0  0  0
   39.3508   12.9907  -15.2787 C   0  0  0  0  0  0  0  0  0  0  0  0
   39.5520   12.1648  -16.3457 F   0  0  0  0  0  0  0  0  0  0  0  0
   39.9600   12.4580  -14.1349 F   0  0  0  0  0  0  0  0  0  0  0  0
   37.8707   13.0693  -14.9806 C   0  0  0  0  0  0  0  0  0  0  0  0
   36.5561   12.3832  -15.7946 S   0  0  0  0  0  0  0  0  0  0  0  0
   35.2750   12.9646  -14.7764 C   0  0  0  0  0  0  0  0  0  0  0  0
   35.9519   13.6557  -13.8695 N   0  0  0  0  0  0  0  0  0  0  0  0
   37.2387   13.7357  -13.9279 C   0  0  0  0  0  0  0  0  0  0  0  0
   38.0625   14.4865  -12.9360 C   0  0  0  0  0  0  0  0  0  0  0  0
   37.5285   14.4237  -11.6605 C   0  0  0  0  0  0  0  0  0  0  0  0
   33.8438   12.7075  -14.9373 C   0  0  0  0  0  0  0  0  0  0  0  0
   32.8945   13.5385  -14.3308 N   0  0  0  0  0  0  0  0  0  0  0  0
   33.4879   11.7170  -15.6421 O   0  0  0  0  0  0  0  0  0  0  0  0
   32.7127   14.5568  -14.5979 H   0  0  0  0  0  0  0  0  0  0  0  0
   32.2874   13.1777  -13.5518 H   0  0  0  0  0  0  0  0  0  0  0  0
   37.2831   14.7286   -8.1384 C   0  0  0  0  0  0  0  0  0  0  0  0
   37.7206   14.8972   -9.2429 C   0  0  0  0  0  0  0  0  0  0  0  0
   35.2579   14.9301   -6.7713 C   0  0  0  0  0  0  0  0  0  0  0  0
   36.7143   14.4379   -6.8441 C   0  0  0  0  0  0  0  0  0  0  0  0
   36.6153   13.0393   -6.6323 O   0  0  0  0  0  0  0  0  0  0  0  0
   37.0638   12.6045   -7.4102 H   0  0  0  0  0  0  0  0  0  0  0  0
   37.4560   14.9919   -5.7174 C   0  0  0  0  0  0  0  0  0  0  0  0
   38.0988   16.1375   -5.6385 N   0  0  0  0  0  0  0  0  0  0  0  0
   38.7449   16.4935   -4.5066 C   0  0  0  0  0  0  0  0  0  0  0  0
   38.7661   15.6724   -3.3637 C   0  0  0  0  0  0  0  0  0  0  0  0
   38.0865   14.4722   -3.4611 C   0  0  0  0  0  0  0  0  0  0  0  0
   37.4701   14.1734   -4.5974 N   0  0  0  0  0  0  0  0  0  0  0  0
 24 25  1  0  0  0
 25 26  1  0  0  0
 25 22  1  0  0  0
 22 23  3  0  0  0
 23  1  1  0  0  0
  1  2  2  0  0  0
  2  3  1  0  0  0
  3  4  2  0  0  0
  4  5  1  0  0  0
  5  6  1  0  0  0
  6  7  1  0  0  0
  7  8  1  0  0  0
  7  9  1  0  0  0
  7 10  1  0  0  0
 10 11  1  0  0  0
 11 12  1  0  0  0
 12 13  2  0  0  0
 13 14  1  0  0  0
 14 15  1  0  0  0
 15 16  2  0  0  0
 12 17  1  0  0  0
 17 18  1  0  0  0
 17 19  2  0  0  0
 25 28  1  0  0  0
 28 29  2  0  0  0
 29 30  1  0  0  0
 30 31  2  0  0  0
 31 32  1  0  0  0
 32 33  2  0  0  0
 16  1  1  0  0  0
 33 28  1  0  0  0
 15  4  1  0  0  0
 14 10  2  0  0  0
 26 27  1  0  0  0
 18 20  1  0  0  0
 18 21  1  0  0  0
M  END
> <minimizedAffinity>
-8.09006

> <CNNscore>
0.2017421126

> <CNNaffinity>
6.1645555496

> <CNN_VS>
1.2436504364

> <CNNaffinity_variance>
0.1763918549

$$$$
[H]O[C@](C#Cc1c([H])c([H])c2c(c1[H])-c1nc(C(=O)N([H])[H])sc1C(F)(F)C([H])([H])O2)(c1nc([H])c([H])c([H])n1)C([H])([H])[H]


 33 36  0  0  0  0  0  0  0  0999 V2000
   38.3859   15.2308  -10.8407 C   0  0  0  0  0  0  0  0  0  0  0  0
   39.5527   15.8542  -11.2212 C   0  0  0  0  0  0  0  0  0  0  0  0
   40.0566   15.8224  -12.5188 C   0  0  0  0  0  0  0  0  0  0  0  0
   39.3454   15.1367  -13.4440 C   0  0  0  0  0  0  0  0  0  0  0  0
   39.9030   15.1329  -14.7353 O   0  0  0  0  0  0  0  0  0  0  0  0
   39.9800   14.1332  -15.7170 C   0  0  0  0  0  0  0  0  0  0  0  0
   39.3621   12.8111  -15.3685 C   0  0  0  0  0  0  0  0  0  0  0  0
   39.5196   11.8999  -16.3716 F   0  0  0  0  0  0  0  0  0  0  0  0
   40.0139   12.3699  -14.2094 F   0  0  0  0  0  0  0  0  0  0  0  0
   37.8949   12.9220  -15.0211 C   0  0  0  0  0  0  0  0  0  0  0  0
   36.5479   12.1794  -15.7251 S   0  0  0  0  0  0  0  0  0  0  0  0
   35.3088   12.8491  -14.7092 C   0  0  0  0  0  0  0  0  0  0  0  0
   36.0221   13.6078  -13.8885 N   0  0  0  0  0  0  0  0  0  0  0  0
   37.3059   13.6756  -14.0027 C   0  0  0  0  0  0  0  0  0  0  0  0
   38.1695   14.5000  -13.1078 C   0  0  0  0  0  0  0  0  0  0  0  0
   37.6853   14.5442  -11.8118 C   0  0  0  0  0  0  0  0  0  0  0  0
   33.8718   12.5878  -14.7933 C   0  0  0  0  0  0  0  0  0  0  0  0
   32.9496   13.4629  -14.2075 N   0  0  0  0  0  0  0  0  0  0  0  0
   33.4857   11.5526  -15.4128 O   0  0  0  0  0  0  0  0  0  0  0  0
   32.7586   14.4611  -14.5367 H   0  0  0  0  0  0  0  0  0  0  0  0
   32.3743   13.1595  -13.3813 H   0  0  0  0  0  0  0  0  0  0  0  0
   37.6832   15.2579   -8.2866 C   0  0  0  0  0  0  0  0  0  0  0  0
   37.9724   15.2119   -9.4502 C   0  0  0  0  0  0  0  0  0  0  0  0
   38.4074   14.6376   -6.0278 C   0  0  0  0  0  0  0  0  0  0  0  0
   37.3829   15.4049   -6.8824 C   0  0  0  0  0  0  0  0  0  0  0  0
   37.5298   16.7528   -6.4673 O   0  0  0  0  0  0  0  0  0  0  0  0
   37.7132   17.2829   -7.2923 H   0  0  0  0  0  0  0  0  0  0  0  0
   36.0403   14.9817   -6.5017 C   0  0  0  0  0  0  0  0  0  0  0  0
   34.9316   15.0261   -7.2094 N   0  0  0  0  0  0  0  0  0  0  0  0
   33.7611   14.5930   -6.6921 C   0  0  0  0  0  0  0  0  0  0  0  0
   33.6621   14.0761   -5.3868 C   0  0  0  0  0  0  0  0  0  0  0  0
   34.8347   14.0354   -4.6553 C   0  0  0  0  0  0  0  0  0  0  0  0
   35.9554   14.4747   -5.2133 N   0  0  0  0  0  0  0  0  0  0  0  0
 24 25  1  0  0  0
 25 26  1  0  0  0
 25 22  1  0  0  0
 22 23  3  0  0  0
 23  1  1  0  0  0
  1  2  2  0  0  0
  2  3  1  0  0  0
  3  4  2  0  0  0
  4  5  1  0  0  0
  5  6  1  0  0  0
  6  7  1  0  0  0
  7  8  1  0  0  0
  7  9  1  0  0  0
  7 10  1  0  0  0
 10 11  1  0  0  0
 11 12  1  0  0  0
 12 13  2  0  0  0
 13 14  1  0  0  0
 14 15  1  0  0  0
 15 16  2  0  0  0
 12 17  1  0  0  0
 17 18  1  0  0  0
 17 19  2  0  0  0
 25 28  1  0  0  0
 28 29  2  0  0  0
 29 30  1  0  0  0
 30 31  2  0  0  0
 31 32  1  0  0  0
 32 33  2  0  0  0
 16  1  1  0  0  0
 33 28  1  0  0  0
 15  4  1  0  0  0
 14 10  2  0  0  0
 26 27  1  0  0  0
 18 20  1  0  0  0
 18 21  1  0  0  0
M  END
> <minimizedAffinity>
-7.92678

> <CNNscore>
0.1691274494

> <CNNaffinity>
6.1438245773

> <CNN_VS>
1.0390893221

> <CNNaffinity_variance>
0.1700943261

$$$$
[H]O[C@](C#Cc1c([H])c([H])c2c(c1[H])-c1nc(C(=O)N([H])[H])sc1C(F)(F)C([H])([H])O2)(c1nc([H])c([H])c([H])n1)C([H])([H])[H]


 33 36  0  0  0  0  0  0  0  0999 V2000
   41.2084   13.2635  -14.8684 C   0  0  0  0  0  0  0  0  0  0  0  0
   41.8748   13.1093  -16.0629 C   0  0  0  0  0  0  0  0  0  0  0  0
   43.2591   13.1873  -16.1897 C   0  0  0  0  0  0  0  0  0  0  0  0
   43.9726   13.4274  -15.0648 C   0  0  0  0  0  0  0  0  0  0  0  0
   45.3647   13.5017  -15.2517 O   0  0  0  0  0  0  0  0  0  0  0  0
   46.3414   14.3315  -14.6801 C   0  0  0  0  0  0  0  0  0  0  0  0
   45.8555   15.3352  -13.6763 C   0  0  0  0  0  0  0  0  0  0  0  0
   46.8730   16.1134  -13.2069 F   0  0  0  0  0  0  0  0  0  0  0  0
   44.9108   16.1268  -14.3427 F   0  0  0  0  0  0  0  0  0  0  0  0
   45.1359   14.6976  -12.5095 C   0  0  0  0  0  0  0  0  0  0  0  0
   45.4704   14.7654  -10.8527 S   0  0  0  0  0  0  0  0  0  0  0  0
   44.1602   13.7842  -10.2725 C   0  0  0  0  0  0  0  0  0  0  0  0
   43.5474   13.4662  -11.4046 N   0  0  0  0  0  0  0  0  0  0  0  0
   43.9923   13.8955  -12.5375 C   0  0  0  0  0  0  0  0  0  0  0  0
   43.3467   13.5852  -13.8463 C   0  0  0  0  0  0  0  0  0  0  0  0
   41.9689   13.5034  -13.7418 C   0  0  0  0  0  0  0  0  0  0  0  0
   43.8684   13.4486   -8.8788 C   0  0  0  0  0  0  0  0  0  0  0  0
   42.6588   12.8377   -8.5277 N   0  0  0  0  0  0  0  0  0  0  0  0
   44.7399   13.7216   -8.0011 O   0  0  0  0  0  0  0  0  0  0  0  0
   42.3742   11.8438   -8.7970 H   0  0  0  0  0  0  0  0  0  0  0  0
   41.9458   13.3539   -7.9525 H   0  0  0  0  0  0  0  0  0  0  0  0
   38.5640   13.2583  -14.7088 C   0  0  0  0  0  0  0  0  0  0  0  0
   39.7583   13.2779  -14.8225 C   0  0  0  0  0  0  0  0  0  0  0  0
   36.8458   12.7378  -13.0390 C   0  0  0  0  0  0  0  0  0  0  0  0
   37.1409   13.2202  -14.4704 C   0  0  0  0  0  0  0  0  0  0  0  0
   36.5803   14.5218  -14.5168 O   0  0  0  0  0  0  0  0  0  0  0  0
   37.3137   15.1338  -14.8049 H   0  0  0  0  0  0  0  0  0  0  0  0
   36.3905   12.3951  -15.4100 C   0  0  0  0  0  0  0  0  0  0  0  0
   36.8056   11.8324  -16.5249 N   0  0  0  0  0  0  0  0  0  0  0  0
   35.9646   11.0981  -17.2857 C   0  0  0  0  0  0  0  0  0  0  0  0
   34.6170   10.8949  -16.9342 C   0  0  0  0  0  0  0  0  0  0  0  0
   34.1952   11.4919  -15.7606 C   0  0  0  0  0  0  0  0  0  0  0  0
   35.0639   12.2026  -15.0531 N   0  0  0  0  0  0  0  0  0  0  0  0
 24 25  1  0  0  0
 25 26  1  0  0  0
 25 22  1  0  0  0
 22 23  3  0  0  0
 23  1  1  0  0  0
  1  2  2  0  0  0
  2  3  1  0  0  0
  3  4  2  0  0  0
  4  5  1  0  0  0
  5  6  1  0  0  0
  6  7  1  0  0  0
  7  8  1  0  0  0
  7  9  1  0  0  0
  7 10  1  0  0  0
 10 11  1  0  0  0
 11 12  1  0  0  0
 12 13  2  0  0  0
 13 14  1  0  0  0
 14 15  1  0  0  0
 15 16  2  0  0  0
 12 17  1  0  0  0
 17 18  1  0  0  0
 17 19  2  0  0  0
 25 28  1  0  0  0
 28 29  2  0  0  0
 29 30  1  0  0  0
 30 31  2  0  0  0
 31 32  1  0  0  0
 32 33  2  0  0  0
 16  1  1  0  0  0
 33 28  1  0  0  0
 15  4  1  0  0  0
 14 10  2  0  0  0
 26 27  1  0  0  0
 18 20  1  0  0  0
 18 21  1  0  0  0
M  END
> <minimizedAffinity>
-8.38731

> <CNNscore>
0.1222111061

> <CNNaffinity>
6.0412673950

> <CNN_VS>
0.7383099794

> <CNNaffinity_variance>
0.0596952550

$$$$
[H]O[C@@]([H])(c1c([H])c([H])nn1C([H])([H])[H])c1c(C(=O)N([H])[H])nc2n1C1([H])C([H])([H])C([H])(c3c([H])c([H])c(C#C[C@@](O[H])(c4noc(C([H])([H])[H])c4[H])C([H])([H])[H])c([H])c3-2)C1([H])[H]


 41 46  0  0  0  0  0  0  0  0999 V2000
   38.9731   14.8594  -12.9203 C   0  0  0  0  0  0  0  0  0  0  0  0
   39.0660   15.6955  -11.8097 C   0  0  0  0  0  0  0  0  0  0  0  0
   40.3114   16.0832  -11.3582 C   0  0  0  0  0  0  0  0  0  0  0  0
   41.4220   15.6398  -12.0071 C   0  0  0  0  0  0  0  0  0  0  0  0
   42.7190   16.2287  -11.4829 C   0  0  0  0  0  0  0  0  0  0  0  0
   43.8005   15.1881  -11.4917 C   0  0  0  0  0  0  0  0  0  0  0  0
   44.2945   15.6387  -12.8997 C   0  0  0  0  0  0  0  0  0  0  0  0
   43.4476   16.8604  -12.6963 C   0  0  0  0  0  0  0  0  0  0  0  0
   43.7762   14.6805  -13.8571 N   0  0  0  0  0  0  0  0  0  0  0  0
   42.4739   14.2644  -13.9112 C   0  0  0  0  0  0  0  0  0  0  0  0
   42.3790   13.3325  -14.8410 N   0  0  0  0  0  0  0  0  0  0  0  0
   43.6232   13.1513  -15.3904 C   0  0  0  0  0  0  0  0  0  0  0  0
   44.5041   14.0045  -14.7731 C   0  0  0  0  0  0  0  0  0  0  0  0
   41.3671   14.8066  -13.1062 C   0  0  0  0  0  0  0  0  0  0  0  0
   40.1201   14.4150  -13.5618 C   0  0  0  0  0  0  0  0  0  0  0  0
   43.9126   12.1564  -16.4296 C   0  0  0  0  0  0  0  0  0  0  0  0
   43.0008   11.9607  -17.4883 N   0  0  0  0  0  0  0  0  0  0  0  0
   44.9658   11.4646  -16.3855 O   0  0  0  0  0  0  0  0  0  0  0  0
   42.6169   12.7482  -18.0477 H   0  0  0  0  0  0  0  0  0  0  0  0
   42.6334   11.0070  -17.8021 H   0  0  0  0  0  0  0  0  0  0  0  0
   45.9252   14.1902  -15.0486 C   0  0  0  0  0  0  0  0  0  0  0  0
   46.3754   15.5234  -14.9004 O   0  0  0  0  0  0  0  0  0  0  0  0
   45.7983   16.1494  -15.4097 H   0  0  0  0  0  0  0  0  0  0  0  0
   46.8484   13.3239  -14.3013 C   0  0  0  0  0  0  0  0  0  0  0  0
   46.7179   12.7340  -13.0816 C   0  0  0  0  0  0  0  0  0  0  0  0
   47.8617   12.0069  -12.8265 C   0  0  0  0  0  0  0  0  0  0  0  0
   48.6410   12.1826  -13.9017 N   0  0  0  0  0  0  0  0  0  0  0  0
   48.0524   12.9669  -14.7926 N   0  0  0  0  0  0  0  0  0  0  0  0
   48.6330   13.3587  -16.0759 C   0  0  0  0  0  0  0  0  0  0  0  0
   36.6308   14.1982  -13.9073 C   0  0  0  0  0  0  0  0  0  0  0  0
   37.6962   14.5351  -13.4859 C   0  0  0  0  0  0  0  0  0  0  0  0
   35.3059   13.6921  -14.3844 C   0  0  0  0  0  0  0  0  0  0  0  0
   34.6865   13.0126  -13.1892 C   0  0  0  0  0  0  0  0  0  0  0  0
   34.5465   14.6437  -14.9802 O   0  0  0  0  0  0  0  0  0  0  0  0
   35.0090   15.4686  -15.2760 H   0  0  0  0  0  0  0  0  0  0  0  0
   37.4079   10.5782  -17.8371 C   0  0  0  0  0  0  0  0  0  0  0  0
   36.5211   11.2834  -16.8808 C   0  0  0  0  0  0  0  0  0  0  0  0
   36.7754   12.3737  -16.0621 C   0  0  0  0  0  0  0  0  0  0  0  0
   35.6240   12.6158  -15.3960 C   0  0  0  0  0  0  0  0  0  0  0  0
   34.7309   11.6825  -15.8259 N   0  0  0  0  0  0  0  0  0  0  0  0
   35.2677   10.9113  -16.6923 O   0  0  0  0  0  0  0  0  0  0  0  0
 36 37  1  0  0  0
 37 38  2  0  0  0
 38 39  1  0  0  0
 39 40  2  0  0  0
 40 41  1  0  0  0
 39 32  1  0  0  0
 32 33  1  0  0  0
 32 34  1  0  0  0
 32 30  1  0  0  0
 30 31  3  0  0  0
 31  1  1  0  0  0
  1  2  2  0  0  0
  2  3  1  0  0  0
  3  4  2  0  0  0
  4  5  1  0  0  0
  5  6  1  0  0  0
  6  7  1  0  0  0
  7  8  1  0  0  0
  7  9  1  0  0  0
  9 10  1  0  0  0
 10 11  2  0  0  0
 11 12  1  0  0  0
 12 16  1  0  0  0
 16 17  1  0  0  0
 16 18  2  0  0  0
 12 13  2  0  0  0
 13 21  1  0  0  0
 21 22  1  0  0  0
 21 24  1  0  0  0
 24 25  2  0  0  0
 25 26  1  0  0  0
 26 27  2  0  0  0
 27 28  1  0  0  0
 28 29  1  0  0  0
 10 14  1  0  0  0
 14 15  2  0  0  0
 41 37  1  0  0  0
 15  1  1  0  0  0
 14  4  1  0  0  0
  8  5  1  0  0  0
 13  9  1  0  0  0
 28 24  1  0  0  0
 34 35  1  0  0  0
 17 19  1  0  0  0
 17 20  1  0  0  0
 22 23  1  0  0  0
M  END
> <minimizedAffinity>
-9.53995

> <CNNscore>
0.2479289323

> <CNNaffinity>
6.9771928787

> <CNN_VS>
1.7298480272

> <CNNaffinity_variance>
0.0904683024

$$$$
[H]O[C@@]([H])(c1c([H])c([H])nn1C([H])([H])[H])c1c(C(=O)N([H])[H])nc2n1C1([H])C([H])([H])C([H])(c3c([H])c([H])c(C#C[C@@](O[H])(c4noc(C([H])([H])[H])c4[H])C([H])([H])[H])c([H])c3-2)C1([H])[H]


 41 46  0  0  0  0  0  0  0  0999 V2000
   39.8798   12.7317  -15.2259 C   0  0  0  0  0  0  0  0  0  0  0  0
   38.9656   11.9968  -15.9779 C   0  0  0  0  0  0  0  0  0  0  0  0
   37.6370   11.9860  -15.6038 C   0  0  0  0  0  0  0  0  0  0  0  0
   37.2486   12.6927  -14.5080 C   0  0  0  0  0  0  0  0  0  0  0  0
   35.7492   12.6907  -14.2724 C   0  0  0  0  0  0  0  0  0  0  0  0
   35.4566   12.6112  -12.8025 C   0  0  0  0  0  0  0  0  0  0  0  0
   35.3609   14.1625  -12.6847 C   0  0  0  0  0  0  0  0  0  0  0  0
   35.3069   14.1735  -14.1840 C   0  0  0  0  0  0  0  0  0  0  0  0
   36.6103   14.6214  -12.1085 N   0  0  0  0  0  0  0  0  0  0  0  0
   37.8510   14.2445  -12.5451 C   0  0  0  0  0  0  0  0  0  0  0  0
   38.7497   14.7818  -11.7417 N   0  0  0  0  0  0  0  0  0  0  0  0
   38.0856   15.5107  -10.7874 C   0  0  0  0  0  0  0  0  0  0  0  0
   36.7362   15.4134  -11.0209 C   0  0  0  0  0  0  0  0  0  0  0  0
   38.1277   13.4264  -13.7373 C   0  0  0  0  0  0  0  0  0  0  0  0
   39.4611   13.4395  -14.1087 C   0  0  0  0  0  0  0  0  0  0  0  0
   38.7607   16.2155   -9.6914 C   0  0  0  0  0  0  0  0  0  0  0  0
   39.1134   17.5734   -9.8411 N   0  0  0  0  0  0  0  0  0  0  0  0
   39.0388   15.6200   -8.6155 O   0  0  0  0  0  0  0  0  0  0  0  0
   38.4402   18.2919  -10.1745 H   0  0  0  0  0  0  0  0  0  0  0  0
   40.0815   17.9741   -9.6289 H   0  0  0  0  0  0  0  0  0  0  0  0
   35.6447   16.0470  -10.2882 C   0  0  0  0  0  0  0  0  0  0  0  0
   34.3655   15.8339  -10.8541 O   0  0  0  0  0  0  0  0  0  0  0  0
   34.3648   16.0604  -11.8201 H   0  0  0  0  0  0  0  0  0  0  0  0
   35.5553   15.7284   -8.8557 C   0  0  0  0  0  0  0  0  0  0  0  0
   35.3608   14.5388   -8.2235 C   0  0  0  0  0  0  0  0  0  0  0  0
   35.3657   14.7645   -6.8630 C   0  0  0  0  0  0  0  0  0  0  0  0
   35.5644   16.0816   -6.7225 N   0  0  0  0  0  0  0  0  0  0  0  0
   35.6792   16.6737   -7.9021 N   0  0  0  0  0  0  0  0  0  0  0  0
   35.9013   18.1048   -8.1022 C   0  0  0  0  0  0  0  0  0  0  0  0
   42.3994   12.9589  -15.9316 C   0  0  0  0  0  0  0  0  0  0  0  0
   41.2419   12.8607  -15.6543 C   0  0  0  0  0  0  0  0  0  0  0  0
   43.8693   13.0839  -16.1824 C   0  0  0  0  0  0  0  0  0  0  0  0
   44.2513   11.8347  -16.9356 C   0  0  0  0  0  0  0  0  0  0  0  0
   44.2200   14.2551  -16.7674 O   0  0  0  0  0  0  0  0  0  0  0  0
   43.5587   14.9921  -16.7313 H   0  0  0  0  0  0  0  0  0  0  0  0
   45.1535   13.4273  -11.2560 C   0  0  0  0  0  0  0  0  0  0  0  0
   45.0761   13.1537  -12.7112 C   0  0  0  0  0  0  0  0  0  0  0  0
   44.0945   13.4861  -13.6329 C   0  0  0  0  0  0  0  0  0  0  0  0
   44.5205   13.0025  -14.8214 C   0  0  0  0  0  0  0  0  0  0  0  0
   45.7208   12.4062  -14.5826 N   0  0  0  0  0  0  0  0  0  0  0  0
   46.0331   12.5017  -13.3469 O   0  0  0  0  0  0  0  0  0  0  0  0
 36 37  1  0  0  0
 37 38  2  0  0  0
 38 39  1  0  0  0
 39 40  2  0  0  0
 40 41  1  0  0  0
 39 32  1  0  0  0
 32 33  1  0  0  0
 32 34  1  0  0  0
 32 30  1  0  0  0
 30 31  3  0  0  0
 31  1  1  0  0  0
  1  2  2  0  0  0
  2  3  1  0  0  0
  3  4  2  0  0  0
  4  5  1  0  0  0
  5  6  1  0  0  0
  6  7  1  0  0  0
  7  8  1  0  0  0
  7  9  1  0  0  0
  9 10  1  0  0  0
 10 11  2  0  0  0
 11 12  1  0  0  0
 12 16  1  0  0  0
 16 17  1  0  0  0
 16 18  2  0  0  0
 12 13  2  0  0  0
 13 21  1  0  0  0
 21 22  1  0  0  0
 21 24  1  0  0  0
 24 25  2  0  0  0
 25 26  1  0  0  0
 26 27  2  0  0  0
 27 28  1  0  0  0
 28 29  1  0  0  0
 10 14  1  0  0  0
 14 15  2  0  0  0
 41 37  1  0  0  0
 15  1  1  0  0  0
 14  4  1  0  0  0
  8  5  1  0  0  0
 13  9  1  0  0  0
 28 24  1  0  0  0
 34 35  1  0  0  0
 17 19  1  0  0  0
 17 20  1  0  0  0
 22 23  1  0  0  0
M  END
> <minimizedAffinity>
-9.66216

> <CNNscore>
0.1768696755

> <CNNaffinity>
6.2788691521

> <CNN_VS>
1.1105415821

> <CNNaffinity_variance>
0.5325971246

$$$$
[H]O[C@@]([H])(c1c([H])c([H])nn1C([H])([H])[H])c1c(C(=O)N([H])[H])nc2n1C1([H])C([H])([H])C([H])(c3c([H])c([H])c(C#C[C@@](O[H])(c4noc(C([H])([H])[H])c4[H])C([H])([H])[H])c([H])c3-2)C1([H])[H]


 41 46  0  0  0  0  0  0  0  0999 V2000
   36.7832   14.4968  -11.6502 C   0  0  0  0  0  0  0  0  0  0  0  0
   38.0420   15.0306  -11.9178 C   0  0  0  0  0  0  0  0  0  0  0  0
   38.7487   15.6378  -10.8994 C   0  0  0  0  0  0  0  0  0  0  0  0
   38.2004   15.7028   -9.6559 C   0  0  0  0  0  0  0  0  0  0  0  0
   39.1237   16.2908   -8.6046 C   0  0  0  0  0  0  0  0  0  0  0  0
   38.3432   17.1488   -7.6521 C   0  0  0  0  0  0  0  0  0  0  0  0
   38.1508   15.9624   -6.6596 C   0  0  0  0  0  0  0  0  0  0  0  0
   39.2098   15.2562   -7.4538 C   0  0  0  0  0  0  0  0  0  0  0  0
   36.8016   15.4654   -6.8502 N   0  0  0  0  0  0  0  0  0  0  0  0
   36.2465   15.1742   -8.0663 C   0  0  0  0  0  0  0  0  0  0  0  0
   34.9869   14.8319   -7.8712 N   0  0  0  0  0  0  0  0  0  0  0  0
   34.7315   14.8985   -6.5247 C   0  0  0  0  0  0  0  0  0  0  0  0
   35.8772   15.2938   -5.8797 C   0  0  0  0  0  0  0  0  0  0  0  0
   36.9542   15.1900   -9.3571 C   0  0  0  0  0  0  0  0  0  0  0  0
   36.2420   14.5807  -10.3756 C   0  0  0  0  0  0  0  0  0  0  0  0
   33.4147   14.6289   -5.9357 C   0  0  0  0  0  0  0  0  0  0  0  0
   32.3499   15.5285   -6.1537 N   0  0  0  0  0  0  0  0  0  0  0  0
   33.2221   13.6038   -5.2272 O   0  0  0  0  0  0  0  0  0  0  0  0
   32.0939   15.8721   -7.1008 H   0  0  0  0  0  0  0  0  0  0  0  0
   31.7262   15.9265   -5.3820 H   0  0  0  0  0  0  0  0  0  0  0  0
   36.0929   15.4682   -4.4469 C   0  0  0  0  0  0  0  0  0  0  0  0
   37.0235   14.5621   -3.8858 O   0  0  0  0  0  0  0  0  0  0  0  0
   36.7983   13.6276   -4.1315 H   0  0  0  0  0  0  0  0  0  0  0  0
   36.4693   16.8200   -4.0083 C   0  0  0  0  0  0  0  0  0  0  0  0
   37.6903   17.3521   -3.7277 C   0  0  0  0  0  0  0  0  0  0  0  0
   37.5160   18.6716   -3.3662 C   0  0  0  0  0  0  0  0  0  0  0  0
   36.1966   18.8892   -3.4430 N   0  0  0  0  0  0  0  0  0  0  0  0
   35.5554   17.7943   -3.8243 N   0  0  0  0  0  0  0  0  0  0  0  0
   34.1083   17.6920   -4.0052 C   0  0  0  0  0  0  0  0  0  0  0  0
   35.4783   13.2102  -13.5317 C   0  0  0  0  0  0  0  0  0  0  0  0
   36.0754   13.7562  -12.6533 C   0  0  0  0  0  0  0  0  0  0  0  0
   34.7128   12.6151  -14.6714 C   0  0  0  0  0  0  0  0  0  0  0  0
   33.9863   11.4304  -14.0861 C   0  0  0  0  0  0  0  0  0  0  0  0
   33.9407   13.5126  -15.3311 O   0  0  0  0  0  0  0  0  0  0  0  0
   34.1438   14.4718  -15.1885 H   0  0  0  0  0  0  0  0  0  0  0  0
   38.9667   11.3608  -17.1948 C   0  0  0  0  0  0  0  0  0  0  0  0
   37.5777   11.5413  -16.7086 C   0  0  0  0  0  0  0  0  0  0  0  0
   37.1002   12.2176  -15.5958 C   0  0  0  0  0  0  0  0  0  0  0  0
   35.7560   12.0752  -15.6218 C   0  0  0  0  0  0  0  0  0  0  0  0
   35.4723   11.3326  -16.7269 N   0  0  0  0  0  0  0  0  0  0  0  0
   36.5446   11.0278  -17.3521 O   0  0  0  0  0  0  0  0  0  0  0  0
 36 37  1  0  0  0
 37 38  2  0  0  0
 38 39  1  0  0  0
 39 40  2  0  0  0
 40 41  1  0  0  0
 39 32  1  0  0  0
 32 33  1  0  0  0
 32 34  1  0  0  0
 32 30  1  0  0  0
 30 31  3  0  0  0
 31  1  1  0  0  0
  1  2  2  0  0  0
  2  3  1  0  0  0
  3  4  2  0  0  0
  4  5  1  0  0  0
  5  6  1  0  0  0
  6  7  1  0  0  0
  7  8  1  0  0  0
  7  9  1  0  0  0
  9 10  1  0  0  0
 10 11  2  0  0  0
 11 12  1  0  0  0
 12 16  1  0  0  0
 16 17  1  0  0  0
 16 18  2  0  0  0
 12 13  2  0  0  0
 13 21  1  0  0  0
 21 22  1  0  0  0
 21 24  1  0  0  0
 24 25  2  0  0  0
 25 26  1  0  0  0
 26 27  2  0  0  0
 27 28  1  0  0  0
 28 29  1  0  0  0
 10 14  1  0  0  0
 14 15  2  0  0  0
 41 37  1  0  0  0
 15  1  1  0  0  0
 14  4  1  0  0  0
  8  5  1  0  0  0
 13  9  1  0  0  0
 28 24  1  0  0  0
 34 35  1  0  0  0
 17 19  1  0  0  0
 17 20  1  0  0  0
 22 23  1  0  0  0
M  END
> <minimizedAffinity>
-7.72290

> <CNNscore>
0.1616427004

> <CNNaffinity>
6.0873327255

> <CNN_VS>
0.9839729071

> <CNNaffinity_variance>
0.1571745574

$$$$
[H]O[C@@]([H])(c1c([H])c([H])nn1C([H])([H])[H])c1c(C(=O)N([H])[H])nc2n1C1([H])C([H])([H])C([H])(c3c([H])c([H])c(C#C[C@@](O[H])(c4noc(C([H])([H])[H])c4[H])C([H])([H])[H])c([H])c3-2)C1([H])[H]


 41 46  0  0  0  0  0  0  0  0999 V2000
   43.3741   14.1975  -10.0024 C   0  0  0  0  0  0  0  0  0  0  0  0
   44.0254   13.6240   -8.9124 C   0  0  0  0  0  0  0  0  0  0  0  0
   43.4736   13.7491   -7.6534 C   0  0  0  0  0  0  0  0  0  0  0  0
   42.3055   14.4305   -7.5037 C   0  0  0  0  0  0  0  0  0  0  0  0
   41.7484   14.3970   -6.0922 C   0  0  0  0  0  0  0  0  0  0  0  0
   41.1388   15.7238   -5.7450 C   0  0  0  0  0  0  0  0  0  0  0  0
   39.7238   15.2502   -6.1956 C   0  0  0  0  0  0  0  0  0  0  0  0
   40.2968   13.8636   -6.1953 C   0  0  0  0  0  0  0  0  0  0  0  0
   39.4848   15.8192   -7.5081 N   0  0  0  0  0  0  0  0  0  0  0  0
   40.3688   15.7635   -8.5508 C   0  0  0  0  0  0  0  0  0  0  0  0
   39.8627   16.4536   -9.5555 N   0  0  0  0  0  0  0  0  0  0  0  0
   38.6467   16.9513   -9.1600 C   0  0  0  0  0  0  0  0  0  0  0  0
   38.4058   16.5478   -7.8700 C   0  0  0  0  0  0  0  0  0  0  0  0
   41.6369   15.0157   -8.5599 C   0  0  0  0  0  0  0  0  0  0  0  0
   42.1872   14.8932   -9.8241 C   0  0  0  0  0  0  0  0  0  0  0  0
   37.8097   17.8110  -10.0050 C   0  0  0  0  0  0  0  0  0  0  0  0
   36.7543   17.2478  -10.7529 N   0  0  0  0  0  0  0  0  0  0  0  0
   38.0264   19.0509  -10.0791 O   0  0  0  0  0  0  0  0  0  0  0  0
   36.0491   16.6107  -10.3318 H   0  0  0  0  0  0  0  0  0  0  0  0
   36.5900   17.4230  -11.7947 H   0  0  0  0  0  0  0  0  0  0  0  0
   37.2281   16.8060   -7.0477 C   0  0  0  0  0  0  0  0  0  0  0  0
   36.6604   15.6472   -6.4673 O   0  0  0  0  0  0  0  0  0  0  0  0
   36.5061   14.9479   -7.1541 H   0  0  0  0  0  0  0  0  0  0  0  0
   37.3896   17.8039   -5.9802 C   0  0  0  0  0  0  0  0  0  0  0  0
   38.0174   17.7184   -4.7755 C   0  0  0  0  0  0  0  0  0  0  0  0
   37.8994   18.9352   -4.1373 C   0  0  0  0  0  0  0  0  0  0  0  0
   37.2060   19.7121   -4.9798 N   0  0  0  0  0  0  0  0  0  0  0  0
   36.8923   19.0529   -6.0855 N   0  0  0  0  0  0  0  0  0  0  0  0
   36.1377   19.6104   -7.2067 C   0  0  0  0  0  0  0  0  0  0  0  0
   44.1967   13.8584  -12.4735 C   0  0  0  0  0  0  0  0  0  0  0  0
   43.8562   13.9852  -11.3359 C   0  0  0  0  0  0  0  0  0  0  0  0
   44.5417   13.7480  -13.9254 C   0  0  0  0  0  0  0  0  0  0  0  0
   44.9693   15.1337  -14.3384 C   0  0  0  0  0  0  0  0  0  0  0  0
   45.4220   12.7541  -14.1977 O   0  0  0  0  0  0  0  0  0  0  0  0
   45.5430   12.0573  -13.5036 H   0  0  0  0  0  0  0  0  0  0  0  0
   40.8301   12.3786  -17.1479 C   0  0  0  0  0  0  0  0  0  0  0  0
   41.6453   12.8727  -16.0124 C   0  0  0  0  0  0  0  0  0  0  0  0
   43.0215   12.8933  -15.8413 C   0  0  0  0  0  0  0  0  0  0  0  0
   43.2380   13.4534  -14.6300 C   0  0  0  0  0  0  0  0  0  0  0  0
   42.0101   13.7463  -14.1202 N   0  0  0  0  0  0  0  0  0  0  0  0
   41.0895   13.4022  -14.9373 O   0  0  0  0  0  0  0  0  0  0  0  0
 36 37  1  0  0  0
 37 38  2  0  0  0
 38 39  1  0  0  0
 39 40  2  0  0  0
 40 41  1  0  0  0
 39 32  1  0  0  0
 32 33  1  0  0  0
 32 34  1  0  0  0
 32 30  1  0  0  0
 30 31  3  0  0  0
 31  1  1  0  0  0
  1  2  2  0  0  0
  2  3  1  0  0  0
  3  4  2  0  0  0
  4  5  1  0  0  0
  5  6  1  0  0  0
  6  7  1  0  0  0
  7  8  1  0  0  0
  7  9  1  0  0  0
  9 10  1  0  0  0
 10 11  2  0  0  0
 11 12  1  0  0  0
 12 16  1  0  0  0
 16 17  1  0  0  0
 16 18  2  0  0  0
 12 13  2  0  0  0
 13 21  1  0  0  0
 21 22  1  0  0  0
 21 24  1  0  0  0
 24 25  2  0  0  0
 25 26  1  0  0  0
 26 27  2  0  0  0
 27 28  1  0  0  0
 28 29  1  0  0  0
 10 14  1  0  0  0
 14 15  2  0  0  0
 41 37  1  0  0  0
 15  1  1  0  0  0
 14  4  1  0  0  0
  8  5  1  0  0  0
 13  9  1  0  0  0
 28 24  1  0  0  0
 34 35  1  0  0  0
 17 19  1  0  0  0
 17 20  1  0  0  0
 22 23  1  0  0  0
M  END
> <minimizedAffinity>
-7.19511

> <CNNscore>
0.1348495334

> <CNNaffinity>
5.8874430656

> <CNN_VS>
0.7939189672

> <CNNaffinity_variance>
0.1324087232

$$$$
[H]O[C@@]([H])(c1c([H])c([H])nn1C([H])([H])[H])c1c(C(=O)N([H])[H])nc2n1C1([H])C([H])([H])C([H])(c3c([H])c([H])c(C#C[C@@](O[H])(c4noc(C([H])([H])[H])c4[H])C([H])([H])[H])c([H])c3-2)C1([H])[H]


 41 46  0  0  0  0  0  0  0  0999 V2000
   40.5654   13.3467  -15.0027 C   0  0  0  0  0  0  0  0  0  0  0  0
   41.1679   12.8948  -16.1749 C   0  0  0  0  0  0  0  0  0  0  0  0
   42.5452   12.8790  -16.2639 C   0  0  0  0  0  0  0  0  0  0  0  0
   43.2852   13.3059  -15.2051 C   0  0  0  0  0  0  0  0  0  0  0  0
   44.7818   13.1307  -15.3878 C   0  0  0  0  0  0  0  0  0  0  0  0
   45.5155   14.2987  -14.7960 C   0  0  0  0  0  0  0  0  0  0  0  0
   45.7068   13.5572  -13.4384 C   0  0  0  0  0  0  0  0  0  0  0  0
   45.2900   12.3161  -14.1711 C   0  0  0  0  0  0  0  0  0  0  0  0
   44.7200   14.0930  -12.5204 N   0  0  0  0  0  0  0  0  0  0  0  0
   43.3906   14.2396  -12.8090 C   0  0  0  0  0  0  0  0  0  0  0  0
   42.8108   14.8333  -11.7827 N   0  0  0  0  0  0  0  0  0  0  0  0
   43.7691   15.0656  -10.8285 C   0  0  0  0  0  0  0  0  0  0  0  0
   44.9728   14.5948  -11.2915 C   0  0  0  0  0  0  0  0  0  0  0  0
   42.7219   13.7651  -14.0316 C   0  0  0  0  0  0  0  0  0  0  0  0
   41.3410   13.7831  -13.9384 C   0  0  0  0  0  0  0  0  0  0  0  0
   43.4999   15.7549   -9.5612 C   0  0  0  0  0  0  0  0  0  0  0  0
   42.7939   15.0904   -8.5361 N   0  0  0  0  0  0  0  0  0  0  0  0
   43.8851   16.9412   -9.3772 O   0  0  0  0  0  0  0  0  0  0  0  0
   43.0481   14.1365   -8.2105 H   0  0  0  0  0  0  0  0  0  0  0  0
   41.9551   15.5003   -8.0152 H   0  0  0  0  0  0  0  0  0  0  0  0
   46.2637   14.5915  -10.6108 C   0  0  0  0  0  0  0  0  0  0  0  0
   47.0454   13.4377  -10.8552 O   0  0  0  0  0  0  0  0  0  0  0  0
   46.5191   12.6131  -10.6891 H   0  0  0  0  0  0  0  0  0  0  0  0
   47.1197   15.7646  -10.8396 C   0  0  0  0  0  0  0  0  0  0  0  0
   47.6298   16.2773  -11.9928 C   0  0  0  0  0  0  0  0  0  0  0  0
   48.3664   17.4004  -11.6798 C   0  0  0  0  0  0  0  0  0  0  0  0
   48.2735   17.5264  -10.3495 N   0  0  0  0  0  0  0  0  0  0  0  0
   47.5333   16.5578   -9.8306 N   0  0  0  0  0  0  0  0  0  0  0  0
   47.2349   16.4032   -8.4078 C   0  0  0  0  0  0  0  0  0  0  0  0
   37.9700   13.2316  -14.6172 C   0  0  0  0  0  0  0  0  0  0  0  0
   39.1441   13.2645  -14.8331 C   0  0  0  0  0  0  0  0  0  0  0  0
   36.5183   13.2202  -14.2547 C   0  0  0  0  0  0  0  0  0  0  0  0
   36.4375   12.4453  -12.9636 C   0  0  0  0  0  0  0  0  0  0  0  0
   35.9556   14.4530  -14.2380 O   0  0  0  0  0  0  0  0  0  0  0  0
   36.4463   15.1781  -14.7020 H   0  0  0  0  0  0  0  0  0  0  0  0
   33.3217   10.4924  -17.1491 C   0  0  0  0  0  0  0  0  0  0  0  0
   34.4750   11.2132  -16.5585 C   0  0  0  0  0  0  0  0  0  0  0  0
   34.5647   11.9496  -15.3866 C   0  0  0  0  0  0  0  0  0  0  0  0
   35.8418   12.3880  -15.3191 C   0  0  0  0  0  0  0  0  0  0  0  0
   36.4681   11.9115  -16.4300 N   0  0  0  0  0  0  0  0  0  0  0  0
   35.6587   11.2275  -17.1446 O   0  0  0  0  0  0  0  0  0  0  0  0
 36 37  1  0  0  0
 37 38  2  0  0  0
 38 39  1  0  0  0
 39 40  2  0  0  0
 40 41  1  0  0  0
 39 32  1  0  0  0
 32 33  1  0  0  0
 32 34  1  0  0  0
 32 30  1  0  0  0
 30 31  3  0  0  0
 31  1  1  0  0  0
  1  2  2  0  0  0
  2  3  1  0  0  0
  3  4  2  0  0  0
  4  5  1  0  0  0
  5  6  1  0  0  0
  6  7  1  0  0  0
  7  8  1  0  0  0
  7  9  1  0  0  0
  9 10  1  0  0  0
 10 11  2  0  0  0
 11 12  1  0  0  0
 12 16  1  0  0  0
 16 17  1  0  0  0
 16 18  2  0  0  0
 12 13  2  0  0  0
 13 21  1  0  0  0
 21 22  1  0  0  0
 21 24  1  0  0  0
 24 25  2  0  0  0
 25 26  1  0  0  0
 26 27  2  0  0  0
 27 28  1  0  0  0
 28 29  1  0  0  0
 10 14  1  0  0  0
 14 15  2  0  0  0
 41 37  1  0  0  0
 15  1  1  0  0  0
 14  4  1  0  0  0
  8  5  1  0  0  0
 13  9  1  0  0  0
 28 24  1  0  0  0
 34 35  1  0  0  0
 17 19  1  0  0  0
 17 20  1  0  0  0
 22 23  1  0  0  0
M  END
> <minimizedAffinity>
-8.06306

> <CNNscore>
0.1261587292

> <CNNaffinity>
6.3936109543

> <CNN_VS>
0.8066098094

> <CNNaffinity_variance>
0.0131340455

$$$$
[H]O[C@@]([H])(c1c([H])c([H])nn1C([H])([H])[H])c1c(C(=O)N([H])[H])nc2n1C1([H])C([H])([H])C([H])(c3c([H])c([H])c(C#C[C@@](O[H])(c4noc(C([H])([H])[H])c4[H])C([H])([H])[H])c([H])c3-2)C1([H])[H]


 41 46  0  0  0  0  0  0  0  0999 V2000
   43.6836   13.3639  -13.7329 C   0  0  0  0  0  0  0  0  0  0  0  0
   44.7622   13.2828  -14.6111 C   0  0  0  0  0  0  0  0  0  0  0  0
   46.0161   12.9870  -14.1156 C   0  0  0  0  0  0  0  0  0  0  0  0
   46.1720   12.7817  -12.7797 C   0  0  0  0  0  0  0  0  0  0  0  0
   47.5724   12.3532  -12.3807 C   0  0  0  0  0  0  0  0  0  0  0  0
   47.9580   12.9926  -11.0788 C   0  0  0  0  0  0  0  0  0  0  0  0
   47.4682   11.7556  -10.2666 C   0  0  0  0  0  0  0  0  0  0  0  0
   47.4271   11.0335  -11.5811 C   0  0  0  0  0  0  0  0  0  0  0  0
   46.1736   12.0997   -9.7105 N   0  0  0  0  0  0  0  0  0  0  0  0
   45.1436   12.6491  -10.4241 C   0  0  0  0  0  0  0  0  0  0  0  0
   44.1568   12.9086   -9.5870 N   0  0  0  0  0  0  0  0  0  0  0  0
   44.5509   12.5208   -8.3312 C   0  0  0  0  0  0  0  0  0  0  0  0
   45.8215   12.0064   -8.4092 C   0  0  0  0  0  0  0  0  0  0  0  0
   45.1274   12.8599  -11.8809 C   0  0  0  0  0  0  0  0  0  0  0  0
   43.8684   13.1568  -12.3737 C   0  0  0  0  0  0  0  0  0  0  0  0
   43.7246   12.6995   -7.1317 C   0  0  0  0  0  0  0  0  0  0  0  0
   42.8153   11.6912   -6.7483 N   0  0  0  0  0  0  0  0  0  0  0  0
   43.8100   13.7500   -6.4397 O   0  0  0  0  0  0  0  0  0  0  0  0
   43.0894   10.6914   -6.6717 H   0  0  0  0  0  0  0  0  0  0  0  0
   41.7879   11.8625   -6.5075 H   0  0  0  0  0  0  0  0  0  0  0  0
   46.6340   11.4396   -7.3376 C   0  0  0  0  0  0  0  0  0  0  0  0
   47.4443   10.3509   -7.7378 O   0  0  0  0  0  0  0  0  0  0  0  0
   46.9069    9.6684   -8.2172 H   0  0  0  0  0  0  0  0  0  0  0  0
   47.4894   12.3841   -6.6044 C   0  0  0  0  0  0  0  0  0  0  0  0
   48.5626   13.1118   -7.0182 C   0  0  0  0  0  0  0  0  0  0  0  0
   49.0164   13.8603   -5.9525 C   0  0  0  0  0  0  0  0  0  0  0  0
   48.2002   13.5590   -4.9341 N   0  0  0  0  0  0  0  0  0  0  0  0
   47.2824   12.6783   -5.3048 N   0  0  0  0  0  0  0  0  0  0  0  0
   46.2400   12.1386   -4.4333 C   0  0  0  0  0  0  0  0  0  0  0  0
   41.2135   13.6917  -14.5630 C   0  0  0  0  0  0  0  0  0  0  0  0
   42.3511   13.5509  -14.2279 C   0  0  0  0  0  0  0  0  0  0  0  0
   39.7613   13.8362  -14.8934 C   0  0  0  0  0  0  0  0  0  0  0  0
   39.0252   13.3259  -13.6803 C   0  0  0  0  0  0  0  0  0  0  0  0
   39.4225   15.0815  -15.3074 O   0  0  0  0  0  0  0  0  0  0  0  0
   40.1602   15.6748  -15.5999 H   0  0  0  0  0  0  0  0  0  0  0  0
   39.8109   11.0413  -19.1622 C   0  0  0  0  0  0  0  0  0  0  0  0
   39.5184   11.6646  -17.8491 C   0  0  0  0  0  0  0  0  0  0  0  0
   40.1932   12.6633  -17.1628 C   0  0  0  0  0  0  0  0  0  0  0  0
   39.5027   12.8598  -16.0172 C   0  0  0  0  0  0  0  0  0  0  0  0
   38.4552   11.9908  -16.0492 N   0  0  0  0  0  0  0  0  0  0  0  0
   38.4765   11.2994  -17.1239 O   0  0  0  0  0  0  0  0  0  0  0  0
 36 37  1  0  0  0
 37 38  2  0  0  0
 38 39  1  0  0  0
 39 40  2  0  0  0
 40 41  1  0  0  0
 39 32  1  0  0  0
 32 33  1  0  0  0
 32 34  1  0  0  0
 32 30  1  0  0  0
 30 31  3  0  0  0
 31  1  1  0  0  0
  1  2  2  0  0  0
  2  3  1  0  0  0
  3  4  2  0  0  0
  4  5  1  0  0  0
  5  6  1  0  0  0
  6  7  1  0  0  0
  7  8  1  0  0  0
  7  9  1  0  0  0
  9 10  1  0  0  0
 10 11  2  0  0  0
 11 12  1  0  0  0
 12 16  1  0  0  0
 16 17  1  0  0  0
 16 18  2  0  0  0
 12 13  2  0  0  0
 13 21  1  0  0  0
 21 22  1  0  0  0
 21 24  1  0  0  0
 24 25  2  0  0  0
 25 26  1  0  0  0
 26 27  2  0  0  0
 27 28  1  0  0  0
 28 29  1  0  0  0
 10 14  1  0  0  0
 14 15  2  0  0  0
 41 37  1  0  0  0
 15  1  1  0  0  0
 14  4  1  0  0  0
  8  5  1  0  0  0
 13  9  1  0  0  0
 28 24  1  0  0  0
 34 35  1  0  0  0
 17 19  1  0  0  0
 17 20  1  0  0  0
 22 23  1  0  0  0
M  END
> <minimizedAffinity>
-6.74406

> <CNNscore>
0.1148222908

> <CNNaffinity>
5.9765386581

> <CNN_VS>
0.6862398386

> <CNNaffinity_variance>
0.0707241148

$$$$
[H]O[C@@]([H])(c1c([H])c([H])nn1C([H])([H])[H])c1c(C(=O)N([H])[H])nc2n1C1([H])C([H])([H])C([H])(c3c([H])c([H])c(C#C[C@@](O[H])(c4noc(C([H])([H])[H])c4[H])C([H])([H])[H])c([H])c3-2)C1([H])[H]


 41 46  0  0  0  0  0  0  0  0999 V2000
   40.8553   15.4521  -12.3678 C   0  0  0  0  0  0  0  0  0  0  0  0
   40.0338   15.0017  -13.3991 C   0  0  0  0  0  0  0  0  0  0  0  0
   38.6692   14.9435  -13.1993 C   0  0  0  0  0  0  0  0  0  0  0  0
   38.1556   15.3266  -11.9991 C   0  0  0  0  0  0  0  0  0  0  0  0
   36.6386   15.3237  -11.9481 C   0  0  0  0  0  0  0  0  0  0  0  0
   36.1670   14.8433  -10.6067 C   0  0  0  0  0  0  0  0  0  0  0  0
   36.0717   16.3001  -10.0606 C   0  0  0  0  0  0  0  0  0  0  0  0
   36.2024   16.7384  -11.4895 C   0  0  0  0  0  0  0  0  0  0  0  0
   37.2450   16.5213   -9.2371 N   0  0  0  0  0  0  0  0  0  0  0  0
   38.5264   16.2297   -9.6177 C   0  0  0  0  0  0  0  0  0  0  0  0
   39.3245   16.4770   -8.5961 N   0  0  0  0  0  0  0  0  0  0  0  0
   38.5550   16.9335   -7.5558 C   0  0  0  0  0  0  0  0  0  0  0  0
   37.2436   16.9658   -7.9611 C   0  0  0  0  0  0  0  0  0  0  0  0
   38.9400   15.7721  -10.9544 C   0  0  0  0  0  0  0  0  0  0  0  0
   40.3090   15.8315  -11.1504 C   0  0  0  0  0  0  0  0  0  0  0  0
   39.0966   17.2681   -6.2336 C   0  0  0  0  0  0  0  0  0  0  0  0
   39.7112   18.5204   -6.0224 N   0  0  0  0  0  0  0  0  0  0  0  0
   39.0278   16.4452   -5.2807 O   0  0  0  0  0  0  0  0  0  0  0  0
   39.2647   19.4162   -6.3031 H   0  0  0  0  0  0  0  0  0  0  0  0
   40.6679   18.6556   -5.5648 H   0  0  0  0  0  0  0  0  0  0  0  0
   36.0761   17.4128   -7.2080 C   0  0  0  0  0  0  0  0  0  0  0  0
   36.0890   17.0404   -5.8430 O   0  0  0  0  0  0  0  0  0  0  0  0
   36.2637   16.0688   -5.7439 H   0  0  0  0  0  0  0  0  0  0  0  0
   35.7744   18.8502   -7.2735 C   0  0  0  0  0  0  0  0  0  0  0  0
   36.5452   19.8997   -7.6698 C   0  0  0  0  0  0  0  0  0  0  0  0
   35.7982   21.0535   -7.5573 C   0  0  0  0  0  0  0  0  0  0  0  0
   34.6031   20.6592   -7.0986 N   0  0  0  0  0  0  0  0  0  0  0  0
   34.5707   19.3465   -6.9226 N   0  0  0  0  0  0  0  0  0  0  0  0
   33.4160   18.5961   -6.4320 C   0  0  0  0  0  0  0  0  0  0  0  0
   43.4155   15.8717  -12.7768 C   0  0  0  0  0  0  0  0  0  0  0  0
   42.2609   15.6374  -12.5815 C   0  0  0  0  0  0  0  0  0  0  0  0
   44.8353   16.2542  -13.0541 C   0  0  0  0  0  0  0  0  0  0  0  0
   45.5869   15.9376  -11.7858 C   0  0  0  0  0  0  0  0  0  0  0  0
   45.3326   15.7014  -14.1872 O   0  0  0  0  0  0  0  0  0  0  0  0
   44.6775   15.3387  -14.8361 H   0  0  0  0  0  0  0  0  0  0  0  0
   43.7019   21.1660  -13.8459 C   0  0  0  0  0  0  0  0  0  0  0  0
   44.3451   19.8631  -13.5508 C   0  0  0  0  0  0  0  0  0  0  0  0
   43.8076   18.5847  -13.5285 C   0  0  0  0  0  0  0  0  0  0  0  0
   44.8272   17.7576  -13.2059 C   0  0  0  0  0  0  0  0  0  0  0  0
   45.9242   18.5479  -13.0472 N   0  0  0  0  0  0  0  0  0  0  0  0
   45.6287   19.7746  -13.2514 O   0  0  0  0  0  0  0  0  0  0  0  0
 36 37  1  0  0  0
 37 38  2  0  0  0
 38 39  1  0  0  0
 39 40  2  0  0  0
 40 41  1  0  0  0
 39 32  1  0  0  0
 32 33  1  0  0  0
 32 34  1  0  0  0
 32 30  1  0  0  0
 30 31  3  0  0  0
 31  1  1  0  0  0
  1  2  2  0  0  0
  2  3  1  0  0  0
  3  4  2  0  0  0
  4  5  1  0  0  0
  5  6  1  0  0  0
  6  7  1  0  0  0
  7  8  1  0  0  0
  7  9  1  0  0  0
  9 10  1  0  0  0
 10 11  2  0  0  0
 11 12  1  0  0  0
 12 16  1  0  0  0
 16 17  1  0  0  0
 16 18  2  0  0  0
 12 13  2  0  0  0
 13 21  1  0  0  0
 21 22  1  0  0  0
 21 24  1  0  0  0
 24 25  2  0  0  0
 25 26  1  0  0  0
 26 27  2  0  0  0
 27 28  1  0  0  0
 28 29  1  0  0  0
 10 14  1  0  0  0
 14 15  2  0  0  0
 41 37  1  0  0  0
 15  1  1  0  0  0
 14  4  1  0  0  0
  8  5  1  0  0  0
 13  9  1  0  0  0
 28 24  1  0  0  0
 34 35  1  0  0  0
 17 19  1  0  0  0
 17 20  1  0  0  0
 22 23  1  0  0  0
M  END
> <minimizedAffinity>
-7.54655

> <CNNscore>
0.1140002087

> <CNNaffinity>
5.6311616898

> <CNN_VS>
0.6419535875

> <CNNaffinity_variance>
0.4958871305

$$$$
[H]O[C@@]([H])(c1c([H])c([H])nn1C([H])([H])[H])c1c(C(=O)N([H])[H])nc2n1C1([H])C([H])([H])C([H])(c3c([H])c([H])c(C#C[C@@](O[H])(c4noc(C([H])([H])[H])c4[H])C([H])([H])[H])c([H])c3-2)C1([H])[H]


 41 46  0  0  0  0  0  0  0  0999 V2000
   41.5837   15.8567  -11.0900 C   0  0  0  0  0  0  0  0  0  0  0  0
   40.9443   15.9361  -12.3253 C   0  0  0  0  0  0  0  0  0  0  0  0
   39.5682   15.8432  -12.3810 C   0  0  0  0  0  0  0  0  0  0  0  0
   38.8656   15.6751  -11.2281 C   0  0  0  0  0  0  0  0  0  0  0  0
   37.3595   15.7026  -11.4139 C   0  0  0  0  0  0  0  0  0  0  0  0
   36.7082   14.6964  -10.5106 C   0  0  0  0  0  0  0  0  0  0  0  0
   36.4790   15.7651   -9.3994 C   0  0  0  0  0  0  0  0  0  0  0  0
   36.8082   16.7841  -10.4503 C   0  0  0  0  0  0  0  0  0  0  0  0
   37.5056   15.5596   -8.3958 N   0  0  0  0  0  0  0  0  0  0  0  0
   38.8395   15.4216   -8.6670 C   0  0  0  0  0  0  0  0  0  0  0  0
   39.4645   15.1649   -7.5333 N   0  0  0  0  0  0  0  0  0  0  0  0
   38.5307   15.1421   -6.5282 C   0  0  0  0  0  0  0  0  0  0  0  0
   37.2953   15.3954   -7.0711 C   0  0  0  0  0  0  0  0  0  0  0  0
   39.4666   15.5866   -9.9886 C   0  0  0  0  0  0  0  0  0  0  0  0
   40.8464   15.6788   -9.9285 C   0  0  0  0  0  0  0  0  0  0  0  0
   38.8539   14.8401   -5.1290 C   0  0  0  0  0  0  0  0  0  0  0  0
   39.6761   15.7187   -4.3923 N   0  0  0  0  0  0  0  0  0  0  0  0
   38.4119   13.7972   -4.5750 O   0  0  0  0  0  0  0  0  0  0  0  0
   39.5067   16.7436   -4.3558 H   0  0  0  0  0  0  0  0  0  0  0  0
   40.5258   15.4148   -3.8191 H   0  0  0  0  0  0  0  0  0  0  0  0
   36.0121   15.5044   -6.3846 C   0  0  0  0  0  0  0  0  0  0  0  0
   35.6132   14.3264   -5.7099 O   0  0  0  0  0  0  0  0  0  0  0  0
   35.6628   13.5402   -6.3132 H   0  0  0  0  0  0  0  0  0  0  0  0
   35.8748   16.6243   -5.4420 C   0  0  0  0  0  0  0  0  0  0  0  0
   36.1051   16.6872   -4.1019 C   0  0  0  0  0  0  0  0  0  0  0  0
   35.8388   17.9715   -3.6757 C   0  0  0  0  0  0  0  0  0  0  0  0
   35.4589   18.6381   -4.7736 N   0  0  0  0  0  0  0  0  0  0  0  0
   35.4737   17.8493   -5.8379 N   0  0  0  0  0  0  0  0  0  0  0  0
   35.1128   18.2644   -7.1924 C   0  0  0  0  0  0  0  0  0  0  0  0
   44.1602   16.3265  -10.8934 C   0  0  0  0  0  0  0  0  0  0  0  0
   42.9978   16.0684  -10.9844 C   0  0  0  0  0  0  0  0  0  0  0  0
   45.5931   16.7451  -10.7900 C   0  0  0  0  0  0  0  0  0  0  0  0
   45.5968   17.9181   -9.8426 C   0  0  0  0  0  0  0  0  0  0  0  0
   46.4316   15.7286  -10.4725 O   0  0  0  0  0  0  0  0  0  0  0  0
   46.0894   14.8072  -10.5974 H   0  0  0  0  0  0  0  0  0  0  0  0
   47.4981   17.5878  -15.4481 C   0  0  0  0  0  0  0  0  0  0  0  0
   46.7803   17.6395  -14.1518 C   0  0  0  0  0  0  0  0  0  0  0  0
   46.7800   16.7436  -13.0931 C   0  0  0  0  0  0  0  0  0  0  0  0
   45.9603   17.2731  -12.1573 C   0  0  0  0  0  0  0  0  0  0  0  0
   45.5022   18.4473  -12.6717 N   0  0  0  0  0  0  0  0  0  0  0  0
   45.9887   18.6489  -13.8364 O   0  0  0  0  0  0  0  0  0  0  0  0
 36 37  1  0  0  0
 37 38  2  0  0  0
 38 39  1  0  0  0
 39 40  2  0  0  0
 40 41  1  0  0  0
 39 32  1  0  0  0
 32 33  1  0  0  0
 32 34  1  0  0  0
 32 30  1  0  0  0
 30 31  3  0  0  0
 31  1  1  0  0  0
  1  2  2  0  0  0
  2  3  1  0  0  0
  3  4  2  0  0  0
  4  5  1  0  0  0
  5  6  1  0  0  0
  6  7  1  0  0  0
  7  8  1  0  0  0
  7  9  1  0  0  0
  9 10  1  0  0  0
 10 11  2  0  0  0
 11 12  1  0  0  0
 12 16  1  0  0  0
 16 17  1  0  0  0
 16 18  2  0  0  0
 12 13  2  0  0  0
 13 21  1  0  0  0
 21 22  1  0  0  0
 21 24  1  0  0  0
 24 25  2  0  0  0
 25 26  1  0  0  0
 26 27  2  0  0  0
 27 28  1  0  0  0
 28 29  1  0  0  0
 10 14  1  0  0  0
 14 15  2  0  0  0
 41 37  1  0  0  0
 15  1  1  0  0  0
 14  4  1  0  0  0
  8  5  1  0  0  0
 13  9  1  0  0  0
 28 24  1  0  0  0
 34 35  1  0  0  0
 17 19  1  0  0  0
 17 20  1  0  0  0
 22 23  1  0  0  0
M  END
> <minimizedAffinity>
-6.32030

> <CNNscore>
0.1103582159

> <CNNaffinity>
5.6921758652

> <CNN_VS>
0.6281783581

> <CNNaffinity_variance>
0.2445548326

$$$$
[H]O[C@@]([H])(c1c([H])c([H])nn1C([H])([H])[H])c1c(C(=O)N([H])[H])nc2n1C1([H])C([H])([H])C([H])(c3c([H])c([H])c(C#C[C@@](O[H])(c4noc(C([H])([H])[H])c4[H])C([H])([H])[H])c([H])c3-2)C1([H])[H]


 41 46  0  0  0  0  0  0  0  0999 V2000
   40.4919   13.3842  -14.9361 C   0  0  0  0  0  0  0  0  0  0  0  0
   41.0876   12.9416  -16.1152 C   0  0  0  0  0  0  0  0  0  0  0  0
   42.4632   12.9647  -16.2271 C   0  0  0  0  0  0  0  0  0  0  0  0
   43.2080   13.4200  -15.1836 C   0  0  0  0  0  0  0  0  0  0  0  0
   44.7058   13.2865  -15.3901 C   0  0  0  0  0  0  0  0  0  0  0  0
   45.4152   14.4791  -14.8184 C   0  0  0  0  0  0  0  0  0  0  0  0
   45.6502   13.7529  -13.4593 C   0  0  0  0  0  0  0  0  0  0  0  0
   45.2573   12.4953  -14.1769 C   0  0  0  0  0  0  0  0  0  0  0  0
   44.6637   14.2666  -12.5285 N   0  0  0  0  0  0  0  0  0  0  0  0
   43.3261   14.3730  -12.7957 C   0  0  0  0  0  0  0  0  0  0  0  0
   42.7465   14.9570  -11.7638 N   0  0  0  0  0  0  0  0  0  0  0  0
   43.7133   15.2233  -10.8272 C   0  0  0  0  0  0  0  0  0  0  0  0
   44.9222   14.7840  -11.3073 C   0  0  0  0  0  0  0  0  0  0  0  0
   42.6512   13.8711  -14.0039 C   0  0  0  0  0  0  0  0  0  0  0  0
   41.2720   13.8501  -13.8878 C   0  0  0  0  0  0  0  0  0  0  0  0
   43.4453   15.9134   -9.5602 C   0  0  0  0  0  0  0  0  0  0  0  0
   42.5465   15.3503   -8.6298 N   0  0  0  0  0  0  0  0  0  0  0  0
   44.0032   17.0121   -9.2930 O   0  0  0  0  0  0  0  0  0  0  0  0
   42.6075   14.3587   -8.3240 H   0  0  0  0  0  0  0  0  0  0  0  0
   41.7425   15.8817   -8.1670 H   0  0  0  0  0  0  0  0  0  0  0  0
   46.2238   14.8225  -10.6482 C   0  0  0  0  0  0  0  0  0  0  0  0
   46.6026   16.1052  -10.1866 O   0  0  0  0  0  0  0  0  0  0  0  0
   46.5152   16.7801  -10.9087 H   0  0  0  0  0  0  0  0  0  0  0  0
   46.4165   13.8766   -9.5394 C   0  0  0  0  0  0  0  0  0  0  0  0
   46.0385   13.9533   -8.2340 C   0  0  0  0  0  0  0  0  0  0  0  0
   46.4455   12.8004   -7.5959 C   0  0  0  0  0  0  0  0  0  0  0  0
   47.0531   12.0685   -8.5389 N   0  0  0  0  0  0  0  0  0  0  0  0
   47.0460   12.6958   -9.7058 N   0  0  0  0  0  0  0  0  0  0  0  0
   47.6275   12.1725  -10.9409 C   0  0  0  0  0  0  0  0  0  0  0  0
   37.9000   13.2333  -14.5394 C   0  0  0  0  0  0  0  0  0  0  0  0
   39.0765   13.2624  -14.7422 C   0  0  0  0  0  0  0  0  0  0  0  0
   36.4374   13.2750  -14.2264 C   0  0  0  0  0  0  0  0  0  0  0  0
   36.2896   12.5360  -12.9203 C   0  0  0  0  0  0  0  0  0  0  0  0
   35.9130   14.5244  -14.2591 O   0  0  0  0  0  0  0  0  0  0  0  0
   36.4412   15.2222  -14.7236 H   0  0  0  0  0  0  0  0  0  0  0  0
   33.2742   10.5153  -17.1273 C   0  0  0  0  0  0  0  0  0  0  0  0
   34.4187   11.2484  -16.5348 C   0  0  0  0  0  0  0  0  0  0  0  0
   34.4992   11.9838  -15.3616 C   0  0  0  0  0  0  0  0  0  0  0  0
   35.7711   12.4368  -15.2926 C   0  0  0  0  0  0  0  0  0  0  0  0
   36.4035   11.9695  -16.4039 N   0  0  0  0  0  0  0  0  0  0  0  0
   35.6026   11.2774  -17.1202 O   0  0  0  0  0  0  0  0  0  0  0  0
 36 37  1  0  0  0
 37 38  2  0  0  0
 38 39  1  0  0  0
 39 40  2  0  0  0
 40 41  1  0  0  0
 39 32  1  0  0  0
 32 33  1  0  0  0
 32 34  1  0  0  0
 32 30  1  0  0  0
 30 31  3  0  0  0
 31  1  1  0  0  0
  1  2  2  0  0  0
  2  3  1  0  0  0
  3  4  2  0  0  0
  4  5  1  0  0  0
  5  6  1  0  0  0
  6  7  1  0  0  0
  7  8  1  0  0  0
  7  9  1  0  0  0
  9 10  1  0  0  0
 10 11  2  0  0  0
 11 12  1  0  0  0
 12 16  1  0  0  0
 16 17  1  0  0  0
 16 18  2  0  0  0
 12 13  2  0  0  0
 13 21  1  0  0  0
 21 22  1  0  0  0
 21 24  1  0  0  0
 24 25  2  0  0  0
 25 26  1  0  0  0
 26 27  2  0  0  0
 27 28  1  0  0  0
 28 29  1  0  0  0
 10 14  1  0  0  0
 14 15  2  0  0  0
 41 37  1  0  0  0
 15  1  1  0  0  0
 14  4  1  0  0  0
  8  5  1  0  0  0
 13  9  1  0  0  0
 28 24  1  0  0  0
 34 35  1  0  0  0
 17 19  1  0  0  0
 17 20  1  0  0  0
 22 23  1  0  0  0
M  END
> <minimizedAffinity>
-8.28283

> <CNNscore>
0.1040854231

> <CNNaffinity>
6.4258346558

> <CNN_VS>
0.6688356996

> <CNNaffinity_variance>
0.0113134822

$$$$
[H]OC(C#Cc1c([H])c2c(c([H])c1F)OC([H])([H])C([H])([H])n1c-2nc(C(=O)N([H])[H])c1-c1nc(C2([H])C([H])([H])C2([H])[H])nn1[H])(C([H])([H])[H])C([H])([H])[H]


 36 40  0  0  0  0  0  0  0  0999 V2000
   41.7299   16.0643  -12.1811 C   0  0  0  0  0  0  0  0  0  0  0  0
   41.3131   15.2661  -13.2515 C   0  0  0  0  0  0  0  0  0  0  0  0
   40.0552   14.7158  -13.2634 C   0  0  0  0  0  0  0  0  0  0  0  0
   39.7599   13.8784  -14.4403 C   0  0  0  0  0  0  0  0  0  0  0  0
   40.6991   13.6584  -15.3694 N   0  0  0  0  0  0  0  0  0  0  0  0
   40.1877   12.8182  -16.3470 C   0  0  0  0  0  0  0  0  0  0  0  0
   38.9034   12.5457  -15.9724 C   0  0  0  0  0  0  0  0  0  0  0  0
   38.6579   13.2127  -14.7861 N   0  0  0  0  0  0  0  0  0  0  0  0
   37.3807   13.1468  -14.1466 C   0  0  0  0  0  0  0  0  0  0  0  0
   37.0264   14.2683  -13.2262 C   0  0  0  0  0  0  0  0  0  0  0  0
   37.9014   14.4390  -12.1375 O   0  0  0  0  0  0  0  0  0  0  0  0
   39.2050   14.9618  -12.2029 C   0  0  0  0  0  0  0  0  0  0  0  0
   39.5718   15.7408  -11.1278 C   0  0  0  0  0  0  0  0  0  0  0  0
   40.8529   16.2770  -11.1567 C   0  0  0  0  0  0  0  0  0  0  0  0
   41.2608   17.0476  -10.1268 F   0  0  0  0  0  0  0  0  0  0  0  0
   37.8388   11.8217  -16.6674 C   0  0  0  0  0  0  0  0  0  0  0  0
   36.4974   12.0604  -16.4574 N   0  0  0  0  0  0  0  0  0  0  0  0
   35.8256   11.1780  -17.1681 C   0  0  0  0  0  0  0  0  0  0  0  0
   36.7045   10.4142  -17.8012 N   0  0  0  0  0  0  0  0  0  0  0  0
   37.9361   10.8099  -17.4947 N   0  0  0  0  0  0  0  0  0  0  0  0
   38.7470   10.3266  -17.9389 H   0  0  0  0  0  0  0  0  0  0  0  0
   34.3515   11.0101  -17.2869 C   0  0  0  0  0  0  0  0  0  0  0  0
   33.5289   11.0266  -16.0120 C   0  0  0  0  0  0  0  0  0  0  0  0
   33.7862    9.7261  -16.7151 C   0  0  0  0  0  0  0  0  0  0  0  0
   40.9694   12.3618  -17.4831 C   0  0  0  0  0  0  0  0  0  0  0  0
   42.3326   12.0579  -17.3482 N   0  0  0  0  0  0  0  0  0  0  0  0
   40.3748   12.2578  -18.6044 O   0  0  0  0  0  0  0  0  0  0  0  0
   42.7079   11.2291  -17.8443 H   0  0  0  0  0  0  0  0  0  0  0  0
   42.9874   12.6219  -16.7754 H   0  0  0  0  0  0  0  0  0  0  0  0
   44.1761   17.0379  -12.3458 C   0  0  0  0  0  0  0  0  0  0  0  0
   43.0590   16.5934  -12.2589 C   0  0  0  0  0  0  0  0  0  0  0  0
   46.4324   16.5748  -11.7188 C   0  0  0  0  0  0  0  0  0  0  0  0
   45.5584   17.5601  -12.4524 C   0  0  0  0  0  0  0  0  0  0  0  0
   45.9861   17.6443  -13.9005 C   0  0  0  0  0  0  0  0  0  0  0  0
   45.6920   18.8020  -11.8801 O   0  0  0  0  0  0  0  0  0  0  0  0
   45.1222   19.4858  -12.3134 H   0  0  0  0  0  0  0  0  0  0  0  0
 32 33  1  0  0  0
 33 34  1  0  0  0
 33 35  1  0  0  0
 33 30  1  0  0  0
 30 31  3  0  0  0
 31  1  1  0  0  0
  1  2  2  0  0  0
  2  3  1  0  0  0
  3  4  1  0  0  0
  4  5  2  0  0  0
  5  6  1  0  0  0
  6 25  1  0  0  0
 25 26  1  0  0  0
 25 27  2  0  0  0
  6  7  2  0  0  0
  7 16  1  0  0  0
 16 17  2  0  0  0
 17 18  1  0  0  0
 18 19  2  0  0  0
 19 20  1  0  0  0
 18 22  1  0  0  0
 22 23  1  0  0  0
 23 24  1  0  0  0
  7  8  1  0  0  0
  8  9  1  0  0  0
  9 10  1  0  0  0
 10 11  1  0  0  0
 11 12  1  0  0  0
 12 13  1  0  0  0
 13 14  2  0  0  0
 14 15  1  0  0  0
 14  1  1  0  0  0
 12  3  2  0  0  0
  8  4  1  0  0  0
 20 16  1  0  0  0
 24 22  1  0  0  0
 35 36  1  0  0  0
 26 28  1  0  0  0
 26 29  1  0  0  0
 20 21  1  0  0  0
M  END
> <minimizedAffinity>
-8.50963

> <CNNscore>
0.5755412579

> <CNNaffinity>
7.2219796181

> <CNN_VS>
4.1565470695

> <CNNaffinity_variance>
0.2118139267

$$$$
[H]OC(C#Cc1c([H])c2c(c([H])c1F)OC([H])([H])C([H])([H])n1c-2nc(C(=O)N([H])[H])c1-c1nc(C2([H])C([H])([H])C2([H])[H])nn1[H])(C([H])([H])[H])C([H])([H])[H]


 36 40  0  0  0  0  0  0  0  0999 V2000
   39.6188   12.1412  -16.4542 C   0  0  0  0  0  0  0  0  0  0  0  0
   38.7806   12.7832  -15.5366 C   0  0  0  0  0  0  0  0  0  0  0  0
   37.4207   12.5993  -15.5860 C   0  0  0  0  0  0  0  0  0  0  0  0
   36.6595   13.3553  -14.5750 C   0  0  0  0  0  0  0  0  0  0  0  0
   37.2882   14.1858  -13.7331 N   0  0  0  0  0  0  0  0  0  0  0  0
   36.3538   14.7981  -12.9113 C   0  0  0  0  0  0  0  0  0  0  0  0
   35.1398   14.3000  -13.2884 C   0  0  0  0  0  0  0  0  0  0  0  0
   35.3514   13.4068  -14.3228 N   0  0  0  0  0  0  0  0  0  0  0  0
   34.2672   12.6928  -14.9221 C   0  0  0  0  0  0  0  0  0  0  0  0
   34.6000   11.4085  -15.6078 C   0  0  0  0  0  0  0  0  0  0  0  0
   35.5109   11.5258  -16.6738 O   0  0  0  0  0  0  0  0  0  0  0  0
   36.8905   11.7699  -16.5550 C   0  0  0  0  0  0  0  0  0  0  0  0
   37.6764   11.1175  -17.4792 C   0  0  0  0  0  0  0  0  0  0  0  0
   39.0460   11.3322  -17.3930 C   0  0  0  0  0  0  0  0  0  0  0  0
   39.8597   10.7159  -18.2756 F   0  0  0  0  0  0  0  0  0  0  0  0
   33.8102   14.4806  -12.7050 C   0  0  0  0  0  0  0  0  0  0  0  0
   33.5320   15.4092  -11.7249 N   0  0  0  0  0  0  0  0  0  0  0  0
   32.2755   15.2391  -11.3682 C   0  0  0  0  0  0  0  0  0  0  0  0
   31.7798   14.2458  -12.0923 N   0  0  0  0  0  0  0  0  0  0  0  0
   32.7198   13.7832  -12.9107 N   0  0  0  0  0  0  0  0  0  0  0  0
   32.4784   13.0149  -13.5739 H   0  0  0  0  0  0  0  0  0  0  0  0
   31.4906   15.9866  -10.3481 C   0  0  0  0  0  0  0  0  0  0  0  0
   31.8221   15.7550   -8.8857 C   0  0  0  0  0  0  0  0  0  0  0  0
   30.5809   15.1494   -9.4728 C   0  0  0  0  0  0  0  0  0  0  0  0
   36.7126   15.7819  -11.9047 C   0  0  0  0  0  0  0  0  0  0  0  0
   36.1389   17.0624  -11.9075 N   0  0  0  0  0  0  0  0  0  0  0  0
   37.5720   15.4424  -11.0284 O   0  0  0  0  0  0  0  0  0  0  0  0
   35.8714   17.4886  -11.0015 H   0  0  0  0  0  0  0  0  0  0  0  0
   35.9678   17.6074  -12.7728 H   0  0  0  0  0  0  0  0  0  0  0  0
   42.1999   12.6195  -16.1940 C   0  0  0  0  0  0  0  0  0  0  0  0
   41.0226   12.3952  -16.3228 C   0  0  0  0  0  0  0  0  0  0  0  0
   43.8805   13.1189  -14.5739 C   0  0  0  0  0  0  0  0  0  0  0  0
   43.6439   12.9172  -16.0491 C   0  0  0  0  0  0  0  0  0  0  0  0
   44.4794   11.7595  -16.5478 C   0  0  0  0  0  0  0  0  0  0  0  0
   44.0128   14.0526  -16.7292 O   0  0  0  0  0  0  0  0  0  0  0  0
   43.8593   13.9808  -17.7045 H   0  0  0  0  0  0  0  0  0  0  0  0
 32 33  1  0  0  0
 33 34  1  0  0  0
 33 35  1  0  0  0
 33 30  1  0  0  0
 30 31  3  0  0  0
 31  1  1  0  0  0
  1  2  2  0  0  0
  2  3  1  0  0  0
  3  4  1  0  0  0
  4  5  2  0  0  0
  5  6  1  0  0  0
  6 25  1  0  0  0
 25 26  1  0  0  0
 25 27  2  0  0  0
  6  7  2  0  0  0
  7 16  1  0  0  0
 16 17  2  0  0  0
 17 18  1  0  0  0
 18 19  2  0  0  0
 19 20  1  0  0  0
 18 22  1  0  0  0
 22 23  1  0  0  0
 23 24  1  0  0  0
  7  8  1  0  0  0
  8  9  1  0  0  0
  9 10  1  0  0  0
 10 11  1  0  0  0
 11 12  1  0  0  0
 12 13  1  0  0  0
 13 14  2  0  0  0
 14 15  1  0  0  0
 14  1  1  0  0  0
 12  3  2  0  0  0
  8  4  1  0  0  0
 20 16  1  0  0  0
 24 22  1  0  0  0
 35 36  1  0  0  0
 26 28  1  0  0  0
 26 29  1  0  0  0
 20 21  1  0  0  0
M  END
> <minimizedAffinity>
-11.24237

> <CNNscore>
0.4723969102

> <CNNaffinity>
7.1777124405

> <CNN_VS>
3.3907291889

> <CNNaffinity_variance>
0.1179757714

$$$$
[H]OC(C#Cc1c([H])c2c(c([H])c1F)OC([H])([H])C([H])([H])n1c-2nc(C(=O)N([H])[H])c1-c1nc(C2([H])C([H])([H])C2([H])[H])nn1[H])(C([H])([H])[H])C([H])([H])[H]


 36 40  0  0  0  0  0  0  0  0999 V2000
   34.9024   13.1752  -14.1966 C   0  0  0  0  0  0  0  0  0  0  0  0
   36.2533   13.5271  -14.1067 C   0  0  0  0  0  0  0  0  0  0  0  0
   37.1912   12.9014  -14.8904 C   0  0  0  0  0  0  0  0  0  0  0  0
   38.5770   13.3550  -14.6736 C   0  0  0  0  0  0  0  0  0  0  0  0
   38.8529   14.2690  -13.7344 N   0  0  0  0  0  0  0  0  0  0  0  0
   40.2205   14.4972  -13.7055 C   0  0  0  0  0  0  0  0  0  0  0  0
   40.7555   13.6888  -14.6669 C   0  0  0  0  0  0  0  0  0  0  0  0
   39.7189   12.9877  -15.2556 N   0  0  0  0  0  0  0  0  0  0  0  0
   39.9556   12.0695  -16.3257 C   0  0  0  0  0  0  0  0  0  0  0  0
   38.8082   11.7835  -17.2379 C   0  0  0  0  0  0  0  0  0  0  0  0
   37.6768   11.2308  -16.6098 O   0  0  0  0  0  0  0  0  0  0  0  0
   36.7824   11.9187  -15.7708 C   0  0  0  0  0  0  0  0  0  0  0  0
   35.4640   11.5390  -15.8934 C   0  0  0  0  0  0  0  0  0  0  0  0
   34.5492   12.1975  -15.0815 C   0  0  0  0  0  0  0  0  0  0  0  0
   33.2447   11.8621  -15.1635 F   0  0  0  0  0  0  0  0  0  0  0  0
   42.1229   13.5876  -15.1774 C   0  0  0  0  0  0  0  0  0  0  0  0
   43.2345   13.5394  -14.3635 N   0  0  0  0  0  0  0  0  0  0  0  0
   44.2944   13.5445  -15.1456 C   0  0  0  0  0  0  0  0  0  0  0  0
   43.8713   13.5930  -16.4008 N   0  0  0  0  0  0  0  0  0  0  0  0
   42.5422   13.6183  -16.4188 N   0  0  0  0  0  0  0  0  0  0  0  0
   42.0497   13.6260  -17.3385 H   0  0  0  0  0  0  0  0  0  0  0  0
   45.7318   13.5048  -14.7616 C   0  0  0  0  0  0  0  0  0  0  0  0
   46.1840   12.4119  -13.8112 C   0  0  0  0  0  0  0  0  0  0  0  0
   46.0354   13.8190  -13.3111 C   0  0  0  0  0  0  0  0  0  0  0  0
   40.8476   15.4160  -12.7715 C   0  0  0  0  0  0  0  0  0  0  0  0
   41.8957   14.9971  -11.9378 N   0  0  0  0  0  0  0  0  0  0  0  0
   40.4051   16.6094  -12.7313 O   0  0  0  0  0  0  0  0  0  0  0  0
   42.6941   15.6394  -11.7833 H   0  0  0  0  0  0  0  0  0  0  0  0
   41.9133   14.0741  -11.4658 H   0  0  0  0  0  0  0  0  0  0  0  0
   33.2348   14.4923  -12.6336 C   0  0  0  0  0  0  0  0  0  0  0  0
   33.9997   13.8837  -13.3389 C   0  0  0  0  0  0  0  0  0  0  0  0
   31.1421   14.3461  -11.4943 C   0  0  0  0  0  0  0  0  0  0  0  0
   32.3137   15.2567  -11.7606 C   0  0  0  0  0  0  0  0  0  0  0  0
   32.9901   15.6150  -10.4563 C   0  0  0  0  0  0  0  0  0  0  0  0
   31.8674   16.4109  -12.3576 O   0  0  0  0  0  0  0  0  0  0  0  0
   32.6018   17.0387  -12.5727 H   0  0  0  0  0  0  0  0  0  0  0  0
 32 33  1  0  0  0
 33 34  1  0  0  0
 33 35  1  0  0  0
 33 30  1  0  0  0
 30 31  3  0  0  0
 31  1  1  0  0  0
  1  2  2  0  0  0
  2  3  1  0  0  0
  3  4  1  0  0  0
  4  5  2  0  0  0
  5  6  1  0  0  0
  6 25  1  0  0  0
 25 26  1  0  0  0
 25 27  2  0  0  0
  6  7  2  0  0  0
  7 16  1  0  0  0
 16 17  2  0  0  0
 17 18  1  0  0  0
 18 19  2  0  0  0
 19 20  1  0  0  0
 18 22  1  0  0  0
 22 23  1  0  0  0
 23 24  1  0  0  0
  7  8  1  0  0  0
  8  9  1  0  0  0
  9 10  1  0  0  0
 10 11  1  0  0  0
 11 12  1  0  0  0
 12 13  1  0  0  0
 13 14  2  0  0  0
 14 15  1  0  0  0
 14  1  1  0  0  0
 12  3  2  0  0  0
  8  4  1  0  0  0
 20 16  1  0  0  0
 24 22  1  0  0  0
 35 36  1  0  0  0
 26 28  1  0  0  0
 26 29  1  0  0  0
 20 21  1  0  0  0
M  END
> <minimizedAffinity>
-9.04802

> <CNNscore>
0.3470792174

> <CNNaffinity>
7.0495309830

> <CNN_VS>
2.4467456341

> <CNNaffinity_variance>
0.1168363690

$$$$
[H]OC(C#Cc1c([H])c2c(c([H])c1F)OC([H])([H])C([H])([H])n1c-2nc(C(=O)N([H])[H])c1-c1nc(C2([H])C([H])([H])C2([H])[H])nn1[H])(C([H])([H])[H])C([H])([H])[H]


 36 40  0  0  0  0  0  0  0  0999 V2000
   41.1026   12.9301  -15.5463 C   0  0  0  0  0  0  0  0  0  0  0  0
   40.0657   13.4101  -14.7394 C   0  0  0  0  0  0  0  0  0  0  0  0
   38.7551   13.1657  -15.0680 C   0  0  0  0  0  0  0  0  0  0  0  0
   37.7682   13.7510  -14.1423 C   0  0  0  0  0  0  0  0  0  0  0  0
   38.1696   14.5009  -13.1078 N   0  0  0  0  0  0  0  0  0  0  0  0
   37.0582   14.9586  -12.4159 C   0  0  0  0  0  0  0  0  0  0  0  0
   35.9736   14.4509  -13.0715 C   0  0  0  0  0  0  0  0  0  0  0  0
   36.4358   13.7049  -14.1403 N   0  0  0  0  0  0  0  0  0  0  0  0
   35.5350   13.0173  -15.0122 C   0  0  0  0  0  0  0  0  0  0  0  0
   36.0805   11.8466  -15.7619 C   0  0  0  0  0  0  0  0  0  0  0  0
   37.1606   12.1412  -16.6142 O   0  0  0  0  0  0  0  0  0  0  0  0
   38.4735   12.4375  -16.2075 C   0  0  0  0  0  0  0  0  0  0  0  0
   39.4610   11.9454  -17.0321 C   0  0  0  0  0  0  0  0  0  0  0  0
   40.7723   12.2164  -16.6623 C   0  0  0  0  0  0  0  0  0  0  0  0
   41.7767   11.7562  -17.4370 F   0  0  0  0  0  0  0  0  0  0  0  0
   34.5499   14.4905  -12.7362 C   0  0  0  0  0  0  0  0  0  0  0  0
   33.9871   15.4581  -11.9316 N   0  0  0  0  0  0  0  0  0  0  0  0
   32.7195   15.1414  -11.7647 C   0  0  0  0  0  0  0  0  0  0  0  0
   32.4900   14.0216  -12.4357 N   0  0  0  0  0  0  0  0  0  0  0  0
   33.6109   13.6250  -13.0306 N   0  0  0  0  0  0  0  0  0  0  0  0
   33.5902   12.7697  -13.6277 H   0  0  0  0  0  0  0  0  0  0  0  0
   31.6783   15.8606  -10.9813 C   0  0  0  0  0  0  0  0  0  0  0  0
   31.6963   15.7133   -9.4712 C   0  0  0  0  0  0  0  0  0  0  0  0
   30.6610   14.9857  -10.2779 C   0  0  0  0  0  0  0  0  0  0  0  0
   37.1536   15.8264  -11.2551 C   0  0  0  0  0  0  0  0  0  0  0  0
   36.5714   17.1031  -11.2562 N   0  0  0  0  0  0  0  0  0  0  0  0
   37.7920   15.3898  -10.2433 O   0  0  0  0  0  0  0  0  0  0  0  0
   36.0922   17.4310  -10.3978 H   0  0  0  0  0  0  0  0  0  0  0  0
   36.5957   17.7390  -12.0748 H   0  0  0  0  0  0  0  0  0  0  0  0
   43.5602   13.5068  -14.7808 C   0  0  0  0  0  0  0  0  0  0  0  0
   42.4361   13.2360  -15.1216 C   0  0  0  0  0  0  0  0  0  0  0  0
   45.8400   13.0128  -15.2876 C   0  0  0  0  0  0  0  0  0  0  0  0
   44.9506   13.8200  -14.3765 C   0  0  0  0  0  0  0  0  0  0  0  0
   45.2383   15.2940  -14.5550 C   0  0  0  0  0  0  0  0  0  0  0  0
   45.2037   13.4762  -13.0707 O   0  0  0  0  0  0  0  0  0  0  0  0
   44.6305   13.9652  -12.4286 H   0  0  0  0  0  0  0  0  0  0  0  0
 32 33  1  0  0  0
 33 34  1  0  0  0
 33 35  1  0  0  0
 33 30  1  0  0  0
 30 31  3  0  0  0
 31  1  1  0  0  0
  1  2  2  0  0  0
  2  3  1  0  0  0
  3  4  1  0  0  0
  4  5  2  0  0  0
  5  6  1  0  0  0
  6 25  1  0  0  0
 25 26  1  0  0  0
 25 27  2  0  0  0
  6  7  2  0  0  0
  7 16  1  0  0  0
 16 17  2  0  0  0
 17 18  1  0  0  0
 18 19  2  0  0  0
 19 20  1  0  0  0
 18 22  1  0  0  0
 22 23  1  0  0  0
 23 24  1  0  0  0
  7  8  1  0  0  0
  8  9  1  0  0  0
  9 10  1  0  0  0
 10 11  1  0  0  0
 11 12  1  0  0  0
 12 13  1  0  0  0
 13 14  2  0  0  0
 14 15  1  0  0  0
 14  1  1  0  0  0
 12  3  2  0  0  0
  8  4  1  0  0  0
 20 16  1  0  0  0
 24 22  1  0  0  0
 35 36  1  0  0  0
 26 28  1  0  0  0
 26 29  1  0  0  0
 20 21  1  0  0  0
M  END
> <minimizedAffinity>
-9.65611

> <CNNscore>
0.2006278932

> <CNNaffinity>
6.4955520630

> <CNN_VS>
1.3031889200

> <CNNaffinity_variance>
0.2003316879

$$$$
[H]OC(C#Cc1c([H])c2c(c([H])c1F)OC([H])([H])C([H])([H])n1c-2nc(C(=O)N([H])[H])c1-c1nc(C2([H])C([H])([H])C2([H])[H])nn1[H])(C([H])([H])[H])C([H])([H])[H]


 36 40  0  0  0  0  0  0  0  0999 V2000
   37.2261   13.4527  -14.2142 C   0  0  0  0  0  0  0  0  0  0  0  0
   38.6178   13.5735  -14.1406 C   0  0  0  0  0  0  0  0  0  0  0  0
   39.4209   12.9770  -15.0811 C   0  0  0  0  0  0  0  0  0  0  0  0
   40.8670   13.1667  -14.8663 C   0  0  0  0  0  0  0  0  0  0  0  0
   41.3121   13.8304  -13.7915 N   0  0  0  0  0  0  0  0  0  0  0  0
   42.6988   13.8405  -13.8018 C   0  0  0  0  0  0  0  0  0  0  0  0
   43.0700   13.1617  -14.9266 C   0  0  0  0  0  0  0  0  0  0  0  0
   41.9184   12.7512  -15.5729 N   0  0  0  0  0  0  0  0  0  0  0  0
   41.9745   12.0317  -16.8072 C   0  0  0  0  0  0  0  0  0  0  0  0
   40.7699   12.1027  -17.6870 C   0  0  0  0  0  0  0  0  0  0  0  0
   39.5841   11.6158  -17.1068 O   0  0  0  0  0  0  0  0  0  0  0  0
   38.8354   12.2553  -16.1031 C   0  0  0  0  0  0  0  0  0  0  0  0
   37.4704   12.1090  -16.2157 C   0  0  0  0  0  0  0  0  0  0  0  0
   36.6962   12.7284  -15.2429 C   0  0  0  0  0  0  0  0  0  0  0  0
   35.3532   12.6151  -15.3084 F   0  0  0  0  0  0  0  0  0  0  0  0
   44.3884   12.9565  -15.5272 C   0  0  0  0  0  0  0  0  0  0  0  0
   45.5573   13.4292  -14.9699 N   0  0  0  0  0  0  0  0  0  0  0  0
   46.5333   13.1503  -15.8093 C   0  0  0  0  0  0  0  0  0  0  0  0
   46.0045   12.5271  -16.8527 N   0  0  0  0  0  0  0  0  0  0  0  0
   44.6919   12.4082  -16.6782 N   0  0  0  0  0  0  0  0  0  0  0  0
   44.1295   11.9094  -17.4016 H   0  0  0  0  0  0  0  0  0  0  0  0
   47.9854   13.4492  -15.6771 C   0  0  0  0  0  0  0  0  0  0  0  0
   48.7892   12.6419  -14.6750 C   0  0  0  0  0  0  0  0  0  0  0  0
   48.4152   14.0605  -14.3593 C   0  0  0  0  0  0  0  0  0  0  0  0
   43.4912   14.4571  -12.7521 C   0  0  0  0  0  0  0  0  0  0  0  0
   43.8564   13.7378  -11.6039 N   0  0  0  0  0  0  0  0  0  0  0  0
   43.8324   15.6740  -12.9084 O   0  0  0  0  0  0  0  0  0  0  0  0
   44.8116   13.8637  -11.2221 H   0  0  0  0  0  0  0  0  0  0  0  0
   43.2175   13.0838  -11.1150 H   0  0  0  0  0  0  0  0  0  0  0  0
   35.8572   14.6638  -12.3121 C   0  0  0  0  0  0  0  0  0  0  0  0
   36.4731   14.1099  -13.1878 C   0  0  0  0  0  0  0  0  0  0  0  0
   35.7523   16.6603  -11.0077 C   0  0  0  0  0  0  0  0  0  0  0  0
   35.0945   15.3215  -11.2256 C   0  0  0  0  0  0  0  0  0  0  0  0
   33.6516   15.5206  -11.6323 C   0  0  0  0  0  0  0  0  0  0  0  0
   35.1277   14.6016  -10.0558 O   0  0  0  0  0  0  0  0  0  0  0  0
   34.7241   13.7026  -10.1486 H   0  0  0  0  0  0  0  0  0  0  0  0
 32 33  1  0  0  0
 33 34  1  0  0  0
 33 35  1  0  0  0
 33 30  1  0  0  0
 30 31  3  0  0  0
 31  1  1  0  0  0
  1  2  2  0  0  0
  2  3  1  0  0  0
  3  4  1  0  0  0
  4  5  2  0  0  0
  5  6  1  0  0  0
  6 25  1  0  0  0
 25 26  1  0  0  0
 25 27  2  0  0  0
  6  7  2  0  0  0
  7 16  1  0  0  0
 16 17  2  0  0  0
 17 18  1  0  0  0
 18 19  2  0  0  0
 19 20  1  0  0  0
 18 22  1  0  0  0
 22 23  1  0  0  0
 23 24  1  0  0  0
  7  8  1  0  0  0
  8  9  1  0  0  0
  9 10  1  0  0  0
 10 11  1  0  0  0
 11 12  1  0  0  0
 12 13  1  0  0  0
 13 14  2  0  0  0
 14 15  1  0  0  0
 14  1  1  0  0  0
 12  3  2  0  0  0
  8  4  1  0  0  0
 20 16  1  0  0  0
 24 22  1  0  0  0
 35 36  1  0  0  0
 26 28  1  0  0  0
 26 29  1  0  0  0
 20 21  1  0  0  0
M  END
> <minimizedAffinity>
-8.17010

> <CNNscore>
0.1614617258

> <CNNaffinity>
6.6397347450

> <CNN_VS>
1.0720630884

> <CNNaffinity_variance>
0.0747367516

$$$$
[H]OC(C#Cc1c([H])c2c(c([H])c1F)OC([H])([H])C([H])([H])n1c-2nc(C(=O)N([H])[H])c1-c1nc(C2([H])C([H])([H])C2([H])[H])nn1[H])(C([H])([H])[H])C([H])([H])[H]


 36 40  0  0  0  0  0  0  0  0999 V2000
   43.2366   15.7250  -12.4777 C   0  0  0  0  0  0  0  0  0  0  0  0
   42.2105   15.1286  -13.2181 C   0  0  0  0  0  0  0  0  0  0  0  0
   40.9272   15.0945  -12.7308 C   0  0  0  0  0  0  0  0  0  0  0  0
   39.9541   14.4144  -13.6047 C   0  0  0  0  0  0  0  0  0  0  0  0
   40.3526   13.8428  -14.7485 N   0  0  0  0  0  0  0  0  0  0  0  0
   39.2638   13.2446  -15.3648 C   0  0  0  0  0  0  0  0  0  0  0  0
   38.1946   13.4830  -14.5501 C   0  0  0  0  0  0  0  0  0  0  0  0
   38.6443   14.2099  -13.4629 N   0  0  0  0  0  0  0  0  0  0  0  0
   37.7491   14.6405  -12.4345 C   0  0  0  0  0  0  0  0  0  0  0  0
   38.1663   15.8255  -11.6271 C   0  0  0  0  0  0  0  0  0  0  0  0
   39.3771   15.6681  -10.9277 O   0  0  0  0  0  0  0  0  0  0  0  0
   40.6623   15.6584  -11.4980 C   0  0  0  0  0  0  0  0  0  0  0  0
   41.6402   16.2559  -10.7338 C   0  0  0  0  0  0  0  0  0  0  0  0
   42.9238   16.2677  -11.2647 C   0  0  0  0  0  0  0  0  0  0  0  0
   43.9179   16.8412  -10.5550 F   0  0  0  0  0  0  0  0  0  0  0  0
   36.7702   13.2054  -14.7373 C   0  0  0  0  0  0  0  0  0  0  0  0
   36.2785   11.9644  -15.0814 N   0  0  0  0  0  0  0  0  0  0  0  0
   34.9791   12.0917  -15.2565 C   0  0  0  0  0  0  0  0  0  0  0  0
   34.6624   13.3590  -15.0320 N   0  0  0  0  0  0  0  0  0  0  0  0
   35.7593   14.0392  -14.7134 N   0  0  0  0  0  0  0  0  0  0  0  0
   35.6745   15.0514  -14.4754 H   0  0  0  0  0  0  0  0  0  0  0  0
   33.9870   11.0493  -15.6365 C   0  0  0  0  0  0  0  0  0  0  0  0
   34.4478    9.9279  -16.5488 C   0  0  0  0  0  0  0  0  0  0  0  0
   33.5827   11.0251  -17.0962 C   0  0  0  0  0  0  0  0  0  0  0  0
   39.3690   12.5108  -16.6139 C   0  0  0  0  0  0  0  0  0  0  0  0
   38.7178   11.2800  -16.7872 N   0  0  0  0  0  0  0  0  0  0  0  0
   40.0802   13.0206  -17.5392 O   0  0  0  0  0  0  0  0  0  0  0  0
   38.2647   11.0820  -17.6979 H   0  0  0  0  0  0  0  0  0  0  0  0
   38.6660   10.5546  -16.0483 H   0  0  0  0  0  0  0  0  0  0  0  0
   45.6329   15.7147  -13.5806 C   0  0  0  0  0  0  0  0  0  0  0  0
   44.5414   15.7114  -13.0690 C   0  0  0  0  0  0  0  0  0  0  0  0
   47.1436   17.0631  -14.8447 C   0  0  0  0  0  0  0  0  0  0  0  0
   46.9666   15.7000  -14.2255 C   0  0  0  0  0  0  0  0  0  0  0  0
   48.0517   15.4588  -13.2002 C   0  0  0  0  0  0  0  0  0  0  0  0
   47.0622   14.7395  -15.2032 O   0  0  0  0  0  0  0  0  0  0  0  0
   46.9336   13.8228  -14.8524 H   0  0  0  0  0  0  0  0  0  0  0  0
 32 33  1  0  0  0
 33 34  1  0  0  0
 33 35  1  0  0  0
 33 30  1  0  0  0
 30 31  3  0  0  0
 31  1  1  0  0  0
  1  2  2  0  0  0
  2  3  1  0  0  0
  3  4  1  0  0  0
  4  5  2  0  0  0
  5  6  1  0  0  0
  6 25  1  0  0  0
 25 26  1  0  0  0
 25 27  2  0  0  0
  6  7  2  0  0  0
  7 16  1  0  0  0
 16 17  2  0  0  0
 17 18  1  0  0  0
 18 19  2  0  0  0
 19 20  1  0  0  0
 18 22  1  0  0  0
 22 23  1  0  0  0
 23 24  1  0  0  0
  7  8  1  0  0  0
  8  9  1  0  0  0
  9 10  1  0  0  0
 10 11  1  0  0  0
 11 12  1  0  0  0
 12 13  1  0  0  0
 13 14  2  0  0  0
 14 15  1  0  0  0
 14  1  1  0  0  0
 12  3  2  0  0  0
  8  4  1  0  0  0
 20 16  1  0  0  0
 24 22  1  0  0  0
 35 36  1  0  0  0
 26 28  1  0  0  0
 26 29  1  0  0  0
 20 21  1  0  0  0
M  END
> <minimizedAffinity>
-7.64096

> <CNNscore>
0.1353364587

> <CNNaffinity>
6.5926618576

> <CNN_VS>
0.8922275305

> <CNNaffinity_variance>
0.2159224749

$$$$
[H]OC(C#Cc1c([H])c2c(c([H])c1F)OC([H])([H])C([H])([H])n1c-2nc(C(=O)N([H])[H])c1-c1nc(C2([H])C([H])([H])C2([H])[H])nn1[H])(C([H])([H])[H])C([H])([H])[H]


 36 40  0  0  0  0  0  0  0  0999 V2000
   36.7300   16.8049   -9.5683 C   0  0  0  0  0  0  0  0  0  0  0  0
   36.4002   15.9231  -10.6029 C   0  0  0  0  0  0  0  0  0  0  0  0
   37.3284   15.5893  -11.5581 C   0  0  0  0  0  0  0  0  0  0  0  0
   36.8367   14.6703  -12.6006 C   0  0  0  0  0  0  0  0  0  0  0  0
   35.5599   14.2659  -12.6016 N   0  0  0  0  0  0  0  0  0  0  0  0
   35.3416   13.4418  -13.6955 C   0  0  0  0  0  0  0  0  0  0  0  0
   36.5376   13.3625  -14.3492 C   0  0  0  0  0  0  0  0  0  0  0  0
   37.4521   14.1325  -13.6540 N   0  0  0  0  0  0  0  0  0  0  0  0
   38.8141   14.2325  -14.0772 C   0  0  0  0  0  0  0  0  0  0  0  0
   39.8205   14.6004  -13.0369 C   0  0  0  0  0  0  0  0  0  0  0  0
   39.6037   15.8457  -12.4184 O   0  0  0  0  0  0  0  0  0  0  0  0
   38.5946   16.1361  -11.4833 C   0  0  0  0  0  0  0  0  0  0  0  0
   38.9644   17.0085  -10.4836 C   0  0  0  0  0  0  0  0  0  0  0  0
   37.9944   17.3190   -9.5390 C   0  0  0  0  0  0  0  0  0  0  0  0
   38.3066   18.1693   -8.5388 F   0  0  0  0  0  0  0  0  0  0  0  0
   36.9494   12.5466  -15.4917 C   0  0  0  0  0  0  0  0  0  0  0  0
   38.2521   12.1528  -15.7119 N   0  0  0  0  0  0  0  0  0  0  0  0
   38.2805   11.5173  -16.8654 C   0  0  0  0  0  0  0  0  0  0  0  0
   37.0483   11.5089  -17.3536 N   0  0  0  0  0  0  0  0  0  0  0  0
   36.2346   12.1382  -16.5115 N   0  0  0  0  0  0  0  0  0  0  0  0
   35.2174   12.1916  -16.7372 H   0  0  0  0  0  0  0  0  0  0  0  0
   39.4445   10.8972  -17.5552 C   0  0  0  0  0  0  0  0  0  0  0  0
   40.5559   11.8113  -18.0360 C   0  0  0  0  0  0  0  0  0  0  0  0
   39.5914   11.2275  -19.0263 C   0  0  0  0  0  0  0  0  0  0  0  0
   34.0456   12.8606  -13.9994 C   0  0  0  0  0  0  0  0  0  0  0  0
   32.8670   13.6102  -13.8652 N   0  0  0  0  0  0  0  0  0  0  0  0
   34.0190   11.6462  -14.3817 O   0  0  0  0  0  0  0  0  0  0  0  0
   32.1287   13.5077  -14.5851 H   0  0  0  0  0  0  0  0  0  0  0  0
   32.6950   14.2643  -13.0794 H   0  0  0  0  0  0  0  0  0  0  0  0
   34.8243   17.3544   -7.8291 C   0  0  0  0  0  0  0  0  0  0  0  0
   35.6952   17.0922   -8.6202 C   0  0  0  0  0  0  0  0  0  0  0  0
   33.8197   16.5878   -5.8038 C   0  0  0  0  0  0  0  0  0  0  0  0
   33.7720   17.6825   -6.8393 C   0  0  0  0  0  0  0  0  0  0  0  0
   34.0523   19.0173   -6.1860 C   0  0  0  0  0  0  0  0  0  0  0  0
   32.5199   17.7219   -7.4034 O   0  0  0  0  0  0  0  0  0  0  0  0
   32.4391   18.4137   -8.1068 H   0  0  0  0  0  0  0  0  0  0  0  0
 32 33  1  0  0  0
 33 34  1  0  0  0
 33 35  1  0  0  0
 33 30  1  0  0  0
 30 31  3  0  0  0
 31  1  1  0  0  0
  1  2  2  0  0  0
  2  3  1  0  0  0
  3  4  1  0  0  0
  4  5  2  0  0  0
  5  6  1  0  0  0
  6 25  1  0  0  0
 25 26  1  0  0  0
 25 27  2  0  0  0
  6  7  2  0  0  0
  7 16  1  0  0  0
 16 17  2  0  0  0
 17 18  1  0  0  0
 18 19  2  0  0  0
 19 20  1  0  0  0
 18 22  1  0  0  0
 22 23  1  0  0  0
 23 24  1  0  0  0
  7  8  1  0  0  0
  8  9  1  0  0  0
  9 10  1  0  0  0
 10 11  1  0  0  0
 11 12  1  0  0  0
 12 13  1  0  0  0
 13 14  2  0  0  0
 14 15  1  0  0  0
 14  1  1  0  0  0
 12  3  2  0  0  0
  8  4  1  0  0  0
 20 16  1  0  0  0
 24 22  1  0  0  0
 35 36  1  0  0  0
 26 28  1  0  0  0
 26 29  1  0  0  0
 20 21  1  0  0  0
M  END
> <minimizedAffinity>
-8.96008

> <CNNscore>
0.1317505389

> <CNNaffinity>
6.3797941208

> <CNN_VS>
0.8405413032

> <CNNaffinity_variance>
0.1501542628

$$$$
[H]OC(C#Cc1c([H])c2c(c([H])c1F)OC([H])([H])C([H])([H])n1c-2nc(C(=O)N([H])[H])c1-c1nc(C2([H])C([H])([H])C2([H])[H])nn1[H])(C([H])([H])[H])C([H])([H])[H]


 36 40  0  0  0  0  0  0  0  0999 V2000
   39.6548   12.4768  -15.9921 C   0  0  0  0  0  0  0  0  0  0  0  0
   38.9925   13.1667  -14.9713 C   0  0  0  0  0  0  0  0  0  0  0  0
   37.6284   13.0794  -14.8408 C   0  0  0  0  0  0  0  0  0  0  0  0
   37.0625   13.8767  -13.7375 C   0  0  0  0  0  0  0  0  0  0  0  0
   37.8540   14.6523  -12.9853 N   0  0  0  0  0  0  0  0  0  0  0  0
   37.0819   15.3204  -12.0468 C   0  0  0  0  0  0  0  0  0  0  0  0
   35.7966   14.9127  -12.2606 C   0  0  0  0  0  0  0  0  0  0  0  0
   35.8060   14.0174  -13.3146 N   0  0  0  0  0  0  0  0  0  0  0  0
   34.6045   13.3876  -13.7660 C   0  0  0  0  0  0  0  0  0  0  0  0
   34.7519   12.0901  -14.4907 C   0  0  0  0  0  0  0  0  0  0  0  0
   35.5206   12.1540  -15.6676 O   0  0  0  0  0  0  0  0  0  0  0  0
   36.9176   12.2992  -15.7320 C   0  0  0  0  0  0  0  0  0  0  0  0
   37.5266   11.6026  -16.7523 C   0  0  0  0  0  0  0  0  0  0  0  0
   38.9074   11.7197  -16.8477 C   0  0  0  0  0  0  0  0  0  0  0  0
   39.5518   11.0568  -17.8305 F   0  0  0  0  0  0  0  0  0  0  0  0
   34.5716   15.1804  -11.5066 C   0  0  0  0  0  0  0  0  0  0  0  0
   33.3095   15.0917  -12.0542 N   0  0  0  0  0  0  0  0  0  0  0  0
   32.4535   15.4847  -11.1334 C   0  0  0  0  0  0  0  0  0  0  0  0
   33.1445   15.8076  -10.0494 N   0  0  0  0  0  0  0  0  0  0  0  0
   34.4405   15.6199  -10.2789 N   0  0  0  0  0  0  0  0  0  0  0  0
   35.1209   15.8003   -9.5089 H   0  0  0  0  0  0  0  0  0  0  0  0
   30.9706   15.5755  -11.2227 C   0  0  0  0  0  0  0  0  0  0  0  0
   30.1488   14.5313  -10.4902 C   0  0  0  0  0  0  0  0  0  0  0  0
   30.2864   14.4579  -11.9827 C   0  0  0  0  0  0  0  0  0  0  0  0
   37.6391   16.2662  -11.0956 C   0  0  0  0  0  0  0  0  0  0  0  0
   38.8277   15.9833  -10.4055 N   0  0  0  0  0  0  0  0  0  0  0  0
   37.0049   17.3540  -10.9052 O   0  0  0  0  0  0  0  0  0  0  0  0
   39.5157   16.7460  -10.2684 H   0  0  0  0  0  0  0  0  0  0  0  0
   39.0548   15.0465  -10.0236 H   0  0  0  0  0  0  0  0  0  0  0  0
   42.2761   12.7609  -16.0720 C   0  0  0  0  0  0  0  0  0  0  0  0
   41.0781   12.6302  -16.0471 C   0  0  0  0  0  0  0  0  0  0  0  0
   44.1684   13.1657  -14.6741 C   0  0  0  0  0  0  0  0  0  0  0  0
   43.7455   12.9473  -16.1046 C   0  0  0  0  0  0  0  0  0  0  0  0
   44.4269   11.7154  -16.6571 C   0  0  0  0  0  0  0  0  0  0  0  0
   44.1166   14.0329  -16.8604 O   0  0  0  0  0  0  0  0  0  0  0  0
   43.8446   13.9496  -17.8085 H   0  0  0  0  0  0  0  0  0  0  0  0
 32 33  1  0  0  0
 33 34  1  0  0  0
 33 35  1  0  0  0
 33 30  1  0  0  0
 30 31  3  0  0  0
 31  1  1  0  0  0
  1  2  2  0  0  0
  2  3  1  0  0  0
  3  4  1  0  0  0
  4  5  2  0  0  0
  5  6  1  0  0  0
  6 25  1  0  0  0
 25 26  1  0  0  0
 25 27  2  0  0  0
  6  7  2  0  0  0
  7 16  1  0  0  0
 16 17  2  0  0  0
 17 18  1  0  0  0
 18 19  2  0  0  0
 19 20  1  0  0  0
 18 22  1  0  0  0
 22 23  1  0  0  0
 23 24  1  0  0  0
  7  8  1  0  0  0
  8  9  1  0  0  0
  9 10  1  0  0  0
 10 11  1  0  0  0
 11 12  1  0  0  0
 12 13  1  0  0  0
 13 14  2  0  0  0
 14 15  1  0  0  0
 14  1  1  0  0  0
 12  3  2  0  0  0
  8  4  1  0  0  0
 20 16  1  0  0  0
 24 22  1  0  0  0
 35 36  1  0  0  0
 26 28  1  0  0  0
 26 29  1  0  0  0
 20 21  1  0  0  0
M  END
> <minimizedAffinity>
-10.56301

> <CNNscore>
0.1297397465

> <CNNaffinity>
6.5422658920

> <CNN_VS>
0.8487918973

> <CNNaffinity_variance>
0.1296635866

$$$$
[H]OC(C#Cc1c([H])c2c(c([H])c1F)OC([H])([H])C([H])([H])n1c-2nc(C(=O)N([H])[H])c1-c1nc(C2([H])C([H])([H])C2([H])[H])nn1[H])(C([H])([H])[H])C([H])([H])[H]


 36 40  0  0  0  0  0  0  0  0999 V2000
   44.2998   16.0018  -12.7065 C   0  0  0  0  0  0  0  0  0  0  0  0
   43.2737   15.3453  -13.3941 C   0  0  0  0  0  0  0  0  0  0  0  0
   42.0095   15.2772  -12.8625 C   0  0  0  0  0  0  0  0  0  0  0  0
   41.0351   14.5351  -13.6830 C   0  0  0  0  0  0  0  0  0  0  0  0
   41.4176   13.9452  -14.8229 N   0  0  0  0  0  0  0  0  0  0  0  0
   40.3330   13.2882  -15.3845 C   0  0  0  0  0  0  0  0  0  0  0  0
   39.2828   13.5101  -14.5408 C   0  0  0  0  0  0  0  0  0  0  0  0
   39.7397   14.2855  -13.4908 N   0  0  0  0  0  0  0  0  0  0  0  0
   38.8629   14.7123  -12.4451 C   0  0  0  0  0  0  0  0  0  0  0  0
   39.2603   15.9358  -11.6864 C   0  0  0  0  0  0  0  0  0  0  0  0
   40.4987   15.8451  -11.0245 O   0  0  0  0  0  0  0  0  0  0  0  0
   41.7638   15.8671  -11.6379 C   0  0  0  0  0  0  0  0  0  0  0  0
   42.7425   16.5236  -10.9249 C   0  0  0  0  0  0  0  0  0  0  0  0
   44.0064   16.5681  -11.4994 C   0  0  0  0  0  0  0  0  0  0  0  0
   45.0004   17.1997  -10.8406 F   0  0  0  0  0  0  0  0  0  0  0  0
   37.8649   13.1735  -14.6714 C   0  0  0  0  0  0  0  0  0  0  0  0
   36.8513   14.0999  -14.5497 N   0  0  0  0  0  0  0  0  0  0  0  0
   35.7104   13.4465  -14.6296 C   0  0  0  0  0  0  0  0  0  0  0  0
   35.9903   12.1616  -14.7953 N   0  0  0  0  0  0  0  0  0  0  0  0
   37.3092   11.9961  -14.8217 N   0  0  0  0  0  0  0  0  0  0  0  0
   37.6950   11.0394  -14.9774 H   0  0  0  0  0  0  0  0  0  0  0  0
   34.3249   13.9850  -14.5556 C   0  0  0  0  0  0  0  0  0  0  0  0
   33.6397   14.0016  -13.2020 C   0  0  0  0  0  0  0  0  0  0  0  0
   33.2429   12.9777  -14.2248 C   0  0  0  0  0  0  0  0  0  0  0  0
   40.4253   12.5221  -16.6151 C   0  0  0  0  0  0  0  0  0  0  0  0
   41.6522   12.3603  -17.2765 N   0  0  0  0  0  0  0  0  0  0  0  0
   39.3523   12.0129  -17.0746 O   0  0  0  0  0  0  0  0  0  0  0  0
   41.8762   11.4359  -17.6880 H   0  0  0  0  0  0  0  0  0  0  0  0
   42.3499   13.1208  -17.3757 H   0  0  0  0  0  0  0  0  0  0  0  0
   46.6640   16.0566  -13.8752 C   0  0  0  0  0  0  0  0  0  0  0  0
   45.5840   16.0199  -13.3413 C   0  0  0  0  0  0  0  0  0  0  0  0
   48.9223   16.7761  -13.5903 C   0  0  0  0  0  0  0  0  0  0  0  0
   47.9798   16.1017  -14.5545 C   0  0  0  0  0  0  0  0  0  0  0  0
   48.4715   14.7040  -14.8574 C   0  0  0  0  0  0  0  0  0  0  0  0
   47.9372   16.8178  -15.7263 O   0  0  0  0  0  0  0  0  0  0  0  0
   47.3156   16.4274  -16.3905 H   0  0  0  0  0  0  0  0  0  0  0  0
 32 33  1  0  0  0
 33 34  1  0  0  0
 33 35  1  0  0  0
 33 30  1  0  0  0
 30 31  3  0  0  0
 31  1  1  0  0  0
  1  2  2  0  0  0
  2  3  1  0  0  0
  3  4  1  0  0  0
  4  5  2  0  0  0
  5  6  1  0  0  0
  6 25  1  0  0  0
 25 26  1  0  0  0
 25 27  2  0  0  0
  6  7  2  0  0  0
  7 16  1  0  0  0
 16 17  2  0  0  0
 17 18  1  0  0  0
 18 19  2  0  0  0
 19 20  1  0  0  0
 18 22  1  0  0  0
 22 23  1  0  0  0
 23 24  1  0  0  0
  7  8  1  0  0  0
  8  9  1  0  0  0
  9 10  1  0  0  0
 10 11  1  0  0  0
 11 12  1  0  0  0
 12 13  1  0  0  0
 13 14  2  0  0  0
 14 15  1  0  0  0
 14  1  1  0  0  0
 12  3  2  0  0  0
  8  4  1  0  0  0
 20 16  1  0  0  0
 24 22  1  0  0  0
 35 36  1  0  0  0
 26 28  1  0  0  0
 26 29  1  0  0  0
 20 21  1  0  0  0
M  END
> <minimizedAffinity>
-6.92340

> <CNNscore>
0.1040184796

> <CNNaffinity>
6.4358735085

> <CNN_VS>
0.6694498062

> <CNNaffinity_variance>
0.2657244205

$$$$
[H]O[C@]1(C#Cc2c([H])c([H])c3c(c2[H])-n2nc(C(=O)N([H])[H])c([H])c2[C@@](F)(C([H])([H])[H])C([H])([H])O3)C(=O)N(C([H])([H])[H])C([H])([H])C1([H])[H]


 32 35  0  0  0  0  0  0  0  0999 V2000
   41.9275   14.5158  -13.5173 C   0  0  0  0  0  0  0  0  0  0  0  0
   41.2105   15.3091  -12.6252 C   0  0  0  0  0  0  0  0  0  0  0  0
   39.8324   15.3593  -12.6683 C   0  0  0  0  0  0  0  0  0  0  0  0
   39.1091   14.6297  -13.5921 C   0  0  0  0  0  0  0  0  0  0  0  0
   37.7408   14.7988  -13.4928 O   0  0  0  0  0  0  0  0  0  0  0  0
   36.6956   14.2970  -14.3390 C   0  0  0  0  0  0  0  0  0  0  0  0
   36.8744   12.8373  -14.6437 C   0  0  0  0  0  0  0  0  0  0  0  0
   37.0441   12.0522  -13.3509 C   0  0  0  0  0  0  0  0  0  0  0  0
   35.7152   12.3859  -15.2307 F   0  0  0  0  0  0  0  0  0  0  0  0
   37.9963   12.5783  -15.5803 C   0  0  0  0  0  0  0  0  0  0  0  0
   37.9478   11.8223  -16.7313 C   0  0  0  0  0  0  0  0  0  0  0  0
   39.1929   11.8264  -17.3176 C   0  0  0  0  0  0  0  0  0  0  0  0
   39.9833   12.5845  -16.5168 N   0  0  0  0  0  0  0  0  0  0  0  0
   39.2643   13.0164  -15.5037 N   0  0  0  0  0  0  0  0  0  0  0  0
   39.8101   13.8492  -14.4701 C   0  0  0  0  0  0  0  0  0  0  0  0
   41.1899   13.7939  -14.4330 C   0  0  0  0  0  0  0  0  0  0  0  0
   39.6198   11.1633  -18.5506 C   0  0  0  0  0  0  0  0  0  0  0  0
   38.6034   10.6510  -19.4019 N   0  0  0  0  0  0  0  0  0  0  0  0
   40.8201   11.0491  -18.8480 O   0  0  0  0  0  0  0  0  0  0  0  0
   37.9348   11.3178  -19.8459 H   0  0  0  0  0  0  0  0  0  0  0  0
   38.4802    9.6380  -19.6146 H   0  0  0  0  0  0  0  0  0  0  0  0
   44.5729   14.3795  -13.4612 C   0  0  0  0  0  0  0  0  0  0  0  0
   43.3628   14.4529  -13.4852 C   0  0  0  0  0  0  0  0  0  0  0  0
   48.7314   13.1052  -15.6633 C   0  0  0  0  0  0  0  0  0  0  0  0
   47.7282   13.8896  -14.9745 N   0  0  0  0  0  0  0  0  0  0  0  0
   47.8188   15.2908  -14.6829 C   0  0  0  0  0  0  0  0  0  0  0  0
   46.5877   15.6058  -13.8594 C   0  0  0  0  0  0  0  0  0  0  0  0
   46.0326   14.2741  -13.4130 C   0  0  0  0  0  0  0  0  0  0  0  0
   46.5119   13.9242  -12.1710 O   0  0  0  0  0  0  0  0  0  0  0  0
   46.5041   13.3703  -14.4889 C   0  0  0  0  0  0  0  0  0  0  0  0
   45.8713   12.3311  -14.8585 O   0  0  0  0  0  0  0  0  0  0  0  0
   45.7544   13.9956  -11.5253 H   0  0  0  0  0  0  0  0  0  0  0  0
 24 25  1  0  0  0
 25 26  1  0  0  0
 26 27  1  0  0  0
 27 28  1  0  0  0
 28 29  1  0  0  0
 28 22  1  0  0  0
 22 23  3  0  0  0
 23  1  1  0  0  0
  1  2  2  0  0  0
  2  3  1  0  0  0
  3  4  2  0  0  0
  4  5  1  0  0  0
  5  6  1  0  0  0
  6  7  1  0  0  0
  7  8  1  0  0  0
  7  9  1  0  0  0
  7 10  1  0  0  0
 10 11  2  0  0  0
 11 12  1  0  0  0
 12 13  2  0  0  0
 13 14  1  0  0  0
 14 15  1  0  0  0
 15 16  2  0  0  0
 12 17  1  0  0  0
 17 18  1  0  0  0
 17 19  2  0  0  0
 28 30  1  0  0  0
 30 31  2  0  0  0
 30 25  1  0  0  0
 16  1  1  0  0  0
 15  4  1  0  0  0
 14 10  1  0  0  0
 29 32  1  0  0  0
 18 20  1  0  0  0
 18 21  1  0  0  0
M  END
> <minimizedAffinity>
-8.59746

> <CNNscore>
0.6607317924

> <CNNaffinity>
6.9023833275

> <CNN_VS>
4.5606241226

> <CNNaffinity_variance>
0.4880823195

$$$$
[H]O[C@]1(C#Cc2c([H])c([H])c3c(c2[H])-n2nc(C(=O)N([H])[H])c([H])c2[C@@](F)(C([H])([H])[H])C([H])([H])O3)C(=O)N(C([H])([H])[H])C([H])([H])C1([H])[H]


 32 35  0  0  0  0  0  0  0  0999 V2000
   41.1678   15.4541  -12.6749 C   0  0  0  0  0  0  0  0  0  0  0  0
   40.1418   16.0045  -11.9109 C   0  0  0  0  0  0  0  0  0  0  0  0
   38.8206   15.7115  -12.1793 C   0  0  0  0  0  0  0  0  0  0  0  0
   38.4608   14.8652  -13.2103 C   0  0  0  0  0  0  0  0  0  0  0  0
   37.0963   14.6834  -13.3364 O   0  0  0  0  0  0  0  0  0  0  0  0
   36.3594   13.9740  -14.3433 C   0  0  0  0  0  0  0  0  0  0  0  0
   36.9475   12.6194  -14.6172 C   0  0  0  0  0  0  0  0  0  0  0  0
   37.1035   11.8464  -13.3154 C   0  0  0  0  0  0  0  0  0  0  0  0
   36.0480   11.9191  -15.3869 F   0  0  0  0  0  0  0  0  0  0  0  0
   38.2319   12.6888  -15.3576 C   0  0  0  0  0  0  0  0  0  0  0  0
   38.5589   11.9949  -16.5023 C   0  0  0  0  0  0  0  0  0  0  0  0
   39.8389   12.3345  -16.8766 C   0  0  0  0  0  0  0  0  0  0  0  0
   40.2750   13.2304  -15.9557 N   0  0  0  0  0  0  0  0  0  0  0  0
   39.3192   13.4254  -15.0735 N   0  0  0  0  0  0  0  0  0  0  0  0
   39.4661   14.3226  -13.9630 C   0  0  0  0  0  0  0  0  0  0  0  0
   40.7912   14.6113  -13.7003 C   0  0  0  0  0  0  0  0  0  0  0  0
   40.6091   11.8525  -18.0241 C   0  0  0  0  0  0  0  0  0  0  0  0
   42.0255   11.8542  -17.9068 N   0  0  0  0  0  0  0  0  0  0  0  0
   40.0542   11.4563  -19.0622 O   0  0  0  0  0  0  0  0  0  0  0  0
   42.4724   11.2395  -17.1918 H   0  0  0  0  0  0  0  0  0  0  0  0
   42.6563   12.4379  -18.4967 H   0  0  0  0  0  0  0  0  0  0  0  0
   43.7191   15.9885  -12.1999 C   0  0  0  0  0  0  0  0  0  0  0  0
   42.5486   15.7496  -12.4081 C   0  0  0  0  0  0  0  0  0  0  0  0
   47.4831   19.0791  -12.4161 C   0  0  0  0  0  0  0  0  0  0  0  0
   46.4967   18.1523  -11.9021 N   0  0  0  0  0  0  0  0  0  0  0  0
   46.3154   17.8061  -10.5222 C   0  0  0  0  0  0  0  0  0  0  0  0
   45.2528   16.7272  -10.5194 C   0  0  0  0  0  0  0  0  0  0  0  0
   45.1373   16.2520  -11.9483 C   0  0  0  0  0  0  0  0  0  0  0  0
   45.9426   15.1594  -12.1780 O   0  0  0  0  0  0  0  0  0  0  0  0
   45.5644   17.4526  -12.7052 C   0  0  0  0  0  0  0  0  0  0  0  0
   45.1298   17.7410  -13.8649 O   0  0  0  0  0  0  0  0  0  0  0  0
   45.3477   14.3669  -12.2957 H   0  0  0  0  0  0  0  0  0  0  0  0
 24 25  1  0  0  0
 25 26  1  0  0  0
 26 27  1  0  0  0
 27 28  1  0  0  0
 28 29  1  0  0  0
 28 22  1  0  0  0
 22 23  3  0  0  0
 23  1  1  0  0  0
  1  2  2  0  0  0
  2  3  1  0  0  0
  3  4  2  0  0  0
  4  5  1  0  0  0
  5  6  1  0  0  0
  6  7  1  0  0  0
  7  8  1  0  0  0
  7  9  1  0  0  0
  7 10  1  0  0  0
 10 11  2  0  0  0
 11 12  1  0  0  0
 12 13  2  0  0  0
 13 14  1  0  0  0
 14 15  1  0  0  0
 15 16  2  0  0  0
 12 17  1  0  0  0
 17 18  1  0  0  0
 17 19  2  0  0  0
 28 30  1  0  0  0
 30 31  2  0  0  0
 30 25  1  0  0  0
 16  1  1  0  0  0
 15  4  1  0  0  0
 14 10  1  0  0  0
 29 32  1  0  0  0
 18 20  1  0  0  0
 18 21  1  0  0  0
M  END
> <minimizedAffinity>
-8.54178

> <CNNscore>
0.5063405037

> <CNNaffinity>
6.2307839394

> <CNN_VS>
3.1548981667

> <CNNaffinity_variance>
0.2658471465

$$$$
[H]O[C@]1(C#Cc2c([H])c([H])c3c(c2[H])-n2nc(C(=O)N([H])[H])c([H])c2[C@@](F)(C([H])([H])[H])C([H])([H])O3)C(=O)N(C([H])([H])[H])C([H])([H])C1([H])[H]


 32 35  0  0  0  0  0  0  0  0999 V2000
   41.0535   15.3295  -13.0076 C   0  0  0  0  0  0  0  0  0  0  0  0
   40.0708   15.8883  -12.1942 C   0  0  0  0  0  0  0  0  0  0  0  0
   38.7388   15.5769  -12.3732 C   0  0  0  0  0  0  0  0  0  0  0  0
   38.3249   14.7032  -13.3603 C   0  0  0  0  0  0  0  0  0  0  0  0
   36.9573   14.5060  -13.3972 O   0  0  0  0  0  0  0  0  0  0  0  0
   36.1671   13.7663  -14.3399 C   0  0  0  0  0  0  0  0  0  0  0  0
   36.7515   12.4111  -14.6186 C   0  0  0  0  0  0  0  0  0  0  0  0
   36.9960   11.6704  -13.3117 C   0  0  0  0  0  0  0  0  0  0  0  0
   35.8136   11.6846  -15.3148 F   0  0  0  0  0  0  0  0  0  0  0  0
   37.9868   12.4749  -15.4388 C   0  0  0  0  0  0  0  0  0  0  0  0
   38.2498   11.7573  -16.5854 C   0  0  0  0  0  0  0  0  0  0  0  0
   39.5005   12.0998  -17.0461 C   0  0  0  0  0  0  0  0  0  0  0  0
   39.9832   13.0211  -16.1748 N   0  0  0  0  0  0  0  0  0  0  0  0
   39.0818   13.2279  -15.2397 N   0  0  0  0  0  0  0  0  0  0  0  0
   39.2875   14.1523  -14.1613 C   0  0  0  0  0  0  0  0  0  0  0  0
   40.6232   14.4594  -13.9881 C   0  0  0  0  0  0  0  0  0  0  0  0
   40.2033   11.5980  -18.2279 C   0  0  0  0  0  0  0  0  0  0  0  0
   39.4154   11.0162  -19.2579 N   0  0  0  0  0  0  0  0  0  0  0  0
   41.4383   11.6741  -18.3337 O   0  0  0  0  0  0  0  0  0  0  0  0
   38.7303   11.6159  -19.7675 H   0  0  0  0  0  0  0  0  0  0  0  0
   39.4780   10.0151  -19.5414 H   0  0  0  0  0  0  0  0  0  0  0  0
   43.6165   15.9260  -12.6989 C   0  0  0  0  0  0  0  0  0  0  0  0
   42.4449   15.6439  -12.8339 C   0  0  0  0  0  0  0  0  0  0  0  0
   47.6867   17.7047  -14.7079 C   0  0  0  0  0  0  0  0  0  0  0  0
   46.5767   17.5114  -13.7985 N   0  0  0  0  0  0  0  0  0  0  0  0
   46.2670   18.3412  -12.6707 C   0  0  0  0  0  0  0  0  0  0  0  0
   45.1005   17.6610  -11.9851 C   0  0  0  0  0  0  0  0  0  0  0  0
   45.0339   16.2664  -12.5611 C   0  0  0  0  0  0  0  0  0  0  0  0
   45.7353   15.3715  -11.7852 O   0  0  0  0  0  0  0  0  0  0  0  0
   45.6338   16.4608  -13.9025 C   0  0  0  0  0  0  0  0  0  0  0  0
   45.3115   15.7707  -14.9208 O   0  0  0  0  0  0  0  0  0  0  0  0
   45.0709   14.7778  -11.3360 H   0  0  0  0  0  0  0  0  0  0  0  0
 24 25  1  0  0  0
 25 26  1  0  0  0
 26 27  1  0  0  0
 27 28  1  0  0  0
 28 29  1  0  0  0
 28 22  1  0  0  0
 22 23  3  0  0  0
 23  1  1  0  0  0
  1  2  2  0  0  0
  2  3  1  0  0  0
  3  4  2  0  0  0
  4  5  1  0  0  0
  5  6  1  0  0  0
  6  7  1  0  0  0
  7  8  1  0  0  0
  7  9  1  0  0  0
  7 10  1  0  0  0
 10 11  2  0  0  0
 11 12  1  0  0  0
 12 13  2  0  0  0
 13 14  1  0  0  0
 14 15  1  0  0  0
 15 16  2  0  0  0
 12 17  1  0  0  0
 17 18  1  0  0  0
 17 19  2  0  0  0
 28 30  1  0  0  0
 30 31  2  0  0  0
 30 25  1  0  0  0
 16  1  1  0  0  0
 15  4  1  0  0  0
 14 10  1  0  0  0
 29 32  1  0  0  0
 18 20  1  0  0  0
 18 21  1  0  0  0
M  END
> <minimizedAffinity>
-8.70091

> <CNNscore>
0.4842210710

> <CNNaffinity>
6.5044641495

> <CNN_VS>
3.1495985985

> <CNNaffinity_variance>
0.6978439093

$$$$
[H]O[C@]1(C#Cc2c([H])c([H])c3c(c2[H])-n2nc(C(=O)N([H])[H])c([H])c2[C@@](F)(C([H])([H])[H])C([H])([H])O3)C(=O)N(C([H])([H])[H])C([H])([H])C1([H])[H]


 32 35  0  0  0  0  0  0  0  0999 V2000
   35.7329   13.3337  -13.3194 C   0  0  0  0  0  0  0  0  0  0  0  0
   34.4807   13.1104  -13.8864 C   0  0  0  0  0  0  0  0  0  0  0  0
   34.3594   12.5876  -15.1575 C   0  0  0  0  0  0  0  0  0  0  0  0
   35.4673   12.2652  -15.9174 C   0  0  0  0  0  0  0  0  0  0  0  0
   35.1621   11.7537  -17.1648 O   0  0  0  0  0  0  0  0  0  0  0  0
   36.0367   11.4165  -18.2517 C   0  0  0  0  0  0  0  0  0  0  0  0
   37.2164   10.6092  -17.7911 C   0  0  0  0  0  0  0  0  0  0  0  0
   36.7426    9.4040  -16.9913 C   0  0  0  0  0  0  0  0  0  0  0  0
   37.8505   10.1173  -18.9083 F   0  0  0  0  0  0  0  0  0  0  0  0
   38.1979   11.4127  -17.0204 C   0  0  0  0  0  0  0  0  0  0  0  0
   39.5565   11.4817  -17.2403 C   0  0  0  0  0  0  0  0  0  0  0  0
   40.1130   12.3339  -16.3140 C   0  0  0  0  0  0  0  0  0  0  0  0
   39.0870   12.7729  -15.5424 N   0  0  0  0  0  0  0  0  0  0  0  0
   37.9726   12.2220  -15.9717 N   0  0  0  0  0  0  0  0  0  0  0  0
   36.6991   12.4832  -15.3636 C   0  0  0  0  0  0  0  0  0  0  0  0
   36.8284   13.0063  -14.0916 C   0  0  0  0  0  0  0  0  0  0  0  0
   41.5173   12.7160  -16.1580 C   0  0  0  0  0  0  0  0  0  0  0  0
   41.8448   13.5681  -15.0686 N   0  0  0  0  0  0  0  0  0  0  0  0
   42.3933   12.3156  -16.9420 O   0  0  0  0  0  0  0  0  0  0  0  0
   41.7036   13.2187  -14.0957 H   0  0  0  0  0  0  0  0  0  0  0  0
   42.2222   14.5334  -15.1797 H   0  0  0  0  0  0  0  0  0  0  0  0
   35.9774   14.3303  -10.8766 C   0  0  0  0  0  0  0  0  0  0  0  0
   35.8759   13.8776  -11.9970 C   0  0  0  0  0  0  0  0  0  0  0  0
   38.3340   17.2190   -7.7352 C   0  0  0  0  0  0  0  0  0  0  0  0
   37.2777   16.6347   -8.5346 N   0  0  0  0  0  0  0  0  0  0  0  0
   35.9379   17.1347   -8.6422 C   0  0  0  0  0  0  0  0  0  0  0  0
   35.2020   16.1201   -9.4920 C   0  0  0  0  0  0  0  0  0  0  0  0
   36.0795   14.8915   -9.5281 C   0  0  0  0  0  0  0  0  0  0  0  0
   35.7303   13.9992   -8.5398 O   0  0  0  0  0  0  0  0  0  0  0  0
   37.4282   15.4732   -9.3297 C   0  0  0  0  0  0  0  0  0  0  0  0
   38.4883   14.9665   -9.8160 O   0  0  0  0  0  0  0  0  0  0  0  0
   35.3076   13.2109   -8.9822 H   0  0  0  0  0  0  0  0  0  0  0  0
 24 25  1  0  0  0
 25 26  1  0  0  0
 26 27  1  0  0  0
 27 28  1  0  0  0
 28 29  1  0  0  0
 28 22  1  0  0  0
 22 23  3  0  0  0
 23  1  1  0  0  0
  1  2  2  0  0  0
  2  3  1  0  0  0
  3  4  2  0  0  0
  4  5  1  0  0  0
  5  6  1  0  0  0
  6  7  1  0  0  0
  7  8  1  0  0  0
  7  9  1  0  0  0
  7 10  1  0  0  0
 10 11  2  0  0  0
 11 12  1  0  0  0
 12 13  2  0  0  0
 13 14  1  0  0  0
 14 15  1  0  0  0
 15 16  2  0  0  0
 12 17  1  0  0  0
 17 18  1  0  0  0
 17 19  2  0  0  0
 28 30  1  0  0  0
 30 31  2  0  0  0
 30 25  1  0  0  0
 16  1  1  0  0  0
 15  4  1  0  0  0
 14 10  1  0  0  0
 29 32  1  0  0  0
 18 20  1  0  0  0
 18 21  1  0  0  0
M  END
> <minimizedAffinity>
-7.54990

> <CNNscore>
0.4758018255

> <CNNaffinity>
6.7478737831

> <CNN_VS>
3.2106506824

> <CNNaffinity_variance>
0.5853887796

$$$$
[H]O[C@]1(C#Cc2c([H])c([H])c3c(c2[H])-n2nc(C(=O)N([H])[H])c([H])c2[C@@](F)(C([H])([H])[H])C([H])([H])O3)C(=O)N(C([H])([H])[H])C([H])([H])C1([H])[H]


 32 35  0  0  0  0  0  0  0  0999 V2000
   40.8894   15.6576  -12.4854 C   0  0  0  0  0  0  0  0  0  0  0  0
   39.8161   16.1080  -11.7207 C   0  0  0  0  0  0  0  0  0  0  0  0
   38.5249   15.7165  -12.0086 C   0  0  0  0  0  0  0  0  0  0  0  0
   38.2426   14.8667  -13.0607 C   0  0  0  0  0  0  0  0  0  0  0  0
   36.8981   14.5796  -13.2045 O   0  0  0  0  0  0  0  0  0  0  0  0
   36.2288   13.8356  -14.2334 C   0  0  0  0  0  0  0  0  0  0  0  0
   36.9254   12.5383  -14.5293 C   0  0  0  0  0  0  0  0  0  0  0  0
   37.1315   11.7524  -13.2423 C   0  0  0  0  0  0  0  0  0  0  0  0
   36.0913   11.7854  -15.3226 F   0  0  0  0  0  0  0  0  0  0  0  0
   38.2065   12.7257  -15.2549 C   0  0  0  0  0  0  0  0  0  0  0  0
   38.5976   12.0848  -16.4104 C   0  0  0  0  0  0  0  0  0  0  0  0
   39.8496   12.5332  -16.7644 C   0  0  0  0  0  0  0  0  0  0  0  0
   40.2049   13.4409  -15.8207 N   0  0  0  0  0  0  0  0  0  0  0  0
   39.2292   13.5402  -14.9445 N   0  0  0  0  0  0  0  0  0  0  0  0
   39.2944   14.4221  -13.8141 C   0  0  0  0  0  0  0  0  0  0  0  0
   40.5900   14.8097  -13.5319 C   0  0  0  0  0  0  0  0  0  0  0  0
   40.6656   12.1388  -17.9138 C   0  0  0  0  0  0  0  0  0  0  0  0
   42.0626   11.9865  -17.7010 N   0  0  0  0  0  0  0  0  0  0  0  0
   40.1645   11.9433  -19.0332 O   0  0  0  0  0  0  0  0  0  0  0  0
   42.3948   11.2398  -17.0523 H   0  0  0  0  0  0  0  0  0  0  0  0
   42.7875   12.5807  -18.1571 H   0  0  0  0  0  0  0  0  0  0  0  0
   43.3815   16.3988  -11.9757 C   0  0  0  0  0  0  0  0  0  0  0  0
   42.2398   16.0562  -12.1984 C   0  0  0  0  0  0  0  0  0  0  0  0
   48.1275   15.7621  -12.8906 C   0  0  0  0  0  0  0  0  0  0  0  0
   46.8299   16.3880  -12.7467 N   0  0  0  0  0  0  0  0  0  0  0  0
   46.5079   17.7364  -13.1140 C   0  0  0  0  0  0  0  0  0  0  0  0
   45.0767   17.9402  -12.6632 C   0  0  0  0  0  0  0  0  0  0  0  0
   44.7681   16.7972  -11.7254 C   0  0  0  0  0  0  0  0  0  0  0  0
   45.0053   17.1478  -10.4156 O   0  0  0  0  0  0  0  0  0  0  0  0
   45.6872   15.7429  -12.2158 C   0  0  0  0  0  0  0  0  0  0  0  0
   45.4308   14.4996  -12.1410 O   0  0  0  0  0  0  0  0  0  0  0  0
   44.1208   17.2237   -9.9598 H   0  0  0  0  0  0  0  0  0  0  0  0
 24 25  1  0  0  0
 25 26  1  0  0  0
 26 27  1  0  0  0
 27 28  1  0  0  0
 28 29  1  0  0  0
 28 22  1  0  0  0
 22 23  3  0  0  0
 23  1  1  0  0  0
  1  2  2  0  0  0
  2  3  1  0  0  0
  3  4  2  0  0  0
  4  5  1  0  0  0
  5  6  1  0  0  0
  6  7  1  0  0  0
  7  8  1  0  0  0
  7  9  1  0  0  0
  7 10  1  0  0  0
 10 11  2  0  0  0
 11 12  1  0  0  0
 12 13  2  0  0  0
 13 14  1  0  0  0
 14 15  1  0  0  0
 15 16  2  0  0  0
 12 17  1  0  0  0
 17 18  1  0  0  0
 17 19  2  0  0  0
 28 30  1  0  0  0
 30 31  2  0  0  0
 30 25  1  0  0  0
 16  1  1  0  0  0
 15  4  1  0  0  0
 14 10  1  0  0  0
 29 32  1  0  0  0
 18 20  1  0  0  0
 18 21  1  0  0  0
M  END
> <minimizedAffinity>
-8.44274

> <CNNscore>
0.4519203305

> <CNNaffinity>
6.2035198212

> <CNN_VS>
2.8034968376

> <CNNaffinity_variance>
0.2659805119

$$$$
[H]O[C@]1(C#Cc2c([H])c([H])c3c(c2[H])-n2nc(C(=O)N([H])[H])c([H])c2[C@@](F)(C([H])([H])[H])C([H])([H])O3)C(=O)N(C([H])([H])[H])C([H])([H])C1([H])[H]


 32 35  0  0  0  0  0  0  0  0999 V2000
   41.9499   14.0078  -13.8796 C   0  0  0  0  0  0  0  0  0  0  0  0
   41.5604   15.0205  -13.0066 C   0  0  0  0  0  0  0  0  0  0  0  0
   40.2321   15.3667  -12.8676 C   0  0  0  0  0  0  0  0  0  0  0  0
   39.2379   14.7282  -13.5835 C   0  0  0  0  0  0  0  0  0  0  0  0
   37.9658   15.2014  -13.3211 O   0  0  0  0  0  0  0  0  0  0  0  0
   36.7191   14.8620  -13.9459 C   0  0  0  0  0  0  0  0  0  0  0  0
   36.5481   13.3762  -14.0835 C   0  0  0  0  0  0  0  0  0  0  0  0
   36.7606   12.7004  -12.7364 C   0  0  0  0  0  0  0  0  0  0  0  0
   35.2428   13.1355  -14.4445 F   0  0  0  0  0  0  0  0  0  0  0  0
   37.4296   12.7895  -15.1234 C   0  0  0  0  0  0  0  0  0  0  0  0
   37.0456   11.9558  -16.1512 C   0  0  0  0  0  0  0  0  0  0  0  0
   38.1555   11.6312  -16.8974 C   0  0  0  0  0  0  0  0  0  0  0  0
   39.2007   12.2709  -16.3150 N   0  0  0  0  0  0  0  0  0  0  0  0
   38.7555   12.9446  -15.2769 N   0  0  0  0  0  0  0  0  0  0  0  0
   39.6167   13.7328  -14.4421 C   0  0  0  0  0  0  0  0  0  0  0  0
   40.9447   13.3806  -14.5866 C   0  0  0  0  0  0  0  0  0  0  0  0
   38.2364   10.7758  -18.0823 C   0  0  0  0  0  0  0  0  0  0  0  0
   39.3310   10.9847  -18.9646 N   0  0  0  0  0  0  0  0  0  0  0  0
   37.3865    9.9005  -18.3143 O   0  0  0  0  0  0  0  0  0  0  0  0
   40.2987   10.8060  -18.6177 H   0  0  0  0  0  0  0  0  0  0  0  0
   39.2288   11.3094  -19.9498 H   0  0  0  0  0  0  0  0  0  0  0  0
   44.4983   13.3412  -14.1650 C   0  0  0  0  0  0  0  0  0  0  0  0
   43.3291   13.6355  -14.0356 C   0  0  0  0  0  0  0  0  0  0  0  0
   49.1797   14.5814  -13.6064 C   0  0  0  0  0  0  0  0  0  0  0  0
   47.9393   13.8382  -13.5342 N   0  0  0  0  0  0  0  0  0  0  0  0
   47.7368   12.6203  -12.8046 C   0  0  0  0  0  0  0  0  0  0  0  0
   46.3246   12.1872  -13.1381 C   0  0  0  0  0  0  0  0  0  0  0  0
   45.9117   13.0019  -14.3409 C   0  0  0  0  0  0  0  0  0  0  0  0
   46.1673   12.3268  -15.5130 O   0  0  0  0  0  0  0  0  0  0  0  0
   46.7413   14.2201  -14.1843 C   0  0  0  0  0  0  0  0  0  0  0  0
   46.3790   15.3709  -14.5860 O   0  0  0  0  0  0  0  0  0  0  0  0
   45.2888   12.0587  -15.9032 H   0  0  0  0  0  0  0  0  0  0  0  0
 24 25  1  0  0  0
 25 26  1  0  0  0
 26 27  1  0  0  0
 27 28  1  0  0  0
 28 29  1  0  0  0
 28 22  1  0  0  0
 22 23  3  0  0  0
 23  1  1  0  0  0
  1  2  2  0  0  0
  2  3  1  0  0  0
  3  4  2  0  0  0
  4  5  1  0  0  0
  5  6  1  0  0  0
  6  7  1  0  0  0
  7  8  1  0  0  0
  7  9  1  0  0  0
  7 10  1  0  0  0
 10 11  2  0  0  0
 11 12  1  0  0  0
 12 13  2  0  0  0
 13 14  1  0  0  0
 14 15  1  0  0  0
 15 16  2  0  0  0
 12 17  1  0  0  0
 17 18  1  0  0  0
 17 19  2  0  0  0
 28 30  1  0  0  0
 30 31  2  0  0  0
 30 25  1  0  0  0
 16  1  1  0  0  0
 15  4  1  0  0  0
 14 10  1  0  0  0
 29 32  1  0  0  0
 18 20  1  0  0  0
 18 21  1  0  0  0
M  END
> <minimizedAffinity>
-8.60565

> <CNNscore>
0.3826397955

> <CNNaffinity>
6.3486809731

> <CNN_VS>
2.4292581081

> <CNNaffinity_variance>
0.3394355774

$$$$
[H]O[C@]1(C#Cc2c([H])c([H])c3c(c2[H])-n2nc(C(=O)N([H])[H])c([H])c2[C@@](F)(C([H])([H])[H])C([H])([H])O3)C(=O)N(C([H])([H])[H])C([H])([H])C1([H])[H]


 32 35  0  0  0  0  0  0  0  0999 V2000
   41.0705   12.3435  -16.1557 C   0  0  0  0  0  0  0  0  0  0  0  0
   41.2270   11.5141  -17.2634 C   0  0  0  0  0  0  0  0  0  0  0  0
   40.1507   10.8431  -17.8063 C   0  0  0  0  0  0  0  0  0  0  0  0
   38.8798   10.9643  -17.2783 C   0  0  0  0  0  0  0  0  0  0  0  0
   37.9223   10.2235  -17.9456 O   0  0  0  0  0  0  0  0  0  0  0  0
   36.5390   10.0178  -17.6228 C   0  0  0  0  0  0  0  0  0  0  0  0
   35.8472   11.3056  -17.2782 C   0  0  0  0  0  0  0  0  0  0  0  0
   36.0717   12.3291  -18.3821 C   0  0  0  0  0  0  0  0  0  0  0  0
   34.4947   11.0580  -17.2384 F   0  0  0  0  0  0  0  0  0  0  0  0
   36.2566   11.8428  -15.9567 C   0  0  0  0  0  0  0  0  0  0  0  0
   35.4199   12.2434  -14.9376 C   0  0  0  0  0  0  0  0  0  0  0  0
   36.1855   12.6786  -13.8802 C   0  0  0  0  0  0  0  0  0  0  0  0
   37.4780   12.5377  -14.2683 N   0  0  0  0  0  0  0  0  0  0  0  0
   37.4994   12.0465  -15.4881 N   0  0  0  0  0  0  0  0  0  0  0  0
   38.7221   11.7783  -16.1902 C   0  0  0  0  0  0  0  0  0  0  0  0
   39.7950   12.4533  -15.6410 C   0  0  0  0  0  0  0  0  0  0  0  0
   35.7387   13.1949  -12.5855 C   0  0  0  0  0  0  0  0  0  0  0  0
   34.3810   13.6016  -12.4783 N   0  0  0  0  0  0  0  0  0  0  0  0
   36.5091   13.2772  -11.6149 O   0  0  0  0  0  0  0  0  0  0  0  0
   33.6304   12.8857  -12.5910 H   0  0  0  0  0  0  0  0  0  0  0  0
   34.0819   14.5826  -12.2920 H   0  0  0  0  0  0  0  0  0  0  0  0
   43.1075   13.6486  -15.0752 C   0  0  0  0  0  0  0  0  0  0  0  0
   42.1815   13.0490  -15.5787 C   0  0  0  0  0  0  0  0  0  0  0  0
   44.9542   15.9012  -11.1660 C   0  0  0  0  0  0  0  0  0  0  0  0
   44.8114   15.0002  -12.2903 N   0  0  0  0  0  0  0  0  0  0  0  0
   45.7140   13.9388  -12.6297 C   0  0  0  0  0  0  0  0  0  0  0  0
   45.1925   13.3756  -13.9351 C   0  0  0  0  0  0  0  0  0  0  0  0
   44.2110   14.3934  -14.4658 C   0  0  0  0  0  0  0  0  0  0  0  0
   44.8210   15.2698  -15.3346 O   0  0  0  0  0  0  0  0  0  0  0  0
   43.7448   15.0471  -13.2199 C   0  0  0  0  0  0  0  0  0  0  0  0
   42.5811   15.5403  -13.0806 O   0  0  0  0  0  0  0  0  0  0  0  0
   44.4828   15.0683  -16.2516 H   0  0  0  0  0  0  0  0  0  0  0  0
 24 25  1  0  0  0
 25 26  1  0  0  0
 26 27  1  0  0  0
 27 28  1  0  0  0
 28 29  1  0  0  0
 28 22  1  0  0  0
 22 23  3  0  0  0
 23  1  1  0  0  0
  1  2  2  0  0  0
  2  3  1  0  0  0
  3  4  2  0  0  0
  4  5  1  0  0  0
  5  6  1  0  0  0
  6  7  1  0  0  0
  7  8  1  0  0  0
  7  9  1  0  0  0
  7 10  1  0  0  0
 10 11  2  0  0  0
 11 12  1  0  0  0
 12 13  2  0  0  0
 13 14  1  0  0  0
 14 15  1  0  0  0
 15 16  2  0  0  0
 12 17  1  0  0  0
 17 18  1  0  0  0
 17 19  2  0  0  0
 28 30  1  0  0  0
 30 31  2  0  0  0
 30 25  1  0  0  0
 16  1  1  0  0  0
 15  4  1  0  0  0
 14 10  1  0  0  0
 29 32  1  0  0  0
 18 20  1  0  0  0
 18 21  1  0  0  0
M  END
> <minimizedAffinity>
-6.59654

> <CNNscore>
0.2120157480

> <CNNaffinity>
6.3437385559

> <CNN_VS>
1.3449724913

> <CNNaffinity_variance>
0.2462286651

$$$$
[H]O[C@]1(C#Cc2c([H])c([H])c3c(c2[H])-n2nc(C(=O)N([H])[H])c([H])c2[C@@](F)(C([H])([H])[H])C([H])([H])O3)C(=O)N(C([H])([H])[H])C([H])([H])C1([H])[H]


 32 35  0  0  0  0  0  0  0  0999 V2000
   40.1591   13.3834  -14.8376 C   0  0  0  0  0  0  0  0  0  0  0  0
   40.7631   12.4737  -15.7019 C   0  0  0  0  0  0  0  0  0  0  0  0
   40.0101   11.5636  -16.4148 C   0  0  0  0  0  0  0  0  0  0  0  0
   38.6339   11.5156  -16.3027 C   0  0  0  0  0  0  0  0  0  0  0  0
   38.0409   10.5441  -17.0872 O   0  0  0  0  0  0  0  0  0  0  0  0
   36.6670   10.1332  -17.1478 C   0  0  0  0  0  0  0  0  0  0  0  0
   35.7347   11.3076  -17.2325 C   0  0  0  0  0  0  0  0  0  0  0  0
   36.1505   12.2213  -18.3766 C   0  0  0  0  0  0  0  0  0  0  0  0
   34.4835   10.8287  -17.5442 F   0  0  0  0  0  0  0  0  0  0  0  0
   35.6363   12.0573  -15.9554 C   0  0  0  0  0  0  0  0  0  0  0  0
   34.4782   12.4163  -15.3006 C   0  0  0  0  0  0  0  0  0  0  0  0
   34.8109   13.0996  -14.1533 C   0  0  0  0  0  0  0  0  0  0  0  0
   36.1665   13.1482  -14.1239 N   0  0  0  0  0  0  0  0  0  0  0  0
   36.6323   12.5320  -15.1884 N   0  0  0  0  0  0  0  0  0  0  0  0
   38.0371   12.4077  -15.4545 C   0  0  0  0  0  0  0  0  0  0  0  0
   38.7844   13.3219  -14.7375 C   0  0  0  0  0  0  0  0  0  0  0  0
   33.9182   13.6729  -13.1449 C   0  0  0  0  0  0  0  0  0  0  0  0
   32.5290   13.7029  -13.4443 N   0  0  0  0  0  0  0  0  0  0  0  0
   34.3497   14.1171  -12.0685 O   0  0  0  0  0  0  0  0  0  0  0  0
   32.0193   12.8000  -13.5608 H   0  0  0  0  0  0  0  0  0  0  0  0
   31.9783   14.5807  -13.5568 H   0  0  0  0  0  0  0  0  0  0  0  0
   41.5876   15.1269  -13.4448 C   0  0  0  0  0  0  0  0  0  0  0  0
   40.9295   14.3373  -14.0881 C   0  0  0  0  0  0  0  0  0  0  0  0
   43.2500   16.5112   -9.0760 C   0  0  0  0  0  0  0  0  0  0  0  0
   43.2153   16.1134  -10.4677 N   0  0  0  0  0  0  0  0  0  0  0  0
   44.3606   15.8581  -11.2920 C   0  0  0  0  0  0  0  0  0  0  0  0
   43.8039   15.5934  -12.6752 C   0  0  0  0  0  0  0  0  0  0  0  0
   42.3715   16.0715  -12.6466 C   0  0  0  0  0  0  0  0  0  0  0  0
   42.2700   17.3715  -13.0876 O   0  0  0  0  0  0  0  0  0  0  0  0
   42.0273   15.9203  -11.2129 C   0  0  0  0  0  0  0  0  0  0  0  0
   40.8534   15.6628  -10.7975 O   0  0  0  0  0  0  0  0  0  0  0  0
   41.8176   17.3528  -13.9769 H   0  0  0  0  0  0  0  0  0  0  0  0
 24 25  1  0  0  0
 25 26  1  0  0  0
 26 27  1  0  0  0
 27 28  1  0  0  0
 28 29  1  0  0  0
 28 22  1  0  0  0
 22 23  3  0  0  0
 23  1  1  0  0  0
  1  2  2  0  0  0
  2  3  1  0  0  0
  3  4  2  0  0  0
  4  5  1  0  0  0
  5  6  1  0  0  0
  6  7  1  0  0  0
  7  8  1  0  0  0
  7  9  1  0  0  0
  7 10  1  0  0  0
 10 11  2  0  0  0
 11 12  1  0  0  0
 12 13  2  0  0  0
 13 14  1  0  0  0
 14 15  1  0  0  0
 15 16  2  0  0  0
 12 17  1  0  0  0
 17 18  1  0  0  0
 17 19  2  0  0  0
 28 30  1  0  0  0
 30 31  2  0  0  0
 30 25  1  0  0  0
 16  1  1  0  0  0
 15  4  1  0  0  0
 14 10  1  0  0  0
 29 32  1  0  0  0
 18 20  1  0  0  0
 18 21  1  0  0  0
M  END
> <minimizedAffinity>
-6.02896

> <CNNscore>
0.2106448412

> <CNNaffinity>
6.3691291809

> <CNN_VS>
1.3416242599

> <CNNaffinity_variance>
0.4582541883

$$$$
[H]O[C@]1(C#Cc2c([H])c([H])c3c(c2[H])-n2nc(C(=O)N([H])[H])c([H])c2[C@@](F)(C([H])([H])[H])C([H])([H])O3)C(=O)N(C([H])([H])[H])C([H])([H])C1([H])[H]


 32 35  0  0  0  0  0  0  0  0999 V2000
   40.4846   16.2875  -10.7421 C   0  0  0  0  0  0  0  0  0  0  0  0
   40.6826   16.2972  -12.1206 C   0  0  0  0  0  0  0  0  0  0  0  0
   41.8982   15.9392  -12.6662 C   0  0  0  0  0  0  0  0  0  0  0  0
   42.9642   15.5583  -11.8742 C   0  0  0  0  0  0  0  0  0  0  0  0
   44.1037   15.2333  -12.5860 O   0  0  0  0  0  0  0  0  0  0  0  0
   45.4163   14.9050  -12.1070 C   0  0  0  0  0  0  0  0  0  0  0  0
   45.3699   13.9018  -10.9903 C   0  0  0  0  0  0  0  0  0  0  0  0
   44.5526   12.6894  -11.4129 C   0  0  0  0  0  0  0  0  0  0  0  0
   46.6531   13.4566  -10.7724 F   0  0  0  0  0  0  0  0  0  0  0  0
   44.8599   14.4771   -9.7208 C   0  0  0  0  0  0  0  0  0  0  0  0
   45.4549   14.3885   -8.4810 C   0  0  0  0  0  0  0  0  0  0  0  0
   44.6710   15.0511   -7.5644 C   0  0  0  0  0  0  0  0  0  0  0  0
   43.6092   15.5346   -8.2570 N   0  0  0  0  0  0  0  0  0  0  0  0
   43.7376   15.1880   -9.5192 N   0  0  0  0  0  0  0  0  0  0  0  0
   42.7734   15.5475  -10.5196 C   0  0  0  0  0  0  0  0  0  0  0  0
   41.5592   15.9047   -9.9660 C   0  0  0  0  0  0  0  0  0  0  0  0
   44.8985   15.2231   -6.1287 C   0  0  0  0  0  0  0  0  0  0  0  0
   44.9506   14.0480   -5.3307 N   0  0  0  0  0  0  0  0  0  0  0  0
   45.0413   16.3473   -5.6209 O   0  0  0  0  0  0  0  0  0  0  0  0
   45.7183   13.3609   -5.4955 H   0  0  0  0  0  0  0  0  0  0  0  0
   44.2618   13.8245   -4.5809 H   0  0  0  0  0  0  0  0  0  0  0  0
   38.1562   16.9502   -9.6655 C   0  0  0  0  0  0  0  0  0  0  0  0
   39.2247   16.6577  -10.1585 C   0  0  0  0  0  0  0  0  0  0  0  0
   33.3887   16.0020   -9.2936 C   0  0  0  0  0  0  0  0  0  0  0  0
   34.7715   16.2423   -8.9383 N   0  0  0  0  0  0  0  0  0  0  0  0
   35.3265   16.1316   -7.6206 C   0  0  0  0  0  0  0  0  0  0  0  0
   36.7630   16.5916   -7.7543 C   0  0  0  0  0  0  0  0  0  0  0  0
   36.8540   17.2918   -9.0894 C   0  0  0  0  0  0  0  0  0  0  0  0
   36.6568   18.6476   -8.9568 O   0  0  0  0  0  0  0  0  0  0  0  0
   35.7768   16.6247   -9.8585 C   0  0  0  0  0  0  0  0  0  0  0  0
   35.8149   16.4594  -11.1187 O   0  0  0  0  0  0  0  0  0  0  0  0
   37.5328   19.0964   -9.1213 H   0  0  0  0  0  0  0  0  0  0  0  0
 24 25  1  0  0  0
 25 26  1  0  0  0
 26 27  1  0  0  0
 27 28  1  0  0  0
 28 29  1  0  0  0
 28 22  1  0  0  0
 22 23  3  0  0  0
 23  1  1  0  0  0
  1  2  2  0  0  0
  2  3  1  0  0  0
  3  4  2  0  0  0
  4  5  1  0  0  0
  5  6  1  0  0  0
  6  7  1  0  0  0
  7  8  1  0  0  0
  7  9  1  0  0  0
  7 10  1  0  0  0
 10 11  2  0  0  0
 11 12  1  0  0  0
 12 13  2  0  0  0
 13 14  1  0  0  0
 14 15  1  0  0  0
 15 16  2  0  0  0
 12 17  1  0  0  0
 17 18  1  0  0  0
 17 19  2  0  0  0
 28 30  1  0  0  0
 30 31  2  0  0  0
 30 25  1  0  0  0
 16  1  1  0  0  0
 15  4  1  0  0  0
 14 10  1  0  0  0
 29 32  1  0  0  0
 18 20  1  0  0  0
 18 21  1  0  0  0
M  END
> <minimizedAffinity>
-5.67610

> <CNNscore>
0.2038493156

> <CNNaffinity>
5.1014356613

> <CNN_VS>
1.0399241447

> <CNNaffinity_variance>
0.2543820441

$$$$
[H]O[C@](C#Cc1c([H])c2c(c([H])c1F)C1([H])C([H])([H])C([H])(c3c-2nc(C(=O)N([H])[H])n3C([H])([H])[H])C1([H])[H])(c1nc([H])c([H])c([H])n1)C([H])([H])[H]


 34 38  0  0  0  0  0  0  0  0999 V2000
   37.0475   10.8483  -17.5936 C   0  0  0  0  0  0  0  0  0  0  0  0
   37.9571   11.6976  -16.8543 N   0  0  0  0  0  0  0  0  0  0  0  0
   39.2327   11.9465  -17.1901 C   0  0  0  0  0  0  0  0  0  0  0  0
   39.7569   12.7810  -16.2575 N   0  0  0  0  0  0  0  0  0  0  0  0
   38.8055   13.0467  -15.3474 C   0  0  0  0  0  0  0  0  0  0  0  0
   37.6598   12.3510  -15.7364 C   0  0  0  0  0  0  0  0  0  0  0  0
   36.3441   12.3628  -15.0010 C   0  0  0  0  0  0  0  0  0  0  0  0
   36.5672   12.1638  -13.5035 C   0  0  0  0  0  0  0  0  0  0  0  0
   36.5462   13.6729  -13.2509 C   0  0  0  0  0  0  0  0  0  0  0  0
   35.9653   13.8077  -14.6525 C   0  0  0  0  0  0  0  0  0  0  0  0
   37.9599   14.1991  -13.2192 C   0  0  0  0  0  0  0  0  0  0  0  0
   38.2529   15.0142  -12.1778 C   0  0  0  0  0  0  0  0  0  0  0  0
   39.5299   15.5496  -12.0608 C   0  0  0  0  0  0  0  0  0  0  0  0
   39.7862   16.3559  -11.0126 F   0  0  0  0  0  0  0  0  0  0  0  0
   40.5377   15.2872  -12.9727 C   0  0  0  0  0  0  0  0  0  0  0  0
   40.2134   14.4556  -14.0222 C   0  0  0  0  0  0  0  0  0  0  0  0
   38.9528   13.9136  -14.1571 C   0  0  0  0  0  0  0  0  0  0  0  0
   39.9930   11.4518  -18.3313 C   0  0  0  0  0  0  0  0  0  0  0  0
   39.3717   10.9797  -19.5215 N   0  0  0  0  0  0  0  0  0  0  0  0
   41.2497   11.4172  -18.3209 O   0  0  0  0  0  0  0  0  0  0  0  0
   38.9786   11.6688  -20.2173 H   0  0  0  0  0  0  0  0  0  0  0  0
   39.2819    9.9700  -19.7487 H   0  0  0  0  0  0  0  0  0  0  0  0
   41.8436   15.8617  -12.8124 C   0  0  0  0  0  0  0  0  0  0  0  0
   42.9646   16.3310  -12.6778 C   0  0  0  0  0  0  0  0  0  0  0  0
   44.3162   16.8730  -12.5307 C   0  0  0  0  0  0  0  0  0  0  0  0
   44.3531   18.1710  -13.3039 C   0  0  0  0  0  0  0  0  0  0  0  0
   44.5823   17.2134  -11.1881 O   0  0  0  0  0  0  0  0  0  0  0  0
   44.6818   16.3841  -10.6937 H   0  0  0  0  0  0  0  0  0  0  0  0
   45.3003   15.8954  -13.0407 C   0  0  0  0  0  0  0  0  0  0  0  0
   45.0672   15.1066  -14.1122 N   0  0  0  0  0  0  0  0  0  0  0  0
   45.9700   14.2214  -14.5673 C   0  0  0  0  0  0  0  0  0  0  0  0
   47.1980   14.0897  -13.9327 C   0  0  0  0  0  0  0  0  0  0  0  0
   47.4291   14.8961  -12.8415 C   0  0  0  0  0  0  0  0  0  0  0  0
   46.4851   15.7685  -12.4281 N   0  0  0  0  0  0  0  0  0  0  0  0
  1  2  1  0  0  0
  2  3  1  0  0  0
  3  4  2  0  0  0
  4  5  1  0  0  0
  5  6  2  0  0  0
  6  7  1  0  0  0
  7  8  1  0  0  0
  8  9  1  0  0  0
  9 10  1  0  0  0
  9 11  1  0  0  0
 11 12  2  0  0  0
 12 13  1  0  0  0
 13 14  1  0  0  0
 13 15  2  0  0  0
 15 16  1  0  0  0
 16 17  2  0  0  0
 15 23  1  0  0  0
 23 24  3  0  0  0
 25 24  1  0  0  0
 25 26  1  0  0  0
 25 27  1  0  0  0
 25 29  1  0  0  0
 29 30  2  0  0  0
 30 31  1  0  0  0
 31 32  2  0  0  0
 32 33  1  0  0  0
 33 34  2  0  0  0
  3 18  1  0  0  0
 18 19  1  0  0  0
 18 20  2  0  0  0
  6  2  1  0  0  0
 10  7  1  0  0  0
 17 11  1  0  0  0
 34 29  1  0  0  0
  5 17  1  0  0  0
 27 28  1  0  0  0
 19 21  1  0  0  0
 19 22  1  0  0  0
M  END
> <minimizedAffinity>
-9.05754

> <CNNscore>
0.4770459533

> <CNNaffinity>
7.2289314270

> <CNN_VS>
3.4485325813

> <CNNaffinity_variance>
0.3290887773

$$$$
[H]O[C@](C#Cc1c([H])c2c(c([H])c1F)C1([H])C([H])([H])C([H])(c3c-2nc(C(=O)N([H])[H])n3C([H])([H])[H])C1([H])[H])(c1nc([H])c([H])c([H])n1)C([H])([H])[H]


 34 38  0  0  0  0  0  0  0  0999 V2000
   37.0996   10.7968  -17.6569 C   0  0  0  0  0  0  0  0  0  0  0  0
   37.9833   11.6618  -16.9046 N   0  0  0  0  0  0  0  0  0  0  0  0
   39.2595   11.9319  -17.2210 C   0  0  0  0  0  0  0  0  0  0  0  0
   39.7553   12.7758  -16.2814 N   0  0  0  0  0  0  0  0  0  0  0  0
   38.7858   13.0261  -15.3861 C   0  0  0  0  0  0  0  0  0  0  0  0
   37.6580   12.3108  -15.7919 C   0  0  0  0  0  0  0  0  0  0  0  0
   36.3312   12.3010  -15.0767 C   0  0  0  0  0  0  0  0  0  0  0  0
   36.5346   12.1067  -13.5758 C   0  0  0  0  0  0  0  0  0  0  0  0
   36.4843   13.6154  -13.3250 C   0  0  0  0  0  0  0  0  0  0  0  0
   35.9228   13.7395  -14.7354 C   0  0  0  0  0  0  0  0  0  0  0  0
   37.8883   14.1654  -13.2721 C   0  0  0  0  0  0  0  0  0  0  0  0
   38.1516   14.9861  -12.2271 C   0  0  0  0  0  0  0  0  0  0  0  0
   39.4175   15.5429  -12.0912 C   0  0  0  0  0  0  0  0  0  0  0  0
   39.6441   16.3542  -11.0399 F   0  0  0  0  0  0  0  0  0  0  0  0
   40.4434   15.2970  -12.9873 C   0  0  0  0  0  0  0  0  0  0  0  0
   40.1492   14.4594  -14.0408 C   0  0  0  0  0  0  0  0  0  0  0  0
   38.9002   13.8961  -14.1945 C   0  0  0  0  0  0  0  0  0  0  0  0
   40.0454   11.4494  -18.3500 C   0  0  0  0  0  0  0  0  0  0  0  0
   39.4504   10.9199  -19.5295 N   0  0  0  0  0  0  0  0  0  0  0  0
   41.3023   11.4773  -18.3380 O   0  0  0  0  0  0  0  0  0  0  0  0
   39.0249   11.5725  -20.2412 H   0  0  0  0  0  0  0  0  0  0  0  0
   39.4111    9.9020  -19.7334 H   0  0  0  0  0  0  0  0  0  0  0  0
   41.7368   15.8935  -12.8075 C   0  0  0  0  0  0  0  0  0  0  0  0
   42.8472   16.3853  -12.6662 C   0  0  0  0  0  0  0  0  0  0  0  0
   44.1840   16.9632  -12.5194 C   0  0  0  0  0  0  0  0  0  0  0  0
   45.1262   16.0939  -13.3198 C   0  0  0  0  0  0  0  0  0  0  0  0
   44.2487   18.2454  -13.1031 O   0  0  0  0  0  0  0  0  0  0  0  0
   43.7444   18.8483  -12.5337 H   0  0  0  0  0  0  0  0  0  0  0  0
   44.5503   17.0069  -11.0883 C   0  0  0  0  0  0  0  0  0  0  0  0
   43.7816   16.4722  -10.1148 N   0  0  0  0  0  0  0  0  0  0  0  0
   44.1253   16.5175   -8.8165 C   0  0  0  0  0  0  0  0  0  0  0  0
   45.3097   17.1307   -8.4301 C   0  0  0  0  0  0  0  0  0  0  0  0
   46.0883   17.6735   -9.4269 C   0  0  0  0  0  0  0  0  0  0  0  0
   45.6933   17.5986  -10.7158 N   0  0  0  0  0  0  0  0  0  0  0  0
  1  2  1  0  0  0
  2  3  1  0  0  0
  3  4  2  0  0  0
  4  5  1  0  0  0
  5  6  2  0  0  0
  6  7  1  0  0  0
  7  8  1  0  0  0
  8  9  1  0  0  0
  9 10  1  0  0  0
  9 11  1  0  0  0
 11 12  2  0  0  0
 12 13  1  0  0  0
 13 14  1  0  0  0
 13 15  2  0  0  0
 15 16  1  0  0  0
 16 17  2  0  0  0
 15 23  1  0  0  0
 23 24  3  0  0  0
 25 24  1  0  0  0
 25 26  1  0  0  0
 25 27  1  0  0  0
 25 29  1  0  0  0
 29 30  2  0  0  0
 30 31  1  0  0  0
 31 32  2  0  0  0
 32 33  1  0  0  0
 33 34  2  0  0  0
  3 18  1  0  0  0
 18 19  1  0  0  0
 18 20  2  0  0  0
  6  2  1  0  0  0
 10  7  1  0  0  0
 17 11  1  0  0  0
 34 29  1  0  0  0
  5 17  1  0  0  0
 27 28  1  0  0  0
 19 21  1  0  0  0
 19 22  1  0  0  0
M  END
> <minimizedAffinity>
-8.96892

> <CNNscore>
0.4511579275

> <CNNaffinity>
7.1020402908

> <CNN_VS>
3.2041418552

> <CNNaffinity_variance>
0.2588017583

$$$$
[H]O[C@](C#Cc1c([H])c2c(c([H])c1F)C1([H])C([H])([H])C([H])(c3c-2nc(C(=O)N([H])[H])n3C([H])([H])[H])C1([H])[H])(c1nc([H])c([H])c([H])n1)C([H])([H])[H]


 34 38  0  0  0  0  0  0  0  0999 V2000
   40.4118   11.0078  -18.6548 C   0  0  0  0  0  0  0  0  0  0  0  0
   39.7432   11.5374  -17.4853 N   0  0  0  0  0  0  0  0  0  0  0  0
   40.3389   12.2125  -16.4898 C   0  0  0  0  0  0  0  0  0  0  0  0
   39.3891   12.5404  -15.5781 N   0  0  0  0  0  0  0  0  0  0  0  0
   38.2086   12.0681  -16.0108 C   0  0  0  0  0  0  0  0  0  0  0  0
   38.4440   11.4292  -17.2292 C   0  0  0  0  0  0  0  0  0  0  0  0
   37.3940   10.7533  -18.0733 C   0  0  0  0  0  0  0  0  0  0  0  0
   36.5009    9.8676  -17.2073 C   0  0  0  0  0  0  0  0  0  0  0  0
   35.4551   10.9759  -17.0678 C   0  0  0  0  0  0  0  0  0  0  0  0
   36.1766   11.6759  -18.2121 C   0  0  0  0  0  0  0  0  0  0  0  0
   35.6793   11.7219  -15.7757 C   0  0  0  0  0  0  0  0  0  0  0  0
   34.5721   11.9239  -15.0220 C   0  0  0  0  0  0  0  0  0  0  0  0
   34.6763   12.6016  -13.8134 C   0  0  0  0  0  0  0  0  0  0  0  0
   33.5548   12.7843  -13.0897 F   0  0  0  0  0  0  0  0  0  0  0  0
   35.8779   13.0907  -13.3309 C   0  0  0  0  0  0  0  0  0  0  0  0
   36.9884   12.8721  -14.1166 C   0  0  0  0  0  0  0  0  0  0  0  0
   36.9073   12.2020  -15.3189 C   0  0  0  0  0  0  0  0  0  0  0  0
   41.7437   12.5710  -16.3383 C   0  0  0  0  0  0  0  0  0  0  0  0
   42.7426   12.1742  -17.2712 N   0  0  0  0  0  0  0  0  0  0  0  0
   42.1476   13.2566  -15.3648 O   0  0  0  0  0  0  0  0  0  0  0  0
   42.8246   12.6742  -18.1968 H   0  0  0  0  0  0  0  0  0  0  0  0
   43.4115   11.4011  -17.0868 H   0  0  0  0  0  0  0  0  0  0  0  0
   35.9395   13.7850  -12.0758 C   0  0  0  0  0  0  0  0  0  0  0  0
   36.0087   14.3633  -11.0008 C   0  0  0  0  0  0  0  0  0  0  0  0
   36.1167   15.0497   -9.7125 C   0  0  0  0  0  0  0  0  0  0  0  0
   35.2280   16.2695   -9.7913 C   0  0  0  0  0  0  0  0  0  0  0  0
   35.5948   14.2559   -8.6702 O   0  0  0  0  0  0  0  0  0  0  0  0
   36.2179   13.5267   -8.5220 H   0  0  0  0  0  0  0  0  0  0  0  0
   37.5281   15.4072   -9.4585 C   0  0  0  0  0  0  0  0  0  0  0  0
   38.2967   14.7702   -8.5485 N   0  0  0  0  0  0  0  0  0  0  0  0
   39.5794   15.1038   -8.3264 C   0  0  0  0  0  0  0  0  0  0  0  0
   40.1647   16.1383   -9.0443 C   0  0  0  0  0  0  0  0  0  0  0  0
   39.3761   16.7832   -9.9698 C   0  0  0  0  0  0  0  0  0  0  0  0
   38.0926   16.4055  -10.1513 N   0  0  0  0  0  0  0  0  0  0  0  0
  1  2  1  0  0  0
  2  3  1  0  0  0
  3  4  2  0  0  0
  4  5  1  0  0  0
  5  6  2  0  0  0
  6  7  1  0  0  0
  7  8  1  0  0  0
  8  9  1  0  0  0
  9 10  1  0  0  0
  9 11  1  0  0  0
 11 12  2  0  0  0
 12 13  1  0  0  0
 13 14  1  0  0  0
 13 15  2  0  0  0
 15 16  1  0  0  0
 16 17  2  0  0  0
 15 23  1  0  0  0
 23 24  3  0  0  0
 25 24  1  0  0  0
 25 26  1  0  0  0
 25 27  1  0  0  0
 25 29  1  0  0  0
 29 30  2  0  0  0
 30 31  1  0  0  0
 31 32  2  0  0  0
 32 33  1  0  0  0
 33 34  2  0  0  0
  3 18  1  0  0  0
 18 19  1  0  0  0
 18 20  2  0  0  0
  6  2  1  0  0  0
 10  7  1  0  0  0
 17 11  1  0  0  0
 34 29  1  0  0  0
  5 17  1  0  0  0
 27 28  1  0  0  0
 19 21  1  0  0  0
 19 22  1  0  0  0
M  END
> <minimizedAffinity>
-9.36176

> <CNNscore>
0.3432601988

> <CNNaffinity>
7.2500686646

> <CNN_VS>
2.4886600971

> <CNNaffinity_variance>
0.0803206414

$$$$
[H]O[C@](C#Cc1c([H])c2c(c([H])c1F)C1([H])C([H])([H])C([H])(c3c-2nc(C(=O)N([H])[H])n3C([H])([H])[H])C1([H])[H])(c1nc([H])c([H])c([H])n1)C([H])([H])[H]


 34 38  0  0  0  0  0  0  0  0999 V2000
   40.5164   10.9988  -18.4324 C   0  0  0  0  0  0  0  0  0  0  0  0
   39.7563   11.6218  -17.3697 N   0  0  0  0  0  0  0  0  0  0  0  0
   40.2630   12.4249  -16.4210 C   0  0  0  0  0  0  0  0  0  0  0  0
   39.2462   12.8079  -15.6084 N   0  0  0  0  0  0  0  0  0  0  0  0
   38.1134   12.2415  -16.0554 C   0  0  0  0  0  0  0  0  0  0  0  0
   38.4483   11.4861  -17.1802 C   0  0  0  0  0  0  0  0  0  0  0  0
   37.4790   10.6788  -18.0052 C   0  0  0  0  0  0  0  0  0  0  0  0
   36.5658    9.8538  -17.1013 C   0  0  0  0  0  0  0  0  0  0  0  0
   35.4736   10.9248  -17.1463 C   0  0  0  0  0  0  0  0  0  0  0  0
   36.2402   11.5280  -18.3161 C   0  0  0  0  0  0  0  0  0  0  0  0
   35.5885   11.8142  -15.9331 C   0  0  0  0  0  0  0  0  0  0  0  0
   34.4292   12.0483  -15.2727 C   0  0  0  0  0  0  0  0  0  0  0  0
   34.4321   12.8558  -14.1419 C   0  0  0  0  0  0  0  0  0  0  0  0
   33.2613   13.0669  -13.5100 F   0  0  0  0  0  0  0  0  0  0  0  0
   35.5823   13.4452  -13.6461 C   0  0  0  0  0  0  0  0  0  0  0  0
   36.7474   13.1913  -14.3363 C   0  0  0  0  0  0  0  0  0  0  0  0
   36.7669   12.3929  -15.4602 C   0  0  0  0  0  0  0  0  0  0  0  0
   41.6415   12.8577  -16.2274 C   0  0  0  0  0  0  0  0  0  0  0  0
   42.7357   12.2710  -16.9232 N   0  0  0  0  0  0  0  0  0  0  0  0
   41.9359   13.7815  -15.4269 O   0  0  0  0  0  0  0  0  0  0  0  0
   42.9107   12.5218  -17.9330 H   0  0  0  0  0  0  0  0  0  0  0  0
   43.3872   11.5933  -16.4810 H   0  0  0  0  0  0  0  0  0  0  0  0
   35.5392   14.2723  -12.4735 C   0  0  0  0  0  0  0  0  0  0  0  0
   35.5159   14.9626  -11.4646 C   0  0  0  0  0  0  0  0  0  0  0  0
   35.5114   15.7800  -10.2504 C   0  0  0  0  0  0  0  0  0  0  0  0
   36.3978   15.0779   -9.2477 C   0  0  0  0  0  0  0  0  0  0  0  0
   36.1082   17.0364  -10.4832 O   0  0  0  0  0  0  0  0  0  0  0  0
   35.4946   17.5511  -11.0314 H   0  0  0  0  0  0  0  0  0  0  0  0
   34.1258   15.9280   -9.7580 C   0  0  0  0  0  0  0  0  0  0  0  0
   33.0425   15.7751  -10.5503 N   0  0  0  0  0  0  0  0  0  0  0  0
   31.7870   15.9116  -10.0913 C   0  0  0  0  0  0  0  0  0  0  0  0
   31.5629   16.2214   -8.7564 C   0  0  0  0  0  0  0  0  0  0  0  0
   32.6709   16.3759   -7.9545 C   0  0  0  0  0  0  0  0  0  0  0  0
   33.9099   16.2270   -8.4699 N   0  0  0  0  0  0  0  0  0  0  0  0
  1  2  1  0  0  0
  2  3  1  0  0  0
  3  4  2  0  0  0
  4  5  1  0  0  0
  5  6  2  0  0  0
  6  7  1  0  0  0
  7  8  1  0  0  0
  8  9  1  0  0  0
  9 10  1  0  0  0
  9 11  1  0  0  0
 11 12  2  0  0  0
 12 13  1  0  0  0
 13 14  1  0  0  0
 13 15  2  0  0  0
 15 16  1  0  0  0
 16 17  2  0  0  0
 15 23  1  0  0  0
 23 24  3  0  0  0
 25 24  1  0  0  0
 25 26  1  0  0  0
 25 27  1  0  0  0
 25 29  1  0  0  0
 29 30  2  0  0  0
 30 31  1  0  0  0
 31 32  2  0  0  0
 32 33  1  0  0  0
 33 34  2  0  0  0
  3 18  1  0  0  0
 18 19  1  0  0  0
 18 20  2  0  0  0
  6  2  1  0  0  0
 10  7  1  0  0  0
 17 11  1  0  0  0
 34 29  1  0  0  0
  5 17  1  0  0  0
 27 28  1  0  0  0
 19 21  1  0  0  0
 19 22  1  0  0  0
M  END
> <minimizedAffinity>
-9.28525

> <CNNscore>
0.3274963796

> <CNNaffinity>
7.1485748291

> <CNN_VS>
2.3411324024

> <CNNaffinity_variance>
0.1440332532

$$$$
[H]O[C@](C#Cc1c([H])c2c(c([H])c1F)C1([H])C([H])([H])C([H])(c3c-2nc(C(=O)N([H])[H])n3C([H])([H])[H])C1([H])[H])(c1nc([H])c([H])c([H])n1)C([H])([H])[H]


 34 38  0  0  0  0  0  0  0  0999 V2000
   33.9311   10.9918  -16.8502 C   0  0  0  0  0  0  0  0  0  0  0  0
   35.1692   11.5216  -16.3194 N   0  0  0  0  0  0  0  0  0  0  0  0
   35.2860   12.2383  -15.1905 C   0  0  0  0  0  0  0  0  0  0  0  0
   36.5953   12.5547  -15.0278 N   0  0  0  0  0  0  0  0  0  0  0  0
   37.2856   12.0336  -16.0554 C   0  0  0  0  0  0  0  0  0  0  0  0
   36.3672   11.3757  -16.8751 C   0  0  0  0  0  0  0  0  0  0  0  0
   36.7069   10.6431  -18.1478 C   0  0  0  0  0  0  0  0  0  0  0  0
   37.6405   11.4842  -19.0155 C   0  0  0  0  0  0  0  0  0  0  0  0
   38.8763   10.7740  -18.4586 C   0  0  0  0  0  0  0  0  0  0  0  0
   37.9151    9.7297  -17.9060 C   0  0  0  0  0  0  0  0  0  0  0  0
   39.4632   11.5900  -17.3335 C   0  0  0  0  0  0  0  0  0  0  0  0
   40.8030   11.7812  -17.3923 C   0  0  0  0  0  0  0  0  0  0  0  0
   41.4370   12.5204  -16.4010 C   0  0  0  0  0  0  0  0  0  0  0  0
   42.7702   12.6907  -16.4914 F   0  0  0  0  0  0  0  0  0  0  0  0
   40.7556   13.0821  -15.3351 C   0  0  0  0  0  0  0  0  0  0  0  0
   39.3944   12.8726  -15.2990 C   0  0  0  0  0  0  0  0  0  0  0  0
   38.7454   12.1427  -16.2722 C   0  0  0  0  0  0  0  0  0  0  0  0
   34.2473   12.6459  -14.2525 C   0  0  0  0  0  0  0  0  0  0  0  0
   33.1678   13.4960  -14.6237 N   0  0  0  0  0  0  0  0  0  0  0  0
   34.2531   12.2624  -13.0552 O   0  0  0  0  0  0  0  0  0  0  0  0
   32.3619   13.1072  -15.1828 H   0  0  0  0  0  0  0  0  0  0  0  0
   33.1286   14.5022  -14.3682 H   0  0  0  0  0  0  0  0  0  0  0  0
   41.4514   13.8393  -14.3333 C   0  0  0  0  0  0  0  0  0  0  0  0
   42.0333   14.4729  -13.4645 C   0  0  0  0  0  0  0  0  0  0  0  0
   42.7271   15.2114  -12.4082 C   0  0  0  0  0  0  0  0  0  0  0  0
   41.7050   16.1221  -11.7679 C   0  0  0  0  0  0  0  0  0  0  0  0
   43.1665   14.3429  -11.3875 O   0  0  0  0  0  0  0  0  0  0  0  0
   43.9082   13.8286  -11.7445 H   0  0  0  0  0  0  0  0  0  0  0  0
   43.8555   15.9670  -12.9912 C   0  0  0  0  0  0  0  0  0  0  0  0
   44.0508   17.2854  -12.7712 N   0  0  0  0  0  0  0  0  0  0  0  0
   45.0810   17.9620  -13.3064 C   0  0  0  0  0  0  0  0  0  0  0  0
   45.9961   17.3084  -14.1210 C   0  0  0  0  0  0  0  0  0  0  0  0
   45.7913   15.9653  -14.3413 C   0  0  0  0  0  0  0  0  0  0  0  0
   44.7383   15.3360  -13.7772 N   0  0  0  0  0  0  0  0  0  0  0  0
  1  2  1  0  0  0
  2  3  1  0  0  0
  3  4  2  0  0  0
  4  5  1  0  0  0
  5  6  2  0  0  0
  6  7  1  0  0  0
  7  8  1  0  0  0
  8  9  1  0  0  0
  9 10  1  0  0  0
  9 11  1  0  0  0
 11 12  2  0  0  0
 12 13  1  0  0  0
 13 14  1  0  0  0
 13 15  2  0  0  0
 15 16  1  0  0  0
 16 17  2  0  0  0
 15 23  1  0  0  0
 23 24  3  0  0  0
 25 24  1  0  0  0
 25 26  1  0  0  0
 25 27  1  0  0  0
 25 29  1  0  0  0
 29 30  2  0  0  0
 30 31  1  0  0  0
 31 32  2  0  0  0
 32 33  1  0  0  0
 33 34  2  0  0  0
  3 18  1  0  0  0
 18 19  1  0  0  0
 18 20  2  0  0  0
  6  2  1  0  0  0
 10  7  1  0  0  0
 17 11  1  0  0  0
 34 29  1  0  0  0
  5 17  1  0  0  0
 27 28  1  0  0  0
 19 21  1  0  0  0
 19 22  1  0  0  0
M  END
> <minimizedAffinity>
-9.21617

> <CNNscore>
0.2820725739

> <CNNaffinity>
7.0955595970

> <CNN_VS>
2.0014626980

> <CNNaffinity_variance>
0.1248399019

$$$$
[H]O[C@](C#Cc1c([H])c2c(c([H])c1F)C1([H])C([H])([H])C([H])(c3c-2nc(C(=O)N([H])[H])n3C([H])([H])[H])C1([H])[H])(c1nc([H])c([H])c([H])n1)C([H])([H])[H]


 34 38  0  0  0  0  0  0  0  0999 V2000
   34.1364   10.8842  -16.9025 C   0  0  0  0  0  0  0  0  0  0  0  0
   35.3062   11.5037  -16.3166 N   0  0  0  0  0  0  0  0  0  0  0  0
   35.3099   12.2637  -15.2103 C   0  0  0  0  0  0  0  0  0  0  0  0
   36.5862   12.6620  -14.9791 N   0  0  0  0  0  0  0  0  0  0  0  0
   37.3690   12.1480  -15.9419 C   0  0  0  0  0  0  0  0  0  0  0  0
   36.5435   11.4098  -16.7914 C   0  0  0  0  0  0  0  0  0  0  0  0
   37.0046   10.6559  -18.0125 C   0  0  0  0  0  0  0  0  0  0  0  0
   37.9424   11.5207  -18.8518 C   0  0  0  0  0  0  0  0  0  0  0  0
   39.1784   10.9037  -18.1935 C   0  0  0  0  0  0  0  0  0  0  0  0
   38.2447    9.8239  -17.6625 C   0  0  0  0  0  0  0  0  0  0  0  0
   39.6453   11.7905  -17.0657 C   0  0  0  0  0  0  0  0  0  0  0  0
   40.9731   12.0582  -17.0489 C   0  0  0  0  0  0  0  0  0  0  0  0
   41.4997   12.8665  -16.0488 C   0  0  0  0  0  0  0  0  0  0  0  0
   42.8242   13.1119  -16.0631 F   0  0  0  0  0  0  0  0  0  0  0  0
   40.7210   13.4229  -15.0487 C   0  0  0  0  0  0  0  0  0  0  0  0
   39.3743   13.1349  -15.0888 C   0  0  0  0  0  0  0  0  0  0  0  0
   38.8311   12.3356  -16.0721 C   0  0  0  0  0  0  0  0  0  0  0  0
   34.1921   12.6409  -14.3540 C   0  0  0  0  0  0  0  0  0  0  0  0
   33.1973   13.5756  -14.7569 N   0  0  0  0  0  0  0  0  0  0  0  0
   34.0493   12.1538  -13.2038 O   0  0  0  0  0  0  0  0  0  0  0  0
   32.4423   13.2801  -15.4323 H   0  0  0  0  0  0  0  0  0  0  0  0
   33.1727   14.5561  -14.4145 H   0  0  0  0  0  0  0  0  0  0  0  0
   41.3075   14.2532  -14.0349 C   0  0  0  0  0  0  0  0  0  0  0  0
   41.7904   14.9745  -13.1739 C   0  0  0  0  0  0  0  0  0  0  0  0
   42.3449   15.8471  -12.1377 C   0  0  0  0  0  0  0  0  0  0  0  0
   43.5875   15.1663  -11.6120 C   0  0  0  0  0  0  0  0  0  0  0  0
   42.7762   17.0732  -12.6852 O   0  0  0  0  0  0  0  0  0  0  0  0
   41.9826   17.5798  -12.9211 H   0  0  0  0  0  0  0  0  0  0  0  0
   41.3375   16.0587  -11.0772 C   0  0  0  0  0  0  0  0  0  0  0  0
   41.5840   15.8239   -9.7700 N   0  0  0  0  0  0  0  0  0  0  0  0
   40.6601   16.0205   -8.8143 C   0  0  0  0  0  0  0  0  0  0  0  0
   39.3948   16.4820   -9.1524 C   0  0  0  0  0  0  0  0  0  0  0  0
   39.1502   16.7192  -10.4860 C   0  0  0  0  0  0  0  0  0  0  0  0
   40.1167   16.5040  -11.4039 N   0  0  0  0  0  0  0  0  0  0  0  0
  1  2  1  0  0  0
  2  3  1  0  0  0
  3  4  2  0  0  0
  4  5  1  0  0  0
  5  6  2  0  0  0
  6  7  1  0  0  0
  7  8  1  0  0  0
  8  9  1  0  0  0
  9 10  1  0  0  0
  9 11  1  0  0  0
 11 12  2  0  0  0
 12 13  1  0  0  0
 13 14  1  0  0  0
 13 15  2  0  0  0
 15 16  1  0  0  0
 16 17  2  0  0  0
 15 23  1  0  0  0
 23 24  3  0  0  0
 25 24  1  0  0  0
 25 26  1  0  0  0
 25 27  1  0  0  0
 25 29  1  0  0  0
 29 30  2  0  0  0
 30 31  1  0  0  0
 31 32  2  0  0  0
 32 33  1  0  0  0
 33 34  2  0  0  0
  3 18  1  0  0  0
 18 19  1  0  0  0
 18 20  2  0  0  0
  6  2  1  0  0  0
 10  7  1  0  0  0
 17 11  1  0  0  0
 34 29  1  0  0  0
  5 17  1  0  0  0
 27 28  1  0  0  0
 19 21  1  0  0  0
 19 22  1  0  0  0
M  END
> <minimizedAffinity>
-9.07079

> <CNNscore>
0.2563496530

> <CNNaffinity>
7.2281570435

> <CNN_VS>
1.8529355526

> <CNNaffinity_variance>
0.2093255520

$$$$
[H]O[C@](C#Cc1c([H])c2c(c([H])c1F)C1([H])C([H])([H])C([H])(c3c-2nc(C(=O)N([H])[H])n3C([H])([H])[H])C1([H])[H])(c1nc([H])c([H])c([H])n1)C([H])([H])[H]


 34 38  0  0  0  0  0  0  0  0999 V2000
   34.9044   15.8427  -10.8404 C   0  0  0  0  0  0  0  0  0  0  0  0
   36.0673   15.3983  -11.5789 N   0  0  0  0  0  0  0  0  0  0  0  0
   37.3254   15.8174  -11.3712 C   0  0  0  0  0  0  0  0  0  0  0  0
   38.1319   15.1789  -12.2559 N   0  0  0  0  0  0  0  0  0  0  0  0
   37.3720   14.3666  -13.0086 C   0  0  0  0  0  0  0  0  0  0  0  0
   36.0552   14.5130  -12.5694 C   0  0  0  0  0  0  0  0  0  0  0  0
   34.8639   13.7838  -13.1360 C   0  0  0  0  0  0  0  0  0  0  0  0
   34.8903   13.8221  -14.6623 C   0  0  0  0  0  0  0  0  0  0  0  0
   35.5682   12.4520  -14.7328 C   0  0  0  0  0  0  0  0  0  0  0  0
   35.1914   12.2911  -13.2658 C   0  0  0  0  0  0  0  0  0  0  0  0
   37.0596   12.6333  -14.8716 C   0  0  0  0  0  0  0  0  0  0  0  0
   37.6477   11.8887  -15.8383 C   0  0  0  0  0  0  0  0  0  0  0  0
   39.0186   11.9859  -16.0436 C   0  0  0  0  0  0  0  0  0  0  0  0
   39.5699   11.2310  -17.0137 F   0  0  0  0  0  0  0  0  0  0  0  0
   39.8300   12.8213  -15.2955 C   0  0  0  0  0  0  0  0  0  0  0  0
   39.2070   13.5673  -14.3190 C   0  0  0  0  0  0  0  0  0  0  0  0
   37.8483   13.4863  -14.0987 C   0  0  0  0  0  0  0  0  0  0  0  0
   37.8212   16.7793  -10.3945 C   0  0  0  0  0  0  0  0  0  0  0  0
   37.4882   18.1623  -10.4412 N   0  0  0  0  0  0  0  0  0  0  0  0
   38.5762   16.4313   -9.4513 O   0  0  0  0  0  0  0  0  0  0  0  0
   36.5370   18.4843  -10.1176 H   0  0  0  0  0  0  0  0  0  0  0  0
   38.1459   18.8896  -10.7844 H   0  0  0  0  0  0  0  0  0  0  0  0
   41.2425   12.8906  -15.5426 C   0  0  0  0  0  0  0  0  0  0  0  0
   42.4486   12.9564  -15.7323 C   0  0  0  0  0  0  0  0  0  0  0  0
   43.8964   13.0311  -15.9341 C   0  0  0  0  0  0  0  0  0  0  0  0
   44.2765   11.8596  -16.8100 C   0  0  0  0  0  0  0  0  0  0  0  0
   44.2478   14.1882  -16.6597 O   0  0  0  0  0  0  0  0  0  0  0  0
   44.1236   14.9487  -16.0695 H   0  0  0  0  0  0  0  0  0  0  0  0
   44.5817   12.9906  -14.6254 C   0  0  0  0  0  0  0  0  0  0  0  0
   44.0478   13.5092  -13.4982 N   0  0  0  0  0  0  0  0  0  0  0  0
   44.6801   13.4661  -12.3133 C   0  0  0  0  0  0  0  0  0  0  0  0
   45.9314   12.8723  -12.2124 C   0  0  0  0  0  0  0  0  0  0  0  0
   46.4698   12.3459  -13.3645 C   0  0  0  0  0  0  0  0  0  0  0  0
   45.7890   12.4176  -14.5283 N   0  0  0  0  0  0  0  0  0  0  0  0
  1  2  1  0  0  0
  2  3  1  0  0  0
  3  4  2  0  0  0
  4  5  1  0  0  0
  5  6  2  0  0  0
  6  7  1  0  0  0
  7  8  1  0  0  0
  8  9  1  0  0  0
  9 10  1  0  0  0
  9 11  1  0  0  0
 11 12  2  0  0  0
 12 13  1  0  0  0
 13 14  1  0  0  0
 13 15  2  0  0  0
 15 16  1  0  0  0
 16 17  2  0  0  0
 15 23  1  0  0  0
 23 24  3  0  0  0
 25 24  1  0  0  0
 25 26  1  0  0  0
 25 27  1  0  0  0
 25 29  1  0  0  0
 29 30  2  0  0  0
 30 31  1  0  0  0
 31 32  2  0  0  0
 32 33  1  0  0  0
 33 34  2  0  0  0
  3 18  1  0  0  0
 18 19  1  0  0  0
 18 20  2  0  0  0
  6  2  1  0  0  0
 10  7  1  0  0  0
 17 11  1  0  0  0
 34 29  1  0  0  0
  5 17  1  0  0  0
 27 28  1  0  0  0
 19 21  1  0  0  0
 19 22  1  0  0  0
M  END
> <minimizedAffinity>
-10.50793

> <CNNscore>
0.2371097654

> <CNNaffinity>
6.4992952347

> <CNN_VS>
1.5410463810

> <CNNaffinity_variance>
0.1373943985

$$$$
[H]O[C@](C#Cc1c([H])c2c(c([H])c1F)C1([H])C([H])([H])C([H])(c3c-2nc(C(=O)N([H])[H])n3C([H])([H])[H])C1([H])[H])(c1nc([H])c([H])c([H])n1)C([H])([H])[H]


 34 38  0  0  0  0  0  0  0  0999 V2000
   35.8617   11.0830  -17.2680 C   0  0  0  0  0  0  0  0  0  0  0  0
   37.0027   11.7193  -16.6445 N   0  0  0  0  0  0  0  0  0  0  0  0
   38.2701   11.6374  -17.0787 C   0  0  0  0  0  0  0  0  0  0  0  0
   39.0497   12.3611  -16.2365 N   0  0  0  0  0  0  0  0  0  0  0  0
   38.2639   12.8890  -15.2837 C   0  0  0  0  0  0  0  0  0  0  0  0
   36.9585   12.4741  -15.5521 C   0  0  0  0  0  0  0  0  0  0  0  0
   35.7458   12.8362  -14.7335 C   0  0  0  0  0  0  0  0  0  0  0  0
   36.0328   12.6559  -13.2446 C   0  0  0  0  0  0  0  0  0  0  0  0
   36.3912   14.1351  -13.0854 C   0  0  0  0  0  0  0  0  0  0  0  0
   35.7501   14.3438  -14.4512 C   0  0  0  0  0  0  0  0  0  0  0  0
   37.8874   14.3049  -13.1799 C   0  0  0  0  0  0  0  0  0  0  0  0
   38.4472   15.0705  -12.2128 C   0  0  0  0  0  0  0  0  0  0  0  0
   39.8200   15.2860  -12.2140 C   0  0  0  0  0  0  0  0  0  0  0  0
   40.3427   16.0523  -11.2371 F   0  0  0  0  0  0  0  0  0  0  0  0
   40.6611   14.7477  -13.1724 C   0  0  0  0  0  0  0  0  0  0  0  0
   40.0665   13.9734  -14.1445 C   0  0  0  0  0  0  0  0  0  0  0  0
   38.7066   13.7466  -14.1619 C   0  0  0  0  0  0  0  0  0  0  0  0
   38.7983   10.9235  -18.2347 C   0  0  0  0  0  0  0  0  0  0  0  0
   40.1927   10.8115  -18.4969 N   0  0  0  0  0  0  0  0  0  0  0  0
   38.0399   10.3647  -19.0672 O   0  0  0  0  0  0  0  0  0  0  0  0
   40.7780   10.1308  -17.9425 H   0  0  0  0  0  0  0  0  0  0  0  0
   40.6777   11.3764  -19.2214 H   0  0  0  0  0  0  0  0  0  0  0  0
   42.0747   14.9961  -13.1347 C   0  0  0  0  0  0  0  0  0  0  0  0
   43.2788   15.2079  -13.1245 C   0  0  0  0  0  0  0  0  0  0  0  0
   44.7182   15.4732  -13.1354 C   0  0  0  0  0  0  0  0  0  0  0  0
   45.3007   14.7733  -11.9292 C   0  0  0  0  0  0  0  0  0  0  0  0
   45.3334   14.8850  -14.2600 O   0  0  0  0  0  0  0  0  0  0  0  0
   45.0645   15.3985  -15.0385 H   0  0  0  0  0  0  0  0  0  0  0  0
   44.9534   16.9318  -13.0978 C   0  0  0  0  0  0  0  0  0  0  0  0
   43.9943   17.8398  -13.3807 N   0  0  0  0  0  0  0  0  0  0  0  0
   44.2197   19.1640  -13.3427 C   0  0  0  0  0  0  0  0  0  0  0  0
   45.4763   19.6476  -13.0030 C   0  0  0  0  0  0  0  0  0  0  0  0
   46.4490   18.7171  -12.7160 C   0  0  0  0  0  0  0  0  0  0  0  0
   46.1660   17.3980  -12.7700 N   0  0  0  0  0  0  0  0  0  0  0  0
  1  2  1  0  0  0
  2  3  1  0  0  0
  3  4  2  0  0  0
  4  5  1  0  0  0
  5  6  2  0  0  0
  6  7  1  0  0  0
  7  8  1  0  0  0
  8  9  1  0  0  0
  9 10  1  0  0  0
  9 11  1  0  0  0
 11 12  2  0  0  0
 12 13  1  0  0  0
 13 14  1  0  0  0
 13 15  2  0  0  0
 15 16  1  0  0  0
 16 17  2  0  0  0
 15 23  1  0  0  0
 23 24  3  0  0  0
 25 24  1  0  0  0
 25 26  1  0  0  0
 25 27  1  0  0  0
 25 29  1  0  0  0
 29 30  2  0  0  0
 30 31  1  0  0  0
 31 32  2  0  0  0
 32 33  1  0  0  0
 33 34  2  0  0  0
  3 18  1  0  0  0
 18 19  1  0  0  0
 18 20  2  0  0  0
  6  2  1  0  0  0
 10  7  1  0  0  0
 17 11  1  0  0  0
 34 29  1  0  0  0
  5 17  1  0  0  0
 27 28  1  0  0  0
 19 21  1  0  0  0
 19 22  1  0  0  0
M  END
> <minimizedAffinity>
-7.99103

> <CNNscore>
0.2349633723

> <CNNaffinity>
6.8452911377

> <CNN_VS>
1.6083927155

> <CNNaffinity_variance>
0.1193753853

$$$$
[H]O[C@](C#Cc1c([H])c2c(c([H])c1F)C1([H])C([H])([H])C([H])(c3c-2nc(C(=O)N([H])[H])n3C([H])([H])[H])C1([H])[H])(c1nc([H])c([H])c([H])n1)C([H])([H])[H]


 34 38  0  0  0  0  0  0  0  0999 V2000
   33.4239   13.9032  -13.0210 C   0  0  0  0  0  0  0  0  0  0  0  0
   34.7870   13.7366  -13.4788 N   0  0  0  0  0  0  0  0  0  0  0  0
   35.8613   14.3489  -12.9568 C   0  0  0  0  0  0  0  0  0  0  0  0
   36.9542   13.9427  -13.6505 N   0  0  0  0  0  0  0  0  0  0  0  0
   36.5545   13.0805  -14.5996 C   0  0  0  0  0  0  0  0  0  0  0  0
   35.1693   12.9547  -14.4826 C   0  0  0  0  0  0  0  0  0  0  0  0
   34.2994   12.0821  -15.3507 C   0  0  0  0  0  0  0  0  0  0  0  0
   34.6638   12.2603  -16.8228 C   0  0  0  0  0  0  0  0  0  0  0  0
   35.5888   11.0416  -16.7911 C   0  0  0  0  0  0  0  0  0  0  0  0
   34.9266   10.6871  -15.4660 C   0  0  0  0  0  0  0  0  0  0  0  0
   37.0099   11.4925  -16.5600 C   0  0  0  0  0  0  0  0  0  0  0  0
   37.9332   10.9513  -17.3904 C   0  0  0  0  0  0  0  0  0  0  0  0
   39.2704   11.3046  -17.2567 C   0  0  0  0  0  0  0  0  0  0  0  0
   40.1612   10.7473  -18.0997 F   0  0  0  0  0  0  0  0  0  0  0  0
   39.7160   12.1989  -16.2987 C   0  0  0  0  0  0  0  0  0  0  0  0
   38.7570   12.7344  -15.4670 C   0  0  0  0  0  0  0  0  0  0  0  0
   37.4249   12.3979  -15.5826 C   0  0  0  0  0  0  0  0  0  0  0  0
   35.9294   15.2917  -11.8470 C   0  0  0  0  0  0  0  0  0  0  0  0
   36.0715   16.6948  -12.0389 N   0  0  0  0  0  0  0  0  0  0  0  0
   35.8653   14.9081  -10.6514 O   0  0  0  0  0  0  0  0  0  0  0  0
   35.2394   17.2706  -12.3379 H   0  0  0  0  0  0  0  0  0  0  0  0
   36.9707   17.1954  -11.8971 H   0  0  0  0  0  0  0  0  0  0  0  0
   41.1078   12.5358  -16.1966 C   0  0  0  0  0  0  0  0  0  0  0  0
   42.2938   12.8131  -16.0900 C   0  0  0  0  0  0  0  0  0  0  0  0
   43.7168   13.1247  -15.9466 C   0  0  0  0  0  0  0  0  0  0  0  0
   44.4785   11.8808  -16.3423 C   0  0  0  0  0  0  0  0  0  0  0  0
   44.1103   14.1269  -16.8575 O   0  0  0  0  0  0  0  0  0  0  0  0
   43.7259   14.9638  -16.5508 H   0  0  0  0  0  0  0  0  0  0  0  0
   43.9977   13.5273  -14.5526 C   0  0  0  0  0  0  0  0  0  0  0  0
   43.1373   13.3069  -13.5349 N   0  0  0  0  0  0  0  0  0  0  0  0
   43.4039   13.6771  -12.2709 C   0  0  0  0  0  0  0  0  0  0  0  0
   44.6011   14.3123  -11.9685 C   0  0  0  0  0  0  0  0  0  0  0  0
   45.4733   14.5338  -13.0100 C   0  0  0  0  0  0  0  0  0  0  0  0
   45.1530   14.1402  -14.2612 N   0  0  0  0  0  0  0  0  0  0  0  0
  1  2  1  0  0  0
  2  3  1  0  0  0
  3  4  2  0  0  0
  4  5  1  0  0  0
  5  6  2  0  0  0
  6  7  1  0  0  0
  7  8  1  0  0  0
  8  9  1  0  0  0
  9 10  1  0  0  0
  9 11  1  0  0  0
 11 12  2  0  0  0
 12 13  1  0  0  0
 13 14  1  0  0  0
 13 15  2  0  0  0
 15 16  1  0  0  0
 16 17  2  0  0  0
 15 23  1  0  0  0
 23 24  3  0  0  0
 25 24  1  0  0  0
 25 26  1  0  0  0
 25 27  1  0  0  0
 25 29  1  0  0  0
 29 30  2  0  0  0
 30 31  1  0  0  0
 31 32  2  0  0  0
 32 33  1  0  0  0
 33 34  2  0  0  0
  3 18  1  0  0  0
 18 19  1  0  0  0
 18 20  2  0  0  0
  6  2  1  0  0  0
 10  7  1  0  0  0
 17 11  1  0  0  0
 34 29  1  0  0  0
  5 17  1  0  0  0
 27 28  1  0  0  0
 19 21  1  0  0  0
 19 22  1  0  0  0
M  END
> <minimizedAffinity>
-9.83157

> <CNNscore>
0.2293655276

> <CNNaffinity>
7.0772247314

> <CNN_VS>
1.6232713461

> <CNNaffinity_variance>
0.0816134214

$$$$
[H]OC(C#Cc1c([H])c2c(c([H])c1F)OC([H])([H])C([H])([H])n1c-2nc(C(=O)N([H])[H])c1[H])(c1nc([H])c([H])c(C([H])([H])[H])c1[H])C([H])([H])[H]


 33 36  0  0  0  0  0  0  0  0999 V2000
   36.6983   13.9583  -12.9934 C   0  0  0  0  0  0  0  0  0  0  0  0
   37.3393   13.4317  -14.0995 C   0  0  0  0  0  0  0  0  0  0  0  0
   36.6214   12.6244  -14.9617 C   0  0  0  0  0  0  0  0  0  0  0  0
   37.4973   12.1852  -16.0501 C   0  0  0  0  0  0  0  0  0  0  0  0
   38.8374   12.4204  -16.0414 N   0  0  0  0  0  0  0  0  0  0  0  0
   39.3126   11.8840  -17.1799 C   0  0  0  0  0  0  0  0  0  0  0  0
   38.2605   11.3271  -17.8725 C   0  0  0  0  0  0  0  0  0  0  0  0
   37.1255   11.5290  -17.1411 N   0  0  0  0  0  0  0  0  0  0  0  0
   35.8116   11.0676  -17.5750 C   0  0  0  0  0  0  0  0  0  0  0  0
   34.9899   10.5022  -16.4373 C   0  0  0  0  0  0  0  0  0  0  0  0
   34.5130   11.5274  -15.5791 O   0  0  0  0  0  0  0  0  0  0  0  0
   35.2907   12.3394  -14.7392 C   0  0  0  0  0  0  0  0  0  0  0  0
   34.6347   12.8456  -13.6573 C   0  0  0  0  0  0  0  0  0  0  0  0
   35.3783   13.6571  -12.8002 C   0  0  0  0  0  0  0  0  0  0  0  0
   34.7373   14.1612  -11.7312 F   0  0  0  0  0  0  0  0  0  0  0  0
   40.6888   11.8594  -17.6636 C   0  0  0  0  0  0  0  0  0  0  0  0
   41.7694   12.3925  -16.9143 N   0  0  0  0  0  0  0  0  0  0  0  0
   40.9873   11.3553  -18.7864 O   0  0  0  0  0  0  0  0  0  0  0  0
   42.2952   13.2243  -17.3161 H   0  0  0  0  0  0  0  0  0  0  0  0
   42.1013   12.0501  -16.0047 H   0  0  0  0  0  0  0  0  0  0  0  0
   38.1170   15.4918  -11.3737 C   0  0  0  0  0  0  0  0  0  0  0  0
   37.4602   14.7922  -12.1056 C   0  0  0  0  0  0  0  0  0  0  0  0
   38.9328   16.3410  -10.5058 C   0  0  0  0  0  0  0  0  0  0  0  0
   39.8759   15.5114   -9.6331 C   0  0  0  0  0  0  0  0  0  0  0  0
   39.7516   17.1653  -11.2736 O   0  0  0  0  0  0  0  0  0  0  0  0
   39.7381   16.9387  -12.2372 H   0  0  0  0  0  0  0  0  0  0  0  0
   37.4911   20.5847   -8.2401 C   0  0  0  0  0  0  0  0  0  0  0  0
   37.2983   19.1483   -8.5467 C   0  0  0  0  0  0  0  0  0  0  0  0
   36.2120   18.4839   -8.0207 C   0  0  0  0  0  0  0  0  0  0  0  0
   36.0577   17.1505   -8.3253 C   0  0  0  0  0  0  0  0  0  0  0  0
   36.9409   16.5034   -9.1166 N   0  0  0  0  0  0  0  0  0  0  0  0
   38.0111   17.1171   -9.6476 C   0  0  0  0  0  0  0  0  0  0  0  0
   38.1751   18.4462   -9.3509 C   0  0  0  0  0  0  0  0  0  0  0  0
 27 28  1  0  0  0
 28 29  2  0  0  0
 29 30  1  0  0  0
 30 31  2  0  0  0
 31 32  1  0  0  0
 32 33  2  0  0  0
 32 23  1  0  0  0
 23 24  1  0  0  0
 23 25  1  0  0  0
 23 21  1  0  0  0
 21 22  3  0  0  0
 22  1  1  0  0  0
  1  2  2  0  0  0
  2  3  1  0  0  0
  3  4  1  0  0  0
  4  5  2  0  0  0
  5  6  1  0  0  0
  6  7  2  0  0  0
  7  8  1  0  0  0
  8  9  1  0  0  0
  9 10  1  0  0  0
 10 11  1  0  0  0
 11 12  1  0  0  0
 12 13  1  0  0  0
 13 14  2  0  0  0
 14 15  1  0  0  0
  6 16  1  0  0  0
 16 17  1  0  0  0
 16 18  2  0  0  0
 33 28  1  0  0  0
 14  1  1  0  0  0
 12  3  2  0  0  0
  8  4  1  0  0  0
 25 26  1  0  0  0
 17 19  1  0  0  0
 17 20  1  0  0  0
M  END
> <minimizedAffinity>
-8.78144

> <CNNscore>
0.6831805110

> <CNNaffinity>
7.1802277565

> <CNN_VS>
4.9053916931

> <CNNaffinity_variance>
0.2234913111

$$$$
[H]OC(C#Cc1c([H])c2c(c([H])c1F)OC([H])([H])C([H])([H])n1c-2nc(C(=O)N([H])[H])c1[H])(c1nc([H])c([H])c(C([H])([H])[H])c1[H])C([H])([H])[H]


 33 36  0  0  0  0  0  0  0  0999 V2000
   40.2257   13.5056  -15.2902 C   0  0  0  0  0  0  0  0  0  0  0  0
   38.9519   12.9891  -15.4397 C   0  0  0  0  0  0  0  0  0  0  0  0
   38.7003   12.1381  -16.4994 C   0  0  0  0  0  0  0  0  0  0  0  0
   37.2972   11.7205  -16.4576 C   0  0  0  0  0  0  0  0  0  0  0  0
   36.4020   12.2736  -15.5952 N   0  0  0  0  0  0  0  0  0  0  0  0
   35.2307   11.6571  -15.8348 C   0  0  0  0  0  0  0  0  0  0  0  0
   35.4206   10.7343  -16.8395 C   0  0  0  0  0  0  0  0  0  0  0  0
   36.7313   10.7919  -17.2170 N   0  0  0  0  0  0  0  0  0  0  0  0
   37.2909    9.9465  -18.2656 C   0  0  0  0  0  0  0  0  0  0  0  0
   38.2611   10.6915  -19.1561 C   0  0  0  0  0  0  0  0  0  0  0  0
   39.4909   10.9415  -18.4926 O   0  0  0  0  0  0  0  0  0  0  0  0
   39.6884   11.7993  -17.3996 C   0  0  0  0  0  0  0  0  0  0  0  0
   40.9523   12.2936  -17.2753 C   0  0  0  0  0  0  0  0  0  0  0  0
   41.1838   13.1508  -16.1993 C   0  0  0  0  0  0  0  0  0  0  0  0
   42.4289   13.6414  -16.0695 F   0  0  0  0  0  0  0  0  0  0  0  0
   33.9434   11.8741  -15.1833 C   0  0  0  0  0  0  0  0  0  0  0  0
   33.5209   13.1534  -14.7381 N   0  0  0  0  0  0  0  0  0  0  0  0
   33.1336   10.9212  -14.9830 O   0  0  0  0  0  0  0  0  0  0  0  0
   33.3759   13.2979  -13.6952 H   0  0  0  0  0  0  0  0  0  0  0  0
   33.3381   13.9704  -15.3329 H   0  0  0  0  0  0  0  0  0  0  0  0
   40.6595   15.1496  -13.2662 C   0  0  0  0  0  0  0  0  0  0  0  0
   40.4691   14.3913  -14.1855 C   0  0  0  0  0  0  0  0  0  0  0  0
   40.8701   16.0850  -12.1614 C   0  0  0  0  0  0  0  0  0  0  0  0
   42.1002   15.7097  -11.3337 C   0  0  0  0  0  0  0  0  0  0  0  0
   41.1197   17.3629  -12.6556 O   0  0  0  0  0  0  0  0  0  0  0  0
   41.2451   17.3828  -13.6374 H   0  0  0  0  0  0  0  0  0  0  0  0
   36.2467   14.4461  -11.0846 C   0  0  0  0  0  0  0  0  0  0  0  0
   37.4362   15.2708  -10.7697 C   0  0  0  0  0  0  0  0  0  0  0  0
   37.4413   16.0436   -9.6291 C   0  0  0  0  0  0  0  0  0  0  0  0
   38.5615   16.7972   -9.3614 C   0  0  0  0  0  0  0  0  0  0  0  0
   39.6304   16.7858  -10.1875 N   0  0  0  0  0  0  0  0  0  0  0  0
   39.6625   16.0455  -11.3077 C   0  0  0  0  0  0  0  0  0  0  0  0
   38.5514   15.2903  -11.5848 C   0  0  0  0  0  0  0  0  0  0  0  0
 27 28  1  0  0  0
 28 29  2  0  0  0
 29 30  1  0  0  0
 30 31  2  0  0  0
 31 32  1  0  0  0
 32 33  2  0  0  0
 32 23  1  0  0  0
 23 24  1  0  0  0
 23 25  1  0  0  0
 23 21  1  0  0  0
 21 22  3  0  0  0
 22  1  1  0  0  0
  1  2  2  0  0  0
  2  3  1  0  0  0
  3  4  1  0  0  0
  4  5  2  0  0  0
  5  6  1  0  0  0
  6  7  2  0  0  0
  7  8  1  0  0  0
  8  9  1  0  0  0
  9 10  1  0  0  0
 10 11  1  0  0  0
 11 12  1  0  0  0
 12 13  1  0  0  0
 13 14  2  0  0  0
 14 15  1  0  0  0
  6 16  1  0  0  0
 16 17  1  0  0  0
 16 18  2  0  0  0
 33 28  1  0  0  0
 14  1  1  0  0  0
 12  3  2  0  0  0
  8  4  1  0  0  0
 25 26  1  0  0  0
 17 19  1  0  0  0
 17 20  1  0  0  0
M  END
> <minimizedAffinity>
-9.50548

> <CNNscore>
0.6044982672

> <CNNaffinity>
7.4282364845

> <CNN_VS>
4.4903559685

> <CNNaffinity_variance>
0.2281076014

$$$$
[H]OC(C#Cc1c([H])c2c(c([H])c1F)OC([H])([H])C([H])([H])n1c-2nc(C(=O)N([H])[H])c1[H])(c1nc([H])c([H])c(C([H])([H])[H])c1[H])C([H])([H])[H]


 33 36  0  0  0  0  0  0  0  0999 V2000
   40.9774   13.0185  -15.3668 C   0  0  0  0  0  0  0  0  0  0  0  0
   39.6187   12.7660  -15.3242 C   0  0  0  0  0  0  0  0  0  0  0  0
   39.0388   12.0723  -16.3697 C   0  0  0  0  0  0  0  0  0  0  0  0
   37.6049   11.9244  -16.1115 C   0  0  0  0  0  0  0  0  0  0  0  0
   36.9851   12.5597  -15.0803 N   0  0  0  0  0  0  0  0  0  0  0  0
   35.6913   12.1977  -15.1492 C   0  0  0  0  0  0  0  0  0  0  0  0
   35.5327   11.3460  -16.2198 C   0  0  0  0  0  0  0  0  0  0  0  0
   36.7527   11.1880  -16.8119 N   0  0  0  0  0  0  0  0  0  0  0  0
   36.9602   10.3460  -17.9848 C   0  0  0  0  0  0  0  0  0  0  0  0
   37.9078   10.9691  -18.9865 C   0  0  0  0  0  0  0  0  0  0  0  0
   39.2513   10.9248  -18.5302 O   0  0  0  0  0  0  0  0  0  0  0  0
   39.7854   11.6325  -17.4424 C   0  0  0  0  0  0  0  0  0  0  0  0
   41.1262   11.8673  -17.5093 C   0  0  0  0  0  0  0  0  0  0  0  0
   41.6904   12.5694  -16.4440 C   0  0  0  0  0  0  0  0  0  0  0  0
   43.0131   12.8037  -16.5025 F   0  0  0  0  0  0  0  0  0  0  0  0
   34.5920   12.5962  -14.2767 C   0  0  0  0  0  0  0  0  0  0  0  0
   33.2874   12.8615  -14.7677 N   0  0  0  0  0  0  0  0  0  0  0  0
   34.7515   12.7249  -13.0270 O   0  0  0  0  0  0  0  0  0  0  0  0
   32.9068   13.8490  -14.6698 H   0  0  0  0  0  0  0  0  0  0  0  0
   32.6614   12.1831  -15.2178 H   0  0  0  0  0  0  0  0  0  0  0  0
   42.0662   14.3656  -13.3700 C   0  0  0  0  0  0  0  0  0  0  0  0
   41.5633   13.7439  -14.2739 C   0  0  0  0  0  0  0  0  0  0  0  0
   42.6865   15.1368  -12.2928 C   0  0  0  0  0  0  0  0  0  0  0  0
   41.6789   16.0664  -11.6146 C   0  0  0  0  0  0  0  0  0  0  0  0
   43.1470   14.2819  -11.2944 O   0  0  0  0  0  0  0  0  0  0  0  0
   42.8571   13.3438  -11.4211 H   0  0  0  0  0  0  0  0  0  0  0  0
   45.0914   19.4727  -13.0913 C   0  0  0  0  0  0  0  0  0  0  0  0
   44.9538   18.0109  -13.2876 C   0  0  0  0  0  0  0  0  0  0  0  0
   45.8807   17.3411  -14.0560 C   0  0  0  0  0  0  0  0  0  0  0  0
   45.7284   15.9828  -14.2183 C   0  0  0  0  0  0  0  0  0  0  0  0
   44.7026   15.3169  -13.6443 N   0  0  0  0  0  0  0  0  0  0  0  0
   43.7802   15.9350  -12.8888 C   0  0  0  0  0  0  0  0  0  0  0  0
   43.9218   17.2889  -12.7200 C   0  0  0  0  0  0  0  0  0  0  0  0
 27 28  1  0  0  0
 28 29  2  0  0  0
 29 30  1  0  0  0
 30 31  2  0  0  0
 31 32  1  0  0  0
 32 33  2  0  0  0
 32 23  1  0  0  0
 23 24  1  0  0  0
 23 25  1  0  0  0
 23 21  1  0  0  0
 21 22  3  0  0  0
 22  1  1  0  0  0
  1  2  2  0  0  0
  2  3  1  0  0  0
  3  4  1  0  0  0
  4  5  2  0  0  0
  5  6  1  0  0  0
  6  7  2  0  0  0
  7  8  1  0  0  0
  8  9  1  0  0  0
  9 10  1  0  0  0
 10 11  1  0  0  0
 11 12  1  0  0  0
 12 13  1  0  0  0
 13 14  2  0  0  0
 14 15  1  0  0  0
  6 16  1  0  0  0
 16 17  1  0  0  0
 16 18  2  0  0  0
 33 28  1  0  0  0
 14  1  1  0  0  0
 12  3  2  0  0  0
  8  4  1  0  0  0
 25 26  1  0  0  0
 17 19  1  0  0  0
 17 20  1  0  0  0
M  END
> <minimizedAffinity>
-9.73493

> <CNNscore>
0.4966700673

> <CNNaffinity>
7.0284829140

> <CNN_VS>
3.4908370972

> <CNNaffinity_variance>
0.2036039084

$$$$
[H]OC(C#Cc1c([H])c2c(c([H])c1F)OC([H])([H])C([H])([H])n1c-2nc(C(=O)N([H])[H])c1[H])(c1nc([H])c([H])c(C([H])([H])[H])c1[H])C([H])([H])[H]


 33 36  0  0  0  0  0  0  0  0999 V2000
   39.2137   14.1948  -13.8079 C   0  0  0  0  0  0  0  0  0  0  0  0
   38.2676   13.4439  -14.4807 C   0  0  0  0  0  0  0  0  0  0  0  0
   38.6607   12.7194  -15.5902 C   0  0  0  0  0  0  0  0  0  0  0  0
   37.5020   12.0089  -16.1355 C   0  0  0  0  0  0  0  0  0  0  0  0
   36.2383   12.2279  -15.6813 N   0  0  0  0  0  0  0  0  0  0  0  0
   35.4428   11.4152  -16.3998 C   0  0  0  0  0  0  0  0  0  0  0  0
   36.2263   10.7082  -17.2848 C   0  0  0  0  0  0  0  0  0  0  0  0
   37.5213   11.0989  -17.1002 N   0  0  0  0  0  0  0  0  0  0  0  0
   38.6309   10.5522  -17.8731 C   0  0  0  0  0  0  0  0  0  0  0  0
   39.6427   11.6077  -18.2629 C   0  0  0  0  0  0  0  0  0  0  0  0
   40.4227   12.0180  -17.1502 O   0  0  0  0  0  0  0  0  0  0  0  0
   39.9670   12.7328  -16.0317 C   0  0  0  0  0  0  0  0  0  0  0  0
   40.9195   13.4637  -15.3869 C   0  0  0  0  0  0  0  0  0  0  0  0
   40.5008   14.1875  -14.2704 C   0  0  0  0  0  0  0  0  0  0  0  0
   41.4354   14.9101  -13.6283 F   0  0  0  0  0  0  0  0  0  0  0  0
   33.9953   11.2555  -16.3118 C   0  0  0  0  0  0  0  0  0  0  0  0
   33.2909   11.3567  -15.0842 N   0  0  0  0  0  0  0  0  0  0  0  0
   33.2917   11.0171  -17.3374 O   0  0  0  0  0  0  0  0  0  0  0  0
   32.7882   10.4929  -14.7226 H   0  0  0  0  0  0  0  0  0  0  0  0
   33.2166   12.1964  -14.4974 H   0  0  0  0  0  0  0  0  0  0  0  0
   38.4182   15.5573  -11.6870 C   0  0  0  0  0  0  0  0  0  0  0  0
   38.7874   14.9447  -12.6591 C   0  0  0  0  0  0  0  0  0  0  0  0
   37.9598   16.2765  -10.4985 C   0  0  0  0  0  0  0  0  0  0  0  0
   38.6295   15.7488   -9.2288 C   0  0  0  0  0  0  0  0  0  0  0  0
   38.3142   17.6206  -10.5848 O   0  0  0  0  0  0  0  0  0  0  0  0
   38.9167   17.8162  -11.3457 H   0  0  0  0  0  0  0  0  0  0  0  0
   33.5213   14.9300  -12.4240 C   0  0  0  0  0  0  0  0  0  0  0  0
   34.3472   15.4516  -11.3104 C   0  0  0  0  0  0  0  0  0  0  0  0
   33.7427   15.7848  -10.1180 C   0  0  0  0  0  0  0  0  0  0  0  0
   34.5361   16.2643   -9.1006 C   0  0  0  0  0  0  0  0  0  0  0  0
   35.8703   16.4074   -9.2574 N   0  0  0  0  0  0  0  0  0  0  0  0
   36.4949   16.0931  -10.4041 C   0  0  0  0  0  0  0  0  0  0  0  0
   35.7142   15.6142  -11.4252 C   0  0  0  0  0  0  0  0  0  0  0  0
 27 28  1  0  0  0
 28 29  2  0  0  0
 29 30  1  0  0  0
 30 31  2  0  0  0
 31 32  1  0  0  0
 32 33  2  0  0  0
 32 23  1  0  0  0
 23 24  1  0  0  0
 23 25  1  0  0  0
 23 21  1  0  0  0
 21 22  3  0  0  0
 22  1  1  0  0  0
  1  2  2  0  0  0
  2  3  1  0  0  0
  3  4  1  0  0  0
  4  5  2  0  0  0
  5  6  1  0  0  0
  6  7  2  0  0  0
  7  8  1  0  0  0
  8  9  1  0  0  0
  9 10  1  0  0  0
 10 11  1  0  0  0
 11 12  1  0  0  0
 12 13  1  0  0  0
 13 14  2  0  0  0
 14 15  1  0  0  0
  6 16  1  0  0  0
 16 17  1  0  0  0
 16 18  2  0  0  0
 33 28  1  0  0  0
 14  1  1  0  0  0
 12  3  2  0  0  0
  8  4  1  0  0  0
 25 26  1  0  0  0
 17 19  1  0  0  0
 17 20  1  0  0  0
M  END
> <minimizedAffinity>
-9.78981

> <CNNscore>
0.4632159472

> <CNNaffinity>
7.1622838974

> <CNN_VS>
3.3176841736

> <CNNaffinity_variance>
0.0771582499

$$$$
[H]OC(C#Cc1c([H])c2c(c([H])c1F)OC([H])([H])C([H])([H])n1c-2nc(C(=O)N([H])[H])c1[H])(c1nc([H])c([H])c(C([H])([H])[H])c1[H])C([H])([H])[H]


 33 36  0  0  0  0  0  0  0  0999 V2000
   41.0424   13.0209  -15.3534 C   0  0  0  0  0  0  0  0  0  0  0  0
   39.6697   12.8646  -15.2978 C   0  0  0  0  0  0  0  0  0  0  0  0
   39.0357   12.1908  -16.3246 C   0  0  0  0  0  0  0  0  0  0  0  0
   37.5968   12.1485  -16.0553 C   0  0  0  0  0  0  0  0  0  0  0  0
   37.0299   12.8474  -15.0347 N   0  0  0  0  0  0  0  0  0  0  0  0
   35.7137   12.5750  -15.0885 C   0  0  0  0  0  0  0  0  0  0  0  0
   35.4887   11.7136  -16.1394 C   0  0  0  0  0  0  0  0  0  0  0  0
   36.6905   11.4585  -16.7347 N   0  0  0  0  0  0  0  0  0  0  0  0
   36.8308   10.5792  -17.8900 C   0  0  0  0  0  0  0  0  0  0  0  0
   37.8123   11.1132  -18.9103 C   0  0  0  0  0  0  0  0  0  0  0  0
   39.1526   10.9852  -18.4607 O   0  0  0  0  0  0  0  0  0  0  0  0
   39.7423   11.6771  -17.3916 C   0  0  0  0  0  0  0  0  0  0  0  0
   41.0956   11.8166  -17.4710 C   0  0  0  0  0  0  0  0  0  0  0  0
   41.7148   12.5003  -16.4245 C   0  0  0  0  0  0  0  0  0  0  0  0
   43.0501   12.6407  -16.4955 F   0  0  0  0  0  0  0  0  0  0  0  0
   34.6509   13.0677  -14.2188 C   0  0  0  0  0  0  0  0  0  0  0  0
   33.8756   14.2127  -14.5369 N   0  0  0  0  0  0  0  0  0  0  0  0
   34.3667   12.4904  -13.1281 O   0  0  0  0  0  0  0  0  0  0  0  0
   33.9465   15.0588  -13.8976 H   0  0  0  0  0  0  0  0  0  0  0  0
   33.2407   14.3092  -15.3385 H   0  0  0  0  0  0  0  0  0  0  0  0
   42.2346   14.3328  -13.3925 C   0  0  0  0  0  0  0  0  0  0  0  0
   41.6849   13.7269  -14.2799 C   0  0  0  0  0  0  0  0  0  0  0  0
   42.9103   15.0853  -12.3356 C   0  0  0  0  0  0  0  0  0  0  0  0
   43.2047   16.5222  -12.7688 C   0  0  0  0  0  0  0  0  0  0  0  0
   42.0868   15.1864  -11.2171 O   0  0  0  0  0  0  0  0  0  0  0  0
   41.1659   14.8622  -11.3813 H   0  0  0  0  0  0  0  0  0  0  0  0
   45.5113   11.0391  -10.8918 C   0  0  0  0  0  0  0  0  0  0  0  0
   45.4505   12.4504  -11.3376 C   0  0  0  0  0  0  0  0  0  0  0  0
   46.6196   13.1642  -11.4863 C   0  0  0  0  0  0  0  0  0  0  0  0
   46.5318   14.4726  -11.9045 C   0  0  0  0  0  0  0  0  0  0  0  0
   45.3379   15.0489  -12.1643 N   0  0  0  0  0  0  0  0  0  0  0  0
   44.1777   14.3856  -12.0311 C   0  0  0  0  0  0  0  0  0  0  0  0
   44.2529   13.0808  -11.6148 C   0  0  0  0  0  0  0  0  0  0  0  0
 27 28  1  0  0  0
 28 29  2  0  0  0
 29 30  1  0  0  0
 30 31  2  0  0  0
 31 32  1  0  0  0
 32 33  2  0  0  0
 32 23  1  0  0  0
 23 24  1  0  0  0
 23 25  1  0  0  0
 23 21  1  0  0  0
 21 22  3  0  0  0
 22  1  1  0  0  0
  1  2  2  0  0  0
  2  3  1  0  0  0
  3  4  1  0  0  0
  4  5  2  0  0  0
  5  6  1  0  0  0
  6  7  2  0  0  0
  7  8  1  0  0  0
  8  9  1  0  0  0
  9 10  1  0  0  0
 10 11  1  0  0  0
 11 12  1  0  0  0
 12 13  1  0  0  0
 13 14  2  0  0  0
 14 15  1  0  0  0
  6 16  1  0  0  0
 16 17  1  0  0  0
 16 18  2  0  0  0
 33 28  1  0  0  0
 14  1  1  0  0  0
 12  3  2  0  0  0
  8  4  1  0  0  0
 25 26  1  0  0  0
 17 19  1  0  0  0
 17 20  1  0  0  0
M  END
> <minimizedAffinity>
-9.18765

> <CNNscore>
0.4574610293

> <CNNaffinity>
6.9294319153

> <CNN_VS>
3.1699450016

> <CNNaffinity_variance>
0.1258902550

$$$$
[H]OC(C#Cc1c([H])c2c(c([H])c1F)OC([H])([H])C([H])([H])n1c-2nc(C(=O)N([H])[H])c1[H])(c1nc([H])c([H])c(C([H])([H])[H])c1[H])C([H])([H])[H]


 33 36  0  0  0  0  0  0  0  0999 V2000
   36.7089   13.9195  -12.9033 C   0  0  0  0  0  0  0  0  0  0  0  0
   37.3637   13.4183  -14.0131 C   0  0  0  0  0  0  0  0  0  0  0  0
   36.6511   12.6492  -14.9138 C   0  0  0  0  0  0  0  0  0  0  0  0
   37.5416   12.2311  -15.9987 C   0  0  0  0  0  0  0  0  0  0  0  0
   38.8845   12.4459  -15.9573 N   0  0  0  0  0  0  0  0  0  0  0  0
   39.3740   11.9384  -17.1028 C   0  0  0  0  0  0  0  0  0  0  0  0
   38.3277   11.4192  -17.8325 C   0  0  0  0  0  0  0  0  0  0  0  0
   37.1817   11.6150  -17.1167 N   0  0  0  0  0  0  0  0  0  0  0  0
   35.8700   11.1871  -17.5898 C   0  0  0  0  0  0  0  0  0  0  0  0
   35.0183   10.5986  -16.4863 C   0  0  0  0  0  0  0  0  0  0  0  0
   34.5396   11.6036  -15.6053 O   0  0  0  0  0  0  0  0  0  0  0  0
   35.3124   12.3772  -14.7257 C   0  0  0  0  0  0  0  0  0  0  0  0
   34.6428   12.8591  -13.6409 C   0  0  0  0  0  0  0  0  0  0  0  0
   35.3812   13.6322  -12.7448 C   0  0  0  0  0  0  0  0  0  0  0  0
   34.7268   14.1121  -11.6727 F   0  0  0  0  0  0  0  0  0  0  0  0
   40.7589   11.9084  -17.5609 C   0  0  0  0  0  0  0  0  0  0  0  0
   41.8202   12.4851  -16.8165 N   0  0  0  0  0  0  0  0  0  0  0  0
   41.0826   11.3600  -18.6556 O   0  0  0  0  0  0  0  0  0  0  0  0
   42.3445   13.3047  -17.2445 H   0  0  0  0  0  0  0  0  0  0  0  0
   42.1393   12.1857  -15.8873 H   0  0  0  0  0  0  0  0  0  0  0  0
   38.1190   15.3735  -11.2047 C   0  0  0  0  0  0  0  0  0  0  0  0
   37.4653   14.7139  -11.9754 C   0  0  0  0  0  0  0  0  0  0  0  0
   38.9344   16.1657  -10.2841 C   0  0  0  0  0  0  0  0  0  0  0  0
   38.3748   17.5785  -10.1110 C   0  0  0  0  0  0  0  0  0  0  0  0
   38.9190   15.5924   -9.0150 O   0  0  0  0  0  0  0  0  0  0  0  0
   38.2668   14.8525   -8.9300 H   0  0  0  0  0  0  0  0  0  0  0  0
   43.9315   15.9224   -9.8467 C   0  0  0  0  0  0  0  0  0  0  0  0
   42.7091   16.1233  -10.6590 C   0  0  0  0  0  0  0  0  0  0  0  0
   42.8274   16.3848  -12.0066 C   0  0  0  0  0  0  0  0  0  0  0  0
   41.6740   16.5643  -12.7360 C   0  0  0  0  0  0  0  0  0  0  0  0
   40.4564   16.4880  -12.1558 N   0  0  0  0  0  0  0  0  0  0  0  0
   40.3011   16.2349  -10.8460 C   0  0  0  0  0  0  0  0  0  0  0  0
   41.4437   16.0542  -10.1089 C   0  0  0  0  0  0  0  0  0  0  0  0
 27 28  1  0  0  0
 28 29  2  0  0  0
 29 30  1  0  0  0
 30 31  2  0  0  0
 31 32  1  0  0  0
 32 33  2  0  0  0
 32 23  1  0  0  0
 23 24  1  0  0  0
 23 25  1  0  0  0
 23 21  1  0  0  0
 21 22  3  0  0  0
 22  1  1  0  0  0
  1  2  2  0  0  0
  2  3  1  0  0  0
  3  4  1  0  0  0
  4  5  2  0  0  0
  5  6  1  0  0  0
  6  7  2  0  0  0
  7  8  1  0  0  0
  8  9  1  0  0  0
  9 10  1  0  0  0
 10 11  1  0  0  0
 11 12  1  0  0  0
 12 13  1  0  0  0
 13 14  2  0  0  0
 14 15  1  0  0  0
  6 16  1  0  0  0
 16 17  1  0  0  0
 16 18  2  0  0  0
 33 28  1  0  0  0
 14  1  1  0  0  0
 12  3  2  0  0  0
  8  4  1  0  0  0
 25 26  1  0  0  0
 17 19  1  0  0  0
 17 20  1  0  0  0
M  END
> <minimizedAffinity>
-8.95166

> <CNNscore>
0.4499543309

> <CNNaffinity>
6.9820861816

> <CNN_VS>
3.1416199207

> <CNNaffinity_variance>
0.1356887966

$$$$
[H]OC(C#Cc1c([H])c2c(c([H])c1F)OC([H])([H])C([H])([H])n1c-2nc(C(=O)N([H])[H])c1[H])(c1nc([H])c([H])c(C([H])([H])[H])c1[H])C([H])([H])[H]


 33 36  0  0  0  0  0  0  0  0999 V2000
   36.7160   13.9313  -13.0796 C   0  0  0  0  0  0  0  0  0  0  0  0
   37.2427   13.3479  -14.2171 C   0  0  0  0  0  0  0  0  0  0  0  0
   36.4225   12.5556  -14.9981 C   0  0  0  0  0  0  0  0  0  0  0  0
   37.1886   12.0485  -16.1387 C   0  0  0  0  0  0  0  0  0  0  0  0
   38.5346   12.2190  -16.2407 N   0  0  0  0  0  0  0  0  0  0  0  0
   38.8932   11.6331  -17.3973 C   0  0  0  0  0  0  0  0  0  0  0  0
   37.7652   11.1111  -17.9903 C   0  0  0  0  0  0  0  0  0  0  0  0
   36.7020   11.3849  -17.1788 N   0  0  0  0  0  0  0  0  0  0  0  0
   35.3380   10.9771  -17.4964 C   0  0  0  0  0  0  0  0  0  0  0  0
   34.5834   10.4795  -16.2830 C   0  0  0  0  0  0  0  0  0  0  0  0
   34.2236   11.5470  -15.4192 O   0  0  0  0  0  0  0  0  0  0  0  0
   35.1018   12.3405  -14.6651 C   0  0  0  0  0  0  0  0  0  0  0  0
   34.5572   12.9037  -13.5500 C   0  0  0  0  0  0  0  0  0  0  0  0
   35.4029   13.6988  -12.7762 C   0  0  0  0  0  0  0  0  0  0  0  0
   34.8721   14.2588  -11.6750 F   0  0  0  0  0  0  0  0  0  0  0  0
   40.2244   11.5305  -17.9856 C   0  0  0  0  0  0  0  0  0  0  0  0
   41.3711   12.1073  -17.3808 N   0  0  0  0  0  0  0  0  0  0  0  0
   40.4215   10.9151  -19.0747 O   0  0  0  0  0  0  0  0  0  0  0  0
   41.8748   12.8845  -17.9022 H   0  0  0  0  0  0  0  0  0  0  0  0
   41.7715   11.8453  -16.4720 H   0  0  0  0  0  0  0  0  0  0  0  0
   38.3200   15.4173  -11.5942 C   0  0  0  0  0  0  0  0  0  0  0  0
   37.5832   14.7486  -12.2773 C   0  0  0  0  0  0  0  0  0  0  0  0
   39.2255   16.2048  -10.7576 C   0  0  0  0  0  0  0  0  0  0  0  0
   40.5971   16.3693  -11.4140 C   0  0  0  0  0  0  0  0  0  0  0  0
   38.7261   17.4942  -10.5919 O   0  0  0  0  0  0  0  0  0  0  0  0
   37.9428   17.6850  -11.1665 H   0  0  0  0  0  0  0  0  0  0  0  0
   37.3392   13.7326   -6.8141 C   0  0  0  0  0  0  0  0  0  0  0  0
   38.4849   14.3035   -7.5596 C   0  0  0  0  0  0  0  0  0  0  0  0
   39.7573   14.1755   -7.0468 C   0  0  0  0  0  0  0  0  0  0  0  0
   40.8022   14.7137   -7.7631 C   0  0  0  0  0  0  0  0  0  0  0  0
   40.5958   15.3508   -8.9363 N   0  0  0  0  0  0  0  0  0  0  0  0
   39.3707   15.4951   -9.4677 C   0  0  0  0  0  0  0  0  0  0  0  0
   38.3216   14.9627   -8.7626 C   0  0  0  0  0  0  0  0  0  0  0  0
 27 28  1  0  0  0
 28 29  2  0  0  0
 29 30  1  0  0  0
 30 31  2  0  0  0
 31 32  1  0  0  0
 32 33  2  0  0  0
 32 23  1  0  0  0
 23 24  1  0  0  0
 23 25  1  0  0  0
 23 21  1  0  0  0
 21 22  3  0  0  0
 22  1  1  0  0  0
  1  2  2  0  0  0
  2  3  1  0  0  0
  3  4  1  0  0  0
  4  5  2  0  0  0
  5  6  1  0  0  0
  6  7  2  0  0  0
  7  8  1  0  0  0
  8  9  1  0  0  0
  9 10  1  0  0  0
 10 11  1  0  0  0
 11 12  1  0  0  0
 12 13  1  0  0  0
 13 14  2  0  0  0
 14 15  1  0  0  0
  6 16  1  0  0  0
 16 17  1  0  0  0
 16 18  2  0  0  0
 33 28  1  0  0  0
 14  1  1  0  0  0
 12  3  2  0  0  0
  8  4  1  0  0  0
 25 26  1  0  0  0
 17 19  1  0  0  0
 17 20  1  0  0  0
M  END
> <minimizedAffinity>
-8.88175

> <CNNscore>
0.4440075159

> <CNNaffinity>
6.9893827438

> <CNN_VS>
3.1033384800

> <CNNaffinity_variance>
0.1428820342

$$$$
[H]OC(C#Cc1c([H])c2c(c([H])c1F)OC([H])([H])C([H])([H])n1c-2nc(C(=O)N([H])[H])c1[H])(c1nc([H])c([H])c(C([H])([H])[H])c1[H])C([H])([H])[H]


 33 36  0  0  0  0  0  0  0  0999 V2000
   40.2171   15.2265  -12.6040 C   0  0  0  0  0  0  0  0  0  0  0  0
   40.4690   14.4275  -13.7040 C   0  0  0  0  0  0  0  0  0  0  0  0
   41.7805   14.2189  -14.0873 C   0  0  0  0  0  0  0  0  0  0  0  0
   41.8043   13.3500  -15.2659 C   0  0  0  0  0  0  0  0  0  0  0  0
   40.6702   13.0006  -15.9315 N   0  0  0  0  0  0  0  0  0  0  0  0
   41.0667   12.2088  -16.9441 C   0  0  0  0  0  0  0  0  0  0  0  0
   42.4369   12.0817  -16.8880 C   0  0  0  0  0  0  0  0  0  0  0  0
   42.8806   12.8098  -15.8218 N   0  0  0  0  0  0  0  0  0  0  0  0
   44.2901   12.9033  -15.4584 C   0  0  0  0  0  0  0  0  0  0  0  0
   44.6876   14.2985  -15.0285 C   0  0  0  0  0  0  0  0  0  0  0  0
   44.1795   14.6115  -13.7405 O   0  0  0  0  0  0  0  0  0  0  0  0
   42.8302   14.7880  -13.3976 C   0  0  0  0  0  0  0  0  0  0  0  0
   42.6101   15.5791  -12.3099 C   0  0  0  0  0  0  0  0  0  0  0  0
   41.2793   15.7766  -11.9411 C   0  0  0  0  0  0  0  0  0  0  0  0
   41.0546   16.5549  -10.8680 F   0  0  0  0  0  0  0  0  0  0  0  0
   40.2461   11.5611  -17.9618 C   0  0  0  0  0  0  0  0  0  0  0  0
   38.9580   11.0363  -17.6813 N   0  0  0  0  0  0  0  0  0  0  0  0
   40.6485   11.4360  -19.1561 O   0  0  0  0  0  0  0  0  0  0  0  0
   38.8124    9.9880  -17.7786 H   0  0  0  0  0  0  0  0  0  0  0  0
   38.1358   11.5771  -17.3873 H   0  0  0  0  0  0  0  0  0  0  0  0
   37.6922   15.6079  -11.9209 C   0  0  0  0  0  0  0  0  0  0  0  0
   38.8482   15.4358  -12.2216 C   0  0  0  0  0  0  0  0  0  0  0  0
   36.2834   15.8085  -11.5817 C   0  0  0  0  0  0  0  0  0  0  0  0
   36.0046   15.4717  -10.1161 C   0  0  0  0  0  0  0  0  0  0  0  0
   35.9389   17.1490  -11.7361 O   0  0  0  0  0  0  0  0  0  0  0  0
   36.7190   17.7340  -11.9075 H   0  0  0  0  0  0  0  0  0  0  0  0
   35.8361   12.5228  -15.3534 C   0  0  0  0  0  0  0  0  0  0  0  0
   35.2444   13.3428  -14.2709 C   0  0  0  0  0  0  0  0  0  0  0  0
   33.8854   13.2924  -14.0495 C   0  0  0  0  0  0  0  0  0  0  0  0
   33.3648   14.0632  -13.0350 C   0  0  0  0  0  0  0  0  0  0  0  0
   34.1557   14.8497  -12.2728 N   0  0  0  0  0  0  0  0  0  0  0  0
   35.4838   14.9248  -12.4583 C   0  0  0  0  0  0  0  0  0  0  0  0
   36.0140   14.1609  -13.4666 C   0  0  0  0  0  0  0  0  0  0  0  0
 27 28  1  0  0  0
 28 29  2  0  0  0
 29 30  1  0  0  0
 30 31  2  0  0  0
 31 32  1  0  0  0
 32 33  2  0  0  0
 32 23  1  0  0  0
 23 24  1  0  0  0
 23 25  1  0  0  0
 23 21  1  0  0  0
 21 22  3  0  0  0
 22  1  1  0  0  0
  1  2  2  0  0  0
  2  3  1  0  0  0
  3  4  1  0  0  0
  4  5  2  0  0  0
  5  6  1  0  0  0
  6  7  2  0  0  0
  7  8  1  0  0  0
  8  9  1  0  0  0
  9 10  1  0  0  0
 10 11  1  0  0  0
 11 12  1  0  0  0
 12 13  1  0  0  0
 13 14  2  0  0  0
 14 15  1  0  0  0
  6 16  1  0  0  0
 16 17  1  0  0  0
 16 18  2  0  0  0
 33 28  1  0  0  0
 14  1  1  0  0  0
 12  3  2  0  0  0
  8  4  1  0  0  0
 25 26  1  0  0  0
 17 19  1  0  0  0
 17 20  1  0  0  0
M  END
> <minimizedAffinity>
-8.94938

> <CNNscore>
0.4132422805

> <CNNaffinity>
7.0433044434

> <CNN_VS>
2.9105911255

> <CNNaffinity_variance>
0.1629168987

$$$$
[H]OC(C#Cc1c([H])c2c(c([H])c1F)OC([H])([H])C([H])([H])n1c-2nc(C(=O)N([H])[H])c1[H])(c1nc([H])c([H])c(C([H])([H])[H])c1[H])C([H])([H])[H]


 33 36  0  0  0  0  0  0  0  0999 V2000
   38.9412   14.3886  -13.5252 C   0  0  0  0  0  0  0  0  0  0  0  0
   38.0652   13.5977  -14.2455 C   0  0  0  0  0  0  0  0  0  0  0  0
   38.5487   12.8859  -15.3272 C   0  0  0  0  0  0  0  0  0  0  0  0
   37.4518   12.1272  -15.9322 C   0  0  0  0  0  0  0  0  0  0  0  0
   36.1569   12.2964  -15.5506 N   0  0  0  0  0  0  0  0  0  0  0  0
   35.4363   11.4497  -16.3078 C   0  0  0  0  0  0  0  0  0  0  0  0
   36.2960   10.7719  -17.1435 C   0  0  0  0  0  0  0  0  0  0  0  0
   37.5618   11.2154  -16.8892 N   0  0  0  0  0  0  0  0  0  0  0  0
   38.7341   10.7114  -17.5958 C   0  0  0  0  0  0  0  0  0  0  0  0
   39.7228   11.8056  -17.9345 C   0  0  0  0  0  0  0  0  0  0  0  0
   40.4221   12.2510  -16.7822 O   0  0  0  0  0  0  0  0  0  0  0  0
   39.8761   12.9506  -15.6951 C   0  0  0  0  0  0  0  0  0  0  0  0
   40.7608   13.7217  -15.0023 C   0  0  0  0  0  0  0  0  0  0  0  0
   40.2513   14.4319  -13.9150 C   0  0  0  0  0  0  0  0  0  0  0  0
   41.1187   15.1939  -13.2259 F   0  0  0  0  0  0  0  0  0  0  0  0
   33.9937   11.2318  -16.2998 C   0  0  0  0  0  0  0  0  0  0  0  0
   33.2299   11.2316  -15.1041 N   0  0  0  0  0  0  0  0  0  0  0  0
   33.3483   11.0312  -17.3708 O   0  0  0  0  0  0  0  0  0  0  0  0
   32.7455   10.3293  -14.8194 H   0  0  0  0  0  0  0  0  0  0  0  0
   33.0953   12.0304  -14.4726 H   0  0  0  0  0  0  0  0  0  0  0  0
   38.0025   15.7551  -11.4663 C   0  0  0  0  0  0  0  0  0  0  0  0
   38.4213   15.1246  -12.4063 C   0  0  0  0  0  0  0  0  0  0  0  0
   37.5163   16.5366  -10.3293 C   0  0  0  0  0  0  0  0  0  0  0  0
   38.5162   17.6206   -9.9236 C   0  0  0  0  0  0  0  0  0  0  0  0
   36.3462   17.2084  -10.6742 O   0  0  0  0  0  0  0  0  0  0  0  0
   36.1345   17.1508  -11.6396 H   0  0  0  0  0  0  0  0  0  0  0  0
   39.2150   13.4347   -6.7636 C   0  0  0  0  0  0  0  0  0  0  0  0
   38.1033   14.1030   -7.4791 C   0  0  0  0  0  0  0  0  0  0  0  0
   36.8044   13.8591   -7.0897 C   0  0  0  0  0  0  0  0  0  0  0  0
   35.7926   14.4964   -7.7714 C   0  0  0  0  0  0  0  0  0  0  0  0
   36.0560   15.3388   -8.7942 N   0  0  0  0  0  0  0  0  0  0  0  0
   37.3084   15.6014   -9.2020 C   0  0  0  0  0  0  0  0  0  0  0  0
   38.3250   14.9719   -8.5300 C   0  0  0  0  0  0  0  0  0  0  0  0
 27 28  1  0  0  0
 28 29  2  0  0  0
 29 30  1  0  0  0
 30 31  2  0  0  0
 31 32  1  0  0  0
 32 33  2  0  0  0
 32 23  1  0  0  0
 23 24  1  0  0  0
 23 25  1  0  0  0
 23 21  1  0  0  0
 21 22  3  0  0  0
 22  1  1  0  0  0
  1  2  2  0  0  0
  2  3  1  0  0  0
  3  4  1  0  0  0
  4  5  2  0  0  0
  5  6  1  0  0  0
  6  7  2  0  0  0
  7  8  1  0  0  0
  8  9  1  0  0  0
  9 10  1  0  0  0
 10 11  1  0  0  0
 11 12  1  0  0  0
 12 13  1  0  0  0
 13 14  2  0  0  0
 14 15  1  0  0  0
  6 16  1  0  0  0
 16 17  1  0  0  0
 16 18  2  0  0  0
 33 28  1  0  0  0
 14  1  1  0  0  0
 12  3  2  0  0  0
  8  4  1  0  0  0
 25 26  1  0  0  0
 17 19  1  0  0  0
 17 20  1  0  0  0
M  END
> <minimizedAffinity>
-9.40619

> <CNNscore>
0.3876680434

> <CNNaffinity>
6.8517508507

> <CNN_VS>
2.6562049389

> <CNNaffinity_variance>
0.0346534885

$$$$
[H]O[C@]1(C#Cc2c([H])c([H])c3c(c2[H])-n2nc(C(=O)N([H])[H])c(C(F)(F)F)c2[C@@]([H])(F)C([H])([H])O3)C(=O)N(C([H])([H])[H])C([H])([H])C1([H])[H]


 35 38  0  0  0  0  0  0  0  0999 V2000
   42.1594   13.1593  -14.7243 C   0  0  0  0  0  0  0  0  0  0  0  0
   42.9697   12.8877  -15.8194 C   0  0  0  0  0  0  0  0  0  0  0  0
   42.4872   12.4370  -17.0348 C   0  0  0  0  0  0  0  0  0  0  0  0
   41.1371   12.2451  -17.1754 C   0  0  0  0  0  0  0  0  0  0  0  0
   40.7190   11.7899  -18.4282 O   0  0  0  0  0  0  0  0  0  0  0  0
   39.3532   11.6325  -18.8647 C   0  0  0  0  0  0  0  0  0  0  0  0
   38.5767   10.7510  -17.8560 C   0  0  0  0  0  0  0  0  0  0  0  0
   37.8317    9.8370  -18.4579 F   0  0  0  0  0  0  0  0  0  0  0  0
   38.0691   11.5997  -16.8000 C   0  0  0  0  0  0  0  0  0  0  0  0
   36.7478   11.8338  -16.3411 C   0  0  0  0  0  0  0  0  0  0  0  0
   36.8168   12.7390  -15.3270 C   0  0  0  0  0  0  0  0  0  0  0  0
   38.1536   13.0402  -15.1764 N   0  0  0  0  0  0  0  0  0  0  0  0
   38.8661   12.3786  -16.0306 N   0  0  0  0  0  0  0  0  0  0  0  0
   40.3231   12.5090  -16.1022 C   0  0  0  0  0  0  0  0  0  0  0  0
   40.8051   12.9585  -14.8905 C   0  0  0  0  0  0  0  0  0  0  0  0
   35.8010   13.4049  -14.5289 C   0  0  0  0  0  0  0  0  0  0  0  0
   35.2863   14.6894  -14.6812 N   0  0  0  0  0  0  0  0  0  0  0  0
   35.2965   12.7383  -13.5322 O   0  0  0  0  0  0  0  0  0  0  0  0
   34.2772   14.8749  -14.9158 H   0  0  0  0  0  0  0  0  0  0  0  0
   35.8760   15.5549  -14.5593 H   0  0  0  0  0  0  0  0  0  0  0  0
   35.6272   11.1159  -16.9361 C   0  0  0  0  0  0  0  0  0  0  0  0
   35.7095    9.7329  -16.8495 F   0  0  0  0  0  0  0  0  0  0  0  0
   34.3914   11.5742  -16.3844 F   0  0  0  0  0  0  0  0  0  0  0  0
   35.4358   11.3696  -18.2555 F   0  0  0  0  0  0  0  0  0  0  0  0
   43.1637   14.0007  -12.4232 C   0  0  0  0  0  0  0  0  0  0  0  0
   42.7064   13.6276  -13.4769 C   0  0  0  0  0  0  0  0  0  0  0  0
   47.0515   16.1116  -10.8316 C   0  0  0  0  0  0  0  0  0  0  0  0
   45.6721   15.6969  -11.1045 N   0  0  0  0  0  0  0  0  0  0  0  0
   44.6155   16.6733  -11.3032 C   0  0  0  0  0  0  0  0  0  0  0  0
   43.3915   15.9124  -10.8821 C   0  0  0  0  0  0  0  0  0  0  0  0
   43.7089   14.4417  -11.1189 C   0  0  0  0  0  0  0  0  0  0  0  0
   43.1594   13.7052  -10.0961 O   0  0  0  0  0  0  0  0  0  0  0  0
   45.1649   14.3774  -11.2142 C   0  0  0  0  0  0  0  0  0  0  0  0
   45.8735   13.3580  -11.3657 O   0  0  0  0  0  0  0  0  0  0  0  0
   42.2362   14.0579   -9.9462 H   0  0  0  0  0  0  0  0  0  0  0  0
 27 28  1  0  0  0
 28 29  1  0  0  0
 29 30  1  0  0  0
 30 31  1  0  0  0
 31 32  1  0  0  0
 31 25  1  0  0  0
 25 26  3  0  0  0
 26  1  1  0  0  0
  1  2  2  0  0  0
  2  3  1  0  0  0
  3  4  2  0  0  0
  4  5  1  0  0  0
  5  6  1  0  0  0
  6  7  1  0  0  0
  7  8  1  0  0  0
  7  9  1  0  0  0
  9 10  2  0  0  0
 10 11  1  0  0  0
 11 12  2  0  0  0
 12 13  1  0  0  0
 13 14  1  0  0  0
 14 15  2  0  0  0
 11 16  1  0  0  0
 16 17  1  0  0  0
 16 18  2  0  0  0
 10 21  1  0  0  0
 21 22  1  0  0  0
 21 23  1  0  0  0
 21 24  1  0  0  0
 31 33  1  0  0  0
 33 34  2  0  0  0
 33 28  1  0  0  0
 15  1  1  0  0  0
 14  4  1  0  0  0
 13  9  1  0  0  0
 32 35  1  0  0  0
 17 19  1  0  0  0
 17 20  1  0  0  0
M  END
> <minimizedAffinity>
-9.36605

> <CNNscore>
0.7519162297

> <CNNaffinity>
7.3450288773

> <CNN_VS>
5.5228462219

> <CNNaffinity_variance>
0.3316686749

$$$$
[H]O[C@]1(C#Cc2c([H])c([H])c3c(c2[H])-n2nc(C(=O)N([H])[H])c(C(F)(F)F)c2[C@@]([H])(F)C([H])([H])O3)C(=O)N(C([H])([H])[H])C([H])([H])C1([H])[H]


 35 38  0  0  0  0  0  0  0  0999 V2000
   41.1414   12.9064  -15.6504 C   0  0  0  0  0  0  0  0  0  0  0  0
   41.6636   12.3195  -16.7961 C   0  0  0  0  0  0  0  0  0  0  0  0
   40.8905   11.6791  -17.7477 C   0  0  0  0  0  0  0  0  0  0  0  0
   39.5343   11.6153  -17.5581 C   0  0  0  0  0  0  0  0  0  0  0  0
   38.8152   10.9552  -18.5575 O   0  0  0  0  0  0  0  0  0  0  0  0
   37.3789   10.8641  -18.6540 C   0  0  0  0  0  0  0  0  0  0  0  0
   36.7968   10.3093  -17.3306 C   0  0  0  0  0  0  0  0  0  0  0  0
   35.8783    9.3786  -17.5376 F   0  0  0  0  0  0  0  0  0  0  0  0
   36.5966   11.4140  -16.4182 C   0  0  0  0  0  0  0  0  0  0  0  0
   35.4312   11.8875  -15.7632 C   0  0  0  0  0  0  0  0  0  0  0  0
   35.7855   12.9731  -15.0226 C   0  0  0  0  0  0  0  0  0  0  0  0
   37.1380   13.1467  -15.2252 N   0  0  0  0  0  0  0  0  0  0  0  0
   37.5950   12.2432  -16.0315 N   0  0  0  0  0  0  0  0  0  0  0  0
   39.0031   12.1904  -16.4307 C   0  0  0  0  0  0  0  0  0  0  0  0
   39.7746   12.8289  -15.4822 C   0  0  0  0  0  0  0  0  0  0  0  0
   35.0214   13.9030  -14.2081 C   0  0  0  0  0  0  0  0  0  0  0  0
   33.7796   14.4710  -14.4788 N   0  0  0  0  0  0  0  0  0  0  0  0
   35.5475   14.2745  -13.0779 O   0  0  0  0  0  0  0  0  0  0  0  0
   32.9280   14.2876  -13.8881 H   0  0  0  0  0  0  0  0  0  0  0  0
   33.6208   15.1289  -15.2873 H   0  0  0  0  0  0  0  0  0  0  0  0
   34.1617   11.1909  -15.9314 C   0  0  0  0  0  0  0  0  0  0  0  0
   33.1715   11.5592  -15.0310 F   0  0  0  0  0  0  0  0  0  0  0  0
   33.6892   11.3316  -17.2725 F   0  0  0  0  0  0  0  0  0  0  0  0
   34.2442    9.8406  -15.8223 F   0  0  0  0  0  0  0  0  0  0  0  0
   42.6865   14.1330  -13.8842 C   0  0  0  0  0  0  0  0  0  0  0  0
   41.9854   13.5634  -14.6858 C   0  0  0  0  0  0  0  0  0  0  0  0
   42.3100   15.8807   -9.5358 C   0  0  0  0  0  0  0  0  0  0  0  0
   42.7468   15.2024  -10.7599 N   0  0  0  0  0  0  0  0  0  0  0  0
   43.3341   13.8748  -10.7189 C   0  0  0  0  0  0  0  0  0  0  0  0
   44.1932   13.8653  -11.9502 C   0  0  0  0  0  0  0  0  0  0  0  0
   43.5506   14.8499  -12.9185 C   0  0  0  0  0  0  0  0  0  0  0  0
   44.5476   15.5279  -13.5793 O   0  0  0  0  0  0  0  0  0  0  0  0
   42.6794   15.6818  -12.0926 C   0  0  0  0  0  0  0  0  0  0  0  0
   41.9824   16.6530  -12.4601 O   0  0  0  0  0  0  0  0  0  0  0  0
   45.2325   14.8509  -13.8472 H   0  0  0  0  0  0  0  0  0  0  0  0
 27 28  1  0  0  0
 28 29  1  0  0  0
 29 30  1  0  0  0
 30 31  1  0  0  0
 31 32  1  0  0  0
 31 25  1  0  0  0
 25 26  3  0  0  0
 26  1  1  0  0  0
  1  2  2  0  0  0
  2  3  1  0  0  0
  3  4  2  0  0  0
  4  5  1  0  0  0
  5  6  1  0  0  0
  6  7  1  0  0  0
  7  8  1  0  0  0
  7  9  1  0  0  0
  9 10  2  0  0  0
 10 11  1  0  0  0
 11 12  2  0  0  0
 12 13  1  0  0  0
 13 14  1  0  0  0
 14 15  2  0  0  0
 11 16  1  0  0  0
 16 17  1  0  0  0
 16 18  2  0  0  0
 10 21  1  0  0  0
 21 22  1  0  0  0
 21 23  1  0  0  0
 21 24  1  0  0  0
 31 33  1  0  0  0
 33 34  2  0  0  0
 33 28  1  0  0  0
 15  1  1  0  0  0
 14  4  1  0  0  0
 13  9  1  0  0  0
 32 35  1  0  0  0
 17 19  1  0  0  0
 17 20  1  0  0  0
M  END
> <minimizedAffinity>
-9.81451

> <CNNscore>
0.6777743101

> <CNNaffinity>
7.5028901100

> <CNN_VS>
5.0852661133

> <CNNaffinity_variance>
0.2756953835

$$$$
[H]O[C@]1(C#Cc2c([H])c([H])c3c(c2[H])-n2nc(C(=O)N([H])[H])c(C(F)(F)F)c2[C@@]([H])(F)C([H])([H])O3)C(=O)N(C([H])([H])[H])C([H])([H])C1([H])[H]


 35 38  0  0  0  0  0  0  0  0999 V2000
   41.0721   13.0696  -15.3336 C   0  0  0  0  0  0  0  0  0  0  0  0
   41.7142   12.5995  -16.4722 C   0  0  0  0  0  0  0  0  0  0  0  0
   41.0574   11.9784  -17.5192 C   0  0  0  0  0  0  0  0  0  0  0  0
   39.6990   11.8136  -17.4374 C   0  0  0  0  0  0  0  0  0  0  0  0
   39.1006   11.1798  -18.5291 O   0  0  0  0  0  0  0  0  0  0  0  0
   37.6847   11.0025  -18.7398 C   0  0  0  0  0  0  0  0  0  0  0  0
   37.0501   10.3199  -17.5031 C   0  0  0  0  0  0  0  0  0  0  0  0
   36.2160    9.3483  -17.8391 F   0  0  0  0  0  0  0  0  0  0  0  0
   36.7088   11.3427  -16.5386 C   0  0  0  0  0  0  0  0  0  0  0  0
   35.4696   11.6925  -15.9442 C   0  0  0  0  0  0  0  0  0  0  0  0
   35.6936   12.7444  -15.1100 C   0  0  0  0  0  0  0  0  0  0  0  0
   37.0417   13.0192  -15.1980 N   0  0  0  0  0  0  0  0  0  0  0  0
   37.6168   12.2059  -16.0244 N   0  0  0  0  0  0  0  0  0  0  0  0
   39.0500   12.2727  -16.3184 C   0  0  0  0  0  0  0  0  0  0  0  0
   39.7056   12.8920  -15.2748 C   0  0  0  0  0  0  0  0  0  0  0  0
   34.8104   13.5635  -14.2970 C   0  0  0  0  0  0  0  0  0  0  0  0
   33.9074   14.5377  -14.7137 N   0  0  0  0  0  0  0  0  0  0  0  0
   34.8555   13.3882  -13.0087 O   0  0  0  0  0  0  0  0  0  0  0  0
   32.8683   14.4497  -14.5716 H   0  0  0  0  0  0  0  0  0  0  0  0
   34.2128   15.4286  -15.1877 H   0  0  0  0  0  0  0  0  0  0  0  0
   34.2671   10.9285  -16.2529 C   0  0  0  0  0  0  0  0  0  0  0  0
   34.3919    9.5555  -16.0913 F   0  0  0  0  0  0  0  0  0  0  0  0
   33.1575   11.4175  -15.4972 F   0  0  0  0  0  0  0  0  0  0  0  0
   33.8116   11.0880  -17.5214 F   0  0  0  0  0  0  0  0  0  0  0  0
   42.4113   14.2297  -13.3658 C   0  0  0  0  0  0  0  0  0  0  0  0
   41.7974   13.7109  -14.2673 C   0  0  0  0  0  0  0  0  0  0  0  0
   46.2530   16.8817  -12.8073 C   0  0  0  0  0  0  0  0  0  0  0  0
   44.9091   16.2991  -12.7444 N   0  0  0  0  0  0  0  0  0  0  0  0
   43.7217   17.1346  -12.7753 C   0  0  0  0  0  0  0  0  0  0  0  0
   42.7160   16.2909  -12.0466 C   0  0  0  0  0  0  0  0  0  0  0  0
   43.1569   14.8465  -12.2449 C   0  0  0  0  0  0  0  0  0  0  0  0
   42.9277   14.1550  -11.0788 O   0  0  0  0  0  0  0  0  0  0  0  0
   44.5577   14.9287  -12.6499 C   0  0  0  0  0  0  0  0  0  0  0  0
   45.3400   13.9807  -12.8813 O   0  0  0  0  0  0  0  0  0  0  0  0
   42.0194   14.4201  -10.7563 H   0  0  0  0  0  0  0  0  0  0  0  0
 27 28  1  0  0  0
 28 29  1  0  0  0
 29 30  1  0  0  0
 30 31  1  0  0  0
 31 32  1  0  0  0
 31 25  1  0  0  0
 25 26  3  0  0  0
 26  1  1  0  0  0
  1  2  2  0  0  0
  2  3  1  0  0  0
  3  4  2  0  0  0
  4  5  1  0  0  0
  5  6  1  0  0  0
  6  7  1  0  0  0
  7  8  1  0  0  0
  7  9  1  0  0  0
  9 10  2  0  0  0
 10 11  1  0  0  0
 11 12  2  0  0  0
 12 13  1  0  0  0
 13 14  1  0  0  0
 14 15  2  0  0  0
 11 16  1  0  0  0
 16 17  1  0  0  0
 16 18  2  0  0  0
 10 21  1  0  0  0
 21 22  1  0  0  0
 21 23  1  0  0  0
 21 24  1  0  0  0
 31 33  1  0  0  0
 33 34  2  0  0  0
 33 28  1  0  0  0
 15  1  1  0  0  0
 14  4  1  0  0  0
 13  9  1  0  0  0
 32 35  1  0  0  0
 17 19  1  0  0  0
 17 20  1  0  0  0
M  END
> <minimizedAffinity>
-9.90399

> <CNNscore>
0.6634118557

> <CNNaffinity>
7.3663063049

> <CNN_VS>
4.8868947029

> <CNNaffinity_variance>
0.2421084642

$$$$
[H]O[C@]1(C#Cc2c([H])c([H])c3c(c2[H])-n2nc(C(=O)N([H])[H])c(C(F)(F)F)c2[C@@]([H])(F)C([H])([H])O3)C(=O)N(C([H])([H])[H])C([H])([H])C1([H])[H]


 35 38  0  0  0  0  0  0  0  0999 V2000
   41.0907   12.5594  -16.1300 C   0  0  0  0  0  0  0  0  0  0  0  0
   41.3038   11.8838  -17.3249 C   0  0  0  0  0  0  0  0  0  0  0  0
   40.2861   11.3426  -18.0895 C   0  0  0  0  0  0  0  0  0  0  0  0
   38.9937   11.4754  -17.6521 C   0  0  0  0  0  0  0  0  0  0  0  0
   38.0169   10.9062  -18.4726 O   0  0  0  0  0  0  0  0  0  0  0  0
   36.5891   11.0182  -18.3002 C   0  0  0  0  0  0  0  0  0  0  0  0
   36.1956   10.5757  -16.8695 C   0  0  0  0  0  0  0  0  0  0  0  0
   35.1366    9.7812  -16.8634 F   0  0  0  0  0  0  0  0  0  0  0  0
   36.3224   11.7138  -15.9855 C   0  0  0  0  0  0  0  0  0  0  0  0
   35.3761   12.3596  -15.1495 C   0  0  0  0  0  0  0  0  0  0  0  0
   36.0075   13.3971  -14.5351 C   0  0  0  0  0  0  0  0  0  0  0  0
   37.3088   13.3733  -14.9895 N   0  0  0  0  0  0  0  0  0  0  0  0
   37.4790   12.3997  -15.8252 N   0  0  0  0  0  0  0  0  0  0  0  0
   38.7667   12.1403  -16.4729 C   0  0  0  0  0  0  0  0  0  0  0  0
   39.7821   12.6798  -15.7110 C   0  0  0  0  0  0  0  0  0  0  0  0
   35.5436   14.4406  -13.6363 C   0  0  0  0  0  0  0  0  0  0  0  0
   34.2343   14.8242  -13.3592 N   0  0  0  0  0  0  0  0  0  0  0  0
   36.4499   15.1250  -13.0017 O   0  0  0  0  0  0  0  0  0  0  0  0
   33.8031   14.7306  -12.4037 H   0  0  0  0  0  0  0  0  0  0  0  0
   33.5991   15.2423  -14.0895 H   0  0  0  0  0  0  0  0  0  0  0  0
   34.0148   11.8474  -15.0514 C   0  0  0  0  0  0  0  0  0  0  0  0
   33.3531   11.7159  -16.2645 F   0  0  0  0  0  0  0  0  0  0  0  0
   33.9981   10.6078  -14.3409 F   0  0  0  0  0  0  0  0  0  0  0  0
   33.1862   12.6007  -14.2847 F   0  0  0  0  0  0  0  0  0  0  0  0
   43.0834   13.5753  -14.7127 C   0  0  0  0  0  0  0  0  0  0  0  0
   42.1821   13.1072  -15.3663 C   0  0  0  0  0  0  0  0  0  0  0  0
   43.8472   14.6949  -10.2108 C   0  0  0  0  0  0  0  0  0  0  0  0
   43.9495   14.2025  -11.5879 N   0  0  0  0  0  0  0  0  0  0  0  0
   44.5091   12.8952  -11.8826 C   0  0  0  0  0  0  0  0  0  0  0  0
   45.0275   13.0751  -13.2801 C   0  0  0  0  0  0  0  0  0  0  0  0
   44.1742   14.1701  -13.9070 C   0  0  0  0  0  0  0  0  0  0  0  0
   44.9805   14.9548  -14.6973 O   0  0  0  0  0  0  0  0  0  0  0  0
   43.5529   14.8603  -12.7797 C   0  0  0  0  0  0  0  0  0  0  0  0
   42.7994   15.8576  -12.8195 O   0  0  0  0  0  0  0  0  0  0  0  0
   45.5654   14.3366  -15.2216 H   0  0  0  0  0  0  0  0  0  0  0  0
 27 28  1  0  0  0
 28 29  1  0  0  0
 29 30  1  0  0  0
 30 31  1  0  0  0
 31 32  1  0  0  0
 31 25  1  0  0  0
 25 26  3  0  0  0
 26  1  1  0  0  0
  1  2  2  0  0  0
  2  3  1  0  0  0
  3  4  2  0  0  0
  4  5  1  0  0  0
  5  6  1  0  0  0
  6  7  1  0  0  0
  7  8  1  0  0  0
  7  9  1  0  0  0
  9 10  2  0  0  0
 10 11  1  0  0  0
 11 12  2  0  0  0
 12 13  1  0  0  0
 13 14  1  0  0  0
 14 15  2  0  0  0
 11 16  1  0  0  0
 16 17  1  0  0  0
 16 18  2  0  0  0
 10 21  1  0  0  0
 21 22  1  0  0  0
 21 23  1  0  0  0
 21 24  1  0  0  0
 31 33  1  0  0  0
 33 34  2  0  0  0
 33 28  1  0  0  0
 15  1  1  0  0  0
 14  4  1  0  0  0
 13  9  1  0  0  0
 32 35  1  0  0  0
 17 19  1  0  0  0
 17 20  1  0  0  0
M  END
> <minimizedAffinity>
-9.68798

> <CNNscore>
0.4384821057

> <CNNaffinity>
7.0749573708

> <CNN_VS>
3.1022422314

> <CNNaffinity_variance>
0.1609391272

$$$$
[H]O[C@]1(C#Cc2c([H])c([H])c3c(c2[H])-n2nc(C(=O)N([H])[H])c(C(F)(F)F)c2[C@@]([H])(F)C([H])([H])O3)C(=O)N(C([H])([H])[H])C([H])([H])C1([H])[H]


 35 38  0  0  0  0  0  0  0  0999 V2000
   42.9941   13.3254   -8.0955 C   0  0  0  0  0  0  0  0  0  0  0  0
   43.6457   12.4554   -7.2306 C   0  0  0  0  0  0  0  0  0  0  0  0
   44.9009   11.9291   -7.4772 C   0  0  0  0  0  0  0  0  0  0  0  0
   45.5444   12.2799   -8.6358 C   0  0  0  0  0  0  0  0  0  0  0  0
   46.8077   11.7129   -8.8204 O   0  0  0  0  0  0  0  0  0  0  0  0
   47.7310   12.0189   -9.8856 C   0  0  0  0  0  0  0  0  0  0  0  0
   47.0290   11.8493  -11.2553 C   0  0  0  0  0  0  0  0  0  0  0  0
   47.7815   11.1968  -12.1275 F   0  0  0  0  0  0  0  0  0  0  0  0
   46.3513   13.0854  -11.5803 C   0  0  0  0  0  0  0  0  0  0  0  0
   46.4789   13.9589  -12.6903 C   0  0  0  0  0  0  0  0  0  0  0  0
   45.6168   14.9952  -12.5020 C   0  0  0  0  0  0  0  0  0  0  0  0
   44.9804   14.7477  -11.3044 N   0  0  0  0  0  0  0  0  0  0  0  0
   45.4117   13.6451  -10.7816 N   0  0  0  0  0  0  0  0  0  0  0  0
   44.9135   13.1387   -9.5009 C   0  0  0  0  0  0  0  0  0  0  0  0
   43.6618   13.6631   -9.2541 C   0  0  0  0  0  0  0  0  0  0  0  0
   45.3573   16.2111  -13.2546 C   0  0  0  0  0  0  0  0  0  0  0  0
   45.3153   17.5229  -12.7906 N   0  0  0  0  0  0  0  0  0  0  0  0
   45.1235   16.0836  -14.5280 O   0  0  0  0  0  0  0  0  0  0  0  0
   45.9941   18.2618  -13.1082 H   0  0  0  0  0  0  0  0  0  0  0  0
   44.5922   17.8574  -12.0999 H   0  0  0  0  0  0  0  0  0  0  0  0
   47.3934   13.6334  -13.7778 C   0  0  0  0  0  0  0  0  0  0  0  0
   48.6952   13.3589  -13.3817 F   0  0  0  0  0  0  0  0  0  0  0  0
   46.8756   12.5551  -14.5594 F   0  0  0  0  0  0  0  0  0  0  0  0
   47.5149   14.6045  -14.7180 F   0  0  0  0  0  0  0  0  0  0  0  0
   40.5909   14.3016   -7.5632 C   0  0  0  0  0  0  0  0  0  0  0  0
   41.6860   13.8491   -7.7971 C   0  0  0  0  0  0  0  0  0  0  0  0
   37.5701   14.4552   -3.9639 C   0  0  0  0  0  0  0  0  0  0  0  0
   38.4338   14.7688   -5.1063 N   0  0  0  0  0  0  0  0  0  0  0  0
   39.2522   15.9684   -5.1271 C   0  0  0  0  0  0  0  0  0  0  0  0
   39.3981   16.2322   -6.5980 C   0  0  0  0  0  0  0  0  0  0  0  0
   39.2565   14.8795   -7.2836 C   0  0  0  0  0  0  0  0  0  0  0  0
   38.5548   15.0529   -8.4532 O   0  0  0  0  0  0  0  0  0  0  0  0
   38.6101   14.0187   -6.2965 C   0  0  0  0  0  0  0  0  0  0  0  0
   38.2594   12.8268   -6.4394 O   0  0  0  0  0  0  0  0  0  0  0  0
   38.9277   15.8662   -8.8990 H   0  0  0  0  0  0  0  0  0  0  0  0
 27 28  1  0  0  0
 28 29  1  0  0  0
 29 30  1  0  0  0
 30 31  1  0  0  0
 31 32  1  0  0  0
 31 25  1  0  0  0
 25 26  3  0  0  0
 26  1  1  0  0  0
  1  2  2  0  0  0
  2  3  1  0  0  0
  3  4  2  0  0  0
  4  5  1  0  0  0
  5  6  1  0  0  0
  6  7  1  0  0  0
  7  8  1  0  0  0
  7  9  1  0  0  0
  9 10  2  0  0  0
 10 11  1  0  0  0
 11 12  2  0  0  0
 12 13  1  0  0  0
 13 14  1  0  0  0
 14 15  2  0  0  0
 11 16  1  0  0  0
 16 17  1  0  0  0
 16 18  2  0  0  0
 10 21  1  0  0  0
 21 22  1  0  0  0
 21 23  1  0  0  0
 21 24  1  0  0  0
 31 33  1  0  0  0
 33 34  2  0  0  0
 33 28  1  0  0  0
 15  1  1  0  0  0
 14  4  1  0  0  0
 13  9  1  0  0  0
 32 35  1  0  0  0
 17 19  1  0  0  0
 17 20  1  0  0  0
M  END
> <minimizedAffinity>
-5.01366

> <CNNscore>
0.3879961669

> <CNNaffinity>
5.5033869743

> <CNN_VS>
2.1352930069

> <CNNaffinity_variance>
0.7705065608

$$$$
[H]O[C@]1(C#Cc2c([H])c([H])c3c(c2[H])-n2nc(C(=O)N([H])[H])c(C(F)(F)F)c2[C@@]([H])(F)C([H])([H])O3)C(=O)N(C([H])([H])[H])C([H])([H])C1([H])[H]


 35 38  0  0  0  0  0  0  0  0999 V2000
   34.2683   10.7208  -16.9368 C   0  0  0  0  0  0  0  0  0  0  0  0
   35.5640   10.2675  -17.1494 C   0  0  0  0  0  0  0  0  0  0  0  0
   36.6523   10.6852  -16.4047 C   0  0  0  0  0  0  0  0  0  0  0  0
   36.4504   11.5959  -15.4001 C   0  0  0  0  0  0  0  0  0  0  0  0
   37.5918   11.9730  -14.6885 O   0  0  0  0  0  0  0  0  0  0  0  0
   37.6255   12.8117  -13.5154 C   0  0  0  0  0  0  0  0  0  0  0  0
   36.8918   14.1451  -13.8007 C   0  0  0  0  0  0  0  0  0  0  0  0
   37.5661   15.1941  -13.3561 F   0  0  0  0  0  0  0  0  0  0  0  0
   35.4808   13.9575  -13.5418 C   0  0  0  0  0  0  0  0  0  0  0  0
   34.5955   14.6219  -12.6553 C   0  0  0  0  0  0  0  0  0  0  0  0
   33.3689   14.0471  -12.7882 C   0  0  0  0  0  0  0  0  0  0  0  0
   33.5129   13.0592  -13.7389 N   0  0  0  0  0  0  0  0  0  0  0  0
   34.7339   13.0159  -14.1659 N   0  0  0  0  0  0  0  0  0  0  0  0
   35.1756   12.0535  -15.1777 C   0  0  0  0  0  0  0  0  0  0  0  0
   34.0909   11.6364  -15.9207 C   0  0  0  0  0  0  0  0  0  0  0  0
   32.1041   14.2528  -12.1026 C   0  0  0  0  0  0  0  0  0  0  0  0
   30.8155   14.1749  -12.6237 N   0  0  0  0  0  0  0  0  0  0  0  0
   32.1555   14.5578  -10.8390 O   0  0  0  0  0  0  0  0  0  0  0  0
   30.1132   13.4598  -12.3026 H   0  0  0  0  0  0  0  0  0  0  0  0
   30.4624   14.8365  -13.3648 H   0  0  0  0  0  0  0  0  0  0  0  0
   35.0707   15.7345  -11.8421 C   0  0  0  0  0  0  0  0  0  0  0  0
   35.6974   16.7491  -12.5524 F   0  0  0  0  0  0  0  0  0  0  0  0
   34.0049   16.2671  -11.0534 F   0  0  0  0  0  0  0  0  0  0  0  0
   35.9607   15.3851  -10.8789 F   0  0  0  0  0  0  0  0  0  0  0  0
   32.2421    9.8495  -18.4020 C   0  0  0  0  0  0  0  0  0  0  0  0
   33.1645   10.2575  -17.7378 C   0  0  0  0  0  0  0  0  0  0  0  0
   31.5441    8.4992  -22.8510 C   0  0  0  0  0  0  0  0  0  0  0  0
   31.5784    8.6071  -21.3893 N   0  0  0  0  0  0  0  0  0  0  0  0
   31.8668    7.4549  -20.5537 C   0  0  0  0  0  0  0  0  0  0  0  0
   31.1699    7.8057  -19.2710 C   0  0  0  0  0  0  0  0  0  0  0  0
   31.1238    9.3273  -19.2204 C   0  0  0  0  0  0  0  0  0  0  0  0
   29.9174    9.7110  -18.6838 O   0  0  0  0  0  0  0  0  0  0  0  0
   31.3546    9.7607  -20.5959 C   0  0  0  0  0  0  0  0  0  0  0  0
   31.3613   10.9321  -21.0338 O   0  0  0  0  0  0  0  0  0  0  0  0
   29.7497    9.1228  -17.8932 H   0  0  0  0  0  0  0  0  0  0  0  0
 27 28  1  0  0  0
 28 29  1  0  0  0
 29 30  1  0  0  0
 30 31  1  0  0  0
 31 32  1  0  0  0
 31 25  1  0  0  0
 25 26  3  0  0  0
 26  1  1  0  0  0
  1  2  2  0  0  0
  2  3  1  0  0  0
  3  4  2  0  0  0
  4  5  1  0  0  0
  5  6  1  0  0  0
  6  7  1  0  0  0
  7  8  1  0  0  0
  7  9  1  0  0  0
  9 10  2  0  0  0
 10 11  1  0  0  0
 11 12  2  0  0  0
 12 13  1  0  0  0
 13 14  1  0  0  0
 14 15  2  0  0  0
 11 16  1  0  0  0
 16 17  1  0  0  0
 16 18  2  0  0  0
 10 21  1  0  0  0
 21 22  1  0  0  0
 21 23  1  0  0  0
 21 24  1  0  0  0
 31 33  1  0  0  0
 33 34  2  0  0  0
 33 28  1  0  0  0
 15  1  1  0  0  0
 14  4  1  0  0  0
 13  9  1  0  0  0
 32 35  1  0  0  0
 17 19  1  0  0  0
 17 20  1  0  0  0
M  END
> <minimizedAffinity>
-5.36855

> <CNNscore>
0.3553321064

> <CNNaffinity>
6.9948797226

> <CNN_VS>
2.4855053425

> <CNNaffinity_variance>
0.2772315145

$$$$
[H]O[C@]1(C#Cc2c([H])c([H])c3c(c2[H])-n2nc(C(=O)N([H])[H])c(C(F)(F)F)c2[C@@]([H])(F)C([H])([H])O3)C(=O)N(C([H])([H])[H])C([H])([H])C1([H])[H]


 35 38  0  0  0  0  0  0  0  0999 V2000
   44.0886   13.1547  -14.5604 C   0  0  0  0  0  0  0  0  0  0  0  0
   44.5181   12.6892  -15.7967 C   0  0  0  0  0  0  0  0  0  0  0  0
   43.6594   12.3505  -16.8268 C   0  0  0  0  0  0  0  0  0  0  0  0
   42.3094   12.4781  -16.6257 C   0  0  0  0  0  0  0  0  0  0  0  0
   41.5011   12.1195  -17.7072 O   0  0  0  0  0  0  0  0  0  0  0  0
   40.0702   12.2812  -17.7912 C   0  0  0  0  0  0  0  0  0  0  0  0
   39.3929   11.6168  -16.5675 C   0  0  0  0  0  0  0  0  0  0  0  0
   38.3362   10.8958  -16.9087 F   0  0  0  0  0  0  0  0  0  0  0  0
   39.3680   12.5722  -15.4814 C   0  0  0  0  0  0  0  0  0  0  0  0
   38.2899   13.1138  -14.7359 C   0  0  0  0  0  0  0  0  0  0  0  0
   38.8105   13.9888  -13.8326 C   0  0  0  0  0  0  0  0  0  0  0  0
   40.1750   13.9707  -14.0283 N   0  0  0  0  0  0  0  0  0  0  0  0
   40.4851   13.1515  -14.9811 N   0  0  0  0  0  0  0  0  0  0  0  0
   41.8692   12.9368  -15.4092 C   0  0  0  0  0  0  0  0  0  0  0  0
   42.7262   13.2743  -14.3824 C   0  0  0  0  0  0  0  0  0  0  0  0
   38.2016   14.8825  -12.8617 C   0  0  0  0  0  0  0  0  0  0  0  0
   38.4263   14.9511  -11.4895 N   0  0  0  0  0  0  0  0  0  0  0  0
   37.3235   15.7335  -13.3058 O   0  0  0  0  0  0  0  0  0  0  0  0
   38.8385   15.7988  -11.0212 H   0  0  0  0  0  0  0  0  0  0  0  0
   38.1862   14.1601  -10.8351 H   0  0  0  0  0  0  0  0  0  0  0  0
   36.9251   12.6714  -14.9938 C   0  0  0  0  0  0  0  0  0  0  0  0
   36.7146   11.3086  -14.8342 F   0  0  0  0  0  0  0  0  0  0  0  0
   36.0009   13.4123  -14.1947 F   0  0  0  0  0  0  0  0  0  0  0  0
   36.4725   12.9479  -16.2430 F   0  0  0  0  0  0  0  0  0  0  0  0
   45.7916   13.7675  -12.6276 C   0  0  0  0  0  0  0  0  0  0  0  0
   45.0200   13.4957  -13.5160 C   0  0  0  0  0  0  0  0  0  0  0  0
   47.3292   11.7347   -8.6769 C   0  0  0  0  0  0  0  0  0  0  0  0
   47.2095   12.4435   -9.9546 N   0  0  0  0  0  0  0  0  0  0  0  0
   48.1484   12.2108  -11.0379 C   0  0  0  0  0  0  0  0  0  0  0  0
   48.0973   13.5082  -11.7917 C   0  0  0  0  0  0  0  0  0  0  0  0
   46.7190   14.0973  -11.5211 C   0  0  0  0  0  0  0  0  0  0  0  0
   46.8435   15.4604  -11.3906 O   0  0  0  0  0  0  0  0  0  0  0  0
   46.2361   13.4036  -10.3300 C   0  0  0  0  0  0  0  0  0  0  0  0
   45.1605   13.5950   -9.7213 O   0  0  0  0  0  0  0  0  0  0  0  0
   47.4463   15.7698  -12.1255 H   0  0  0  0  0  0  0  0  0  0  0  0
 27 28  1  0  0  0
 28 29  1  0  0  0
 29 30  1  0  0  0
 30 31  1  0  0  0
 31 32  1  0  0  0
 31 25  1  0  0  0
 25 26  3  0  0  0
 26  1  1  0  0  0
  1  2  2  0  0  0
  2  3  1  0  0  0
  3  4  2  0  0  0
  4  5  1  0  0  0
  5  6  1  0  0  0
  6  7  1  0  0  0
  7  8  1  0  0  0
  7  9  1  0  0  0
  9 10  2  0  0  0
 10 11  1  0  0  0
 11 12  2  0  0  0
 12 13  1  0  0  0
 13 14  1  0  0  0
 14 15  2  0  0  0
 11 16  1  0  0  0
 16 17  1  0  0  0
 16 18  2  0  0  0
 10 21  1  0  0  0
 21 22  1  0  0  0
 21 23  1  0  0  0
 21 24  1  0  0  0
 31 33  1  0  0  0
 33 34  2  0  0  0
 33 28  1  0  0  0
 15  1  1  0  0  0
 14  4  1  0  0  0
 13  9  1  0  0  0
 32 35  1  0  0  0
 17 19  1  0  0  0
 17 20  1  0  0  0
M  END
> <minimizedAffinity>
-7.94452

> <CNNscore>
0.3446679115

> <CNNaffinity>
6.3978977203

> <CNN_VS>
2.2051501274

> <CNNaffinity_variance>
0.6003085971

$$$$
[H]O[C@]1(C#Cc2c([H])c([H])c3c(c2[H])-n2nc(C(=O)N([H])[H])c(C(F)(F)F)c2[C@@]([H])(F)C([H])([H])O3)C(=O)N(C([H])([H])[H])C([H])([H])C1([H])[H]


 35 38  0  0  0  0  0  0  0  0999 V2000
   40.0437   14.1515  -13.7832 C   0  0  0  0  0  0  0  0  0  0  0  0
   41.0293   13.8503  -14.7146 C   0  0  0  0  0  0  0  0  0  0  0  0
   40.7856   13.1670  -15.8923 C   0  0  0  0  0  0  0  0  0  0  0  0
   39.5045   12.7610  -16.1633 C   0  0  0  0  0  0  0  0  0  0  0  0
   39.3300   12.0774  -17.3690 O   0  0  0  0  0  0  0  0  0  0  0  0
   38.0712   11.6613  -17.9374 C   0  0  0  0  0  0  0  0  0  0  0  0
   37.2772   10.8262  -16.9030 C   0  0  0  0  0  0  0  0  0  0  0  0
   36.7474    9.7371  -17.4376 F   0  0  0  0  0  0  0  0  0  0  0  0
   36.5212   11.7313  -16.0650 C   0  0  0  0  0  0  0  0  0  0  0  0
   35.1291   11.8311  -15.8130 C   0  0  0  0  0  0  0  0  0  0  0  0
   34.9379   12.8703  -14.9551 C   0  0  0  0  0  0  0  0  0  0  0  0
   36.1906   13.3828  -14.6932 N   0  0  0  0  0  0  0  0  0  0  0  0
   37.0954   12.7194  -15.3384 N   0  0  0  0  0  0  0  0  0  0  0  0
   38.5194   13.0510  -15.2526 C   0  0  0  0  0  0  0  0  0  0  0  0
   38.7633   13.7325  -14.0785 C   0  0  0  0  0  0  0  0  0  0  0  0
   33.7428   13.4855  -14.4024 C   0  0  0  0  0  0  0  0  0  0  0  0
   33.2272   13.3695  -13.1145 N   0  0  0  0  0  0  0  0  0  0  0  0
   33.0421   14.2416  -15.1959 O   0  0  0  0  0  0  0  0  0  0  0  0
   33.1480   14.1871  -12.4565 H   0  0  0  0  0  0  0  0  0  0  0  0
   32.8744   12.4555  -12.7250 H   0  0  0  0  0  0  0  0  0  0  0  0
   34.2048   10.8799  -16.4177 C   0  0  0  0  0  0  0  0  0  0  0  0
   34.0681   10.9951  -17.7942 F   0  0  0  0  0  0  0  0  0  0  0  0
   34.5639    9.5424  -16.0657 F   0  0  0  0  0  0  0  0  0  0  0  0
   32.9374   10.9465  -15.9369 F   0  0  0  0  0  0  0  0  0  0  0  0
   40.5950   15.4469  -11.5406 C   0  0  0  0  0  0  0  0  0  0  0  0
   40.3440   14.8660  -12.5692 C   0  0  0  0  0  0  0  0  0  0  0  0
   42.0490   14.2954   -7.2204 C   0  0  0  0  0  0  0  0  0  0  0  0
   41.8487   14.9223   -8.5304 N   0  0  0  0  0  0  0  0  0  0  0  0
   42.9740   15.3527   -9.3414 C   0  0  0  0  0  0  0  0  0  0  0  0
   42.3741   16.4567  -10.1633 C   0  0  0  0  0  0  0  0  0  0  0  0
   40.8871   16.1432  -10.2667 C   0  0  0  0  0  0  0  0  0  0  0  0
   40.1849   17.3230  -10.1935 O   0  0  0  0  0  0  0  0  0  0  0  0
   40.6218   15.1976   -9.1856 C   0  0  0  0  0  0  0  0  0  0  0  0
   39.5213   14.6976   -8.8647 O   0  0  0  0  0  0  0  0  0  0  0  0
   40.6570   17.9802  -10.7804 H   0  0  0  0  0  0  0  0  0  0  0  0
 27 28  1  0  0  0
 28 29  1  0  0  0
 29 30  1  0  0  0
 30 31  1  0  0  0
 31 32  1  0  0  0
 31 25  1  0  0  0
 25 26  3  0  0  0
 26  1  1  0  0  0
  1  2  2  0  0  0
  2  3  1  0  0  0
  3  4  2  0  0  0
  4  5  1  0  0  0
  5  6  1  0  0  0
  6  7  1  0  0  0
  7  8  1  0  0  0
  7  9  1  0  0  0
  9 10  2  0  0  0
 10 11  1  0  0  0
 11 12  2  0  0  0
 12 13  1  0  0  0
 13 14  1  0  0  0
 14 15  2  0  0  0
 11 16  1  0  0  0
 16 17  1  0  0  0
 16 18  2  0  0  0
 10 21  1  0  0  0
 21 22  1  0  0  0
 21 23  1  0  0  0
 21 24  1  0  0  0
 31 33  1  0  0  0
 33 34  2  0  0  0
 33 28  1  0  0  0
 15  1  1  0  0  0
 14  4  1  0  0  0
 13  9  1  0  0  0
 32 35  1  0  0  0
 17 19  1  0  0  0
 17 20  1  0  0  0
M  END
> <minimizedAffinity>
-6.74652

> <CNNscore>
0.2856230438

> <CNNaffinity>
6.8013663292

> <CNN_VS>
1.9426269531

> <CNNaffinity_variance>
0.3984091580

$$$$
[H]O[C@]1(C#Cc2c([H])c([H])c3c(c2[H])-n2nc(C(=O)N([H])[H])c(C(F)(F)F)c2[C@@]([H])(F)C([H])([H])O3)C(=O)N(C([H])([H])[H])C([H])([H])C1([H])[H]


 35 38  0  0  0  0  0  0  0  0999 V2000
   36.7478   14.6662  -12.5881 C   0  0  0  0  0  0  0  0  0  0  0  0
   35.5171   14.0281  -12.6763 C   0  0  0  0  0  0  0  0  0  0  0  0
   35.2455   13.0107  -13.5732 C   0  0  0  0  0  0  0  0  0  0  0  0
   36.2391   12.6033  -14.4253 C   0  0  0  0  0  0  0  0  0  0  0  0
   35.8966   11.5721  -15.3032 O   0  0  0  0  0  0  0  0  0  0  0  0
   36.7923   10.8869  -16.2027 C   0  0  0  0  0  0  0  0  0  0  0  0
   37.5368   11.9157  -17.0889 C   0  0  0  0  0  0  0  0  0  0  0  0
   37.5701   11.5510  -18.3611 F   0  0  0  0  0  0  0  0  0  0  0  0
   38.7107   12.3711  -16.3765 C   0  0  0  0  0  0  0  0  0  0  0  0
   40.0869   12.3289  -16.7168 C   0  0  0  0  0  0  0  0  0  0  0  0
   40.7846   12.8789  -15.6856 C   0  0  0  0  0  0  0  0  0  0  0  0
   39.8462   13.2482  -14.7456 N   0  0  0  0  0  0  0  0  0  0  0  0
   38.6546   12.9504  -15.1537 N   0  0  0  0  0  0  0  0  0  0  0  0
   37.4610   13.2242  -14.3506 C   0  0  0  0  0  0  0  0  0  0  0  0
   37.7310   14.2387  -13.4559 C   0  0  0  0  0  0  0  0  0  0  0  0
   42.2064   13.0448  -15.4347 C   0  0  0  0  0  0  0  0  0  0  0  0
   43.2490   13.0789  -16.3567 N   0  0  0  0  0  0  0  0  0  0  0  0
   42.5805   13.1726  -14.1953 O   0  0  0  0  0  0  0  0  0  0  0  0
   43.8519   13.9289  -16.5040 H   0  0  0  0  0  0  0  0  0  0  0  0
   43.5039   12.2495  -16.9556 H   0  0  0  0  0  0  0  0  0  0  0  0
   40.5072   11.7924  -18.0053 C   0  0  0  0  0  0  0  0  0  0  0  0
   40.0191   10.5258  -18.2961 F   0  0  0  0  0  0  0  0  0  0  0  0
   40.1788   12.7031  -19.0562 F   0  0  0  0  0  0  0  0  0  0  0  0
   41.8517   11.6890  -18.1581 F   0  0  0  0  0  0  0  0  0  0  0  0
   37.2034   16.5980  -10.8354 C   0  0  0  0  0  0  0  0  0  0  0  0
   36.9856   15.7218  -11.6376 C   0  0  0  0  0  0  0  0  0  0  0  0
   37.1242   17.0458   -6.1560 C   0  0  0  0  0  0  0  0  0  0  0  0
   37.4754   17.0772   -7.5790 N   0  0  0  0  0  0  0  0  0  0  0  0
   38.8203   16.7684   -8.0316 C   0  0  0  0  0  0  0  0  0  0  0  0
   38.9094   17.5338   -9.3203 C   0  0  0  0  0  0  0  0  0  0  0  0
   37.4815   17.6551   -9.8364 C   0  0  0  0  0  0  0  0  0  0  0  0
   37.3237   18.8996  -10.3991 O   0  0  0  0  0  0  0  0  0  0  0  0
   36.6341   17.3888   -8.6769 C   0  0  0  0  0  0  0  0  0  0  0  0
   35.3850   17.4204   -8.6238 O   0  0  0  0  0  0  0  0  0  0  0  0
   38.1340   19.0714  -10.9587 H   0  0  0  0  0  0  0  0  0  0  0  0
 27 28  1  0  0  0
 28 29  1  0  0  0
 29 30  1  0  0  0
 30 31  1  0  0  0
 31 32  1  0  0  0
 31 25  1  0  0  0
 25 26  3  0  0  0
 26  1  1  0  0  0
  1  2  2  0  0  0
  2  3  1  0  0  0
  3  4  2  0  0  0
  4  5  1  0  0  0
  5  6  1  0  0  0
  6  7  1  0  0  0
  7  8  1  0  0  0
  7  9  1  0  0  0
  9 10  2  0  0  0
 10 11  1  0  0  0
 11 12  2  0  0  0
 12 13  1  0  0  0
 13 14  1  0  0  0
 14 15  2  0  0  0
 11 16  1  0  0  0
 16 17  1  0  0  0
 16 18  2  0  0  0
 10 21  1  0  0  0
 21 22  1  0  0  0
 21 23  1  0  0  0
 21 24  1  0  0  0
 31 33  1  0  0  0
 33 34  2  0  0  0
 33 28  1  0  0  0
 15  1  1  0  0  0
 14  4  1  0  0  0
 13  9  1  0  0  0
 32 35  1  0  0  0
 17 19  1  0  0  0
 17 20  1  0  0  0
M  END
> <minimizedAffinity>
-8.93230

> <CNNscore>
0.2708019018

> <CNNaffinity>
6.5781936646

> <CNN_VS>
1.7813873291

> <CNNaffinity_variance>
0.2378686219

$$$$
[H]OC(C#Cc1c([H])c2c(c([H])c1F)OC([H])([H])C([H])([H])n1c-2nc(C(=O)N([H])[H])c1C([H])([H])[H])(C([H])([H])[H])C([H])([H])[H]


 28 30  0  0  0  0  0  0  0  0999 V2000
   40.2531   10.8495  -18.5244 C   0  0  0  0  0  0  0  0  0  0  0  0
   39.5758   11.5176  -17.4067 C   0  0  0  0  0  0  0  0  0  0  0  0
   40.1229   12.4026  -16.4666 C   0  0  0  0  0  0  0  0  0  0  0  0
   39.1420   12.7739  -15.6217 N   0  0  0  0  0  0  0  0  0  0  0  0
   37.9965   12.1676  -15.9786 C   0  0  0  0  0  0  0  0  0  0  0  0
   36.7369   12.3627  -15.2581 C   0  0  0  0  0  0  0  0  0  0  0  0
   36.8999   12.9473  -14.0208 C   0  0  0  0  0  0  0  0  0  0  0  0
   35.7624   13.1684  -13.2720 C   0  0  0  0  0  0  0  0  0  0  0  0
   34.4911   12.8181  -13.7382 C   0  0  0  0  0  0  0  0  0  0  0  0
   33.3780   13.0395  -12.9945 F   0  0  0  0  0  0  0  0  0  0  0  0
   34.3443   12.2301  -14.9867 C   0  0  0  0  0  0  0  0  0  0  0  0
   35.4872   12.0131  -15.7277 C   0  0  0  0  0  0  0  0  0  0  0  0
   35.1651   11.4137  -16.9601 O   0  0  0  0  0  0  0  0  0  0  0  0
   36.0493   11.3912  -18.0879 C   0  0  0  0  0  0  0  0  0  0  0  0
   37.2880   10.5989  -17.7369 C   0  0  0  0  0  0  0  0  0  0  0  0
   38.2862   11.4035  -17.0736 N   0  0  0  0  0  0  0  0  0  0  0  0
   41.5145   12.8335  -16.4224 C   0  0  0  0  0  0  0  0  0  0  0  0
   42.5635   12.1866  -17.1238 N   0  0  0  0  0  0  0  0  0  0  0  0
   41.8274   13.8349  -15.7284 O   0  0  0  0  0  0  0  0  0  0  0  0
   43.0830   11.4152  -16.6243 H   0  0  0  0  0  0  0  0  0  0  0  0
   42.8407   12.4382  -18.1032 H   0  0  0  0  0  0  0  0  0  0  0  0
   35.9157   13.7768  -11.9806 C   0  0  0  0  0  0  0  0  0  0  0  0
   36.0620   14.3027  -10.8948 C   0  0  0  0  0  0  0  0  0  0  0  0
   36.2196   14.9526   -9.5905 C   0  0  0  0  0  0  0  0  0  0  0  0
   37.7196   15.1232   -9.3860 C   0  0  0  0  0  0  0  0  0  0  0  0
   35.6243   16.3558   -9.6043 C   0  0  0  0  0  0  0  0  0  0  0  0
   35.6510   14.1799   -8.5720 O   0  0  0  0  0  0  0  0  0  0  0  0
   35.4107   13.3005   -8.9726 H   0  0  0  0  0  0  0  0  0  0  0  0
  1  2  1  0  0  0
  2  3  2  0  0  0
  3  4  1  0  0  0
  4  5  2  0  0  0
  5  6  1  0  0  0
  6  7  2  0  0  0
  7  8  1  0  0  0
  8 22  1  0  0  0
 22 23  3  0  0  0
 23 24  1  0  0  0
 24 25  1  0  0  0
 24 26  1  0  0  0
 24 27  1  0  0  0
  8  9  2  0  0  0
  9 10  1  0  0  0
  9 11  1  0  0  0
 11 12  2  0  0  0
 12 13  1  0  0  0
 13 14  1  0  0  0
 14 15  1  0  0  0
 15 16  1  0  0  0
  3 17  1  0  0  0
 17 18  1  0  0  0
 17 19  2  0  0  0
 16  2  1  0  0  0
 16  5  1  0  0  0
 12  6  1  0  0  0
 27 28  1  0  0  0
 18 20  1  0  0  0
 18 21  1  0  0  0
M  END
> <minimizedAffinity>
-8.65067

> <CNNscore>
0.7066446543

> <CNNaffinity>
6.9552793503

> <CNN_VS>
4.9149107933

> <CNNaffinity_variance>
0.1747495979

$$$$
[H]OC(C#Cc1c([H])c2c(c([H])c1F)OC([H])([H])C([H])([H])n1c-2nc(C(=O)N([H])[H])c1C([H])([H])[H])(C([H])([H])[H])C([H])([H])[H]


 28 30  0  0  0  0  0  0  0  0999 V2000
   33.6621   14.3854  -12.7606 C   0  0  0  0  0  0  0  0  0  0  0  0
   35.0115   14.0093  -13.1989 C   0  0  0  0  0  0  0  0  0  0  0  0
   36.2330   14.2676  -12.5607 C   0  0  0  0  0  0  0  0  0  0  0  0
   37.2178   13.7409  -13.3135 N   0  0  0  0  0  0  0  0  0  0  0  0
   36.6818   13.1596  -14.4008 C   0  0  0  0  0  0  0  0  0  0  0  0
   37.4891   12.4923  -15.4237 C   0  0  0  0  0  0  0  0  0  0  0  0
   38.8318   12.7921  -15.3419 C   0  0  0  0  0  0  0  0  0  0  0  0
   39.6676   12.2051  -16.2696 C   0  0  0  0  0  0  0  0  0  0  0  0
   39.1844   11.3401  -17.2568 C   0  0  0  0  0  0  0  0  0  0  0  0
   40.0142   10.7676  -18.1649 F   0  0  0  0  0  0  0  0  0  0  0  0
   37.8292   11.0486  -17.3253 C   0  0  0  0  0  0  0  0  0  0  0  0
   37.0019   11.6402  -16.3937 C   0  0  0  0  0  0  0  0  0  0  0  0
   35.6676   11.2422  -16.6015 O   0  0  0  0  0  0  0  0  0  0  0  0
   34.6359   11.3759  -15.6155 C   0  0  0  0  0  0  0  0  0  0  0  0
   34.4191   12.8411  -15.3135 C   0  0  0  0  0  0  0  0  0  0  0  0
   35.3301   13.3366  -14.3093 N   0  0  0  0  0  0  0  0  0  0  0  0
   36.3933   14.9861  -11.3027 C   0  0  0  0  0  0  0  0  0  0  0  0
   36.7461   16.3568  -11.2164 N   0  0  0  0  0  0  0  0  0  0  0  0
   36.2134   14.3757  -10.2177 O   0  0  0  0  0  0  0  0  0  0  0  0
   37.7728   16.5947  -11.1550 H   0  0  0  0  0  0  0  0  0  0  0  0
   36.0408   17.1326  -11.2111 H   0  0  0  0  0  0  0  0  0  0  0  0
   41.0693   12.5076  -16.1975 C   0  0  0  0  0  0  0  0  0  0  0  0
   42.2572   12.7518  -16.1191 C   0  0  0  0  0  0  0  0  0  0  0  0
   43.6943   13.0293  -16.0424 C   0  0  0  0  0  0  0  0  0  0  0  0
   44.0087   13.2051  -14.5621 C   0  0  0  0  0  0  0  0  0  0  0  0
   44.5079   11.8305  -16.5162 C   0  0  0  0  0  0  0  0  0  0  0  0
   44.0246   14.1759  -16.7732 O   0  0  0  0  0  0  0  0  0  0  0  0
   43.1682   14.6066  -17.0426 H   0  0  0  0  0  0  0  0  0  0  0  0
  1  2  1  0  0  0
  2  3  2  0  0  0
  3  4  1  0  0  0
  4  5  2  0  0  0
  5  6  1  0  0  0
  6  7  2  0  0  0
  7  8  1  0  0  0
  8 22  1  0  0  0
 22 23  3  0  0  0
 23 24  1  0  0  0
 24 25  1  0  0  0
 24 26  1  0  0  0
 24 27  1  0  0  0
  8  9  2  0  0  0
  9 10  1  0  0  0
  9 11  1  0  0  0
 11 12  2  0  0  0
 12 13  1  0  0  0
 13 14  1  0  0  0
 14 15  1  0  0  0
 15 16  1  0  0  0
  3 17  1  0  0  0
 17 18  1  0  0  0
 17 19  2  0  0  0
 16  2  1  0  0  0
 16  5  1  0  0  0
 12  6  1  0  0  0
 27 28  1  0  0  0
 18 20  1  0  0  0
 18 21  1  0  0  0
M  END
> <minimizedAffinity>
-9.62079

> <CNNscore>
0.5700134039

> <CNNaffinity>
6.6972799301

> <CNN_VS>
3.8175392151

> <CNNaffinity_variance>
0.0915937871

$$$$
[H]OC(C#Cc1c([H])c2c(c([H])c1F)OC([H])([H])C([H])([H])n1c-2nc(C(=O)N([H])[H])c1C([H])([H])[H])(C([H])([H])[H])C([H])([H])[H]


 28 30  0  0  0  0  0  0  0  0999 V2000
   43.5585   14.9099  -12.8989 C   0  0  0  0  0  0  0  0  0  0  0  0
   42.2678   14.5183  -13.4779 C   0  0  0  0  0  0  0  0  0  0  0  0
   40.9883   14.9738  -13.1295 C   0  0  0  0  0  0  0  0  0  0  0  0
   40.0930   14.3497  -13.9187 N   0  0  0  0  0  0  0  0  0  0  0  0
   40.7412   13.5184  -14.7529 C   0  0  0  0  0  0  0  0  0  0  0  0
   40.0509   12.6894  -15.7428 C   0  0  0  0  0  0  0  0  0  0  0  0
   38.6934   12.5945  -15.5250 C   0  0  0  0  0  0  0  0  0  0  0  0
   37.9633   11.8309  -16.4123 C   0  0  0  0  0  0  0  0  0  0  0  0
   38.5643   11.1754  -17.4918 C   0  0  0  0  0  0  0  0  0  0  0  0
   37.8379   10.4265  -18.3594 F   0  0  0  0  0  0  0  0  0  0  0  0
   39.9328   11.2813  -17.6970 C   0  0  0  0  0  0  0  0  0  0  0  0
   40.6540   12.0467  -16.8047 C   0  0  0  0  0  0  0  0  0  0  0  0
   42.0179   12.0500  -17.1534 O   0  0  0  0  0  0  0  0  0  0  0  0
   42.9598   13.0154  -16.6682 C   0  0  0  0  0  0  0  0  0  0  0  0
   43.0823   12.8843  -15.1672 C   0  0  0  0  0  0  0  0  0  0  0  0
   42.0714   13.6382  -14.4648 N   0  0  0  0  0  0  0  0  0  0  0  0
   40.6940   15.9509  -12.0888 C   0  0  0  0  0  0  0  0  0  0  0  0
   40.6498   15.6415  -10.7057 N   0  0  0  0  0  0  0  0  0  0  0  0
   40.4623   17.1442  -12.4123 O   0  0  0  0  0  0  0  0  0  0  0  0
   39.7200   15.3506  -10.2989 H   0  0  0  0  0  0  0  0  0  0  0  0
   41.4892   15.6886  -10.0791 H   0  0  0  0  0  0  0  0  0  0  0  0
   36.5476   11.7222  -16.1988 C   0  0  0  0  0  0  0  0  0  0  0  0
   35.3521   11.6106  -16.0110 C   0  0  0  0  0  0  0  0  0  0  0  0
   33.9126   11.4892  -15.7634 C   0  0  0  0  0  0  0  0  0  0  0  0
   33.3167   10.9003  -17.0359 C   0  0  0  0  0  0  0  0  0  0  0  0
   33.6327   10.4845  -14.6517 C   0  0  0  0  0  0  0  0  0  0  0  0
   33.3473   12.7337  -15.4644 O   0  0  0  0  0  0  0  0  0  0  0  0
   34.0447   13.4214  -15.6437 H   0  0  0  0  0  0  0  0  0  0  0  0
  1  2  1  0  0  0
  2  3  2  0  0  0
  3  4  1  0  0  0
  4  5  2  0  0  0
  5  6  1  0  0  0
  6  7  2  0  0  0
  7  8  1  0  0  0
  8 22  1  0  0  0
 22 23  3  0  0  0
 23 24  1  0  0  0
 24 25  1  0  0  0
 24 26  1  0  0  0
 24 27  1  0  0  0
  8  9  2  0  0  0
  9 10  1  0  0  0
  9 11  1  0  0  0
 11 12  2  0  0  0
 12 13  1  0  0  0
 13 14  1  0  0  0
 14 15  1  0  0  0
 15 16  1  0  0  0
  3 17  1  0  0  0
 17 18  1  0  0  0
 17 19  2  0  0  0
 16  2  1  0  0  0
 16  5  1  0  0  0
 12  6  1  0  0  0
 27 28  1  0  0  0
 18 20  1  0  0  0
 18 21  1  0  0  0
M  END
> <minimizedAffinity>
-8.20201

> <CNNscore>
0.5018281937

> <CNNaffinity>
6.5759191513

> <CNN_VS>
3.2999815941

> <CNNaffinity_variance>
0.1947850287

$$$$
[H]OC(C#Cc1c([H])c2c(c([H])c1F)OC([H])([H])C([H])([H])n1c-2nc(C(=O)N([H])[H])c1C([H])([H])[H])(C([H])([H])[H])C([H])([H])[H]


 28 30  0  0  0  0  0  0  0  0999 V2000
   34.3927   15.4704  -11.6802 C   0  0  0  0  0  0  0  0  0  0  0  0
   35.6375   14.9424  -12.2512 C   0  0  0  0  0  0  0  0  0  0  0  0
   36.9446   15.0912  -11.7659 C   0  0  0  0  0  0  0  0  0  0  0  0
   37.7774   14.4420  -12.6018 N   0  0  0  0  0  0  0  0  0  0  0  0
   37.0633   13.8870  -13.5964 C   0  0  0  0  0  0  0  0  0  0  0  0
   37.6753   13.1083  -14.6746 C   0  0  0  0  0  0  0  0  0  0  0  0
   39.0416   13.2688  -14.7571 C   0  0  0  0  0  0  0  0  0  0  0  0
   39.7009   12.5699  -15.7473 C   0  0  0  0  0  0  0  0  0  0  0  0
   39.0221   11.7304  -16.6365 C   0  0  0  0  0  0  0  0  0  0  0  0
   39.6792   11.0470  -17.6073 F   0  0  0  0  0  0  0  0  0  0  0  0
   37.6458   11.5798  -16.5398 C   0  0  0  0  0  0  0  0  0  0  0  0
   36.9958   12.2825  -15.5469 C   0  0  0  0  0  0  0  0  0  0  0  0
   35.6133   12.0198  -15.5862 O   0  0  0  0  0  0  0  0  0  0  0  0
   34.7218   12.2902  -14.4970 C   0  0  0  0  0  0  0  0  0  0  0  0
   34.6894   13.7786  -14.2346 C   0  0  0  0  0  0  0  0  0  0  0  0
   35.7559   14.2067  -13.3611 N   0  0  0  0  0  0  0  0  0  0  0  0
   37.3211   15.8270  -10.5654 C   0  0  0  0  0  0  0  0  0  0  0  0
   37.5407   17.2275  -10.5347 N   0  0  0  0  0  0  0  0  0  0  0  0
   37.4657   15.2048   -9.4818 O   0  0  0  0  0  0  0  0  0  0  0  0
   38.5227   17.5727  -10.7105 H   0  0  0  0  0  0  0  0  0  0  0  0
   36.7800   17.9246  -10.3477 H   0  0  0  0  0  0  0  0  0  0  0  0
   41.1247   12.7266  -15.8462 C   0  0  0  0  0  0  0  0  0  0  0  0
   42.3300   12.8459  -15.9462 C   0  0  0  0  0  0  0  0  0  0  0  0
   43.7803   13.0116  -16.0785 C   0  0  0  0  0  0  0  0  0  0  0  0
   44.3223   13.1076  -14.6579 C   0  0  0  0  0  0  0  0  0  0  0  0
   44.4168   11.7737  -16.6997 C   0  0  0  0  0  0  0  0  0  0  0  0
   44.0896   14.1568  -16.8206 O   0  0  0  0  0  0  0  0  0  0  0  0
   43.2401   14.6604  -16.9474 H   0  0  0  0  0  0  0  0  0  0  0  0
  1  2  1  0  0  0
  2  3  2  0  0  0
  3  4  1  0  0  0
  4  5  2  0  0  0
  5  6  1  0  0  0
  6  7  2  0  0  0
  7  8  1  0  0  0
  8 22  1  0  0  0
 22 23  3  0  0  0
 23 24  1  0  0  0
 24 25  1  0  0  0
 24 26  1  0  0  0
 24 27  1  0  0  0
  8  9  2  0  0  0
  9 10  1  0  0  0
  9 11  1  0  0  0
 11 12  2  0  0  0
 12 13  1  0  0  0
 13 14  1  0  0  0
 14 15  1  0  0  0
 15 16  1  0  0  0
  3 17  1  0  0  0
 17 18  1  0  0  0
 17 19  2  0  0  0
 16  2  1  0  0  0
 16  5  1  0  0  0
 12  6  1  0  0  0
 27 28  1  0  0  0
 18 20  1  0  0  0
 18 21  1  0  0  0
M  END
> <minimizedAffinity>
-9.43407

> <CNNscore>
0.4459294975

> <CNNaffinity>
6.2391128540

> <CNN_VS>
2.7822043896

> <CNNaffinity_variance>
0.1011686102

$$$$
[H]OC(C#Cc1c([H])c2c(c([H])c1F)OC([H])([H])C([H])([H])n1c-2nc(C(=O)N([H])[H])c1C([H])([H])[H])(C([H])([H])[H])C([H])([H])[H]


 28 30  0  0  0  0  0  0  0  0999 V2000
   33.8598   13.3253  -14.4848 C   0  0  0  0  0  0  0  0  0  0  0  0
   35.3233   13.2230  -14.5331 C   0  0  0  0  0  0  0  0  0  0  0  0
   36.2521   13.6229  -13.5617 C   0  0  0  0  0  0  0  0  0  0  0  0
   37.4860   13.3405  -14.0217 N   0  0  0  0  0  0  0  0  0  0  0  0
   37.3875   12.7800  -15.2396 C   0  0  0  0  0  0  0  0  0  0  0  0
   38.5544   12.3546  -16.0147 C   0  0  0  0  0  0  0  0  0  0  0  0
   39.7423   12.8668  -15.5397 C   0  0  0  0  0  0  0  0  0  0  0  0
   40.8950   12.5163  -16.2121 C   0  0  0  0  0  0  0  0  0  0  0  0
   40.8718   11.6769  -17.3307 C   0  0  0  0  0  0  0  0  0  0  0  0
   42.0108   11.3378  -17.9856 F   0  0  0  0  0  0  0  0  0  0  0  0
   39.6669   11.1695  -17.7963 C   0  0  0  0  0  0  0  0  0  0  0  0
   38.5202   11.5256  -17.1175 C   0  0  0  0  0  0  0  0  0  0  0  0
   37.3931   10.9300  -17.7147 O   0  0  0  0  0  0  0  0  0  0  0  0
   36.1244   10.7974  -17.0610 C   0  0  0  0  0  0  0  0  0  0  0  0
   35.5630   12.1714  -16.7744 C   0  0  0  0  0  0  0  0  0  0  0  0
   36.0542   12.7183  -15.5321 N   0  0  0  0  0  0  0  0  0  0  0  0
   35.9238   14.2394  -12.2825 C   0  0  0  0  0  0  0  0  0  0  0  0
   35.4506   15.5691  -12.1457 N   0  0  0  0  0  0  0  0  0  0  0  0
   36.0603   13.5727  -11.2245 O   0  0  0  0  0  0  0  0  0  0  0  0
   36.1674   16.3316  -12.0065 H   0  0  0  0  0  0  0  0  0  0  0  0
   34.4338   15.8234  -12.1766 H   0  0  0  0  0  0  0  0  0  0  0  0
   42.1409   13.0419  -15.7293 C   0  0  0  0  0  0  0  0  0  0  0  0
   43.1858   13.4924  -15.3028 C   0  0  0  0  0  0  0  0  0  0  0  0
   44.4536   14.0126  -14.7827 C   0  0  0  0  0  0  0  0  0  0  0  0
   44.1461   14.5514  -13.3912 C   0  0  0  0  0  0  0  0  0  0  0  0
   45.4683   12.8906  -14.5956 C   0  0  0  0  0  0  0  0  0  0  0  0
   44.9655   15.0138  -15.6153 O   0  0  0  0  0  0  0  0  0  0  0  0
   44.2572   15.2296  -16.2812 H   0  0  0  0  0  0  0  0  0  0  0  0
  1  2  1  0  0  0
  2  3  2  0  0  0
  3  4  1  0  0  0
  4  5  2  0  0  0
  5  6  1  0  0  0
  6  7  2  0  0  0
  7  8  1  0  0  0
  8 22  1  0  0  0
 22 23  3  0  0  0
 23 24  1  0  0  0
 24 25  1  0  0  0
 24 26  1  0  0  0
 24 27  1  0  0  0
  8  9  2  0  0  0
  9 10  1  0  0  0
  9 11  1  0  0  0
 11 12  2  0  0  0
 12 13  1  0  0  0
 13 14  1  0  0  0
 14 15  1  0  0  0
 15 16  1  0  0  0
  3 17  1  0  0  0
 17 18  1  0  0  0
 17 19  2  0  0  0
 16  2  1  0  0  0
 16  5  1  0  0  0
 12  6  1  0  0  0
 27 28  1  0  0  0
 18 20  1  0  0  0
 18 21  1  0  0  0
M  END
> <minimizedAffinity>
-8.92281

> <CNNscore>
0.3812445700

> <CNNaffinity>
6.4130926132

> <CNN_VS>
2.4449567795

> <CNNaffinity_variance>
0.0808906779

$$$$
[H]OC(C#Cc1c([H])c2c(c([H])c1F)OC([H])([H])C([H])([H])n1c-2nc(C(=O)N([H])[H])c1C([H])([H])[H])(C([H])([H])[H])C([H])([H])[H]


 28 30  0  0  0  0  0  0  0  0999 V2000
   35.1931   16.9271   -8.0181 C   0  0  0  0  0  0  0  0  0  0  0  0
   36.5686   16.4247   -8.1185 C   0  0  0  0  0  0  0  0  0  0  0  0
   37.5452   16.7576   -9.0680 C   0  0  0  0  0  0  0  0  0  0  0  0
   38.6621   16.0621   -8.7805 N   0  0  0  0  0  0  0  0  0  0  0  0
   38.4435   15.3021   -7.6934 C   0  0  0  0  0  0  0  0  0  0  0  0
   39.4648   14.4234   -7.1204 C   0  0  0  0  0  0  0  0  0  0  0  0
   40.5317   14.2024   -7.9644 C   0  0  0  0  0  0  0  0  0  0  0  0
   41.5424   13.3840   -7.5037 C   0  0  0  0  0  0  0  0  0  0  0  0
   41.4978   12.7972   -6.2349 C   0  0  0  0  0  0  0  0  0  0  0  0
   42.4967   11.9937   -5.7904 F   0  0  0  0  0  0  0  0  0  0  0  0
   40.4160   13.0301   -5.3971 C   0  0  0  0  0  0  0  0  0  0  0  0
   39.4107   13.8494   -5.8667 C   0  0  0  0  0  0  0  0  0  0  0  0
   38.3954   13.9810   -4.9004 O   0  0  0  0  0  0  0  0  0  0  0  0
   37.4120   15.0237   -4.9182 C   0  0  0  0  0  0  0  0  0  0  0  0
   36.5627   14.8893   -6.1616 C   0  0  0  0  0  0  0  0  0  0  0  0
   37.1553   15.5403   -7.3056 N   0  0  0  0  0  0  0  0  0  0  0  0
   37.3663   17.6932  -10.1712 C   0  0  0  0  0  0  0  0  0  0  0  0
   36.5554   17.4309  -11.3045 N   0  0  0  0  0  0  0  0  0  0  0  0
   37.9556   18.8040  -10.1383 O   0  0  0  0  0  0  0  0  0  0  0  0
   37.0139   16.9754  -12.1393 H   0  0  0  0  0  0  0  0  0  0  0  0
   35.5347   17.6667  -11.3478 H   0  0  0  0  0  0  0  0  0  0  0  0
   42.6610   13.1440   -8.3714 C   0  0  0  0  0  0  0  0  0  0  0  0
   43.6139   12.9608   -9.1030 C   0  0  0  0  0  0  0  0  0  0  0  0
   44.7751   12.7283   -9.9665 C   0  0  0  0  0  0  0  0  0  0  0  0
   44.3069   13.0216  -11.3863 C   0  0  0  0  0  0  0  0  0  0  0  0
   45.8879   13.7256   -9.6653 C   0  0  0  0  0  0  0  0  0  0  0  0
   45.2376   11.4134   -9.8437 O   0  0  0  0  0  0  0  0  0  0  0  0
   44.5626   10.9159   -9.3066 H   0  0  0  0  0  0  0  0  0  0  0  0
  1  2  1  0  0  0
  2  3  2  0  0  0
  3  4  1  0  0  0
  4  5  2  0  0  0
  5  6  1  0  0  0
  6  7  2  0  0  0
  7  8  1  0  0  0
  8 22  1  0  0  0
 22 23  3  0  0  0
 23 24  1  0  0  0
 24 25  1  0  0  0
 24 26  1  0  0  0
 24 27  1  0  0  0
  8  9  2  0  0  0
  9 10  1  0  0  0
  9 11  1  0  0  0
 11 12  2  0  0  0
 12 13  1  0  0  0
 13 14  1  0  0  0
 14 15  1  0  0  0
 15 16  1  0  0  0
  3 17  1  0  0  0
 17 18  1  0  0  0
 17 19  2  0  0  0
 16  2  1  0  0  0
 16  5  1  0  0  0
 12  6  1  0  0  0
 27 28  1  0  0  0
 18 20  1  0  0  0
 18 21  1  0  0  0
M  END
> <minimizedAffinity>
-5.65116

> <CNNscore>
0.3740075827

> <CNNaffinity>
4.9659943581

> <CNN_VS>
1.8573195934

> <CNNaffinity_variance>
0.3939488828

$$$$
[H]OC(C#Cc1c([H])c2c(c([H])c1F)OC([H])([H])C([H])([H])n1c-2nc(C(=O)N([H])[H])c1C([H])([H])[H])(C([H])([H])[H])C([H])([H])[H]


 28 30  0  0  0  0  0  0  0  0999 V2000
   38.0312   10.3185  -17.8107 C   0  0  0  0  0  0  0  0  0  0  0  0
   37.7944   11.3963  -16.8429 C   0  0  0  0  0  0  0  0  0  0  0  0
   38.6796   12.4045  -16.4354 C   0  0  0  0  0  0  0  0  0  0  0  0
   38.0454   13.1784  -15.5337 N   0  0  0  0  0  0  0  0  0  0  0  0
   36.7988   12.7111  -15.3474 C   0  0  0  0  0  0  0  0  0  0  0  0
   35.8472   13.3331  -14.4249 C   0  0  0  0  0  0  0  0  0  0  0  0
   36.4360   14.2161  -13.5457 C   0  0  0  0  0  0  0  0  0  0  0  0
   35.6110   14.8489  -12.6388 C   0  0  0  0  0  0  0  0  0  0  0  0
   34.2329   14.6125  -12.6032 C   0  0  0  0  0  0  0  0  0  0  0  0
   33.4294   15.2397  -11.7075 F   0  0  0  0  0  0  0  0  0  0  0  0
   33.6557   13.7202  -13.4957 C   0  0  0  0  0  0  0  0  0  0  0  0
   34.4886   13.0926  -14.3983 C   0  0  0  0  0  0  0  0  0  0  0  0
   33.7495   12.2259  -15.2256 O   0  0  0  0  0  0  0  0  0  0  0  0
   34.2336   11.7137  -16.4737 C   0  0  0  0  0  0  0  0  0  0  0  0
   35.4484   10.8497  -16.2227 C   0  0  0  0  0  0  0  0  0  0  0  0
   36.6676   11.6198  -16.1590 N   0  0  0  0  0  0  0  0  0  0  0  0
   40.0470   12.5709  -16.9115 C   0  0  0  0  0  0  0  0  0  0  0  0
   40.3851   12.8399  -18.2620 N   0  0  0  0  0  0  0  0  0  0  0  0
   40.9993   12.4743  -16.0952 O   0  0  0  0  0  0  0  0  0  0  0  0
   40.5671   12.0145  -18.8946 H   0  0  0  0  0  0  0  0  0  0  0  0
   40.4607   13.8098  -18.6533 H   0  0  0  0  0  0  0  0  0  0  0  0
   36.2094   15.7719  -11.7160 C   0  0  0  0  0  0  0  0  0  0  0  0
   36.7328   16.5405  -10.9335 C   0  0  0  0  0  0  0  0  0  0  0  0
   37.3706   17.4823  -10.0091 C   0  0  0  0  0  0  0  0  0  0  0  0
   36.4911   17.5090   -8.7653 C   0  0  0  0  0  0  0  0  0  0  0  0
   38.7342   16.9689   -9.5614 C   0  0  0  0  0  0  0  0  0  0  0  0
   37.4804   18.7536  -10.5830 O   0  0  0  0  0  0  0  0  0  0  0  0
   36.9563   18.7376  -11.4295 H   0  0  0  0  0  0  0  0  0  0  0  0
  1  2  1  0  0  0
  2  3  2  0  0  0
  3  4  1  0  0  0
  4  5  2  0  0  0
  5  6  1  0  0  0
  6  7  2  0  0  0
  7  8  1  0  0  0
  8 22  1  0  0  0
 22 23  3  0  0  0
 23 24  1  0  0  0
 24 25  1  0  0  0
 24 26  1  0  0  0
 24 27  1  0  0  0
  8  9  2  0  0  0
  9 10  1  0  0  0
  9 11  1  0  0  0
 11 12  2  0  0  0
 12 13  1  0  0  0
 13 14  1  0  0  0
 14 15  1  0  0  0
 15 16  1  0  0  0
  3 17  1  0  0  0
 17 18  1  0  0  0
 17 19  2  0  0  0
 16  2  1  0  0  0
 16  5  1  0  0  0
 12  6  1  0  0  0
 27 28  1  0  0  0
 18 20  1  0  0  0
 18 21  1  0  0  0
M  END
> <minimizedAffinity>
-8.35997

> <CNNscore>
0.2781970501

> <CNNaffinity>
6.3895716667

> <CNN_VS>
1.7775599957

> <CNNaffinity_variance>
0.1533806175

$$$$
[H]OC(C#Cc1c([H])c2c(c([H])c1F)OC([H])([H])C([H])([H])n1c-2nc(C(=O)N([H])[H])c1C([H])([H])[H])(C([H])([H])[H])C([H])([H])[H]


 28 30  0  0  0  0  0  0  0  0999 V2000
   33.3786   14.6791  -12.3569 C   0  0  0  0  0  0  0  0  0  0  0  0
   34.8038   14.3988  -12.5683 C   0  0  0  0  0  0  0  0  0  0  0  0
   35.8670   14.5949  -11.6754 C   0  0  0  0  0  0  0  0  0  0  0  0
   37.0020   14.2004  -12.2836 N   0  0  0  0  0  0  0  0  0  0  0  0
   36.7126   13.7624  -13.5212 C   0  0  0  0  0  0  0  0  0  0  0  0
   37.7321   13.2618  -14.4450 C   0  0  0  0  0  0  0  0  0  0  0  0
   39.0180   13.5788  -14.0637 C   0  0  0  0  0  0  0  0  0  0  0  0
   40.0434   13.1452  -14.8788 C   0  0  0  0  0  0  0  0  0  0  0  0
   39.8007   12.4137  -16.0460 C   0  0  0  0  0  0  0  0  0  0  0  0
   40.8157   11.9916  -16.8414 F   0  0  0  0  0  0  0  0  0  0  0  0
   38.4996   12.1028  -16.4157 C   0  0  0  0  0  0  0  0  0  0  0  0
   37.4816   12.5406  -15.5945 C   0  0  0  0  0  0  0  0  0  0  0  0
   36.2327   12.1441  -16.1094 O   0  0  0  0  0  0  0  0  0  0  0  0
   35.0267   12.1162  -15.3353 C   0  0  0  0  0  0  0  0  0  0  0  0
   34.6839   13.5202  -14.8923 C   0  0  0  0  0  0  0  0  0  0  0  0
   35.3611   13.8934  -13.6734 N   0  0  0  0  0  0  0  0  0  0  0  0
   35.7488   15.1364  -10.3274 C   0  0  0  0  0  0  0  0  0  0  0  0
   35.4855   16.5009  -10.0454 N   0  0  0  0  0  0  0  0  0  0  0  0
   35.8845   14.3678   -9.3409 O   0  0  0  0  0  0  0  0  0  0  0  0
   36.3138   17.1443   -9.9250 H   0  0  0  0  0  0  0  0  0  0  0  0
   34.5171   16.8923   -9.9530 H   0  0  0  0  0  0  0  0  0  0  0  0
   41.3889   13.4675  -14.4951 C   0  0  0  0  0  0  0  0  0  0  0  0
   42.5207   13.7577  -14.1608 C   0  0  0  0  0  0  0  0  0  0  0  0
   43.8842   14.0908  -13.7390 C   0  0  0  0  0  0  0  0  0  0  0  0
   44.1754   13.2112  -12.5296 C   0  0  0  0  0  0  0  0  0  0  0  0
   44.8973   13.7010  -14.8091 C   0  0  0  0  0  0  0  0  0  0  0  0
   43.9940   15.4487  -13.4198 O   0  0  0  0  0  0  0  0  0  0  0  0
   43.0711   15.8227  -13.4154 H   0  0  0  0  0  0  0  0  0  0  0  0
  1  2  1  0  0  0
  2  3  2  0  0  0
  3  4  1  0  0  0
  4  5  2  0  0  0
  5  6  1  0  0  0
  6  7  2  0  0  0
  7  8  1  0  0  0
  8 22  1  0  0  0
 22 23  3  0  0  0
 23 24  1  0  0  0
 24 25  1  0  0  0
 24 26  1  0  0  0
 24 27  1  0  0  0
  8  9  2  0  0  0
  9 10  1  0  0  0
  9 11  1  0  0  0
 11 12  2  0  0  0
 12 13  1  0  0  0
 13 14  1  0  0  0
 14 15  1  0  0  0
 15 16  1  0  0  0
  3 17  1  0  0  0
 17 18  1  0  0  0
 17 19  2  0  0  0
 16  2  1  0  0  0
 16  5  1  0  0  0
 12  6  1  0  0  0
 27 28  1  0  0  0
 18 20  1  0  0  0
 18 21  1  0  0  0
M  END
> <minimizedAffinity>
-8.12132

> <CNNscore>
0.2504485548

> <CNNaffinity>
5.9106874466

> <CNN_VS>
1.4803230762

> <CNNaffinity_variance>
0.1725945175

$$$$
[H]OC(C#Cc1c([H])c2c(c([H])c1F)OC([H])([H])C([H])([H])n1c-2nc(C(=O)N([H])[H])c1C([H])([H])[H])(C([H])([H])[H])C([H])([H])[H]


 28 30  0  0  0  0  0  0  0  0999 V2000
   44.4514   12.0242  -17.0824 C   0  0  0  0  0  0  0  0  0  0  0  0
   43.2996   12.5185  -16.3185 C   0  0  0  0  0  0  0  0  0  0  0  0
   43.2982   13.3912  -15.2210 C   0  0  0  0  0  0  0  0  0  0  0  0
   42.0211   13.5748  -14.8345 N   0  0  0  0  0  0  0  0  0  0  0  0
   41.2092   12.8607  -15.6333 C   0  0  0  0  0  0  0  0  0  0  0  0
   39.7537   12.8449  -15.4762 C   0  0  0  0  0  0  0  0  0  0  0  0
   39.3291   13.3510  -14.2667 C   0  0  0  0  0  0  0  0  0  0  0  0
   37.9693   13.3738  -14.0341 C   0  0  0  0  0  0  0  0  0  0  0  0
   37.0500   12.9057  -14.9786 C   0  0  0  0  0  0  0  0  0  0  0  0
   35.7144   12.9323  -14.7408 F   0  0  0  0  0  0  0  0  0  0  0  0
   37.4943   12.3992  -16.1919 C   0  0  0  0  0  0  0  0  0  0  0  0
   38.8552   12.3805  -16.4150 C   0  0  0  0  0  0  0  0  0  0  0  0
   39.1357   11.8398  -17.6842 O   0  0  0  0  0  0  0  0  0  0  0  0
   40.3871   12.0106  -18.3618 C   0  0  0  0  0  0  0  0  0  0  0  0
   41.4853   11.3527  -17.5579 C   0  0  0  0  0  0  0  0  0  0  0  0
   42.0140   12.2221  -16.5340 N   0  0  0  0  0  0  0  0  0  0  0  0
   44.4820   13.9854  -14.6129 C   0  0  0  0  0  0  0  0  0  0  0  0
   45.2432   15.0197  -15.2143 N   0  0  0  0  0  0  0  0  0  0  0  0
   44.8703   13.5730  -13.4898 O   0  0  0  0  0  0  0  0  0  0  0  0
   46.0511   14.7366  -15.8320 H   0  0  0  0  0  0  0  0  0  0  0  0
   45.0403   16.0388  -15.0736 H   0  0  0  0  0  0  0  0  0  0  0  0
   37.5110   13.8982  -12.7784 C   0  0  0  0  0  0  0  0  0  0  0  0
   37.1385   14.3564  -11.7163 C   0  0  0  0  0  0  0  0  0  0  0  0
   36.6709   14.9211  -10.4472 C   0  0  0  0  0  0  0  0  0  0  0  0
   37.9254   15.2628   -9.6531 C   0  0  0  0  0  0  0  0  0  0  0  0
   35.9330   16.2356  -10.6735 C   0  0  0  0  0  0  0  0  0  0  0  0
   35.8642   14.0089   -9.7581 O   0  0  0  0  0  0  0  0  0  0  0  0
   35.9325   13.1390  -10.2377 H   0  0  0  0  0  0  0  0  0  0  0  0
  1  2  1  0  0  0
  2  3  2  0  0  0
  3  4  1  0  0  0
  4  5  2  0  0  0
  5  6  1  0  0  0
  6  7  2  0  0  0
  7  8  1  0  0  0
  8 22  1  0  0  0
 22 23  3  0  0  0
 23 24  1  0  0  0
 24 25  1  0  0  0
 24 26  1  0  0  0
 24 27  1  0  0  0
  8  9  2  0  0  0
  9 10  1  0  0  0
  9 11  1  0  0  0
 11 12  2  0  0  0
 12 13  1  0  0  0
 13 14  1  0  0  0
 14 15  1  0  0  0
 15 16  1  0  0  0
  3 17  1  0  0  0
 17 18  1  0  0  0
 17 19  2  0  0  0
 16  2  1  0  0  0
 16  5  1  0  0  0
 12  6  1  0  0  0
 27 28  1  0  0  0
 18 20  1  0  0  0
 18 21  1  0  0  0
M  END
> <minimizedAffinity>
-7.91484

> <CNNscore>
0.2217114419

> <CNNaffinity>
6.0397663116

> <CNN_VS>
1.3390853405

> <CNNaffinity_variance>
0.2365517318

$$$$
[H]OC(C#Cc1c([H])c2c(c([H])c1F)OC([H])([H])C([H])([H])n1c-2nc(C(=O)N([H])[H])c1[H])(c1nc([H])n([H])n1)C([H])([H])[H]


 32 35  0  0  0  0  0  0  0  0999 V2000
   36.5951   13.9328  -13.2006 C   0  0  0  0  0  0  0  0  0  0  0  0
   37.1779   13.2625  -14.2401 C   0  0  0  0  0  0  0  0  0  0  0  0
   36.4129   12.5593  -15.1456 C   0  0  0  0  0  0  0  0  0  0  0  0
   37.1868   11.9102  -16.2152 C   0  0  0  0  0  0  0  0  0  0  0  0
   38.4352   12.2954  -16.5440 N   0  0  0  0  0  0  0  0  0  0  0  0
   38.7751   11.5095  -17.5764 C   0  0  0  0  0  0  0  0  0  0  0  0
   37.7416   10.6383  -17.8864 C   0  0  0  0  0  0  0  0  0  0  0  0
   36.7468   10.9147  -16.9976 N   0  0  0  0  0  0  0  0  0  0  0  0
   35.5245   10.1863  -16.9282 C   0  0  0  0  0  0  0  0  0  0  0  0
   34.2625   10.9604  -16.8782 C   0  0  0  0  0  0  0  0  0  0  0  0
   34.1475   11.8733  -15.8358 O   0  0  0  0  0  0  0  0  0  0  0  0
   35.0336   12.5337  -14.9945 C   0  0  0  0  0  0  0  0  0  0  0  0
   34.4398   13.1892  -13.9635 C   0  0  0  0  0  0  0  0  0  0  0  0
   35.1928   13.8893  -13.0613 C   0  0  0  0  0  0  0  0  0  0  0  0
   34.6156   14.5477  -12.0245 F   0  0  0  0  0  0  0  0  0  0  0  0
   40.0690   11.4854  -18.2546 C   0  0  0  0  0  0  0  0  0  0  0  0
   41.2246   12.0560  -17.6655 N   0  0  0  0  0  0  0  0  0  0  0  0
   40.1751   10.9359  -19.3977 O   0  0  0  0  0  0  0  0  0  0  0  0
   41.7392   11.4872  -16.9192 H   0  0  0  0  0  0  0  0  0  0  0  0
   41.5978   12.9741  -17.9247 H   0  0  0  0  0  0  0  0  0  0  0  0
   37.9842   15.3346  -11.4674 C   0  0  0  0  0  0  0  0  0  0  0  0
   37.3269   14.7331  -12.2651 C   0  0  0  0  0  0  0  0  0  0  0  0
   40.1682   16.3679  -11.1942 C   0  0  0  0  0  0  0  0  0  0  0  0
   38.8312   15.9709  -10.4660 C   0  0  0  0  0  0  0  0  0  0  0  0
   39.2386   15.0174   -9.5576 O   0  0  0  0  0  0  0  0  0  0  0  0
   38.4657   14.8134   -8.9549 H   0  0  0  0  0  0  0  0  0  0  0  0
   38.3250   17.1902   -9.8848 C   0  0  0  0  0  0  0  0  0  0  0  0
   38.1030   17.3482   -8.5468 N   0  0  0  0  0  0  0  0  0  0  0  0
   37.6821   18.6037   -8.3354 C   0  0  0  0  0  0  0  0  0  0  0  0
   37.6450   19.2047   -9.5060 N   0  0  0  0  0  0  0  0  0  0  0  0
   38.0304   18.3626  -10.4430 N   0  0  0  0  0  0  0  0  0  0  0  0
   37.3435   20.2113   -9.6079 H   0  0  0  0  0  0  0  0  0  0  0  0
 23 24  1  0  0  0
 24 25  1  0  0  0
 24 21  1  0  0  0
 21 22  3  0  0  0
 22  1  1  0  0  0
  1  2  2  0  0  0
  2  3  1  0  0  0
  3  4  1  0  0  0
  4  5  2  0  0  0
  5  6  1  0  0  0
  6  7  2  0  0  0
  7  8  1  0  0  0
  8  9  1  0  0  0
  9 10  1  0  0  0
 10 11  1  0  0  0
 11 12  1  0  0  0
 12 13  1  0  0  0
 13 14  2  0  0  0
 14 15  1  0  0  0
  6 16  1  0  0  0
 16 17  1  0  0  0
 16 18  2  0  0  0
 24 27  1  0  0  0
 27 28  1  0  0  0
 28 29  2  0  0  0
 29 30  1  0  0  0
 30 31  1  0  0  0
 14  1  1  0  0  0
 31 27  2  0  0  0
 12  3  2  0  0  0
  8  4  1  0  0  0
 25 26  1  0  0  0
 17 19  1  0  0  0
 17 20  1  0  0  0
 30 32  1  0  0  0
M  END
> <minimizedAffinity>
-9.62176

> <CNNscore>
0.5083788633

> <CNNaffinity>
6.9717092514

> <CNN_VS>
3.5442695618

> <CNNaffinity_variance>
0.1989983618

$$$$
[H]OC(C#Cc1c([H])c2c(c([H])c1F)OC([H])([H])C([H])([H])n1c-2nc(C(=O)N([H])[H])c1[H])(c1nc([H])n([H])n1)C([H])([H])[H]


 32 35  0  0  0  0  0  0  0  0999 V2000
   36.6505   13.7246  -12.9606 C   0  0  0  0  0  0  0  0  0  0  0  0
   37.3079   13.1502  -14.0129 C   0  0  0  0  0  0  0  0  0  0  0  0
   36.6133   12.5052  -15.0135 C   0  0  0  0  0  0  0  0  0  0  0  0
   37.4628   11.9581  -16.0829 C   0  0  0  0  0  0  0  0  0  0  0  0
   38.7179   12.3932  -16.3070 N   0  0  0  0  0  0  0  0  0  0  0  0
   39.1354   11.6981  -17.3755 C   0  0  0  0  0  0  0  0  0  0  0  0
   38.1431   10.8333  -17.8120 C   0  0  0  0  0  0  0  0  0  0  0  0
   37.0929   11.0187  -16.9645 N   0  0  0  0  0  0  0  0  0  0  0  0
   35.8869   10.2624  -17.0235 C   0  0  0  0  0  0  0  0  0  0  0  0
   34.6053   11.0045  -16.9879 C   0  0  0  0  0  0  0  0  0  0  0  0
   34.4087   11.8299  -15.8864 O   0  0  0  0  0  0  0  0  0  0  0  0
   35.2288   12.4398  -14.9460 C   0  0  0  0  0  0  0  0  0  0  0  0
   34.5611   12.9999  -13.9040 C   0  0  0  0  0  0  0  0  0  0  0  0
   35.2440   13.6419  -12.9076 C   0  0  0  0  0  0  0  0  0  0  0  0
   34.5925   14.2048  -11.8586 F   0  0  0  0  0  0  0  0  0  0  0  0
   40.4660   11.7537  -17.9763 C   0  0  0  0  0  0  0  0  0  0  0  0
   41.5899   12.2134  -17.2457 N   0  0  0  0  0  0  0  0  0  0  0  0
   40.6338   11.3766  -19.1803 O   0  0  0  0  0  0  0  0  0  0  0  0
   42.0565   11.5331  -16.5640 H   0  0  0  0  0  0  0  0  0  0  0  0
   41.9840   13.1536  -17.3454 H   0  0  0  0  0  0  0  0  0  0  0  0
   37.9102   15.0175  -11.0527 C   0  0  0  0  0  0  0  0  0  0  0  0
   37.3077   14.4634  -11.9246 C   0  0  0  0  0  0  0  0  0  0  0  0
   39.6792   16.6345  -10.6428 C   0  0  0  0  0  0  0  0  0  0  0  0
   38.7013   15.5986   -9.9750 C   0  0  0  0  0  0  0  0  0  0  0  0
   39.5537   14.6349   -9.4798 O   0  0  0  0  0  0  0  0  0  0  0  0
   39.0166   14.0070   -8.9147 H   0  0  0  0  0  0  0  0  0  0  0  0
   37.9705   16.3384   -8.9753 C   0  0  0  0  0  0  0  0  0  0  0  0
   37.7228   17.6783   -9.0648 N   0  0  0  0  0  0  0  0  0  0  0  0
   36.9849   18.0416   -8.0057 C   0  0  0  0  0  0  0  0  0  0  0  0
   36.7817   16.9603   -7.2830 N   0  0  0  0  0  0  0  0  0  0  0  0
   37.3701   15.9317   -7.8586 N   0  0  0  0  0  0  0  0  0  0  0  0
   36.2215   16.9834   -6.3884 H   0  0  0  0  0  0  0  0  0  0  0  0
 23 24  1  0  0  0
 24 25  1  0  0  0
 24 21  1  0  0  0
 21 22  3  0  0  0
 22  1  1  0  0  0
  1  2  2  0  0  0
  2  3  1  0  0  0
  3  4  1  0  0  0
  4  5  2  0  0  0
  5  6  1  0  0  0
  6  7  2  0  0  0
  7  8  1  0  0  0
  8  9  1  0  0  0
  9 10  1  0  0  0
 10 11  1  0  0  0
 11 12  1  0  0  0
 12 13  1  0  0  0
 13 14  2  0  0  0
 14 15  1  0  0  0
  6 16  1  0  0  0
 16 17  1  0  0  0
 16 18  2  0  0  0
 24 27  1  0  0  0
 27 28  1  0  0  0
 28 29  2  0  0  0
 29 30  1  0  0  0
 30 31  1  0  0  0
 14  1  1  0  0  0
 31 27  2  0  0  0
 12  3  2  0  0  0
  8  4  1  0  0  0
 25 26  1  0  0  0
 17 19  1  0  0  0
 17 20  1  0  0  0
 30 32  1  0  0  0
M  END
> <minimizedAffinity>
-8.62458

> <CNNscore>
0.4357618093

> <CNNaffinity>
6.8616194725

> <CNN_VS>
2.9900317192

> <CNNaffinity_variance>
0.3087658882

$$$$
[H]OC(C#Cc1c([H])c2c(c([H])c1F)OC([H])([H])C([H])([H])n1c-2nc(C(=O)N([H])[H])c1[H])(c1nc([H])n([H])n1)C([H])([H])[H]


 32 35  0  0  0  0  0  0  0  0999 V2000
   36.0012   13.3692  -13.0771 C   0  0  0  0  0  0  0  0  0  0  0  0
   37.1193   13.0713  -13.8055 C   0  0  0  0  0  0  0  0  0  0  0  0
   37.0170   12.5128  -15.0614 C   0  0  0  0  0  0  0  0  0  0  0  0
   38.3090   12.2703  -15.7221 C   0  0  0  0  0  0  0  0  0  0  0  0
   39.4411   12.9022  -15.3562 N   0  0  0  0  0  0  0  0  0  0  0  0
   40.3734   12.4565  -16.2114 C   0  0  0  0  0  0  0  0  0  0  0  0
   39.8220   11.5498  -17.1040 C   0  0  0  0  0  0  0  0  0  0  0  0
   38.5072   11.4485  -16.7622 N   0  0  0  0  0  0  0  0  0  0  0  0
   37.5932   10.5564  -17.3935 C   0  0  0  0  0  0  0  0  0  0  0  0
   36.2867   11.1021  -17.8289 C   0  0  0  0  0  0  0  0  0  0  0  0
   35.5145   11.6995  -16.8389 O   0  0  0  0  0  0  0  0  0  0  0  0
   35.7601   12.2505  -15.5879 C   0  0  0  0  0  0  0  0  0  0  0  0
   34.6397   12.5349  -14.8745 C   0  0  0  0  0  0  0  0  0  0  0  0
   34.7337   13.0894  -13.6275 C   0  0  0  0  0  0  0  0  0  0  0  0
   33.6245   13.3775  -12.9007 F   0  0  0  0  0  0  0  0  0  0  0  0
   41.7957   12.7903  -16.1899 C   0  0  0  0  0  0  0  0  0  0  0  0
   42.6870   12.2972  -17.1751 N   0  0  0  0  0  0  0  0  0  0  0  0
   42.2554   13.5462  -15.2749 O   0  0  0  0  0  0  0  0  0  0  0  0
   42.7073   12.7911  -18.1243 H   0  0  0  0  0  0  0  0  0  0  0  0
   43.3182   11.5051  -17.0220 H   0  0  0  0  0  0  0  0  0  0  0  0
   36.1286   14.5911  -10.7556 C   0  0  0  0  0  0  0  0  0  0  0  0
   36.0381   14.0083  -11.7960 C   0  0  0  0  0  0  0  0  0  0  0  0
   34.8996   15.7491   -9.0061 C   0  0  0  0  0  0  0  0  0  0  0  0
   36.3295   15.3514   -9.5282 C   0  0  0  0  0  0  0  0  0  0  0  0
   36.8978   16.5665   -9.8459 O   0  0  0  0  0  0  0  0  0  0  0  0
   37.8644   16.4111  -10.0553 H   0  0  0  0  0  0  0  0  0  0  0  0
   36.9622   14.6482   -8.4392 C   0  0  0  0  0  0  0  0  0  0  0  0
   36.2793   13.8625   -7.5555 N   0  0  0  0  0  0  0  0  0  0  0  0
   37.1625   13.3208   -6.7042 C   0  0  0  0  0  0  0  0  0  0  0  0
   38.3553   13.7572   -7.0502 N   0  0  0  0  0  0  0  0  0  0  0  0
   38.2444   14.5552   -8.0925 N   0  0  0  0  0  0  0  0  0  0  0  0
   39.2277   13.4708   -6.5292 H   0  0  0  0  0  0  0  0  0  0  0  0
 23 24  1  0  0  0
 24 25  1  0  0  0
 24 21  1  0  0  0
 21 22  3  0  0  0
 22  1  1  0  0  0
  1  2  2  0  0  0
  2  3  1  0  0  0
  3  4  1  0  0  0
  4  5  2  0  0  0
  5  6  1  0  0  0
  6  7  2  0  0  0
  7  8  1  0  0  0
  8  9  1  0  0  0
  9 10  1  0  0  0
 10 11  1  0  0  0
 11 12  1  0  0  0
 12 13  1  0  0  0
 13 14  2  0  0  0
 14 15  1  0  0  0
  6 16  1  0  0  0
 16 17  1  0  0  0
 16 18  2  0  0  0
 24 27  1  0  0  0
 27 28  1  0  0  0
 28 29  2  0  0  0
 29 30  1  0  0  0
 30 31  1  0  0  0
 14  1  1  0  0  0
 31 27  2  0  0  0
 12  3  2  0  0  0
  8  4  1  0  0  0
 25 26  1  0  0  0
 17 19  1  0  0  0
 17 20  1  0  0  0
 30 32  1  0  0  0
M  END
> <minimizedAffinity>
-8.42885

> <CNNscore>
0.3225227892

> <CNNaffinity>
6.6055603027

> <CNN_VS>
2.1304438114

> <CNNaffinity_variance>
0.1394841075

$$$$
[H]OC(C#Cc1c([H])c2c(c([H])c1F)OC([H])([H])C([H])([H])n1c-2nc(C(=O)N([H])[H])c1[H])(c1nc([H])n([H])n1)C([H])([H])[H]


 32 35  0  0  0  0  0  0  0  0999 V2000
   40.9228   15.0282  -13.1342 C   0  0  0  0  0  0  0  0  0  0  0  0
   40.5670   14.1835  -14.1488 C   0  0  0  0  0  0  0  0  0  0  0  0
   39.2442   13.8706  -14.3773 C   0  0  0  0  0  0  0  0  0  0  0  0
   39.0254   12.9655  -15.5164 C   0  0  0  0  0  0  0  0  0  0  0  0
   39.9361   12.7967  -16.4947 N   0  0  0  0  0  0  0  0  0  0  0  0
   39.3579   11.9483  -17.3578 C   0  0  0  0  0  0  0  0  0  0  0  0
   38.0930   11.5906  -16.9157 C   0  0  0  0  0  0  0  0  0  0  0  0
   37.9134   12.2505  -15.7376 N   0  0  0  0  0  0  0  0  0  0  0  0
   36.7605   12.0984  -14.9147 C   0  0  0  0  0  0  0  0  0  0  0  0
   36.0999   13.3284  -14.4195 C   0  0  0  0  0  0  0  0  0  0  0  0
   36.9001   14.1982  -13.6870 O   0  0  0  0  0  0  0  0  0  0  0  0
   38.2652   14.4221  -13.5630 C   0  0  0  0  0  0  0  0  0  0  0  0
   38.6027   15.2580  -12.5468 C   0  0  0  0  0  0  0  0  0  0  0  0
   39.9134   15.5731  -12.3144 C   0  0  0  0  0  0  0  0  0  0  0  0
   40.2678   16.4047  -11.3023 F   0  0  0  0  0  0  0  0  0  0  0  0
   39.9690   11.3912  -18.5623 C   0  0  0  0  0  0  0  0  0  0  0  0
   39.1815   10.8786  -19.6231 N   0  0  0  0  0  0  0  0  0  0  0  0
   41.2365   11.3668  -18.6765 O   0  0  0  0  0  0  0  0  0  0  0  0
   38.7498   11.5773  -20.3092 H   0  0  0  0  0  0  0  0  0  0  0  0
   39.0158    9.8790  -19.7734 H   0  0  0  0  0  0  0  0  0  0  0  0
   43.3981   15.8199  -12.7545 C   0  0  0  0  0  0  0  0  0  0  0  0
   42.2708   15.4429  -12.8854 C   0  0  0  0  0  0  0  0  0  0  0  0
   45.5174   15.6708  -13.9370 C   0  0  0  0  0  0  0  0  0  0  0  0
   44.7727   16.3027  -12.7036 C   0  0  0  0  0  0  0  0  0  0  0  0
   45.4067   15.7259  -11.6237 O   0  0  0  0  0  0  0  0  0  0  0  0
   45.0836   16.1836  -10.7941 H   0  0  0  0  0  0  0  0  0  0  0  0
   44.9524   17.7286  -12.8262 C   0  0  0  0  0  0  0  0  0  0  0  0
   44.0475   18.5496  -13.4359 N   0  0  0  0  0  0  0  0  0  0  0  0
   44.4903   19.8114  -13.3367 C   0  0  0  0  0  0  0  0  0  0  0  0
   45.6337   19.7731  -12.6855 N   0  0  0  0  0  0  0  0  0  0  0  0
   45.9189   18.5252  -12.3743 N   0  0  0  0  0  0  0  0  0  0  0  0
   46.1871   20.6475  -12.4764 H   0  0  0  0  0  0  0  0  0  0  0  0
 23 24  1  0  0  0
 24 25  1  0  0  0
 24 21  1  0  0  0
 21 22  3  0  0  0
 22  1  1  0  0  0
  1  2  2  0  0  0
  2  3  1  0  0  0
  3  4  1  0  0  0
  4  5  2  0  0  0
  5  6  1  0  0  0
  6  7  2  0  0  0
  7  8  1  0  0  0
  8  9  1  0  0  0
  9 10  1  0  0  0
 10 11  1  0  0  0
 11 12  1  0  0  0
 12 13  1  0  0  0
 13 14  2  0  0  0
 14 15  1  0  0  0
  6 16  1  0  0  0
 16 17  1  0  0  0
 16 18  2  0  0  0
 24 27  1  0  0  0
 27 28  1  0  0  0
 28 29  2  0  0  0
 29 30  1  0  0  0
 30 31  1  0  0  0
 14  1  1  0  0  0
 31 27  2  0  0  0
 12  3  2  0  0  0
  8  4  1  0  0  0
 25 26  1  0  0  0
 17 19  1  0  0  0
 17 20  1  0  0  0
 30 32  1  0  0  0
M  END
> <minimizedAffinity>
-8.31293

> <CNNscore>
0.3181097806

> <CNNaffinity>
6.3897237778

> <CNN_VS>
2.0326335430

> <CNNaffinity_variance>
0.1833960265

$$$$
[H]OC(C#Cc1c([H])c2c(c([H])c1F)OC([H])([H])C([H])([H])n1c-2nc(C(=O)N([H])[H])c1[H])(c1nc([H])n([H])n1)C([H])([H])[H]


 32 35  0  0  0  0  0  0  0  0999 V2000
   35.9187   13.4313  -12.9685 C   0  0  0  0  0  0  0  0  0  0  0  0
   36.9999   13.1000  -13.7371 C   0  0  0  0  0  0  0  0  0  0  0  0
   36.8348   12.5426  -14.9869 C   0  0  0  0  0  0  0  0  0  0  0  0
   38.0938   12.2618  -15.6945 C   0  0  0  0  0  0  0  0  0  0  0  0
   39.2565   12.8615  -15.3727 N   0  0  0  0  0  0  0  0  0  0  0  0
   40.1431   12.3878  -16.2607 C   0  0  0  0  0  0  0  0  0  0  0  0
   39.5329   11.4958  -17.1297 C   0  0  0  0  0  0  0  0  0  0  0  0
   38.2295   11.4329  -16.7390 N   0  0  0  0  0  0  0  0  0  0  0  0
   37.2674   10.5665  -17.3334 C   0  0  0  0  0  0  0  0  0  0  0  0
   35.9617   11.1488  -17.7214 C   0  0  0  0  0  0  0  0  0  0  0  0
   35.2444   11.7699  -16.7050 O   0  0  0  0  0  0  0  0  0  0  0  0
   35.5522   12.3157  -15.4655 C   0  0  0  0  0  0  0  0  0  0  0  0
   34.4677   12.6334  -14.7117 C   0  0  0  0  0  0  0  0  0  0  0  0
   34.6241   13.1871  -13.4706 C   0  0  0  0  0  0  0  0  0  0  0  0
   33.5514   13.5083  -12.7039 F   0  0  0  0  0  0  0  0  0  0  0  0
   41.5742   12.6805  -16.2931 C   0  0  0  0  0  0  0  0  0  0  0  0
   42.4101   12.1766  -17.3204 N   0  0  0  0  0  0  0  0  0  0  0  0
   42.0925   13.4096  -15.3876 O   0  0  0  0  0  0  0  0  0  0  0  0
   42.4062   12.6834  -18.2630 H   0  0  0  0  0  0  0  0  0  0  0  0
   43.0236   11.3646  -17.2039 H   0  0  0  0  0  0  0  0  0  0  0  0
   36.0660   14.6695  -10.6569 C   0  0  0  0  0  0  0  0  0  0  0  0
   36.0216   14.0711  -11.6914 C   0  0  0  0  0  0  0  0  0  0  0  0
   36.9451   14.7105   -8.3903 C   0  0  0  0  0  0  0  0  0  0  0  0
   36.0798   15.4872   -9.4502 C   0  0  0  0  0  0  0  0  0  0  0  0
   34.8186   15.4794   -8.8935 O   0  0  0  0  0  0  0  0  0  0  0  0
   34.2339   16.0784   -9.4426 H   0  0  0  0  0  0  0  0  0  0  0  0
   36.6854   16.7908   -9.5704 C   0  0  0  0  0  0  0  0  0  0  0  0
   36.9586   17.5932   -8.4998 N   0  0  0  0  0  0  0  0  0  0  0  0
   37.5591   18.7047   -8.9493 C   0  0  0  0  0  0  0  0  0  0  0  0
   37.6551   18.5940  -10.2575 N   0  0  0  0  0  0  0  0  0  0  0  0
   37.1329   17.4464  -10.6394 N   0  0  0  0  0  0  0  0  0  0  0  0
   38.0963   19.3474  -10.8510 H   0  0  0  0  0  0  0  0  0  0  0  0
 23 24  1  0  0  0
 24 25  1  0  0  0
 24 21  1  0  0  0
 21 22  3  0  0  0
 22  1  1  0  0  0
  1  2  2  0  0  0
  2  3  1  0  0  0
  3  4  1  0  0  0
  4  5  2  0  0  0
  5  6  1  0  0  0
  6  7  2  0  0  0
  7  8  1  0  0  0
  8  9  1  0  0  0
  9 10  1  0  0  0
 10 11  1  0  0  0
 11 12  1  0  0  0
 12 13  1  0  0  0
 13 14  2  0  0  0
 14 15  1  0  0  0
  6 16  1  0  0  0
 16 17  1  0  0  0
 16 18  2  0  0  0
 24 27  1  0  0  0
 27 28  1  0  0  0
 28 29  2  0  0  0
 29 30  1  0  0  0
 30 31  1  0  0  0
 14  1  1  0  0  0
 31 27  2  0  0  0
 12  3  2  0  0  0
  8  4  1  0  0  0
 25 26  1  0  0  0
 17 19  1  0  0  0
 17 20  1  0  0  0
 30 32  1  0  0  0
M  END
> <minimizedAffinity>
-8.83253

> <CNNscore>
0.2838583887

> <CNNaffinity>
6.5958123207

> <CNN_VS>
1.8722766638

> <CNNaffinity_variance>
0.1041548476

$$$$
[H]OC(C#Cc1c([H])c2c(c([H])c1F)OC([H])([H])C([H])([H])n1c-2nc(C(=O)N([H])[H])c1[H])(c1nc([H])n([H])n1)C([H])([H])[H]


 32 35  0  0  0  0  0  0  0  0999 V2000
   36.5631   13.9041  -13.2325 C   0  0  0  0  0  0  0  0  0  0  0  0
   37.1281   13.2286  -14.2784 C   0  0  0  0  0  0  0  0  0  0  0  0
   36.3472   12.5265  -15.1712 C   0  0  0  0  0  0  0  0  0  0  0  0
   37.1030   11.8712  -16.2500 C   0  0  0  0  0  0  0  0  0  0  0  0
   38.3483   12.2501  -16.5975 N   0  0  0  0  0  0  0  0  0  0  0  0
   38.6700   11.4600  -17.6326 C   0  0  0  0  0  0  0  0  0  0  0  0
   37.6283   10.5927  -17.9255 C   0  0  0  0  0  0  0  0  0  0  0  0
   36.6476   10.8758  -17.0235 N   0  0  0  0  0  0  0  0  0  0  0  0
   35.4231   10.1529  -16.9348 C   0  0  0  0  0  0  0  0  0  0  0  0
   34.1654   10.9328  -16.8689 C   0  0  0  0  0  0  0  0  0  0  0  0
   34.0693   11.8488  -15.8273 O   0  0  0  0  0  0  0  0  0  0  0  0
   34.9702   12.5074  -15.0004 C   0  0  0  0  0  0  0  0  0  0  0  0
   34.3939   13.1682  -13.9628 C   0  0  0  0  0  0  0  0  0  0  0  0
   35.1627   13.8672  -13.0732 C   0  0  0  0  0  0  0  0  0  0  0  0
   34.6032   14.5308  -12.0300 F   0  0  0  0  0  0  0  0  0  0  0  0
   39.9540   11.4285  -18.3290 C   0  0  0  0  0  0  0  0  0  0  0  0
   41.1326   11.9422  -17.7329 N   0  0  0  0  0  0  0  0  0  0  0  0
   40.0302   10.9242  -19.4951 O   0  0  0  0  0  0  0  0  0  0  0  0
   41.6404   11.3289  -17.0178 H   0  0  0  0  0  0  0  0  0  0  0  0
   41.5281   12.8595  -17.9594 H   0  0  0  0  0  0  0  0  0  0  0  0
   37.9954   15.3777  -11.5968 C   0  0  0  0  0  0  0  0  0  0  0  0
   37.3116   14.7035  -12.3096 C   0  0  0  0  0  0  0  0  0  0  0  0
   39.0424   15.4817   -9.4047 C   0  0  0  0  0  0  0  0  0  0  0  0
   38.9099   16.1897  -10.8034 C   0  0  0  0  0  0  0  0  0  0  0  0
   38.2916   17.3827  -10.4951 O   0  0  0  0  0  0  0  0  0  0  0  0
   38.2971   17.9557  -11.3159 H   0  0  0  0  0  0  0  0  0  0  0  0
   40.2552   16.3128  -11.3089 C   0  0  0  0  0  0  0  0  0  0  0  0
   41.3662   16.0646  -10.5547 N   0  0  0  0  0  0  0  0  0  0  0  0
   42.4470   16.2233  -11.3323 C   0  0  0  0  0  0  0  0  0  0  0  0
   42.0187   16.5589  -12.5310 N   0  0  0  0  0  0  0  0  0  0  0  0
   40.7025   16.6145  -12.5262 N   0  0  0  0  0  0  0  0  0  0  0  0
   42.6832   16.7407  -13.3310 H   0  0  0  0  0  0  0  0  0  0  0  0
 23 24  1  0  0  0
 24 25  1  0  0  0
 24 21  1  0  0  0
 21 22  3  0  0  0
 22  1  1  0  0  0
  1  2  2  0  0  0
  2  3  1  0  0  0
  3  4  1  0  0  0
  4  5  2  0  0  0
  5  6  1  0  0  0
  6  7  2  0  0  0
  7  8  1  0  0  0
  8  9  1  0  0  0
  9 10  1  0  0  0
 10 11  1  0  0  0
 11 12  1  0  0  0
 12 13  1  0  0  0
 13 14  2  0  0  0
 14 15  1  0  0  0
  6 16  1  0  0  0
 16 17  1  0  0  0
 16 18  2  0  0  0
 24 27  1  0  0  0
 27 28  1  0  0  0
 28 29  2  0  0  0
 29 30  1  0  0  0
 30 31  1  0  0  0
 14  1  1  0  0  0
 31 27  2  0  0  0
 12  3  2  0  0  0
  8  4  1  0  0  0
 25 26  1  0  0  0
 17 19  1  0  0  0
 17 20  1  0  0  0
 30 32  1  0  0  0
M  END
> <minimizedAffinity>
-9.48360

> <CNNscore>
0.2749707103

> <CNNaffinity>
6.7126693726

> <CNN_VS>
1.8457874060

> <CNNaffinity_variance>
0.0450472049

$$$$
[H]OC(C#Cc1c([H])c2c(c([H])c1F)OC([H])([H])C([H])([H])n1c-2nc(C(=O)N([H])[H])c1[H])(c1nc([H])n([H])n1)C([H])([H])[H]


 32 35  0  0  0  0  0  0  0  0999 V2000
   38.1282   14.3508  -13.7361 C   0  0  0  0  0  0  0  0  0  0  0  0
   38.4636   14.8516  -12.5089 C   0  0  0  0  0  0  0  0  0  0  0  0
   37.4926   15.1472  -11.5764 C   0  0  0  0  0  0  0  0  0  0  0  0
   38.0162   15.6589  -10.3002 C   0  0  0  0  0  0  0  0  0  0  0  0
   39.2898   15.4626   -9.9072 N   0  0  0  0  0  0  0  0  0  0  0  0
   39.3639   16.0264   -8.6925 C   0  0  0  0  0  0  0  0  0  0  0  0
   38.1406   16.5722   -8.3334 C   0  0  0  0  0  0  0  0  0  0  0  0
   37.3051   16.3266   -9.3809 N   0  0  0  0  0  0  0  0  0  0  0  0
   35.9598   16.7911   -9.4442 C   0  0  0  0  0  0  0  0  0  0  0  0
   34.9110   15.8164   -9.8242 C   0  0  0  0  0  0  0  0  0  0  0  0
   35.0847   15.1793  -11.0478 O   0  0  0  0  0  0  0  0  0  0  0  0
   36.1587   14.9329  -11.8933 C   0  0  0  0  0  0  0  0  0  0  0  0
   35.8085   14.4418  -13.1105 C   0  0  0  0  0  0  0  0  0  0  0  0
   36.7669   14.1460  -14.0407 C   0  0  0  0  0  0  0  0  0  0  0  0
   36.4340   13.6569  -15.2620 F   0  0  0  0  0  0  0  0  0  0  0  0
   40.5629   16.1432   -7.8658 C   0  0  0  0  0  0  0  0  0  0  0  0
   41.8406   16.3563   -8.4404 N   0  0  0  0  0  0  0  0  0  0  0  0
   40.4697   16.0606   -6.5991 O   0  0  0  0  0  0  0  0  0  0  0  0
   42.0952   17.3515   -8.7404 H   0  0  0  0  0  0  0  0  0  0  0  0
   42.5338   15.6134   -8.5708 H   0  0  0  0  0  0  0  0  0  0  0  0
   39.8351   13.6475  -15.6044 C   0  0  0  0  0  0  0  0  0  0  0  0
   39.0909   13.9637  -14.7232 C   0  0  0  0  0  0  0  0  0  0  0  0
   41.9595   12.6031  -16.1598 C   0  0  0  0  0  0  0  0  0  0  0  0
   40.6538   13.2569  -16.7455 C   0  0  0  0  0  0  0  0  0  0  0  0
   41.1229   14.3950  -17.3664 O   0  0  0  0  0  0  0  0  0  0  0  0
   40.3683   14.7973  -17.8869 H   0  0  0  0  0  0  0  0  0  0  0  0
   40.0848   12.2700  -17.6302 C   0  0  0  0  0  0  0  0  0  0  0  0
   38.9971   11.5102  -17.3069 N   0  0  0  0  0  0  0  0  0  0  0  0
   38.6984   10.7339  -18.3586 C   0  0  0  0  0  0  0  0  0  0  0  0
   39.5735   11.0047  -19.3040 N   0  0  0  0  0  0  0  0  0  0  0  0
   40.4103   11.9273  -18.8749 N   0  0  0  0  0  0  0  0  0  0  0  0
   39.5509   10.5200  -20.2416 H   0  0  0  0  0  0  0  0  0  0  0  0
 23 24  1  0  0  0
 24 25  1  0  0  0
 24 21  1  0  0  0
 21 22  3  0  0  0
 22  1  1  0  0  0
  1  2  2  0  0  0
  2  3  1  0  0  0
  3  4  1  0  0  0
  4  5  2  0  0  0
  5  6  1  0  0  0
  6  7  2  0  0  0
  7  8  1  0  0  0
  8  9  1  0  0  0
  9 10  1  0  0  0
 10 11  1  0  0  0
 11 12  1  0  0  0
 12 13  1  0  0  0
 13 14  2  0  0  0
 14 15  1  0  0  0
  6 16  1  0  0  0
 16 17  1  0  0  0
 16 18  2  0  0  0
 24 27  1  0  0  0
 27 28  1  0  0  0
 28 29  2  0  0  0
 29 30  1  0  0  0
 30 31  1  0  0  0
 14  1  1  0  0  0
 31 27  2  0  0  0
 12  3  2  0  0  0
  8  4  1  0  0  0
 25 26  1  0  0  0
 17 19  1  0  0  0
 17 20  1  0  0  0
 30 32  1  0  0  0
M  END
> <minimizedAffinity>
-8.16447

> <CNNscore>
0.2655874193

> <CNNaffinity>
6.2280011177

> <CNN_VS>
1.6540787220

> <CNNaffinity_variance>
0.4065032601

$$$$
[H]OC(C#Cc1c([H])c2c(c([H])c1F)OC([H])([H])C([H])([H])n1c-2nc(C(=O)N([H])[H])c1[H])(c1nc([H])n([H])n1)C([H])([H])[H]


 32 35  0  0  0  0  0  0  0  0999 V2000
   35.6091   14.0112  -13.2458 C   0  0  0  0  0  0  0  0  0  0  0  0
   36.2959   13.3147  -14.2011 C   0  0  0  0  0  0  0  0  0  0  0  0
   35.6302   12.5419  -15.1283 C   0  0  0  0  0  0  0  0  0  0  0  0
   36.5092   11.8721  -16.0995 C   0  0  0  0  0  0  0  0  0  0  0  0
   37.7667   12.2871  -16.3470 N   0  0  0  0  0  0  0  0  0  0  0  0
   38.2148   11.4666  -17.3088 C   0  0  0  0  0  0  0  0  0  0  0  0
   37.2390   10.5444  -17.6559 C   0  0  0  0  0  0  0  0  0  0  0  0
   36.1670   10.8255  -16.8637 N   0  0  0  0  0  0  0  0  0  0  0  0
   34.9677   10.0566  -16.8551 C   0  0  0  0  0  0  0  0  0  0  0  0
   33.6810   10.7852  -16.9440 C   0  0  0  0  0  0  0  0  0  0  0  0
   33.4520   11.7413  -15.9608 O   0  0  0  0  0  0  0  0  0  0  0  0
   34.2449   12.4727  -15.0858 C   0  0  0  0  0  0  0  0  0  0  0  0
   33.5482   13.1537  -14.1392 C   0  0  0  0  0  0  0  0  0  0  0  0
   34.2023   13.9227  -13.2161 C   0  0  0  0  0  0  0  0  0  0  0  0
   33.5217   14.6074  -12.2624 F   0  0  0  0  0  0  0  0  0  0  0  0
   39.5595   11.4583  -17.8802 C   0  0  0  0  0  0  0  0  0  0  0  0
   40.6459   12.0911  -17.2264 N   0  0  0  0  0  0  0  0  0  0  0  0
   39.7743   10.8663  -18.9863 O   0  0  0  0  0  0  0  0  0  0  0  0
   41.1153   11.5709  -16.4175 H   0  0  0  0  0  0  0  0  0  0  0  0
   41.0109   13.0098  -17.4949 H   0  0  0  0  0  0  0  0  0  0  0  0
   36.6941   15.6575  -11.5107 C   0  0  0  0  0  0  0  0  0  0  0  0
   36.2360   14.8809  -12.2963 C   0  0  0  0  0  0  0  0  0  0  0  0
   36.3430   16.4948   -9.2550 C   0  0  0  0  0  0  0  0  0  0  0  0
   37.1708   16.6741  -10.5809 C   0  0  0  0  0  0  0  0  0  0  0  0
   36.7732   17.9135  -11.0351 O   0  0  0  0  0  0  0  0  0  0  0  0
   37.3612   18.1644  -11.8055 H   0  0  0  0  0  0  0  0  0  0  0  0
   38.5569   16.5827  -10.1923 C   0  0  0  0  0  0  0  0  0  0  0  0
   39.5778   16.4228  -11.0850 N   0  0  0  0  0  0  0  0  0  0  0  0
   40.7344   16.4237  -10.4064 C   0  0  0  0  0  0  0  0  0  0  0  0
   40.4390   16.5798   -9.1331 N   0  0  0  0  0  0  0  0  0  0  0  0
   39.1324   16.6767   -8.9953 N   0  0  0  0  0  0  0  0  0  0  0  0
   41.1849   16.6145   -8.3869 H   0  0  0  0  0  0  0  0  0  0  0  0
 23 24  1  0  0  0
 24 25  1  0  0  0
 24 21  1  0  0  0
 21 22  3  0  0  0
 22  1  1  0  0  0
  1  2  2  0  0  0
  2  3  1  0  0  0
  3  4  1  0  0  0
  4  5  2  0  0  0
  5  6  1  0  0  0
  6  7  2  0  0  0
  7  8  1  0  0  0
  8  9  1  0  0  0
  9 10  1  0  0  0
 10 11  1  0  0  0
 11 12  1  0  0  0
 12 13  1  0  0  0
 13 14  2  0  0  0
 14 15  1  0  0  0
  6 16  1  0  0  0
 16 17  1  0  0  0
 16 18  2  0  0  0
 24 27  1  0  0  0
 27 28  1  0  0  0
 28 29  2  0  0  0
 29 30  1  0  0  0
 30 31  1  0  0  0
 14  1  1  0  0  0
 31 27  2  0  0  0
 12  3  2  0  0  0
  8  4  1  0  0  0
 25 26  1  0  0  0
 17 19  1  0  0  0
 17 20  1  0  0  0
 30 32  1  0  0  0
M  END
> <minimizedAffinity>
-9.27391

> <CNNscore>
0.2552141249

> <CNNaffinity>
6.6757764816

> <CNN_VS>
1.7037523985

> <CNNaffinity_variance>
0.2314399779

$$$$
[H]OC(C#Cc1c([H])c2c(c([H])c1F)OC([H])([H])C([H])([H])n1c-2nc(C(=O)N([H])[H])c1[H])(c1nc([H])n([H])n1)C([H])([H])[H]


 32 35  0  0  0  0  0  0  0  0999 V2000
   39.2434   13.2997  -14.4450 C   0  0  0  0  0  0  0  0  0  0  0  0
   38.2152   13.8597  -13.7388 C   0  0  0  0  0  0  0  0  0  0  0  0
   36.9115   13.4700  -13.9589 C   0  0  0  0  0  0  0  0  0  0  0  0
   35.9249   14.1517  -13.1066 C   0  0  0  0  0  0  0  0  0  0  0  0
   36.2602   14.7602  -11.9524 N   0  0  0  0  0  0  0  0  0  0  0  0
   35.0996   15.2110  -11.4535 C   0  0  0  0  0  0  0  0  0  0  0  0
   34.0477   14.8847  -12.2963 C   0  0  0  0  0  0  0  0  0  0  0  0
   34.6071   14.2156  -13.3428 N   0  0  0  0  0  0  0  0  0  0  0  0
   33.8712   13.7647  -14.4762 C   0  0  0  0  0  0  0  0  0  0  0  0
   34.0757   12.3659  -14.9190 C   0  0  0  0  0  0  0  0  0  0  0  0
   35.3837   12.0085  -15.2271 O   0  0  0  0  0  0  0  0  0  0  0  0
   36.6450   12.4972  -14.9119 C   0  0  0  0  0  0  0  0  0  0  0  0
   37.6547   11.9355  -15.6264 C   0  0  0  0  0  0  0  0  0  0  0  0
   38.9509   12.3172  -15.4130 C   0  0  0  0  0  0  0  0  0  0  0  0
   39.9709   11.7679  -16.1196 F   0  0  0  0  0  0  0  0  0  0  0  0
   34.9320   16.0073  -10.2400 C   0  0  0  0  0  0  0  0  0  0  0  0
   35.9136   16.9418   -9.8260 N   0  0  0  0  0  0  0  0  0  0  0  0
   33.8815   15.8730   -9.5341 O   0  0  0  0  0  0  0  0  0  0  0  0
   35.9303   17.8972  -10.3078 H   0  0  0  0  0  0  0  0  0  0  0  0
   36.5958   16.7554   -9.0849 H   0  0  0  0  0  0  0  0  0  0  0  0
   41.7932   13.8167  -14.0848 C   0  0  0  0  0  0  0  0  0  0  0  0
   40.6223   13.6137  -14.2190 C   0  0  0  0  0  0  0  0  0  0  0  0
   43.6805   13.2179  -12.6735 C   0  0  0  0  0  0  0  0  0  0  0  0
   43.2389   13.9727  -13.9814 C   0  0  0  0  0  0  0  0  0  0  0  0
   43.5245   15.2908  -13.6958 O   0  0  0  0  0  0  0  0  0  0  0  0
   43.4019   15.8231  -14.5347 H   0  0  0  0  0  0  0  0  0  0  0  0
   44.0200   13.3967  -15.0485 C   0  0  0  0  0  0  0  0  0  0  0  0
   43.5036   12.5420  -15.9799 N   0  0  0  0  0  0  0  0  0  0  0  0
   44.4746   12.2325  -16.8513 C   0  0  0  0  0  0  0  0  0  0  0  0
   45.5586   12.8757  -16.4716 N   0  0  0  0  0  0  0  0  0  0  0  0
   45.2943   13.5784  -15.3890 N   0  0  0  0  0  0  0  0  0  0  0  0
   46.4689   12.7971  -17.0005 H   0  0  0  0  0  0  0  0  0  0  0  0
 23 24  1  0  0  0
 24 25  1  0  0  0
 24 21  1  0  0  0
 21 22  3  0  0  0
 22  1  1  0  0  0
  1  2  2  0  0  0
  2  3  1  0  0  0
  3  4  1  0  0  0
  4  5  2  0  0  0
  5  6  1  0  0  0
  6  7  2  0  0  0
  7  8  1  0  0  0
  8  9  1  0  0  0
  9 10  1  0  0  0
 10 11  1  0  0  0
 11 12  1  0  0  0
 12 13  1  0  0  0
 13 14  2  0  0  0
 14 15  1  0  0  0
  6 16  1  0  0  0
 16 17  1  0  0  0
 16 18  2  0  0  0
 24 27  1  0  0  0
 27 28  1  0  0  0
 28 29  2  0  0  0
 29 30  1  0  0  0
 30 31  1  0  0  0
 14  1  1  0  0  0
 31 27  2  0  0  0
 12  3  2  0  0  0
  8  4  1  0  0  0
 25 26  1  0  0  0
 17 19  1  0  0  0
 17 20  1  0  0  0
 30 32  1  0  0  0
M  END
> <minimizedAffinity>
-8.69200

> <CNNscore>
0.2309083045

> <CNNaffinity>
5.9280619621

> <CNN_VS>
1.3688387871

> <CNNaffinity_variance>
0.2473503053

$$$$
[H]O[C@]1(C#Cc2c([H])c([H])c3c(c2[H])-n2nc(C(=O)N([H])[H])c(C(=O)N([H])C([H])([H])[H])c2[C@@]([H])(F)C([H])([H])O3)C(=O)N(C([H])([H])[H])C([H])([H])C1([H])[H]


 36 39  0  0  0  0  0  0  0  0999 V2000
   37.9420   12.2713  -16.1379 C   0  0  0  0  0  0  0  0  0  0  0  0
   39.2305   12.4814  -16.5795 C   0  0  0  0  0  0  0  0  0  0  0  0
   39.8232   13.3251  -15.6569 N   0  0  0  0  0  0  0  0  0  0  0  0
   38.9616   13.6138  -14.7215 N   0  0  0  0  0  0  0  0  0  0  0  0
   37.7801   13.0029  -14.9488 C   0  0  0  0  0  0  0  0  0  0  0  0
   36.5268   12.9989  -14.2101 C   0  0  0  0  0  0  0  0  0  0  0  0
   36.7160   12.1306  -13.1201 F   0  0  0  0  0  0  0  0  0  0  0  0
   36.1889   14.3324  -13.5844 C   0  0  0  0  0  0  0  0  0  0  0  0
   37.0504   14.7074  -12.5373 O   0  0  0  0  0  0  0  0  0  0  0  0
   38.4089   14.9514  -12.6385 C   0  0  0  0  0  0  0  0  0  0  0  0
   38.9169   15.7607  -11.6524 C   0  0  0  0  0  0  0  0  0  0  0  0
   40.2563   16.0748  -11.6474 C   0  0  0  0  0  0  0  0  0  0  0  0
   41.1496   15.6176  -12.5948 C   0  0  0  0  0  0  0  0  0  0  0  0
   40.6110   14.8065  -13.5732 C   0  0  0  0  0  0  0  0  0  0  0  0
   39.2621   14.4728  -13.6030 C   0  0  0  0  0  0  0  0  0  0  0  0
   34.5740   10.5408  -16.8762 C   0  0  0  0  0  0  0  0  0  0  0  0
   35.5817   11.4309  -16.3284 N   0  0  0  0  0  0  0  0  0  0  0  0
   36.9433   11.3740  -16.7013 C   0  0  0  0  0  0  0  0  0  0  0  0
   37.2468   10.5066  -17.5576 O   0  0  0  0  0  0  0  0  0  0  0  0
   35.2246   12.1415  -15.6504 H   0  0  0  0  0  0  0  0  0  0  0  0
   39.8928   12.0431  -17.7982 C   0  0  0  0  0  0  0  0  0  0  0  0
   40.0765   10.6884  -18.0928 N   0  0  0  0  0  0  0  0  0  0  0  0
   40.3222   12.9017  -18.6427 O   0  0  0  0  0  0  0  0  0  0  0  0
   39.3144    9.9895  -17.9627 H   0  0  0  0  0  0  0  0  0  0  0  0
   40.9827   10.3163  -18.4555 H   0  0  0  0  0  0  0  0  0  0  0  0
   42.5515   15.9563  -12.5750 C   0  0  0  0  0  0  0  0  0  0  0  0
   43.7274   16.2281  -12.5762 C   0  0  0  0  0  0  0  0  0  0  0  0
   45.1646   16.5457  -12.5991 C   0  0  0  0  0  0  0  0  0  0  0  0
   45.9042   15.5998  -11.8931 O   0  0  0  0  0  0  0  0  0  0  0  0
   45.4572   17.9452  -12.1743 C   0  0  0  0  0  0  0  0  0  0  0  0
   46.1208   18.6417  -13.3277 C   0  0  0  0  0  0  0  0  0  0  0  0
   46.4491   17.6103  -14.2609 N   0  0  0  0  0  0  0  0  0  0  0  0
   47.4945   17.7525  -15.2712 C   0  0  0  0  0  0  0  0  0  0  0  0
   45.6048   16.5120  -14.0092 C   0  0  0  0  0  0  0  0  0  0  0  0
   45.2713   15.6393  -14.8352 O   0  0  0  0  0  0  0  0  0  0  0  0
   45.3630   15.3504  -11.0935 H   0  0  0  0  0  0  0  0  0  0  0  0
 16 17  1  0  0  0
 17 18  1  0  0  0
 18 19  2  0  0  0
 18  1  1  0  0  0
  1  2  1  0  0  0
  2  3  2  0  0  0
  3  4  1  0  0  0
  4  5  1  0  0  0
  5  6  1  0  0  0
  6  7  1  0  0  0
  6  8  1  0  0  0
  8  9  1  0  0  0
  9 10  1  0  0  0
 10 11  2  0  0  0
 11 12  1  0  0  0
 12 13  2  0  0  0
 13 14  1  0  0  0
 14 15  2  0  0  0
 13 26  1  0  0  0
 26 27  3  0  0  0
 28 27  1  0  0  0
 28 29  1  0  0  0
 28 30  1  0  0  0
 30 31  1  0  0  0
 31 32  1  0  0  0
 32 33  1  0  0  0
 32 34  1  0  0  0
 34 35  2  0  0  0
  2 21  1  0  0  0
 21 22  1  0  0  0
 21 23  2  0  0  0
  5  1  2  0  0  0
 15 10  1  0  0  0
 34 28  1  0  0  0
  4 15  1  0  0  0
 17 20  1  0  0  0
 29 36  1  0  0  0
 22 24  1  0  0  0
 22 25  1  0  0  0
M  END
> <minimizedAffinity>
-9.14406

> <CNNscore>
0.4671765268

> <CNNaffinity>
6.6141357422

> <CNN_VS>
3.0899689198

> <CNNaffinity_variance>
0.1844446361

$$$$
[H]O[C@]1(C#Cc2c([H])c([H])c3c(c2[H])-n2nc(C(=O)N([H])[H])c(C(=O)N([H])C([H])([H])[H])c2[C@@]([H])(F)C([H])([H])O3)C(=O)N(C([H])([H])[H])C([H])([H])C1([H])[H]


 36 39  0  0  0  0  0  0  0  0999 V2000
   37.3054   12.1250  -15.6801 C   0  0  0  0  0  0  0  0  0  0  0  0
   37.3884   12.6823  -14.4224 C   0  0  0  0  0  0  0  0  0  0  0  0
   38.7235   12.9840  -14.2200 N   0  0  0  0  0  0  0  0  0  0  0  0
   39.4084   12.6345  -15.2733 N   0  0  0  0  0  0  0  0  0  0  0  0
   38.6049   12.0972  -16.2148 C   0  0  0  0  0  0  0  0  0  0  0  0
   38.8768   11.5704  -17.5433 C   0  0  0  0  0  0  0  0  0  0  0  0
   39.0403   12.6868  -18.3828 F   0  0  0  0  0  0  0  0  0  0  0  0
   40.1860   10.8216  -17.6411 C   0  0  0  0  0  0  0  0  0  0  0  0
   41.3232   11.6377  -17.5003 O   0  0  0  0  0  0  0  0  0  0  0  0
   41.6753   12.3701  -16.3800 C   0  0  0  0  0  0  0  0  0  0  0  0
   43.0138   12.6623  -16.2885 C   0  0  0  0  0  0  0  0  0  0  0  0
   43.4846   13.3863  -15.2175 C   0  0  0  0  0  0  0  0  0  0  0  0
   42.6779   13.8521  -14.1992 C   0  0  0  0  0  0  0  0  0  0  0  0
   41.3378   13.5435  -14.3177 C   0  0  0  0  0  0  0  0  0  0  0  0
   40.8346   12.8140  -15.3884 C   0  0  0  0  0  0  0  0  0  0  0  0
   33.6601   11.1296  -16.4580 C   0  0  0  0  0  0  0  0  0  0  0  0
   34.8670   11.5230  -15.7532 N   0  0  0  0  0  0  0  0  0  0  0  0
   36.1032   11.7357  -16.4034 C   0  0  0  0  0  0  0  0  0  0  0  0
   36.1075   11.5775  -17.6495 O   0  0  0  0  0  0  0  0  0  0  0  0
   34.7535   11.6645  -14.7239 H   0  0  0  0  0  0  0  0  0  0  0  0
   36.3678   12.8625  -13.4017 C   0  0  0  0  0  0  0  0  0  0  0  0
   35.8491   14.1232  -13.0902 N   0  0  0  0  0  0  0  0  0  0  0  0
   35.9115   11.8539  -12.7618 O   0  0  0  0  0  0  0  0  0  0  0  0
   35.5780   14.8043  -13.8311 H   0  0  0  0  0  0  0  0  0  0  0  0
   35.7100   14.4390  -12.1042 H   0  0  0  0  0  0  0  0  0  0  0  0
   43.1875   14.6102  -13.0830 C   0  0  0  0  0  0  0  0  0  0  0  0
   43.6108   15.2625  -12.1601 C   0  0  0  0  0  0  0  0  0  0  0  0
   44.1234   16.0797  -11.0481 C   0  0  0  0  0  0  0  0  0  0  0  0
   44.4304   17.3718  -11.4680 O   0  0  0  0  0  0  0  0  0  0  0  0
   45.2466   15.4259  -10.3162 C   0  0  0  0  0  0  0  0  0  0  0  0
   44.8102   15.2321   -8.8922 C   0  0  0  0  0  0  0  0  0  0  0  0
   43.6106   15.9958   -8.7514 N   0  0  0  0  0  0  0  0  0  0  0  0
   43.1166   16.4742   -7.4626 C   0  0  0  0  0  0  0  0  0  0  0  0
   43.0537   16.1699  -10.0328 C   0  0  0  0  0  0  0  0  0  0  0  0
   41.8495   16.3697  -10.2879 O   0  0  0  0  0  0  0  0  0  0  0  0
   44.8278   17.2911  -12.3790 H   0  0  0  0  0  0  0  0  0  0  0  0
 16 17  1  0  0  0
 17 18  1  0  0  0
 18 19  2  0  0  0
 18  1  1  0  0  0
  1  2  1  0  0  0
  2  3  2  0  0  0
  3  4  1  0  0  0
  4  5  1  0  0  0
  5  6  1  0  0  0
  6  7  1  0  0  0
  6  8  1  0  0  0
  8  9  1  0  0  0
  9 10  1  0  0  0
 10 11  2  0  0  0
 11 12  1  0  0  0
 12 13  2  0  0  0
 13 14  1  0  0  0
 14 15  2  0  0  0
 13 26  1  0  0  0
 26 27  3  0  0  0
 28 27  1  0  0  0
 28 29  1  0  0  0
 28 30  1  0  0  0
 30 31  1  0  0  0
 31 32  1  0  0  0
 32 33  1  0  0  0
 32 34  1  0  0  0
 34 35  2  0  0  0
  2 21  1  0  0  0
 21 22  1  0  0  0
 21 23  2  0  0  0
  5  1  2  0  0  0
 15 10  1  0  0  0
 34 28  1  0  0  0
  4 15  1  0  0  0
 17 20  1  0  0  0
 29 36  1  0  0  0
 22 24  1  0  0  0
 22 25  1  0  0  0
M  END
> <minimizedAffinity>
-7.84759

> <CNNscore>
0.4323173463

> <CNNaffinity>
6.6731462479

> <CNN_VS>
2.8849167824

> <CNNaffinity_variance>
0.2435719967

$$$$
[H]O[C@]1(C#Cc2c([H])c([H])c3c(c2[H])-n2nc(C(=O)N([H])[H])c(C(=O)N([H])C([H])([H])[H])c2[C@@]([H])(F)C([H])([H])O3)C(=O)N(C([H])([H])[H])C([H])([H])C1([H])[H]


 36 39  0  0  0  0  0  0  0  0999 V2000
   36.2215   13.3957  -13.3826 C   0  0  0  0  0  0  0  0  0  0  0  0
   37.2840   13.8143  -12.6110 C   0  0  0  0  0  0  0  0  0  0  0  0
   38.4246   13.5585  -13.3513 N   0  0  0  0  0  0  0  0  0  0  0  0
   38.0872   13.0201  -14.4900 N   0  0  0  0  0  0  0  0  0  0  0  0
   36.7476   12.8869  -14.5826 C   0  0  0  0  0  0  0  0  0  0  0  0
   35.8906   12.3608  -15.6338 C   0  0  0  0  0  0  0  0  0  0  0  0
   35.8147   13.3631  -16.6174 F   0  0  0  0  0  0  0  0  0  0  0  0
   36.4751   11.1646  -16.3491 C   0  0  0  0  0  0  0  0  0  0  0  0
   37.6078   11.4619  -17.1286 O   0  0  0  0  0  0  0  0  0  0  0  0
   38.8205   11.9426  -16.6660 C   0  0  0  0  0  0  0  0  0  0  0  0
   39.8876   11.6821  -17.4899 C   0  0  0  0  0  0  0  0  0  0  0  0
   41.1460   12.1110  -17.1359 C   0  0  0  0  0  0  0  0  0  0  0  0
   41.4154   12.8056  -15.9742 C   0  0  0  0  0  0  0  0  0  0  0  0
   40.3241   13.0529  -15.1661 C   0  0  0  0  0  0  0  0  0  0  0  0
   39.0420   12.6318  -15.4985 C   0  0  0  0  0  0  0  0  0  0  0  0
   32.8248   14.9399  -12.4022 C   0  0  0  0  0  0  0  0  0  0  0  0
   34.2372   14.7755  -12.6956 N   0  0  0  0  0  0  0  0  0  0  0  0
   34.8015   13.5441  -13.0974 C   0  0  0  0  0  0  0  0  0  0  0  0
   34.0048   12.5789  -13.2041 O   0  0  0  0  0  0  0  0  0  0  0  0
   34.8116   15.6447  -12.6129 H   0  0  0  0  0  0  0  0  0  0  0  0
   37.3162   14.3302  -11.2513 C   0  0  0  0  0  0  0  0  0  0  0  0
   38.4430   14.9763  -10.7329 N   0  0  0  0  0  0  0  0  0  0  0  0
   36.2955   14.2073  -10.4912 O   0  0  0  0  0  0  0  0  0  0  0  0
   38.9655   15.6932  -11.2799 H   0  0  0  0  0  0  0  0  0  0  0  0
   38.8111   14.7706   -9.7772 H   0  0  0  0  0  0  0  0  0  0  0  0
   42.7410   13.2485  -15.6177 C   0  0  0  0  0  0  0  0  0  0  0  0
   43.8420   13.6293  -15.3027 C   0  0  0  0  0  0  0  0  0  0  0  0
   45.1747   14.1061  -14.8982 C   0  0  0  0  0  0  0  0  0  0  0  0
   45.4048   15.4059  -15.3431 O   0  0  0  0  0  0  0  0  0  0  0  0
   46.2677   13.1631  -15.2734 C   0  0  0  0  0  0  0  0  0  0  0  0
   46.9427   12.7215  -14.0064 C   0  0  0  0  0  0  0  0  0  0  0  0
   46.4466   13.5893  -12.9851 N   0  0  0  0  0  0  0  0  0  0  0  0
   47.1573   13.8347  -11.7327 C   0  0  0  0  0  0  0  0  0  0  0  0
   45.2147   14.1135  -13.4212 C   0  0  0  0  0  0  0  0  0  0  0  0
   44.2923   14.5239  -12.6892 O   0  0  0  0  0  0  0  0  0  0  0  0
   44.9990   15.4747  -16.2514 H   0  0  0  0  0  0  0  0  0  0  0  0
 16 17  1  0  0  0
 17 18  1  0  0  0
 18 19  2  0  0  0
 18  1  1  0  0  0
  1  2  1  0  0  0
  2  3  2  0  0  0
  3  4  1  0  0  0
  4  5  1  0  0  0
  5  6  1  0  0  0
  6  7  1  0  0  0
  6  8  1  0  0  0
  8  9  1  0  0  0
  9 10  1  0  0  0
 10 11  2  0  0  0
 11 12  1  0  0  0
 12 13  2  0  0  0
 13 14  1  0  0  0
 14 15  2  0  0  0
 13 26  1  0  0  0
 26 27  3  0  0  0
 28 27  1  0  0  0
 28 29  1  0  0  0
 28 30  1  0  0  0
 30 31  1  0  0  0
 31 32  1  0  0  0
 32 33  1  0  0  0
 32 34  1  0  0  0
 34 35  2  0  0  0
  2 21  1  0  0  0
 21 22  1  0  0  0
 21 23  2  0  0  0
  5  1  2  0  0  0
 15 10  1  0  0  0
 34 28  1  0  0  0
  4 15  1  0  0  0
 17 20  1  0  0  0
 29 36  1  0  0  0
 22 24  1  0  0  0
 22 25  1  0  0  0
M  END
> <minimizedAffinity>
-9.60716

> <CNNscore>
0.3562917709

> <CNNaffinity>
6.4854049683

> <CNN_VS>
2.3106963634

> <CNNaffinity_variance>
0.1031167656

$$$$
[H]O[C@]1(C#Cc2c([H])c([H])c3c(c2[H])-n2nc(C(=O)N([H])[H])c(C(=O)N([H])C([H])([H])[H])c2[C@@]([H])(F)C([H])([H])O3)C(=O)N(C([H])([H])[H])C([H])([H])C1([H])[H]


 36 39  0  0  0  0  0  0  0  0999 V2000
   36.5762   16.2555   -8.0780 C   0  0  0  0  0  0  0  0  0  0  0  0
   37.4828   16.5814   -9.0635 C   0  0  0  0  0  0  0  0  0  0  0  0
   38.6379   15.8764   -8.7755 N   0  0  0  0  0  0  0  0  0  0  0  0
   38.4547   15.1735   -7.6924 N   0  0  0  0  0  0  0  0  0  0  0  0
   37.2098   15.3552   -7.2043 C   0  0  0  0  0  0  0  0  0  0  0  0
   36.5270   14.8020   -6.0450 C   0  0  0  0  0  0  0  0  0  0  0  0
   36.1501   13.4939   -6.3981 F   0  0  0  0  0  0  0  0  0  0  0  0
   37.4226   14.6312   -4.8396 C   0  0  0  0  0  0  0  0  0  0  0  0
   38.4095   13.6409   -4.9964 O   0  0  0  0  0  0  0  0  0  0  0  0
   39.4374   13.6448   -5.9231 C   0  0  0  0  0  0  0  0  0  0  0  0
   40.5224   12.8796   -5.5728 C   0  0  0  0  0  0  0  0  0  0  0  0
   41.6077   12.8049   -6.4151 C   0  0  0  0  0  0  0  0  0  0  0  0
   41.6809   13.4669   -7.6238 C   0  0  0  0  0  0  0  0  0  0  0  0
   40.5763   14.2279   -7.9495 C   0  0  0  0  0  0  0  0  0  0  0  0
   39.4665   14.3216   -7.1181 C   0  0  0  0  0  0  0  0  0  0  0  0
   33.2886   17.8232   -6.8061 C   0  0  0  0  0  0  0  0  0  0  0  0
   34.6801   17.4232   -6.9141 N   0  0  0  0  0  0  0  0  0  0  0  0
   35.1782   16.6524   -7.9883 C   0  0  0  0  0  0  0  0  0  0  0  0
   34.3456   16.3325   -8.8726 O   0  0  0  0  0  0  0  0  0  0  0  0
   35.3016   17.7684   -6.1479 H   0  0  0  0  0  0  0  0  0  0  0  0
   37.3837   17.5344  -10.1581 C   0  0  0  0  0  0  0  0  0  0  0  0
   36.5001   17.3442  -11.2253 N   0  0  0  0  0  0  0  0  0  0  0  0
   38.1100   18.5866  -10.1641 O   0  0  0  0  0  0  0  0  0  0  0  0
   35.5148   17.0394  -11.0753 H   0  0  0  0  0  0  0  0  0  0  0  0
   36.7862   17.4984  -12.2181 H   0  0  0  0  0  0  0  0  0  0  0  0
   42.8264   13.3779   -8.4957 C   0  0  0  0  0  0  0  0  0  0  0  0
   43.7740   13.2902   -9.2379 C   0  0  0  0  0  0  0  0  0  0  0  0
   44.9162   13.1674  -10.1585 C   0  0  0  0  0  0  0  0  0  0  0  0
   45.2601   14.4006  -10.7071 O   0  0  0  0  0  0  0  0  0  0  0  0
   44.7194   12.1085  -11.1903 C   0  0  0  0  0  0  0  0  0  0  0  0
   45.8074   11.0890  -11.0095 C   0  0  0  0  0  0  0  0  0  0  0  0
   46.7434   11.6829  -10.1075 N   0  0  0  0  0  0  0  0  0  0  0  0
   48.1419   11.2697  -10.0235 C   0  0  0  0  0  0  0  0  0  0  0  0
   46.0686   12.6775   -9.3741 C   0  0  0  0  0  0  0  0  0  0  0  0
   46.3813   13.0912   -8.2400 O   0  0  0  0  0  0  0  0  0  0  0  0
   44.4064   14.8861  -10.8802 H   0  0  0  0  0  0  0  0  0  0  0  0
 16 17  1  0  0  0
 17 18  1  0  0  0
 18 19  2  0  0  0
 18  1  1  0  0  0
  1  2  1  0  0  0
  2  3  2  0  0  0
  3  4  1  0  0  0
  4  5  1  0  0  0
  5  6  1  0  0  0
  6  7  1  0  0  0
  6  8  1  0  0  0
  8  9  1  0  0  0
  9 10  1  0  0  0
 10 11  2  0  0  0
 11 12  1  0  0  0
 12 13  2  0  0  0
 13 14  1  0  0  0
 14 15  2  0  0  0
 13 26  1  0  0  0
 26 27  3  0  0  0
 28 27  1  0  0  0
 28 29  1  0  0  0
 28 30  1  0  0  0
 30 31  1  0  0  0
 31 32  1  0  0  0
 32 33  1  0  0  0
 32 34  1  0  0  0
 34 35  2  0  0  0
  2 21  1  0  0  0
 21 22  1  0  0  0
 21 23  2  0  0  0
  5  1  2  0  0  0
 15 10  1  0  0  0
 34 28  1  0  0  0
  4 15  1  0  0  0
 17 20  1  0  0  0
 29 36  1  0  0  0
 22 24  1  0  0  0
 22 25  1  0  0  0
M  END
> <minimizedAffinity>
-6.47489

> <CNNscore>
0.3561897278

> <CNNaffinity>
5.2546453476

> <CNN_VS>
1.8716506958

> <CNNaffinity_variance>
0.4079623222

$$$$
[H]O[C@]1(C#Cc2c([H])c([H])c3c(c2[H])-n2nc(C(=O)N([H])[H])c(C(=O)N([H])C([H])([H])[H])c2[C@@]([H])(F)C([H])([H])O3)C(=O)N(C([H])([H])[H])C([H])([H])C1([H])[H]


 36 39  0  0  0  0  0  0  0  0999 V2000
   38.1492   17.1473   -7.6114 C   0  0  0  0  0  0  0  0  0  0  0  0
   38.6532   16.9328   -8.8761 C   0  0  0  0  0  0  0  0  0  0  0  0
   39.8182   16.2049   -8.7103 N   0  0  0  0  0  0  0  0  0  0  0  0
   40.0157   15.9921   -7.4390 N   0  0  0  0  0  0  0  0  0  0  0  0
   39.0308   16.5426   -6.6989 C   0  0  0  0  0  0  0  0  0  0  0  0
   38.7923   16.5768   -5.2642 C   0  0  0  0  0  0  0  0  0  0  0  0
   38.2836   15.3116   -4.9202 F   0  0  0  0  0  0  0  0  0  0  0  0
   40.0540   16.7190   -4.4443 C   0  0  0  0  0  0  0  0  0  0  0  0
   40.8967   15.5935   -4.4920 O   0  0  0  0  0  0  0  0  0  0  0  0
   41.5273   15.0862   -5.6147 C   0  0  0  0  0  0  0  0  0  0  0  0
   42.6474   14.3379   -5.3490 C   0  0  0  0  0  0  0  0  0  0  0  0
   43.3598   13.7805   -6.3857 C   0  0  0  0  0  0  0  0  0  0  0  0
   43.0138   13.9276   -7.7135 C   0  0  0  0  0  0  0  0  0  0  0  0
   41.8840   14.6844   -7.9502 C   0  0  0  0  0  0  0  0  0  0  0  0
   41.1452   15.2592   -6.9228 C   0  0  0  0  0  0  0  0  0  0  0  0
   34.4070   17.6512   -6.8206 C   0  0  0  0  0  0  0  0  0  0  0  0
   35.6774   17.0428   -7.1726 N   0  0  0  0  0  0  0  0  0  0  0  0
   36.8846   17.7727   -7.2517 C   0  0  0  0  0  0  0  0  0  0  0  0
   36.8090   18.9978   -6.9849 O   0  0  0  0  0  0  0  0  0  0  0  0
   35.6439   16.0119   -7.3414 H   0  0  0  0  0  0  0  0  0  0  0  0
   38.1937   17.4164  -10.1687 C   0  0  0  0  0  0  0  0  0  0  0  0
   37.8594   16.5425  -11.2081 N   0  0  0  0  0  0  0  0  0  0  0  0
   38.0777   18.6716  -10.3830 O   0  0  0  0  0  0  0  0  0  0  0  0
   37.2816   15.6905  -11.0453 H   0  0  0  0  0  0  0  0  0  0  0  0
   38.1724   16.7030  -12.1917 H   0  0  0  0  0  0  0  0  0  0  0  0
   43.7715   13.3362   -8.7889 C   0  0  0  0  0  0  0  0  0  0  0  0
   44.4120   12.8261   -9.6755 C   0  0  0  0  0  0  0  0  0  0  0  0
   45.2007   12.1852  -10.7406 C   0  0  0  0  0  0  0  0  0  0  0  0
   44.9464   10.8174  -10.8067 O   0  0  0  0  0  0  0  0  0  0  0  0
   46.6560   12.5008  -10.6558 C   0  0  0  0  0  0  0  0  0  0  0  0
   47.0429   13.2082  -11.9229 C   0  0  0  0  0  0  0  0  0  0  0  0
   45.9308   13.0487  -12.8061 N   0  0  0  0  0  0  0  0  0  0  0  0
   46.0450   13.1522  -14.2587 C   0  0  0  0  0  0  0  0  0  0  0  0
   44.7888   12.7904  -12.0241 C   0  0  0  0  0  0  0  0  0  0  0  0
   43.6086   13.0287  -12.3489 O   0  0  0  0  0  0  0  0  0  0  0  0
   44.8456   10.4982   -9.8673 H   0  0  0  0  0  0  0  0  0  0  0  0
 16 17  1  0  0  0
 17 18  1  0  0  0
 18 19  2  0  0  0
 18  1  1  0  0  0
  1  2  1  0  0  0
  2  3  2  0  0  0
  3  4  1  0  0  0
  4  5  1  0  0  0
  5  6  1  0  0  0
  6  7  1  0  0  0
  6  8  1  0  0  0
  8  9  1  0  0  0
  9 10  1  0  0  0
 10 11  2  0  0  0
 11 12  1  0  0  0
 12 13  2  0  0  0
 13 14  1  0  0  0
 14 15  2  0  0  0
 13 26  1  0  0  0
 26 27  3  0  0  0
 28 27  1  0  0  0
 28 29  1  0  0  0
 28 30  1  0  0  0
 30 31  1  0  0  0
 31 32  1  0  0  0
 32 33  1  0  0  0
 32 34  1  0  0  0
 34 35  2  0  0  0
  2 21  1  0  0  0
 21 22  1  0  0  0
 21 23  2  0  0  0
  5  1  2  0  0  0
 15 10  1  0  0  0
 34 28  1  0  0  0
  4 15  1  0  0  0
 17 20  1  0  0  0
 29 36  1  0  0  0
 22 24  1  0  0  0
 22 25  1  0  0  0
M  END
> <minimizedAffinity>
-5.71375

> <CNNscore>
0.3332824409

> <CNNaffinity>
5.2522230148

> <CNN_VS>
1.7504737377

> <CNNaffinity_variance>
0.6469360590

$$$$
[H]O[C@]1(C#Cc2c([H])c([H])c3c(c2[H])-n2nc(C(=O)N([H])[H])c(C(=O)N([H])C([H])([H])[H])c2[C@@]([H])(F)C([H])([H])O3)C(=O)N(C([H])([H])[H])C([H])([H])C1([H])[H]


 36 39  0  0  0  0  0  0  0  0999 V2000
   35.3739   15.3964   -8.0253 C   0  0  0  0  0  0  0  0  0  0  0  0
   36.1204   15.1974   -9.1667 C   0  0  0  0  0  0  0  0  0  0  0  0
   37.4446   15.1834   -8.7657 N   0  0  0  0  0  0  0  0  0  0  0  0
   37.5058   15.3640   -7.4756 N   0  0  0  0  0  0  0  0  0  0  0  0
   36.2713   15.5039   -6.9490 C   0  0  0  0  0  0  0  0  0  0  0  0
   35.8116   15.7150   -5.5850 C   0  0  0  0  0  0  0  0  0  0  0  0
   35.8954   14.4658   -4.9444 F   0  0  0  0  0  0  0  0  0  0  0  0
   36.7108   16.6219   -4.7768 C   0  0  0  0  0  0  0  0  0  0  0  0
   37.9727   16.0692   -4.4916 O   0  0  0  0  0  0  0  0  0  0  0  0
   38.9414   15.7134   -5.4139 C   0  0  0  0  0  0  0  0  0  0  0  0
   40.2195   15.6810   -4.9132 C   0  0  0  0  0  0  0  0  0  0  0  0
   41.2683   15.3405   -5.7359 C   0  0  0  0  0  0  0  0  0  0  0  0
   41.1173   15.0200   -7.0698 C   0  0  0  0  0  0  0  0  0  0  0  0
   39.8220   15.0609   -7.5451 C   0  0  0  0  0  0  0  0  0  0  0  0
   38.7437   15.4013   -6.7370 C   0  0  0  0  0  0  0  0  0  0  0  0
   31.6588   16.3783   -8.3666 C   0  0  0  0  0  0  0  0  0  0  0  0
   33.1054   16.3724   -8.4887 N   0  0  0  0  0  0  0  0  0  0  0  0
   33.9236   15.3841   -7.8971 C   0  0  0  0  0  0  0  0  0  0  0  0
   33.3276   14.4830   -7.2565 O   0  0  0  0  0  0  0  0  0  0  0  0
   33.5046   17.1430   -9.0712 H   0  0  0  0  0  0  0  0  0  0  0  0
   35.7093   15.1141  -10.5595 C   0  0  0  0  0  0  0  0  0  0  0  0
   35.8743   13.9455  -11.3097 N   0  0  0  0  0  0  0  0  0  0  0  0
   35.1737   16.1226  -11.1346 O   0  0  0  0  0  0  0  0  0  0  0  0
   35.6321   13.0073  -10.9259 H   0  0  0  0  0  0  0  0  0  0  0  0
   36.2465   13.9593  -12.2857 H   0  0  0  0  0  0  0  0  0  0  0  0
   42.2277   14.6648   -7.9189 C   0  0  0  0  0  0  0  0  0  0  0  0
   43.1702   14.3710   -8.6132 C   0  0  0  0  0  0  0  0  0  0  0  0
   44.3355   14.0167   -9.4400 C   0  0  0  0  0  0  0  0  0  0  0  0
   45.3779   14.9233   -9.2620 O   0  0  0  0  0  0  0  0  0  0  0  0
   43.9876   13.8081  -10.8753 C   0  0  0  0  0  0  0  0  0  0  0  0
   44.3380   12.3906  -11.2272 C   0  0  0  0  0  0  0  0  0  0  0  0
   45.1112   11.9028  -10.1288 N   0  0  0  0  0  0  0  0  0  0  0  0
   46.0368   10.7785  -10.2423 C   0  0  0  0  0  0  0  0  0  0  0  0
   44.8048   12.6866   -8.9999 C   0  0  0  0  0  0  0  0  0  0  0  0
   44.9078   12.3294   -7.8095 O   0  0  0  0  0  0  0  0  0  0  0  0
   44.9623   15.8256   -9.1756 H   0  0  0  0  0  0  0  0  0  0  0  0
 16 17  1  0  0  0
 17 18  1  0  0  0
 18 19  2  0  0  0
 18  1  1  0  0  0
  1  2  1  0  0  0
  2  3  2  0  0  0
  3  4  1  0  0  0
  4  5  1  0  0  0
  5  6  1  0  0  0
  6  7  1  0  0  0
  6  8  1  0  0  0
  8  9  1  0  0  0
  9 10  1  0  0  0
 10 11  2  0  0  0
 11 12  1  0  0  0
 12 13  2  0  0  0
 13 14  1  0  0  0
 14 15  2  0  0  0
 13 26  1  0  0  0
 26 27  3  0  0  0
 28 27  1  0  0  0
 28 29  1  0  0  0
 28 30  1  0  0  0
 30 31  1  0  0  0
 31 32  1  0  0  0
 32 33  1  0  0  0
 32 34  1  0  0  0
 34 35  2  0  0  0
  2 21  1  0  0  0
 21 22  1  0  0  0
 21 23  2  0  0  0
  5  1  2  0  0  0
 15 10  1  0  0  0
 34 28  1  0  0  0
  4 15  1  0  0  0
 17 20  1  0  0  0
 29 36  1  0  0  0
 22 24  1  0  0  0
 22 25  1  0  0  0
M  END
> <minimizedAffinity>
-5.58087

> <CNNscore>
0.3168454468

> <CNNaffinity>
5.2985634804

> <CNN_VS>
1.6788257360

> <CNNaffinity_variance>
0.6711071730

$$$$
[H]O[C@]1(C#Cc2c([H])c([H])c3c(c2[H])-n2nc(C(=O)N([H])[H])c(C(=O)N([H])C([H])([H])[H])c2[C@@]([H])(F)C([H])([H])O3)C(=O)N(C([H])([H])[H])C([H])([H])C1([H])[H]


 36 39  0  0  0  0  0  0  0  0999 V2000
   36.7783   12.1184  -15.7260 C   0  0  0  0  0  0  0  0  0  0  0  0
   37.8813   11.6997  -16.4383 C   0  0  0  0  0  0  0  0  0  0  0  0
   38.9694   12.3519  -15.8859 N   0  0  0  0  0  0  0  0  0  0  0  0
   38.5636   13.1161  -14.9103 N   0  0  0  0  0  0  0  0  0  0  0  0
   37.2265   13.0268  -14.7516 C   0  0  0  0  0  0  0  0  0  0  0  0
   36.3113   13.6617  -13.8158 C   0  0  0  0  0  0  0  0  0  0  0  0
   36.4575   12.9759  -12.5967 F   0  0  0  0  0  0  0  0  0  0  0  0
   36.6706   15.0943  -13.4957 C   0  0  0  0  0  0  0  0  0  0  0  0
   37.8595   15.2342  -12.7567 O   0  0  0  0  0  0  0  0  0  0  0  0
   39.1300   14.8698  -13.1675 C   0  0  0  0  0  0  0  0  0  0  0  0
   40.1472   15.5365  -12.5304 C   0  0  0  0  0  0  0  0  0  0  0  0
   41.4553   15.2596  -12.8544 C   0  0  0  0  0  0  0  0  0  0  0  0
   41.8242   14.3294  -13.8048 C   0  0  0  0  0  0  0  0  0  0  0  0
   40.7810   13.6751  -14.4285 C   0  0  0  0  0  0  0  0  0  0  0  0
   39.4506   13.9346  -14.1213 C   0  0  0  0  0  0  0  0  0  0  0  0
   33.4754   10.8124  -17.2322 C   0  0  0  0  0  0  0  0  0  0  0  0
   34.8418   11.2824  -17.0915 N   0  0  0  0  0  0  0  0  0  0  0  0
   35.4072   11.6438  -15.8482 C   0  0  0  0  0  0  0  0  0  0  0  0
   34.6605   11.5250  -14.8453 O   0  0  0  0  0  0  0  0  0  0  0  0
   35.3941   11.3124  -17.9784 H   0  0  0  0  0  0  0  0  0  0  0  0
   37.9777   10.8404  -17.6081 C   0  0  0  0  0  0  0  0  0  0  0  0
   38.9541   11.0361  -18.5900 N   0  0  0  0  0  0  0  0  0  0  0  0
   37.1620    9.8679  -17.7622 O   0  0  0  0  0  0  0  0  0  0  0  0
   39.9485   11.2299  -18.3452 H   0  0  0  0  0  0  0  0  0  0  0  0
   38.7322   10.9973  -19.6100 H   0  0  0  0  0  0  0  0  0  0  0  0
   43.2008   14.0506  -14.1328 C   0  0  0  0  0  0  0  0  0  0  0  0
   44.3588   13.8322  -14.3933 C   0  0  0  0  0  0  0  0  0  0  0  0
   45.7783   13.5840  -14.6940 C   0  0  0  0  0  0  0  0  0  0  0  0
   45.9721   13.3266  -16.0492 O   0  0  0  0  0  0  0  0  0  0  0  0
   46.3854   12.5440  -13.8140 C   0  0  0  0  0  0  0  0  0  0  0  0
   47.5064   13.1906  -13.0516 C   0  0  0  0  0  0  0  0  0  0  0  0
   47.7127   14.4595  -13.6759 N   0  0  0  0  0  0  0  0  0  0  0  0
   48.9686   15.1995  -13.5818 C   0  0  0  0  0  0  0  0  0  0  0  0
   46.5268   14.8104  -14.3489 C   0  0  0  0  0  0  0  0  0  0  0  0
   46.1525   15.9688  -14.6192 O   0  0  0  0  0  0  0  0  0  0  0  0
   45.1956   12.7788  -16.3514 H   0  0  0  0  0  0  0  0  0  0  0  0
 16 17  1  0  0  0
 17 18  1  0  0  0
 18 19  2  0  0  0
 18  1  1  0  0  0
  1  2  1  0  0  0
  2  3  2  0  0  0
  3  4  1  0  0  0
  4  5  1  0  0  0
  5  6  1  0  0  0
  6  7  1  0  0  0
  6  8  1  0  0  0
  8  9  1  0  0  0
  9 10  1  0  0  0
 10 11  2  0  0  0
 11 12  1  0  0  0
 12 13  2  0  0  0
 13 14  1  0  0  0
 14 15  2  0  0  0
 13 26  1  0  0  0
 26 27  3  0  0  0
 28 27  1  0  0  0
 28 29  1  0  0  0
 28 30  1  0  0  0
 30 31  1  0  0  0
 31 32  1  0  0  0
 32 33  1  0  0  0
 32 34  1  0  0  0
 34 35  2  0  0  0
  2 21  1  0  0  0
 21 22  1  0  0  0
 21 23  2  0  0  0
  5  1  2  0  0  0
 15 10  1  0  0  0
 34 28  1  0  0  0
  4 15  1  0  0  0
 17 20  1  0  0  0
 29 36  1  0  0  0
 22 24  1  0  0  0
 22 25  1  0  0  0
M  END
> <minimizedAffinity>
-8.85786

> <CNNscore>
0.3110880554

> <CNNaffinity>
6.6438493729

> <CNN_VS>
2.0668222904

> <CNNaffinity_variance>
0.2161536217

$$$$
[H]O[C@]1(C#Cc2c([H])c([H])c3c(c2[H])-n2nc(C(=O)N([H])[H])c(C(=O)N([H])C([H])([H])[H])c2[C@@]([H])(F)C([H])([H])O3)C(=O)N(C([H])([H])[H])C([H])([H])C1([H])[H]


 36 39  0  0  0  0  0  0  0  0999 V2000
   38.0881   12.7314  -15.3200 C   0  0  0  0  0  0  0  0  0  0  0  0
   39.2915   12.6264  -15.9835 C   0  0  0  0  0  0  0  0  0  0  0  0
   40.1873   13.4196  -15.2885 N   0  0  0  0  0  0  0  0  0  0  0  0
   39.5779   13.9723  -14.2767 N   0  0  0  0  0  0  0  0  0  0  0  0
   38.2825   13.5973  -14.2301 C   0  0  0  0  0  0  0  0  0  0  0  0
   37.2051   13.9257  -13.3094 C   0  0  0  0  0  0  0  0  0  0  0  0
   37.4247   13.1522  -12.1556 F   0  0  0  0  0  0  0  0  0  0  0  0
   37.2387   15.3567  -12.8244 C   0  0  0  0  0  0  0  0  0  0  0  0
   38.3299   15.6509  -11.9865 O   0  0  0  0  0  0  0  0  0  0  0  0
   39.6689   15.5991  -12.3327 C   0  0  0  0  0  0  0  0  0  0  0  0
   40.4879   16.3825  -11.5576 C   0  0  0  0  0  0  0  0  0  0  0  0
   41.8406   16.4137  -11.8062 C   0  0  0  0  0  0  0  0  0  0  0  0
   42.4473   15.6892  -12.8120 C   0  0  0  0  0  0  0  0  0  0  0  0
   41.5997   14.9111  -13.5746 C   0  0  0  0  0  0  0  0  0  0  0  0
   40.2297   14.8602  -13.3460 C   0  0  0  0  0  0  0  0  0  0  0  0
   35.1952   11.0012  -17.1964 C   0  0  0  0  0  0  0  0  0  0  0  0
   36.4237   11.7186  -16.9067 N   0  0  0  0  0  0  0  0  0  0  0  0
   36.8554   12.0059  -15.5924 C   0  0  0  0  0  0  0  0  0  0  0  0
   36.1173   11.5917  -14.6645 O   0  0  0  0  0  0  0  0  0  0  0  0
   36.9870   11.9900  -17.7442 H   0  0  0  0  0  0  0  0  0  0  0  0
   39.6293   11.9402  -17.2208 C   0  0  0  0  0  0  0  0  0  0  0  0
   40.4029   12.5476  -18.2149 N   0  0  0  0  0  0  0  0  0  0  0  0
   39.2243   10.7449  -17.4258 O   0  0  0  0  0  0  0  0  0  0  0  0
   41.2674   13.0835  -17.9877 H   0  0  0  0  0  0  0  0  0  0  0  0
   40.1506   12.4922  -19.2271 H   0  0  0  0  0  0  0  0  0  0  0  0
   43.8675   15.7329  -13.0595 C   0  0  0  0  0  0  0  0  0  0  0  0
   45.0528   15.7850  -13.2806 C   0  0  0  0  0  0  0  0  0  0  0  0
   46.4943   15.8677  -13.5674 C   0  0  0  0  0  0  0  0  0  0  0  0
   46.7971   15.3126  -14.8085 O   0  0  0  0  0  0  0  0  0  0  0  0
   47.3381   15.3201  -12.4661 C   0  0  0  0  0  0  0  0  0  0  0  0
   48.2080   16.4356  -11.9613 C   0  0  0  0  0  0  0  0  0  0  0  0
   48.0724   17.4898  -12.9166 N   0  0  0  0  0  0  0  0  0  0  0  0
   49.0679   18.5453  -13.0858 C   0  0  0  0  0  0  0  0  0  0  0  0
   46.8587   17.2992  -13.6045 C   0  0  0  0  0  0  0  0  0  0  0  0
   46.1851   18.1878  -14.1627 O   0  0  0  0  0  0  0  0  0  0  0  0
   46.2150   14.5099  -14.9139 H   0  0  0  0  0  0  0  0  0  0  0  0
 16 17  1  0  0  0
 17 18  1  0  0  0
 18 19  2  0  0  0
 18  1  1  0  0  0
  1  2  1  0  0  0
  2  3  2  0  0  0
  3  4  1  0  0  0
  4  5  1  0  0  0
  5  6  1  0  0  0
  6  7  1  0  0  0
  6  8  1  0  0  0
  8  9  1  0  0  0
  9 10  1  0  0  0
 10 11  2  0  0  0
 11 12  1  0  0  0
 12 13  2  0  0  0
 13 14  1  0  0  0
 14 15  2  0  0  0
 13 26  1  0  0  0
 26 27  3  0  0  0
 28 27  1  0  0  0
 28 29  1  0  0  0
 28 30  1  0  0  0
 30 31  1  0  0  0
 31 32  1  0  0  0
 32 33  1  0  0  0
 32 34  1  0  0  0
 34 35  2  0  0  0
  2 21  1  0  0  0
 21 22  1  0  0  0
 21 23  2  0  0  0
  5  1  2  0  0  0
 15 10  1  0  0  0
 34 28  1  0  0  0
  4 15  1  0  0  0
 17 20  1  0  0  0
 29 36  1  0  0  0
 22 24  1  0  0  0
 22 25  1  0  0  0
M  END
> <minimizedAffinity>
-8.15989

> <CNNscore>
0.2865253687

> <CNNaffinity>
6.1661581993

> <CNN_VS>
1.7667607069

> <CNNaffinity_variance>
0.1165601015

$$$$
[H]O[C@]1(C#Cc2c([H])c([H])c3c(c2[H])-n2nc(C(=O)N([H])[H])c(C(=O)N([H])C([H])([H])[H])c2[C@@]([H])(F)C([H])([H])O3)C(=O)N(C([H])([H])[H])C([H])([H])C1([H])[H]


 36 39  0  0  0  0  0  0  0  0999 V2000
   45.3543   12.7959  -11.5776 C   0  0  0  0  0  0  0  0  0  0  0  0
   44.1879   13.5293  -11.5464 C   0  0  0  0  0  0  0  0  0  0  0  0
   43.7206   13.4585  -10.2461 N   0  0  0  0  0  0  0  0  0  0  0  0
   44.5373   12.7329   -9.5339 N   0  0  0  0  0  0  0  0  0  0  0  0
   45.5671   12.2887  -10.2842 C   0  0  0  0  0  0  0  0  0  0  0  0
   46.7236   11.4665   -9.9632 C   0  0  0  0  0  0  0  0  0  0  0  0
   47.6308   12.3081   -9.2950 F   0  0  0  0  0  0  0  0  0  0  0  0
   46.4255   10.3622   -8.9753 C   0  0  0  0  0  0  0  0  0  0  0  0
   46.1253   10.8201   -7.6794 O   0  0  0  0  0  0  0  0  0  0  0  0
   45.0505   11.6131   -7.3167 C   0  0  0  0  0  0  0  0  0  0  0  0
   44.6883   11.5115   -5.9961 C   0  0  0  0  0  0  0  0  0  0  0  0
   43.6328   12.2526   -5.5171 C   0  0  0  0  0  0  0  0  0  0  0  0
   42.8919   13.1164   -6.2979 C   0  0  0  0  0  0  0  0  0  0  0  0
   43.2787   13.1979   -7.6205 C   0  0  0  0  0  0  0  0  0  0  0  0
   44.3407   12.4613   -8.1314 C   0  0  0  0  0  0  0  0  0  0  0  0
   48.1756   13.5050  -14.1115 C   0  0  0  0  0  0  0  0  0  0  0  0
   47.2454   13.6336  -13.0043 N   0  0  0  0  0  0  0  0  0  0  0  0
   46.2833   12.6482  -12.6889 C   0  0  0  0  0  0  0  0  0  0  0  0
   46.2779   11.6263  -13.4193 O   0  0  0  0  0  0  0  0  0  0  0  0
   47.3523   14.5028  -12.4337 H   0  0  0  0  0  0  0  0  0  0  0  0
   43.4598   14.1885  -12.6194 C   0  0  0  0  0  0  0  0  0  0  0  0
   42.3759   13.5794  -13.2595 N   0  0  0  0  0  0  0  0  0  0  0  0
   43.7974   15.3611  -13.0016 O   0  0  0  0  0  0  0  0  0  0  0  0
   41.6306   13.0833  -12.7259 H   0  0  0  0  0  0  0  0  0  0  0  0
   42.2639   13.5937  -14.2980 H   0  0  0  0  0  0  0  0  0  0  0  0
   41.7879   13.8866   -5.7800 C   0  0  0  0  0  0  0  0  0  0  0  0
   40.8530   14.5266   -5.3643 C   0  0  0  0  0  0  0  0  0  0  0  0
   39.6995   15.3016   -4.8787 C   0  0  0  0  0  0  0  0  0  0  0  0
   40.0864   16.2479   -3.9327 O   0  0  0  0  0  0  0  0  0  0  0  0
   38.5761   14.4395   -4.4101 C   0  0  0  0  0  0  0  0  0  0  0  0
   37.3801   14.7455   -5.2655 C   0  0  0  0  0  0  0  0  0  0  0  0
   37.7223   15.9258   -5.9950 N   0  0  0  0  0  0  0  0  0  0  0  0
   36.7249   16.8267   -6.5672 C   0  0  0  0  0  0  0  0  0  0  0  0
   39.1266   16.0188   -6.0366 C   0  0  0  0  0  0  0  0  0  0  0  0
   39.7968   16.6097   -6.9065 O   0  0  0  0  0  0  0  0  0  0  0  0
   40.7948   15.8229   -3.3742 H   0  0  0  0  0  0  0  0  0  0  0  0
 16 17  1  0  0  0
 17 18  1  0  0  0
 18 19  2  0  0  0
 18  1  1  0  0  0
  1  2  1  0  0  0
  2  3  2  0  0  0
  3  4  1  0  0  0
  4  5  1  0  0  0
  5  6  1  0  0  0
  6  7  1  0  0  0
  6  8  1  0  0  0
  8  9  1  0  0  0
  9 10  1  0  0  0
 10 11  2  0  0  0
 11 12  1  0  0  0
 12 13  2  0  0  0
 13 14  1  0  0  0
 14 15  2  0  0  0
 13 26  1  0  0  0
 26 27  3  0  0  0
 28 27  1  0  0  0
 28 29  1  0  0  0
 28 30  1  0  0  0
 30 31  1  0  0  0
 31 32  1  0  0  0
 32 33  1  0  0  0
 32 34  1  0  0  0
 34 35  2  0  0  0
  2 21  1  0  0  0
 21 22  1  0  0  0
 21 23  2  0  0  0
  5  1  2  0  0  0
 15 10  1  0  0  0
 34 28  1  0  0  0
  4 15  1  0  0  0
 17 20  1  0  0  0
 29 36  1  0  0  0
 22 24  1  0  0  0
 22 25  1  0  0  0
M  END
> <minimizedAffinity>
-5.49110

> <CNNscore>
0.2860218287

> <CNNaffinity>
5.0381298065

> <CNN_VS>
1.4410151243

> <CNNaffinity_variance>
0.3511618972

$$$$
[H]O[C@]1(C#Cc2c([H])c([H])c([H])c(-c3nc(C(=O)N([H])[H])n4c([H])c(OC([H])([H])[H])c([H])c([H])c34)c2[H])C(=O)N(C([H])([H])[H])C([H])([H])C1([H])[H]


 33 36  0  0  0  0  0  0  0  0999 V2000
   36.5751   12.5450  -15.0043 C   0  0  0  0  0  0  0  0  0  0  0  0
   35.3660   11.9405  -15.3464 C   0  0  0  0  0  0  0  0  0  0  0  0
   34.2584   12.1314  -14.5685 C   0  0  0  0  0  0  0  0  0  0  0  0
   34.3404   12.9216  -13.4474 C   0  0  0  0  0  0  0  0  0  0  0  0
   35.5122   13.5457  -13.0598 C   0  0  0  0  0  0  0  0  0  0  0  0
   36.6085   13.3199  -13.8836 C   0  0  0  0  0  0  0  0  0  0  0  0
   41.7601   13.2813  -15.4679 C   0  0  0  0  0  0  0  0  0  0  0  0
   40.9787   13.6799  -14.4135 C   0  0  0  0  0  0  0  0  0  0  0  0
   39.6266   13.3771  -14.5026 C   0  0  0  0  0  0  0  0  0  0  0  0
   39.0633   12.7155  -15.5718 C   0  0  0  0  0  0  0  0  0  0  0  0
   37.7692   12.3305  -15.8444 C   0  0  0  0  0  0  0  0  0  0  0  0
   37.8175   11.7213  -17.0402 N   0  0  0  0  0  0  0  0  0  0  0  0
   39.1006   11.7164  -17.5168 C   0  0  0  0  0  0  0  0  0  0  0  0
   39.8808   12.3367  -16.6016 N   0  0  0  0  0  0  0  0  0  0  0  0
   41.2003   12.6197  -16.5387 C   0  0  0  0  0  0  0  0  0  0  0  0
   39.5436   11.1484  -18.7774 C   0  0  0  0  0  0  0  0  0  0  0  0
   38.5831   10.6690  -19.7044 N   0  0  0  0  0  0  0  0  0  0  0  0
   40.7508   11.0681  -19.0728 O   0  0  0  0  0  0  0  0  0  0  0  0
   37.7688   10.0729  -19.4377 H   0  0  0  0  0  0  0  0  0  0  0  0
   38.6488   10.8996  -20.7386 H   0  0  0  0  0  0  0  0  0  0  0  0
   44.0874   12.7296  -16.0320 C   0  0  0  0  0  0  0  0  0  0  0  0
   43.1120   13.5445  -15.4554 O   0  0  0  0  0  0  0  0  0  0  0  0
   35.6150   14.3745  -11.8923 C   0  0  0  0  0  0  0  0  0  0  0  0
   35.6898   15.0568  -10.9015 C   0  0  0  0  0  0  0  0  0  0  0  0
   35.7852   15.8775   -9.6683 C   0  0  0  0  0  0  0  0  0  0  0  0
   34.5281   16.3218   -9.3199 O   0  0  0  0  0  0  0  0  0  0  0  0
   36.6940   17.0599   -9.8802 C   0  0  0  0  0  0  0  0  0  0  0  0
   37.7103   16.9856   -8.7913 C   0  0  0  0  0  0  0  0  0  0  0  0
   37.6221   15.6445   -8.2334 N   0  0  0  0  0  0  0  0  0  0  0  0
   38.6448   15.0703   -7.3846 C   0  0  0  0  0  0  0  0  0  0  0  0
   36.4155   15.0320   -8.6498 C   0  0  0  0  0  0  0  0  0  0  0  0
   35.9740   13.9519   -8.2140 O   0  0  0  0  0  0  0  0  0  0  0  0
   34.2756   17.0813   -9.9012 H   0  0  0  0  0  0  0  0  0  0  0  0
 21 22  1  0  0  0
 22  7  1  0  0  0
  7  8  1  0  0  0
  8  9  2  0  0  0
  9 10  1  0  0  0
 10 11  2  0  0  0
 11 12  1  0  0  0
 12 13  2  0  0  0
 13 16  1  0  0  0
 16 17  1  0  0  0
 16 18  2  0  0  0
 13 14  1  0  0  0
 14 15  1  0  0  0
 11  1  1  0  0  0
  1  2  2  0  0  0
  2  3  1  0  0  0
  3  4  2  0  0  0
  4  5  1  0  0  0
  5  6  2  0  0  0
  5 23  1  0  0  0
 23 24  3  0  0  0
 25 24  1  0  0  0
 25 26  1  0  0  0
 25 27  1  0  0  0
 27 28  1  0  0  0
 28 29  1  0  0  0
 29 30  1  0  0  0
 29 31  1  0  0  0
 31 32  2  0  0  0
 15  7  2  0  0  0
  6  1  1  0  0  0
 31 25  1  0  0  0
 14 10  1  0  0  0
 17 19  1  0  0  0
 17 20  1  0  0  0
 26 33  1  0  0  0
M  END
> <minimizedAffinity>
-9.02684

> <CNNscore>
0.9696528316

> <CNNaffinity>
7.5421090126

> <CNN_VS>
7.3132271767

> <CNNaffinity_variance>
0.0823594779

$$$$
[H]O[C@]1(C#Cc2c([H])c([H])c([H])c(-c3nc(C(=O)N([H])[H])n4c([H])c(OC([H])([H])[H])c([H])c([H])c34)c2[H])C(=O)N(C([H])([H])[H])C([H])([H])C1([H])[H]


 33 36  0  0  0  0  0  0  0  0999 V2000
   40.8009   13.5377  -14.7846 C   0  0  0  0  0  0  0  0  0  0  0  0
   40.2580   14.5696  -14.0198 C   0  0  0  0  0  0  0  0  0  0  0  0
   41.0336   15.2302  -13.1085 C   0  0  0  0  0  0  0  0  0  0  0  0
   42.3510   14.8739  -12.9484 C   0  0  0  0  0  0  0  0  0  0  0  0
   42.9424   13.8593  -13.6788 C   0  0  0  0  0  0  0  0  0  0  0  0
   42.1120   13.2193  -14.5912 C   0  0  0  0  0  0  0  0  0  0  0  0
   35.9959   11.6972  -15.8642 C   0  0  0  0  0  0  0  0  0  0  0  0
   36.3674   12.3679  -14.7268 C   0  0  0  0  0  0  0  0  0  0  0  0
   37.6958   12.7652  -14.6548 C   0  0  0  0  0  0  0  0  0  0  0  0
   38.6189   12.5195  -15.6475 C   0  0  0  0  0  0  0  0  0  0  0  0
   39.9574   12.8239  -15.7627 C   0  0  0  0  0  0  0  0  0  0  0  0
   40.3393   12.3305  -16.9518 N   0  0  0  0  0  0  0  0  0  0  0  0
   39.2799   11.7304  -17.5771 C   0  0  0  0  0  0  0  0  0  0  0  0
   38.2040   11.8471  -16.7647 N   0  0  0  0  0  0  0  0  0  0  0  0
   36.9163   11.4496  -16.8587 C   0  0  0  0  0  0  0  0  0  0  0  0
   39.3067   11.0849  -18.8773 C   0  0  0  0  0  0  0  0  0  0  0  0
   38.0936   10.6410  -19.4629 N   0  0  0  0  0  0  0  0  0  0  0  0
   40.3706   10.9071  -19.4999 O   0  0  0  0  0  0  0  0  0  0  0  0
   37.3577   10.1153  -18.9414 H   0  0  0  0  0  0  0  0  0  0  0  0
   37.8712   10.8271  -20.4841 H   0  0  0  0  0  0  0  0  0  0  0  0
   34.3013   10.1639  -16.7677 C   0  0  0  0  0  0  0  0  0  0  0  0
   34.6951   11.2692  -16.0119 O   0  0  0  0  0  0  0  0  0  0  0  0
   44.3168   13.4748  -13.5244 C   0  0  0  0  0  0  0  0  0  0  0  0
   45.4672   13.1352  -13.4063 C   0  0  0  0  0  0  0  0  0  0  0  0
   46.8845   12.7112  -13.2840 C   0  0  0  0  0  0  0  0  0  0  0  0
   46.9318   11.3725  -12.9606 O   0  0  0  0  0  0  0  0  0  0  0  0
   47.5929   13.5091  -12.2207 C   0  0  0  0  0  0  0  0  0  0  0  0
   48.7960   14.0864  -12.8866 C   0  0  0  0  0  0  0  0  0  0  0  0
   48.5818   13.9499  -14.3194 N   0  0  0  0  0  0  0  0  0  0  0  0
   49.3572   14.6683  -15.3088 C   0  0  0  0  0  0  0  0  0  0  0  0
   47.5301   13.0332  -14.5602 C   0  0  0  0  0  0  0  0  0  0  0  0
   47.2159   12.5825  -15.6781 O   0  0  0  0  0  0  0  0  0  0  0  0
   46.7320   11.2599  -11.9983 H   0  0  0  0  0  0  0  0  0  0  0  0
 21 22  1  0  0  0
 22  7  1  0  0  0
  7  8  1  0  0  0
  8  9  2  0  0  0
  9 10  1  0  0  0
 10 11  2  0  0  0
 11 12  1  0  0  0
 12 13  2  0  0  0
 13 16  1  0  0  0
 16 17  1  0  0  0
 16 18  2  0  0  0
 13 14  1  0  0  0
 14 15  1  0  0  0
 11  1  1  0  0  0
  1  2  2  0  0  0
  2  3  1  0  0  0
  3  4  2  0  0  0
  4  5  1  0  0  0
  5  6  2  0  0  0
  5 23  1  0  0  0
 23 24  3  0  0  0
 25 24  1  0  0  0
 25 26  1  0  0  0
 25 27  1  0  0  0
 27 28  1  0  0  0
 28 29  1  0  0  0
 29 30  1  0  0  0
 29 31  1  0  0  0
 31 32  2  0  0  0
 15  7  2  0  0  0
  6  1  1  0  0  0
 31 25  1  0  0  0
 14 10  1  0  0  0
 17 19  1  0  0  0
 17 20  1  0  0  0
 26 33  1  0  0  0
M  END
> <minimizedAffinity>
-8.70858

> <CNNscore>
0.9217908978

> <CNNaffinity>
7.2544412613

> <CNN_VS>
6.6870779991

> <CNNaffinity_variance>
0.2036975324

$$$$
[H]O[C@]1(C#Cc2c([H])c([H])c([H])c(-c3nc(C(=O)N([H])[H])n4c([H])c(OC([H])([H])[H])c([H])c([H])c34)c2[H])C(=O)N(C([H])([H])[H])C([H])([H])C1([H])[H]


 33 36  0  0  0  0  0  0  0  0999 V2000
   40.5191   13.6361  -14.6584 C   0  0  0  0  0  0  0  0  0  0  0  0
   39.9705   14.7439  -14.0133 C   0  0  0  0  0  0  0  0  0  0  0  0
   40.7140   15.4503  -13.1096 C   0  0  0  0  0  0  0  0  0  0  0  0
   42.0048   15.0648  -12.8388 C   0  0  0  0  0  0  0  0  0  0  0  0
   42.6004   13.9754  -13.4479 C   0  0  0  0  0  0  0  0  0  0  0  0
   41.8030   13.2913  -14.3577 C   0  0  0  0  0  0  0  0  0  0  0  0
   35.8012   11.5745  -15.7228 C   0  0  0  0  0  0  0  0  0  0  0  0
   36.1404   12.2755  -14.5937 C   0  0  0  0  0  0  0  0  0  0  0  0
   37.4501   12.7311  -14.5243 C   0  0  0  0  0  0  0  0  0  0  0  0
   38.3855   12.5128  -15.5119 C   0  0  0  0  0  0  0  0  0  0  0  0
   39.7097   12.8735  -15.6286 C   0  0  0  0  0  0  0  0  0  0  0  0
   40.1157   12.3817  -16.8103 N   0  0  0  0  0  0  0  0  0  0  0  0
   39.0849   11.7279  -17.4297 C   0  0  0  0  0  0  0  0  0  0  0  0
   38.0030   11.8084  -16.6209 N   0  0  0  0  0  0  0  0  0  0  0  0
   36.7340   11.3541  -16.7122 C   0  0  0  0  0  0  0  0  0  0  0  0
   39.1429   11.0672  -18.7212 C   0  0  0  0  0  0  0  0  0  0  0  0
   37.9483   10.5847  -19.3142 N   0  0  0  0  0  0  0  0  0  0  0  0
   40.2180   10.9095  -19.3299 O   0  0  0  0  0  0  0  0  0  0  0  0
   37.2206   10.0466  -18.7941 H   0  0  0  0  0  0  0  0  0  0  0  0
   37.7327   10.7522  -20.3401 H   0  0  0  0  0  0  0  0  0  0  0  0
   33.8153   11.0479  -17.0710 C   0  0  0  0  0  0  0  0  0  0  0  0
   34.5206   11.0885  -15.8673 O   0  0  0  0  0  0  0  0  0  0  0  0
   43.9473   13.5595  -13.1769 C   0  0  0  0  0  0  0  0  0  0  0  0
   45.0819   13.2286  -12.9405 C   0  0  0  0  0  0  0  0  0  0  0  0
   46.4775   12.8311  -12.6279 C   0  0  0  0  0  0  0  0  0  0  0  0
   47.2533   12.9691  -13.7584 O   0  0  0  0  0  0  0  0  0  0  0  0
   46.5343   11.4029  -12.1522 C   0  0  0  0  0  0  0  0  0  0  0  0
   47.2401   11.4448  -10.8391 C   0  0  0  0  0  0  0  0  0  0  0  0
   47.2392   12.8361  -10.4127 N   0  0  0  0  0  0  0  0  0  0  0  0
   47.5359   13.2499   -9.0573 C   0  0  0  0  0  0  0  0  0  0  0  0
   46.9119   13.6714  -11.5078 C   0  0  0  0  0  0  0  0  0  0  0  0
   46.9855   14.9148  -11.5062 O   0  0  0  0  0  0  0  0  0  0  0  0
   47.0875   12.2059  -14.3655 H   0  0  0  0  0  0  0  0  0  0  0  0
 21 22  1  0  0  0
 22  7  1  0  0  0
  7  8  1  0  0  0
  8  9  2  0  0  0
  9 10  1  0  0  0
 10 11  2  0  0  0
 11 12  1  0  0  0
 12 13  2  0  0  0
 13 16  1  0  0  0
 16 17  1  0  0  0
 16 18  2  0  0  0
 13 14  1  0  0  0
 14 15  1  0  0  0
 11  1  1  0  0  0
  1  2  2  0  0  0
  2  3  1  0  0  0
  3  4  2  0  0  0
  4  5  1  0  0  0
  5  6  2  0  0  0
  5 23  1  0  0  0
 23 24  3  0  0  0
 25 24  1  0  0  0
 25 26  1  0  0  0
 25 27  1  0  0  0
 27 28  1  0  0  0
 28 29  1  0  0  0
 29 30  1  0  0  0
 29 31  1  0  0  0
 31 32  2  0  0  0
 15  7  2  0  0  0
  6  1  1  0  0  0
 31 25  1  0  0  0
 14 10  1  0  0  0
 17 19  1  0  0  0
 17 20  1  0  0  0
 26 33  1  0  0  0
M  END
> <minimizedAffinity>
-8.09847

> <CNNscore>
0.8014615178

> <CNNaffinity>
7.0367631912

> <CNN_VS>
5.6396946907

> <CNNaffinity_variance>
0.3200484514

$$$$
[H]O[C@]1(C#Cc2c([H])c([H])c([H])c(-c3nc(C(=O)N([H])[H])n4c([H])c(OC([H])([H])[H])c([H])c([H])c34)c2[H])C(=O)N(C([H])([H])[H])C([H])([H])C1([H])[H]


 33 36  0  0  0  0  0  0  0  0999 V2000
   37.8181   13.4692  -14.0906 C   0  0  0  0  0  0  0  0  0  0  0  0
   36.4337   13.3719  -14.2267 C   0  0  0  0  0  0  0  0  0  0  0  0
   35.6124   13.8221  -13.2311 C   0  0  0  0  0  0  0  0  0  0  0  0
   36.1559   14.3711  -12.0948 C   0  0  0  0  0  0  0  0  0  0  0  0
   37.5204   14.4931  -11.9054 C   0  0  0  0  0  0  0  0  0  0  0  0
   38.3113   14.0209  -12.9461 C   0  0  0  0  0  0  0  0  0  0  0  0
   42.7556   13.1541  -15.8690 C   0  0  0  0  0  0  0  0  0  0  0  0
   42.3529   13.7602  -14.7063 C   0  0  0  0  0  0  0  0  0  0  0  0
   40.9922   13.7212  -14.4333 C   0  0  0  0  0  0  0  0  0  0  0  0
   40.0672   13.1180  -15.2571 C   0  0  0  0  0  0  0  0  0  0  0  0
   38.7001   12.9761  -15.1661 C   0  0  0  0  0  0  0  0  0  0  0  0
   38.3331   12.2977  -16.2653 N   0  0  0  0  0  0  0  0  0  0  0  0
   39.4294   12.0146  -17.0343 C   0  0  0  0  0  0  0  0  0  0  0  0
   40.5139   12.5257  -16.4068 N   0  0  0  0  0  0  0  0  0  0  0  0
   41.8335   12.5502  -16.6953 C   0  0  0  0  0  0  0  0  0  0  0  0
   39.4280   11.2958  -18.2958 C   0  0  0  0  0  0  0  0  0  0  0  0
   38.2689   10.5811  -18.6922 N   0  0  0  0  0  0  0  0  0  0  0  0
   40.4213   11.2871  -19.0471 O   0  0  0  0  0  0  0  0  0  0  0  0
   37.7257    9.9594  -18.0533 H   0  0  0  0  0  0  0  0  0  0  0  0
   37.8897   10.6463  -19.6817 H   0  0  0  0  0  0  0  0  0  0  0  0
   44.9643   12.0840  -15.9944 C   0  0  0  0  0  0  0  0  0  0  0  0
   44.0896   13.1497  -16.2117 O   0  0  0  0  0  0  0  0  0  0  0  0
   38.1045   15.0643  -10.7251 C   0  0  0  0  0  0  0  0  0  0  0  0
   38.5896   15.5628   -9.7407 C   0  0  0  0  0  0  0  0  0  0  0  0
   39.1684   16.1913   -8.5269 C   0  0  0  0  0  0  0  0  0  0  0  0
   38.8531   17.5327   -8.5156 O   0  0  0  0  0  0  0  0  0  0  0  0
   40.6657   16.0280   -8.5007 C   0  0  0  0  0  0  0  0  0  0  0  0
   40.9778   15.3961   -7.1864 C   0  0  0  0  0  0  0  0  0  0  0  0
   39.7207   14.8795   -6.6664 N   0  0  0  0  0  0  0  0  0  0  0  0
   39.6448   13.9244   -5.5809 C   0  0  0  0  0  0  0  0  0  0  0  0
   38.6383   15.4508   -7.3779 C   0  0  0  0  0  0  0  0  0  0  0  0
   37.4376   15.3351   -7.0676 O   0  0  0  0  0  0  0  0  0  0  0  0
   39.4455   18.0145   -9.1445 H   0  0  0  0  0  0  0  0  0  0  0  0
 21 22  1  0  0  0
 22  7  1  0  0  0
  7  8  1  0  0  0
  8  9  2  0  0  0
  9 10  1  0  0  0
 10 11  2  0  0  0
 11 12  1  0  0  0
 12 13  2  0  0  0
 13 16  1  0  0  0
 16 17  1  0  0  0
 16 18  2  0  0  0
 13 14  1  0  0  0
 14 15  1  0  0  0
 11  1  1  0  0  0
  1  2  2  0  0  0
  2  3  1  0  0  0
  3  4  2  0  0  0
  4  5  1  0  0  0
  5  6  2  0  0  0
  5 23  1  0  0  0
 23 24  3  0  0  0
 25 24  1  0  0  0
 25 26  1  0  0  0
 25 27  1  0  0  0
 27 28  1  0  0  0
 28 29  1  0  0  0
 29 30  1  0  0  0
 29 31  1  0  0  0
 31 32  2  0  0  0
 15  7  2  0  0  0
  6  1  1  0  0  0
 31 25  1  0  0  0
 14 10  1  0  0  0
 17 19  1  0  0  0
 17 20  1  0  0  0
 26 33  1  0  0  0
M  END
> <minimizedAffinity>
-7.86019

> <CNNscore>
0.6939934492

> <CNNaffinity>
6.8031897545

> <CNN_VS>
4.7213692665

> <CNNaffinity_variance>
0.2331658900

$$$$
[H]O[C@]1(C#Cc2c([H])c([H])c([H])c(-c3nc(C(=O)N([H])[H])n4c([H])c(OC([H])([H])[H])c([H])c([H])c34)c2[H])C(=O)N(C([H])([H])[H])C([H])([H])C1([H])[H]


 33 36  0  0  0  0  0  0  0  0999 V2000
   38.7579   11.8911  -16.8380 C   0  0  0  0  0  0  0  0  0  0  0  0
   38.9258   11.2264  -18.0522 C   0  0  0  0  0  0  0  0  0  0  0  0
   40.1731   11.0925  -18.5951 C   0  0  0  0  0  0  0  0  0  0  0  0
   41.2618   11.6155  -17.9399 C   0  0  0  0  0  0  0  0  0  0  0  0
   41.1552   12.2841  -16.7340 C   0  0  0  0  0  0  0  0  0  0  0  0
   39.8667   12.3933  -16.2247 C   0  0  0  0  0  0  0  0  0  0  0  0
   35.8150   14.3116  -13.2155 C   0  0  0  0  0  0  0  0  0  0  0  0
   37.1577   14.5000  -13.4230 C   0  0  0  0  0  0  0  0  0  0  0  0
   37.7323   13.7515  -14.4415 C   0  0  0  0  0  0  0  0  0  0  0  0
   37.0285   12.8603  -15.2216 C   0  0  0  0  0  0  0  0  0  0  0  0
   37.4083   12.0381  -16.2595 C   0  0  0  0  0  0  0  0  0  0  0  0
   36.2930   11.3911  -16.6348 N   0  0  0  0  0  0  0  0  0  0  0  0
   35.2344   11.7866  -15.8626 C   0  0  0  0  0  0  0  0  0  0  0  0
   35.6909   12.7044  -14.9792 N   0  0  0  0  0  0  0  0  0  0  0  0
   35.1082   13.4212  -13.9935 C   0  0  0  0  0  0  0  0  0  0  0  0
   33.8683   11.3071  -15.9720 C   0  0  0  0  0  0  0  0  0  0  0  0
   33.1618   10.9348  -14.8000 N   0  0  0  0  0  0  0  0  0  0  0  0
   33.2925   11.2116  -17.0723 O   0  0  0  0  0  0  0  0  0  0  0  0
   33.5700   10.3460  -14.0408 H   0  0  0  0  0  0  0  0  0  0  0  0
   32.1599   11.2451  -14.6355 H   0  0  0  0  0  0  0  0  0  0  0  0
   35.7200   16.0944  -11.5268 C   0  0  0  0  0  0  0  0  0  0  0  0
   35.1706   15.0169  -12.2234 O   0  0  0  0  0  0  0  0  0  0  0  0
   42.2819   12.8359  -16.0363 C   0  0  0  0  0  0  0  0  0  0  0  0
   43.2360   13.2804  -15.4492 C   0  0  0  0  0  0  0  0  0  0  0  0
   44.4254   13.8137  -14.7388 C   0  0  0  0  0  0  0  0  0  0  0  0
   44.8726   14.9444  -15.3872 O   0  0  0  0  0  0  0  0  0  0  0  0
   45.5292   12.7895  -14.6980 C   0  0  0  0  0  0  0  0  0  0  0  0
   45.8924   12.6477  -13.2584 C   0  0  0  0  0  0  0  0  0  0  0  0
   44.8112   13.2550  -12.4969 N   0  0  0  0  0  0  0  0  0  0  0  0
   44.6248   13.0419  -11.0770 C   0  0  0  0  0  0  0  0  0  0  0  0
   44.0134   14.0525  -13.3522 C   0  0  0  0  0  0  0  0  0  0  0  0
   43.1126   14.8257  -12.9751 O   0  0  0  0  0  0  0  0  0  0  0  0
   45.3756   14.6810  -16.1973 H   0  0  0  0  0  0  0  0  0  0  0  0
 21 22  1  0  0  0
 22  7  1  0  0  0
  7  8  1  0  0  0
  8  9  2  0  0  0
  9 10  1  0  0  0
 10 11  2  0  0  0
 11 12  1  0  0  0
 12 13  2  0  0  0
 13 16  1  0  0  0
 16 17  1  0  0  0
 16 18  2  0  0  0
 13 14  1  0  0  0
 14 15  1  0  0  0
 11  1  1  0  0  0
  1  2  2  0  0  0
  2  3  1  0  0  0
  3  4  2  0  0  0
  4  5  1  0  0  0
  5  6  2  0  0  0
  5 23  1  0  0  0
 23 24  3  0  0  0
 25 24  1  0  0  0
 25 26  1  0  0  0
 25 27  1  0  0  0
 27 28  1  0  0  0
 28 29  1  0  0  0
 29 30  1  0  0  0
 29 31  1  0  0  0
 31 32  2  0  0  0
 15  7  2  0  0  0
  6  1  1  0  0  0
 31 25  1  0  0  0
 14 10  1  0  0  0
 17 19  1  0  0  0
 17 20  1  0  0  0
 26 33  1  0  0  0
M  END
> <minimizedAffinity>
-10.05114

> <CNNscore>
0.4719987810

> <CNNaffinity>
6.9089193344

> <CNN_VS>
3.2610015869

> <CNNaffinity_variance>
0.0556384698

$$$$
[H]O[C@]1(C#Cc2c([H])c([H])c([H])c(-c3nc(C(=O)N([H])[H])n4c([H])c(OC([H])([H])[H])c([H])c([H])c34)c2[H])C(=O)N(C([H])([H])[H])C([H])([H])C1([H])[H]


 33 36  0  0  0  0  0  0  0  0999 V2000
   41.0592   14.5372  -13.4837 C   0  0  0  0  0  0  0  0  0  0  0  0
   40.9052   15.7726  -12.8555 C   0  0  0  0  0  0  0  0  0  0  0  0
   41.9923   16.4205  -12.3388 C   0  0  0  0  0  0  0  0  0  0  0  0
   43.2381   15.8500  -12.4406 C   0  0  0  0  0  0  0  0  0  0  0  0
   43.4504   14.6280  -13.0523 C   0  0  0  0  0  0  0  0  0  0  0  0
   42.3139   14.0105  -13.5607 C   0  0  0  0  0  0  0  0  0  0  0  0
   39.2038   11.5472  -17.3899 C   0  0  0  0  0  0  0  0  0  0  0  0
   40.4903   12.0064  -17.2652 C   0  0  0  0  0  0  0  0  0  0  0  0
   40.7590   12.7830  -16.1461 C   0  0  0  0  0  0  0  0  0  0  0  0
   39.8153   13.0966  -15.1925 C   0  0  0  0  0  0  0  0  0  0  0  0
   39.8812   13.8393  -14.0343 C   0  0  0  0  0  0  0  0  0  0  0  0
   38.6457   13.8014  -13.5097 N   0  0  0  0  0  0  0  0  0  0  0  0
   37.8165   13.0585  -14.3059 C   0  0  0  0  0  0  0  0  0  0  0  0
   38.5445   12.6170  -15.3576 N   0  0  0  0  0  0  0  0  0  0  0  0
   38.2576   11.8590  -16.4385 C   0  0  0  0  0  0  0  0  0  0  0  0
   36.4096   12.7930  -14.0650 C   0  0  0  0  0  0  0  0  0  0  0  0
   35.4356   13.3328  -14.9434 N   0  0  0  0  0  0  0  0  0  0  0  0
   36.0279   12.1002  -13.1030 O   0  0  0  0  0  0  0  0  0  0  0  0
   35.4460   14.3200  -15.2825 H   0  0  0  0  0  0  0  0  0  0  0  0
   34.6304   12.7437  -15.3064 H   0  0  0  0  0  0  0  0  0  0  0  0
   37.5708   10.6774  -19.0072 C   0  0  0  0  0  0  0  0  0  0  0  0
   38.8568   10.7702  -18.4730 O   0  0  0  0  0  0  0  0  0  0  0  0
   44.7448   14.0183  -13.1674 C   0  0  0  0  0  0  0  0  0  0  0  0
   45.8255   13.4966  -13.2811 C   0  0  0  0  0  0  0  0  0  0  0  0
   47.1555   12.8582  -13.4445 C   0  0  0  0  0  0  0  0  0  0  0  0
   47.0773   11.5390  -13.0537 O   0  0  0  0  0  0  0  0  0  0  0  0
   48.1953   13.5658  -12.6156 C   0  0  0  0  0  0  0  0  0  0  0  0
   49.2883   13.9259  -13.5643 C   0  0  0  0  0  0  0  0  0  0  0  0
   48.7381   13.7820  -14.9037 N   0  0  0  0  0  0  0  0  0  0  0  0
   49.3668   14.3392  -16.0829 C   0  0  0  0  0  0  0  0  0  0  0  0
   47.5362   13.0360  -14.8491 C   0  0  0  0  0  0  0  0  0  0  0  0
   46.9146   12.6073  -15.8398 O   0  0  0  0  0  0  0  0  0  0  0  0
   47.0858   11.4882  -12.0658 H   0  0  0  0  0  0  0  0  0  0  0  0
 21 22  1  0  0  0
 22  7  1  0  0  0
  7  8  1  0  0  0
  8  9  2  0  0  0
  9 10  1  0  0  0
 10 11  2  0  0  0
 11 12  1  0  0  0
 12 13  2  0  0  0
 13 16  1  0  0  0
 16 17  1  0  0  0
 16 18  2  0  0  0
 13 14  1  0  0  0
 14 15  1  0  0  0
 11  1  1  0  0  0
  1  2  2  0  0  0
  2  3  1  0  0  0
  3  4  2  0  0  0
  4  5  1  0  0  0
  5  6  2  0  0  0
  5 23  1  0  0  0
 23 24  3  0  0  0
 25 24  1  0  0  0
 25 26  1  0  0  0
 25 27  1  0  0  0
 27 28  1  0  0  0
 28 29  1  0  0  0
 29 30  1  0  0  0
 29 31  1  0  0  0
 31 32  2  0  0  0
 15  7  2  0  0  0
  6  1  1  0  0  0
 31 25  1  0  0  0
 14 10  1  0  0  0
 17 19  1  0  0  0
 17 20  1  0  0  0
 26 33  1  0  0  0
M  END
> <minimizedAffinity>
-7.77192

> <CNNscore>
0.4585352540

> <CNNaffinity>
6.5133996010

> <CNN_VS>
2.9866232872

> <CNNaffinity_variance>
0.1014776677

$$$$
[H]O[C@]1(C#Cc2c([H])c([H])c([H])c(-c3nc(C(=O)N([H])[H])n4c([H])c(OC([H])([H])[H])c([H])c([H])c34)c2[H])C(=O)N(C([H])([H])[H])C([H])([H])C1([H])[H]


 33 36  0  0  0  0  0  0  0  0999 V2000
   37.9848   14.1984  -12.9186 C   0  0  0  0  0  0  0  0  0  0  0  0
   39.0753   15.0593  -13.0377 C   0  0  0  0  0  0  0  0  0  0  0  0
   39.4556   15.8364  -11.9794 C   0  0  0  0  0  0  0  0  0  0  0  0
   38.7593   15.7663  -10.7970 C   0  0  0  0  0  0  0  0  0  0  0  0
   37.6708   14.9314  -10.6216 C   0  0  0  0  0  0  0  0  0  0  0  0
   37.3247   14.1629  -11.7267 C   0  0  0  0  0  0  0  0  0  0  0  0
   39.5646   11.6908  -17.2611 C   0  0  0  0  0  0  0  0  0  0  0  0
   40.3633   12.4057  -16.4053 C   0  0  0  0  0  0  0  0  0  0  0  0
   39.7295   12.9861  -15.3149 C   0  0  0  0  0  0  0  0  0  0  0  0
   38.3782   12.8735  -15.0709 C   0  0  0  0  0  0  0  0  0  0  0  0
   37.5749   13.3663  -14.0663 C   0  0  0  0  0  0  0  0  0  0  0  0
   36.3352   12.9355  -14.3507 N   0  0  0  0  0  0  0  0  0  0  0  0
   36.3451   12.1912  -15.4993 C   0  0  0  0  0  0  0  0  0  0  0  0
   37.6199   12.1508  -15.9512 N   0  0  0  0  0  0  0  0  0  0  0  0
   38.2131   11.5763  -17.0204 C   0  0  0  0  0  0  0  0  0  0  0  0
   35.1946   11.5598  -16.1205 C   0  0  0  0  0  0  0  0  0  0  0  0
   33.9590   11.5193  -15.4255 N   0  0  0  0  0  0  0  0  0  0  0  0
   35.2594   11.0482  -17.2541 O   0  0  0  0  0  0  0  0  0  0  0  0
   33.8698   11.2589  -14.4185 H   0  0  0  0  0  0  0  0  0  0  0  0
   33.0441   11.7578  -15.9084 H   0  0  0  0  0  0  0  0  0  0  0  0
   39.5094   11.0073  -19.6209 C   0  0  0  0  0  0  0  0  0  0  0  0
   40.1178   11.0844  -18.3671 O   0  0  0  0  0  0  0  0  0  0  0  0
   36.9328   14.8458   -9.3933 C   0  0  0  0  0  0  0  0  0  0  0  0
   36.3178   14.7936   -8.3580 C   0  0  0  0  0  0  0  0  0  0  0  0
   35.5515   14.7508   -7.0874 C   0  0  0  0  0  0  0  0  0  0  0  0
   34.2866   14.2639   -7.3360 O   0  0  0  0  0  0  0  0  0  0  0  0
   35.4491   16.1240   -6.4767 C   0  0  0  0  0  0  0  0  0  0  0  0
   35.9657   15.9839   -5.0847 C   0  0  0  0  0  0  0  0  0  0  0  0
   36.6739   14.7138   -5.0317 N   0  0  0  0  0  0  0  0  0  0  0  0
   37.5851   14.3584   -3.9641 C   0  0  0  0  0  0  0  0  0  0  0  0
   36.3287   13.9267   -6.1566 C   0  0  0  0  0  0  0  0  0  0  0  0
   36.6408   12.7315   -6.3165 O   0  0  0  0  0  0  0  0  0  0  0  0
   33.7331   14.9782   -7.7384 H   0  0  0  0  0  0  0  0  0  0  0  0
 21 22  1  0  0  0
 22  7  1  0  0  0
  7  8  1  0  0  0
  8  9  2  0  0  0
  9 10  1  0  0  0
 10 11  2  0  0  0
 11 12  1  0  0  0
 12 13  2  0  0  0
 13 16  1  0  0  0
 16 17  1  0  0  0
 16 18  2  0  0  0
 13 14  1  0  0  0
 14 15  1  0  0  0
 11  1  1  0  0  0
  1  2  2  0  0  0
  2  3  1  0  0  0
  3  4  2  0  0  0
  4  5  1  0  0  0
  5  6  2  0  0  0
  5 23  1  0  0  0
 23 24  3  0  0  0
 25 24  1  0  0  0
 25 26  1  0  0  0
 25 27  1  0  0  0
 27 28  1  0  0  0
 28 29  1  0  0  0
 29 30  1  0  0  0
 29 31  1  0  0  0
 31 32  2  0  0  0
 15  7  2  0  0  0
  6  1  1  0  0  0
 31 25  1  0  0  0
 14 10  1  0  0  0
 17 19  1  0  0  0
 17 20  1  0  0  0
 26 33  1  0  0  0
M  END
> <minimizedAffinity>
-8.41386

> <CNNscore>
0.4528123438

> <CNNaffinity>
6.3870024681

> <CNN_VS>
2.8921134472

> <CNNaffinity_variance>
0.1346099973

$$$$
[H]O[C@]1(C#Cc2c([H])c([H])c([H])c(-c3nc(C(=O)N([H])[H])n4c([H])c(OC([H])([H])[H])c([H])c([H])c34)c2[H])C(=O)N(C([H])([H])[H])C([H])([H])C1([H])[H]


 33 36  0  0  0  0  0  0  0  0999 V2000
   40.5996   12.1051  -16.6701 C   0  0  0  0  0  0  0  0  0  0  0  0
   40.6220   11.5732  -17.9589 C   0  0  0  0  0  0  0  0  0  0  0  0
   39.4615   11.1617  -18.5524 C   0  0  0  0  0  0  0  0  0  0  0  0
   38.2717   11.2740  -17.8743 C   0  0  0  0  0  0  0  0  0  0  0  0
   38.1893   11.7934  -16.5951 C   0  0  0  0  0  0  0  0  0  0  0  0
   39.3963   12.1968  -16.0366 C   0  0  0  0  0  0  0  0  0  0  0  0
   42.7696   15.0664  -12.9068 C   0  0  0  0  0  0  0  0  0  0  0  0
   41.4281   14.9437  -13.1652 C   0  0  0  0  0  0  0  0  0  0  0  0
   41.0793   14.1006  -14.2118 C   0  0  0  0  0  0  0  0  0  0  0  0
   41.9978   13.4090  -14.9709 C   0  0  0  0  0  0  0  0  0  0  0  0
   41.8564   12.5420  -16.0319 C   0  0  0  0  0  0  0  0  0  0  0  0
   43.1039   12.1786  -16.3706 N   0  0  0  0  0  0  0  0  0  0  0  0
   44.0137   12.7927  -15.5529 C   0  0  0  0  0  0  0  0  0  0  0  0
   43.3255   13.5617  -14.6777 N   0  0  0  0  0  0  0  0  0  0  0  0
   43.6908   14.3766  -13.6640 C   0  0  0  0  0  0  0  0  0  0  0  0
   45.4568   12.6453  -15.6146 C   0  0  0  0  0  0  0  0  0  0  0  0
   46.1429   12.9739  -16.8116 N   0  0  0  0  0  0  0  0  0  0  0  0
   46.1168   12.2359  -14.6410 O   0  0  0  0  0  0  0  0  0  0  0  0
   45.8239   12.6793  -17.7609 H   0  0  0  0  0  0  0  0  0  0  0  0
   47.0350   13.5493  -16.7982 H   0  0  0  0  0  0  0  0  0  0  0  0
   44.3433   16.6798  -11.9273 C   0  0  0  0  0  0  0  0  0  0  0  0
   43.1972   15.8844  -11.8845 O   0  0  0  0  0  0  0  0  0  0  0  0
   36.9550   11.9181  -15.8730 C   0  0  0  0  0  0  0  0  0  0  0  0
   35.9248   12.0411  -15.2595 C   0  0  0  0  0  0  0  0  0  0  0  0
   34.6551   12.2154  -14.5106 C   0  0  0  0  0  0  0  0  0  0  0  0
   33.9240   11.0493  -14.5783 O   0  0  0  0  0  0  0  0  0  0  0  0
   33.8455   13.3488  -15.0843 C   0  0  0  0  0  0  0  0  0  0  0  0
   33.5607   14.2594  -13.9381 C   0  0  0  0  0  0  0  0  0  0  0  0
   34.4705   13.8762  -12.8689 N   0  0  0  0  0  0  0  0  0  0  0  0
   34.7349   14.7111  -11.7160 C   0  0  0  0  0  0  0  0  0  0  0  0
   35.0234   12.6026  -13.1453 C   0  0  0  0  0  0  0  0  0  0  0  0
   35.7086   11.9322  -12.3500 O   0  0  0  0  0  0  0  0  0  0  0  0
   33.4862   10.9872  -15.4632 H   0  0  0  0  0  0  0  0  0  0  0  0
 21 22  1  0  0  0
 22  7  1  0  0  0
  7  8  1  0  0  0
  8  9  2  0  0  0
  9 10  1  0  0  0
 10 11  2  0  0  0
 11 12  1  0  0  0
 12 13  2  0  0  0
 13 16  1  0  0  0
 16 17  1  0  0  0
 16 18  2  0  0  0
 13 14  1  0  0  0
 14 15  1  0  0  0
 11  1  1  0  0  0
  1  2  2  0  0  0
  2  3  1  0  0  0
  3  4  2  0  0  0
  4  5  1  0  0  0
  5  6  2  0  0  0
  5 23  1  0  0  0
 23 24  3  0  0  0
 25 24  1  0  0  0
 25 26  1  0  0  0
 25 27  1  0  0  0
 27 28  1  0  0  0
 28 29  1  0  0  0
 29 30  1  0  0  0
 29 31  1  0  0  0
 31 32  2  0  0  0
 15  7  2  0  0  0
  6  1  1  0  0  0
 31 25  1  0  0  0
 14 10  1  0  0  0
 17 19  1  0  0  0
 17 20  1  0  0  0
 26 33  1  0  0  0
M  END
> <minimizedAffinity>
-9.26821

> <CNNscore>
0.4505584240

> <CNNaffinity>
6.7839341164

> <CNN_VS>
3.0565586090

> <CNNaffinity_variance>
0.1333449632

$$$$
[H]O[C@]1(C#Cc2c([H])c([H])c([H])c(-c3nc(C(=O)N([H])[H])n4c([H])c(OC([H])([H])[H])c([H])c([H])c34)c2[H])C(=O)N(C([H])([H])[H])C([H])([H])C1([H])[H]


 33 36  0  0  0  0  0  0  0  0999 V2000
   38.9995   12.1121  -16.5889 C   0  0  0  0  0  0  0  0  0  0  0  0
   39.2721   11.5863  -17.8513 C   0  0  0  0  0  0  0  0  0  0  0  0
   40.5601   11.5211  -18.3045 C   0  0  0  0  0  0  0  0  0  0  0  0
   41.5859   11.9757  -17.5115 C   0  0  0  0  0  0  0  0  0  0  0  0
   41.3750   12.5067  -16.2520 C   0  0  0  0  0  0  0  0  0  0  0  0
   40.0490   12.5508  -15.8381 C   0  0  0  0  0  0  0  0  0  0  0  0
   35.6876   14.3510  -13.1743 C   0  0  0  0  0  0  0  0  0  0  0  0
   37.0301   14.6091  -13.2851 C   0  0  0  0  0  0  0  0  0  0  0  0
   37.7129   13.8989  -14.2634 C   0  0  0  0  0  0  0  0  0  0  0  0
   37.1127   12.9793  -15.0954 C   0  0  0  0  0  0  0  0  0  0  0  0
   37.6066   12.1856  -16.1071 C   0  0  0  0  0  0  0  0  0  0  0  0
   36.5553   11.4857  -16.5634 N   0  0  0  0  0  0  0  0  0  0  0  0
   35.4258   11.8208  -15.8667 C   0  0  0  0  0  0  0  0  0  0  0  0
   35.7711   12.7536  -14.9492 N   0  0  0  0  0  0  0  0  0  0  0  0
   35.0841   13.4320  -14.0043 C   0  0  0  0  0  0  0  0  0  0  0  0
   34.0973   11.2733  -16.0750 C   0  0  0  0  0  0  0  0  0  0  0  0
   33.2527   11.0437  -14.9590 N   0  0  0  0  0  0  0  0  0  0  0  0
   33.6724   10.9967  -17.2125 O   0  0  0  0  0  0  0  0  0  0  0  0
   33.5720   10.5877  -14.0759 H   0  0  0  0  0  0  0  0  0  0  0  0
   32.2310   11.3318  -14.9694 H   0  0  0  0  0  0  0  0  0  0  0  0
   35.4278   16.0120  -11.3819 C   0  0  0  0  0  0  0  0  0  0  0  0
   34.9393   15.0148  -12.2275 O   0  0  0  0  0  0  0  0  0  0  0  0
   42.4350   12.9856  -15.4108 C   0  0  0  0  0  0  0  0  0  0  0  0
   43.3202   13.3732  -14.6905 C   0  0  0  0  0  0  0  0  0  0  0  0
   44.4163   13.8280  -13.7988 C   0  0  0  0  0  0  0  0  0  0  0  0
   44.0975   13.5205  -12.4939 O   0  0  0  0  0  0  0  0  0  0  0  0
   44.6293   15.3138  -13.9260 C   0  0  0  0  0  0  0  0  0  0  0  0
   46.0758   15.4862  -14.2456 C   0  0  0  0  0  0  0  0  0  0  0  0
   46.5677   14.1796  -14.6561 N   0  0  0  0  0  0  0  0  0  0  0  0
   47.8248   13.9877  -15.3483 C   0  0  0  0  0  0  0  0  0  0  0  0
   45.6414   13.1790  -14.2756 C   0  0  0  0  0  0  0  0  0  0  0  0
   45.8466   11.9522  -14.3407 O   0  0  0  0  0  0  0  0  0  0  0  0
   43.4405   14.1768  -12.1530 H   0  0  0  0  0  0  0  0  0  0  0  0
 21 22  1  0  0  0
 22  7  1  0  0  0
  7  8  1  0  0  0
  8  9  2  0  0  0
  9 10  1  0  0  0
 10 11  2  0  0  0
 11 12  1  0  0  0
 12 13  2  0  0  0
 13 16  1  0  0  0
 16 17  1  0  0  0
 16 18  2  0  0  0
 13 14  1  0  0  0
 14 15  1  0  0  0
 11  1  1  0  0  0
  1  2  2  0  0  0
  2  3  1  0  0  0
  3  4  2  0  0  0
  4  5  1  0  0  0
  5  6  2  0  0  0
  5 23  1  0  0  0
 23 24  3  0  0  0
 25 24  1  0  0  0
 25 26  1  0  0  0
 25 27  1  0  0  0
 27 28  1  0  0  0
 28 29  1  0  0  0
 29 30  1  0  0  0
 29 31  1  0  0  0
 31 32  2  0  0  0
 15  7  2  0  0  0
  6  1  1  0  0  0
 31 25  1  0  0  0
 14 10  1  0  0  0
 17 19  1  0  0  0
 17 20  1  0  0  0
 26 33  1  0  0  0
M  END
> <minimizedAffinity>
-9.52846

> <CNNscore>
0.4409356713

> <CNNaffinity>
6.7615461349

> <CNN_VS>
2.9814069271

> <CNNaffinity_variance>
0.0934590995

$$$$
[H]O[C@]1(C#Cc2c([H])c([H])c([H])c(-c3nc(C(=O)N([H])[H])c4c([H])c([H])c([H])c([H])n34)c2[H])C(=O)N(C([H])([H])[H])C([H])([H])C1([H])[H]


 31 34  0  0  0  0  0  0  0  0999 V2000
   35.4311   13.6396  -13.0453 C   0  0  0  0  0  0  0  0  0  0  0  0
   34.3411   12.9605  -13.5425 C   0  0  0  0  0  0  0  0  0  0  0  0
   34.4333   12.1897  -14.6809 C   0  0  0  0  0  0  0  0  0  0  0  0
   35.6074   12.0725  -15.3568 C   0  0  0  0  0  0  0  0  0  0  0  0
   36.7522   12.7423  -14.8981 C   0  0  0  0  0  0  0  0  0  0  0  0
   36.6302   13.4965  -13.7672 C   0  0  0  0  0  0  0  0  0  0  0  0
   38.0166   12.5239  -15.6274 C   0  0  0  0  0  0  0  0  0  0  0  0
   38.0384   11.9089  -16.8532 N   0  0  0  0  0  0  0  0  0  0  0  0
   39.2735   11.8522  -17.3339 C   0  0  0  0  0  0  0  0  0  0  0  0
   40.1005   12.4445  -16.4103 C   0  0  0  0  0  0  0  0  0  0  0  0
   41.4583   12.6691  -16.4119 C   0  0  0  0  0  0  0  0  0  0  0  0
   42.0176   13.3217  -15.3381 C   0  0  0  0  0  0  0  0  0  0  0  0
   41.1871   13.7143  -14.3221 C   0  0  0  0  0  0  0  0  0  0  0  0
   39.8117   13.4803  -14.3315 C   0  0  0  0  0  0  0  0  0  0  0  0
   39.2848   12.8414  -15.3831 N   0  0  0  0  0  0  0  0  0  0  0  0
   39.6906   11.2645  -18.6175 C   0  0  0  0  0  0  0  0  0  0  0  0
   38.8149   10.7856  -19.5956 N   0  0  0  0  0  0  0  0  0  0  0  0
   40.9398   11.1785  -18.8718 O   0  0  0  0  0  0  0  0  0  0  0  0
   38.6426    9.7690  -19.7384 H   0  0  0  0  0  0  0  0  0  0  0  0
   38.3184   11.4753  -20.2023 H   0  0  0  0  0  0  0  0  0  0  0  0
   35.3673   15.1368  -10.8597 C   0  0  0  0  0  0  0  0  0  0  0  0
   35.3860   14.4544  -11.8642 C   0  0  0  0  0  0  0  0  0  0  0  0
   36.6954   16.0126   -6.1866 C   0  0  0  0  0  0  0  0  0  0  0  0
   36.4570   16.1450   -7.6077 N   0  0  0  0  0  0  0  0  0  0  0  0
   36.7649   17.3723   -8.3362 C   0  0  0  0  0  0  0  0  0  0  0  0
   36.3947   17.0921   -9.7564 C   0  0  0  0  0  0  0  0  0  0  0  0
   35.3695   15.9560   -9.6444 C   0  0  0  0  0  0  0  0  0  0  0  0
   34.1010   16.4782   -9.3861 O   0  0  0  0  0  0  0  0  0  0  0  0
   35.9148   15.1821   -8.5224 C   0  0  0  0  0  0  0  0  0  0  0  0
   35.9545   13.9444   -8.3037 O   0  0  0  0  0  0  0  0  0  0  0  0
   33.6590   16.5940  -10.2704 H   0  0  0  0  0  0  0  0  0  0  0  0
 23 24  1  0  0  0
 24 25  1  0  0  0
 25 26  1  0  0  0
 26 27  1  0  0  0
 27 28  1  0  0  0
 27 21  1  0  0  0
 21 22  3  0  0  0
 22  1  1  0  0  0
  1  2  2  0  0  0
  2  3  1  0  0  0
  3  4  2  0  0  0
  4  5  1  0  0  0
  5  6  2  0  0  0
  5  7  1  0  0  0
  7  8  2  0  0  0
  8  9  1  0  0  0
  9 16  1  0  0  0
 16 17  1  0  0  0
 16 18  2  0  0  0
  9 10  2  0  0  0
 10 11  1  0  0  0
 11 12  2  0  0  0
 12 13  1  0  0  0
 13 14  2  0  0  0
 14 15  1  0  0  0
 27 29  1  0  0  0
 29 30  2  0  0  0
 29 24  1  0  0  0
  6  1  1  0  0  0
 15  7  1  0  0  0
 15 10  1  0  0  0
 28 31  1  0  0  0
 17 19  1  0  0  0
 17 20  1  0  0  0
M  END
> <minimizedAffinity>
-9.11503

> <CNNscore>
0.9328952432

> <CNNaffinity>
7.1690011024

> <CNN_VS>
6.6879272461

> <CNNaffinity_variance>
0.1993463933

$$$$
[H]O[C@]1(C#Cc2c([H])c([H])c([H])c(-c3nc(C(=O)N([H])[H])c4c([H])c([H])c([H])c([H])n34)c2[H])C(=O)N(C([H])([H])[H])C([H])([H])C1([H])[H]


 31 34  0  0  0  0  0  0  0  0999 V2000
   35.6906   13.3487  -12.9155 C   0  0  0  0  0  0  0  0  0  0  0  0
   34.5156   12.8988  -13.4756 C   0  0  0  0  0  0  0  0  0  0  0  0
   34.4892   12.3341  -14.7322 C   0  0  0  0  0  0  0  0  0  0  0  0
   35.6258   12.2013  -15.4668 C   0  0  0  0  0  0  0  0  0  0  0  0
   36.8530   12.6425  -14.9485 C   0  0  0  0  0  0  0  0  0  0  0  0
   36.8478   13.1958  -13.7009 C   0  0  0  0  0  0  0  0  0  0  0  0
   38.0657   12.4095  -15.7568 C   0  0  0  0  0  0  0  0  0  0  0  0
   38.0033   11.7873  -16.9776 N   0  0  0  0  0  0  0  0  0  0  0  0
   39.2041   11.7177  -17.5370 C   0  0  0  0  0  0  0  0  0  0  0  0
   40.0938   12.3087  -16.6727 C   0  0  0  0  0  0  0  0  0  0  0  0
   41.4503   12.5222  -16.7637 C   0  0  0  0  0  0  0  0  0  0  0  0
   42.0831   13.1765  -15.7326 C   0  0  0  0  0  0  0  0  0  0  0  0
   41.3234   13.5817  -14.6674 C   0  0  0  0  0  0  0  0  0  0  0  0
   39.9485   13.3589  -14.5862 C   0  0  0  0  0  0  0  0  0  0  0  0
   39.3495   12.7181  -15.5974 N   0  0  0  0  0  0  0  0  0  0  0  0
   39.5324   11.1193  -18.8411 C   0  0  0  0  0  0  0  0  0  0  0  0
   38.5908   10.7192  -19.7931 N   0  0  0  0  0  0  0  0  0  0  0  0
   40.7624   10.9461  -19.1405 O   0  0  0  0  0  0  0  0  0  0  0  0
   38.3395    9.7199  -19.9413 H   0  0  0  0  0  0  0  0  0  0  0  0
   38.1255   11.4516  -20.3738 H   0  0  0  0  0  0  0  0  0  0  0  0
   35.8543   14.4577  -10.5143 C   0  0  0  0  0  0  0  0  0  0  0  0
   35.7700   13.9435  -11.6114 C   0  0  0  0  0  0  0  0  0  0  0  0
   38.3253   17.0797   -7.1395 C   0  0  0  0  0  0  0  0  0  0  0  0
   37.3051   16.5983   -8.0460 N   0  0  0  0  0  0  0  0  0  0  0  0
   35.9901   17.2256   -8.1396 C   0  0  0  0  0  0  0  0  0  0  0  0
   35.2570   16.4519   -9.1867 C   0  0  0  0  0  0  0  0  0  0  0  0
   35.9728   15.0948   -9.1997 C   0  0  0  0  0  0  0  0  0  0  0  0
   35.4620   14.2733   -8.1934 O   0  0  0  0  0  0  0  0  0  0  0  0
   37.3646   15.4982   -8.9648 C   0  0  0  0  0  0  0  0  0  0  0  0
   38.4503   15.0510   -9.4150 O   0  0  0  0  0  0  0  0  0  0  0  0
   34.7391   13.7320   -8.6121 H   0  0  0  0  0  0  0  0  0  0  0  0
 23 24  1  0  0  0
 24 25  1  0  0  0
 25 26  1  0  0  0
 26 27  1  0  0  0
 27 28  1  0  0  0
 27 21  1  0  0  0
 21 22  3  0  0  0
 22  1  1  0  0  0
  1  2  2  0  0  0
  2  3  1  0  0  0
  3  4  2  0  0  0
  4  5  1  0  0  0
  5  6  2  0  0  0
  5  7  1  0  0  0
  7  8  2  0  0  0
  8  9  1  0  0  0
  9 16  1  0  0  0
 16 17  1  0  0  0
 16 18  2  0  0  0
  9 10  2  0  0  0
 10 11  1  0  0  0
 11 12  2  0  0  0
 12 13  1  0  0  0
 13 14  2  0  0  0
 14 15  1  0  0  0
 27 29  1  0  0  0
 29 30  2  0  0  0
 29 24  1  0  0  0
  6  1  1  0  0  0
 15  7  1  0  0  0
 15 10  1  0  0  0
 28 31  1  0  0  0
 17 19  1  0  0  0
 17 20  1  0  0  0
M  END
> <minimizedAffinity>
-8.97141

> <CNNscore>
0.9263168573

> <CNNaffinity>
7.1436934471

> <CNN_VS>
6.6173238754

> <CNNaffinity_variance>
0.1814372838

$$$$
[H]O[C@]1(C#Cc2c([H])c([H])c([H])c(-c3nc(C(=O)N([H])[H])c4c([H])c([H])c([H])c([H])n34)c2[H])C(=O)N(C([H])([H])[H])C([H])([H])C1([H])[H]


 31 34  0  0  0  0  0  0  0  0999 V2000
   35.7692   13.6657  -12.7580 C   0  0  0  0  0  0  0  0  0  0  0  0
   34.7281   12.9095  -13.2488 C   0  0  0  0  0  0  0  0  0  0  0  0
   34.8736   12.1349  -14.3791 C   0  0  0  0  0  0  0  0  0  0  0  0
   36.0539   12.0902  -15.0529 C   0  0  0  0  0  0  0  0  0  0  0  0
   37.1502   12.8404  -14.6004 C   0  0  0  0  0  0  0  0  0  0  0  0
   36.9762   13.5963  -13.4776 C   0  0  0  0  0  0  0  0  0  0  0  0
   38.4275   12.7001  -15.3265 C   0  0  0  0  0  0  0  0  0  0  0  0
   39.5995   13.1962  -14.8150 N   0  0  0  0  0  0  0  0  0  0  0  0
   40.6202   12.9253  -15.6178 C   0  0  0  0  0  0  0  0  0  0  0  0
   40.1226   12.2294  -16.6930 C   0  0  0  0  0  0  0  0  0  0  0  0
   40.7413   11.6943  -17.7997 C   0  0  0  0  0  0  0  0  0  0  0  0
   39.9743   11.0142  -18.7167 C   0  0  0  0  0  0  0  0  0  0  0  0
   38.6303   10.9065  -18.4753 C   0  0  0  0  0  0  0  0  0  0  0  0
   38.0142   11.4539  -17.3495 C   0  0  0  0  0  0  0  0  0  0  0  0
   38.7755   12.1149  -16.4690 N   0  0  0  0  0  0  0  0  0  0  0  0
   42.0282   13.2980  -15.4051 C   0  0  0  0  0  0  0  0  0  0  0  0
   42.9966   13.3575  -16.4110 N   0  0  0  0  0  0  0  0  0  0  0  0
   42.4095   13.5915  -14.2215 O   0  0  0  0  0  0  0  0  0  0  0  0
   43.7154   12.6150  -16.5358 H   0  0  0  0  0  0  0  0  0  0  0  0
   42.9953   14.1773  -17.0576 H   0  0  0  0  0  0  0  0  0  0  0  0
   35.5876   15.1666  -10.5816 C   0  0  0  0  0  0  0  0  0  0  0  0
   35.6676   14.4877  -11.5855 C   0  0  0  0  0  0  0  0  0  0  0  0
   36.5462   15.9528   -5.8032 C   0  0  0  0  0  0  0  0  0  0  0  0
   36.4252   16.1098   -7.2367 N   0  0  0  0  0  0  0  0  0  0  0  0
   36.8082   17.3429   -7.9183 C   0  0  0  0  0  0  0  0  0  0  0  0
   36.5499   17.0894   -9.3680 C   0  0  0  0  0  0  0  0  0  0  0  0
   35.5032   15.9677   -9.3571 C   0  0  0  0  0  0  0  0  0  0  0  0
   34.2254   16.5053   -9.1935 O   0  0  0  0  0  0  0  0  0  0  0  0
   35.9452   15.1690   -8.2074 C   0  0  0  0  0  0  0  0  0  0  0  0
   35.9497   13.9277   -8.0060 O   0  0  0  0  0  0  0  0  0  0  0  0
   33.8580   16.6409  -10.1086 H   0  0  0  0  0  0  0  0  0  0  0  0
 23 24  1  0  0  0
 24 25  1  0  0  0
 25 26  1  0  0  0
 26 27  1  0  0  0
 27 28  1  0  0  0
 27 21  1  0  0  0
 21 22  3  0  0  0
 22  1  1  0  0  0
  1  2  2  0  0  0
  2  3  1  0  0  0
  3  4  2  0  0  0
  4  5  1  0  0  0
  5  6  2  0  0  0
  5  7  1  0  0  0
  7  8  2  0  0  0
  8  9  1  0  0  0
  9 16  1  0  0  0
 16 17  1  0  0  0
 16 18  2  0  0  0
  9 10  2  0  0  0
 10 11  1  0  0  0
 11 12  2  0  0  0
 12 13  1  0  0  0
 13 14  2  0  0  0
 14 15  1  0  0  0
 27 29  1  0  0  0
 29 30  2  0  0  0
 29 24  1  0  0  0
  6  1  1  0  0  0
 15  7  1  0  0  0
 15 10  1  0  0  0
 28 31  1  0  0  0
 17 19  1  0  0  0
 17 20  1  0  0  0
M  END
> <minimizedAffinity>
-8.83922

> <CNNscore>
0.6330698133

> <CNNaffinity>
6.5369133949

> <CNN_VS>
4.1383223534

> <CNNaffinity_variance>
0.0740909278

$$$$
[H]O[C@]1(C#Cc2c([H])c([H])c([H])c(-c3nc(C(=O)N([H])[H])c4c([H])c([H])c([H])c([H])n34)c2[H])C(=O)N(C([H])([H])[H])C([H])([H])C1([H])[H]


 31 34  0  0  0  0  0  0  0  0999 V2000
   40.7312   15.4706  -12.8578 C   0  0  0  0  0  0  0  0  0  0  0  0
   39.6855   15.7028  -11.9923 C   0  0  0  0  0  0  0  0  0  0  0  0
   38.4340   15.1728  -12.2196 C   0  0  0  0  0  0  0  0  0  0  0  0
   38.1858   14.4002  -13.3107 C   0  0  0  0  0  0  0  0  0  0  0  0
   39.2125   14.1298  -14.2285 C   0  0  0  0  0  0  0  0  0  0  0  0
   40.4414   14.6669  -13.9756 C   0  0  0  0  0  0  0  0  0  0  0  0
   38.9082   13.2276  -15.3562 C   0  0  0  0  0  0  0  0  0  0  0  0
   39.8578   12.9076  -16.2928 N   0  0  0  0  0  0  0  0  0  0  0  0
   39.3731   12.0585  -17.1893 C   0  0  0  0  0  0  0  0  0  0  0  0
   38.0679   11.8005  -16.8460 C   0  0  0  0  0  0  0  0  0  0  0  0
   37.1177   10.9852  -17.4172 C   0  0  0  0  0  0  0  0  0  0  0  0
   35.8782   10.9068  -16.8263 C   0  0  0  0  0  0  0  0  0  0  0  0
   35.6581   11.6480  -15.6957 C   0  0  0  0  0  0  0  0  0  0  0  0
   36.6296   12.4716  -15.1260 C   0  0  0  0  0  0  0  0  0  0  0  0
   37.8293   12.5381  -15.7160 N   0  0  0  0  0  0  0  0  0  0  0  0
   40.0924   11.4928  -18.3424 C   0  0  0  0  0  0  0  0  0  0  0  0
   39.4798   10.9768  -19.4876 N   0  0  0  0  0  0  0  0  0  0  0  0
   41.3693   11.4639  -18.3104 O   0  0  0  0  0  0  0  0  0  0  0  0
   39.3891    9.9537  -19.6570 H   0  0  0  0  0  0  0  0  0  0  0  0
   39.1013   11.6446  -20.1954 H   0  0  0  0  0  0  0  0  0  0  0  0
   43.1682   16.4412  -12.4815 C   0  0  0  0  0  0  0  0  0  0  0  0
   42.0518   15.9994  -12.6650 C   0  0  0  0  0  0  0  0  0  0  0  0
   48.0436   16.4757  -13.2548 C   0  0  0  0  0  0  0  0  0  0  0  0
   46.6607   16.8758  -13.1081 N   0  0  0  0  0  0  0  0  0  0  0  0
   46.2360   18.2664  -13.2403 C   0  0  0  0  0  0  0  0  0  0  0  0
   44.7554   18.2479  -13.0406 C   0  0  0  0  0  0  0  0  0  0  0  0
   44.5159   16.9629  -12.2372 C   0  0  0  0  0  0  0  0  0  0  0  0
   44.7256   17.2008  -10.8778 O   0  0  0  0  0  0  0  0  0  0  0  0
   45.5137   16.0616  -12.8264 C   0  0  0  0  0  0  0  0  0  0  0  0
   45.4809   14.8297  -13.0767 O   0  0  0  0  0  0  0  0  0  0  0  0
   43.8378   17.4338  -10.4927 H   0  0  0  0  0  0  0  0  0  0  0  0
 23 24  1  0  0  0
 24 25  1  0  0  0
 25 26  1  0  0  0
 26 27  1  0  0  0
 27 28  1  0  0  0
 27 21  1  0  0  0
 21 22  3  0  0  0
 22  1  1  0  0  0
  1  2  2  0  0  0
  2  3  1  0  0  0
  3  4  2  0  0  0
  4  5  1  0  0  0
  5  6  2  0  0  0
  5  7  1  0  0  0
  7  8  2  0  0  0
  8  9  1  0  0  0
  9 16  1  0  0  0
 16 17  1  0  0  0
 16 18  2  0  0  0
  9 10  2  0  0  0
 10 11  1  0  0  0
 11 12  2  0  0  0
 12 13  1  0  0  0
 13 14  2  0  0  0
 14 15  1  0  0  0
 27 29  1  0  0  0
 29 30  2  0  0  0
 29 24  1  0  0  0
  6  1  1  0  0  0
 15  7  1  0  0  0
 15 10  1  0  0  0
 28 31  1  0  0  0
 17 19  1  0  0  0
 17 20  1  0  0  0
M  END
> <minimizedAffinity>
-8.40946

> <CNNscore>
0.6320961714

> <CNNaffinity>
6.5791063309

> <CNN_VS>
4.1586279869

> <CNNaffinity_variance>
0.3808887601

$$$$
[H]O[C@]1(C#Cc2c([H])c([H])c([H])c(-c3nc(C(=O)N([H])[H])c4c([H])c([H])c([H])c([H])n34)c2[H])C(=O)N(C([H])([H])[H])C([H])([H])C1([H])[H]


 31 34  0  0  0  0  0  0  0  0999 V2000
   40.1013   15.5053  -12.3497 C   0  0  0  0  0  0  0  0  0  0  0  0
   41.4781   15.4972  -12.3154 C   0  0  0  0  0  0  0  0  0  0  0  0
   42.2140   14.7433  -13.2034 C   0  0  0  0  0  0  0  0  0  0  0  0
   41.6053   13.9770  -14.1476 C   0  0  0  0  0  0  0  0  0  0  0  0
   40.2048   13.9446  -14.2303 C   0  0  0  0  0  0  0  0  0  0  0  0
   39.5031   14.7030  -13.3386 C   0  0  0  0  0  0  0  0  0  0  0  0
   39.5972   13.1536  -15.3181 C   0  0  0  0  0  0  0  0  0  0  0  0
   40.3281   12.7576  -16.4091 N   0  0  0  0  0  0  0  0  0  0  0  0
   39.5891   12.0313  -17.2374 C   0  0  0  0  0  0  0  0  0  0  0  0
   38.3328   11.9356  -16.6893 C   0  0  0  0  0  0  0  0  0  0  0  0
   37.1964   11.2888  -17.1184 C   0  0  0  0  0  0  0  0  0  0  0  0
   36.0698   11.3485  -16.3317 C   0  0  0  0  0  0  0  0  0  0  0  0
   36.1427   12.0515  -15.1585 C   0  0  0  0  0  0  0  0  0  0  0  0
   37.3008   12.7038  -14.7342 C   0  0  0  0  0  0  0  0  0  0  0  0
   38.3871   12.6376  -15.5136 N   0  0  0  0  0  0  0  0  0  0  0  0
   40.0252   11.4351  -18.5107 C   0  0  0  0  0  0  0  0  0  0  0  0
   39.1640   10.9584  -19.5027 N   0  0  0  0  0  0  0  0  0  0  0  0
   41.2781   11.3391  -18.7419 O   0  0  0  0  0  0  0  0  0  0  0  0
   38.9868    9.9424  -19.6444 H   0  0  0  0  0  0  0  0  0  0  0  0
   38.6835   11.6490  -20.1211 H   0  0  0  0  0  0  0  0  0  0  0  0
   38.6133   16.9124  -10.6679 C   0  0  0  0  0  0  0  0  0  0  0  0
   39.2907   16.2733  -11.4475 C   0  0  0  0  0  0  0  0  0  0  0  0
   34.7071   17.4507   -7.6979 C   0  0  0  0  0  0  0  0  0  0  0  0
   36.0566   17.4041   -8.2183 N   0  0  0  0  0  0  0  0  0  0  0  0
   37.2157   17.7597   -7.4049 C   0  0  0  0  0  0  0  0  0  0  0  0
   38.3989   17.5621   -8.2956 C   0  0  0  0  0  0  0  0  0  0  0  0
   37.8100   17.6747   -9.7079 C   0  0  0  0  0  0  0  0  0  0  0  0
   37.7150   19.0160  -10.0827 O   0  0  0  0  0  0  0  0  0  0  0  0
   36.5027   17.0310   -9.5296 C   0  0  0  0  0  0  0  0  0  0  0  0
   35.8252   16.2933  -10.2900 O   0  0  0  0  0  0  0  0  0  0  0  0
   38.5541   19.2311  -10.5731 H   0  0  0  0  0  0  0  0  0  0  0  0
 23 24  1  0  0  0
 24 25  1  0  0  0
 25 26  1  0  0  0
 26 27  1  0  0  0
 27 28  1  0  0  0
 27 21  1  0  0  0
 21 22  3  0  0  0
 22  1  1  0  0  0
  1  2  2  0  0  0
  2  3  1  0  0  0
  3  4  2  0  0  0
  4  5  1  0  0  0
  5  6  2  0  0  0
  5  7  1  0  0  0
  7  8  2  0  0  0
  8  9  1  0  0  0
  9 16  1  0  0  0
 16 17  1  0  0  0
 16 18  2  0  0  0
  9 10  2  0  0  0
 10 11  1  0  0  0
 11 12  2  0  0  0
 12 13  1  0  0  0
 13 14  2  0  0  0
 14 15  1  0  0  0
 27 29  1  0  0  0
 29 30  2  0  0  0
 29 24  1  0  0  0
  6  1  1  0  0  0
 15  7  1  0  0  0
 15 10  1  0  0  0
 28 31  1  0  0  0
 17 19  1  0  0  0
 17 20  1  0  0  0
M  END
> <minimizedAffinity>
-8.72064

> <CNNscore>
0.6263113618

> <CNNaffinity>
6.5099687576

> <CNN_VS>
4.0772671700

> <CNNaffinity_variance>
0.2034974992

$$$$
[H]O[C@]1(C#Cc2c([H])c([H])c([H])c(-c3nc(C(=O)N([H])[H])c4c([H])c([H])c([H])c([H])n34)c2[H])C(=O)N(C([H])([H])[H])C([H])([H])C1([H])[H]


 31 34  0  0  0  0  0  0  0  0999 V2000
   38.3034   15.3442  -11.4727 C   0  0  0  0  0  0  0  0  0  0  0  0
   39.5008   16.0245  -11.4851 C   0  0  0  0  0  0  0  0  0  0  0  0
   40.4141   15.8520  -12.5023 C   0  0  0  0  0  0  0  0  0  0  0  0
   40.1654   15.0004  -13.5329 C   0  0  0  0  0  0  0  0  0  0  0  0
   38.9623   14.2791  -13.5738 C   0  0  0  0  0  0  0  0  0  0  0  0
   38.0768   14.4723  -12.5534 C   0  0  0  0  0  0  0  0  0  0  0  0
   38.7117   13.4238  -14.7501 C   0  0  0  0  0  0  0  0  0  0  0  0
   39.7181   13.0919  -15.6209 N   0  0  0  0  0  0  0  0  0  0  0  0
   39.2718   12.2902  -16.5790 C   0  0  0  0  0  0  0  0  0  0  0  0
   37.9347   12.0771  -16.3454 C   0  0  0  0  0  0  0  0  0  0  0  0
   37.0006   11.3192  -17.0140 C   0  0  0  0  0  0  0  0  0  0  0  0
   35.7166   11.2754  -16.5228 C   0  0  0  0  0  0  0  0  0  0  0  0
   35.4384   11.9918  -15.3891 C   0  0  0  0  0  0  0  0  0  0  0  0
   36.3941   12.7572  -14.7202 C   0  0  0  0  0  0  0  0  0  0  0  0
   37.6378   12.7908  -15.2138 N   0  0  0  0  0  0  0  0  0  0  0  0
   40.0560   11.7290  -17.6911 C   0  0  0  0  0  0  0  0  0  0  0  0
   41.4178   11.9617  -17.9019 N   0  0  0  0  0  0  0  0  0  0  0  0
   39.4646   10.9721  -18.5336 O   0  0  0  0  0  0  0  0  0  0  0  0
   41.7633   12.6219  -18.6288 H   0  0  0  0  0  0  0  0  0  0  0  0
   42.1093   11.4534  -17.3072 H   0  0  0  0  0  0  0  0  0  0  0  0
   36.5032   15.6205   -9.5477 C   0  0  0  0  0  0  0  0  0  0  0  0
   37.3201   15.4896  -10.4369 C   0  0  0  0  0  0  0  0  0  0  0  0
   33.9105   18.4151   -6.4112 C   0  0  0  0  0  0  0  0  0  0  0  0
   34.2887   17.4387   -7.4100 N   0  0  0  0  0  0  0  0  0  0  0  0
   33.3168   16.5383   -8.0234 C   0  0  0  0  0  0  0  0  0  0  0  0
   34.0982   15.7179   -8.9974 C   0  0  0  0  0  0  0  0  0  0  0  0
   35.5341   15.7927   -8.4618 C   0  0  0  0  0  0  0  0  0  0  0  0
   35.7233   14.8379   -7.4612 O   0  0  0  0  0  0  0  0  0  0  0  0
   35.5859   17.1718   -7.9613 C   0  0  0  0  0  0  0  0  0  0  0  0
   36.5094   18.0253   -7.9613 O   0  0  0  0  0  0  0  0  0  0  0  0
   36.0881   14.0281   -7.9105 H   0  0  0  0  0  0  0  0  0  0  0  0
 23 24  1  0  0  0
 24 25  1  0  0  0
 25 26  1  0  0  0
 26 27  1  0  0  0
 27 28  1  0  0  0
 27 21  1  0  0  0
 21 22  3  0  0  0
 22  1  1  0  0  0
  1  2  2  0  0  0
  2  3  1  0  0  0
  3  4  2  0  0  0
  4  5  1  0  0  0
  5  6  2  0  0  0
  5  7  1  0  0  0
  7  8  2  0  0  0
  8  9  1  0  0  0
  9 16  1  0  0  0
 16 17  1  0  0  0
 16 18  2  0  0  0
  9 10  2  0  0  0
 10 11  1  0  0  0
 11 12  2  0  0  0
 12 13  1  0  0  0
 13 14  2  0  0  0
 14 15  1  0  0  0
 27 29  1  0  0  0
 29 30  2  0  0  0
 29 24  1  0  0  0
  6  1  1  0  0  0
 15  7  1  0  0  0
 15 10  1  0  0  0
 28 31  1  0  0  0
 17 19  1  0  0  0
 17 20  1  0  0  0
M  END
> <minimizedAffinity>
-8.29969

> <CNNscore>
0.6070780158

> <CNNaffinity>
6.3027048111

> <CNN_VS>
3.8262336254

> <CNNaffinity_variance>
0.1916176081

$$$$
[H]O[C@]1(C#Cc2c([H])c([H])c([H])c(-c3nc(C(=O)N([H])[H])c4c([H])c([H])c([H])c([H])n34)c2[H])C(=O)N(C([H])([H])[H])C([H])([H])C1([H])[H]


 31 34  0  0  0  0  0  0  0  0999 V2000
   41.1216   12.2725  -16.7386 C   0  0  0  0  0  0  0  0  0  0  0  0
   41.1427   11.6203  -17.9514 C   0  0  0  0  0  0  0  0  0  0  0  0
   39.9868   11.1440  -18.5308 C   0  0  0  0  0  0  0  0  0  0  0  0
   38.7803   11.3006  -17.9235 C   0  0  0  0  0  0  0  0  0  0  0  0
   38.6966   11.9566  -16.6857 C   0  0  0  0  0  0  0  0  0  0  0  0
   39.8579   12.4187  -16.1376 C   0  0  0  0  0  0  0  0  0  0  0  0
   37.3556   12.1629  -16.1048 C   0  0  0  0  0  0  0  0  0  0  0  0
   36.2705   11.4436  -16.5365 N   0  0  0  0  0  0  0  0  0  0  0  0
   35.1819   11.7696  -15.8521 C   0  0  0  0  0  0  0  0  0  0  0  0
   35.5445   12.7292  -14.9379 C   0  0  0  0  0  0  0  0  0  0  0  0
   34.8190   13.3943  -13.9760 C   0  0  0  0  0  0  0  0  0  0  0  0
   35.4694   14.3021  -13.1732 C   0  0  0  0  0  0  0  0  0  0  0  0
   36.8102   14.4938  -13.3766 C   0  0  0  0  0  0  0  0  0  0  0  0
   37.5351   13.8137  -14.3558 C   0  0  0  0  0  0  0  0  0  0  0  0
   36.8855   12.9360  -15.1300 N   0  0  0  0  0  0  0  0  0  0  0  0
   33.8312   11.2129  -16.0323 C   0  0  0  0  0  0  0  0  0  0  0  0
   33.0175   10.7469  -14.9961 N   0  0  0  0  0  0  0  0  0  0  0  0
   33.3528   11.1435  -17.2150 O   0  0  0  0  0  0  0  0  0  0  0  0
   32.8856    9.7321  -14.8057 H   0  0  0  0  0  0  0  0  0  0  0  0
   32.5265   11.4448  -14.3943 H   0  0  0  0  0  0  0  0  0  0  0  0
   43.3009   13.2025  -15.5520 C   0  0  0  0  0  0  0  0  0  0  0  0
   42.2971   12.7866  -16.0948 C   0  0  0  0  0  0  0  0  0  0  0  0
   46.1124   13.9966  -11.5728 C   0  0  0  0  0  0  0  0  0  0  0  0
   45.6421   13.5836  -12.8775 N   0  0  0  0  0  0  0  0  0  0  0  0
   46.5129   12.9192  -13.8428 C   0  0  0  0  0  0  0  0  0  0  0  0
   45.6502   12.6487  -15.0323 C   0  0  0  0  0  0  0  0  0  0  0  0
   44.5245   13.6833  -14.9042 C   0  0  0  0  0  0  0  0  0  0  0  0
   44.9326   14.9054  -15.4415 O   0  0  0  0  0  0  0  0  0  0  0  0
   44.3343   13.7270  -13.4492 C   0  0  0  0  0  0  0  0  0  0  0  0
   43.2996   13.8576  -12.7465 O   0  0  0  0  0  0  0  0  0  0  0  0
   44.6313   14.9102  -16.3902 H   0  0  0  0  0  0  0  0  0  0  0  0
 23 24  1  0  0  0
 24 25  1  0  0  0
 25 26  1  0  0  0
 26 27  1  0  0  0
 27 28  1  0  0  0
 27 21  1  0  0  0
 21 22  3  0  0  0
 22  1  1  0  0  0
  1  2  2  0  0  0
  2  3  1  0  0  0
  3  4  2  0  0  0
  4  5  1  0  0  0
  5  6  2  0  0  0
  5  7  1  0  0  0
  7  8  2  0  0  0
  8  9  1  0  0  0
  9 16  1  0  0  0
 16 17  1  0  0  0
 16 18  2  0  0  0
  9 10  2  0  0  0
 10 11  1  0  0  0
 11 12  2  0  0  0
 12 13  1  0  0  0
 13 14  2  0  0  0
 14 15  1  0  0  0
 27 29  1  0  0  0
 29 30  2  0  0  0
 29 24  1  0  0  0
  6  1  1  0  0  0
 15  7  1  0  0  0
 15 10  1  0  0  0
 28 31  1  0  0  0
 17 19  1  0  0  0
 17 20  1  0  0  0
M  END
> <minimizedAffinity>
-9.88517

> <CNNscore>
0.5941175818

> <CNNaffinity>
6.7026166916

> <CNN_VS>
3.9821424484

> <CNNaffinity_variance>
0.0373792537

$$$$
[H]O[C@]1(C#Cc2c([H])c([H])c([H])c(-c3nc(C(=O)N([H])[H])c4c([H])c([H])c([H])c([H])n34)c2[H])C(=O)N(C([H])([H])[H])C([H])([H])C1([H])[H]


 31 34  0  0  0  0  0  0  0  0999 V2000
   41.1079   12.3266  -16.6703 C   0  0  0  0  0  0  0  0  0  0  0  0
   41.0051   11.7368  -17.9106 C   0  0  0  0  0  0  0  0  0  0  0  0
   39.7967   11.2818  -18.3914 C   0  0  0  0  0  0  0  0  0  0  0  0
   38.6590   11.3981  -17.6557 C   0  0  0  0  0  0  0  0  0  0  0  0
   38.7021   11.9898  -16.3839 C   0  0  0  0  0  0  0  0  0  0  0  0
   39.9127   12.4325  -15.9355 C   0  0  0  0  0  0  0  0  0  0  0  0
   37.4278   12.1562  -15.6581 C   0  0  0  0  0  0  0  0  0  0  0  0
   37.3376   12.9507  -14.5437 N   0  0  0  0  0  0  0  0  0  0  0  0
   36.0951   12.9786  -14.0798 C   0  0  0  0  0  0  0  0  0  0  0  0
   35.3324   12.1856  -14.9028 C   0  0  0  0  0  0  0  0  0  0  0  0
   33.9903   11.8814  -14.8901 C   0  0  0  0  0  0  0  0  0  0  0  0
   33.4928   11.0627  -15.8770 C   0  0  0  0  0  0  0  0  0  0  0  0
   34.3657   10.5942  -16.8228 C   0  0  0  0  0  0  0  0  0  0  0  0
   35.7248   10.9093  -16.8249 C   0  0  0  0  0  0  0  0  0  0  0  0
   36.1924   11.7050  -15.8554 N   0  0  0  0  0  0  0  0  0  0  0  0
   35.6136   13.7181  -12.9017 C   0  0  0  0  0  0  0  0  0  0  0  0
   34.8172   14.8654  -12.9528 N   0  0  0  0  0  0  0  0  0  0  0  0
   35.9377   13.2940  -11.7408 O   0  0  0  0  0  0  0  0  0  0  0  0
   35.2036   15.8184  -12.7914 H   0  0  0  0  0  0  0  0  0  0  0  0
   33.7996   14.7581  -13.1603 H   0  0  0  0  0  0  0  0  0  0  0  0
   43.3895   13.2124  -15.6545 C   0  0  0  0  0  0  0  0  0  0  0  0
   42.3424   12.8164  -16.1256 C   0  0  0  0  0  0  0  0  0  0  0  0
   46.6399   13.5260  -11.9523 C   0  0  0  0  0  0  0  0  0  0  0  0
   46.0296   13.3072  -13.2460 N   0  0  0  0  0  0  0  0  0  0  0  0
   46.8043   12.8847  -14.4091 C   0  0  0  0  0  0  0  0  0  0  0  0
   45.8123   12.7567  -15.5192 C   0  0  0  0  0  0  0  0  0  0  0  0
   44.6583   13.6665  -15.0782 C   0  0  0  0  0  0  0  0  0  0  0  0
   44.9280   14.9895  -15.4326 O   0  0  0  0  0  0  0  0  0  0  0  0
   44.6535   13.4470  -13.6267 C   0  0  0  0  0  0  0  0  0  0  0  0
   43.7117   13.3775  -12.7964 O   0  0  0  0  0  0  0  0  0  0  0  0
   44.5080   15.1333  -16.3235 H   0  0  0  0  0  0  0  0  0  0  0  0
 23 24  1  0  0  0
 24 25  1  0  0  0
 25 26  1  0  0  0
 26 27  1  0  0  0
 27 28  1  0  0  0
 27 21  1  0  0  0
 21 22  3  0  0  0
 22  1  1  0  0  0
  1  2  2  0  0  0
  2  3  1  0  0  0
  3  4  2  0  0  0
  4  5  1  0  0  0
  5  6  2  0  0  0
  5  7  1  0  0  0
  7  8  2  0  0  0
  8  9  1  0  0  0
  9 16  1  0  0  0
 16 17  1  0  0  0
 16 18  2  0  0  0
  9 10  2  0  0  0
 10 11  1  0  0  0
 11 12  2  0  0  0
 12 13  1  0  0  0
 13 14  2  0  0  0
 14 15  1  0  0  0
 27 29  1  0  0  0
 29 30  2  0  0  0
 29 24  1  0  0  0
  6  1  1  0  0  0
 15  7  1  0  0  0
 15 10  1  0  0  0
 28 31  1  0  0  0
 17 19  1  0  0  0
 17 20  1  0  0  0
M  END
> <minimizedAffinity>
-10.52326

> <CNNscore>
0.5453292727

> <CNNaffinity>
6.5691809654

> <CNN_VS>
3.5823667049

> <CNNaffinity_variance>
0.0734925717

$$$$
[H]O[C@]1(C#Cc2c([H])c([H])c([H])c(-c3nc(C(=O)N([H])[H])c4c([H])c([H])c([H])c([H])n34)c2[H])C(=O)N(C([H])([H])[H])C([H])([H])C1([H])[H]


 31 34  0  0  0  0  0  0  0  0999 V2000
   38.9913   15.4957  -12.1684 C   0  0  0  0  0  0  0  0  0  0  0  0
   40.3043   15.5230  -12.5830 C   0  0  0  0  0  0  0  0  0  0  0  0
   40.7394   14.7550  -13.6411 C   0  0  0  0  0  0  0  0  0  0  0  0
   39.8853   13.9393  -14.3151 C   0  0  0  0  0  0  0  0  0  0  0  0
   38.5355   13.8691  -13.9374 C   0  0  0  0  0  0  0  0  0  0  0  0
   38.1340   14.6426  -12.8872 C   0  0  0  0  0  0  0  0  0  0  0  0
   37.6369   13.0233  -14.7470 C   0  0  0  0  0  0  0  0  0  0  0  0
   36.2894   12.9673  -14.4972 N   0  0  0  0  0  0  0  0  0  0  0  0
   35.6778   12.1742  -15.3670 C   0  0  0  0  0  0  0  0  0  0  0  0
   36.6366   11.6873  -16.2223 C   0  0  0  0  0  0  0  0  0  0  0  0
   36.5491   10.8469  -17.3086 C   0  0  0  0  0  0  0  0  0  0  0  0
   37.6982   10.5491  -18.0032 C   0  0  0  0  0  0  0  0  0  0  0  0
   38.8717   11.1094  -17.5729 C   0  0  0  0  0  0  0  0  0  0  0  0
   38.9479   11.9599  -16.4695 C   0  0  0  0  0  0  0  0  0  0  0  0
   37.8202   12.2365  -15.8035 N   0  0  0  0  0  0  0  0  0  0  0  0
   34.2392   11.8658  -15.4143 C   0  0  0  0  0  0  0  0  0  0  0  0
   33.2602   12.5178  -14.6597 N   0  0  0  0  0  0  0  0  0  0  0  0
   33.8396   10.9379  -16.1965 O   0  0  0  0  0  0  0  0  0  0  0  0
   32.8318   12.0881  -13.8139 H   0  0  0  0  0  0  0  0  0  0  0  0
   32.9506   13.4691  -14.9585 H   0  0  0  0  0  0  0  0  0  0  0  0
   38.0487   16.9426  -10.1583 C   0  0  0  0  0  0  0  0  0  0  0  0
   38.4897   16.2764  -11.0731 C   0  0  0  0  0  0  0  0  0  0  0  0
   38.1796   18.7601   -5.5704 C   0  0  0  0  0  0  0  0  0  0  0  0
   38.0844   18.6333   -7.0088 N   0  0  0  0  0  0  0  0  0  0  0  0
   37.8304   19.7810   -7.8748 C   0  0  0  0  0  0  0  0  0  0  0  0
   37.8263   19.2336   -9.2650 C   0  0  0  0  0  0  0  0  0  0  0  0
   37.4945   17.7487   -9.0669 C   0  0  0  0  0  0  0  0  0  0  0  0
   36.1133   17.5754   -8.9633 O   0  0  0  0  0  0  0  0  0  0  0  0
   38.2086   17.4555   -7.8182 C   0  0  0  0  0  0  0  0  0  0  0  0
   38.8294   16.4322   -7.4325 O   0  0  0  0  0  0  0  0  0  0  0  0
   35.7851   17.3763   -9.8817 H   0  0  0  0  0  0  0  0  0  0  0  0
 23 24  1  0  0  0
 24 25  1  0  0  0
 25 26  1  0  0  0
 26 27  1  0  0  0
 27 28  1  0  0  0
 27 21  1  0  0  0
 21 22  3  0  0  0
 22  1  1  0  0  0
  1  2  2  0  0  0
  2  3  1  0  0  0
  3  4  2  0  0  0
  4  5  1  0  0  0
  5  6  2  0  0  0
  5  7  1  0  0  0
  7  8  2  0  0  0
  8  9  1  0  0  0
  9 16  1  0  0  0
 16 17  1  0  0  0
 16 18  2  0  0  0
  9 10  2  0  0  0
 10 11  1  0  0  0
 11 12  2  0  0  0
 12 13  1  0  0  0
 13 14  2  0  0  0
 14 15  1  0  0  0
 27 29  1  0  0  0
 29 30  2  0  0  0
 29 24  1  0  0  0
  6  1  1  0  0  0
 15  7  1  0  0  0
 15 10  1  0  0  0
 28 31  1  0  0  0
 17 19  1  0  0  0
 17 20  1  0  0  0
M  END
> <minimizedAffinity>
-8.85686

> <CNNscore>
0.5110863447

> <CNNaffinity>
6.2454557419

> <CNN_VS>
3.1919672489

> <CNNaffinity_variance>
0.1237809807

$$$$
[H]O[C@]1(C([H])([H])[H])c2sc(C(=O)N([H])[H])nc2-c2c([H])c(C#C[C@@]3(O[H])C(=O)N(C([H])([H])[H])C([H])([H])C3([H])[H])c(F)c([H])c2OC1([H])[H]


 34 37  0  0  0  0  0  0  0  0999 V2000
   40.9648   15.4249  -12.8148 C   0  0  0  0  0  0  0  0  0  0  0  0
   40.5007   14.5719  -13.7909 C   0  0  0  0  0  0  0  0  0  0  0  0
   39.1555   14.2391  -13.8622 C   0  0  0  0  0  0  0  0  0  0  0  0
   38.8973   13.3060  -14.9981 C   0  0  0  0  0  0  0  0  0  0  0  0
   39.8138   13.1025  -15.8918 N   0  0  0  0  0  0  0  0  0  0  0  0
   39.5886   12.2780  -16.8963 C   0  0  0  0  0  0  0  0  0  0  0  0
   37.9928   11.7460  -16.5810 S   0  0  0  0  0  0  0  0  0  0  0  0
   37.7092   12.6326  -15.1516 C   0  0  0  0  0  0  0  0  0  0  0  0
   36.4604   12.6188  -14.3432 C   0  0  0  0  0  0  0  0  0  0  0  0
   35.3478   12.0285  -15.1747 C   0  0  0  0  0  0  0  0  0  0  0  0
   36.5937   11.8803  -13.1732 O   0  0  0  0  0  0  0  0  0  0  0  0
   36.0539   14.0212  -13.9556 C   0  0  0  0  0  0  0  0  0  0  0  0
   36.8583   14.5122  -12.8988 O   0  0  0  0  0  0  0  0  0  0  0  0
   38.2448   14.7490  -12.9626 C   0  0  0  0  0  0  0  0  0  0  0  0
   38.6881   15.6028  -11.9799 C   0  0  0  0  0  0  0  0  0  0  0  0
   40.0293   15.9181  -11.9302 C   0  0  0  0  0  0  0  0  0  0  0  0
   40.5076   16.7667  -10.9637 F   0  0  0  0  0  0  0  0  0  0  0  0
   36.7306   12.4686  -12.3942 H   0  0  0  0  0  0  0  0  0  0  0  0
   40.4905   11.9068  -18.0148 C   0  0  0  0  0  0  0  0  0  0  0  0
   41.8823   11.9669  -17.8339 N   0  0  0  0  0  0  0  0  0  0  0  0
   40.0189   11.5462  -19.1014 O   0  0  0  0  0  0  0  0  0  0  0  0
   42.3710   12.6819  -17.2420 H   0  0  0  0  0  0  0  0  0  0  0  0
   42.4692   11.2434  -18.3277 H   0  0  0  0  0  0  0  0  0  0  0  0
   43.5369   16.0773  -12.6660 C   0  0  0  0  0  0  0  0  0  0  0  0
   42.3673   15.7854  -12.7231 C   0  0  0  0  0  0  0  0  0  0  0  0
   47.2400   17.7991  -15.2303 C   0  0  0  0  0  0  0  0  0  0  0  0
   46.1950   17.5530  -14.2421 N   0  0  0  0  0  0  0  0  0  0  0  0
   45.7297   18.5552  -13.3223 C   0  0  0  0  0  0  0  0  0  0  0  0
   45.1864   17.8245  -12.1223 C   0  0  0  0  0  0  0  0  0  0  0  0
   44.9719   16.4186  -12.6137 C   0  0  0  0  0  0  0  0  0  0  0  0
   45.6808   15.4839  -11.8600 O   0  0  0  0  0  0  0  0  0  0  0  0
   45.4713   16.3690  -13.9953 C   0  0  0  0  0  0  0  0  0  0  0  0
   45.2893   15.4445  -14.8091 O   0  0  0  0  0  0  0  0  0  0  0  0
   45.0493   14.7746  -11.5983 H   0  0  0  0  0  0  0  0  0  0  0  0
 26 27  1  0  0  0
 27 28  1  0  0  0
 28 29  1  0  0  0
 29 30  1  0  0  0
 30 31  1  0  0  0
 30 24  1  0  0  0
 24 25  3  0  0  0
 25  1  1  0  0  0
  1  2  2  0  0  0
  2  3  1  0  0  0
  3  4  1  0  0  0
  4  5  1  0  0  0
  5  6  2  0  0  0
  6  7  1  0  0  0
  7  8  1  0  0  0
  8  9  1  0  0  0
  9 10  1  0  0  0
  9 11  1  0  0  0
  9 12  1  0  0  0
 12 13  1  0  0  0
 13 14  1  0  0  0
 14 15  1  0  0  0
 15 16  2  0  0  0
 16 17  1  0  0  0
  6 19  1  0  0  0
 19 20  1  0  0  0
 19 21  2  0  0  0
 30 32  1  0  0  0
 32 33  2  0  0  0
 32 27  1  0  0  0
 16  1  1  0  0  0
 14  3  2  0  0  0
  8  4  2  0  0  0
 31 34  1  0  0  0
 11 18  1  0  0  0
 20 22  1  0  0  0
 20 23  1  0  0  0
M  END
> <minimizedAffinity>
-9.28794

> <CNNscore>
0.5509594679

> <CNNaffinity>
6.4198255539

> <CNN_VS>
3.5370635986

> <CNNaffinity_variance>
0.0890471265

$$$$
[H]O[C@]1(C([H])([H])[H])c2sc(C(=O)N([H])[H])nc2-c2c([H])c(C#C[C@@]3(O[H])C(=O)N(C([H])([H])[H])C([H])([H])C3([H])[H])c(F)c([H])c2OC1([H])[H]


 34 37  0  0  0  0  0  0  0  0999 V2000
   35.8186   13.2762  -13.1927 C   0  0  0  0  0  0  0  0  0  0  0  0
   36.9259   13.0206  -13.9702 C   0  0  0  0  0  0  0  0  0  0  0  0
   36.7940   12.4477  -15.2271 C   0  0  0  0  0  0  0  0  0  0  0  0
   38.1274   12.2704  -15.8739 C   0  0  0  0  0  0  0  0  0  0  0  0
   39.1752   12.8412  -15.3676 N   0  0  0  0  0  0  0  0  0  0  0  0
   40.3549   12.6858  -15.9366 C   0  0  0  0  0  0  0  0  0  0  0  0
   39.9871   11.6763  -17.2689 S   0  0  0  0  0  0  0  0  0  0  0  0
   38.3094   11.5141  -17.0067 C   0  0  0  0  0  0  0  0  0  0  0  0
   37.3614   10.7322  -17.8453 C   0  0  0  0  0  0  0  0  0  0  0  0
   38.0149   10.4364  -19.1732 C   0  0  0  0  0  0  0  0  0  0  0  0
   36.9867    9.5350  -17.2469 O   0  0  0  0  0  0  0  0  0  0  0  0
   36.1027   11.5227  -18.1154 C   0  0  0  0  0  0  0  0  0  0  0  0
   35.2547   11.5354  -16.9816 O   0  0  0  0  0  0  0  0  0  0  0  0
   35.5567   12.1177  -15.7356 C   0  0  0  0  0  0  0  0  0  0  0  0
   34.4380   12.3650  -14.9748 C   0  0  0  0  0  0  0  0  0  0  0  0
   34.5953   12.9349  -13.7293 C   0  0  0  0  0  0  0  0  0  0  0  0
   33.5019   13.1961  -12.9424 F   0  0  0  0  0  0  0  0  0  0  0  0
   36.0922    9.6053  -16.8388 H   0  0  0  0  0  0  0  0  0  0  0  0
   41.6667   13.2445  -15.5253 C   0  0  0  0  0  0  0  0  0  0  0  0
   42.7318   13.2623  -16.4411 N   0  0  0  0  0  0  0  0  0  0  0  0
   41.8215   13.6924  -14.3814 O   0  0  0  0  0  0  0  0  0  0  0  0
   42.9031   12.5207  -17.1630 H   0  0  0  0  0  0  0  0  0  0  0  0
   43.3998   14.0768  -16.3953 H   0  0  0  0  0  0  0  0  0  0  0  0
   36.0198   14.3569  -10.7729 C   0  0  0  0  0  0  0  0  0  0  0  0
   35.9349   13.8747  -11.8760 C   0  0  0  0  0  0  0  0  0  0  0  0
   38.4972   17.3985   -7.9687 C   0  0  0  0  0  0  0  0  0  0  0  0
   37.4756   16.6911   -8.7336 N   0  0  0  0  0  0  0  0  0  0  0  0
   36.2235   17.2868   -9.1137 C   0  0  0  0  0  0  0  0  0  0  0  0
   35.2401   16.1587   -9.2846 C   0  0  0  0  0  0  0  0  0  0  0  0
   36.1045   14.9341   -9.4172 C   0  0  0  0  0  0  0  0  0  0  0  0
   35.8122   13.9762   -8.4470 O   0  0  0  0  0  0  0  0  0  0  0  0
   37.4951   15.3713   -9.2274 C   0  0  0  0  0  0  0  0  0  0  0  0
   38.5152   14.6966   -9.4607 O   0  0  0  0  0  0  0  0  0  0  0  0
   35.6842   13.1160   -8.9096 H   0  0  0  0  0  0  0  0  0  0  0  0
 26 27  1  0  0  0
 27 28  1  0  0  0
 28 29  1  0  0  0
 29 30  1  0  0  0
 30 31  1  0  0  0
 30 24  1  0  0  0
 24 25  3  0  0  0
 25  1  1  0  0  0
  1  2  2  0  0  0
  2  3  1  0  0  0
  3  4  1  0  0  0
  4  5  1  0  0  0
  5  6  2  0  0  0
  6  7  1  0  0  0
  7  8  1  0  0  0
  8  9  1  0  0  0
  9 10  1  0  0  0
  9 11  1  0  0  0
  9 12  1  0  0  0
 12 13  1  0  0  0
 13 14  1  0  0  0
 14 15  1  0  0  0
 15 16  2  0  0  0
 16 17  1  0  0  0
  6 19  1  0  0  0
 19 20  1  0  0  0
 19 21  2  0  0  0
 30 32  1  0  0  0
 32 33  2  0  0  0
 32 27  1  0  0  0
 16  1  1  0  0  0
 14  3  2  0  0  0
  8  4  2  0  0  0
 31 34  1  0  0  0
 11 18  1  0  0  0
 20 22  1  0  0  0
 20 23  1  0  0  0
M  END
> <minimizedAffinity>
-8.76093

> <CNNscore>
0.5407909155

> <CNNaffinity>
7.0212798119

> <CNN_VS>
3.7970442772

> <CNNaffinity_variance>
0.2745384872

$$$$
[H]O[C@]1(C([H])([H])[H])c2sc(C(=O)N([H])[H])nc2-c2c([H])c(C#C[C@@]3(O[H])C(=O)N(C([H])([H])[H])C([H])([H])C3([H])[H])c(F)c([H])c2OC1([H])[H]


 34 37  0  0  0  0  0  0  0  0999 V2000
   40.6959   15.6252  -12.6467 C   0  0  0  0  0  0  0  0  0  0  0  0
   40.3275   14.7394  -13.6344 C   0  0  0  0  0  0  0  0  0  0  0  0
   39.0111   14.3176  -13.7548 C   0  0  0  0  0  0  0  0  0  0  0  0
   38.8594   13.3649  -14.8938 C   0  0  0  0  0  0  0  0  0  0  0  0
   39.8213   13.2194  -15.7504 N   0  0  0  0  0  0  0  0  0  0  0  0
   39.6902   12.3779  -16.7575 C   0  0  0  0  0  0  0  0  0  0  0  0
   38.1223   11.7420  -16.5000 S   0  0  0  0  0  0  0  0  0  0  0  0
   37.7255   12.6133  -15.0883 C   0  0  0  0  0  0  0  0  0  0  0  0
   36.4501   12.5195  -14.3281 C   0  0  0  0  0  0  0  0  0  0  0  0
   35.4120   11.8533  -15.1978 C   0  0  0  0  0  0  0  0  0  0  0  0
   36.5869   11.7962  -13.1492 O   0  0  0  0  0  0  0  0  0  0  0  0
   35.9368   13.8933  -13.9654 C   0  0  0  0  0  0  0  0  0  0  0  0
   36.6653   14.4408  -12.8819 O   0  0  0  0  0  0  0  0  0  0  0  0
   38.0346   14.7692  -12.8941 C   0  0  0  0  0  0  0  0  0  0  0  0
   38.3819   15.6544  -11.9006 C   0  0  0  0  0  0  0  0  0  0  0  0
   39.6963   16.0585  -11.8017 C   0  0  0  0  0  0  0  0  0  0  0  0
   40.0796   16.9408  -10.8231 F   0  0  0  0  0  0  0  0  0  0  0  0
   36.6542   12.3952  -12.3693 H   0  0  0  0  0  0  0  0  0  0  0  0
   40.6572   12.0633  -17.8383 C   0  0  0  0  0  0  0  0  0  0  0  0
   42.0355   12.0992  -17.5691 N   0  0  0  0  0  0  0  0  0  0  0  0
   40.2515   11.7706  -18.9709 O   0  0  0  0  0  0  0  0  0  0  0  0
   42.4911   12.7741  -16.9077 H   0  0  0  0  0  0  0  0  0  0  0  0
   42.6475   11.3999  -18.0673 H   0  0  0  0  0  0  0  0  0  0  0  0
   43.2125   16.4438  -12.4012 C   0  0  0  0  0  0  0  0  0  0  0  0
   42.0668   16.0787  -12.5038 C   0  0  0  0  0  0  0  0  0  0  0  0
   47.7270   15.4202  -13.7518 C   0  0  0  0  0  0  0  0  0  0  0  0
   46.4306   16.0409  -13.5004 N   0  0  0  0  0  0  0  0  0  0  0  0
   45.9470   17.1784  -14.2347 C   0  0  0  0  0  0  0  0  0  0  0  0
   44.9720   17.8929  -13.3359 C   0  0  0  0  0  0  0  0  0  0  0  0
   44.6207   16.8713  -12.2884 C   0  0  0  0  0  0  0  0  0  0  0  0
   44.9051   17.3203  -10.9993 O   0  0  0  0  0  0  0  0  0  0  0  0
   45.4476   15.6856  -12.5551 C   0  0  0  0  0  0  0  0  0  0  0  0
   45.3077   14.5615  -12.0383 O   0  0  0  0  0  0  0  0  0  0  0  0
   44.0992   17.1764  -10.4514 H   0  0  0  0  0  0  0  0  0  0  0  0
 26 27  1  0  0  0
 27 28  1  0  0  0
 28 29  1  0  0  0
 29 30  1  0  0  0
 30 31  1  0  0  0
 30 24  1  0  0  0
 24 25  3  0  0  0
 25  1  1  0  0  0
  1  2  2  0  0  0
  2  3  1  0  0  0
  3  4  1  0  0  0
  4  5  1  0  0  0
  5  6  2  0  0  0
  6  7  1  0  0  0
  7  8  1  0  0  0
  8  9  1  0  0  0
  9 10  1  0  0  0
  9 11  1  0  0  0
  9 12  1  0  0  0
 12 13  1  0  0  0
 13 14  1  0  0  0
 14 15  1  0  0  0
 15 16  2  0  0  0
 16 17  1  0  0  0
  6 19  1  0  0  0
 19 20  1  0  0  0
 19 21  2  0  0  0
 30 32  1  0  0  0
 32 33  2  0  0  0
 32 27  1  0  0  0
 16  1  1  0  0  0
 14  3  2  0  0  0
  8  4  2  0  0  0
 31 34  1  0  0  0
 11 18  1  0  0  0
 20 22  1  0  0  0
 20 23  1  0  0  0
M  END
> <minimizedAffinity>
-9.06998

> <CNNscore>
0.4630140364

> <CNNaffinity>
6.3344354630

> <CNN_VS>
2.9329326153

> <CNNaffinity_variance>
0.0770206824

$$$$
[H]O[C@]1(C([H])([H])[H])c2sc(C(=O)N([H])[H])nc2-c2c([H])c(C#C[C@@]3(O[H])C(=O)N(C([H])([H])[H])C([H])([H])C3([H])[H])c(F)c([H])c2OC1([H])[H]


 34 37  0  0  0  0  0  0  0  0999 V2000
   36.7017   13.5845  -13.0904 C   0  0  0  0  0  0  0  0  0  0  0  0
   37.6757   13.2000  -13.9845 C   0  0  0  0  0  0  0  0  0  0  0  0
   37.3362   12.6160  -15.1965 C   0  0  0  0  0  0  0  0  0  0  0  0
   38.5571   12.2892  -15.9905 C   0  0  0  0  0  0  0  0  0  0  0  0
   39.7098   12.7611  -15.6318 N   0  0  0  0  0  0  0  0  0  0  0  0
   40.7905   12.4735  -16.3312 C   0  0  0  0  0  0  0  0  0  0  0  0
   40.1658   11.4777  -17.5751 S   0  0  0  0  0  0  0  0  0  0  0  0
   38.5246   11.4935  -17.1104 C   0  0  0  0  0  0  0  0  0  0  0  0
   37.4093   10.7941  -17.8033 C   0  0  0  0  0  0  0  0  0  0  0  0
   37.8642   10.4038  -19.1885 C   0  0  0  0  0  0  0  0  0  0  0  0
   36.9937    9.6549  -17.1241 O   0  0  0  0  0  0  0  0  0  0  0  0
   36.2113   11.7029  -17.9490 C   0  0  0  0  0  0  0  0  0  0  0  0
   35.5128   11.8271  -16.7237 O   0  0  0  0  0  0  0  0  0  0  0  0
   36.0198   12.4029  -15.5430 C   0  0  0  0  0  0  0  0  0  0  0  0
   35.0317   12.7799  -14.6639 C   0  0  0  0  0  0  0  0  0  0  0  0
   35.3946   13.3581  -13.4661 C   0  0  0  0  0  0  0  0  0  0  0  0
   34.4361   13.7469  -12.5644 F   0  0  0  0  0  0  0  0  0  0  0  0
   36.1667    9.8251  -16.6154 H   0  0  0  0  0  0  0  0  0  0  0  0
   42.1912   12.9043  -16.0977 C   0  0  0  0  0  0  0  0  0  0  0  0
   43.2044   12.4758  -16.9714 N   0  0  0  0  0  0  0  0  0  0  0  0
   42.4654   13.6374  -15.1383 O   0  0  0  0  0  0  0  0  0  0  0  0
   43.2237   11.5368  -17.4388 H   0  0  0  0  0  0  0  0  0  0  0  0
   43.9948   13.1458  -17.1666 H   0  0  0  0  0  0  0  0  0  0  0  0
   37.2981   14.7204  -10.7627 C   0  0  0  0  0  0  0  0  0  0  0  0
   37.0356   14.1969  -11.8179 C   0  0  0  0  0  0  0  0  0  0  0  0
   37.7790   14.0072   -6.0180 C   0  0  0  0  0  0  0  0  0  0  0  0
   37.9693   14.3362   -7.4268 N   0  0  0  0  0  0  0  0  0  0  0  0
   39.2648   14.4850   -8.0322 C   0  0  0  0  0  0  0  0  0  0  0  0
   39.0889   15.4020   -9.2142 C   0  0  0  0  0  0  0  0  0  0  0  0
   37.6078   15.3804   -9.4794 C   0  0  0  0  0  0  0  0  0  0  0  0
   37.0447   16.6548   -9.4240 O   0  0  0  0  0  0  0  0  0  0  0  0
   36.9974   14.5617   -8.4221 C   0  0  0  0  0  0  0  0  0  0  0  0
   35.8263   14.1391   -8.4047 O   0  0  0  0  0  0  0  0  0  0  0  0
   36.5116   16.7785  -10.2431 H   0  0  0  0  0  0  0  0  0  0  0  0
 26 27  1  0  0  0
 27 28  1  0  0  0
 28 29  1  0  0  0
 29 30  1  0  0  0
 30 31  1  0  0  0
 30 24  1  0  0  0
 24 25  3  0  0  0
 25  1  1  0  0  0
  1  2  2  0  0  0
  2  3  1  0  0  0
  3  4  1  0  0  0
  4  5  1  0  0  0
  5  6  2  0  0  0
  6  7  1  0  0  0
  7  8  1  0  0  0
  8  9  1  0  0  0
  9 10  1  0  0  0
  9 11  1  0  0  0
  9 12  1  0  0  0
 12 13  1  0  0  0
 13 14  1  0  0  0
 14 15  1  0  0  0
 15 16  2  0  0  0
 16 17  1  0  0  0
  6 19  1  0  0  0
 19 20  1  0  0  0
 19 21  2  0  0  0
 30 32  1  0  0  0
 32 33  2  0  0  0
 32 27  1  0  0  0
 16  1  1  0  0  0
 14  3  2  0  0  0
  8  4  2  0  0  0
 31 34  1  0  0  0
 11 18  1  0  0  0
 20 22  1  0  0  0
 20 23  1  0  0  0
M  END
> <minimizedAffinity>
-8.30032

> <CNNscore>
0.4627095759

> <CNNaffinity>
6.8530082703

> <CNN_VS>
3.1709525585

> <CNNaffinity_variance>
0.2522895038

$$$$
[H]O[C@]1(C([H])([H])[H])c2sc(C(=O)N([H])[H])nc2-c2c([H])c(C#C[C@@]3(O[H])C(=O)N(C([H])([H])[H])C([H])([H])C3([H])[H])c(F)c([H])c2OC1([H])[H]


 34 37  0  0  0  0  0  0  0  0999 V2000
   35.7694   13.5302  -13.0539 C   0  0  0  0  0  0  0  0  0  0  0  0
   36.8565   13.2196  -13.8397 C   0  0  0  0  0  0  0  0  0  0  0  0
   36.6894   12.6021  -15.0709 C   0  0  0  0  0  0  0  0  0  0  0  0
   38.0067   12.3697  -15.7332 C   0  0  0  0  0  0  0  0  0  0  0  0
   39.0758   12.9356  -15.2674 N   0  0  0  0  0  0  0  0  0  0  0  0
   40.2413   12.7315  -15.8502 C   0  0  0  0  0  0  0  0  0  0  0  0
   39.8273   11.6803  -17.1358 S   0  0  0  0  0  0  0  0  0  0  0  0
   38.1515   11.5665  -16.8388 C   0  0  0  0  0  0  0  0  0  0  0  0
   37.1714   10.7747  -17.6300 C   0  0  0  0  0  0  0  0  0  0  0  0
   37.7942   10.4133  -18.9564 C   0  0  0  0  0  0  0  0  0  0  0  0
   36.7812    9.6102  -16.9792 O   0  0  0  0  0  0  0  0  0  0  0  0
   35.9258   11.5828  -17.9089 C   0  0  0  0  0  0  0  0  0  0  0  0
   35.0990   11.6584  -16.7620 O   0  0  0  0  0  0  0  0  0  0  0  0
   35.4361   12.2811  -15.5449 C   0  0  0  0  0  0  0  0  0  0  0  0
   34.3371   12.5828  -14.7752 C   0  0  0  0  0  0  0  0  0  0  0  0
   34.5294   13.1964  -13.5557 C   0  0  0  0  0  0  0  0  0  0  0  0
   33.4564   13.5125  -12.7608 F   0  0  0  0  0  0  0  0  0  0  0  0
   35.8960    9.7165  -16.5588 H   0  0  0  0  0  0  0  0  0  0  0  0
   41.5723   13.2756  -15.4835 C   0  0  0  0  0  0  0  0  0  0  0  0
   42.6003   13.3000  -16.4406 N   0  0  0  0  0  0  0  0  0  0  0  0
   41.7756   13.7057  -14.3403 O   0  0  0  0  0  0  0  0  0  0  0  0
   42.7375   12.5680  -17.1794 H   0  0  0  0  0  0  0  0  0  0  0  0
   43.2754   14.1094  -16.4097 H   0  0  0  0  0  0  0  0  0  0  0  0
   36.0358   14.7273  -10.6960 C   0  0  0  0  0  0  0  0  0  0  0  0
   35.9226   14.1759  -11.7635 C   0  0  0  0  0  0  0  0  0  0  0  0
   33.8784   15.5201   -6.4569 C   0  0  0  0  0  0  0  0  0  0  0  0
   34.7926   15.1550   -7.5339 N   0  0  0  0  0  0  0  0  0  0  0  0
   35.8825   14.2332   -7.3626 C   0  0  0  0  0  0  0  0  0  0  0  0
   36.9166   14.5859   -8.3996 C   0  0  0  0  0  0  0  0  0  0  0  0
   36.1645   15.4214   -9.3998 C   0  0  0  0  0  0  0  0  0  0  0  0
   36.7323   16.6844   -9.5633 O   0  0  0  0  0  0  0  0  0  0  0  0
   34.8030   15.5942   -8.8731 C   0  0  0  0  0  0  0  0  0  0  0  0
   33.8264   16.0488   -9.4974 O   0  0  0  0  0  0  0  0  0  0  0  0
   36.8486   16.8336  -10.5300 H   0  0  0  0  0  0  0  0  0  0  0  0
 26 27  1  0  0  0
 27 28  1  0  0  0
 28 29  1  0  0  0
 29 30  1  0  0  0
 30 31  1  0  0  0
 30 24  1  0  0  0
 24 25  3  0  0  0
 25  1  1  0  0  0
  1  2  2  0  0  0
  2  3  1  0  0  0
  3  4  1  0  0  0
  4  5  1  0  0  0
  5  6  2  0  0  0
  6  7  1  0  0  0
  7  8  1  0  0  0
  8  9  1  0  0  0
  9 10  1  0  0  0
  9 11  1  0  0  0
  9 12  1  0  0  0
 12 13  1  0  0  0
 13 14  1  0  0  0
 14 15  1  0  0  0
 15 16  2  0  0  0
 16 17  1  0  0  0
  6 19  1  0  0  0
 19 20  1  0  0  0
 19 21  2  0  0  0
 30 32  1  0  0  0
 32 33  2  0  0  0
 32 27  1  0  0  0
 16  1  1  0  0  0
 14  3  2  0  0  0
  8  4  2  0  0  0
 31 34  1  0  0  0
 11 18  1  0  0  0
 20 22  1  0  0  0
 20 23  1  0  0  0
M  END
> <minimizedAffinity>
-8.14415

> <CNNscore>
0.3058061004

> <CNNaffinity>
6.6562204361

> <CNN_VS>
2.0355129242

> <CNNaffinity_variance>
0.2443867922

$$$$
[H]O[C@]1(C([H])([H])[H])c2sc(C(=O)N([H])[H])nc2-c2c([H])c(C#C[C@@]3(O[H])C(=O)N(C([H])([H])[H])C([H])([H])C3([H])[H])c(F)c([H])c2OC1([H])[H]


 34 37  0  0  0  0  0  0  0  0999 V2000
   36.7682   14.6792  -11.9591 C   0  0  0  0  0  0  0  0  0  0  0  0
   36.9766   13.9017  -13.0763 C   0  0  0  0  0  0  0  0  0  0  0  0
   35.9069   13.4407  -13.8302 C   0  0  0  0  0  0  0  0  0  0  0  0
   36.3824   12.6243  -14.9856 C   0  0  0  0  0  0  0  0  0  0  0  0
   37.6384   12.6231  -15.3059 N   0  0  0  0  0  0  0  0  0  0  0  0
   38.0615   11.9021  -16.3261 C   0  0  0  0  0  0  0  0  0  0  0  0
   36.6163   11.1731  -16.8820 S   0  0  0  0  0  0  0  0  0  0  0  0
   35.5386   11.8528  -15.7480 C   0  0  0  0  0  0  0  0  0  0  0  0
   34.0717   11.6146  -15.6788 C   0  0  0  0  0  0  0  0  0  0  0  0
   33.6135   11.0120  -16.9845 C   0  0  0  0  0  0  0  0  0  0  0  0
   33.7209   10.7630  -14.6379 O   0  0  0  0  0  0  0  0  0  0  0  0
   33.3238   12.9122  -15.4808 C   0  0  0  0  0  0  0  0  0  0  0  0
   33.4216   13.3582  -14.1405 O   0  0  0  0  0  0  0  0  0  0  0  0
   34.6075   13.7445  -13.4870 C   0  0  0  0  0  0  0  0  0  0  0  0
   34.3778   14.5198  -12.3746 C   0  0  0  0  0  0  0  0  0  0  0  0
   35.4573   14.9657  -11.6421 C   0  0  0  0  0  0  0  0  0  0  0  0
   35.2665   15.7413  -10.5264 F   0  0  0  0  0  0  0  0  0  0  0  0
   33.3679   11.2677  -13.8682 H   0  0  0  0  0  0  0  0  0  0  0  0
   39.4404   11.7599  -16.8560 C   0  0  0  0  0  0  0  0  0  0  0  0
   40.4854   12.5014  -16.2803 N   0  0  0  0  0  0  0  0  0  0  0  0
   39.6684   10.9920  -17.8001 O   0  0  0  0  0  0  0  0  0  0  0  0
   40.3799   13.4722  -15.8969 H   0  0  0  0  0  0  0  0  0  0  0  0
   41.4360   12.0477  -16.2331 H   0  0  0  0  0  0  0  0  0  0  0  0
   38.7889   15.5997  -10.4987 C   0  0  0  0  0  0  0  0  0  0  0  0
   37.8730   15.1713  -11.1574 C   0  0  0  0  0  0  0  0  0  0  0  0
   42.5062   14.4140   -7.6652 C   0  0  0  0  0  0  0  0  0  0  0  0
   41.6355   14.9258   -8.7183 N   0  0  0  0  0  0  0  0  0  0  0  0
   42.1154   15.3147  -10.0166 C   0  0  0  0  0  0  0  0  0  0  0  0
   41.1410   16.3304  -10.5533 C   0  0  0  0  0  0  0  0  0  0  0  0
   39.9107   16.1425   -9.7077 C   0  0  0  0  0  0  0  0  0  0  0  0
   39.5385   17.3155   -9.0522 O   0  0  0  0  0  0  0  0  0  0  0  0
   40.2418   15.1332   -8.6915 C   0  0  0  0  0  0  0  0  0  0  0  0
   39.4351   14.5593   -7.9366 O   0  0  0  0  0  0  0  0  0  0  0  0
   38.5801   17.4609   -9.2271 H   0  0  0  0  0  0  0  0  0  0  0  0
 26 27  1  0  0  0
 27 28  1  0  0  0
 28 29  1  0  0  0
 29 30  1  0  0  0
 30 31  1  0  0  0
 30 24  1  0  0  0
 24 25  3  0  0  0
 25  1  1  0  0  0
  1  2  2  0  0  0
  2  3  1  0  0  0
  3  4  1  0  0  0
  4  5  1  0  0  0
  5  6  2  0  0  0
  6  7  1  0  0  0
  7  8  1  0  0  0
  8  9  1  0  0  0
  9 10  1  0  0  0
  9 11  1  0  0  0
  9 12  1  0  0  0
 12 13  1  0  0  0
 13 14  1  0  0  0
 14 15  1  0  0  0
 15 16  2  0  0  0
 16 17  1  0  0  0
  6 19  1  0  0  0
 19 20  1  0  0  0
 19 21  2  0  0  0
 30 32  1  0  0  0
 32 33  2  0  0  0
 32 27  1  0  0  0
 16  1  1  0  0  0
 14  3  2  0  0  0
  8  4  2  0  0  0
 31 34  1  0  0  0
 11 18  1  0  0  0
 20 22  1  0  0  0
 20 23  1  0  0  0
M  END
> <minimizedAffinity>
-8.19121

> <CNNscore>
0.2260306329

> <CNNaffinity>
6.4756560326

> <CNN_VS>
1.4636965990

> <CNNaffinity_variance>
0.1370098889

$$$$
[H]O[C@]1(C([H])([H])[H])c2sc(C(=O)N([H])[H])nc2-c2c([H])c(C#C[C@@]3(O[H])C(=O)N(C([H])([H])[H])C([H])([H])C3([H])[H])c(F)c([H])c2OC1([H])[H]


 34 37  0  0  0  0  0  0  0  0999 V2000
   41.1272   12.4640  -16.1930 C   0  0  0  0  0  0  0  0  0  0  0  0
   39.8927   12.6090  -15.6007 C   0  0  0  0  0  0  0  0  0  0  0  0
   38.7725   11.9861  -16.1323 C   0  0  0  0  0  0  0  0  0  0  0  0
   37.5582   12.2899  -15.3194 C   0  0  0  0  0  0  0  0  0  0  0  0
   37.6795   12.8467  -14.1552 N   0  0  0  0  0  0  0  0  0  0  0  0
   36.6081   13.1169  -13.4348 C   0  0  0  0  0  0  0  0  0  0  0  0
   35.3414   12.5600  -14.4420 S   0  0  0  0  0  0  0  0  0  0  0  0
   36.2848   12.0044  -15.7500 C   0  0  0  0  0  0  0  0  0  0  0  0
   35.7722   11.3810  -16.9997 C   0  0  0  0  0  0  0  0  0  0  0  0
   34.3441   10.9462  -16.7775 C   0  0  0  0  0  0  0  0  0  0  0  0
   35.8190   12.2494  -18.0839 O   0  0  0  0  0  0  0  0  0  0  0  0
   36.5781   10.1550  -17.3600 C   0  0  0  0  0  0  0  0  0  0  0  0
   37.8263   10.5123  -17.9247 O   0  0  0  0  0  0  0  0  0  0  0  0
   38.8588   11.2060  -17.2649 C   0  0  0  0  0  0  0  0  0  0  0  0
   40.0828   11.0485  -17.8716 C   0  0  0  0  0  0  0  0  0  0  0  0
   41.1807   11.6775  -17.3242 C   0  0  0  0  0  0  0  0  0  0  0  0
   42.4179   11.5429  -17.9024 F   0  0  0  0  0  0  0  0  0  0  0  0
   36.5916   12.0539  -18.6640 H   0  0  0  0  0  0  0  0  0  0  0  0
   36.5239   13.7442  -12.0927 C   0  0  0  0  0  0  0  0  0  0  0  0
   35.2653   14.0065  -11.5264 N   0  0  0  0  0  0  0  0  0  0  0  0
   37.5572   14.0348  -11.4753 O   0  0  0  0  0  0  0  0  0  0  0  0
   34.4180   14.2915  -12.0753 H   0  0  0  0  0  0  0  0  0  0  0  0
   35.1719   13.9089  -10.4807 H   0  0  0  0  0  0  0  0  0  0  0  0
   43.2995   13.6237  -15.1931 C   0  0  0  0  0  0  0  0  0  0  0  0
   42.3107   13.1067  -15.6529 C   0  0  0  0  0  0  0  0  0  0  0  0
   45.3751   15.0372  -11.0765 C   0  0  0  0  0  0  0  0  0  0  0  0
   45.0388   14.4085  -12.3495 N   0  0  0  0  0  0  0  0  0  0  0  0
   45.6503   13.1925  -12.8126 C   0  0  0  0  0  0  0  0  0  0  0  0
   45.5640   13.2083  -14.3163 C   0  0  0  0  0  0  0  0  0  0  0  0
   44.5092   14.2395  -14.6134 C   0  0  0  0  0  0  0  0  0  0  0  0
   44.9891   15.2631  -15.4296 O   0  0  0  0  0  0  0  0  0  0  0  0
   44.1120   14.8263  -13.3256 C   0  0  0  0  0  0  0  0  0  0  0  0
   43.1291   15.5644  -13.1269 O   0  0  0  0  0  0  0  0  0  0  0  0
   44.3525   15.3713  -16.1736 H   0  0  0  0  0  0  0  0  0  0  0  0
 26 27  1  0  0  0
 27 28  1  0  0  0
 28 29  1  0  0  0
 29 30  1  0  0  0
 30 31  1  0  0  0
 30 24  1  0  0  0
 24 25  3  0  0  0
 25  1  1  0  0  0
  1  2  2  0  0  0
  2  3  1  0  0  0
  3  4  1  0  0  0
  4  5  1  0  0  0
  5  6  2  0  0  0
  6  7  1  0  0  0
  7  8  1  0  0  0
  8  9  1  0  0  0
  9 10  1  0  0  0
  9 11  1  0  0  0
  9 12  1  0  0  0
 12 13  1  0  0  0
 13 14  1  0  0  0
 14 15  1  0  0  0
 15 16  2  0  0  0
 16 17  1  0  0  0
  6 19  1  0  0  0
 19 20  1  0  0  0
 19 21  2  0  0  0
 30 32  1  0  0  0
 32 33  2  0  0  0
 32 27  1  0  0  0
 16  1  1  0  0  0
 14  3  2  0  0  0
  8  4  2  0  0  0
 31 34  1  0  0  0
 11 18  1  0  0  0
 20 22  1  0  0  0
 20 23  1  0  0  0
M  END
> <minimizedAffinity>
-8.60090

> <CNNscore>
0.1917554438

> <CNNaffinity>
6.2797269821

> <CNN_VS>
1.2041717768

> <CNNaffinity_variance>
0.0643155649

$$$$
[H]O[C@]1(C([H])([H])[H])c2sc(C(=O)N([H])[H])nc2-c2c([H])c(C#C[C@@]3(O[H])C(=O)N(C([H])([H])[H])C([H])([H])C3([H])[H])c(F)c([H])c2OC1([H])[H]


 34 37  0  0  0  0  0  0  0  0999 V2000
   39.1582   14.7345  -13.1770 C   0  0  0  0  0  0  0  0  0  0  0  0
   38.5485   13.9140  -14.0996 C   0  0  0  0  0  0  0  0  0  0  0  0
   39.2901   13.2828  -15.0880 C   0  0  0  0  0  0  0  0  0  0  0  0
   38.4124   12.4505  -15.9624 C   0  0  0  0  0  0  0  0  0  0  0  0
   37.1892   12.2063  -15.6097 N   0  0  0  0  0  0  0  0  0  0  0  0
   36.4111   11.4717  -16.3807 C   0  0  0  0  0  0  0  0  0  0  0  0
   37.4476   11.0914  -17.6885 S   0  0  0  0  0  0  0  0  0  0  0  0
   38.8419   11.9154  -17.1530 C   0  0  0  0  0  0  0  0  0  0  0  0
   40.1485   11.9821  -17.8613 C   0  0  0  0  0  0  0  0  0  0  0  0
   40.1906   10.8973  -18.9098 C   0  0  0  0  0  0  0  0  0  0  0  0
   40.3587   13.2126  -18.4724 O   0  0  0  0  0  0  0  0  0  0  0  0
   41.2930   11.7447  -16.9042 C   0  0  0  0  0  0  0  0  0  0  0  0
   41.5431   12.8920  -16.1131 O   0  0  0  0  0  0  0  0  0  0  0  0
   40.6541   13.4557  -15.1779 C   0  0  0  0  0  0  0  0  0  0  0  0
   41.2822   14.2713  -14.2660 C   0  0  0  0  0  0  0  0  0  0  0  0
   40.5235   14.8871  -13.2935 C   0  0  0  0  0  0  0  0  0  0  0  0
   41.1159   15.7076  -12.3668 F   0  0  0  0  0  0  0  0  0  0  0  0
   40.9647   13.7770  -17.9378 H   0  0  0  0  0  0  0  0  0  0  0  0
   34.9968   11.0762  -16.1674 C   0  0  0  0  0  0  0  0  0  0  0  0
   34.1994   11.8062  -15.2704 N   0  0  0  0  0  0  0  0  0  0  0  0
   34.5224   10.1083  -16.7767 O   0  0  0  0  0  0  0  0  0  0  0  0
   34.5543   12.2444  -14.3858 H   0  0  0  0  0  0  0  0  0  0  0  0
   33.1779   11.9177  -15.5066 H   0  0  0  0  0  0  0  0  0  0  0  0
   37.7597   15.9699  -11.2845 C   0  0  0  0  0  0  0  0  0  0  0  0
   38.4009   15.4036  -12.1357 C   0  0  0  0  0  0  0  0  0  0  0  0
   33.7755   15.7454   -8.5773 C   0  0  0  0  0  0  0  0  0  0  0  0
   35.1421   15.8371   -9.0805 N   0  0  0  0  0  0  0  0  0  0  0  0
   36.2987   15.5658   -8.2709 C   0  0  0  0  0  0  0  0  0  0  0  0
   37.4406   16.3441   -8.8705 C   0  0  0  0  0  0  0  0  0  0  0  0
   36.9686   16.6785  -10.2596 C   0  0  0  0  0  0  0  0  0  0  0  0
   36.9606   18.0527  -10.4960 O   0  0  0  0  0  0  0  0  0  0  0  0
   35.5885   16.1849  -10.3713 C   0  0  0  0  0  0  0  0  0  0  0  0
   34.9257   16.0890  -11.4209 O   0  0  0  0  0  0  0  0  0  0  0  0
   37.4381   18.2099  -11.3432 H   0  0  0  0  0  0  0  0  0  0  0  0
 26 27  1  0  0  0
 27 28  1  0  0  0
 28 29  1  0  0  0
 29 30  1  0  0  0
 30 31  1  0  0  0
 30 24  1  0  0  0
 24 25  3  0  0  0
 25  1  1  0  0  0
  1  2  2  0  0  0
  2  3  1  0  0  0
  3  4  1  0  0  0
  4  5  1  0  0  0
  5  6  2  0  0  0
  6  7  1  0  0  0
  7  8  1  0  0  0
  8  9  1  0  0  0
  9 10  1  0  0  0
  9 11  1  0  0  0
  9 12  1  0  0  0
 12 13  1  0  0  0
 13 14  1  0  0  0
 14 15  1  0  0  0
 15 16  2  0  0  0
 16 17  1  0  0  0
  6 19  1  0  0  0
 19 20  1  0  0  0
 19 21  2  0  0  0
 30 32  1  0  0  0
 32 33  2  0  0  0
 32 27  1  0  0  0
 16  1  1  0  0  0
 14  3  2  0  0  0
  8  4  2  0  0  0
 31 34  1  0  0  0
 11 18  1  0  0  0
 20 22  1  0  0  0
 20 23  1  0  0  0
M  END
> <minimizedAffinity>
-9.05135

> <CNNscore>
0.1755110174

> <CNNaffinity>
6.4711217880

> <CNN_VS>
1.1357531548

> <CNNaffinity_variance>
0.0806453973

$$$$
[H]O[C@]1(C([H])([H])[H])c2sc(C(=O)N([H])[H])nc2-c2c([H])c(C#C[C@@]3(O[H])C(=O)N(C([H])([H])[H])C([H])([H])C3([H])[H])c(F)c([H])c2OC1([H])[H]


 34 37  0  0  0  0  0  0  0  0999 V2000
   39.5282   12.9148  -14.7755 C   0  0  0  0  0  0  0  0  0  0  0  0
   40.4893   13.5061  -13.9865 C   0  0  0  0  0  0  0  0  0  0  0  0
   41.7942   13.6417  -14.4385 C   0  0  0  0  0  0  0  0  0  0  0  0
   42.6465   14.3105  -13.4118 C   0  0  0  0  0  0  0  0  0  0  0  0
   42.0982   14.8825  -12.3860 N   0  0  0  0  0  0  0  0  0  0  0  0
   42.8489   15.4737  -11.4768 C   0  0  0  0  0  0  0  0  0  0  0  0
   44.4279   15.2194  -12.0860 S   0  0  0  0  0  0  0  0  0  0  0  0
   44.0174   14.3533  -13.4970 C   0  0  0  0  0  0  0  0  0  0  0  0
   44.9697   13.8191  -14.5075 C   0  0  0  0  0  0  0  0  0  0  0  0
   46.3077   14.4919  -14.3200 C   0  0  0  0  0  0  0  0  0  0  0  0
   45.1352   12.4428  -14.4053 O   0  0  0  0  0  0  0  0  0  0  0  0
   44.4931   14.1201  -15.9091 C   0  0  0  0  0  0  0  0  0  0  0  0
   43.4401   13.2525  -16.2876 O   0  0  0  0  0  0  0  0  0  0  0  0
   42.1687   13.1913  -15.6856 C   0  0  0  0  0  0  0  0  0  0  0  0
   41.2237   12.5977  -16.4893 C   0  0  0  0  0  0  0  0  0  0  0  0
   39.9341   12.4747  -16.0174 C   0  0  0  0  0  0  0  0  0  0  0  0
   38.9647   11.8880  -16.7915 F   0  0  0  0  0  0  0  0  0  0  0  0
   44.6124   11.9690  -15.0936 H   0  0  0  0  0  0  0  0  0  0  0  0
   42.4297   16.1794  -10.2406 C   0  0  0  0  0  0  0  0  0  0  0  0
   41.0680   16.4450  -10.0203 N   0  0  0  0  0  0  0  0  0  0  0  0
   43.2755   16.5322   -9.4079 O   0  0  0  0  0  0  0  0  0  0  0  0
   40.3805   16.6753  -10.7785 H   0  0  0  0  0  0  0  0  0  0  0  0
   40.7194   16.4091   -9.0258 H   0  0  0  0  0  0  0  0  0  0  0  0
   37.0210   12.6552  -13.9329 C   0  0  0  0  0  0  0  0  0  0  0  0
   38.1583   12.7635  -14.3216 C   0  0  0  0  0  0  0  0  0  0  0  0
   33.2577   15.1396  -12.2246 C   0  0  0  0  0  0  0  0  0  0  0  0
   34.1626   14.2884  -12.9899 N   0  0  0  0  0  0  0  0  0  0  0  0
   33.9119   13.8956  -14.3500 C   0  0  0  0  0  0  0  0  0  0  0  0
   34.6414   12.5959  -14.5681 C   0  0  0  0  0  0  0  0  0  0  0  0
   35.6349   12.5378  -13.4394 C   0  0  0  0  0  0  0  0  0  0  0  0
   35.4776   11.3935  -12.6584 O   0  0  0  0  0  0  0  0  0  0  0  0
   35.3850   13.7116  -12.5907 C   0  0  0  0  0  0  0  0  0  0  0  0
   36.1217   14.1274  -11.6771 O   0  0  0  0  0  0  0  0  0  0  0  0
   36.3633   10.9715  -12.5702 H   0  0  0  0  0  0  0  0  0  0  0  0
 26 27  1  0  0  0
 27 28  1  0  0  0
 28 29  1  0  0  0
 29 30  1  0  0  0
 30 31  1  0  0  0
 30 24  1  0  0  0
 24 25  3  0  0  0
 25  1  1  0  0  0
  1  2  2  0  0  0
  2  3  1  0  0  0
  3  4  1  0  0  0
  4  5  1  0  0  0
  5  6  2  0  0  0
  6  7  1  0  0  0
  7  8  1  0  0  0
  8  9  1  0  0  0
  9 10  1  0  0  0
  9 11  1  0  0  0
  9 12  1  0  0  0
 12 13  1  0  0  0
 13 14  1  0  0  0
 14 15  1  0  0  0
 15 16  2  0  0  0
 16 17  1  0  0  0
  6 19  1  0  0  0
 19 20  1  0  0  0
 19 21  2  0  0  0
 30 32  1  0  0  0
 32 33  2  0  0  0
 32 27  1  0  0  0
 16  1  1  0  0  0
 14  3  2  0  0  0
  8  4  2  0  0  0
 31 34  1  0  0  0
 11 18  1  0  0  0
 20 22  1  0  0  0
 20 23  1  0  0  0
M  END
> <minimizedAffinity>
-8.26386

> <CNNscore>
0.1598829329

> <CNNaffinity>
6.0887918472

> <CNN_VS>
0.9734938741

> <CNNaffinity_variance>
0.1830127537

$$$$
[H]O[C@]([H])(c1c([H])c([H])nn1C([H])([H])[H])c1c(C(=O)N([H])[H])nc2n1C1([H])C([H])([H])C([H])(c3c([H])c(F)c(C#C[C@](O[H])(C([H])([H])[H])C([H])([H])OC([H])([H])[H])c([H])c3-2)C1([H])[H]


 39 43  0  0  0  0  0  0  0  0999 V2000
   36.8891   16.3379   -5.9615 C   0  0  0  0  0  0  0  0  0  0  0  0
   37.6895   16.2455   -7.0806 C   0  0  0  0  0  0  0  0  0  0  0  0
   38.9940   15.8282   -6.9257 C   0  0  0  0  0  0  0  0  0  0  0  0
   39.7307   15.7760   -8.2138 C   0  0  0  0  0  0  0  0  0  0  0  0
   39.2387   16.0869   -9.4148 N   0  0  0  0  0  0  0  0  0  0  0  0
   40.2060   15.9164  -10.3674 C   0  0  0  0  0  0  0  0  0  0  0  0
   41.3314   15.4829   -9.7094 C   0  0  0  0  0  0  0  0  0  0  0  0
   41.0107   15.4080   -8.4034 N   0  0  0  0  0  0  0  0  0  0  0  0
   41.9312   14.9872   -7.3627 C   0  0  0  0  0  0  0  0  0  0  0  0
   41.2496   13.9672   -6.4351 C   0  0  0  0  0  0  0  0  0  0  0  0
   40.9299   15.0382   -5.4133 C   0  0  0  0  0  0  0  0  0  0  0  0
   41.9125   15.9282   -6.1724 C   0  0  0  0  0  0  0  0  0  0  0  0
   39.5215   15.4991   -5.6714 C   0  0  0  0  0  0  0  0  0  0  0  0
   38.7367   15.5891   -4.5697 C   0  0  0  0  0  0  0  0  0  0  0  0
   37.4319   16.0080   -4.7362 C   0  0  0  0  0  0  0  0  0  0  0  0
   36.6390   16.1003   -3.6331 F   0  0  0  0  0  0  0  0  0  0  0  0
   39.9842   16.1769  -11.7978 C   0  0  0  0  0  0  0  0  0  0  0  0
   38.8606   15.5812  -12.4325 N   0  0  0  0  0  0  0  0  0  0  0  0
   40.7102   16.8879  -12.5140 O   0  0  0  0  0  0  0  0  0  0  0  0
   37.9436   16.0810  -12.3641 H   0  0  0  0  0  0  0  0  0  0  0  0
   38.9041   14.6797  -12.9576 H   0  0  0  0  0  0  0  0  0  0  0  0
   42.6261   15.1390  -10.3206 C   0  0  0  0  0  0  0  0  0  0  0  0
   43.0738   14.0154   -9.5733 O   0  0  0  0  0  0  0  0  0  0  0  0
   43.5730   13.3919  -10.1571 H   0  0  0  0  0  0  0  0  0  0  0  0
   43.6658   16.1795  -10.2612 C   0  0  0  0  0  0  0  0  0  0  0  0
   44.1269   16.6711   -9.0542 C   0  0  0  0  0  0  0  0  0  0  0  0
   45.0916   17.5968   -9.3275 C   0  0  0  0  0  0  0  0  0  0  0  0
   45.2015   17.6542  -10.6536 N   0  0  0  0  0  0  0  0  0  0  0  0
   44.3369   16.7939  -11.2226 N   0  0  0  0  0  0  0  0  0  0  0  0
   44.2639   16.6395  -12.6513 C   0  0  0  0  0  0  0  0  0  0  0  0
   34.3524   17.1158   -6.1534 C   0  0  0  0  0  0  0  0  0  0  0  0
   35.5055   16.7731   -6.0711 C   0  0  0  0  0  0  0  0  0  0  0  0
   32.9460   17.5081   -6.2472 C   0  0  0  0  0  0  0  0  0  0  0  0
   32.4531   17.7358   -4.8349 C   0  0  0  0  0  0  0  0  0  0  0  0
   32.7724   18.6921   -6.9603 O   0  0  0  0  0  0  0  0  0  0  0  0
   32.8736   18.5736   -7.9285 H   0  0  0  0  0  0  0  0  0  0  0  0
   32.0939   16.4536   -6.8793 C   0  0  0  0  0  0  0  0  0  0  0  0
   30.0010   15.5101   -6.7016 C   0  0  0  0  0  0  0  0  0  0  0  0
   31.0930   16.0064   -6.0138 O   0  0  0  0  0  0  0  0  0  0  0  0
 38 39  1  0  0  0
 39 37  1  0  0  0
 37 33  1  0  0  0
 33 34  1  0  0  0
 33 35  1  0  0  0
 33 31  1  0  0  0
 31 32  3  0  0  0
 32  1  1  0  0  0
  1  2  1  0  0  0
  2  3  2  0  0  0
  3  4  1  0  0  0
  4  5  2  0  0  0
  5  6  1  0  0  0
  6 17  1  0  0  0
 17 18  1  0  0  0
 17 19  2  0  0  0
  6  7  2  0  0  0
  7 22  1  0  0  0
 22 23  1  0  0  0
 22 25  1  0  0  0
 25 26  2  0  0  0
 26 27  1  0  0  0
 27 28  2  0  0  0
 28 29  1  0  0  0
 29 30  1  0  0  0
  7  8  1  0  0  0
  8  9  1  0  0  0
  9 10  1  0  0  0
 10 11  1  0  0  0
 11 12  1  0  0  0
 11 13  1  0  0  0
 13 14  2  0  0  0
 14 15  1  0  0  0
 15 16  1  0  0  0
 15  1  2  0  0  0
 13  3  1  0  0  0
  8  4  1  0  0  0
 12  9  1  0  0  0
 29 25  1  0  0  0
 35 36  1  0  0  0
 18 20  1  0  0  0
 18 21  1  0  0  0
 23 24  1  0  0  0
M  END
> <minimizedAffinity>
-5.86815

> <CNNscore>
0.2183954567

> <CNNaffinity>
5.7100677490

> <CNN_VS>
1.2470529079

> <CNNaffinity_variance>
0.2820600867

$$$$
[H]O[C@]([H])(c1c([H])c([H])nn1C([H])([H])[H])c1c(C(=O)N([H])[H])nc2n1C1([H])C([H])([H])C([H])(c3c([H])c(F)c(C#C[C@](O[H])(C([H])([H])[H])C([H])([H])OC([H])([H])[H])c([H])c3-2)C1([H])[H]


 39 43  0  0  0  0  0  0  0  0999 V2000
   37.7473   15.7302   -5.8931 C   0  0  0  0  0  0  0  0  0  0  0  0
   38.4532   15.7823   -7.0765 C   0  0  0  0  0  0  0  0  0  0  0  0
   39.8299   15.8239   -7.0219 C   0  0  0  0  0  0  0  0  0  0  0  0
   40.4507   15.8757   -8.3697 C   0  0  0  0  0  0  0  0  0  0  0  0
   39.8011   15.8845   -9.5355 N   0  0  0  0  0  0  0  0  0  0  0  0
   40.7014   15.9340  -10.5645 C   0  0  0  0  0  0  0  0  0  0  0  0
   41.9499   15.9558   -9.9917 C   0  0  0  0  0  0  0  0  0  0  0  0
   41.7639   15.9197   -8.6582 N   0  0  0  0  0  0  0  0  0  0  0  0
   42.8421   15.9278   -7.6860 C   0  0  0  0  0  0  0  0  0  0  0  0
   42.6002   14.8466   -6.6194 C   0  0  0  0  0  0  0  0  0  0  0  0
   42.0186   15.8596   -5.6556 C   0  0  0  0  0  0  0  0  0  0  0  0
   42.5986   16.9328   -6.5754 C   0  0  0  0  0  0  0  0  0  0  0  0
   40.5226   15.8149   -5.8054 C   0  0  0  0  0  0  0  0  0  0  0  0
   39.8310   15.7638   -4.6406 C   0  0  0  0  0  0  0  0  0  0  0  0
   38.4527   15.7223   -4.7068 C   0  0  0  0  0  0  0  0  0  0  0  0
   37.7528   15.6709   -3.5400 F   0  0  0  0  0  0  0  0  0  0  0  0
   40.3069   15.9579  -11.9812 C   0  0  0  0  0  0  0  0  0  0  0  0
   39.4745   14.9165  -12.4741 N   0  0  0  0  0  0  0  0  0  0  0  0
   40.6460   16.8286  -12.8012 O   0  0  0  0  0  0  0  0  0  0  0  0
   38.4406   15.0227  -12.3508 H   0  0  0  0  0  0  0  0  0  0  0  0
   39.8393   14.0605  -12.9478 H   0  0  0  0  0  0  0  0  0  0  0  0
   43.2397   15.9829  -10.7017 C   0  0  0  0  0  0  0  0  0  0  0  0
   43.0928   17.0358  -11.6457 O   0  0  0  0  0  0  0  0  0  0  0  0
   43.9554   17.5025  -11.7760 H   0  0  0  0  0  0  0  0  0  0  0  0
   43.6033   14.7555  -11.4287 C   0  0  0  0  0  0  0  0  0  0  0  0
   43.6549   14.7232  -12.8099 C   0  0  0  0  0  0  0  0  0  0  0  0
   44.0387   13.4667  -13.1788 C   0  0  0  0  0  0  0  0  0  0  0  0
   44.2103   12.7738  -12.0543 N   0  0  0  0  0  0  0  0  0  0  0  0
   43.9469   13.5548  -10.9903 N   0  0  0  0  0  0  0  0  0  0  0  0
   44.0765   13.0587   -9.6459 C   0  0  0  0  0  0  0  0  0  0  0  0
   35.0881   15.6572   -5.8805 C   0  0  0  0  0  0  0  0  0  0  0  0
   36.2934   15.6848   -5.8961 C   0  0  0  0  0  0  0  0  0  0  0  0
   33.6258   15.6318   -5.8374 C   0  0  0  0  0  0  0  0  0  0  0  0
   33.2097   16.2383   -4.5151 C   0  0  0  0  0  0  0  0  0  0  0  0
   33.0522   16.3874   -6.8575 O   0  0  0  0  0  0  0  0  0  0  0  0
   33.1012   15.9476   -7.7327 H   0  0  0  0  0  0  0  0  0  0  0  0
   33.0704   14.2450   -5.9151 C   0  0  0  0  0  0  0  0  0  0  0  0
   31.1727   13.2546   -6.7633 C   0  0  0  0  0  0  0  0  0  0  0  0
   32.2522   14.0749   -7.0342 O   0  0  0  0  0  0  0  0  0  0  0  0
 38 39  1  0  0  0
 39 37  1  0  0  0
 37 33  1  0  0  0
 33 34  1  0  0  0
 33 35  1  0  0  0
 33 31  1  0  0  0
 31 32  3  0  0  0
 32  1  1  0  0  0
  1  2  1  0  0  0
  2  3  2  0  0  0
  3  4  1  0  0  0
  4  5  2  0  0  0
  5  6  1  0  0  0
  6 17  1  0  0  0
 17 18  1  0  0  0
 17 19  2  0  0  0
  6  7  2  0  0  0
  7 22  1  0  0  0
 22 23  1  0  0  0
 22 25  1  0  0  0
 25 26  2  0  0  0
 26 27  1  0  0  0
 27 28  2  0  0  0
 28 29  1  0  0  0
 29 30  1  0  0  0
  7  8  1  0  0  0
  8  9  1  0  0  0
  9 10  1  0  0  0
 10 11  1  0  0  0
 11 12  1  0  0  0
 11 13  1  0  0  0
 13 14  2  0  0  0
 14 15  1  0  0  0
 15 16  1  0  0  0
 15  1  2  0  0  0
 13  3  1  0  0  0
  8  4  1  0  0  0
 12  9  1  0  0  0
 29 25  1  0  0  0
 35 36  1  0  0  0
 18 20  1  0  0  0
 18 21  1  0  0  0
 23 24  1  0  0  0
M  END
> <minimizedAffinity>
-5.80679

> <CNNscore>
0.1972123682

> <CNNaffinity>
5.7523155212

> <CNN_VS>
1.1344277859

> <CNNaffinity_variance>
0.3192526698

$$$$
[H]O[C@]([H])(c1c([H])c([H])nn1C([H])([H])[H])c1c(C(=O)N([H])[H])nc2n1C1([H])C([H])([H])C([H])(c3c([H])c(F)c(C#C[C@](O[H])(C([H])([H])[H])C([H])([H])OC([H])([H])[H])c([H])c3-2)C1([H])[H]


 39 43  0  0  0  0  0  0  0  0999 V2000
   39.9896   12.9309  -15.0768 C   0  0  0  0  0  0  0  0  0  0  0  0
   39.5272   13.7515  -14.0696 C   0  0  0  0  0  0  0  0  0  0  0  0
   38.1922   13.6929  -13.7317 C   0  0  0  0  0  0  0  0  0  0  0  0
   37.8423   14.6288  -12.6334 C   0  0  0  0  0  0  0  0  0  0  0  0
   38.6816   15.4567  -12.0077 N   0  0  0  0  0  0  0  0  0  0  0  0
   38.0049   16.1625  -11.0507 C   0  0  0  0  0  0  0  0  0  0  0  0
   36.6987   15.7399  -11.1028 C   0  0  0  0  0  0  0  0  0  0  0  0
   36.6323   14.8088  -12.0738 N   0  0  0  0  0  0  0  0  0  0  0  0
   35.4164   14.1096  -12.4485 C   0  0  0  0  0  0  0  0  0  0  0  0
   35.6908   12.6014  -12.5725 C   0  0  0  0  0  0  0  0  0  0  0  0
   35.8344   12.7026  -14.0766 C   0  0  0  0  0  0  0  0  0  0  0  0
   35.2110   14.0918  -13.9519 C   0  0  0  0  0  0  0  0  0  0  0  0
   37.3022   12.8286  -14.3804 C   0  0  0  0  0  0  0  0  0  0  0  0
   37.7542   12.0209  -15.3708 C   0  0  0  0  0  0  0  0  0  0  0  0
   39.0929   12.0876  -15.7011 C   0  0  0  0  0  0  0  0  0  0  0  0
   39.5525   11.2787  -16.6952 F   0  0  0  0  0  0  0  0  0  0  0  0
   38.6445   17.1633  -10.1833 C   0  0  0  0  0  0  0  0  0  0  0  0
   39.5036   16.7143   -9.1437 N   0  0  0  0  0  0  0  0  0  0  0  0
   38.4951   18.3934  -10.2834 O   0  0  0  0  0  0  0  0  0  0  0  0
   40.5030   16.5236   -9.3890 H   0  0  0  0  0  0  0  0  0  0  0  0
   39.1904   16.5668   -8.1586 H   0  0  0  0  0  0  0  0  0  0  0  0
   35.5947   16.1966  -10.2422 C   0  0  0  0  0  0  0  0  0  0  0  0
   35.9425   17.5358   -9.9150 O   0  0  0  0  0  0  0  0  0  0  0  0
   35.1285   18.0931   -9.8402 H   0  0  0  0  0  0  0  0  0  0  0  0
   35.3999   15.4488   -8.9892 C   0  0  0  0  0  0  0  0  0  0  0  0
   36.4195   14.7028   -8.4278 C   0  0  0  0  0  0  0  0  0  0  0  0
   35.9411   14.1530   -7.2740 C   0  0  0  0  0  0  0  0  0  0  0  0
   34.6783   14.5587   -7.1523 N   0  0  0  0  0  0  0  0  0  0  0  0
   34.3478   15.3461   -8.1926 N   0  0  0  0  0  0  0  0  0  0  0  0
   33.0414   15.9400   -8.2978 C   0  0  0  0  0  0  0  0  0  0  0  0
   42.5552   12.9677  -15.7788 C   0  0  0  0  0  0  0  0  0  0  0  0
   41.3895   12.9545  -15.4711 C   0  0  0  0  0  0  0  0  0  0  0  0
   43.9760   12.9806  -16.1279 C   0  0  0  0  0  0  0  0  0  0  0  0
   44.2184   11.8035  -17.0470 C   0  0  0  0  0  0  0  0  0  0  0  0
   44.3447   14.1400  -16.8062 O   0  0  0  0  0  0  0  0  0  0  0  0
   44.4131   14.9217  -16.2180 H   0  0  0  0  0  0  0  0  0  0  0  0
   44.8648   12.8364  -14.9333 C   0  0  0  0  0  0  0  0  0  0  0  0
   47.1600   13.0083  -14.9955 C   0  0  0  0  0  0  0  0  0  0  0  0
   46.0671   12.2018  -15.2536 O   0  0  0  0  0  0  0  0  0  0  0  0
 38 39  1  0  0  0
 39 37  1  0  0  0
 37 33  1  0  0  0
 33 34  1  0  0  0
 33 35  1  0  0  0
 33 31  1  0  0  0
 31 32  3  0  0  0
 32  1  1  0  0  0
  1  2  1  0  0  0
  2  3  2  0  0  0
  3  4  1  0  0  0
  4  5  2  0  0  0
  5  6  1  0  0  0
  6 17  1  0  0  0
 17 18  1  0  0  0
 17 19  2  0  0  0
  6  7  2  0  0  0
  7 22  1  0  0  0
 22 23  1  0  0  0
 22 25  1  0  0  0
 25 26  2  0  0  0
 26 27  1  0  0  0
 27 28  2  0  0  0
 28 29  1  0  0  0
 29 30  1  0  0  0
  7  8  1  0  0  0
  8  9  1  0  0  0
  9 10  1  0  0  0
 10 11  1  0  0  0
 11 12  1  0  0  0
 11 13  1  0  0  0
 13 14  2  0  0  0
 14 15  1  0  0  0
 15 16  1  0  0  0
 15  1  2  0  0  0
 13  3  1  0  0  0
  8  4  1  0  0  0
 12  9  1  0  0  0
 29 25  1  0  0  0
 35 36  1  0  0  0
 18 20  1  0  0  0
 18 21  1  0  0  0
 23 24  1  0  0  0
M  END
> <minimizedAffinity>
-9.72406

> <CNNscore>
0.1819655299

> <CNNaffinity>
6.1784658432

> <CNN_VS>
1.1242678165

> <CNNaffinity_variance>
0.3648356497

$$$$
[H]O[C@]([H])(c1c([H])c([H])nn1C([H])([H])[H])c1c(C(=O)N([H])[H])nc2n1C1([H])C([H])([H])C([H])(c3c([H])c(F)c(C#C[C@](O[H])(C([H])([H])[H])C([H])([H])OC([H])([H])[H])c([H])c3-2)C1([H])[H]


 39 43  0  0  0  0  0  0  0  0999 V2000
   39.6547   12.9105  -15.3490 C   0  0  0  0  0  0  0  0  0  0  0  0
   40.6289   13.2892  -14.4496 C   0  0  0  0  0  0  0  0  0  0  0  0
   41.9508   13.1822  -14.8252 C   0  0  0  0  0  0  0  0  0  0  0  0
   42.8826   13.6268  -13.7580 C   0  0  0  0  0  0  0  0  0  0  0  0
   42.5377   14.0859  -12.5533 N   0  0  0  0  0  0  0  0  0  0  0  0
   43.6624   14.4013  -11.8409 C   0  0  0  0  0  0  0  0  0  0  0  0
   44.7330   14.1194  -12.6543 C   0  0  0  0  0  0  0  0  0  0  0  0
   44.2266   13.6507  -13.8110 N   0  0  0  0  0  0  0  0  0  0  0  0
   45.0344   13.2349  -14.9433 C   0  0  0  0  0  0  0  0  0  0  0  0
   44.4718   13.8353  -16.2427 C   0  0  0  0  0  0  0  0  0  0  0  0
   43.7395   12.5521  -16.5751 C   0  0  0  0  0  0  0  0  0  0  0  0
   44.5931   11.8914  -15.4939 C   0  0  0  0  0  0  0  0  0  0  0  0
   42.3251   12.7024  -16.0860 C   0  0  0  0  0  0  0  0  0  0  0  0
   41.3693   12.3295  -16.9720 C   0  0  0  0  0  0  0  0  0  0  0  0
   40.0487   12.4408  -16.5856 C   0  0  0  0  0  0  0  0  0  0  0  0
   39.0844   12.0676  -17.4714 F   0  0  0  0  0  0  0  0  0  0  0  0
   43.6263   14.9333  -10.4702 C   0  0  0  0  0  0  0  0  0  0  0  0
   42.8953   14.2201   -9.4817 N   0  0  0  0  0  0  0  0  0  0  0  0
   44.1919   15.9747  -10.0944 O   0  0  0  0  0  0  0  0  0  0  0  0
   43.3821   13.4338   -8.9917 H   0  0  0  0  0  0  0  0  0  0  0  0
   41.9077   14.4392   -9.2231 H   0  0  0  0  0  0  0  0  0  0  0  0
   46.1556   14.3204  -12.3319 C   0  0  0  0  0  0  0  0  0  0  0  0
   46.5352   15.4385  -13.1239 O   0  0  0  0  0  0  0  0  0  0  0  0
   47.2050   15.9867  -12.6447 H   0  0  0  0  0  0  0  0  0  0  0  0
   47.0553   13.1996  -12.6505 C   0  0  0  0  0  0  0  0  0  0  0  0
   48.1757   13.3756  -13.4410 C   0  0  0  0  0  0  0  0  0  0  0  0
   48.8087   12.1701  -13.5334 C   0  0  0  0  0  0  0  0  0  0  0  0
   48.0890   11.3050  -12.8210 N   0  0  0  0  0  0  0  0  0  0  0  0
   47.0241   11.9283  -12.2835 N   0  0  0  0  0  0  0  0  0  0  0  0
   46.0888   11.2260  -11.4453 C   0  0  0  0  0  0  0  0  0  0  0  0
   37.0730   13.0661  -14.7268 C   0  0  0  0  0  0  0  0  0  0  0  0
   38.2453   13.0041  -15.0015 C   0  0  0  0  0  0  0  0  0  0  0  0
   35.6452   13.1260  -14.4129 C   0  0  0  0  0  0  0  0  0  0  0  0
   35.4837   12.6503  -12.9856 C   0  0  0  0  0  0  0  0  0  0  0  0
   35.1381   14.4208  -14.4954 O   0  0  0  0  0  0  0  0  0  0  0  0
   35.0163   14.7254  -15.4196 H   0  0  0  0  0  0  0  0  0  0  0  0
   34.8223   12.2453  -15.2989 C   0  0  0  0  0  0  0  0  0  0  0  0
   35.2623   11.0477  -17.2156 C   0  0  0  0  0  0  0  0  0  0  0  0
   35.5893   11.2361  -15.8855 O   0  0  0  0  0  0  0  0  0  0  0  0
 38 39  1  0  0  0
 39 37  1  0  0  0
 37 33  1  0  0  0
 33 34  1  0  0  0
 33 35  1  0  0  0
 33 31  1  0  0  0
 31 32  3  0  0  0
 32  1  1  0  0  0
  1  2  1  0  0  0
  2  3  2  0  0  0
  3  4  1  0  0  0
  4  5  2  0  0  0
  5  6  1  0  0  0
  6 17  1  0  0  0
 17 18  1  0  0  0
 17 19  2  0  0  0
  6  7  2  0  0  0
  7 22  1  0  0  0
 22 23  1  0  0  0
 22 25  1  0  0  0
 25 26  2  0  0  0
 26 27  1  0  0  0
 27 28  2  0  0  0
 28 29  1  0  0  0
 29 30  1  0  0  0
  7  8  1  0  0  0
  8  9  1  0  0  0
  9 10  1  0  0  0
 10 11  1  0  0  0
 11 12  1  0  0  0
 11 13  1  0  0  0
 13 14  2  0  0  0
 14 15  1  0  0  0
 15 16  1  0  0  0
 15  1  2  0  0  0
 13  3  1  0  0  0
  8  4  1  0  0  0
 12  9  1  0  0  0
 29 25  1  0  0  0
 35 36  1  0  0  0
 18 20  1  0  0  0
 18 21  1  0  0  0
 23 24  1  0  0  0
M  END
> <minimizedAffinity>
-7.73318

> <CNNscore>
0.1534588188

> <CNNaffinity>
6.5921339989

> <CNN_VS>
1.0116211176

> <CNNaffinity_variance>
0.0096256454

$$$$
[H]O[C@]([H])(c1c([H])c([H])nn1C([H])([H])[H])c1c(C(=O)N([H])[H])nc2n1C1([H])C([H])([H])C([H])(c3c([H])c(F)c(C#C[C@](O[H])(C([H])([H])[H])C([H])([H])OC([H])([H])[H])c([H])c3-2)C1([H])[H]


 39 43  0  0  0  0  0  0  0  0999 V2000
   34.4808   15.5640   -6.1878 C   0  0  0  0  0  0  0  0  0  0  0  0
   35.7185   15.7066   -6.7790 C   0  0  0  0  0  0  0  0  0  0  0  0
   36.8426   15.4307   -6.0306 C   0  0  0  0  0  0  0  0  0  0  0  0
   38.0985   15.6264   -6.7981 C   0  0  0  0  0  0  0  0  0  0  0  0
   38.1902   16.0236   -8.0690 N   0  0  0  0  0  0  0  0  0  0  0  0
   39.5062   16.0883   -8.4378 C   0  0  0  0  0  0  0  0  0  0  0  0
   40.2398   15.7128   -7.3386 C   0  0  0  0  0  0  0  0  0  0  0  0
   39.3563   15.4390   -6.3596 N   0  0  0  0  0  0  0  0  0  0  0  0
   39.7293   15.0041   -5.0256 C   0  0  0  0  0  0  0  0  0  0  0  0
   38.8672   13.8034   -4.6007 C   0  0  0  0  0  0  0  0  0  0  0  0
   37.9316   14.6939   -3.8102 C   0  0  0  0  0  0  0  0  0  0  0  0
   38.9958   15.7813   -3.9483 C   0  0  0  0  0  0  0  0  0  0  0  0
   36.7593   15.0133   -4.6969 C   0  0  0  0  0  0  0  0  0  0  0  0
   35.5438   14.8723   -4.1134 C   0  0  0  0  0  0  0  0  0  0  0  0
   34.4247   15.1512   -4.8720 C   0  0  0  0  0  0  0  0  0  0  0  0
   33.2012   15.0113   -4.2911 F   0  0  0  0  0  0  0  0  0  0  0  0
   39.9487   16.4962   -9.7798 C   0  0  0  0  0  0  0  0  0  0  0  0
   39.0217   17.1563  -10.6314 N   0  0  0  0  0  0  0  0  0  0  0  0
   41.0873   16.3092  -10.2426 O   0  0  0  0  0  0  0  0  0  0  0  0
   38.9192   18.1925  -10.5259 H   0  0  0  0  0  0  0  0  0  0  0  0
   38.4444   16.6641  -11.3489 H   0  0  0  0  0  0  0  0  0  0  0  0
   41.7060   15.6031   -7.2593 C   0  0  0  0  0  0  0  0  0  0  0  0
   41.9241   14.5375   -6.3436 O   0  0  0  0  0  0  0  0  0  0  0  0
   42.7300   14.0243   -6.6001 H   0  0  0  0  0  0  0  0  0  0  0  0
   42.4175   16.7930   -6.7641 C   0  0  0  0  0  0  0  0  0  0  0  0
   41.9312   17.5358   -5.7044 C   0  0  0  0  0  0  0  0  0  0  0  0
   42.8147   18.5495   -5.4715 C   0  0  0  0  0  0  0  0  0  0  0  0
   43.7950   18.4143   -6.3631 N   0  0  0  0  0  0  0  0  0  0  0  0
   43.5560   17.3479   -7.1486 N   0  0  0  0  0  0  0  0  0  0  0  0
   44.4740   16.9609   -8.1869 C   0  0  0  0  0  0  0  0  0  0  0  0
   32.2524   16.0529   -7.5559 C   0  0  0  0  0  0  0  0  0  0  0  0
   33.2639   15.8425   -6.9343 C   0  0  0  0  0  0  0  0  0  0  0  0
   31.0246   16.2839   -8.3174 C   0  0  0  0  0  0  0  0  0  0  0  0
   29.8893   16.3530   -7.3195 C   0  0  0  0  0  0  0  0  0  0  0  0
   31.0546   17.4865   -9.0197 O   0  0  0  0  0  0  0  0  0  0  0  0
   31.6226   17.4487   -9.8183 H   0  0  0  0  0  0  0  0  0  0  0  0
   30.7323   15.1839   -9.2881 C   0  0  0  0  0  0  0  0  0  0  0  0
   31.0085   14.5746  -11.4913 C   0  0  0  0  0  0  0  0  0  0  0  0
   30.8139   15.6232  -10.6114 O   0  0  0  0  0  0  0  0  0  0  0  0
 38 39  1  0  0  0
 39 37  1  0  0  0
 37 33  1  0  0  0
 33 34  1  0  0  0
 33 35  1  0  0  0
 33 31  1  0  0  0
 31 32  3  0  0  0
 32  1  1  0  0  0
  1  2  1  0  0  0
  2  3  2  0  0  0
  3  4  1  0  0  0
  4  5  2  0  0  0
  5  6  1  0  0  0
  6 17  1  0  0  0
 17 18  1  0  0  0
 17 19  2  0  0  0
  6  7  2  0  0  0
  7 22  1  0  0  0
 22 23  1  0  0  0
 22 25  1  0  0  0
 25 26  2  0  0  0
 26 27  1  0  0  0
 27 28  2  0  0  0
 28 29  1  0  0  0
 29 30  1  0  0  0
  7  8  1  0  0  0
  8  9  1  0  0  0
  9 10  1  0  0  0
 10 11  1  0  0  0
 11 12  1  0  0  0
 11 13  1  0  0  0
 13 14  2  0  0  0
 14 15  1  0  0  0
 15 16  1  0  0  0
 15  1  2  0  0  0
 13  3  1  0  0  0
  8  4  1  0  0  0
 12  9  1  0  0  0
 29 25  1  0  0  0
 35 36  1  0  0  0
 18 20  1  0  0  0
 18 21  1  0  0  0
 23 24  1  0  0  0
M  END
> <minimizedAffinity>
-6.26217

> <CNNscore>
0.1207423881

> <CNNaffinity>
5.5357728004

> <CNN_VS>
0.6684024334

> <CNNaffinity_variance>
0.2407952547

$$$$
[H]O[C@]([H])(c1c([H])c([H])nn1C([H])([H])[H])c1c(C(=O)N([H])[H])nc2n1C1([H])C([H])([H])C([H])(c3c([H])c(F)c(C#C[C@](O[H])(C([H])([H])[H])C([H])([H])OC([H])([H])[H])c([H])c3-2)C1([H])[H]


 39 43  0  0  0  0  0  0  0  0999 V2000
   39.9180   12.7829  -15.0572 C   0  0  0  0  0  0  0  0  0  0  0  0
   39.4219   13.4926  -13.9840 C   0  0  0  0  0  0  0  0  0  0  0  0
   38.0924   13.3430  -13.6523 C   0  0  0  0  0  0  0  0  0  0  0  0
   37.7036   14.1652  -12.4785 C   0  0  0  0  0  0  0  0  0  0  0  0
   38.5058   14.9756  -11.7850 N   0  0  0  0  0  0  0  0  0  0  0  0
   37.8007   15.5653  -10.7716 C   0  0  0  0  0  0  0  0  0  0  0  0
   36.5155   15.0878  -10.8592 C   0  0  0  0  0  0  0  0  0  0  0  0
   36.4888   14.2402  -11.9056 N   0  0  0  0  0  0  0  0  0  0  0  0
   35.3054   13.5190  -12.3381 C   0  0  0  0  0  0  0  0  0  0  0  0
   35.6495   12.0412  -12.5895 C   0  0  0  0  0  0  0  0  0  0  0  0
   35.7821   12.2760  -14.0797 C   0  0  0  0  0  0  0  0  0  0  0  0
   35.0950   13.6188  -13.8376 C   0  0  0  0  0  0  0  0  0  0  0  0
   37.2412   12.4960  -14.3718 C   0  0  0  0  0  0  0  0  0  0  0  0
   37.7264   11.7971  -15.4272 C   0  0  0  0  0  0  0  0  0  0  0  0
   39.0592   11.9544  -15.7507 C   0  0  0  0  0  0  0  0  0  0  0  0
   39.5521   11.2549  -16.8099 F   0  0  0  0  0  0  0  0  0  0  0  0
   38.3964   16.5179   -9.8224 C   0  0  0  0  0  0  0  0  0  0  0  0
   38.2119   17.9092  -10.0475 N   0  0  0  0  0  0  0  0  0  0  0  0
   39.0610   16.2041   -8.8198 O   0  0  0  0  0  0  0  0  0  0  0  0
   37.3324   18.3464   -9.6860 H   0  0  0  0  0  0  0  0  0  0  0  0
   38.9025   18.5098  -10.5499 H   0  0  0  0  0  0  0  0  0  0  0  0
   35.3949   15.4177   -9.9629 C   0  0  0  0  0  0  0  0  0  0  0  0
   35.3366   14.3186   -9.0629 O   0  0  0  0  0  0  0  0  0  0  0  0
   35.0593   14.6255   -8.1642 H   0  0  0  0  0  0  0  0  0  0  0  0
   34.0769   15.5638  -10.6024 C   0  0  0  0  0  0  0  0  0  0  0  0
   33.9438   15.6176  -11.9774 C   0  0  0  0  0  0  0  0  0  0  0  0
   32.6134   15.7318  -12.2587 C   0  0  0  0  0  0  0  0  0  0  0  0
   31.9754   15.7452  -11.0896 N   0  0  0  0  0  0  0  0  0  0  0  0
   32.8623   15.6427  -10.0825 N   0  0  0  0  0  0  0  0  0  0  0  0
   32.4359   15.6108   -8.7086 C   0  0  0  0  0  0  0  0  0  0  0  0
   42.4745   13.0166  -15.7543 C   0  0  0  0  0  0  0  0  0  0  0  0
   41.3136   12.9054  -15.4482 C   0  0  0  0  0  0  0  0  0  0  0  0
   43.8868   13.1671  -16.1060 C   0  0  0  0  0  0  0  0  0  0  0  0
   44.2826   11.9362  -16.8918 C   0  0  0  0  0  0  0  0  0  0  0  0
   44.1174   14.2827  -16.9077 O   0  0  0  0  0  0  0  0  0  0  0  0
   44.0823   15.1261  -16.4084 H   0  0  0  0  0  0  0  0  0  0  0  0
   44.7731   13.2645  -14.9049 C   0  0  0  0  0  0  0  0  0  0  0  0
   44.6161   14.9452  -13.3389 C   0  0  0  0  0  0  0  0  0  0  0  0
   45.0805   14.5906  -14.5919 O   0  0  0  0  0  0  0  0  0  0  0  0
 38 39  1  0  0  0
 39 37  1  0  0  0
 37 33  1  0  0  0
 33 34  1  0  0  0
 33 35  1  0  0  0
 33 31  1  0  0  0
 31 32  3  0  0  0
 32  1  1  0  0  0
  1  2  1  0  0  0
  2  3  2  0  0  0
  3  4  1  0  0  0
  4  5  2  0  0  0
  5  6  1  0  0  0
  6 17  1  0  0  0
 17 18  1  0  0  0
 17 19  2  0  0  0
  6  7  2  0  0  0
  7 22  1  0  0  0
 22 23  1  0  0  0
 22 25  1  0  0  0
 25 26  2  0  0  0
 26 27  1  0  0  0
 27 28  2  0  0  0
 28 29  1  0  0  0
 29 30  1  0  0  0
  7  8  1  0  0  0
  8  9  1  0  0  0
  9 10  1  0  0  0
 10 11  1  0  0  0
 11 12  1  0  0  0
 11 13  1  0  0  0
 13 14  2  0  0  0
 14 15  1  0  0  0
 15 16  1  0  0  0
 15  1  2  0  0  0
 13  3  1  0  0  0
  8  4  1  0  0  0
 12  9  1  0  0  0
 29 25  1  0  0  0
 35 36  1  0  0  0
 18 20  1  0  0  0
 18 21  1  0  0  0
 23 24  1  0  0  0
M  END
> <minimizedAffinity>
-8.66052

> <CNNscore>
0.1206670851

> <CNNaffinity>
6.4169831276

> <CNN_VS>
0.7743186355

> <CNNaffinity_variance>
0.0874337927

$$$$
[H]O[C@]([H])(c1c([H])c([H])nn1C([H])([H])[H])c1c(C(=O)N([H])[H])nc2n1C1([H])C([H])([H])C([H])(c3c([H])c(F)c(C#C[C@](O[H])(C([H])([H])[H])C([H])([H])OC([H])([H])[H])c([H])c3-2)C1([H])[H]


 39 43  0  0  0  0  0  0  0  0999 V2000
   39.7916   14.5193   -6.9883 C   0  0  0  0  0  0  0  0  0  0  0  0
   40.7357   14.6617   -7.9833 C   0  0  0  0  0  0  0  0  0  0  0  0
   42.0279   14.2546   -7.7295 C   0  0  0  0  0  0  0  0  0  0  0  0
   42.9290   14.4671   -8.8904 C   0  0  0  0  0  0  0  0  0  0  0  0
   42.5840   14.9892  -10.0692 N   0  0  0  0  0  0  0  0  0  0  0  0
   43.6752   15.0272  -10.8936 C   0  0  0  0  0  0  0  0  0  0  0  0
   44.7248   14.5039  -10.1782 C   0  0  0  0  0  0  0  0  0  0  0  0
   44.2396   14.1736   -8.9659 N   0  0  0  0  0  0  0  0  0  0  0  0
   45.0355   13.5847   -7.9042 C   0  0  0  0  0  0  0  0  0  0  0  0
   44.2902   12.3901   -7.2854 C   0  0  0  0  0  0  0  0  0  0  0  0
   43.7856   13.2385   -6.1369 C   0  0  0  0  0  0  0  0  0  0  0  0
   44.8135   14.2808   -6.5742 C   0  0  0  0  0  0  0  0  0  0  0  0
   42.4020   13.7055   -6.4973 C   0  0  0  0  0  0  0  0  0  0  0  0
   41.4758   13.5645   -5.5175 C   0  0  0  0  0  0  0  0  0  0  0  0
   40.1848   13.9753   -5.7824 C   0  0  0  0  0  0  0  0  0  0  0  0
   39.2503   13.8361   -4.8019 F   0  0  0  0  0  0  0  0  0  0  0  0
   43.6304   15.5501  -12.2675 C   0  0  0  0  0  0  0  0  0  0  0  0
   43.0722   14.7344  -13.2889 N   0  0  0  0  0  0  0  0  0  0  0  0
   44.0474   16.6672  -12.6193 O   0  0  0  0  0  0  0  0  0  0  0  0
   42.0338   14.7602  -13.4168 H   0  0  0  0  0  0  0  0  0  0  0  0
   43.6404   14.1176  -13.9110 H   0  0  0  0  0  0  0  0  0  0  0  0
   46.1043   14.3147  -10.6574 C   0  0  0  0  0  0  0  0  0  0  0  0
   46.5052   15.6121  -11.0785 O   0  0  0  0  0  0  0  0  0  0  0  0
   47.4687   15.7483  -10.8997 H   0  0  0  0  0  0  0  0  0  0  0  0
   46.2744   13.3870  -11.7877 C   0  0  0  0  0  0  0  0  0  0  0  0
   46.7833   13.8128  -13.0006 C   0  0  0  0  0  0  0  0  0  0  0  0
   46.8389   12.7288  -13.8278 C   0  0  0  0  0  0  0  0  0  0  0  0
   46.3786   11.6917  -13.1302 N   0  0  0  0  0  0  0  0  0  0  0  0
   46.0358   12.0892  -11.8908 N   0  0  0  0  0  0  0  0  0  0  0  0
   45.5271   11.1581  -10.9189 C   0  0  0  0  0  0  0  0  0  0  0  0
   37.2662   15.2615   -7.3731 C   0  0  0  0  0  0  0  0  0  0  0  0
   38.4143   14.9334   -7.2057 C   0  0  0  0  0  0  0  0  0  0  0  0
   35.8654   15.6385   -7.5642 C   0  0  0  0  0  0  0  0  0  0  0  0
   35.0263   14.4386   -7.1827 C   0  0  0  0  0  0  0  0  0  0  0  0
   35.4877   16.7045   -6.7509 O   0  0  0  0  0  0  0  0  0  0  0  0
   35.8328   17.5667   -7.0660 H   0  0  0  0  0  0  0  0  0  0  0  0
   35.5536   15.9999   -8.9819 C   0  0  0  0  0  0  0  0  0  0  0  0
   36.7724   16.7146  -10.7999 C   0  0  0  0  0  0  0  0  0  0  0  0
   36.4386   16.9585   -9.4806 O   0  0  0  0  0  0  0  0  0  0  0  0
 38 39  1  0  0  0
 39 37  1  0  0  0
 37 33  1  0  0  0
 33 34  1  0  0  0
 33 35  1  0  0  0
 33 31  1  0  0  0
 31 32  3  0  0  0
 32  1  1  0  0  0
  1  2  1  0  0  0
  2  3  2  0  0  0
  3  4  1  0  0  0
  4  5  2  0  0  0
  5  6  1  0  0  0
  6 17  1  0  0  0
 17 18  1  0  0  0
 17 19  2  0  0  0
  6  7  2  0  0  0
  7 22  1  0  0  0
 22 23  1  0  0  0
 22 25  1  0  0  0
 25 26  2  0  0  0
 26 27  1  0  0  0
 27 28  2  0  0  0
 28 29  1  0  0  0
 29 30  1  0  0  0
  7  8  1  0  0  0
  8  9  1  0  0  0
  9 10  1  0  0  0
 10 11  1  0  0  0
 11 12  1  0  0  0
 11 13  1  0  0  0
 13 14  2  0  0  0
 14 15  1  0  0  0
 15 16  1  0  0  0
 15  1  2  0  0  0
 13  3  1  0  0  0
  8  4  1  0  0  0
 12  9  1  0  0  0
 29 25  1  0  0  0
 35 36  1  0  0  0
 18 20  1  0  0  0
 18 21  1  0  0  0
 23 24  1  0  0  0
M  END
> <minimizedAffinity>
-4.97015

> <CNNscore>
0.1160492301

> <CNNaffinity>
5.3863000870

> <CNN_VS>
0.6250759959

> <CNNaffinity_variance>
0.0938543379

$$$$
[H]O[C@]([H])(c1c([H])c([H])nn1C([H])([H])[H])c1c(C(=O)N([H])[H])nc2n1C1([H])C([H])([H])C([H])(c3c([H])c(F)c(C#C[C@](O[H])(C([H])([H])[H])C([H])([H])OC([H])([H])[H])c([H])c3-2)C1([H])[H]


 39 43  0  0  0  0  0  0  0  0999 V2000
   37.2379   13.1400  -15.2787 C   0  0  0  0  0  0  0  0  0  0  0  0
   37.3381   13.8980  -14.1312 C   0  0  0  0  0  0  0  0  0  0  0  0
   36.1866   14.1941  -13.4338 C   0  0  0  0  0  0  0  0  0  0  0  0
   36.4500   15.0129  -12.2234 C   0  0  0  0  0  0  0  0  0  0  0  0
   37.6434   15.4432  -11.8089 N   0  0  0  0  0  0  0  0  0  0  0  0
   37.4979   16.1657  -10.6561 C   0  0  0  0  0  0  0  0  0  0  0  0
   36.1556   16.1700  -10.3635 C   0  0  0  0  0  0  0  0  0  0  0  0
   35.5463   15.4621  -11.3339 N   0  0  0  0  0  0  0  0  0  0  0  0
   34.1147   15.2282  -11.3933 C   0  0  0  0  0  0  0  0  0  0  0  0
   33.8333   13.7449  -11.6868 C   0  0  0  0  0  0  0  0  0  0  0  0
   33.6262   14.0264  -13.1603 C   0  0  0  0  0  0  0  0  0  0  0  0
   33.5506   15.5028  -12.7750 C   0  0  0  0  0  0  0  0  0  0  0  0
   34.9293   13.7484  -13.8583 C   0  0  0  0  0  0  0  0  0  0  0  0
   34.8281   13.0030  -14.9861 C   0  0  0  0  0  0  0  0  0  0  0  0
   35.9874   12.7123  -15.6767 C   0  0  0  0  0  0  0  0  0  0  0  0
   35.8919   11.9640  -16.8103 F   0  0  0  0  0  0  0  0  0  0  0  0
   38.6266   16.7820   -9.9425 C   0  0  0  0  0  0  0  0  0  0  0  0
   39.5762   15.9352   -9.3090 N   0  0  0  0  0  0  0  0  0  0  0  0
   38.8253   18.0053   -9.8439 O   0  0  0  0  0  0  0  0  0  0  0  0
   40.3592   15.5614   -9.8944 H   0  0  0  0  0  0  0  0  0  0  0  0
   39.5318   15.6704   -8.3000 H   0  0  0  0  0  0  0  0  0  0  0  0
   35.5147   16.8017   -9.1980 C   0  0  0  0  0  0  0  0  0  0  0  0
   36.2469   18.0059   -9.0109 O   0  0  0  0  0  0  0  0  0  0  0  0
   35.6495   18.7233   -8.6835 H   0  0  0  0  0  0  0  0  0  0  0  0
   35.5559   16.0340   -7.9425 C   0  0  0  0  0  0  0  0  0  0  0  0
   35.9964   14.7239   -7.9116 C   0  0  0  0  0  0  0  0  0  0  0  0
   35.9376   14.2996   -6.6160 C   0  0  0  0  0  0  0  0  0  0  0  0
   35.4777   15.3235   -5.8990 N   0  0  0  0  0  0  0  0  0  0  0  0
   35.2458   16.3779   -6.7025 N   0  0  0  0  0  0  0  0  0  0  0  0
   34.7628   17.6279   -6.1784 C   0  0  0  0  0  0  0  0  0  0  0  0
   39.4010   12.4978  -16.6876 C   0  0  0  0  0  0  0  0  0  0  0  0
   38.4228   12.7999  -16.0508 C   0  0  0  0  0  0  0  0  0  0  0  0
   40.5855   12.1072  -17.4526 C   0  0  0  0  0  0  0  0  0  0  0  0
   40.4291   10.6421  -17.7965 C   0  0  0  0  0  0  0  0  0  0  0  0
   40.7056   12.8190  -18.6440 O   0  0  0  0  0  0  0  0  0  0  0  0
   41.0135   13.7403  -18.5095 H   0  0  0  0  0  0  0  0  0  0  0  0
   41.8541   12.2764  -16.6781 C   0  0  0  0  0  0  0  0  0  0  0  0
   44.1394   11.9955  -16.6864 C   0  0  0  0  0  0  0  0  0  0  0  0
   42.9629   11.8116  -17.3890 O   0  0  0  0  0  0  0  0  0  0  0  0
 38 39  1  0  0  0
 39 37  1  0  0  0
 37 33  1  0  0  0
 33 34  1  0  0  0
 33 35  1  0  0  0
 33 31  1  0  0  0
 31 32  3  0  0  0
 32  1  1  0  0  0
  1  2  1  0  0  0
  2  3  2  0  0  0
  3  4  1  0  0  0
  4  5  2  0  0  0
  5  6  1  0  0  0
  6 17  1  0  0  0
 17 18  1  0  0  0
 17 19  2  0  0  0
  6  7  2  0  0  0
  7 22  1  0  0  0
 22 23  1  0  0  0
 22 25  1  0  0  0
 25 26  2  0  0  0
 26 27  1  0  0  0
 27 28  2  0  0  0
 28 29  1  0  0  0
 29 30  1  0  0  0
  7  8  1  0  0  0
  8  9  1  0  0  0
  9 10  1  0  0  0
 10 11  1  0  0  0
 11 12  1  0  0  0
 11 13  1  0  0  0
 13 14  2  0  0  0
 14 15  1  0  0  0
 15 16  1  0  0  0
 15  1  2  0  0  0
 13  3  1  0  0  0
  8  4  1  0  0  0
 12  9  1  0  0  0
 29 25  1  0  0  0
 35 36  1  0  0  0
 18 20  1  0  0  0
 18 21  1  0  0  0
 23 24  1  0  0  0
M  END
> <minimizedAffinity>
-5.78220

> <CNNscore>
0.1128434315

> <CNNaffinity>
6.3142728806

> <CNN_VS>
0.7125242352

> <CNNaffinity_variance>
0.1521971375

$$$$
[H]O[C@]([H])(c1c([H])c([H])nn1C([H])([H])[H])c1c(C(=O)N([H])[H])nc2n1C1([H])C([H])([H])C([H])(c3c([H])c(F)c(C#C[C@](O[H])(C([H])([H])[H])C([H])([H])OC([H])([H])[H])c([H])c3-2)C1([H])[H]


 39 43  0  0  0  0  0  0  0  0999 V2000
   41.2513   16.0726  -10.1302 C   0  0  0  0  0  0  0  0  0  0  0  0
   40.2972   15.8209   -9.1669 C   0  0  0  0  0  0  0  0  0  0  0  0
   38.9787   15.7192   -9.5554 C   0  0  0  0  0  0  0  0  0  0  0  0
   38.0694   15.4455   -8.4139 C   0  0  0  0  0  0  0  0  0  0  0  0
   38.4301   15.3052   -7.1367 N   0  0  0  0  0  0  0  0  0  0  0  0
   37.3242   15.0587   -6.3698 C   0  0  0  0  0  0  0  0  0  0  0  0
   36.2488   15.0500   -7.2248 C   0  0  0  0  0  0  0  0  0  0  0  0
   36.7341   15.2881   -8.4584 N   0  0  0  0  0  0  0  0  0  0  0  0
   35.9148   15.3607   -9.6547 C   0  0  0  0  0  0  0  0  0  0  0  0
   36.5538   14.5348  -10.7839 C   0  0  0  0  0  0  0  0  0  0  0  0
   37.1755   15.7702  -11.4007 C   0  0  0  0  0  0  0  0  0  0  0  0
   36.2457   16.5786  -10.4974 C   0  0  0  0  0  0  0  0  0  0  0  0
   38.5879   15.8641  -10.8919 C   0  0  0  0  0  0  0  0  0  0  0  0
   39.5239   16.1116  -11.8408 C   0  0  0  0  0  0  0  0  0  0  0  0
   40.8414   16.2115  -11.4408 C   0  0  0  0  0  0  0  0  0  0  0  0
   41.7859   16.4600  -12.3895 F   0  0  0  0  0  0  0  0  0  0  0  0
   37.3806   14.8573   -4.9140 C   0  0  0  0  0  0  0  0  0  0  0  0
   37.5961   15.9863   -4.0779 N   0  0  0  0  0  0  0  0  0  0  0  0
   37.2533   13.7617   -4.3403 O   0  0  0  0  0  0  0  0  0  0  0  0
   36.7604   16.5542   -3.8050 H   0  0  0  0  0  0  0  0  0  0  0  0
   38.5363   16.2740   -3.7265 H   0  0  0  0  0  0  0  0  0  0  0  0
   34.8437   14.7989   -6.8633 C   0  0  0  0  0  0  0  0  0  0  0  0
   34.2468   14.3623   -8.0776 O   0  0  0  0  0  0  0  0  0  0  0  0
   33.5486   13.6862   -7.8929 H   0  0  0  0  0  0  0  0  0  0  0  0
   34.0869   15.9595   -6.3656 C   0  0  0  0  0  0  0  0  0  0  0  0
   33.6710   16.9681   -7.2147 C   0  0  0  0  0  0  0  0  0  0  0  0
   32.9834   17.8793   -6.4670 C   0  0  0  0  0  0  0  0  0  0  0  0
   32.9894   17.4278   -5.2139 N   0  0  0  0  0  0  0  0  0  0  0  0
   33.6585   16.2618   -5.1503 N   0  0  0  0  0  0  0  0  0  0  0  0
   33.7974   15.5439   -3.9110 C   0  0  0  0  0  0  0  0  0  0  0  0
   43.8182   16.2710   -9.4607 C   0  0  0  0  0  0  0  0  0  0  0  0
   42.6564   16.1889   -9.7723 C   0  0  0  0  0  0  0  0  0  0  0  0
   45.2234   16.3566   -9.0619 C   0  0  0  0  0  0  0  0  0  0  0  0
   45.4356   15.3406   -7.9611 C   0  0  0  0  0  0  0  0  0  0  0  0
   46.0908   16.0470  -10.1070 O   0  0  0  0  0  0  0  0  0  0  0  0
   46.1648   16.7672  -10.7685 H   0  0  0  0  0  0  0  0  0  0  0  0
   45.5919   17.7070   -8.5342 C   0  0  0  0  0  0  0  0  0  0  0  0
   45.3106   18.7412   -6.4964 C   0  0  0  0  0  0  0  0  0  0  0  0
   44.6784   18.1589   -7.5793 O   0  0  0  0  0  0  0  0  0  0  0  0
 38 39  1  0  0  0
 39 37  1  0  0  0
 37 33  1  0  0  0
 33 34  1  0  0  0
 33 35  1  0  0  0
 33 31  1  0  0  0
 31 32  3  0  0  0
 32  1  1  0  0  0
  1  2  1  0  0  0
  2  3  2  0  0  0
  3  4  1  0  0  0
  4  5  2  0  0  0
  5  6  1  0  0  0
  6 17  1  0  0  0
 17 18  1  0  0  0
 17 19  2  0  0  0
  6  7  2  0  0  0
  7 22  1  0  0  0
 22 23  1  0  0  0
 22 25  1  0  0  0
 25 26  2  0  0  0
 26 27  1  0  0  0
 27 28  2  0  0  0
 28 29  1  0  0  0
 29 30  1  0  0  0
  7  8  1  0  0  0
  8  9  1  0  0  0
  9 10  1  0  0  0
 10 11  1  0  0  0
 11 12  1  0  0  0
 11 13  1  0  0  0
 13 14  2  0  0  0
 14 15  1  0  0  0
 15 16  1  0  0  0
 15  1  2  0  0  0
 13  3  1  0  0  0
  8  4  1  0  0  0
 12  9  1  0  0  0
 29 25  1  0  0  0
 35 36  1  0  0  0
 18 20  1  0  0  0
 18 21  1  0  0  0
 23 24  1  0  0  0
M  END
> <minimizedAffinity>
-6.02001

> <CNNscore>
0.1043409556

> <CNNaffinity>
5.4146056175

> <CNN_VS>
0.5649651289

> <CNNaffinity_variance>
0.1624356806

$$$$
[H]O[C@](C#Cc1c([H])c([H])c2c(c1[H])-c1nc(C(=O)N([H])[H])sc1[C@@]([H])(C([H])([H])[H])C([H])([H])O2)(c1nc([H])c([H])c([H])n1)C([H])([H])[H]


 32 35  0  0  0  0  0  0  0  0999 V2000
   38.6136   10.7334  -19.7553 C   0  0  0  0  0  0  0  0  0  0  0  0
   37.9678   11.3552  -18.5315 C   0  0  0  0  0  0  0  0  0  0  0  0
   37.0883   10.3217  -17.8990 C   0  0  0  0  0  0  0  0  0  0  0  0
   36.3689   10.7121  -16.7817 O   0  0  0  0  0  0  0  0  0  0  0  0
   36.5725   11.6796  -15.8315 C   0  0  0  0  0  0  0  0  0  0  0  0
   35.4737   11.9501  -15.0451 C   0  0  0  0  0  0  0  0  0  0  0  0
   35.5745   12.9028  -14.0655 C   0  0  0  0  0  0  0  0  0  0  0  0
   36.7141   13.6288  -13.7986 C   0  0  0  0  0  0  0  0  0  0  0  0
   37.8096   13.3463  -14.5966 C   0  0  0  0  0  0  0  0  0  0  0  0
   37.7428   12.3921  -15.5931 C   0  0  0  0  0  0  0  0  0  0  0  0
   39.0368   12.2566  -16.3263 C   0  0  0  0  0  0  0  0  0  0  0  0
   40.1560   12.5731  -15.7618 N   0  0  0  0  0  0  0  0  0  0  0  0
   41.2911   12.4458  -16.4337 C   0  0  0  0  0  0  0  0  0  0  0  0
   40.7639   11.8498  -17.9429 S   0  0  0  0  0  0  0  0  0  0  0  0
   39.0873   11.7952  -17.6216 C   0  0  0  0  0  0  0  0  0  0  0  0
   42.6659   12.7476  -15.9705 C   0  0  0  0  0  0  0  0  0  0  0  0
   43.7308   12.4811  -16.8401 N   0  0  0  0  0  0  0  0  0  0  0  0
   42.7984   13.2189  -14.8342 O   0  0  0  0  0  0  0  0  0  0  0  0
   43.9520   13.1188  -17.6483 H   0  0  0  0  0  0  0  0  0  0  0  0
   44.3681   11.6464  -16.7431 H   0  0  0  0  0  0  0  0  0  0  0  0
   36.8071   14.6382  -12.7821 C   0  0  0  0  0  0  0  0  0  0  0  0
   36.8864   15.4765  -11.8999 C   0  0  0  0  0  0  0  0  0  0  0  0
   36.9736   16.4753  -10.8030 C   0  0  0  0  0  0  0  0  0  0  0  0
   38.4384   16.5389  -10.3597 C   0  0  0  0  0  0  0  0  0  0  0  0
   36.6329   17.7429  -11.2483 O   0  0  0  0  0  0  0  0  0  0  0  0
   36.0480   17.7609  -12.0306 H   0  0  0  0  0  0  0  0  0  0  0  0
   36.1102   15.9771   -9.7206 C   0  0  0  0  0  0  0  0  0  0  0  0
   34.8023   16.2556   -9.6888 N   0  0  0  0  0  0  0  0  0  0  0  0
   33.9867   15.8128   -8.7141 C   0  0  0  0  0  0  0  0  0  0  0  0
   34.4895   15.0372   -7.6913 C   0  0  0  0  0  0  0  0  0  0  0  0
   35.8395   14.7485   -7.7242 C   0  0  0  0  0  0  0  0  0  0  0  0
   36.5918   15.2197   -8.7201 N   0  0  0  0  0  0  0  0  0  0  0  0
  1  2  1  0  0  0
  2  3  1  0  0  0
  3  4  1  0  0  0
  4  5  1  0  0  0
  5  6  2  0  0  0
  6  7  1  0  0  0
  7  8  2  0  0  0
  8  9  1  0  0  0
  9 10  2  0  0  0
 10 11  1  0  0  0
 11 12  1  0  0  0
 12 13  2  0  0  0
 13 14  1  0  0  0
 14 15  1  0  0  0
 13 16  1  0  0  0
 16 17  1  0  0  0
 16 18  2  0  0  0
  8 21  1  0  0  0
 21 22  3  0  0  0
 23 22  1  0  0  0
 23 24  1  0  0  0
 23 25  1  0  0  0
 23 27  1  0  0  0
 27 28  2  0  0  0
 28 29  1  0  0  0
 29 30  2  0  0  0
 30 31  1  0  0  0
 31 32  2  0  0  0
 15  2  1  0  0  0
 32 27  1  0  0  0
 10  5  1  0  0  0
 15 11  2  0  0  0
 17 19  1  0  0  0
 17 20  1  0  0  0
 25 26  1  0  0  0
M  END
> <minimizedAffinity>
-8.59392

> <CNNscore>
0.6009212732

> <CNNaffinity>
7.1833586693

> <CNN_VS>
4.3166332245

> <CNNaffinity_variance>
0.1693614125

$$$$
[H]O[C@](C#Cc1c([H])c([H])c2c(c1[H])-c1nc(C(=O)N([H])[H])sc1[C@@]([H])(C([H])([H])[H])C([H])([H])O2)(c1nc([H])c([H])c([H])n1)C([H])([H])[H]


 32 35  0  0  0  0  0  0  0  0999 V2000
   39.6531   10.8746  -17.9890 C   0  0  0  0  0  0  0  0  0  0  0  0
   39.5246   11.7073  -16.7274 C   0  0  0  0  0  0  0  0  0  0  0  0
   40.1219   13.0529  -17.0003 C   0  0  0  0  0  0  0  0  0  0  0  0
   40.1417   13.9530  -15.9479 O   0  0  0  0  0  0  0  0  0  0  0  0
   39.3652   14.0956  -14.8267 C   0  0  0  0  0  0  0  0  0  0  0  0
   39.8902   14.9367  -13.8697 C   0  0  0  0  0  0  0  0  0  0  0  0
   39.1901   15.1453  -12.7105 C   0  0  0  0  0  0  0  0  0  0  0  0
   37.9746   14.5670  -12.4192 C   0  0  0  0  0  0  0  0  0  0  0  0
   37.4598   13.7245  -13.3897 C   0  0  0  0  0  0  0  0  0  0  0  0
   38.1390   13.4918  -14.5697 C   0  0  0  0  0  0  0  0  0  0  0  0
   37.4006   12.5516  -15.4648 C   0  0  0  0  0  0  0  0  0  0  0  0
   36.1162   12.4289  -15.3841 N   0  0  0  0  0  0  0  0  0  0  0  0
   35.4836   11.5866  -16.1882 C   0  0  0  0  0  0  0  0  0  0  0  0
   36.7581   10.9267  -17.1107 S   0  0  0  0  0  0  0  0  0  0  0  0
   38.0539   11.7842  -16.4015 C   0  0  0  0  0  0  0  0  0  0  0  0
   34.0304   11.3052  -16.2562 C   0  0  0  0  0  0  0  0  0  0  0  0
   33.3000   11.3025  -15.0613 N   0  0  0  0  0  0  0  0  0  0  0  0
   33.5399   11.0848  -17.3706 O   0  0  0  0  0  0  0  0  0  0  0  0
   33.0200   12.2002  -14.5875 H   0  0  0  0  0  0  0  0  0  0  0  0
   32.9870   10.4228  -14.5712 H   0  0  0  0  0  0  0  0  0  0  0  0
   37.2550   14.7764  -11.1947 C   0  0  0  0  0  0  0  0  0  0  0  0
   36.6277   14.9715  -10.1672 C   0  0  0  0  0  0  0  0  0  0  0  0
   35.8507   15.2366   -8.9285 C   0  0  0  0  0  0  0  0  0  0  0  0
   34.5811   15.9888   -9.3390 C   0  0  0  0  0  0  0  0  0  0  0  0
   35.4423   14.0559   -8.3283 O   0  0  0  0  0  0  0  0  0  0  0  0
   35.9945   13.2768   -8.5346 H   0  0  0  0  0  0  0  0  0  0  0  0
   36.7100   16.0689   -8.0717 C   0  0  0  0  0  0  0  0  0  0  0  0
   37.3012   15.5678   -6.9814 N   0  0  0  0  0  0  0  0  0  0  0  0
   38.0939   16.3027   -6.1798 C   0  0  0  0  0  0  0  0  0  0  0  0
   38.3268   17.6307   -6.4670 C   0  0  0  0  0  0  0  0  0  0  0  0
   37.7176   18.1483   -7.5930 C   0  0  0  0  0  0  0  0  0  0  0  0
   36.9431   17.3642   -8.3447 N   0  0  0  0  0  0  0  0  0  0  0  0
  1  2  1  0  0  0
  2  3  1  0  0  0
  3  4  1  0  0  0
  4  5  1  0  0  0
  5  6  2  0  0  0
  6  7  1  0  0  0
  7  8  2  0  0  0
  8  9  1  0  0  0
  9 10  2  0  0  0
 10 11  1  0  0  0
 11 12  1  0  0  0
 12 13  2  0  0  0
 13 14  1  0  0  0
 14 15  1  0  0  0
 13 16  1  0  0  0
 16 17  1  0  0  0
 16 18  2  0  0  0
  8 21  1  0  0  0
 21 22  3  0  0  0
 23 22  1  0  0  0
 23 24  1  0  0  0
 23 25  1  0  0  0
 23 27  1  0  0  0
 27 28  2  0  0  0
 28 29  1  0  0  0
 29 30  2  0  0  0
 30 31  1  0  0  0
 31 32  2  0  0  0
 15  2  1  0  0  0
 32 27  1  0  0  0
 10  5  1  0  0  0
 15 11  2  0  0  0
 17 19  1  0  0  0
 17 20  1  0  0  0
 25 26  1  0  0  0
M  END
> <minimizedAffinity>
-8.98911

> <CNNscore>
0.4838896096

> <CNNaffinity>
6.8178510666

> <CNN_VS>
3.2990872860

> <CNNaffinity_variance>
0.0735732168

$$$$
[H]O[C@](C#Cc1c([H])c([H])c2c(c1[H])-c1nc(C(=O)N([H])[H])sc1[C@@]([H])(C([H])([H])[H])C([H])([H])O2)(c1nc([H])c([H])c([H])n1)C([H])([H])[H]


 32 35  0  0  0  0  0  0  0  0999 V2000
   37.4395   10.3361  -18.1395 C   0  0  0  0  0  0  0  0  0  0  0  0
   38.6448   10.8831  -17.3983 C   0  0  0  0  0  0  0  0  0  0  0  0
   39.5556   11.5169  -18.4035 C   0  0  0  0  0  0  0  0  0  0  0  0
   40.7452   12.0413  -17.9260 O   0  0  0  0  0  0  0  0  0  0  0  0
   41.1277   12.5234  -16.7005 C   0  0  0  0  0  0  0  0  0  0  0  0
   42.4879   12.6815  -16.5464 C   0  0  0  0  0  0  0  0  0  0  0  0
   42.9722   13.1573  -15.3563 C   0  0  0  0  0  0  0  0  0  0  0  0
   42.1884   13.4978  -14.2762 C   0  0  0  0  0  0  0  0  0  0  0  0
   40.8242   13.3336  -14.4456 C   0  0  0  0  0  0  0  0  0  0  0  0
   40.3021   12.8564  -15.6320 C   0  0  0  0  0  0  0  0  0  0  0  0
   38.8125   12.7585  -15.5892 C   0  0  0  0  0  0  0  0  0  0  0  0
   38.1206   13.5074  -14.7944 N   0  0  0  0  0  0  0  0  0  0  0  0
   36.7998   13.4009  -14.7732 C   0  0  0  0  0  0  0  0  0  0  0  0
   36.5075   12.1823  -15.9309 S   0  0  0  0  0  0  0  0  0  0  0  0
   38.1243   11.8730  -16.3863 C   0  0  0  0  0  0  0  0  0  0  0  0
   35.8348   14.1623  -13.9457 C   0  0  0  0  0  0  0  0  0  0  0  0
   34.5265   14.3107  -14.4227 N   0  0  0  0  0  0  0  0  0  0  0  0
   36.2406   14.6294  -12.8742 O   0  0  0  0  0  0  0  0  0  0  0  0
   33.8289   13.5241  -14.3649 H   0  0  0  0  0  0  0  0  0  0  0  0
   34.1617   15.1996  -14.8575 H   0  0  0  0  0  0  0  0  0  0  0  0
   42.7041   13.9791  -13.0258 C   0  0  0  0  0  0  0  0  0  0  0  0
   43.1533   14.3640  -11.9594 C   0  0  0  0  0  0  0  0  0  0  0  0
   43.7058   14.8018  -10.6511 C   0  0  0  0  0  0  0  0  0  0  0  0
   43.9226   16.3160  -10.7315 C   0  0  0  0  0  0  0  0  0  0  0  0
   42.8027   14.5789   -9.6235 O   0  0  0  0  0  0  0  0  0  0  0  0
   42.1535   13.8687   -9.7930 H   0  0  0  0  0  0  0  0  0  0  0  0
   44.9818   14.0888  -10.4818 C   0  0  0  0  0  0  0  0  0  0  0  0
   45.0230   12.8356  -10.0159 N   0  0  0  0  0  0  0  0  0  0  0  0
   46.1735   12.1568   -9.8522 C   0  0  0  0  0  0  0  0  0  0  0  0
   47.3770   12.7496  -10.1692 C   0  0  0  0  0  0  0  0  0  0  0  0
   47.3350   14.0429  -10.6512 C   0  0  0  0  0  0  0  0  0  0  0  0
   46.1597   14.6588  -10.7891 N   0  0  0  0  0  0  0  0  0  0  0  0
  1  2  1  0  0  0
  2  3  1  0  0  0
  3  4  1  0  0  0
  4  5  1  0  0  0
  5  6  2  0  0  0
  6  7  1  0  0  0
  7  8  2  0  0  0
  8  9  1  0  0  0
  9 10  2  0  0  0
 10 11  1  0  0  0
 11 12  1  0  0  0
 12 13  2  0  0  0
 13 14  1  0  0  0
 14 15  1  0  0  0
 13 16  1  0  0  0
 16 17  1  0  0  0
 16 18  2  0  0  0
  8 21  1  0  0  0
 21 22  3  0  0  0
 23 22  1  0  0  0
 23 24  1  0  0  0
 23 25  1  0  0  0
 23 27  1  0  0  0
 27 28  2  0  0  0
 28 29  1  0  0  0
 29 30  2  0  0  0
 30 31  1  0  0  0
 31 32  2  0  0  0
 15  2  1  0  0  0
 32 27  1  0  0  0
 10  5  1  0  0  0
 15 11  2  0  0  0
 17 19  1  0  0  0
 17 20  1  0  0  0
 25 26  1  0  0  0
M  END
> <minimizedAffinity>
-8.31471

> <CNNscore>
0.4320201278

> <CNNaffinity>
6.8300805092

> <CNN_VS>
2.9507322311

> <CNNaffinity_variance>
0.2282065153

$$$$
[H]O[C@](C#Cc1c([H])c([H])c2c(c1[H])-c1nc(C(=O)N([H])[H])sc1[C@@]([H])(C([H])([H])[H])C([H])([H])O2)(c1nc([H])c([H])c([H])n1)C([H])([H])[H]


 32 35  0  0  0  0  0  0  0  0999 V2000
   39.5425   10.6918  -17.9712 C   0  0  0  0  0  0  0  0  0  0  0  0
   39.4977   11.5869  -16.7472 C   0  0  0  0  0  0  0  0  0  0  0  0
   40.1577   12.8837  -17.1000 C   0  0  0  0  0  0  0  0  0  0  0  0
   40.2580   13.8284  -16.0922 O   0  0  0  0  0  0  0  0  0  0  0  0
   39.5251   14.0644  -14.9574 C   0  0  0  0  0  0  0  0  0  0  0  0
   40.1236   14.9180  -14.0563 C   0  0  0  0  0  0  0  0  0  0  0  0
   39.4717   15.2175  -12.8890 C   0  0  0  0  0  0  0  0  0  0  0  0
   38.2364   14.7208  -12.5366 C   0  0  0  0  0  0  0  0  0  0  0  0
   37.6475   13.8646  -13.4515 C   0  0  0  0  0  0  0  0  0  0  0  0
   38.2767   13.5414  -14.6379 C   0  0  0  0  0  0  0  0  0  0  0  0
   37.4619   12.6035  -15.4665 C   0  0  0  0  0  0  0  0  0  0  0  0
   36.1757   12.5554  -15.3439 N   0  0  0  0  0  0  0  0  0  0  0  0
   35.4745   11.7135  -16.0892 C   0  0  0  0  0  0  0  0  0  0  0  0
   36.6828   10.9431  -17.0151 S   0  0  0  0  0  0  0  0  0  0  0  0
   38.0439   11.7594  -16.3840 C   0  0  0  0  0  0  0  0  0  0  0  0
   34.0069   11.5097  -16.1030 C   0  0  0  0  0  0  0  0  0  0  0  0
   33.2994   11.7115  -14.9114 N   0  0  0  0  0  0  0  0  0  0  0  0
   33.4846   11.1685  -17.1715 O   0  0  0  0  0  0  0  0  0  0  0  0
   33.0785   12.6798  -14.5618 H   0  0  0  0  0  0  0  0  0  0  0  0
   32.9469   10.9261  -14.3023 H   0  0  0  0  0  0  0  0  0  0  0  0
   37.5670   15.0250  -11.3036 C   0  0  0  0  0  0  0  0  0  0  0  0
   36.9752   15.2762  -10.2673 C   0  0  0  0  0  0  0  0  0  0  0  0
   36.2257   15.5825   -9.0212 C   0  0  0  0  0  0  0  0  0  0  0  0
   36.4580   14.4194   -8.0518 C   0  0  0  0  0  0  0  0  0  0  0  0
   36.7172   16.7231   -8.4057 O   0  0  0  0  0  0  0  0  0  0  0  0
   37.1702   17.3500   -9.0026 H   0  0  0  0  0  0  0  0  0  0  0  0
   34.8086   15.6818   -9.4049 C   0  0  0  0  0  0  0  0  0  0  0  0
   33.8577   15.9345   -8.4987 N   0  0  0  0  0  0  0  0  0  0  0  0
   32.5542   16.0334   -8.8189 C   0  0  0  0  0  0  0  0  0  0  0  0
   32.1496   15.8729  -10.1269 C   0  0  0  0  0  0  0  0  0  0  0  0
   33.1310   15.6130  -11.0629 C   0  0  0  0  0  0  0  0  0  0  0  0
   34.4054   15.5275  -10.6778 N   0  0  0  0  0  0  0  0  0  0  0  0
  1  2  1  0  0  0
  2  3  1  0  0  0
  3  4  1  0  0  0
  4  5  1  0  0  0
  5  6  2  0  0  0
  6  7  1  0  0  0
  7  8  2  0  0  0
  8  9  1  0  0  0
  9 10  2  0  0  0
 10 11  1  0  0  0
 11 12  1  0  0  0
 12 13  2  0  0  0
 13 14  1  0  0  0
 14 15  1  0  0  0
 13 16  1  0  0  0
 16 17  1  0  0  0
 16 18  2  0  0  0
  8 21  1  0  0  0
 21 22  3  0  0  0
 23 22  1  0  0  0
 23 24  1  0  0  0
 23 25  1  0  0  0
 23 27  1  0  0  0
 27 28  2  0  0  0
 28 29  1  0  0  0
 29 30  2  0  0  0
 30 31  1  0  0  0
 31 32  2  0  0  0
 15  2  1  0  0  0
 32 27  1  0  0  0
 10  5  1  0  0  0
 15 11  2  0  0  0
 17 19  1  0  0  0
 17 20  1  0  0  0
 25 26  1  0  0  0
M  END
> <minimizedAffinity>
-8.52063

> <CNNscore>
0.4012902677

> <CNNaffinity>
6.8037691116

> <CNN_VS>
2.7302863598

> <CNNaffinity_variance>
0.1043485254

$$$$
[H]O[C@](C#Cc1c([H])c([H])c2c(c1[H])-c1nc(C(=O)N([H])[H])sc1[C@@]([H])(C([H])([H])[H])C([H])([H])O2)(c1nc([H])c([H])c([H])n1)C([H])([H])[H]


 32 35  0  0  0  0  0  0  0  0999 V2000
   39.0782   11.2887  -20.1362 C   0  0  0  0  0  0  0  0  0  0  0  0
   38.2971   11.6044  -18.8746 C   0  0  0  0  0  0  0  0  0  0  0  0
   37.4794   10.3999  -18.5251 C   0  0  0  0  0  0  0  0  0  0  0  0
   36.6541   10.5045  -17.4177 O   0  0  0  0  0  0  0  0  0  0  0  0
   36.7021   11.2797  -16.2876 C   0  0  0  0  0  0  0  0  0  0  0  0
   35.5331   11.3018  -15.5582 C   0  0  0  0  0  0  0  0  0  0  0  0
   35.4785   12.0485  -14.4107 C   0  0  0  0  0  0  0  0  0  0  0  0
   36.5242   12.7967  -13.9171 C   0  0  0  0  0  0  0  0  0  0  0  0
   37.6918   12.7649  -14.6604 C   0  0  0  0  0  0  0  0  0  0  0  0
   37.7815   12.0228  -15.8219 C   0  0  0  0  0  0  0  0  0  0  0  0
   39.1281   12.1378  -16.4574 C   0  0  0  0  0  0  0  0  0  0  0  0
   40.1726   12.4257  -15.7521 N   0  0  0  0  0  0  0  0  0  0  0  0
   41.3566   12.5240  -16.3392 C   0  0  0  0  0  0  0  0  0  0  0  0
   40.9889   12.1958  -17.9725 S   0  0  0  0  0  0  0  0  0  0  0  0
   39.3074   11.9453  -17.8079 C   0  0  0  0  0  0  0  0  0  0  0  0
   42.6631   12.8379  -15.7145 C   0  0  0  0  0  0  0  0  0  0  0  0
   43.8087   12.7951  -16.5189 N   0  0  0  0  0  0  0  0  0  0  0  0
   42.6704   13.1200  -14.5098 O   0  0  0  0  0  0  0  0  0  0  0  0
   44.0366   13.5729  -17.1909 H   0  0  0  0  0  0  0  0  0  0  0  0
   44.5035   12.0019  -16.5023 H   0  0  0  0  0  0  0  0  0  0  0  0
   36.4541   13.5910  -12.7233 C   0  0  0  0  0  0  0  0  0  0  0  0
   36.4212   14.2647  -11.7073 C   0  0  0  0  0  0  0  0  0  0  0  0
   36.4117   15.0759  -10.4622 C   0  0  0  0  0  0  0  0  0  0  0  0
   35.5397   16.3071  -10.7269 C   0  0  0  0  0  0  0  0  0  0  0  0
   35.8234   14.3840   -9.4152 O   0  0  0  0  0  0  0  0  0  0  0  0
   35.8532   13.4109   -9.4967 H   0  0  0  0  0  0  0  0  0  0  0  0
   37.8097   15.4577  -10.2070 C   0  0  0  0  0  0  0  0  0  0  0  0
   38.4085   15.1731   -9.0452 N   0  0  0  0  0  0  0  0  0  0  0  0
   39.6857   15.5069   -8.7830 C   0  0  0  0  0  0  0  0  0  0  0  0
   40.4353   16.1702   -9.7307 C   0  0  0  0  0  0  0  0  0  0  0  0
   39.8180   16.4634  -10.9307 C   0  0  0  0  0  0  0  0  0  0  0  0
   38.5482   16.1038  -11.1256 N   0  0  0  0  0  0  0  0  0  0  0  0
  1  2  1  0  0  0
  2  3  1  0  0  0
  3  4  1  0  0  0
  4  5  1  0  0  0
  5  6  2  0  0  0
  6  7  1  0  0  0
  7  8  2  0  0  0
  8  9  1  0  0  0
  9 10  2  0  0  0
 10 11  1  0  0  0
 11 12  1  0  0  0
 12 13  2  0  0  0
 13 14  1  0  0  0
 14 15  1  0  0  0
 13 16  1  0  0  0
 16 17  1  0  0  0
 16 18  2  0  0  0
  8 21  1  0  0  0
 21 22  3  0  0  0
 23 22  1  0  0  0
 23 24  1  0  0  0
 23 25  1  0  0  0
 23 27  1  0  0  0
 27 28  2  0  0  0
 28 29  1  0  0  0
 29 30  2  0  0  0
 30 31  1  0  0  0
 31 32  2  0  0  0
 15  2  1  0  0  0
 32 27  1  0  0  0
 10  5  1  0  0  0
 15 11  2  0  0  0
 17 19  1  0  0  0
 17 20  1  0  0  0
 25 26  1  0  0  0
M  END
> <minimizedAffinity>
-7.92803

> <CNNscore>
0.3992269635

> <CNNaffinity>
6.9272246361

> <CNN_VS>
2.7655348778

> <CNNaffinity_variance>
0.1403439641

$$$$
[H]O[C@](C#Cc1c([H])c([H])c2c(c1[H])-c1nc(C(=O)N([H])[H])sc1[C@@]([H])(C([H])([H])[H])C([H])([H])O2)(c1nc([H])c([H])c([H])n1)C([H])([H])[H]


 32 35  0  0  0  0  0  0  0  0999 V2000
   36.6085   10.3477  -17.5819 C   0  0  0  0  0  0  0  0  0  0  0  0
   37.9605   10.8287  -17.0898 C   0  0  0  0  0  0  0  0  0  0  0  0
   38.7395   11.3068  -18.2757 C   0  0  0  0  0  0  0  0  0  0  0  0
   40.0303   11.7491  -18.0385 O   0  0  0  0  0  0  0  0  0  0  0  0
   40.6489   12.2743  -16.9331 C   0  0  0  0  0  0  0  0  0  0  0  0
   42.0241   12.3154  -17.0118 C   0  0  0  0  0  0  0  0  0  0  0  0
   42.7363   12.8227  -15.9569 C   0  0  0  0  0  0  0  0  0  0  0  0
   42.1732   13.3058  -14.7966 C   0  0  0  0  0  0  0  0  0  0  0  0
   40.7910   13.2579  -14.7319 C   0  0  0  0  0  0  0  0  0  0  0  0
   40.0421   12.7531  -15.7769 C   0  0  0  0  0  0  0  0  0  0  0  0
   38.5775   12.7970  -15.4887 C   0  0  0  0  0  0  0  0  0  0  0  0
   38.0900   13.6583  -14.6569 N   0  0  0  0  0  0  0  0  0  0  0  0
   36.7870   13.6765  -14.4162 C   0  0  0  0  0  0  0  0  0  0  0  0
   36.2089   12.4157  -15.4098 S   0  0  0  0  0  0  0  0  0  0  0  0
   37.6971   11.9279  -16.0912 C   0  0  0  0  0  0  0  0  0  0  0  0
   36.0377   14.5777  -13.5096 C   0  0  0  0  0  0  0  0  0  0  0  0
   36.7261   15.6451  -12.9198 N   0  0  0  0  0  0  0  0  0  0  0  0
   34.8391   14.3351  -13.3208 O   0  0  0  0  0  0  0  0  0  0  0  0
   36.9550   16.5175  -13.4631 H   0  0  0  0  0  0  0  0  0  0  0  0
   37.0496   15.6468  -11.9161 H   0  0  0  0  0  0  0  0  0  0  0  0
   42.9268   13.8195  -13.6879 C   0  0  0  0  0  0  0  0  0  0  0  0
   43.5610   14.2808  -12.7539 C   0  0  0  0  0  0  0  0  0  0  0  0
   44.3343   14.8720  -11.6311 C   0  0  0  0  0  0  0  0  0  0  0  0
   43.3371   15.2086  -10.5181 C   0  0  0  0  0  0  0  0  0  0  0  0
   45.2331   13.9585  -11.1030 O   0  0  0  0  0  0  0  0  0  0  0  0
   45.5137   13.2540  -11.7190 H   0  0  0  0  0  0  0  0  0  0  0  0
   44.9705   16.0878  -12.1624 C   0  0  0  0  0  0  0  0  0  0  0  0
   44.9869   17.2279  -11.4629 N   0  0  0  0  0  0  0  0  0  0  0  0
   45.5625   18.3551  -11.9205 C   0  0  0  0  0  0  0  0  0  0  0  0
   46.1694   18.3680  -13.1582 C   0  0  0  0  0  0  0  0  0  0  0  0
   46.1537   17.1911  -13.8803 C   0  0  0  0  0  0  0  0  0  0  0  0
   45.5652   16.1092  -13.3676 N   0  0  0  0  0  0  0  0  0  0  0  0
  1  2  1  0  0  0
  2  3  1  0  0  0
  3  4  1  0  0  0
  4  5  1  0  0  0
  5  6  2  0  0  0
  6  7  1  0  0  0
  7  8  2  0  0  0
  8  9  1  0  0  0
  9 10  2  0  0  0
 10 11  1  0  0  0
 11 12  1  0  0  0
 12 13  2  0  0  0
 13 14  1  0  0  0
 14 15  1  0  0  0
 13 16  1  0  0  0
 16 17  1  0  0  0
 16 18  2  0  0  0
  8 21  1  0  0  0
 21 22  3  0  0  0
 23 22  1  0  0  0
 23 24  1  0  0  0
 23 25  1  0  0  0
 23 27  1  0  0  0
 27 28  2  0  0  0
 28 29  1  0  0  0
 29 30  2  0  0  0
 30 31  1  0  0  0
 31 32  2  0  0  0
 15  2  1  0  0  0
 32 27  1  0  0  0
 10  5  1  0  0  0
 15 11  2  0  0  0
 17 19  1  0  0  0
 17 20  1  0  0  0
 25 26  1  0  0  0
M  END
> <minimizedAffinity>
-8.08728

> <CNNscore>
0.3723856807

> <CNNaffinity>
6.7875585556

> <CNN_VS>
2.5275895596

> <CNNaffinity_variance>
0.3289775252

$$$$
[H]O[C@](C#Cc1c([H])c([H])c2c(c1[H])-c1nc(C(=O)N([H])[H])sc1[C@@]([H])(C([H])([H])[H])C([H])([H])O2)(c1nc([H])c([H])c([H])n1)C([H])([H])[H]


 32 35  0  0  0  0  0  0  0  0999 V2000
   39.3475   11.3239  -17.0415 C   0  0  0  0  0  0  0  0  0  0  0  0
   39.4105   12.2198  -15.8188 C   0  0  0  0  0  0  0  0  0  0  0  0
   40.1230   13.4785  -16.2058 C   0  0  0  0  0  0  0  0  0  0  0  0
   40.3232   14.4159  -15.2062 O   0  0  0  0  0  0  0  0  0  0  0  0
   39.6594   14.6916  -14.0383 C   0  0  0  0  0  0  0  0  0  0  0  0
   40.3463   15.5108  -13.1689 C   0  0  0  0  0  0  0  0  0  0  0  0
   39.7684   15.8454  -11.9725 C   0  0  0  0  0  0  0  0  0  0  0  0
   38.5259   15.4172  -11.5603 C   0  0  0  0  0  0  0  0  0  0  0  0
   37.8479   14.5948  -12.4439 C   0  0  0  0  0  0  0  0  0  0  0  0
   38.4009   14.2378  -13.6582 C   0  0  0  0  0  0  0  0  0  0  0  0
   37.4971   13.3463  -14.4447 C   0  0  0  0  0  0  0  0  0  0  0  0
   36.2177   13.3689  -14.2607 N   0  0  0  0  0  0  0  0  0  0  0  0
   35.4365   12.5669  -14.9697 C   0  0  0  0  0  0  0  0  0  0  0  0
   36.5550   11.7316  -15.9504 S   0  0  0  0  0  0  0  0  0  0  0  0
   37.9875   12.4717  -15.3870 C   0  0  0  0  0  0  0  0  0  0  0  0
   33.9609   12.4441  -14.9127 C   0  0  0  0  0  0  0  0  0  0  0  0
   33.2167   13.5705  -14.5407 N   0  0  0  0  0  0  0  0  0  0  0  0
   33.4648   11.3466  -15.1965 O   0  0  0  0  0  0  0  0  0  0  0  0
   33.0422   14.3600  -15.2152 H   0  0  0  0  0  0  0  0  0  0  0  0
   32.7895   13.6976  -13.5849 H   0  0  0  0  0  0  0  0  0  0  0  0
   37.9341   15.7574  -10.2974 C   0  0  0  0  0  0  0  0  0  0  0  0
   37.4482   16.0671   -9.2225 C   0  0  0  0  0  0  0  0  0  0  0  0
   36.8827   16.4628   -7.9065 C   0  0  0  0  0  0  0  0  0  0  0  0
   35.4716   15.8731   -7.8207 C   0  0  0  0  0  0  0  0  0  0  0  0
   37.6108   15.9168   -6.8611 O   0  0  0  0  0  0  0  0  0  0  0  0
   38.5397   15.7022   -7.0745 H   0  0  0  0  0  0  0  0  0  0  0  0
   36.8471   17.9338   -7.8973 C   0  0  0  0  0  0  0  0  0  0  0  0
   37.7893   18.6572   -8.5124 N   0  0  0  0  0  0  0  0  0  0  0  0
   37.7829   20.0030   -8.5237 C   0  0  0  0  0  0  0  0  0  0  0  0
   36.7767   20.6948   -7.8839 C   0  0  0  0  0  0  0  0  0  0  0  0
   35.8032   19.9485   -7.2496 C   0  0  0  0  0  0  0  0  0  0  0  0
   35.8695   18.6164   -7.2768 N   0  0  0  0  0  0  0  0  0  0  0  0
  1  2  1  0  0  0
  2  3  1  0  0  0
  3  4  1  0  0  0
  4  5  1  0  0  0
  5  6  2  0  0  0
  6  7  1  0  0  0
  7  8  2  0  0  0
  8  9  1  0  0  0
  9 10  2  0  0  0
 10 11  1  0  0  0
 11 12  1  0  0  0
 12 13  2  0  0  0
 13 14  1  0  0  0
 14 15  1  0  0  0
 13 16  1  0  0  0
 16 17  1  0  0  0
 16 18  2  0  0  0
  8 21  1  0  0  0
 21 22  3  0  0  0
 23 22  1  0  0  0
 23 24  1  0  0  0
 23 25  1  0  0  0
 23 27  1  0  0  0
 27 28  2  0  0  0
 28 29  1  0  0  0
 29 30  2  0  0  0
 30 31  1  0  0  0
 31 32  2  0  0  0
 15  2  1  0  0  0
 32 27  1  0  0  0
 10  5  1  0  0  0
 15 11  2  0  0  0
 17 19  1  0  0  0
 17 20  1  0  0  0
 25 26  1  0  0  0
M  END
> <minimizedAffinity>
-8.59875

> <CNNscore>
0.3177963197

> <CNNaffinity>
6.3870048523

> <CNN_VS>
2.0297665596

> <CNNaffinity_variance>
0.1861027181

$$$$
[H]O[C@](C#Cc1c([H])c([H])c2c(c1[H])-c1nc(C(=O)N([H])[H])sc1[C@@]([H])(C([H])([H])[H])C([H])([H])O2)(c1nc([H])c([H])c([H])n1)C([H])([H])[H]


 32 35  0  0  0  0  0  0  0  0999 V2000
   34.2060   10.2203  -16.6079 C   0  0  0  0  0  0  0  0  0  0  0  0
   35.6402   10.6754  -16.4148 C   0  0  0  0  0  0  0  0  0  0  0  0
   36.1900   11.0491  -17.7564 C   0  0  0  0  0  0  0  0  0  0  0  0
   37.5142   11.4526  -17.7988 O   0  0  0  0  0  0  0  0  0  0  0  0
   38.3480   12.0185  -16.8688 C   0  0  0  0  0  0  0  0  0  0  0  0
   39.6830   11.9993  -17.2097 C   0  0  0  0  0  0  0  0  0  0  0  0
   40.5985   12.5404  -16.3456 C   0  0  0  0  0  0  0  0  0  0  0  0
   40.2824   13.1151  -15.1346 C   0  0  0  0  0  0  0  0  0  0  0  0
   38.9376   13.1269  -14.8056 C   0  0  0  0  0  0  0  0  0  0  0  0
   37.9881   12.5904  -15.6532 C   0  0  0  0  0  0  0  0  0  0  0  0
   36.6079   12.7105  -15.0958 C   0  0  0  0  0  0  0  0  0  0  0  0
   36.3136   13.6396  -14.2462 N   0  0  0  0  0  0  0  0  0  0  0  0
   35.0820   13.7247  -13.7643 C   0  0  0  0  0  0  0  0  0  0  0  0
   34.2889   12.4304  -14.5431 S   0  0  0  0  0  0  0  0  0  0  0  0
   35.6043   11.8428  -15.4604 C   0  0  0  0  0  0  0  0  0  0  0  0
   34.5462   14.7085  -12.7945 C   0  0  0  0  0  0  0  0  0  0  0  0
   33.1935   15.0592  -12.8862 N   0  0  0  0  0  0  0  0  0  0  0  0
   35.3280   15.1702  -11.9538 O   0  0  0  0  0  0  0  0  0  0  0  0
   32.4358   14.4203  -12.5308 H   0  0  0  0  0  0  0  0  0  0  0  0
   32.8532   15.9658  -13.3040 H   0  0  0  0  0  0  0  0  0  0  0  0
   41.2489   13.6643  -14.2261 C   0  0  0  0  0  0  0  0  0  0  0  0
   42.0501   14.1421  -13.4406 C   0  0  0  0  0  0  0  0  0  0  0  0
   43.0032   14.7453  -12.4731 C   0  0  0  0  0  0  0  0  0  0  0  0
   42.5610   16.1932  -12.2399 C   0  0  0  0  0  0  0  0  0  0  0  0
   42.9466   14.1049  -11.2451 O   0  0  0  0  0  0  0  0  0  0  0  0
   42.6276   13.1820  -11.2765 H   0  0  0  0  0  0  0  0  0  0  0  0
   44.3290   14.6886  -13.1088 C   0  0  0  0  0  0  0  0  0  0  0  0
   45.1258   13.6238  -12.9645 N   0  0  0  0  0  0  0  0  0  0  0  0
   46.3419   13.5414  -13.5350 C   0  0  0  0  0  0  0  0  0  0  0  0
   46.8153   14.5809  -14.3068 C   0  0  0  0  0  0  0  0  0  0  0  0
   45.9927   15.6800  -14.4570 C   0  0  0  0  0  0  0  0  0  0  0  0
   44.7981   15.6971  -13.8636 N   0  0  0  0  0  0  0  0  0  0  0  0
  1  2  1  0  0  0
  2  3  1  0  0  0
  3  4  1  0  0  0
  4  5  1  0  0  0
  5  6  2  0  0  0
  6  7  1  0  0  0
  7  8  2  0  0  0
  8  9  1  0  0  0
  9 10  2  0  0  0
 10 11  1  0  0  0
 11 12  1  0  0  0
 12 13  2  0  0  0
 13 14  1  0  0  0
 14 15  1  0  0  0
 13 16  1  0  0  0
 16 17  1  0  0  0
 16 18  2  0  0  0
  8 21  1  0  0  0
 21 22  3  0  0  0
 23 22  1  0  0  0
 23 24  1  0  0  0
 23 25  1  0  0  0
 23 27  1  0  0  0
 27 28  2  0  0  0
 28 29  1  0  0  0
 29 30  2  0  0  0
 30 31  1  0  0  0
 31 32  2  0  0  0
 15  2  1  0  0  0
 32 27  1  0  0  0
 10  5  1  0  0  0
 15 11  2  0  0  0
 17 19  1  0  0  0
 17 20  1  0  0  0
 25 26  1  0  0  0
M  END
> <minimizedAffinity>
-8.86563

> <CNNscore>
0.2804919183

> <CNNaffinity>
6.7284898758

> <CNN_VS>
1.8872870207

> <CNNaffinity_variance>
0.1720636934

$$$$
[H]O[C@](C#Cc1c([H])c([H])c2c(c1[H])-c1nc(C(=O)N([H])[H])sc1[C@@]([H])(C([H])([H])[H])C([H])([H])O2)(c1nc([H])c([H])c([H])n1)C([H])([H])[H]


 32 35  0  0  0  0  0  0  0  0999 V2000
   33.4702   10.9564  -14.9059 C   0  0  0  0  0  0  0  0  0  0  0  0
   34.8972   11.0015  -15.4186 C   0  0  0  0  0  0  0  0  0  0  0  0
   34.8477   11.1058  -16.9114 C   0  0  0  0  0  0  0  0  0  0  0  0
   36.0617   11.1154  -17.5779 O   0  0  0  0  0  0  0  0  0  0  0  0
   37.3276   11.4898  -17.2066 C   0  0  0  0  0  0  0  0  0  0  0  0
   38.3230   11.0702  -18.0622 C   0  0  0  0  0  0  0  0  0  0  0  0
   39.6241   11.3930  -17.7789 C   0  0  0  0  0  0  0  0  0  0  0  0
   40.0252   12.1207  -16.6804 C   0  0  0  0  0  0  0  0  0  0  0  0
   39.0144   12.5352  -15.8300 C   0  0  0  0  0  0  0  0  0  0  0  0
   37.6923   12.2274  -16.0854 C   0  0  0  0  0  0  0  0  0  0  0  0
   36.7780   12.7723  -15.0378 C   0  0  0  0  0  0  0  0  0  0  0  0
   37.1124   13.8062  -14.3374 N   0  0  0  0  0  0  0  0  0  0  0  0
   36.2847   14.2701  -13.4122 C   0  0  0  0  0  0  0  0  0  0  0  0
   34.9621   13.1985  -13.5270 S   0  0  0  0  0  0  0  0  0  0  0  0
   35.5548   12.1983  -14.7782 C   0  0  0  0  0  0  0  0  0  0  0  0
   36.4769   15.4334  -12.5147 C   0  0  0  0  0  0  0  0  0  0  0  0
   35.3409   16.0375  -11.9616 N   0  0  0  0  0  0  0  0  0  0  0  0
   37.6363   15.8105  -12.3038 O   0  0  0  0  0  0  0  0  0  0  0  0
   34.8275   15.6025  -11.1518 H   0  0  0  0  0  0  0  0  0  0  0  0
   34.9368   16.9475  -12.3091 H   0  0  0  0  0  0  0  0  0  0  0  0
   41.3924   12.4401  -16.3805 C   0  0  0  0  0  0  0  0  0  0  0  0
   42.5550   12.7257  -16.1483 C   0  0  0  0  0  0  0  0  0  0  0  0
   43.9755   13.0824  -15.8968 C   0  0  0  0  0  0  0  0  0  0  0  0
   44.8352   11.9281  -16.4210 C   0  0  0  0  0  0  0  0  0  0  0  0
   44.3440   14.2134  -16.6083 O   0  0  0  0  0  0  0  0  0  0  0  0
   43.6073   14.8119  -16.8402 H   0  0  0  0  0  0  0  0  0  0  0  0
   44.1128   13.2302  -14.4393 C   0  0  0  0  0  0  0  0  0  0  0  0
   43.1028   13.6802  -13.6865 N   0  0  0  0  0  0  0  0  0  0  0  0
   43.1969   13.8240  -12.3517 C   0  0  0  0  0  0  0  0  0  0  0  0
   44.3698   13.5022  -11.7028 C   0  0  0  0  0  0  0  0  0  0  0  0
   45.4125   13.0366  -12.4792 C   0  0  0  0  0  0  0  0  0  0  0  0
   45.2524   12.9181  -13.7983 N   0  0  0  0  0  0  0  0  0  0  0  0
  1  2  1  0  0  0
  2  3  1  0  0  0
  3  4  1  0  0  0
  4  5  1  0  0  0
  5  6  2  0  0  0
  6  7  1  0  0  0
  7  8  2  0  0  0
  8  9  1  0  0  0
  9 10  2  0  0  0
 10 11  1  0  0  0
 11 12  1  0  0  0
 12 13  2  0  0  0
 13 14  1  0  0  0
 14 15  1  0  0  0
 13 16  1  0  0  0
 16 17  1  0  0  0
 16 18  2  0  0  0
  8 21  1  0  0  0
 21 22  3  0  0  0
 23 22  1  0  0  0
 23 24  1  0  0  0
 23 25  1  0  0  0
 23 27  1  0  0  0
 27 28  2  0  0  0
 28 29  1  0  0  0
 29 30  2  0  0  0
 30 31  1  0  0  0
 31 32  2  0  0  0
 15  2  1  0  0  0
 32 27  1  0  0  0
 10  5  1  0  0  0
 15 11  2  0  0  0
 17 19  1  0  0  0
 17 20  1  0  0  0
 25 26  1  0  0  0
M  END
> <minimizedAffinity>
-9.82027

> <CNNscore>
0.2705285549

> <CNNaffinity>
6.8412370682

> <CNN_VS>
1.8507499695

> <CNNaffinity_variance>
0.0828687847

$$$$
[H]OC(c1c(C(=O)N([H])[H])nc2n1C1([H])C([H])([H])C([H])(c3c([H])c(F)c(C#C[C@@]4(O[H])C(=O)N(C([H])([H])[H])C([H])([H])C4([H])[H])c([H])c3-2)C1([H])[H])(C([H])([H])[H])C([H])([H])[H]


 37 41  0  0  0  0  0  0  0  0999 V2000
   45.7698   12.1523  -10.0086 C   0  0  0  0  0  0  0  0  0  0  0  0
   46.1037   13.3454  -10.6134 C   0  0  0  0  0  0  0  0  0  0  0  0
   46.6332   13.3788  -11.9054 C   0  0  0  0  0  0  0  0  0  0  0  0
   46.9355   14.7472  -12.3586 C   0  0  0  0  0  0  0  0  0  0  0  0
   46.7207   15.8246  -11.6137 N   0  0  0  0  0  0  0  0  0  0  0  0
   47.1492   16.9095  -12.3281 C   0  0  0  0  0  0  0  0  0  0  0  0
   47.6476   16.4575  -13.5674 C   0  0  0  0  0  0  0  0  0  0  0  0
   47.5011   15.1281  -13.5597 N   0  0  0  0  0  0  0  0  0  0  0  0
   47.7958   14.1604  -14.6058 C   0  0  0  0  0  0  0  0  0  0  0  0
   48.5874   12.9682  -14.0691 C   0  0  0  0  0  0  0  0  0  0  0  0
   47.3607   12.0996  -13.9678 C   0  0  0  0  0  0  0  0  0  0  0  0
   46.6112   13.1566  -14.7522 C   0  0  0  0  0  0  0  0  0  0  0  0
   46.8060   12.1710  -12.5472 C   0  0  0  0  0  0  0  0  0  0  0  0
   46.4960   10.9771  -12.0004 C   0  0  0  0  0  0  0  0  0  0  0  0
   45.9685   10.9898  -10.7042 C   0  0  0  0  0  0  0  0  0  0  0  0
   45.6379    9.8221  -10.1023 F   0  0  0  0  0  0  0  0  0  0  0  0
   47.0786   18.2659  -11.8274 C   0  0  0  0  0  0  0  0  0  0  0  0
   47.5233   18.5101  -10.4400 N   0  0  0  0  0  0  0  0  0  0  0  0
   46.6966   19.3052  -12.3732 O   0  0  0  0  0  0  0  0  0  0  0  0
   48.5556   18.5214  -10.3368 H   0  0  0  0  0  0  0  0  0  0  0  0
   46.8048   18.6424   -9.7252 H   0  0  0  0  0  0  0  0  0  0  0  0
   48.1690   17.3352  -14.6032 C   0  0  0  0  0  0  0  0  0  0  0  0
   47.1681   17.9700  -15.5127 C   0  0  0  0  0  0  0  0  0  0  0  0
   49.3674   16.8788  -15.4118 C   0  0  0  0  0  0  0  0  0  0  0  0
   48.7911   18.4177  -13.8532 O   0  0  0  0  0  0  0  0  0  0  0  0
   49.4878   17.9275  -13.3224 H   0  0  0  0  0  0  0  0  0  0  0  0
   44.7879   12.1927   -7.5382 C   0  0  0  0  0  0  0  0  0  0  0  0
   45.2252   12.1744   -8.6690 C   0  0  0  0  0  0  0  0  0  0  0  0
   41.7122   10.8289   -3.8841 C   0  0  0  0  0  0  0  0  0  0  0  0
   42.9082   11.0695   -4.6823 N   0  0  0  0  0  0  0  0  0  0  0  0
   44.2462   10.8517   -4.1670 C   0  0  0  0  0  0  0  0  0  0  0  0
   45.1720   11.3617   -5.2428 C   0  0  0  0  0  0  0  0  0  0  0  0
   44.2831   12.2071   -6.1648 C   0  0  0  0  0  0  0  0  0  0  0  0
   44.2680   13.5271   -5.7045 O   0  0  0  0  0  0  0  0  0  0  0  0
   42.9902   11.5314   -6.0252 C   0  0  0  0  0  0  0  0  0  0  0  0
   42.0743   11.3571   -6.8956 O   0  0  0  0  0  0  0  0  0  0  0  0
   43.2936   13.7904   -5.6769 H   0  0  0  0  0  0  0  0  0  0  0  0
 29 30  1  0  0  0
 30 31  1  0  0  0
 31 32  1  0  0  0
 32 33  1  0  0  0
 33 34  1  0  0  0
 33 27  1  0  0  0
 27 28  3  0  0  0
 28  1  1  0  0  0
  1  2  1  0  0  0
  2  3  2  0  0  0
  3  4  1  0  0  0
  4  5  2  0  0  0
  5  6  1  0  0  0
  6 17  1  0  0  0
 17 18  1  0  0  0
 17 19  2  0  0  0
  6  7  2  0  0  0
  7  8  1  0  0  0
  8  9  1  0  0  0
  9 10  1  0  0  0
 10 11  1  0  0  0
 11 12  1  0  0  0
 11 13  1  0  0  0
 13 14  2  0  0  0
 14 15  1  0  0  0
 15 16  1  0  0  0
  7 22  1  0  0  0
 22 23  1  0  0  0
 22 24  1  0  0  0
 22 25  1  0  0  0
 33 35  1  0  0  0
 35 36  2  0  0  0
 35 30  1  0  0  0
 15  1  2  0  0  0
 13  3  1  0  0  0
  8  4  1  0  0  0
 12  9  1  0  0  0
 34 37  1  0  0  0
 18 20  1  0  0  0
 18 21  1  0  0  0
 25 26  1  0  0  0
M  END
> <minimizedAffinity>
-4.44785

> <CNNscore>
0.2940323651

> <CNNaffinity>
5.3185048103

> <CNN_VS>
1.5638124943

> <CNNaffinity_variance>
0.4441160560

$$$$
[H]OC(c1c(C(=O)N([H])[H])nc2n1C1([H])C([H])([H])C([H])(c3c([H])c(F)c(C#C[C@@]4(O[H])C(=O)N(C([H])([H])[H])C([H])([H])C4([H])[H])c([H])c3-2)C1([H])[H])(C([H])([H])[H])C([H])([H])[H]


 37 41  0  0  0  0  0  0  0  0999 V2000
   41.4920   12.4490  -16.3003 C   0  0  0  0  0  0  0  0  0  0  0  0
   40.2523   12.5913  -15.7140 C   0  0  0  0  0  0  0  0  0  0  0  0
   39.1015   12.0846  -16.3219 C   0  0  0  0  0  0  0  0  0  0  0  0
   37.8821   12.3560  -15.5415 C   0  0  0  0  0  0  0  0  0  0  0  0
   37.8881   13.0086  -14.3857 N   0  0  0  0  0  0  0  0  0  0  0  0
   36.5903   13.1116  -13.9659 C   0  0  0  0  0  0  0  0  0  0  0  0
   35.7627   12.4872  -14.9218 C   0  0  0  0  0  0  0  0  0  0  0  0
   36.5820   12.0303  -15.8751 N   0  0  0  0  0  0  0  0  0  0  0  0
   36.2705   11.2577  -17.0683 C   0  0  0  0  0  0  0  0  0  0  0  0
   36.9451   11.8371  -18.3114 C   0  0  0  0  0  0  0  0  0  0  0  0
   38.0668   10.8326  -18.2664 C   0  0  0  0  0  0  0  0  0  0  0  0
   37.2786   10.0770  -17.2167 C   0  0  0  0  0  0  0  0  0  0  0  0
   39.2589   11.4378  -17.5291 C   0  0  0  0  0  0  0  0  0  0  0  0
   40.4481   11.2723  -18.1446 C   0  0  0  0  0  0  0  0  0  0  0  0
   41.5750   11.7957  -17.5007 C   0  0  0  0  0  0  0  0  0  0  0  0
   42.7969   11.6605  -18.0700 F   0  0  0  0  0  0  0  0  0  0  0  0
   36.2054   13.7728  -12.7370 C   0  0  0  0  0  0  0  0  0  0  0  0
   36.1928   15.2499  -12.7264 N   0  0  0  0  0  0  0  0  0  0  0  0
   35.8698   13.3062  -11.6444 O   0  0  0  0  0  0  0  0  0  0  0  0
   35.3684   15.6559  -13.2080 H   0  0  0  0  0  0  0  0  0  0  0  0
   36.9674   15.7301  -12.2636 H   0  0  0  0  0  0  0  0  0  0  0  0
   34.3175   12.3789  -14.7995 C   0  0  0  0  0  0  0  0  0  0  0  0
   33.6271   11.4738  -15.7670 C   0  0  0  0  0  0  0  0  0  0  0  0
   33.5028   13.6452  -14.6236 C   0  0  0  0  0  0  0  0  0  0  0  0
   34.1288   11.7939  -13.4791 O   0  0  0  0  0  0  0  0  0  0  0  0
   34.5543   12.4822  -12.8854 H   0  0  0  0  0  0  0  0  0  0  0  0
   43.6326   13.4301  -15.0658 C   0  0  0  0  0  0  0  0  0  0  0  0
   42.6512   12.9927  -15.6282 C   0  0  0  0  0  0  0  0  0  0  0  0
   48.5031   14.2900  -14.6073 C   0  0  0  0  0  0  0  0  0  0  0  0
   47.0592   14.4677  -14.7028 N   0  0  0  0  0  0  0  0  0  0  0  0
   46.4149   15.7477  -14.4800 C   0  0  0  0  0  0  0  0  0  0  0  0
   44.9355   15.4580  -14.5214 C   0  0  0  0  0  0  0  0  0  0  0  0
   44.8244   13.9338  -14.3824 C   0  0  0  0  0  0  0  0  0  0  0  0
   44.7408   13.6009  -13.0272 O   0  0  0  0  0  0  0  0  0  0  0  0
   46.0721   13.4908  -15.0107 C   0  0  0  0  0  0  0  0  0  0  0  0
   46.2963   12.4470  -15.7084 O   0  0  0  0  0  0  0  0  0  0  0  0
   45.4198   12.8664  -12.8891 H   0  0  0  0  0  0  0  0  0  0  0  0
 29 30  1  0  0  0
 30 31  1  0  0  0
 31 32  1  0  0  0
 32 33  1  0  0  0
 33 34  1  0  0  0
 33 27  1  0  0  0
 27 28  3  0  0  0
 28  1  1  0  0  0
  1  2  1  0  0  0
  2  3  2  0  0  0
  3  4  1  0  0  0
  4  5  2  0  0  0
  5  6  1  0  0  0
  6 17  1  0  0  0
 17 18  1  0  0  0
 17 19  2  0  0  0
  6  7  2  0  0  0
  7  8  1  0  0  0
  8  9  1  0  0  0
  9 10  1  0  0  0
 10 11  1  0  0  0
 11 12  1  0  0  0
 11 13  1  0  0  0
 13 14  2  0  0  0
 14 15  1  0  0  0
 15 16  1  0  0  0
  7 22  1  0  0  0
 22 23  1  0  0  0
 22 24  1  0  0  0
 22 25  1  0  0  0
 33 35  1  0  0  0
 35 36  2  0  0  0
 35 30  1  0  0  0
 15  1  2  0  0  0
 13  3  1  0  0  0
  8  4  1  0  0  0
 12  9  1  0  0  0
 34 37  1  0  0  0
 18 20  1  0  0  0
 18 21  1  0  0  0
 25 26  1  0  0  0
M  END
> <minimizedAffinity>
-9.28107

> <CNNscore>
0.2827396095

> <CNNaffinity>
6.8210973740

> <CNN_VS>
1.9285943508

> <CNNaffinity_variance>
0.1713300645

$$$$
[H]OC(c1c(C(=O)N([H])[H])nc2n1C1([H])C([H])([H])C([H])(c3c([H])c(F)c(C#C[C@@]4(O[H])C(=O)N(C([H])([H])[H])C([H])([H])C4([H])[H])c([H])c3-2)C1([H])[H])(C([H])([H])[H])C([H])([H])[H]


 37 41  0  0  0  0  0  0  0  0999 V2000
   40.3321   15.4672  -12.5898 C   0  0  0  0  0  0  0  0  0  0  0  0
   39.9722   14.6487  -13.6392 C   0  0  0  0  0  0  0  0  0  0  0  0
   38.6660   14.1714  -13.7700 C   0  0  0  0  0  0  0  0  0  0  0  0
   38.4956   13.3026  -14.9471 C   0  0  0  0  0  0  0  0  0  0  0  0
   39.4815   13.0142  -15.7877 N   0  0  0  0  0  0  0  0  0  0  0  0
   38.9802   12.1593  -16.7305 C   0  0  0  0  0  0  0  0  0  0  0  0
   37.6209   11.9230  -16.4387 C   0  0  0  0  0  0  0  0  0  0  0  0
   37.3503   12.6392  -15.3421 N   0  0  0  0  0  0  0  0  0  0  0  0
   36.0877   12.8106  -14.6391 C   0  0  0  0  0  0  0  0  0  0  0  0
   36.2474   12.6187  -13.1313 C   0  0  0  0  0  0  0  0  0  0  0  0
   36.2990   14.1013  -12.8693 C   0  0  0  0  0  0  0  0  0  0  0  0
   35.8647   14.3174  -14.3041 C   0  0  0  0  0  0  0  0  0  0  0  0
   37.7559   14.5538  -12.8078 C   0  0  0  0  0  0  0  0  0  0  0  0
   38.0567   15.3519  -11.7623 C   0  0  0  0  0  0  0  0  0  0  0  0
   39.3768   15.8070  -11.6697 C   0  0  0  0  0  0  0  0  0  0  0  0
   39.7391   16.6115  -10.6417 F   0  0  0  0  0  0  0  0  0  0  0  0
   39.7747   11.6212  -17.8143 C   0  0  0  0  0  0  0  0  0  0  0  0
   40.4903   12.5784  -18.6826 N   0  0  0  0  0  0  0  0  0  0  0  0
   39.9731   10.4535  -18.1624 O   0  0  0  0  0  0  0  0  0  0  0  0
   41.3456   12.9688  -18.2440 H   0  0  0  0  0  0  0  0  0  0  0  0
   40.0983   12.7688  -19.6072 H   0  0  0  0  0  0  0  0  0  0  0  0
   36.7513   11.0791  -17.2430 C   0  0  0  0  0  0  0  0  0  0  0  0
   36.5831   11.4614  -18.6774 C   0  0  0  0  0  0  0  0  0  0  0  0
   35.4114   10.6578  -16.6726 C   0  0  0  0  0  0  0  0  0  0  0  0
   37.4253    9.7880  -17.2356 O   0  0  0  0  0  0  0  0  0  0  0  0
   37.4414    9.5689  -16.2563 H   0  0  0  0  0  0  0  0  0  0  0  0
   42.8404   16.3365  -12.4439 C   0  0  0  0  0  0  0  0  0  0  0  0
   41.6983   15.9332  -12.5017 C   0  0  0  0  0  0  0  0  0  0  0  0
   47.6498   16.3204  -13.6856 C   0  0  0  0  0  0  0  0  0  0  0  0
   46.2639   16.7250  -13.4830 N   0  0  0  0  0  0  0  0  0  0  0  0
   45.8043   18.0796  -13.7218 C   0  0  0  0  0  0  0  0  0  0  0  0
   44.3727   18.1006  -13.2483 C   0  0  0  0  0  0  0  0  0  0  0  0
   44.2162   16.8329  -12.3978 C   0  0  0  0  0  0  0  0  0  0  0  0
   44.5448   17.1263  -11.0710 O   0  0  0  0  0  0  0  0  0  0  0  0
   45.1710   15.9276  -13.0432 C   0  0  0  0  0  0  0  0  0  0  0  0
   45.0974   14.6654  -13.2108 O   0  0  0  0  0  0  0  0  0  0  0  0
   45.1853   16.3995  -10.7864 H   0  0  0  0  0  0  0  0  0  0  0  0
 29 30  1  0  0  0
 30 31  1  0  0  0
 31 32  1  0  0  0
 32 33  1  0  0  0
 33 34  1  0  0  0
 33 27  1  0  0  0
 27 28  3  0  0  0
 28  1  1  0  0  0
  1  2  1  0  0  0
  2  3  2  0  0  0
  3  4  1  0  0  0
  4  5  2  0  0  0
  5  6  1  0  0  0
  6 17  1  0  0  0
 17 18  1  0  0  0
 17 19  2  0  0  0
  6  7  2  0  0  0
  7  8  1  0  0  0
  8  9  1  0  0  0
  9 10  1  0  0  0
 10 11  1  0  0  0
 11 12  1  0  0  0
 11 13  1  0  0  0
 13 14  2  0  0  0
 14 15  1  0  0  0
 15 16  1  0  0  0
  7 22  1  0  0  0
 22 23  1  0  0  0
 22 24  1  0  0  0
 22 25  1  0  0  0
 33 35  1  0  0  0
 35 36  2  0  0  0
 35 30  1  0  0  0
 15  1  2  0  0  0
 13  3  1  0  0  0
  8  4  1  0  0  0
 12  9  1  0  0  0
 34 37  1  0  0  0
 18 20  1  0  0  0
 18 21  1  0  0  0
 25 26  1  0  0  0
M  END
> <minimizedAffinity>
-8.25907

> <CNNscore>
0.2341390848

> <CNNaffinity>
6.5922746658

> <CNN_VS>
1.5435091257

> <CNNaffinity_variance>
0.1499108970

$$$$
[H]OC(c1c(C(=O)N([H])[H])nc2n1C1([H])C([H])([H])C([H])(c3c([H])c(F)c(C#C[C@@]4(O[H])C(=O)N(C([H])([H])[H])C([H])([H])C4([H])[H])c([H])c3-2)C1([H])[H])(C([H])([H])[H])C([H])([H])[H]


 37 41  0  0  0  0  0  0  0  0999 V2000
   41.3237   12.4174  -16.5195 C   0  0  0  0  0  0  0  0  0  0  0  0
   40.1046   12.5591  -15.8913 C   0  0  0  0  0  0  0  0  0  0  0  0
   38.9400   12.0179  -16.4405 C   0  0  0  0  0  0  0  0  0  0  0  0
   37.7464   12.2948  -15.6230 C   0  0  0  0  0  0  0  0  0  0  0  0
   37.7851   12.9815  -14.4878 N   0  0  0  0  0  0  0  0  0  0  0  0
   36.5024   13.0782  -14.0227 C   0  0  0  0  0  0  0  0  0  0  0  0
   35.6497   12.4137  -14.9282 C   0  0  0  0  0  0  0  0  0  0  0  0
   36.4401   11.9405  -15.8978 N   0  0  0  0  0  0  0  0  0  0  0  0
   36.0965   11.1282  -17.0553 C   0  0  0  0  0  0  0  0  0  0  0  0
   36.7153   11.6800  -18.3393 C   0  0  0  0  0  0  0  0  0  0  0  0
   37.8535   10.6936  -18.3072 C   0  0  0  0  0  0  0  0  0  0  0  0
   37.1167    9.9583  -17.2069 C   0  0  0  0  0  0  0  0  0  0  0  0
   39.0626   11.3378  -17.6333 C   0  0  0  0  0  0  0  0  0  0  0  0
   40.2305   11.1712  -18.2880 C   0  0  0  0  0  0  0  0  0  0  0  0
   41.3722   11.7298  -17.7025 C   0  0  0  0  0  0  0  0  0  0  0  0
   42.5741   11.5955  -18.3131 F   0  0  0  0  0  0  0  0  0  0  0  0
   36.1532   13.7701  -12.8001 C   0  0  0  0  0  0  0  0  0  0  0  0
   36.0450   15.2424  -12.8508 N   0  0  0  0  0  0  0  0  0  0  0  0
   35.9181   13.3344  -11.6692 O   0  0  0  0  0  0  0  0  0  0  0  0
   35.1672   15.5736  -13.2938 H   0  0  0  0  0  0  0  0  0  0  0  0
   36.8141   15.7909  -12.4604 H   0  0  0  0  0  0  0  0  0  0  0  0
   34.2119   12.2881  -14.7485 C   0  0  0  0  0  0  0  0  0  0  0  0
   33.5012   11.3396  -15.6580 C   0  0  0  0  0  0  0  0  0  0  0  0
   33.3838   13.5475  -14.5858 C   0  0  0  0  0  0  0  0  0  0  0  0
   34.0813   11.7466  -13.4027 O   0  0  0  0  0  0  0  0  0  0  0  0
   34.5171   12.4615  -12.8491 H   0  0  0  0  0  0  0  0  0  0  0  0
   43.4917   13.4652  -15.3924 C   0  0  0  0  0  0  0  0  0  0  0  0
   42.4985   12.9976  -15.9076 C   0  0  0  0  0  0  0  0  0  0  0  0
   46.2608   14.9050  -11.5283 C   0  0  0  0  0  0  0  0  0  0  0  0
   45.7862   14.2208  -12.7250 N   0  0  0  0  0  0  0  0  0  0  0  0
   46.6177   13.3031  -13.4798 C   0  0  0  0  0  0  0  0  0  0  0  0
   45.8078   12.9499  -14.7020 C   0  0  0  0  0  0  0  0  0  0  0  0
   44.6962   14.0061  -14.7617 C   0  0  0  0  0  0  0  0  0  0  0  0
   45.1423   15.1009  -15.5079 O   0  0  0  0  0  0  0  0  0  0  0  0
   44.5074   14.3130  -13.3411 C   0  0  0  0  0  0  0  0  0  0  0  0
   43.4359   14.6116  -12.7171 O   0  0  0  0  0  0  0  0  0  0  0  0
   44.9272   15.9129  -14.9475 H   0  0  0  0  0  0  0  0  0  0  0  0
 29 30  1  0  0  0
 30 31  1  0  0  0
 31 32  1  0  0  0
 32 33  1  0  0  0
 33 34  1  0  0  0
 33 27  1  0  0  0
 27 28  3  0  0  0
 28  1  1  0  0  0
  1  2  1  0  0  0
  2  3  2  0  0  0
  3  4  1  0  0  0
  4  5  2  0  0  0
  5  6  1  0  0  0
  6 17  1  0  0  0
 17 18  1  0  0  0
 17 19  2  0  0  0
  6  7  2  0  0  0
  7  8  1  0  0  0
  8  9  1  0  0  0
  9 10  1  0  0  0
 10 11  1  0  0  0
 11 12  1  0  0  0
 11 13  1  0  0  0
 13 14  2  0  0  0
 14 15  1  0  0  0
 15 16  1  0  0  0
  7 22  1  0  0  0
 22 23  1  0  0  0
 22 24  1  0  0  0
 22 25  1  0  0  0
 33 35  1  0  0  0
 35 36  2  0  0  0
 35 30  1  0  0  0
 15  1  2  0  0  0
 13  3  1  0  0  0
  8  4  1  0  0  0
 12  9  1  0  0  0
 34 37  1  0  0  0
 18 20  1  0  0  0
 18 21  1  0  0  0
 25 26  1  0  0  0
M  END
> <minimizedAffinity>
-9.84720

> <CNNscore>
0.2256796509

> <CNNaffinity>
6.7331709862

> <CNN_VS>
1.5195397139

> <CNNaffinity_variance>
0.1879233718

$$$$
[H]OC(c1c(C(=O)N([H])[H])nc2n1C1([H])C([H])([H])C([H])(c3c([H])c(F)c(C#C[C@@]4(O[H])C(=O)N(C([H])([H])[H])C([H])([H])C4([H])[H])c([H])c3-2)C1([H])[H])(C([H])([H])[H])C([H])([H])[H]


 37 41  0  0  0  0  0  0  0  0999 V2000
   35.3136   13.7592  -12.9975 C   0  0  0  0  0  0  0  0  0  0  0  0
   36.4776   13.5896  -13.7167 C   0  0  0  0  0  0  0  0  0  0  0  0
   36.5018   12.8242  -14.8847 C   0  0  0  0  0  0  0  0  0  0  0  0
   37.8429   12.7567  -15.4901 C   0  0  0  0  0  0  0  0  0  0  0  0
   38.9051   13.3639  -14.9754 N   0  0  0  0  0  0  0  0  0  0  0  0
   39.9772   13.0567  -15.7673 C   0  0  0  0  0  0  0  0  0  0  0  0
   39.5333   12.2203  -16.8123 C   0  0  0  0  0  0  0  0  0  0  0  0
   38.2201   12.0558  -16.6188 N   0  0  0  0  0  0  0  0  0  0  0  0
   37.2503   11.3349  -17.4296 C   0  0  0  0  0  0  0  0  0  0  0  0
   36.3684   10.4205  -16.5798 C   0  0  0  0  0  0  0  0  0  0  0  0
   35.2311   11.4082  -16.5578 C   0  0  0  0  0  0  0  0  0  0  0  0
   35.9664   12.1998  -17.6192 C   0  0  0  0  0  0  0  0  0  0  0  0
   35.3152   12.2485  -15.2858 C   0  0  0  0  0  0  0  0  0  0  0  0
   34.1502   12.3831  -14.6187 C   0  0  0  0  0  0  0  0  0  0  0  0
   34.1712   13.1580  -13.4535 C   0  0  0  0  0  0  0  0  0  0  0  0
   33.0320   13.3296  -12.7407 F   0  0  0  0  0  0  0  0  0  0  0  0
   41.3171   13.5400  -15.5090 C   0  0  0  0  0  0  0  0  0  0  0  0
   41.8505   13.3875  -14.1400 N   0  0  0  0  0  0  0  0  0  0  0  0
   42.1343   14.0821  -16.2589 O   0  0  0  0  0  0  0  0  0  0  0  0
   42.1538   12.4191  -13.9242 H   0  0  0  0  0  0  0  0  0  0  0  0
   41.8753   14.2166  -13.5427 H   0  0  0  0  0  0  0  0  0  0  0  0
   40.3946   11.7101  -17.8673 C   0  0  0  0  0  0  0  0  0  0  0  0
   39.8144   10.6631  -18.7611 C   0  0  0  0  0  0  0  0  0  0  0  0
   41.8271   11.3474  -17.5288 C   0  0  0  0  0  0  0  0  0  0  0  0
   40.6399   12.8775  -18.7031 O   0  0  0  0  0  0  0  0  0  0  0  0
   41.0854   13.5038  -18.0576 H   0  0  0  0  0  0  0  0  0  0  0  0
   35.3861   15.2236  -10.7796 C   0  0  0  0  0  0  0  0  0  0  0  0
   35.3441   14.5616  -11.7947 C   0  0  0  0  0  0  0  0  0  0  0  0
   36.7595   16.0614   -6.0803 C   0  0  0  0  0  0  0  0  0  0  0  0
   36.5733   16.1841   -7.5210 N   0  0  0  0  0  0  0  0  0  0  0  0
   36.9854   17.3602   -8.2630 C   0  0  0  0  0  0  0  0  0  0  0  0
   36.4760   17.1413   -9.6654 C   0  0  0  0  0  0  0  0  0  0  0  0
   35.4520   16.0048   -9.5441 C   0  0  0  0  0  0  0  0  0  0  0  0
   34.1900   16.5489   -9.2875 O   0  0  0  0  0  0  0  0  0  0  0  0
   35.9931   15.2424   -8.4155 C   0  0  0  0  0  0  0  0  0  0  0  0
   35.9800   13.9831   -8.2139 O   0  0  0  0  0  0  0  0  0  0  0  0
   33.8261   16.0248   -8.5049 H   0  0  0  0  0  0  0  0  0  0  0  0
 29 30  1  0  0  0
 30 31  1  0  0  0
 31 32  1  0  0  0
 32 33  1  0  0  0
 33 34  1  0  0  0
 33 27  1  0  0  0
 27 28  3  0  0  0
 28  1  1  0  0  0
  1  2  1  0  0  0
  2  3  2  0  0  0
  3  4  1  0  0  0
  4  5  2  0  0  0
  5  6  1  0  0  0
  6 17  1  0  0  0
 17 18  1  0  0  0
 17 19  2  0  0  0
  6  7  2  0  0  0
  7  8  1  0  0  0
  8  9  1  0  0  0
  9 10  1  0  0  0
 10 11  1  0  0  0
 11 12  1  0  0  0
 11 13  1  0  0  0
 13 14  2  0  0  0
 14 15  1  0  0  0
 15 16  1  0  0  0
  7 22  1  0  0  0
 22 23  1  0  0  0
 22 24  1  0  0  0
 22 25  1  0  0  0
 33 35  1  0  0  0
 35 36  2  0  0  0
 35 30  1  0  0  0
 15  1  2  0  0  0
 13  3  1  0  0  0
  8  4  1  0  0  0
 12  9  1  0  0  0
 34 37  1  0  0  0
 18 20  1  0  0  0
 18 21  1  0  0  0
 25 26  1  0  0  0
M  END
> <minimizedAffinity>
-7.98982

> <CNNscore>
0.2226111591

> <CNNaffinity>
6.8330855370

> <CNN_VS>
1.5211211443

> <CNNaffinity_variance>
0.0848338008

$$$$
[H]OC(c1c(C(=O)N([H])[H])nc2n1C1([H])C([H])([H])C([H])(c3c([H])c(F)c(C#C[C@@]4(O[H])C(=O)N(C([H])([H])[H])C([H])([H])C4([H])[H])c([H])c3-2)C1([H])[H])(C([H])([H])[H])C([H])([H])[H]


 37 41  0  0  0  0  0  0  0  0999 V2000
   40.0567   15.5736   -9.3292 C   0  0  0  0  0  0  0  0  0  0  0  0
   39.0441   15.2681   -8.4448 C   0  0  0  0  0  0  0  0  0  0  0  0
   37.7052   15.4968   -8.7702 C   0  0  0  0  0  0  0  0  0  0  0  0
   36.7855   15.1172   -7.6842 C   0  0  0  0  0  0  0  0  0  0  0  0
   37.1948   14.6104   -6.5277 N   0  0  0  0  0  0  0  0  0  0  0  0
   36.0865   14.4148   -5.7502 C   0  0  0  0  0  0  0  0  0  0  0  0
   34.9525   14.8268   -6.4803 C   0  0  0  0  0  0  0  0  0  0  0  0
   35.4108   15.2498   -7.6634 N   0  0  0  0  0  0  0  0  0  0  0  0
   34.6724   15.7288   -8.8223 C   0  0  0  0  0  0  0  0  0  0  0  0
   35.2628   17.0258   -9.3748 C   0  0  0  0  0  0  0  0  0  0  0  0
   36.0111   16.3104  -10.4693 C   0  0  0  0  0  0  0  0  0  0  0  0
   35.2262   15.0631  -10.1194 C   0  0  0  0  0  0  0  0  0  0  0  0
   37.4416   16.0386  -10.0101 C   0  0  0  0  0  0  0  0  0  0  0  0
   38.3947   16.3554  -10.9110 C   0  0  0  0  0  0  0  0  0  0  0  0
   39.7226   16.1102  -10.5438 C   0  0  0  0  0  0  0  0  0  0  0  0
   40.7237   16.4076  -11.4066 F   0  0  0  0  0  0  0  0  0  0  0  0
   36.1457   13.8773   -4.4075 C   0  0  0  0  0  0  0  0  0  0  0  0
   36.7732   14.7100   -3.3611 N   0  0  0  0  0  0  0  0  0  0  0  0
   35.7491   12.7992   -3.9552 O   0  0  0  0  0  0  0  0  0  0  0  0
   36.1625   15.4807   -3.0300 H   0  0  0  0  0  0  0  0  0  0  0  0
   37.7199   14.4669   -3.0621 H   0  0  0  0  0  0  0  0  0  0  0  0
   33.5892   14.7429   -5.9809 C   0  0  0  0  0  0  0  0  0  0  0  0
   32.4957   15.0030   -6.9651 C   0  0  0  0  0  0  0  0  0  0  0  0
   33.2519   15.4124   -4.6632 C   0  0  0  0  0  0  0  0  0  0  0  0
   33.4582   13.3500   -5.5761 O   0  0  0  0  0  0  0  0  0  0  0  0
   34.1723   13.2705   -4.8752 H   0  0  0  0  0  0  0  0  0  0  0  0
   42.5688   15.0829   -8.6100 C   0  0  0  0  0  0  0  0  0  0  0  0
   41.4261   15.3169   -8.9418 C   0  0  0  0  0  0  0  0  0  0  0  0
   46.1897   12.1279   -6.9281 C   0  0  0  0  0  0  0  0  0  0  0  0
   45.4013   13.0351   -7.7532 N   0  0  0  0  0  0  0  0  0  0  0  0
   45.9223   13.6392   -8.9644 C   0  0  0  0  0  0  0  0  0  0  0  0
   44.8576   14.6088   -9.4121 C   0  0  0  0  0  0  0  0  0  0  0  0
   43.9392   14.7814   -8.1949 C   0  0  0  0  0  0  0  0  0  0  0  0
   44.4132   15.8347   -7.4074 O   0  0  0  0  0  0  0  0  0  0  0  0
   44.0638   13.4731   -7.5463 C   0  0  0  0  0  0  0  0  0  0  0  0
   43.1861   12.8043   -6.9067 O   0  0  0  0  0  0  0  0  0  0  0  0
   44.4377   15.4746   -6.4644 H   0  0  0  0  0  0  0  0  0  0  0  0
 29 30  1  0  0  0
 30 31  1  0  0  0
 31 32  1  0  0  0
 32 33  1  0  0  0
 33 34  1  0  0  0
 33 27  1  0  0  0
 27 28  3  0  0  0
 28  1  1  0  0  0
  1  2  1  0  0  0
  2  3  2  0  0  0
  3  4  1  0  0  0
  4  5  2  0  0  0
  5  6  1  0  0  0
  6 17  1  0  0  0
 17 18  1  0  0  0
 17 19  2  0  0  0
  6  7  2  0  0  0
  7  8  1  0  0  0
  8  9  1  0  0  0
  9 10  1  0  0  0
 10 11  1  0  0  0
 11 12  1  0  0  0
 11 13  1  0  0  0
 13 14  2  0  0  0
 14 15  1  0  0  0
 15 16  1  0  0  0
  7 22  1  0  0  0
 22 23  1  0  0  0
 22 24  1  0  0  0
 22 25  1  0  0  0
 33 35  1  0  0  0
 35 36  2  0  0  0
 35 30  1  0  0  0
 15  1  2  0  0  0
 13  3  1  0  0  0
  8  4  1  0  0  0
 12  9  1  0  0  0
 34 37  1  0  0  0
 18 20  1  0  0  0
 18 21  1  0  0  0
 25 26  1  0  0  0
M  END
> <minimizedAffinity>
-5.63993

> <CNNscore>
0.2087021023

> <CNNaffinity>
5.5656785965

> <CNN_VS>
1.1615688801

> <CNNaffinity_variance>
0.0740794763

$$$$
[H]OC(c1c(C(=O)N([H])[H])nc2n1C1([H])C([H])([H])C([H])(c3c([H])c(F)c(C#C[C@@]4(O[H])C(=O)N(C([H])([H])[H])C([H])([H])C4([H])[H])c([H])c3-2)C1([H])[H])(C([H])([H])[H])C([H])([H])[H]


 37 41  0  0  0  0  0  0  0  0999 V2000
   42.3039   13.5822  -14.8047 C   0  0  0  0  0  0  0  0  0  0  0  0
   40.9774   13.5903  -14.4290 C   0  0  0  0  0  0  0  0  0  0  0  0
   40.0092   12.9160  -15.1764 C   0  0  0  0  0  0  0  0  0  0  0  0
   38.6557   13.0628  -14.6143 C   0  0  0  0  0  0  0  0  0  0  0  0
   38.3961   13.7591  -13.5145 N   0  0  0  0  0  0  0  0  0  0  0  0
   37.0444   13.7138  -13.3096 C   0  0  0  0  0  0  0  0  0  0  0  0
   36.4634   12.9493  -14.3423 C   0  0  0  0  0  0  0  0  0  0  0  0
   37.4752   12.5605  -15.1258 N   0  0  0  0  0  0  0  0  0  0  0  0
   37.4559   11.7048  -16.3027 C   0  0  0  0  0  0  0  0  0  0  0  0
   38.2499   12.3122  -17.4588 C   0  0  0  0  0  0  0  0  0  0  0  0
   39.4607   11.4614  -17.1770 C   0  0  0  0  0  0  0  0  0  0  0  0
   38.6078   10.6567  -16.2183 C   0  0  0  0  0  0  0  0  0  0  0  0
   40.4366   12.2441  -16.3017 C   0  0  0  0  0  0  0  0  0  0  0  0
   41.7212   12.2053  -16.7126 C   0  0  0  0  0  0  0  0  0  0  0  0
   42.6581   12.8947  -15.9345 C   0  0  0  0  0  0  0  0  0  0  0  0
   43.9635   12.8922  -16.2965 F   0  0  0  0  0  0  0  0  0  0  0  0
   36.3890   14.3719  -12.1993 C   0  0  0  0  0  0  0  0  0  0  0  0
   36.1512   15.8260  -12.3060 N   0  0  0  0  0  0  0  0  0  0  0  0
   35.9727   13.9193  -11.1289 O   0  0  0  0  0  0  0  0  0  0  0  0
   35.3537   16.0663  -12.9245 H   0  0  0  0  0  0  0  0  0  0  0  0
   36.7683   16.4499  -11.7818 H   0  0  0  0  0  0  0  0  0  0  0  0
   35.0408   12.6632  -14.4406 C   0  0  0  0  0  0  0  0  0  0  0  0
   34.6199   11.7059  -15.5075 C   0  0  0  0  0  0  0  0  0  0  0  0
   34.0584   13.8163  -14.3811 C   0  0  0  0  0  0  0  0  0  0  0  0
   34.7313   12.0261  -13.1680 O   0  0  0  0  0  0  0  0  0  0  0  0
   34.9749   12.7456  -12.5120 H   0  0  0  0  0  0  0  0  0  0  0  0
   44.0765   14.9084  -13.3323 C   0  0  0  0  0  0  0  0  0  0  0  0
   43.2656   14.2970  -13.9949 C   0  0  0  0  0  0  0  0  0  0  0  0
   47.1570   18.7099  -12.4770 C   0  0  0  0  0  0  0  0  0  0  0  0
   46.0847   17.7297  -12.3537 N   0  0  0  0  0  0  0  0  0  0  0  0
   45.2614   17.6203  -11.1649 C   0  0  0  0  0  0  0  0  0  0  0  0
   44.3996   16.4036  -11.3915 C   0  0  0  0  0  0  0  0  0  0  0  0
   45.0653   15.6554  -12.5542 C   0  0  0  0  0  0  0  0  0  0  0  0
   46.0078   14.7580  -12.0435 O   0  0  0  0  0  0  0  0  0  0  0  0
   45.6672   16.7597  -13.3067 C   0  0  0  0  0  0  0  0  0  0  0  0
   45.8177   16.8881  -14.5667 O   0  0  0  0  0  0  0  0  0  0  0  0
   46.8484   14.9178  -12.5795 H   0  0  0  0  0  0  0  0  0  0  0  0
 29 30  1  0  0  0
 30 31  1  0  0  0
 31 32  1  0  0  0
 32 33  1  0  0  0
 33 34  1  0  0  0
 33 27  1  0  0  0
 27 28  3  0  0  0
 28  1  1  0  0  0
  1  2  1  0  0  0
  2  3  2  0  0  0
  3  4  1  0  0  0
  4  5  2  0  0  0
  5  6  1  0  0  0
  6 17  1  0  0  0
 17 18  1  0  0  0
 17 19  2  0  0  0
  6  7  2  0  0  0
  7  8  1  0  0  0
  8  9  1  0  0  0
  9 10  1  0  0  0
 10 11  1  0  0  0
 11 12  1  0  0  0
 11 13  1  0  0  0
 13 14  2  0  0  0
 14 15  1  0  0  0
 15 16  1  0  0  0
  7 22  1  0  0  0
 22 23  1  0  0  0
 22 24  1  0  0  0
 22 25  1  0  0  0
 33 35  1  0  0  0
 35 36  2  0  0  0
 35 30  1  0  0  0
 15  1  2  0  0  0
 13  3  1  0  0  0
  8  4  1  0  0  0
 12  9  1  0  0  0
 34 37  1  0  0  0
 18 20  1  0  0  0
 18 21  1  0  0  0
 25 26  1  0  0  0
M  END
> <minimizedAffinity>
-8.74643

> <CNNscore>
0.2086661756

> <CNNaffinity>
6.5360956192

> <CNN_VS>
1.3638620377

> <CNNaffinity_variance>
0.1576528549

$$$$
[H]OC(c1c(C(=O)N([H])[H])nc2n1C1([H])C([H])([H])C([H])(c3c([H])c(F)c(C#C[C@@]4(O[H])C(=O)N(C([H])([H])[H])C([H])([H])C4([H])[H])c([H])c3-2)C1([H])[H])(C([H])([H])[H])C([H])([H])[H]


 37 41  0  0  0  0  0  0  0  0999 V2000
   40.8784   15.9216  -10.9326 C   0  0  0  0  0  0  0  0  0  0  0  0
   39.8369   16.0454  -10.0377 C   0  0  0  0  0  0  0  0  0  0  0  0
   38.5116   15.8646  -10.4398 C   0  0  0  0  0  0  0  0  0  0  0  0
   37.5539   16.0563   -9.3373 C   0  0  0  0  0  0  0  0  0  0  0  0
   37.9213   16.3635   -8.0994 N   0  0  0  0  0  0  0  0  0  0  0  0
   36.7817   16.5021   -7.3556 C   0  0  0  0  0  0  0  0  0  0  0  0
   35.6722   16.2654   -8.1932 C   0  0  0  0  0  0  0  0  0  0  0  0
   36.1758   15.9914   -9.4016 N   0  0  0  0  0  0  0  0  0  0  0  0
   35.4853   15.6162  -10.6264 C   0  0  0  0  0  0  0  0  0  0  0  0
   35.9754   16.4278  -11.8253 C   0  0  0  0  0  0  0  0  0  0  0  0
   36.8814   15.3228  -12.3021 C   0  0  0  0  0  0  0  0  0  0  0  0
   36.2096   14.4092  -11.2980 C   0  0  0  0  0  0  0  0  0  0  0  0
   38.2915   15.5575  -11.7656 C   0  0  0  0  0  0  0  0  0  0  0  0
   39.2741   15.4254  -12.6806 C   0  0  0  0  0  0  0  0  0  0  0  0
   40.5870   15.6152  -12.2348 C   0  0  0  0  0  0  0  0  0  0  0  0
   41.6163   15.4957  -13.1075 F   0  0  0  0  0  0  0  0  0  0  0  0
   36.7905   16.8443   -5.9491 C   0  0  0  0  0  0  0  0  0  0  0  0
   37.1862   18.2184   -5.5787 N   0  0  0  0  0  0  0  0  0  0  0  0
   36.5150   16.1658   -4.9552 O   0  0  0  0  0  0  0  0  0  0  0  0
   36.4403   18.9193   -5.7487 H   0  0  0  0  0  0  0  0  0  0  0  0
   38.1254   18.3588   -5.2006 H   0  0  0  0  0  0  0  0  0  0  0  0
   34.2902   16.3009   -7.7418 C   0  0  0  0  0  0  0  0  0  0  0  0
   33.2438   15.9637   -8.7533 C   0  0  0  0  0  0  0  0  0  0  0  0
   33.8247   17.4780   -6.9075 C   0  0  0  0  0  0  0  0  0  0  0  0
   34.2350   15.2580   -6.7265 O   0  0  0  0  0  0  0  0  0  0  0  0
   34.9082   15.5849   -6.0577 H   0  0  0  0  0  0  0  0  0  0  0  0
   43.3641   16.2702  -10.0560 C   0  0  0  0  0  0  0  0  0  0  0  0
   42.2320   16.1192  -10.4636 C   0  0  0  0  0  0  0  0  0  0  0  0
   47.9258   18.2354  -10.0268 C   0  0  0  0  0  0  0  0  0  0  0  0
   46.5820   17.8259   -9.6370 N   0  0  0  0  0  0  0  0  0  0  0  0
   46.0728   18.0029   -8.2906 C   0  0  0  0  0  0  0  0  0  0  0  0
   44.7306   17.3154   -8.2820 C   0  0  0  0  0  0  0  0  0  0  0  0
   44.7237   16.4402   -9.5425 C   0  0  0  0  0  0  0  0  0  0  0  0
   45.2480   15.1822   -9.2311 O   0  0  0  0  0  0  0  0  0  0  0  0
   45.5805   17.2168  -10.4429 C   0  0  0  0  0  0  0  0  0  0  0  0
   45.4992   17.3602  -11.7076 O   0  0  0  0  0  0  0  0  0  0  0  0
   45.9344   14.9930   -9.9471 H   0  0  0  0  0  0  0  0  0  0  0  0
 29 30  1  0  0  0
 30 31  1  0  0  0
 31 32  1  0  0  0
 32 33  1  0  0  0
 33 34  1  0  0  0
 33 27  1  0  0  0
 27 28  3  0  0  0
 28  1  1  0  0  0
  1  2  1  0  0  0
  2  3  2  0  0  0
  3  4  1  0  0  0
  4  5  2  0  0  0
  5  6  1  0  0  0
  6 17  1  0  0  0
 17 18  1  0  0  0
 17 19  2  0  0  0
  6  7  2  0  0  0
  7  8  1  0  0  0
  8  9  1  0  0  0
  9 10  1  0  0  0
 10 11  1  0  0  0
 11 12  1  0  0  0
 11 13  1  0  0  0
 13 14  2  0  0  0
 14 15  1  0  0  0
 15 16  1  0  0  0
  7 22  1  0  0  0
 22 23  1  0  0  0
 22 24  1  0  0  0
 22 25  1  0  0  0
 33 35  1  0  0  0
 35 36  2  0  0  0
 35 30  1  0  0  0
 15  1  2  0  0  0
 13  3  1  0  0  0
  8  4  1  0  0  0
 12  9  1  0  0  0
 34 37  1  0  0  0
 18 20  1  0  0  0
 18 21  1  0  0  0
 25 26  1  0  0  0
M  END
> <minimizedAffinity>
-6.15904

> <CNNscore>
0.2017105967

> <CNNaffinity>
5.6103835106

> <CNN_VS>
1.1316738129

> <CNNaffinity_variance>
0.4425044656

$$$$
[H]OC(c1c(C(=O)N([H])[H])nc2n1C1([H])C([H])([H])C([H])(c3c([H])c(F)c(C#C[C@@]4(O[H])C(=O)N(C([H])([H])[H])C([H])([H])C4([H])[H])c([H])c3-2)C1([H])[H])(C([H])([H])[H])C([H])([H])[H]


 37 41  0  0  0  0  0  0  0  0999 V2000
   40.0364   13.0928  -14.9980 C   0  0  0  0  0  0  0  0  0  0  0  0
   39.4647   13.7172  -13.9098 C   0  0  0  0  0  0  0  0  0  0  0  0
   38.1058   13.5700  -13.6221 C   0  0  0  0  0  0  0  0  0  0  0  0
   37.6937   14.3298  -12.4296 C   0  0  0  0  0  0  0  0  0  0  0  0
   38.5313   15.0678  -11.7115 N   0  0  0  0  0  0  0  0  0  0  0  0
   37.8062   15.6565  -10.7121 C   0  0  0  0  0  0  0  0  0  0  0  0
   36.4620   15.2492  -10.8386 C   0  0  0  0  0  0  0  0  0  0  0  0
   36.4231   14.4339  -11.8981 N   0  0  0  0  0  0  0  0  0  0  0  0
   35.3025   13.6844  -12.4461 C   0  0  0  0  0  0  0  0  0  0  0  0
   35.1948   13.8521  -13.9614 C   0  0  0  0  0  0  0  0  0  0  0  0
   35.8752   12.5359  -14.2338 C   0  0  0  0  0  0  0  0  0  0  0  0
   35.7420   12.2209  -12.7582 C   0  0  0  0  0  0  0  0  0  0  0  0
   37.3644   12.7756  -14.4704 C   0  0  0  0  0  0  0  0  0  0  0  0
   37.8749   12.1435  -15.5476 C   0  0  0  0  0  0  0  0  0  0  0  0
   39.2404   12.3186  -15.7989 C   0  0  0  0  0  0  0  0  0  0  0  0
   39.8103   11.7090  -16.8661 F   0  0  0  0  0  0  0  0  0  0  0  0
   38.3885   16.5448   -9.7286 C   0  0  0  0  0  0  0  0  0  0  0  0
   38.6514   17.9408  -10.1339 N   0  0  0  0  0  0  0  0  0  0  0  0
   38.7215   16.3397   -8.5577 O   0  0  0  0  0  0  0  0  0  0  0  0
   37.7958   18.5269  -10.1627 H   0  0  0  0  0  0  0  0  0  0  0  0
   39.6168   18.2026  -10.3441 H   0  0  0  0  0  0  0  0  0  0  0  0
   35.3999   15.6575   -9.9329 C   0  0  0  0  0  0  0  0  0  0  0  0
   35.3433   14.9674   -8.6091 C   0  0  0  0  0  0  0  0  0  0  0  0
   33.9949   15.8162  -10.4797 C   0  0  0  0  0  0  0  0  0  0  0  0
   35.7033   17.0552   -9.6578 O   0  0  0  0  0  0  0  0  0  0  0  0
   35.6581   17.4608  -10.5747 H   0  0  0  0  0  0  0  0  0  0  0  0
   42.6362   13.4201  -15.4481 C   0  0  0  0  0  0  0  0  0  0  0  0
   41.4482   13.2789  -15.2503 C   0  0  0  0  0  0  0  0  0  0  0  0
   47.2583   14.6478  -14.1060 C   0  0  0  0  0  0  0  0  0  0  0  0
   46.0911   13.9046  -14.5652 N   0  0  0  0  0  0  0  0  0  0  0  0
   46.1815   12.5526  -15.0822 C   0  0  0  0  0  0  0  0  0  0  0  0
   44.7957   12.2259  -15.5790 C   0  0  0  0  0  0  0  0  0  0  0  0
   44.0747   13.5778  -15.6650 C   0  0  0  0  0  0  0  0  0  0  0  0
   44.2811   14.1287  -16.9332 O   0  0  0  0  0  0  0  0  0  0  0  0
   44.7340   14.3298  -14.5938 C   0  0  0  0  0  0  0  0  0  0  0  0
   44.2453   15.2061  -13.8062 O   0  0  0  0  0  0  0  0  0  0  0  0
   44.5726   15.0812  -16.7677 H   0  0  0  0  0  0  0  0  0  0  0  0
 29 30  1  0  0  0
 30 31  1  0  0  0
 31 32  1  0  0  0
 32 33  1  0  0  0
 33 34  1  0  0  0
 33 27  1  0  0  0
 27 28  3  0  0  0
 28  1  1  0  0  0
  1  2  1  0  0  0
  2  3  2  0  0  0
  3  4  1  0  0  0
  4  5  2  0  0  0
  5  6  1  0  0  0
  6 17  1  0  0  0
 17 18  1  0  0  0
 17 19  2  0  0  0
  6  7  2  0  0  0
  7  8  1  0  0  0
  8  9  1  0  0  0
  9 10  1  0  0  0
 10 11  1  0  0  0
 11 12  1  0  0  0
 11 13  1  0  0  0
 13 14  2  0  0  0
 14 15  1  0  0  0
 15 16  1  0  0  0
  7 22  1  0  0  0
 22 23  1  0  0  0
 22 24  1  0  0  0
 22 25  1  0  0  0
 33 35  1  0  0  0
 35 36  2  0  0  0
 35 30  1  0  0  0
 15  1  2  0  0  0
 13  3  1  0  0  0
  8  4  1  0  0  0
 12  9  1  0  0  0
 34 37  1  0  0  0
 18 20  1  0  0  0
 18 21  1  0  0  0
 25 26  1  0  0  0
M  END
> <minimizedAffinity>
-9.73772

> <CNNscore>
0.1923228949

> <CNNaffinity>
6.1259002686

> <CNN_VS>
1.1781508923

> <CNNaffinity_variance>
0.1930092424

$$$$
[H]O[C@]1(C#Cc2c([H])c([H])nc(-n3nc(C(=O)N([H])[H])c([H])c3[H])c2[H])C(=O)N(C([H])([H])[H])C([H])([H])C1([H])[H]


 27 29  0  0  0  0  0  0  0  0999 V2000
   35.5544   13.6889  -13.5895 C   0  0  0  0  0  0  0  0  0  0  0  0
   34.2682   13.1918  -13.5973 C   0  0  0  0  0  0  0  0  0  0  0  0
   33.9433   12.2515  -14.5426 C   0  0  0  0  0  0  0  0  0  0  0  0
   34.8224   11.7984  -15.4553 N   0  0  0  0  0  0  0  0  0  0  0  0
   36.0914   12.2663  -15.4737 C   0  0  0  0  0  0  0  0  0  0  0  0
   36.4362   13.2059  -14.5380 C   0  0  0  0  0  0  0  0  0  0  0  0
   36.9932   11.7615  -16.4562 N   0  0  0  0  0  0  0  0  0  0  0  0
   36.6637   10.8081  -17.3504 C   0  0  0  0  0  0  0  0  0  0  0  0
   37.7365   10.5457  -18.1468 C   0  0  0  0  0  0  0  0  0  0  0  0
   38.7568   11.3749  -17.7160 C   0  0  0  0  0  0  0  0  0  0  0  0
   38.2453   12.0949  -16.6810 N   0  0  0  0  0  0  0  0  0  0  0  0
   40.0944   11.4646  -18.2497 C   0  0  0  0  0  0  0  0  0  0  0  0
   41.1042   12.1074  -17.5028 N   0  0  0  0  0  0  0  0  0  0  0  0
   40.3197   10.9522  -19.3945 O   0  0  0  0  0  0  0  0  0  0  0  0
   41.8452   11.5375  -17.0466 H   0  0  0  0  0  0  0  0  0  0  0  0
   41.1128   13.1266  -17.4070 H   0  0  0  0  0  0  0  0  0  0  0  0
   36.2700   15.4957  -11.7888 C   0  0  0  0  0  0  0  0  0  0  0  0
   35.9346   14.6785  -12.6116 C   0  0  0  0  0  0  0  0  0  0  0  0
   36.2696   16.6531   -7.0693 C   0  0  0  0  0  0  0  0  0  0  0  0
   36.7402   16.4620   -8.4315 N   0  0  0  0  0  0  0  0  0  0  0  0
   38.1129   16.3078   -8.8096 C   0  0  0  0  0  0  0  0  0  0  0  0
   38.0958   16.2187  -10.3063 C   0  0  0  0  0  0  0  0  0  0  0  0
   36.7018   16.4835  -10.7749 C   0  0  0  0  0  0  0  0  0  0  0  0
   36.5454   17.7364  -11.3480 O   0  0  0  0  0  0  0  0  0  0  0  0
   35.8786   16.4058   -9.5593 C   0  0  0  0  0  0  0  0  0  0  0  0
   34.6130   16.3060   -9.5744 O   0  0  0  0  0  0  0  0  0  0  0  0
   37.4022   18.1670  -11.5809 H   0  0  0  0  0  0  0  0  0  0  0  0
 19 20  1  0  0  0
 20 21  1  0  0  0
 21 22  1  0  0  0
 22 23  1  0  0  0
 23 24  1  0  0  0
 23 17  1  0  0  0
 17 18  3  0  0  0
 18  1  1  0  0  0
  1  2  2  0  0  0
  2  3  1  0  0  0
  3  4  2  0  0  0
  4  5  1  0  0  0
  5  6  2  0  0  0
  5  7  1  0  0  0
  7  8  1  0  0  0
  8  9  2  0  0  0
  9 10  1  0  0  0
 10 11  2  0  0  0
 10 12  1  0  0  0
 12 13  1  0  0  0
 12 14  2  0  0  0
 23 25  1  0  0  0
 25 26  2  0  0  0
 25 20  1  0  0  0
  6  1  1  0  0  0
 11  7  1  0  0  0
 24 27  1  0  0  0
 13 15  1  0  0  0
 13 16  1  0  0  0
M  END
> <minimizedAffinity>
-8.11396

> <CNNscore>
0.7854013443

> <CNNaffinity>
6.3582496643

> <CNN_VS>
4.9937777519

> <CNNaffinity_variance>
0.2785478830

$$$$
[H]O[C@]1(C#Cc2c([H])c([H])nc(-n3nc(C(=O)N([H])[H])c([H])c3[H])c2[H])C(=O)N(C([H])([H])[H])C([H])([H])C1([H])[H]


 27 29  0  0  0  0  0  0  0  0999 V2000
   36.0078   13.5200  -12.8287 C   0  0  0  0  0  0  0  0  0  0  0  0
   34.6597   13.3757  -13.0803 C   0  0  0  0  0  0  0  0  0  0  0  0
   34.2804   12.8025  -14.2681 C   0  0  0  0  0  0  0  0  0  0  0  0
   35.1643   12.3788  -15.1904 N   0  0  0  0  0  0  0  0  0  0  0  0
   36.4933   12.5064  -14.9733 C   0  0  0  0  0  0  0  0  0  0  0  0
   36.8929   13.0763  -13.7931 C   0  0  0  0  0  0  0  0  0  0  0  0
   37.3981   12.0455  -15.9745 N   0  0  0  0  0  0  0  0  0  0  0  0
   37.0957   11.0790  -16.8642 C   0  0  0  0  0  0  0  0  0  0  0  0
   38.1636   10.8679  -17.6821 C   0  0  0  0  0  0  0  0  0  0  0  0
   39.1525   11.7431  -17.2696 C   0  0  0  0  0  0  0  0  0  0  0  0
   38.6286   12.4372  -16.2232 N   0  0  0  0  0  0  0  0  0  0  0  0
   40.4736   11.8958  -17.8293 C   0  0  0  0  0  0  0  0  0  0  0  0
   41.5042   12.4590  -17.0473 N   0  0  0  0  0  0  0  0  0  0  0  0
   40.6658   11.5106  -19.0287 O   0  0  0  0  0  0  0  0  0  0  0  0
   42.2591   11.8467  -16.6769 H   0  0  0  0  0  0  0  0  0  0  0  0
   41.5143   13.4621  -16.8426 H   0  0  0  0  0  0  0  0  0  0  0  0
   36.8306   14.6247  -10.5656 C   0  0  0  0  0  0  0  0  0  0  0  0
   36.4462   14.1179  -11.5915 C   0  0  0  0  0  0  0  0  0  0  0  0
   37.7585   13.9652   -5.8414 C   0  0  0  0  0  0  0  0  0  0  0  0
   37.9180   14.3982   -7.2200 N   0  0  0  0  0  0  0  0  0  0  0  0
   39.1686   14.7281   -7.8352 C   0  0  0  0  0  0  0  0  0  0  0  0
   38.8125   15.1835   -9.2188 C   0  0  0  0  0  0  0  0  0  0  0  0
   37.3233   15.2533   -9.3197 C   0  0  0  0  0  0  0  0  0  0  0  0
   36.8338   16.5506   -9.3080 O   0  0  0  0  0  0  0  0  0  0  0  0
   36.8350   14.5456   -8.1271 C   0  0  0  0  0  0  0  0  0  0  0  0
   35.6355   14.1546   -7.9856 O   0  0  0  0  0  0  0  0  0  0  0  0
   37.5293   17.2300   -9.4770 H   0  0  0  0  0  0  0  0  0  0  0  0
 19 20  1  0  0  0
 20 21  1  0  0  0
 21 22  1  0  0  0
 22 23  1  0  0  0
 23 24  1  0  0  0
 23 17  1  0  0  0
 17 18  3  0  0  0
 18  1  1  0  0  0
  1  2  2  0  0  0
  2  3  1  0  0  0
  3  4  2  0  0  0
  4  5  1  0  0  0
  5  6  2  0  0  0
  5  7  1  0  0  0
  7  8  1  0  0  0
  8  9  2  0  0  0
  9 10  1  0  0  0
 10 11  2  0  0  0
 10 12  1  0  0  0
 12 13  1  0  0  0
 12 14  2  0  0  0
 23 25  1  0  0  0
 25 26  2  0  0  0
 25 20  1  0  0  0
  6  1  1  0  0  0
 11  7  1  0  0  0
 24 27  1  0  0  0
 13 15  1  0  0  0
 13 16  1  0  0  0
M  END
> <minimizedAffinity>
-7.61920

> <CNNscore>
0.7605317831

> <CNNaffinity>
6.1849508286

> <CNN_VS>
4.7038516998

> <CNNaffinity_variance>
0.3290888667

$$$$
[H]O[C@]1(C#Cc2c([H])c([H])nc(-n3nc(C(=O)N([H])[H])c([H])c3[H])c2[H])C(=O)N(C([H])([H])[H])C([H])([H])C1([H])[H]


 27 29  0  0  0  0  0  0  0  0999 V2000
   35.8612   13.2889  -12.8994 C   0  0  0  0  0  0  0  0  0  0  0  0
   34.6674   12.7872  -13.3734 C   0  0  0  0  0  0  0  0  0  0  0  0
   34.6655   12.1704  -14.5993 C   0  0  0  0  0  0  0  0  0  0  0  0
   35.7732   12.0363  -15.3518 N   0  0  0  0  0  0  0  0  0  0  0  0
   36.9593   12.5176  -14.9148 C   0  0  0  0  0  0  0  0  0  0  0  0
   36.9828   13.1372  -13.6930 C   0  0  0  0  0  0  0  0  0  0  0  0
   38.1103   12.3560  -15.7410 N   0  0  0  0  0  0  0  0  0  0  0  0
   39.3427   12.7767  -15.3928 C   0  0  0  0  0  0  0  0  0  0  0  0
   40.2206   12.4770  -16.3894 C   0  0  0  0  0  0  0  0  0  0  0  0
   39.4884   11.8492  -17.3813 C   0  0  0  0  0  0  0  0  0  0  0  0
   38.2056   11.8030  -16.9304 N   0  0  0  0  0  0  0  0  0  0  0  0
   39.9774   11.3431  -18.6410 C   0  0  0  0  0  0  0  0  0  0  0  0
   39.0659   10.8477  -19.5974 N   0  0  0  0  0  0  0  0  0  0  0  0
   41.2346   11.3616  -18.8482 O   0  0  0  0  0  0  0  0  0  0  0  0
   38.8665   11.4060  -20.4521 H   0  0  0  0  0  0  0  0  0  0  0  0
   38.6014    9.9464  -19.4567 H   0  0  0  0  0  0  0  0  0  0  0  0
   35.9369   14.4741  -10.5312 C   0  0  0  0  0  0  0  0  0  0  0  0
   35.9042   13.9441  -11.6152 C   0  0  0  0  0  0  0  0  0  0  0  0
   38.3635   17.4711   -7.5743 C   0  0  0  0  0  0  0  0  0  0  0  0
   37.2565   16.8292   -8.2644 N   0  0  0  0  0  0  0  0  0  0  0  0
   35.9644   17.4147   -8.4614 C   0  0  0  0  0  0  0  0  0  0  0  0
   35.1574   16.3528   -9.1466 C   0  0  0  0  0  0  0  0  0  0  0  0
   35.9726   15.1012   -9.1911 C   0  0  0  0  0  0  0  0  0  0  0  0
   35.5466   14.1379   -8.2894 O   0  0  0  0  0  0  0  0  0  0  0  0
   37.3322   15.5286   -8.8301 C   0  0  0  0  0  0  0  0  0  0  0  0
   38.3647   14.8136   -9.0158 O   0  0  0  0  0  0  0  0  0  0  0  0
   34.6444   14.3134   -7.9302 H   0  0  0  0  0  0  0  0  0  0  0  0
 19 20  1  0  0  0
 20 21  1  0  0  0
 21 22  1  0  0  0
 22 23  1  0  0  0
 23 24  1  0  0  0
 23 17  1  0  0  0
 17 18  3  0  0  0
 18  1  1  0  0  0
  1  2  2  0  0  0
  2  3  1  0  0  0
  3  4  2  0  0  0
  4  5  1  0  0  0
  5  6  2  0  0  0
  5  7  1  0  0  0
  7  8  1  0  0  0
  8  9  2  0  0  0
  9 10  1  0  0  0
 10 11  2  0  0  0
 10 12  1  0  0  0
 12 13  1  0  0  0
 12 14  2  0  0  0
 23 25  1  0  0  0
 25 26  2  0  0  0
 25 20  1  0  0  0
  6  1  1  0  0  0
 11  7  1  0  0  0
 24 27  1  0  0  0
 13 15  1  0  0  0
 13 16  1  0  0  0
M  END
> <minimizedAffinity>
-7.56602

> <CNNscore>
0.7571675181

> <CNNaffinity>
6.1882820129

> <CNN_VS>
4.6855659485

> <CNNaffinity_variance>
0.2695494294

$$$$
[H]O[C@]1(C#Cc2c([H])c([H])nc(-n3nc(C(=O)N([H])[H])c([H])c3[H])c2[H])C(=O)N(C([H])([H])[H])C([H])([H])C1([H])[H]


 27 29  0  0  0  0  0  0  0  0999 V2000
   38.7247   12.0684  -16.0085 C   0  0  0  0  0  0  0  0  0  0  0  0
   38.5204   11.4675  -17.2327 C   0  0  0  0  0  0  0  0  0  0  0  0
   39.6027   11.2973  -18.0591 C   0  0  0  0  0  0  0  0  0  0  0  0
   40.8459   11.6902  -17.7256 N   0  0  0  0  0  0  0  0  0  0  0  0
   41.0789   12.2826  -16.5322 C   0  0  0  0  0  0  0  0  0  0  0  0
   40.0115   12.4618  -15.6922 C   0  0  0  0  0  0  0  0  0  0  0  0
   42.4099   12.6847  -16.2155 N   0  0  0  0  0  0  0  0  0  0  0  0
   43.5047   12.1764  -16.8156 C   0  0  0  0  0  0  0  0  0  0  0  0
   44.6181   12.7621  -16.2949 C   0  0  0  0  0  0  0  0  0  0  0  0
   44.1781   13.6617  -15.3404 C   0  0  0  0  0  0  0  0  0  0  0  0
   42.8205   13.5714  -15.3353 N   0  0  0  0  0  0  0  0  0  0  0  0
   44.9869   14.5243  -14.5136 C   0  0  0  0  0  0  0  0  0  0  0  0
   45.8687   15.4461  -15.1166 N   0  0  0  0  0  0  0  0  0  0  0  0
   44.8746   14.4214  -13.2484 O   0  0  0  0  0  0  0  0  0  0  0  0
   45.6366   16.4599  -15.1047 H   0  0  0  0  0  0  0  0  0  0  0  0
   46.7320   15.1254  -15.5639 H   0  0  0  0  0  0  0  0  0  0  0  0
   36.6914   12.4190  -14.3466 C   0  0  0  0  0  0  0  0  0  0  0  0
   37.6123   12.2651  -15.1118 C   0  0  0  0  0  0  0  0  0  0  0  0
   34.3566   15.5376  -11.4420 C   0  0  0  0  0  0  0  0  0  0  0  0
   34.5841   14.4793  -12.4125 N   0  0  0  0  0  0  0  0  0  0  0  0
   33.6299   14.0434  -13.3875 C   0  0  0  0  0  0  0  0  0  0  0  0
   34.2912   12.8972  -14.0927 C   0  0  0  0  0  0  0  0  0  0  0  0
   35.5751   12.5941  -13.3909 C   0  0  0  0  0  0  0  0  0  0  0  0
   35.5214   11.4390  -12.6257 O   0  0  0  0  0  0  0  0  0  0  0  0
   35.7972   13.7464  -12.5052 C   0  0  0  0  0  0  0  0  0  0  0  0
   36.9084   13.9958  -11.9440 O   0  0  0  0  0  0  0  0  0  0  0  0
   34.7470   10.8662  -12.8402 H   0  0  0  0  0  0  0  0  0  0  0  0
 19 20  1  0  0  0
 20 21  1  0  0  0
 21 22  1  0  0  0
 22 23  1  0  0  0
 23 24  1  0  0  0
 23 17  1  0  0  0
 17 18  3  0  0  0
 18  1  1  0  0  0
  1  2  2  0  0  0
  2  3  1  0  0  0
  3  4  2  0  0  0
  4  5  1  0  0  0
  5  6  2  0  0  0
  5  7  1  0  0  0
  7  8  1  0  0  0
  8  9  2  0  0  0
  9 10  1  0  0  0
 10 11  2  0  0  0
 10 12  1  0  0  0
 12 13  1  0  0  0
 12 14  2  0  0  0
 23 25  1  0  0  0
 25 26  2  0  0  0
 25 20  1  0  0  0
  6  1  1  0  0  0
 11  7  1  0  0  0
 24 27  1  0  0  0
 13 15  1  0  0  0
 13 16  1  0  0  0
M  END
> <minimizedAffinity>
-8.05155

> <CNNscore>
0.6321058273

> <CNNaffinity>
6.1809887886

> <CNN_VS>
3.9070389271

> <CNNaffinity_variance>
0.4743185937

$$$$
[H]O[C@]1(C#Cc2c([H])c([H])nc(-n3nc(C(=O)N([H])[H])c([H])c3[H])c2[H])C(=O)N(C([H])([H])[H])C([H])([H])C1([H])[H]


 27 29  0  0  0  0  0  0  0  0999 V2000
   40.7406   12.1425  -16.9401 C   0  0  0  0  0  0  0  0  0  0  0  0
   40.8734   11.5454  -18.1760 C   0  0  0  0  0  0  0  0  0  0  0  0
   39.7465   11.0428  -18.7767 C   0  0  0  0  0  0  0  0  0  0  0  0
   38.5263   11.1086  -18.2127 N   0  0  0  0  0  0  0  0  0  0  0  0
   38.3632   11.6879  -17.0013 C   0  0  0  0  0  0  0  0  0  0  0  0
   39.4761   12.1961  -16.3845 C   0  0  0  0  0  0  0  0  0  0  0  0
   37.0546   11.7381  -16.4369 N   0  0  0  0  0  0  0  0  0  0  0  0
   35.9800   11.1438  -16.9928 C   0  0  0  0  0  0  0  0  0  0  0  0
   34.8848   11.3747  -16.2175 C   0  0  0  0  0  0  0  0  0  0  0  0
   35.3153   12.1405  -15.1487 C   0  0  0  0  0  0  0  0  0  0  0  0
   36.6493   12.3316  -15.3355 N   0  0  0  0  0  0  0  0  0  0  0  0
   34.5187   12.6395  -14.0540 C   0  0  0  0  0  0  0  0  0  0  0  0
   33.3181   13.3312  -14.3205 N   0  0  0  0  0  0  0  0  0  0  0  0
   34.9342   12.4347  -12.8668 O   0  0  0  0  0  0  0  0  0  0  0  0
   32.4067   12.8655  -14.1351 H   0  0  0  0  0  0  0  0  0  0  0  0
   33.3376   14.2844  -14.6934 H   0  0  0  0  0  0  0  0  0  0  0  0
   42.8848   13.1194  -15.7289 C   0  0  0  0  0  0  0  0  0  0  0  0
   41.9016   12.6827  -16.2764 C   0  0  0  0  0  0  0  0  0  0  0  0
   45.1201   13.8826  -11.4822 C   0  0  0  0  0  0  0  0  0  0  0  0
   44.9118   13.5065  -12.8710 N   0  0  0  0  0  0  0  0  0  0  0  0
   45.7417   12.6007  -13.6073 C   0  0  0  0  0  0  0  0  0  0  0  0
   45.1741   12.5951  -14.9952 C   0  0  0  0  0  0  0  0  0  0  0  0
   44.1039   13.6355  -15.0674 C   0  0  0  0  0  0  0  0  0  0  0  0
   44.4879   14.7684  -15.7685 O   0  0  0  0  0  0  0  0  0  0  0  0
   43.8453   14.0023  -13.6674 C   0  0  0  0  0  0  0  0  0  0  0  0
   42.8232   14.6541  -13.2904 O   0  0  0  0  0  0  0  0  0  0  0  0
   45.2997   14.6322  -16.3129 H   0  0  0  0  0  0  0  0  0  0  0  0
 19 20  1  0  0  0
 20 21  1  0  0  0
 21 22  1  0  0  0
 22 23  1  0  0  0
 23 24  1  0  0  0
 23 17  1  0  0  0
 17 18  3  0  0  0
 18  1  1  0  0  0
  1  2  2  0  0  0
  2  3  1  0  0  0
  3  4  2  0  0  0
  4  5  1  0  0  0
  5  6  2  0  0  0
  5  7  1  0  0  0
  7  8  1  0  0  0
  8  9  2  0  0  0
  9 10  1  0  0  0
 10 11  2  0  0  0
 10 12  1  0  0  0
 12 13  1  0  0  0
 12 14  2  0  0  0
 23 25  1  0  0  0
 25 26  2  0  0  0
 25 20  1  0  0  0
  6  1  1  0  0  0
 11  7  1  0  0  0
 24 27  1  0  0  0
 13 15  1  0  0  0
 13 16  1  0  0  0
M  END
> <minimizedAffinity>
-8.54091

> <CNNscore>
0.5889375210

> <CNNaffinity>
6.2114953995

> <CNN_VS>
3.6581826210

> <CNNaffinity_variance>
0.1375187337

$$$$
[H]O[C@]1(C#Cc2c([H])c([H])nc(-n3nc(C(=O)N([H])[H])c([H])c3[H])c2[H])C(=O)N(C([H])([H])[H])C([H])([H])C1([H])[H]


 27 29  0  0  0  0  0  0  0  0999 V2000
   40.8280   12.5748  -16.1051 C   0  0  0  0  0  0  0  0  0  0  0  0
   41.3869   12.1381  -17.2877 C   0  0  0  0  0  0  0  0  0  0  0  0
   40.5650   11.5424  -18.2112 C   0  0  0  0  0  0  0  0  0  0  0  0
   39.2456   11.3684  -18.0109 N   0  0  0  0  0  0  0  0  0  0  0  0
   38.6675   11.7857  -16.8614 C   0  0  0  0  0  0  0  0  0  0  0  0
   39.4709   12.3832  -15.9261 C   0  0  0  0  0  0  0  0  0  0  0  0
   37.2668   11.5834  -16.6866 N   0  0  0  0  0  0  0  0  0  0  0  0
   36.5089   10.8513  -17.5273 C   0  0  0  0  0  0  0  0  0  0  0  0
   35.2200   10.8502  -17.0885 C   0  0  0  0  0  0  0  0  0  0  0  0
   35.1978   11.6133  -15.9347 C   0  0  0  0  0  0  0  0  0  0  0  0
   36.4762   12.0353  -15.7377 N   0  0  0  0  0  0  0  0  0  0  0  0
   34.0560   11.9073  -15.1030 C   0  0  0  0  0  0  0  0  0  0  0  0
   33.8560   13.2206  -14.6277 N   0  0  0  0  0  0  0  0  0  0  0  0
   33.2562   10.9555  -14.8228 O   0  0  0  0  0  0  0  0  0  0  0  0
   33.0979   13.8036  -15.0369 H   0  0  0  0  0  0  0  0  0  0  0  0
   34.4492   13.6024  -13.8858 H   0  0  0  0  0  0  0  0  0  0  0  0
   42.3424   13.7259  -14.2611 C   0  0  0  0  0  0  0  0  0  0  0  0
   41.6590   13.2058  -15.1094 C   0  0  0  0  0  0  0  0  0  0  0  0
   45.7421   17.0554  -13.2767 C   0  0  0  0  0  0  0  0  0  0  0  0
   44.5347   16.2549  -13.1548 N   0  0  0  0  0  0  0  0  0  0  0  0
   43.3665   16.6415  -12.4220 C   0  0  0  0  0  0  0  0  0  0  0  0
   42.4363   15.4702  -12.5283 C   0  0  0  0  0  0  0  0  0  0  0  0
   43.1649   14.3537  -13.2030 C   0  0  0  0  0  0  0  0  0  0  0  0
   43.5378   13.3393  -12.3344 O   0  0  0  0  0  0  0  0  0  0  0  0
   44.3743   14.9790  -13.7579 C   0  0  0  0  0  0  0  0  0  0  0  0
   45.1140   14.4251  -14.6284 O   0  0  0  0  0  0  0  0  0  0  0  0
   43.0704   13.3794  -11.4662 H   0  0  0  0  0  0  0  0  0  0  0  0
 19 20  1  0  0  0
 20 21  1  0  0  0
 21 22  1  0  0  0
 22 23  1  0  0  0
 23 24  1  0  0  0
 23 17  1  0  0  0
 17 18  3  0  0  0
 18  1  1  0  0  0
  1  2  2  0  0  0
  2  3  1  0  0  0
  3  4  2  0  0  0
  4  5  1  0  0  0
  5  6  2  0  0  0
  5  7  1  0  0  0
  7  8  1  0  0  0
  8  9  2  0  0  0
  9 10  1  0  0  0
 10 11  2  0  0  0
 10 12  1  0  0  0
 12 13  1  0  0  0
 12 14  2  0  0  0
 23 25  1  0  0  0
 25 26  2  0  0  0
 25 20  1  0  0  0
  6  1  1  0  0  0
 11  7  1  0  0  0
 24 27  1  0  0  0
 13 15  1  0  0  0
 13 16  1  0  0  0
M  END
> <minimizedAffinity>
-8.00712

> <CNNscore>
0.5852504969

> <CNNaffinity>
6.1191349030

> <CNN_VS>
3.5812268257

> <CNNaffinity_variance>
0.3371808827

$$$$
[H]O[C@]1(C#Cc2c([H])c([H])nc(-n3nc(C(=O)N([H])[H])c([H])c3[H])c2[H])C(=O)N(C([H])([H])[H])C([H])([H])C1([H])[H]


 27 29  0  0  0  0  0  0  0  0999 V2000
   41.1923   12.4332  -16.3844 C   0  0  0  0  0  0  0  0  0  0  0  0
   41.4000   11.9072  -17.6420 C   0  0  0  0  0  0  0  0  0  0  0  0
   40.3074   11.4778  -18.3528 C   0  0  0  0  0  0  0  0  0  0  0  0
   39.0510   11.5488  -17.8755 N   0  0  0  0  0  0  0  0  0  0  0  0
   38.8144   12.0595  -16.6456 C   0  0  0  0  0  0  0  0  0  0  0  0
   39.8920   12.4939  -15.9195 C   0  0  0  0  0  0  0  0  0  0  0  0
   37.4694   12.1177  -16.1754 N   0  0  0  0  0  0  0  0  0  0  0  0
   36.4570   11.4172  -16.7244 C   0  0  0  0  0  0  0  0  0  0  0  0
   35.3039   11.6882  -16.0530 C   0  0  0  0  0  0  0  0  0  0  0  0
   35.6330   12.5901  -15.0568 C   0  0  0  0  0  0  0  0  0  0  0  0
   36.9691   12.8161  -15.1797 N   0  0  0  0  0  0  0  0  0  0  0  0
   34.7464   13.1771  -14.0814 C   0  0  0  0  0  0  0  0  0  0  0  0
   33.9792   14.3102  -14.4254 N   0  0  0  0  0  0  0  0  0  0  0  0
   34.6867   12.6430  -12.9260 O   0  0  0  0  0  0  0  0  0  0  0  0
   32.9557   14.2081  -14.5802 H   0  0  0  0  0  0  0  0  0  0  0  0
   34.4209   15.2286  -14.5233 H   0  0  0  0  0  0  0  0  0  0  0  0
   43.2636   13.2631  -14.9561 C   0  0  0  0  0  0  0  0  0  0  0  0
   42.3153   12.8953  -15.6061 C   0  0  0  0  0  0  0  0  0  0  0  0
   48.0391   14.1593  -15.0237 C   0  0  0  0  0  0  0  0  0  0  0  0
   46.6223   14.3101  -14.7347 N   0  0  0  0  0  0  0  0  0  0  0  0
   45.9845   15.5440  -14.3857 C   0  0  0  0  0  0  0  0  0  0  0  0
   44.5562   15.1790  -14.1120 C   0  0  0  0  0  0  0  0  0  0  0  0
   44.4361   13.6904  -14.1605 C   0  0  0  0  0  0  0  0  0  0  0  0
   44.2999   13.1109  -12.9082 O   0  0  0  0  0  0  0  0  0  0  0  0
   45.6957   13.2340  -14.7659 C   0  0  0  0  0  0  0  0  0  0  0  0
   45.8700   12.0628  -15.2238 O   0  0  0  0  0  0  0  0  0  0  0  0
   44.0623   13.7595  -12.2035 H   0  0  0  0  0  0  0  0  0  0  0  0
 19 20  1  0  0  0
 20 21  1  0  0  0
 21 22  1  0  0  0
 22 23  1  0  0  0
 23 24  1  0  0  0
 23 17  1  0  0  0
 17 18  3  0  0  0
 18  1  1  0  0  0
  1  2  2  0  0  0
  2  3  1  0  0  0
  3  4  2  0  0  0
  4  5  1  0  0  0
  5  6  2  0  0  0
  5  7  1  0  0  0
  7  8  1  0  0  0
  8  9  2  0  0  0
  9 10  1  0  0  0
 10 11  2  0  0  0
 10 12  1  0  0  0
 12 13  1  0  0  0
 12 14  2  0  0  0
 23 25  1  0  0  0
 25 26  2  0  0  0
 25 20  1  0  0  0
  6  1  1  0  0  0
 11  7  1  0  0  0
 24 27  1  0  0  0
 13 15  1  0  0  0
 13 16  1  0  0  0
M  END
> <minimizedAffinity>
-8.14380

> <CNNscore>
0.5787431002

> <CNNaffinity>
6.0479464531

> <CNN_VS>
3.5002071857

> <CNNaffinity_variance>
0.1030059606

$$$$
[H]O[C@]1(C#Cc2c([H])c([H])nc(-n3nc(C(=O)N([H])[H])c([H])c3[H])c2[H])C(=O)N(C([H])([H])[H])C([H])([H])C1([H])[H]


 27 29  0  0  0  0  0  0  0  0999 V2000
   41.0648   12.3840  -16.5106 C   0  0  0  0  0  0  0  0  0  0  0  0
   40.9923   11.8419  -17.7764 C   0  0  0  0  0  0  0  0  0  0  0  0
   39.7676   11.4226  -18.2320 C   0  0  0  0  0  0  0  0  0  0  0  0
   38.6431   11.5183  -17.4989 N   0  0  0  0  0  0  0  0  0  0  0  0
   38.6812   12.0453  -16.2537 C   0  0  0  0  0  0  0  0  0  0  0  0
   39.8946   12.4701  -15.7800 C   0  0  0  0  0  0  0  0  0  0  0  0
   37.4684   12.1296  -15.5084 N   0  0  0  0  0  0  0  0  0  0  0  0
   37.4247   12.2249  -14.1645 C   0  0  0  0  0  0  0  0  0  0  0  0
   36.1267   12.2877  -13.7581 C   0  0  0  0  0  0  0  0  0  0  0  0
   35.3538   12.2277  -14.9040 C   0  0  0  0  0  0  0  0  0  0  0  0
   36.2271   12.1319  -15.9428 N   0  0  0  0  0  0  0  0  0  0  0  0
   33.9137   12.2597  -14.9896 C   0  0  0  0  0  0  0  0  0  0  0  0
   33.2065   13.3670  -14.4750 N   0  0  0  0  0  0  0  0  0  0  0  0
   33.3225   11.2715  -15.5352 O   0  0  0  0  0  0  0  0  0  0  0  0
   32.7769   14.0502  -15.1312 H   0  0  0  0  0  0  0  0  0  0  0  0
   33.1134   13.5021  -13.4646 H   0  0  0  0  0  0  0  0  0  0  0  0
   43.3862   13.2280  -15.5525 C   0  0  0  0  0  0  0  0  0  0  0  0
   42.3340   12.8363  -15.9959 C   0  0  0  0  0  0  0  0  0  0  0  0
   46.0904   13.7003  -11.5428 C   0  0  0  0  0  0  0  0  0  0  0  0
   45.7277   13.4363  -12.9257 N   0  0  0  0  0  0  0  0  0  0  0  0
   46.4840   12.6226  -13.8296 C   0  0  0  0  0  0  0  0  0  0  0  0
   45.7569   12.7162  -15.1376 C   0  0  0  0  0  0  0  0  0  0  0  0
   44.6635   13.7246  -14.9940 C   0  0  0  0  0  0  0  0  0  0  0  0
   44.9376   14.9242  -15.6330 O   0  0  0  0  0  0  0  0  0  0  0  0
   44.5643   13.9637  -13.5468 C   0  0  0  0  0  0  0  0  0  0  0  0
   43.5800   14.5487  -12.9984 O   0  0  0  0  0  0  0  0  0  0  0  0
   45.6822   14.8601  -16.2775 H   0  0  0  0  0  0  0  0  0  0  0  0
 19 20  1  0  0  0
 20 21  1  0  0  0
 21 22  1  0  0  0
 22 23  1  0  0  0
 23 24  1  0  0  0
 23 17  1  0  0  0
 17 18  3  0  0  0
 18  1  1  0  0  0
  1  2  2  0  0  0
  2  3  1  0  0  0
  3  4  2  0  0  0
  4  5  1  0  0  0
  5  6  2  0  0  0
  5  7  1  0  0  0
  7  8  1  0  0  0
  8  9  2  0  0  0
  9 10  1  0  0  0
 10 11  2  0  0  0
 10 12  1  0  0  0
 12 13  1  0  0  0
 12 14  2  0  0  0
 23 25  1  0  0  0
 25 26  2  0  0  0
 25 20  1  0  0  0
  6  1  1  0  0  0
 11  7  1  0  0  0
 24 27  1  0  0  0
 13 15  1  0  0  0
 13 16  1  0  0  0
M  END
> <minimizedAffinity>
-8.35425

> <CNNscore>
0.5753898621

> <CNNaffinity>
6.1297874451

> <CNN_VS>
3.5270175934

> <CNNaffinity_variance>
0.1773466468

$$$$
[H]O[C@]1(C#Cc2c([H])c([H])nc(-n3nc(C(=O)N([H])[H])c([H])c3[H])c2[H])C(=O)N(C([H])([H])[H])C([H])([H])C1([H])[H]


 27 29  0  0  0  0  0  0  0  0999 V2000
   36.6741   14.4838  -12.5643 C   0  0  0  0  0  0  0  0  0  0  0  0
   35.4424   13.8640  -12.5796 C   0  0  0  0  0  0  0  0  0  0  0  0
   35.2132   12.9025  -13.5316 C   0  0  0  0  0  0  0  0  0  0  0  0
   36.1349   12.5429  -14.4440 N   0  0  0  0  0  0  0  0  0  0  0  0
   37.3523   13.1322  -14.4552 C   0  0  0  0  0  0  0  0  0  0  0  0
   37.6014   14.0949  -13.5127 C   0  0  0  0  0  0  0  0  0  0  0  0
   38.3018   12.7238  -15.4376 N   0  0  0  0  0  0  0  0  0  0  0  0
   39.6285   12.9334  -15.3243 C   0  0  0  0  0  0  0  0  0  0  0  0
   40.2606   12.4297  -16.4200 C   0  0  0  0  0  0  0  0  0  0  0  0
   39.2750   11.8933  -17.2293 C   0  0  0  0  0  0  0  0  0  0  0  0
   38.0985   12.1019  -16.5785 N   0  0  0  0  0  0  0  0  0  0  0  0
   39.4498   11.2432  -18.5055 C   0  0  0  0  0  0  0  0  0  0  0  0
   38.3609   10.5769  -19.1065 N   0  0  0  0  0  0  0  0  0  0  0  0
   40.5994   11.2945  -19.0531 O   0  0  0  0  0  0  0  0  0  0  0  0
   37.8933   11.0017  -19.9328 H   0  0  0  0  0  0  0  0  0  0  0  0
   38.0291    9.6818  -18.7366 H   0  0  0  0  0  0  0  0  0  0  0  0
   37.1682   16.3467  -10.7465 C   0  0  0  0  0  0  0  0  0  0  0  0
   36.9534   15.4995  -11.5791 C   0  0  0  0  0  0  0  0  0  0  0  0
   36.4610   17.6254   -6.1120 C   0  0  0  0  0  0  0  0  0  0  0  0
   37.1237   17.4236   -7.3902 N   0  0  0  0  0  0  0  0  0  0  0  0
   38.5413   17.3313   -7.5721 C   0  0  0  0  0  0  0  0  0  0  0  0
   38.7351   17.2025   -9.0533 C   0  0  0  0  0  0  0  0  0  0  0  0
   37.4080   17.3818   -9.7163 C   0  0  0  0  0  0  0  0  0  0  0  0
   37.2720   18.6094  -10.3464 O   0  0  0  0  0  0  0  0  0  0  0  0
   36.4296   17.2930   -8.6225 C   0  0  0  0  0  0  0  0  0  0  0  0
   35.1845   17.1270   -8.8069 O   0  0  0  0  0  0  0  0  0  0  0  0
   38.1311   19.0780  -10.4743 H   0  0  0  0  0  0  0  0  0  0  0  0
 19 20  1  0  0  0
 20 21  1  0  0  0
 21 22  1  0  0  0
 22 23  1  0  0  0
 23 24  1  0  0  0
 23 17  1  0  0  0
 17 18  3  0  0  0
 18  1  1  0  0  0
  1  2  2  0  0  0
  2  3  1  0  0  0
  3  4  2  0  0  0
  4  5  1  0  0  0
  5  6  2  0  0  0
  5  7  1  0  0  0
  7  8  1  0  0  0
  8  9  2  0  0  0
  9 10  1  0  0  0
 10 11  2  0  0  0
 10 12  1  0  0  0
 12 13  1  0  0  0
 12 14  2  0  0  0
 23 25  1  0  0  0
 25 26  2  0  0  0
 25 20  1  0  0  0
  6  1  1  0  0  0
 11  7  1  0  0  0
 24 27  1  0  0  0
 13 15  1  0  0  0
 13 16  1  0  0  0
M  END
> <minimizedAffinity>
-7.03392

> <CNNscore>
0.5684127212

> <CNNaffinity>
5.8202233315

> <CNN_VS>
3.3082890511

> <CNNaffinity_variance>
0.2182554454

$$$$
[H]O[C@]1(C#Cc2c([H])c([H])c3c(c2[H])-n2nc(C(=O)N([H])[H])c([H])c2[C@@]([H])(O[H])C([H])([H])O3)C(=O)N(C([H])([H])[H])C([H])([H])C1([H])[H]


 32 35  0  0  0  0  0  0  0  0999 V2000
   37.0702   13.4514  -14.1031 C   0  0  0  0  0  0  0  0  0  0  0  0
   35.9231   12.8404  -14.5654 C   0  0  0  0  0  0  0  0  0  0  0  0
   35.9090   12.0157  -15.6713 C   0  0  0  0  0  0  0  0  0  0  0  0
   37.0786   11.7827  -16.3524 C   0  0  0  0  0  0  0  0  0  0  0  0
   36.9712   10.9424  -17.4497 O   0  0  0  0  0  0  0  0  0  0  0  0
   37.9364   10.4112  -18.3332 C   0  0  0  0  0  0  0  0  0  0  0  0
   38.9708   11.4025  -18.7469 C   0  0  0  0  0  0  0  0  0  0  0  0
   39.7009   10.8252  -19.8077 O   0  0  0  0  0  0  0  0  0  0  0  0
   39.8657   11.8579  -17.6849 C   0  0  0  0  0  0  0  0  0  0  0  0
   41.2560   11.9328  -17.7705 C   0  0  0  0  0  0  0  0  0  0  0  0
   41.6991   12.4097  -16.5567 C   0  0  0  0  0  0  0  0  0  0  0  0
   40.6286   12.6170  -15.7655 N   0  0  0  0  0  0  0  0  0  0  0  0
   39.5549   12.2824  -16.4574 N   0  0  0  0  0  0  0  0  0  0  0  0
   38.2317   12.3817  -15.9082 C   0  0  0  0  0  0  0  0  0  0  0  0
   38.2297   13.2128  -14.7887 C   0  0  0  0  0  0  0  0  0  0  0  0
   39.0974   10.3033  -20.4002 H   0  0  0  0  0  0  0  0  0  0  0  0
   43.1139   12.6405  -16.2203 C   0  0  0  0  0  0  0  0  0  0  0  0
   44.1247   12.2306  -17.1127 N   0  0  0  0  0  0  0  0  0  0  0  0
   43.4284   13.1966  -15.1508 O   0  0  0  0  0  0  0  0  0  0  0  0
   44.8117   12.9491  -17.4453 H   0  0  0  0  0  0  0  0  0  0  0  0
   44.1501   11.2335  -17.4063 H   0  0  0  0  0  0  0  0  0  0  0  0
   37.1058   15.0325  -11.9777 C   0  0  0  0  0  0  0  0  0  0  0  0
   37.0782   14.3136  -12.9450 C   0  0  0  0  0  0  0  0  0  0  0  0
   38.1342   14.9348   -7.2954 C   0  0  0  0  0  0  0  0  0  0  0  0
   38.0604   15.2500   -8.7101 N   0  0  0  0  0  0  0  0  0  0  0  0
   39.1481   15.8388   -9.4527 C   0  0  0  0  0  0  0  0  0  0  0  0
   38.5180   16.5407  -10.6377 C   0  0  0  0  0  0  0  0  0  0  0  0
   37.1656   15.9181  -10.7895 C   0  0  0  0  0  0  0  0  0  0  0  0
   36.2067   16.9279  -10.8758 O   0  0  0  0  0  0  0  0  0  0  0  0
   36.9828   15.0639   -9.6128 C   0  0  0  0  0  0  0  0  0  0  0  0
   36.0141   14.2808   -9.4286 O   0  0  0  0  0  0  0  0  0  0  0  0
   36.3769   17.4061  -11.7234 H   0  0  0  0  0  0  0  0  0  0  0  0
 24 25  1  0  0  0
 25 26  1  0  0  0
 26 27  1  0  0  0
 27 28  1  0  0  0
 28 29  1  0  0  0
 28 22  1  0  0  0
 22 23  3  0  0  0
 23  1  1  0  0  0
  1  2  2  0  0  0
  2  3  1  0  0  0
  3  4  2  0  0  0
  4  5  1  0  0  0
  5  6  1  0  0  0
  6  7  1  0  0  0
  7  8  1  0  0  0
  7  9  1  0  0  0
  9 10  2  0  0  0
 10 11  1  0  0  0
 11 12  2  0  0  0
 12 13  1  0  0  0
 13 14  1  0  0  0
 14 15  2  0  0  0
 11 17  1  0  0  0
 17 18  1  0  0  0
 17 19  2  0  0  0
 28 30  1  0  0  0
 30 31  2  0  0  0
 30 25  1  0  0  0
 15  1  1  0  0  0
 14  4  1  0  0  0
 13  9  1  0  0  0
 29 32  1  0  0  0
  8 16  1  0  0  0
 18 20  1  0  0  0
 18 21  1  0  0  0
M  END
> <minimizedAffinity>
-9.41711

> <CNNscore>
0.6970567107

> <CNNaffinity>
6.7091269493

> <CNN_VS>
4.6766419411

> <CNNaffinity_variance>
0.1602497995

$$$$
[H]O[C@]1(C#Cc2c([H])c([H])c3c(c2[H])-n2nc(C(=O)N([H])[H])c([H])c2[C@@]([H])(O[H])C([H])([H])O3)C(=O)N(C([H])([H])[H])C([H])([H])C1([H])[H]


 32 35  0  0  0  0  0  0  0  0999 V2000
   36.5557   13.3778  -14.3637 C   0  0  0  0  0  0  0  0  0  0  0  0
   35.4850   12.6878  -14.8933 C   0  0  0  0  0  0  0  0  0  0  0  0
   35.6052   11.8318  -15.9686 C   0  0  0  0  0  0  0  0  0  0  0  0
   36.8367   11.6475  -16.5480 C   0  0  0  0  0  0  0  0  0  0  0  0
   36.8643   10.7707  -17.6215 O   0  0  0  0  0  0  0  0  0  0  0  0
   37.9251   10.2711  -18.4085 C   0  0  0  0  0  0  0  0  0  0  0  0
   38.9324   11.3084  -18.7733 C   0  0  0  0  0  0  0  0  0  0  0  0
   39.7759   10.7439  -19.7538 O   0  0  0  0  0  0  0  0  0  0  0  0
   39.7128   11.8459  -17.6605 C   0  0  0  0  0  0  0  0  0  0  0  0
   41.0992   11.9990  -17.6398 C   0  0  0  0  0  0  0  0  0  0  0  0
   41.4166   12.5361  -16.4119 C   0  0  0  0  0  0  0  0  0  0  0  0
   40.2765   12.7037  -15.7141 N   0  0  0  0  0  0  0  0  0  0  0  0
   39.2818   12.2872  -16.4761 N   0  0  0  0  0  0  0  0  0  0  0  0
   37.9155   12.3252  -16.0356 C   0  0  0  0  0  0  0  0  0  0  0  0
   37.7777   13.1871  -14.9482 C   0  0  0  0  0  0  0  0  0  0  0  0
   39.2517   10.1707  -20.3737 H   0  0  0  0  0  0  0  0  0  0  0  0
   42.7849   12.8586  -15.9740 C   0  0  0  0  0  0  0  0  0  0  0  0
   43.8737   12.6201  -16.8364 N   0  0  0  0  0  0  0  0  0  0  0  0
   42.9916   13.3419  -14.8445 O   0  0  0  0  0  0  0  0  0  0  0  0
   44.5077   13.4228  -17.0658 H   0  0  0  0  0  0  0  0  0  0  0  0
   44.0061   11.6594  -17.2113 H   0  0  0  0  0  0  0  0  0  0  0  0
   36.3331   15.0184  -12.2956 C   0  0  0  0  0  0  0  0  0  0  0  0
   36.4231   14.2723  -13.2382 C   0  0  0  0  0  0  0  0  0  0  0  0
   34.3037   15.3909   -7.9673 C   0  0  0  0  0  0  0  0  0  0  0  0
   35.2263   15.3604   -9.0872 N   0  0  0  0  0  0  0  0  0  0  0  0
   36.6198   15.0087   -8.9618 C   0  0  0  0  0  0  0  0  0  0  0  0
   37.3254   15.6578  -10.1343 C   0  0  0  0  0  0  0  0  0  0  0  0
   36.2484   15.9378  -11.1349 C   0  0  0  0  0  0  0  0  0  0  0  0
   36.3451   17.2669  -11.5479 O   0  0  0  0  0  0  0  0  0  0  0  0
   34.9832   15.6479  -10.4544 C   0  0  0  0  0  0  0  0  0  0  0  0
   33.8484   15.6529  -11.0001 O   0  0  0  0  0  0  0  0  0  0  0  0
   37.1963   17.3467  -12.0429 H   0  0  0  0  0  0  0  0  0  0  0  0
 24 25  1  0  0  0
 25 26  1  0  0  0
 26 27  1  0  0  0
 27 28  1  0  0  0
 28 29  1  0  0  0
 28 22  1  0  0  0
 22 23  3  0  0  0
 23  1  1  0  0  0
  1  2  2  0  0  0
  2  3  1  0  0  0
  3  4  2  0  0  0
  4  5  1  0  0  0
  5  6  1  0  0  0
  6  7  1  0  0  0
  7  8  1  0  0  0
  7  9  1  0  0  0
  9 10  2  0  0  0
 10 11  1  0  0  0
 11 12  2  0  0  0
 12 13  1  0  0  0
 13 14  1  0  0  0
 14 15  2  0  0  0
 11 17  1  0  0  0
 17 18  1  0  0  0
 17 19  2  0  0  0
 28 30  1  0  0  0
 30 31  2  0  0  0
 30 25  1  0  0  0
 15  1  1  0  0  0
 14  4  1  0  0  0
 13  9  1  0  0  0
 29 32  1  0  0  0
  8 16  1  0  0  0
 18 20  1  0  0  0
 18 21  1  0  0  0
M  END
> <minimizedAffinity>
-9.80339

> <CNNscore>
0.6591579914

> <CNNaffinity>
6.7634582520

> <CNN_VS>
4.4581875801

> <CNNaffinity_variance>
0.2245589197

$$$$
[H]O[C@]1(C#Cc2c([H])c([H])c3c(c2[H])-n2nc(C(=O)N([H])[H])c([H])c2[C@@]([H])(O[H])C([H])([H])O3)C(=O)N(C([H])([H])[H])C([H])([H])C1([H])[H]


 32 35  0  0  0  0  0  0  0  0999 V2000
   41.9747   13.6012  -14.4206 C   0  0  0  0  0  0  0  0  0  0  0  0
   42.8701   13.2009  -15.3907 C   0  0  0  0  0  0  0  0  0  0  0  0
   42.4796   12.5714  -16.5545 C   0  0  0  0  0  0  0  0  0  0  0  0
   41.1460   12.3254  -16.7721 C   0  0  0  0  0  0  0  0  0  0  0  0
   40.8451   11.6896  -17.9668 O   0  0  0  0  0  0  0  0  0  0  0  0
   39.6168   11.3463  -18.5730 C   0  0  0  0  0  0  0  0  0  0  0  0
   38.6178   10.7907  -17.6155 C   0  0  0  0  0  0  0  0  0  0  0  0
   37.5577   10.2593  -18.3806 O   0  0  0  0  0  0  0  0  0  0  0  0
   38.1181   11.7294  -16.6129 C   0  0  0  0  0  0  0  0  0  0  0  0
   36.7776   11.9262  -16.2810 C   0  0  0  0  0  0  0  0  0  0  0  0
   36.7539   12.8907  -15.2980 C   0  0  0  0  0  0  0  0  0  0  0  0
   38.0218   13.2662  -15.0409 N   0  0  0  0  0  0  0  0  0  0  0  0
   38.8106   12.5634  -15.8330 N   0  0  0  0  0  0  0  0  0  0  0  0
   40.2385   12.7161  -15.8185 C   0  0  0  0  0  0  0  0  0  0  0  0
   40.6490   13.3513  -14.6471 C   0  0  0  0  0  0  0  0  0  0  0  0
   37.9074    9.8256  -19.2035 H   0  0  0  0  0  0  0  0  0  0  0  0
   35.5275   13.3987  -14.6610 C   0  0  0  0  0  0  0  0  0  0  0  0
   35.4808   14.7233  -14.1821 N   0  0  0  0  0  0  0  0  0  0  0  0
   34.5263   12.6672  -14.5400 O   0  0  0  0  0  0  0  0  0  0  0  0
   34.7198   15.3508  -14.5372 H   0  0  0  0  0  0  0  0  0  0  0  0
   36.2013   15.0268  -13.4967 H   0  0  0  0  0  0  0  0  0  0  0  0
   42.7207   14.8225  -12.1912 C   0  0  0  0  0  0  0  0  0  0  0  0
   42.3899   14.2594  -13.2045 C   0  0  0  0  0  0  0  0  0  0  0  0
   41.0996   15.7633   -7.7778 C   0  0  0  0  0  0  0  0  0  0  0  0
   41.8922   15.3683   -8.9275 N   0  0  0  0  0  0  0  0  0  0  0  0
   42.8938   14.3309   -8.8859 C   0  0  0  0  0  0  0  0  0  0  0  0
   43.8577   14.6301  -10.0152 C   0  0  0  0  0  0  0  0  0  0  0  0
   43.1058   15.5294  -10.9455 C   0  0  0  0  0  0  0  0  0  0  0  0
   43.8909   16.6465  -11.2326 O   0  0  0  0  0  0  0  0  0  0  0  0
   41.8623   15.8757  -10.2514 C   0  0  0  0  0  0  0  0  0  0  0  0
   40.9085   16.5265  -10.7535 O   0  0  0  0  0  0  0  0  0  0  0  0
   44.6680   16.3195  -11.7476 H   0  0  0  0  0  0  0  0  0  0  0  0
 24 25  1  0  0  0
 25 26  1  0  0  0
 26 27  1  0  0  0
 27 28  1  0  0  0
 28 29  1  0  0  0
 28 22  1  0  0  0
 22 23  3  0  0  0
 23  1  1  0  0  0
  1  2  2  0  0  0
  2  3  1  0  0  0
  3  4  2  0  0  0
  4  5  1  0  0  0
  5  6  1  0  0  0
  6  7  1  0  0  0
  7  8  1  0  0  0
  7  9  1  0  0  0
  9 10  2  0  0  0
 10 11  1  0  0  0
 11 12  2  0  0  0
 12 13  1  0  0  0
 13 14  1  0  0  0
 14 15  2  0  0  0
 11 17  1  0  0  0
 17 18  1  0  0  0
 17 19  2  0  0  0
 28 30  1  0  0  0
 30 31  2  0  0  0
 30 25  1  0  0  0
 15  1  1  0  0  0
 14  4  1  0  0  0
 13  9  1  0  0  0
 29 32  1  0  0  0
  8 16  1  0  0  0
 18 20  1  0  0  0
 18 21  1  0  0  0
M  END
> <minimizedAffinity>
-8.87369

> <CNNscore>
0.5818186998

> <CNNaffinity>
6.5569739342

> <CNN_VS>
3.8149700165

> <CNNaffinity_variance>
0.4192699790

$$$$
[H]O[C@]1(C#Cc2c([H])c([H])c3c(c2[H])-n2nc(C(=O)N([H])[H])c([H])c2[C@@]([H])(O[H])C([H])([H])O3)C(=O)N(C([H])([H])[H])C([H])([H])C1([H])[H]


 32 35  0  0  0  0  0  0  0  0999 V2000
   37.1986   13.2989  -13.2502 C   0  0  0  0  0  0  0  0  0  0  0  0
   36.2504   12.6343  -14.0000 C   0  0  0  0  0  0  0  0  0  0  0  0
   36.5427   12.0185  -15.1994 C   0  0  0  0  0  0  0  0  0  0  0  0
   37.8280   12.0595  -15.6817 C   0  0  0  0  0  0  0  0  0  0  0  0
   38.0306   11.4149  -16.8922 O   0  0  0  0  0  0  0  0  0  0  0  0
   39.1958   11.1735  -17.6526 C   0  0  0  0  0  0  0  0  0  0  0  0
   40.1143   12.3464  -17.7186 C   0  0  0  0  0  0  0  0  0  0  0  0
   41.0859   12.0603  -18.7014 O   0  0  0  0  0  0  0  0  0  0  0  0
   40.7453   12.7228  -16.4552 C   0  0  0  0  0  0  0  0  0  0  0  0
   42.1023   12.9900  -16.2727 C   0  0  0  0  0  0  0  0  0  0  0  0
   42.2653   13.3029  -14.9414 C   0  0  0  0  0  0  0  0  0  0  0  0
   41.0631   13.2304  -14.3377 N   0  0  0  0  0  0  0  0  0  0  0  0
   40.1797   12.8849  -15.2564 N   0  0  0  0  0  0  0  0  0  0  0  0
   38.7869   12.7163  -14.9502 C   0  0  0  0  0  0  0  0  0  0  0  0
   38.4756   13.3340  -13.7395 C   0  0  0  0  0  0  0  0  0  0  0  0
   40.6744   11.5753  -19.4649 H   0  0  0  0  0  0  0  0  0  0  0  0
   43.5542   13.6525  -14.3212 C   0  0  0  0  0  0  0  0  0  0  0  0
   44.5831   14.2117  -15.1054 N   0  0  0  0  0  0  0  0  0  0  0  0
   43.7460   13.4585  -13.1056 O   0  0  0  0  0  0  0  0  0  0  0  0
   44.9862   15.1326  -14.8082 H   0  0  0  0  0  0  0  0  0  0  0  0
   44.9020   13.6906  -15.9467 H   0  0  0  0  0  0  0  0  0  0  0  0
   36.6168   14.4602  -10.9413 C   0  0  0  0  0  0  0  0  0  0  0  0
   36.8861   13.9416  -11.9957 C   0  0  0  0  0  0  0  0  0  0  0  0
   38.4186   17.4235   -7.6302 C   0  0  0  0  0  0  0  0  0  0  0  0
   37.5811   16.7547   -8.6086 N   0  0  0  0  0  0  0  0  0  0  0  0
   36.5945   17.4359   -9.4110 C   0  0  0  0  0  0  0  0  0  0  0  0
   35.5786   16.3861   -9.8108 C   0  0  0  0  0  0  0  0  0  0  0  0
   36.2784   15.0750   -9.6347 C   0  0  0  0  0  0  0  0  0  0  0  0
   35.4684   14.2241   -8.8821 O   0  0  0  0  0  0  0  0  0  0  0  0
   37.5469   15.3835   -8.9687 C   0  0  0  0  0  0  0  0  0  0  0  0
   38.4701   14.5562   -8.7480 O   0  0  0  0  0  0  0  0  0  0  0  0
   34.6733   14.0300   -9.4354 H   0  0  0  0  0  0  0  0  0  0  0  0
 24 25  1  0  0  0
 25 26  1  0  0  0
 26 27  1  0  0  0
 27 28  1  0  0  0
 28 29  1  0  0  0
 28 22  1  0  0  0
 22 23  3  0  0  0
 23  1  1  0  0  0
  1  2  2  0  0  0
  2  3  1  0  0  0
  3  4  2  0  0  0
  4  5  1  0  0  0
  5  6  1  0  0  0
  6  7  1  0  0  0
  7  8  1  0  0  0
  7  9  1  0  0  0
  9 10  2  0  0  0
 10 11  1  0  0  0
 11 12  2  0  0  0
 12 13  1  0  0  0
 13 14  1  0  0  0
 14 15  2  0  0  0
 11 17  1  0  0  0
 17 18  1  0  0  0
 17 19  2  0  0  0
 28 30  1  0  0  0
 30 31  2  0  0  0
 30 25  1  0  0  0
 15  1  1  0  0  0
 14  4  1  0  0  0
 13  9  1  0  0  0
 29 32  1  0  0  0
  8 16  1  0  0  0
 18 20  1  0  0  0
 18 21  1  0  0  0
M  END
> <minimizedAffinity>
-9.13757

> <CNNscore>
0.5619426966

> <CNNaffinity>
6.2346067429

> <CNN_VS>
3.5034916401

> <CNNaffinity_variance>
0.1885799468

$$$$
[H]O[C@]1(C#Cc2c([H])c([H])c3c(c2[H])-n2nc(C(=O)N([H])[H])c([H])c2[C@@]([H])(O[H])C([H])([H])O3)C(=O)N(C([H])([H])[H])C([H])([H])C1([H])[H]


 32 35  0  0  0  0  0  0  0  0999 V2000
   40.0017   12.8781  -15.2782 C   0  0  0  0  0  0  0  0  0  0  0  0
   40.1627   12.1430  -16.4344 C   0  0  0  0  0  0  0  0  0  0  0  0
   39.1015   11.6002  -17.1291 C   0  0  0  0  0  0  0  0  0  0  0  0
   37.8237   11.7908  -16.6631 C   0  0  0  0  0  0  0  0  0  0  0  0
   36.8201   11.2107  -17.4235 O   0  0  0  0  0  0  0  0  0  0  0  0
   35.4122   11.2492  -17.3203 C   0  0  0  0  0  0  0  0  0  0  0  0
   34.9165   11.1164  -15.9202 C   0  0  0  0  0  0  0  0  0  0  0  0
   33.5218   10.9120  -15.9893 O   0  0  0  0  0  0  0  0  0  0  0  0
   35.2368   12.2315  -15.0313 C   0  0  0  0  0  0  0  0  0  0  0  0
   34.3380   12.8782  -14.1828 C   0  0  0  0  0  0  0  0  0  0  0  0
   35.0505   13.8603  -13.5311 C   0  0  0  0  0  0  0  0  0  0  0  0
   36.3263   13.8160  -13.9614 N   0  0  0  0  0  0  0  0  0  0  0  0
   36.4103   12.8425  -14.8496 N   0  0  0  0  0  0  0  0  0  0  0  0
   37.6420   12.5197  -15.5136 C   0  0  0  0  0  0  0  0  0  0  0  0
   38.7250   13.0618  -14.8227 C   0  0  0  0  0  0  0  0  0  0  0  0
   33.2942   10.3340  -16.7649 H   0  0  0  0  0  0  0  0  0  0  0  0
   34.4768   14.7833  -12.5375 C   0  0  0  0  0  0  0  0  0  0  0  0
   33.1319   15.1895  -12.6494 N   0  0  0  0  0  0  0  0  0  0  0  0
   35.1703   15.2109  -11.5950 O   0  0  0  0  0  0  0  0  0  0  0  0
   32.4965   15.0259  -11.8318 H   0  0  0  0  0  0  0  0  0  0  0  0
   32.8223   15.6346  -13.5365 H   0  0  0  0  0  0  0  0  0  0  0  0
   42.0529   13.8961  -13.9460 C   0  0  0  0  0  0  0  0  0  0  0  0
   41.1166   13.4433  -14.5557 C   0  0  0  0  0  0  0  0  0  0  0  0
   43.1360   16.0868   -9.8207 C   0  0  0  0  0  0  0  0  0  0  0  0
   43.0774   15.1918  -10.9615 N   0  0  0  0  0  0  0  0  0  0  0  0
   43.4215   13.7923  -10.8944 C   0  0  0  0  0  0  0  0  0  0  0  0
   43.8125   13.3866  -12.3002 C   0  0  0  0  0  0  0  0  0  0  0  0
   43.2129   14.4289  -13.1910 C   0  0  0  0  0  0  0  0  0  0  0  0
   44.1946   14.9033  -14.0616 O   0  0  0  0  0  0  0  0  0  0  0  0
   42.6972   15.4710  -12.2988 C   0  0  0  0  0  0  0  0  0  0  0  0
   42.0178   16.4666  -12.6630 O   0  0  0  0  0  0  0  0  0  0  0  0
   44.4325   14.1500  -14.6549 H   0  0  0  0  0  0  0  0  0  0  0  0
 24 25  1  0  0  0
 25 26  1  0  0  0
 26 27  1  0  0  0
 27 28  1  0  0  0
 28 29  1  0  0  0
 28 22  1  0  0  0
 22 23  3  0  0  0
 23  1  1  0  0  0
  1  2  2  0  0  0
  2  3  1  0  0  0
  3  4  2  0  0  0
  4  5  1  0  0  0
  5  6  1  0  0  0
  6  7  1  0  0  0
  7  8  1  0  0  0
  7  9  1  0  0  0
  9 10  2  0  0  0
 10 11  1  0  0  0
 11 12  2  0  0  0
 12 13  1  0  0  0
 13 14  1  0  0  0
 14 15  2  0  0  0
 11 17  1  0  0  0
 17 18  1  0  0  0
 17 19  2  0  0  0
 28 30  1  0  0  0
 30 31  2  0  0  0
 30 25  1  0  0  0
 15  1  1  0  0  0
 14  4  1  0  0  0
 13  9  1  0  0  0
 29 32  1  0  0  0
  8 16  1  0  0  0
 18 20  1  0  0  0
 18 21  1  0  0  0
M  END
> <minimizedAffinity>
-9.33123

> <CNNscore>
0.4907195568

> <CNNaffinity>
6.5500478745

> <CNN_VS>
3.2142364979

> <CNNaffinity_variance>
0.2109943330

$$$$
[H]O[C@]1(C#Cc2c([H])c([H])c3c(c2[H])-n2nc(C(=O)N([H])[H])c([H])c2[C@@]([H])(O[H])C([H])([H])O3)C(=O)N(C([H])([H])[H])C([H])([H])C1([H])[H]


 32 35  0  0  0  0  0  0  0  0999 V2000
   41.9863   13.6363  -14.4344 C   0  0  0  0  0  0  0  0  0  0  0  0
   42.8727   13.2147  -15.4037 C   0  0  0  0  0  0  0  0  0  0  0  0
   42.4706   12.5694  -16.5549 C   0  0  0  0  0  0  0  0  0  0  0  0
   41.1341   12.3288  -16.7601 C   0  0  0  0  0  0  0  0  0  0  0  0
   40.8214   11.6762  -17.9425 O   0  0  0  0  0  0  0  0  0  0  0  0
   39.5869   11.3315  -18.5354 C   0  0  0  0  0  0  0  0  0  0  0  0
   38.5905   10.7978  -17.5628 C   0  0  0  0  0  0  0  0  0  0  0  0
   37.5220   10.2613  -18.3126 O   0  0  0  0  0  0  0  0  0  0  0  0
   38.1035   11.7556  -16.5721 C   0  0  0  0  0  0  0  0  0  0  0  0
   36.7664   11.9665  -16.2349 C   0  0  0  0  0  0  0  0  0  0  0  0
   36.7554   12.9467  -15.2673 C   0  0  0  0  0  0  0  0  0  0  0  0
   38.0274   13.3178  -15.0242 N   0  0  0  0  0  0  0  0  0  0  0  0
   38.8064   12.5973  -15.8100 N   0  0  0  0  0  0  0  0  0  0  0  0
   40.2353   12.7407  -15.8070 C   0  0  0  0  0  0  0  0  0  0  0  0
   40.6575   13.3917  -14.6486 C   0  0  0  0  0  0  0  0  0  0  0  0
   37.8635    9.8123  -19.1306 H   0  0  0  0  0  0  0  0  0  0  0  0
   35.5364   13.4729  -14.6306 C   0  0  0  0  0  0  0  0  0  0  0  0
   35.5600   14.7339  -14.0016 N   0  0  0  0  0  0  0  0  0  0  0  0
   34.4800   12.8128  -14.6419 O   0  0  0  0  0  0  0  0  0  0  0  0
   34.8666   15.4553  -14.3141 H   0  0  0  0  0  0  0  0  0  0  0  0
   36.2628   14.8999  -13.2535 H   0  0  0  0  0  0  0  0  0  0  0  0
   42.7766   14.8560  -12.2195 C   0  0  0  0  0  0  0  0  0  0  0  0
   42.4137   14.3110  -13.2317 C   0  0  0  0  0  0  0  0  0  0  0  0
   46.1352   14.4601   -8.8204 C   0  0  0  0  0  0  0  0  0  0  0  0
   45.2379   14.9316   -9.8589 N   0  0  0  0  0  0  0  0  0  0  0  0
   45.5649   16.0030  -10.7680 C   0  0  0  0  0  0  0  0  0  0  0  0
   44.2435   16.5740  -11.2391 C   0  0  0  0  0  0  0  0  0  0  0  0
   43.2335   15.5041  -10.9661 C   0  0  0  0  0  0  0  0  0  0  0  0
   42.1565   16.0603  -10.2752 O   0  0  0  0  0  0  0  0  0  0  0  0
   43.9351   14.4788  -10.1886 C   0  0  0  0  0  0  0  0  0  0  0  0
   43.4548   13.3619   -9.8610 O   0  0  0  0  0  0  0  0  0  0  0  0
   41.7173   16.6892  -10.8977 H   0  0  0  0  0  0  0  0  0  0  0  0
 24 25  1  0  0  0
 25 26  1  0  0  0
 26 27  1  0  0  0
 27 28  1  0  0  0
 28 29  1  0  0  0
 28 22  1  0  0  0
 22 23  3  0  0  0
 23  1  1  0  0  0
  1  2  2  0  0  0
  2  3  1  0  0  0
  3  4  2  0  0  0
  4  5  1  0  0  0
  5  6  1  0  0  0
  6  7  1  0  0  0
  7  8  1  0  0  0
  7  9  1  0  0  0
  9 10  2  0  0  0
 10 11  1  0  0  0
 11 12  2  0  0  0
 12 13  1  0  0  0
 13 14  1  0  0  0
 14 15  2  0  0  0
 11 17  1  0  0  0
 17 18  1  0  0  0
 17 19  2  0  0  0
 28 30  1  0  0  0
 30 31  2  0  0  0
 30 25  1  0  0  0
 15  1  1  0  0  0
 14  4  1  0  0  0
 13  9  1  0  0  0
 29 32  1  0  0  0
  8 16  1  0  0  0
 18 20  1  0  0  0
 18 21  1  0  0  0
M  END
> <minimizedAffinity>
-8.63628

> <CNNscore>
0.4362551868

> <CNNaffinity>
6.2746372223

> <CNN_VS>
2.7373430729

> <CNNaffinity_variance>
0.4234046042

$$$$
[H]O[C@]1(C#Cc2c([H])c([H])c3c(c2[H])-n2nc(C(=O)N([H])[H])c([H])c2[C@@]([H])(O[H])C([H])([H])O3)C(=O)N(C([H])([H])[H])C([H])([H])C1([H])[H]


 32 35  0  0  0  0  0  0  0  0999 V2000
   38.0727   14.9201  -12.3567 C   0  0  0  0  0  0  0  0  0  0  0  0
   39.3631   15.3414  -12.6023 C   0  0  0  0  0  0  0  0  0  0  0  0
   40.0846   14.9363  -13.7063 C   0  0  0  0  0  0  0  0  0  0  0  0
   39.5078   14.0770  -14.6092 C   0  0  0  0  0  0  0  0  0  0  0  0
   40.3046   13.7235  -15.6872 O   0  0  0  0  0  0  0  0  0  0  0  0
   40.0492   12.9465  -16.8383 C   0  0  0  0  0  0  0  0  0  0  0  0
   39.2661   11.7091  -16.5567 C   0  0  0  0  0  0  0  0  0  0  0  0
   39.3080   10.9148  -17.7225 O   0  0  0  0  0  0  0  0  0  0  0  0
   37.8877   11.9229  -16.1205 C   0  0  0  0  0  0  0  0  0  0  0  0
   36.7647   11.2678  -16.6260 C   0  0  0  0  0  0  0  0  0  0  0  0
   35.6784   11.7647  -15.9403 C   0  0  0  0  0  0  0  0  0  0  0  0
   36.1173   12.6815  -15.0562 N   0  0  0  0  0  0  0  0  0  0  0  0
   37.4296   12.7563  -15.1830 N   0  0  0  0  0  0  0  0  0  0  0  0
   38.2239   13.6459  -14.3829 C   0  0  0  0  0  0  0  0  0  0  0  0
   37.5077   14.0644  -13.2621 C   0  0  0  0  0  0  0  0  0  0  0  0
   40.2023   10.9756  -18.1515 H   0  0  0  0  0  0  0  0  0  0  0  0
   34.2870   11.3389  -16.1658 C   0  0  0  0  0  0  0  0  0  0  0  0
   33.3533   11.4005  -15.1120 N   0  0  0  0  0  0  0  0  0  0  0  0
   33.9246   10.9229  -17.2828 O   0  0  0  0  0  0  0  0  0  0  0  0
   32.4727   11.9488  -15.2631 H   0  0  0  0  0  0  0  0  0  0  0  0
   33.5733   10.9010  -14.2270 H   0  0  0  0  0  0  0  0  0  0  0  0
   36.6982   15.7245  -10.2397 C   0  0  0  0  0  0  0  0  0  0  0  0
   37.3231   15.3477  -11.1992 C   0  0  0  0  0  0  0  0  0  0  0  0
   36.6508   15.5156   -5.4496 C   0  0  0  0  0  0  0  0  0  0  0  0
   36.6416   15.9440   -6.8361 N   0  0  0  0  0  0  0  0  0  0  0  0
   37.1564   17.2166   -7.2799 C   0  0  0  0  0  0  0  0  0  0  0  0
   36.4467   17.5275   -8.5812 C   0  0  0  0  0  0  0  0  0  0  0  0
   35.9276   16.2117   -9.0698 C   0  0  0  0  0  0  0  0  0  0  0  0
   34.5758   16.3455   -9.3882 O   0  0  0  0  0  0  0  0  0  0  0  0
   36.1603   15.2591   -7.9807 C   0  0  0  0  0  0  0  0  0  0  0  0
   35.9630   14.0174   -8.0488 O   0  0  0  0  0  0  0  0  0  0  0  0
   34.5283   16.9556  -10.1637 H   0  0  0  0  0  0  0  0  0  0  0  0
 24 25  1  0  0  0
 25 26  1  0  0  0
 26 27  1  0  0  0
 27 28  1  0  0  0
 28 29  1  0  0  0
 28 22  1  0  0  0
 22 23  3  0  0  0
 23  1  1  0  0  0
  1  2  2  0  0  0
  2  3  1  0  0  0
  3  4  2  0  0  0
  4  5  1  0  0  0
  5  6  1  0  0  0
  6  7  1  0  0  0
  7  8  1  0  0  0
  7  9  1  0  0  0
  9 10  2  0  0  0
 10 11  1  0  0  0
 11 12  2  0  0  0
 12 13  1  0  0  0
 13 14  1  0  0  0
 14 15  2  0  0  0
 11 17  1  0  0  0
 17 18  1  0  0  0
 17 19  2  0  0  0
 28 30  1  0  0  0
 30 31  2  0  0  0
 30 25  1  0  0  0
 15  1  1  0  0  0
 14  4  1  0  0  0
 13  9  1  0  0  0
 29 32  1  0  0  0
  8 16  1  0  0  0
 18 20  1  0  0  0
 18 21  1  0  0  0
M  END
> <minimizedAffinity>
-8.88575

> <CNNscore>
0.4168478549

> <CNNaffinity>
6.1340088844

> <CNN_VS>
2.5569484234

> <CNNaffinity_variance>
0.2210221738

$$$$
[H]O[C@]1(C#Cc2c([H])c([H])c3c(c2[H])-n2nc(C(=O)N([H])[H])c([H])c2[C@@]([H])(O[H])C([H])([H])O3)C(=O)N(C([H])([H])[H])C([H])([H])C1([H])[H]


 32 35  0  0  0  0  0  0  0  0999 V2000
   40.9091   12.9664  -15.4705 C   0  0  0  0  0  0  0  0  0  0  0  0
   41.2768   12.3268  -16.6362 C   0  0  0  0  0  0  0  0  0  0  0  0
   40.3660   11.7158  -17.4730 C   0  0  0  0  0  0  0  0  0  0  0  0
   39.0322   11.7361  -17.1461 C   0  0  0  0  0  0  0  0  0  0  0  0
   38.1895   11.0984  -18.0434 O   0  0  0  0  0  0  0  0  0  0  0  0
   36.7838   10.9763  -18.0988 C   0  0  0  0  0  0  0  0  0  0  0  0
   36.1596   10.7032  -16.7723 C   0  0  0  0  0  0  0  0  0  0  0  0
   34.8133   10.3523  -17.0094 O   0  0  0  0  0  0  0  0  0  0  0  0
   36.2519   11.7890  -15.7984 C   0  0  0  0  0  0  0  0  0  0  0  0
   35.1988   12.2794  -15.0262 C   0  0  0  0  0  0  0  0  0  0  0  0
   35.7191   13.2910  -14.2496 C   0  0  0  0  0  0  0  0  0  0  0  0
   37.0303   13.4132  -14.5341 N   0  0  0  0  0  0  0  0  0  0  0  0
   37.3207   12.5120  -15.4545 N   0  0  0  0  0  0  0  0  0  0  0  0
   38.6455   12.3677  -15.9897 C   0  0  0  0  0  0  0  0  0  0  0  0
   39.5783   12.9808  -15.1542 C   0  0  0  0  0  0  0  0  0  0  0  0
   34.7383    9.8024  -17.8336 H   0  0  0  0  0  0  0  0  0  0  0  0
   34.9396   14.0819  -13.2828 C   0  0  0  0  0  0  0  0  0  0  0  0
   33.6959   14.6268  -13.6605 N   0  0  0  0  0  0  0  0  0  0  0  0
   35.3693   14.2757  -12.1296 O   0  0  0  0  0  0  0  0  0  0  0  0
   32.8552   14.3877  -13.0817 H   0  0  0  0  0  0  0  0  0  0  0  0
   33.6600   15.2434  -14.4968 H   0  0  0  0  0  0  0  0  0  0  0  0
   42.6813   14.1209  -13.8753 C   0  0  0  0  0  0  0  0  0  0  0  0
   41.8674   13.6039  -14.5989 C   0  0  0  0  0  0  0  0  0  0  0  0
   46.0467   17.5364  -13.8808 C   0  0  0  0  0  0  0  0  0  0  0  0
   44.9194   16.6770  -13.5697 N   0  0  0  0  0  0  0  0  0  0  0  0
   43.7446   17.1283  -12.8644 C   0  0  0  0  0  0  0  0  0  0  0  0
   43.1348   15.8959  -12.2295 C   0  0  0  0  0  0  0  0  0  0  0  0
   43.7004   14.7398  -12.9932 C   0  0  0  0  0  0  0  0  0  0  0  0
   44.2091   13.8040  -12.0920 O   0  0  0  0  0  0  0  0  0  0  0  0
   44.7335   15.3029  -13.8669 C   0  0  0  0  0  0  0  0  0  0  0  0
   45.3635   14.6639  -14.7502 O   0  0  0  0  0  0  0  0  0  0  0  0
   43.4356   13.4426  -11.5948 H   0  0  0  0  0  0  0  0  0  0  0  0
 24 25  1  0  0  0
 25 26  1  0  0  0
 26 27  1  0  0  0
 27 28  1  0  0  0
 28 29  1  0  0  0
 28 22  1  0  0  0
 22 23  3  0  0  0
 23  1  1  0  0  0
  1  2  2  0  0  0
  2  3  1  0  0  0
  3  4  2  0  0  0
  4  5  1  0  0  0
  5  6  1  0  0  0
  6  7  1  0  0  0
  7  8  1  0  0  0
  7  9  1  0  0  0
  9 10  2  0  0  0
 10 11  1  0  0  0
 11 12  2  0  0  0
 12 13  1  0  0  0
 13 14  1  0  0  0
 14 15  2  0  0  0
 11 17  1  0  0  0
 17 18  1  0  0  0
 17 19  2  0  0  0
 28 30  1  0  0  0
 30 31  2  0  0  0
 30 25  1  0  0  0
 15  1  1  0  0  0
 14  4  1  0  0  0
 13  9  1  0  0  0
 29 32  1  0  0  0
  8 16  1  0  0  0
 18 20  1  0  0  0
 18 21  1  0  0  0
M  END
> <minimizedAffinity>
-9.17373

> <CNNscore>
0.3989751339

> <CNNaffinity>
6.3623480797

> <CNN_VS>
2.5384187698

> <CNNaffinity_variance>
0.2211087644

$$$$
[H]O[C@]1(C#Cc2c([H])c([H])c3c(c2[H])-n2nc(C(=O)N([H])[H])c([H])c2[C@@]([H])(O[H])C([H])([H])O3)C(=O)N(C([H])([H])[H])C([H])([H])C1([H])[H]


 32 35  0  0  0  0  0  0  0  0999 V2000
   39.0941   14.1040  -13.4877 C   0  0  0  0  0  0  0  0  0  0  0  0
   40.3314   14.3455  -14.0477 C   0  0  0  0  0  0  0  0  0  0  0  0
   40.6911   13.8799  -15.2956 C   0  0  0  0  0  0  0  0  0  0  0  0
   39.7901   13.1431  -16.0246 C   0  0  0  0  0  0  0  0  0  0  0  0
   40.2358   12.7169  -17.2662 O   0  0  0  0  0  0  0  0  0  0  0  0
   39.5935   12.0241  -18.3158 C   0  0  0  0  0  0  0  0  0  0  0  0
   38.7315   10.9019  -17.8454 C   0  0  0  0  0  0  0  0  0  0  0  0
   38.3679   10.1502  -18.9832 O   0  0  0  0  0  0  0  0  0  0  0  0
   37.5499   11.2947  -17.0802 C   0  0  0  0  0  0  0  0  0  0  0  0
   36.2534   10.8240  -17.2888 C   0  0  0  0  0  0  0  0  0  0  0  0
   35.4546   11.4466  -16.3554 C   0  0  0  0  0  0  0  0  0  0  0  0
   36.2274   12.2606  -15.6104 N   0  0  0  0  0  0  0  0  0  0  0  0
   37.4642   12.1522  -16.0600 N   0  0  0  0  0  0  0  0  0  0  0  0
   38.5527   12.8916  -15.4849 C   0  0  0  0  0  0  0  0  0  0  0  0
   38.2042   13.3691  -14.2220 C   0  0  0  0  0  0  0  0  0  0  0  0
   39.1278   10.0978  -19.6214 H   0  0  0  0  0  0  0  0  0  0  0  0
   34.0037   11.2312  -16.2265 C   0  0  0  0  0  0  0  0  0  0  0  0
   33.2797   10.6630  -17.2938 N   0  0  0  0  0  0  0  0  0  0  0  0
   33.4066   11.5473  -15.1798 O   0  0  0  0  0  0  0  0  0  0  0  0
   32.7177    9.7984  -17.1050 H   0  0  0  0  0  0  0  0  0  0  0  0
   33.3307   11.1220  -18.2253 H   0  0  0  0  0  0  0  0  0  0  0  0
   38.3948   15.0003  -11.0947 C   0  0  0  0  0  0  0  0  0  0  0  0
   38.7240   14.5940  -12.1810 C   0  0  0  0  0  0  0  0  0  0  0  0
   37.5701   19.0774   -8.7098 C   0  0  0  0  0  0  0  0  0  0  0  0
   37.4808   17.7574   -9.3063 N   0  0  0  0  0  0  0  0  0  0  0  0
   36.2362   17.1454   -9.7034 C   0  0  0  0  0  0  0  0  0  0  0  0
   36.4789   15.6505   -9.6908 C   0  0  0  0  0  0  0  0  0  0  0  0
   37.9653   15.4931   -9.7634 C   0  0  0  0  0  0  0  0  0  0  0  0
   38.3807   14.6223   -8.7555 O   0  0  0  0  0  0  0  0  0  0  0  0
   38.5195   16.8410   -9.6099 C   0  0  0  0  0  0  0  0  0  0  0  0
   39.7362   17.1428   -9.7291 O   0  0  0  0  0  0  0  0  0  0  0  0
   38.0072   13.7353   -8.9783 H   0  0  0  0  0  0  0  0  0  0  0  0
 24 25  1  0  0  0
 25 26  1  0  0  0
 26 27  1  0  0  0
 27 28  1  0  0  0
 28 29  1  0  0  0
 28 22  1  0  0  0
 22 23  3  0  0  0
 23  1  1  0  0  0
  1  2  2  0  0  0
  2  3  1  0  0  0
  3  4  2  0  0  0
  4  5  1  0  0  0
  5  6  1  0  0  0
  6  7  1  0  0  0
  7  8  1  0  0  0
  7  9  1  0  0  0
  9 10  2  0  0  0
 10 11  1  0  0  0
 11 12  2  0  0  0
 12 13  1  0  0  0
 13 14  1  0  0  0
 14 15  2  0  0  0
 11 17  1  0  0  0
 17 18  1  0  0  0
 17 19  2  0  0  0
 28 30  1  0  0  0
 30 31  2  0  0  0
 30 25  1  0  0  0
 15  1  1  0  0  0
 14  4  1  0  0  0
 13  9  1  0  0  0
 29 32  1  0  0  0
  8 16  1  0  0  0
 18 20  1  0  0  0
 18 21  1  0  0  0
M  END
> <minimizedAffinity>
-7.70150

> <CNNscore>
0.3756948709

> <CNNaffinity>
6.4331688881

> <CNN_VS>
2.4169085026

> <CNNaffinity_variance>
0.5185973644

$$$$
[H]O[C@@](C#Cc1c([H])c2c(c([H])c1F)C1([H])C([H])([H])C([H])(n3c-2nc(C(=O)N([H])[H])c3C([H])([H])c2c([H])c([H])nn2C([H])([H])[H])C1([H])[H])(C([H])([H])[H])C([H])([H])OC([H])([H])[H]


 37 41  0  0  0  0  0  0  0  0999 V2000
   37.2219   16.3500   -6.4357 C   0  0  0  0  0  0  0  0  0  0  0  0
   38.1460   16.2891   -7.4645 C   0  0  0  0  0  0  0  0  0  0  0  0
   39.4938   16.1960   -7.2027 C   0  0  0  0  0  0  0  0  0  0  0  0
   40.3154   16.1418   -8.4344 C   0  0  0  0  0  0  0  0  0  0  0  0
   39.8731   16.2024   -9.6913 N   0  0  0  0  0  0  0  0  0  0  0  0
   40.9301   16.1193  -10.5622 C   0  0  0  0  0  0  0  0  0  0  0  0
   42.0481   16.0049   -9.7863 C   0  0  0  0  0  0  0  0  0  0  0  0
   41.6639   16.0192   -8.4831 N   0  0  0  0  0  0  0  0  0  0  0  0
   42.5645   15.9222   -7.3527 C   0  0  0  0  0  0  0  0  0  0  0  0
   42.2383   17.0165   -6.3190 C   0  0  0  0  0  0  0  0  0  0  0  0
   41.4064   16.0595   -5.4920 C   0  0  0  0  0  0  0  0  0  0  0  0
   42.0258   14.9349   -6.3154 C   0  0  0  0  0  0  0  0  0  0  0  0
   39.9664   16.1603   -5.8891 C   0  0  0  0  0  0  0  0  0  0  0  0
   39.0846   16.2182   -4.8701 C   0  0  0  0  0  0  0  0  0  0  0  0
   37.7395   16.3113   -5.1550 C   0  0  0  0  0  0  0  0  0  0  0  0
   36.8521   16.3695   -4.1334 F   0  0  0  0  0  0  0  0  0  0  0  0
   40.8195   16.1442  -12.0181 C   0  0  0  0  0  0  0  0  0  0  0  0
   40.0267   15.1148  -12.6530 N   0  0  0  0  0  0  0  0  0  0  0  0
   41.3361   16.9594  -12.7788 O   0  0  0  0  0  0  0  0  0  0  0  0
   40.4444   14.4881  -13.3774 H   0  0  0  0  0  0  0  0  0  0  0  0
   39.0234   14.9641  -12.4133 H   0  0  0  0  0  0  0  0  0  0  0  0
   34.6261   16.5075   -6.8921 C   0  0  0  0  0  0  0  0  0  0  0  0
   35.8089   16.4472   -6.6860 C   0  0  0  0  0  0  0  0  0  0  0  0
   33.1369   16.6116   -7.1541 C   0  0  0  0  0  0  0  0  0  0  0  0
   32.6522   17.9288   -6.6259 C   0  0  0  0  0  0  0  0  0  0  0  0
   32.9798   16.5279   -8.5445 O   0  0  0  0  0  0  0  0  0  0  0  0
   33.7190   16.0148   -8.9483 H   0  0  0  0  0  0  0  0  0  0  0  0
   32.5823   15.3968   -6.5074 C   0  0  0  0  0  0  0  0  0  0  0  0
   31.2461   13.6005   -7.2623 C   0  0  0  0  0  0  0  0  0  0  0  0
   32.3368   14.3834   -7.3669 O   0  0  0  0  0  0  0  0  0  0  0  0
   43.4592   15.8989  -10.2116 C   0  0  0  0  0  0  0  0  0  0  0  0
   43.9320   14.5181  -10.4252 C   0  0  0  0  0  0  0  0  0  0  0  0
   43.6151   13.7463  -11.5505 C   0  0  0  0  0  0  0  0  0  0  0  0
   44.2560   12.5306  -11.4380 C   0  0  0  0  0  0  0  0  0  0  0  0
   44.9257   12.6016  -10.2769 N   0  0  0  0  0  0  0  0  0  0  0  0
   44.7390   13.7701   -9.6766 N   0  0  0  0  0  0  0  0  0  0  0  0
   45.3757   14.1032   -8.4237 C   0  0  0  0  0  0  0  0  0  0  0  0
 29 30  1  0  0  0
 30 28  1  0  0  0
 28 24  1  0  0  0
 24 25  1  0  0  0
 24 26  1  0  0  0
 24 22  1  0  0  0
 22 23  3  0  0  0
 23  1  1  0  0  0
  1  2  1  0  0  0
  2  3  2  0  0  0
  3  4  1  0  0  0
  4  5  2  0  0  0
  5  6  1  0  0  0
  6 17  1  0  0  0
 17 18  1  0  0  0
 17 19  2  0  0  0
  6  7  2  0  0  0
  7 31  1  0  0  0
 31 32  1  0  0  0
 32 33  2  0  0  0
 33 34  1  0  0  0
 34 35  2  0  0  0
 35 36  1  0  0  0
 36 37  1  0  0  0
  7  8  1  0  0  0
  8  9  1  0  0  0
  9 10  1  0  0  0
 10 11  1  0  0  0
 11 12  1  0  0  0
 11 13  1  0  0  0
 13 14  2  0  0  0
 14 15  1  0  0  0
 15 16  1  0  0  0
 15  1  2  0  0  0
 13  3  1  0  0  0
  8  4  1  0  0  0
 12  9  1  0  0  0
 36 32  1  0  0  0
 26 27  1  0  0  0
 18 20  1  0  0  0
 18 21  1  0  0  0
M  END
> <minimizedAffinity>
-5.56095

> <CNNscore>
0.2292364985

> <CNNaffinity>
5.7719287872

> <CNN_VS>
1.3231366873

> <CNNaffinity_variance>
0.4588917196

$$$$
[H]O[C@@](C#Cc1c([H])c2c(c([H])c1F)C1([H])C([H])([H])C([H])(n3c-2nc(C(=O)N([H])[H])c3C([H])([H])c2c([H])c([H])nn2C([H])([H])[H])C1([H])[H])(C([H])([H])[H])C([H])([H])OC([H])([H])[H]


 37 41  0  0  0  0  0  0  0  0999 V2000
   40.4100   13.5388   -6.9686 C   0  0  0  0  0  0  0  0  0  0  0  0
   41.4540   13.5119   -7.8771 C   0  0  0  0  0  0  0  0  0  0  0  0
   42.7050   13.0737   -7.5072 C   0  0  0  0  0  0  0  0  0  0  0  0
   43.6820   13.1208   -8.6201 C   0  0  0  0  0  0  0  0  0  0  0  0
   43.4570   13.5556   -9.8609 N   0  0  0  0  0  0  0  0  0  0  0  0
   44.6017   13.4434  -10.6089 C   0  0  0  0  0  0  0  0  0  0  0  0
   45.5466   12.9194   -9.7738 C   0  0  0  0  0  0  0  0  0  0  0  0
   44.9759   12.7240   -8.5563 N   0  0  0  0  0  0  0  0  0  0  0  0
   45.6585   12.1840   -7.3984 C   0  0  0  0  0  0  0  0  0  0  0  0
   45.3846   13.0628   -6.1634 C   0  0  0  0  0  0  0  0  0  0  0  0
   44.2735   12.1477   -5.6947 C   0  0  0  0  0  0  0  0  0  0  0  0
   44.7941   11.1296   -6.7041 C   0  0  0  0  0  0  0  0  0  0  0  0
   42.9552   12.6433   -6.2025 C   0  0  0  0  0  0  0  0  0  0  0  0
   41.9532   12.6605   -5.2998 C   0  0  0  0  0  0  0  0  0  0  0  0
   40.7084   13.1033   -5.6915 C   0  0  0  0  0  0  0  0  0  0  0  0
   39.7006   13.1213   -4.7868 F   0  0  0  0  0  0  0  0  0  0  0  0
   44.7228   13.8173  -12.0154 C   0  0  0  0  0  0  0  0  0  0  0  0
   44.9809   15.2060  -12.3255 N   0  0  0  0  0  0  0  0  0  0  0  0
   44.6276   13.0673  -12.9842 O   0  0  0  0  0  0  0  0  0  0  0  0
   44.3337   15.7455  -12.9437 H   0  0  0  0  0  0  0  0  0  0  0  0
   45.8110   15.7109  -11.9479 H   0  0  0  0  0  0  0  0  0  0  0  0
   38.0034   14.3801   -7.6556 C   0  0  0  0  0  0  0  0  0  0  0  0
   39.0947   13.9924   -7.3332 C   0  0  0  0  0  0  0  0  0  0  0  0
   36.6166   14.8558   -8.0396 C   0  0  0  0  0  0  0  0  0  0  0  0
   36.6167   16.3553   -8.0589 C   0  0  0  0  0  0  0  0  0  0  0  0
   36.3626   14.3269   -9.3127 O   0  0  0  0  0  0  0  0  0  0  0  0
   36.8709   13.4932   -9.4513 H   0  0  0  0  0  0  0  0  0  0  0  0
   35.7347   14.2088   -7.0369 C   0  0  0  0  0  0  0  0  0  0  0  0
   33.6215   14.6212   -6.0644 C   0  0  0  0  0  0  0  0  0  0  0  0
   34.4368   14.5717   -7.1349 O   0  0  0  0  0  0  0  0  0  0  0  0
   46.9623   12.6093  -10.0617 C   0  0  0  0  0  0  0  0  0  0  0  0
   47.1737   11.3611  -10.8187 C   0  0  0  0  0  0  0  0  0  0  0  0
   46.8341   10.0883  -10.3424 C   0  0  0  0  0  0  0  0  0  0  0  0
   47.1316    9.1643  -11.3218 C   0  0  0  0  0  0  0  0  0  0  0  0
   47.6296    9.8878  -12.3367 N   0  0  0  0  0  0  0  0  0  0  0  0
   47.6561   11.1822  -12.0462 N   0  0  0  0  0  0  0  0  0  0  0  0
   48.1237   12.1736  -12.9866 C   0  0  0  0  0  0  0  0  0  0  0  0
 29 30  1  0  0  0
 30 28  1  0  0  0
 28 24  1  0  0  0
 24 25  1  0  0  0
 24 26  1  0  0  0
 24 22  1  0  0  0
 22 23  3  0  0  0
 23  1  1  0  0  0
  1  2  1  0  0  0
  2  3  2  0  0  0
  3  4  1  0  0  0
  4  5  2  0  0  0
  5  6  1  0  0  0
  6 17  1  0  0  0
 17 18  1  0  0  0
 17 19  2  0  0  0
  6  7  2  0  0  0
  7 31  1  0  0  0
 31 32  1  0  0  0
 32 33  2  0  0  0
 33 34  1  0  0  0
 34 35  2  0  0  0
 35 36  1  0  0  0
 36 37  1  0  0  0
  7  8  1  0  0  0
  8  9  1  0  0  0
  9 10  1  0  0  0
 10 11  1  0  0  0
 11 12  1  0  0  0
 11 13  1  0  0  0
 13 14  2  0  0  0
 14 15  1  0  0  0
 15 16  1  0  0  0
 15  1  2  0  0  0
 13  3  1  0  0  0
  8  4  1  0  0  0
 12  9  1  0  0  0
 36 32  1  0  0  0
 26 27  1  0  0  0
 18 20  1  0  0  0
 18 21  1  0  0  0
M  END
> <minimizedAffinity>
-5.32999

> <CNNscore>
0.2171151638

> <CNNaffinity>
5.6656541824

> <CNN_VS>
1.2300994396

> <CNNaffinity_variance>
0.1219263673

$$$$
[H]O[C@@](C#Cc1c([H])c2c(c([H])c1F)C1([H])C([H])([H])C([H])(n3c-2nc(C(=O)N([H])[H])c3C([H])([H])c2c([H])c([H])nn2C([H])([H])[H])C1([H])[H])(C([H])([H])[H])C([H])([H])OC([H])([H])[H]


 37 41  0  0  0  0  0  0  0  0999 V2000
   43.7431   15.2169   -9.5538 C   0  0  0  0  0  0  0  0  0  0  0  0
   42.3832   15.2694   -9.3014 C   0  0  0  0  0  0  0  0  0  0  0  0
   41.8001   14.4308   -8.3790 C   0  0  0  0  0  0  0  0  0  0  0  0
   40.3391   14.6427   -8.2535 C   0  0  0  0  0  0  0  0  0  0  0  0
   39.5966   15.5085   -8.9450 N   0  0  0  0  0  0  0  0  0  0  0  0
   38.2857   15.4178   -8.5503 C   0  0  0  0  0  0  0  0  0  0  0  0
   38.2503   14.4551   -7.5823 C   0  0  0  0  0  0  0  0  0  0  0  0
   39.5126   13.9843   -7.4053 N   0  0  0  0  0  0  0  0  0  0  0  0
   39.8863   12.9488   -6.4640 C   0  0  0  0  0  0  0  0  0  0  0  0
   40.7694   11.8946   -7.1578 C   0  0  0  0  0  0  0  0  0  0  0  0
   42.0372   12.5463   -6.6482 C   0  0  0  0  0  0  0  0  0  0  0  0
   41.1503   13.3447   -5.6981 C   0  0  0  0  0  0  0  0  0  0  0  0
   42.5667   13.5025   -7.6713 C   0  0  0  0  0  0  0  0  0  0  0  0
   43.8940   13.4332   -7.9005 C   0  0  0  0  0  0  0  0  0  0  0  0
   44.4571   14.2821   -8.8286 C   0  0  0  0  0  0  0  0  0  0  0  0
   45.7899   14.2144   -9.0603 F   0  0  0  0  0  0  0  0  0  0  0  0
   37.1919   16.2226   -9.0875 C   0  0  0  0  0  0  0  0  0  0  0  0
   36.3273   15.6145  -10.0744 N   0  0  0  0  0  0  0  0  0  0  0  0
   36.9194   17.3827   -8.7877 O   0  0  0  0  0  0  0  0  0  0  0  0
   36.2020   16.0491  -11.0165 H   0  0  0  0  0  0  0  0  0  0  0  0
   35.8055   14.7327   -9.8829 H   0  0  0  0  0  0  0  0  0  0  0  0
   44.9126   16.8161  -11.2992 C   0  0  0  0  0  0  0  0  0  0  0  0
   44.3736   16.0836  -10.5130 C   0  0  0  0  0  0  0  0  0  0  0  0
   45.5776   17.7275  -12.3112 C   0  0  0  0  0  0  0  0  0  0  0  0
   44.6112   17.9814  -13.4295 C   0  0  0  0  0  0  0  0  0  0  0  0
   45.8891   18.9093  -11.6248 O   0  0  0  0  0  0  0  0  0  0  0  0
   46.0210   18.7297  -10.6640 H   0  0  0  0  0  0  0  0  0  0  0  0
   46.8236   17.0047  -12.6671 C   0  0  0  0  0  0  0  0  0  0  0  0
   47.5273   15.7120  -14.5152 C   0  0  0  0  0  0  0  0  0  0  0  0
   46.6379   15.9936  -13.5442 O   0  0  0  0  0  0  0  0  0  0  0  0
   37.0854   13.9469   -6.8288 C   0  0  0  0  0  0  0  0  0  0  0  0
   36.7441   14.7314   -5.6272 C   0  0  0  0  0  0  0  0  0  0  0  0
   37.6041   15.6600   -5.0269 C   0  0  0  0  0  0  0  0  0  0  0  0
   36.9478   16.2318   -3.9574 C   0  0  0  0  0  0  0  0  0  0  0  0
   35.7398   15.6469   -3.9432 N   0  0  0  0  0  0  0  0  0  0  0  0
   35.6141   14.7629   -4.9247 N   0  0  0  0  0  0  0  0  0  0  0  0
   34.3952   14.0188   -5.1402 C   0  0  0  0  0  0  0  0  0  0  0  0
 29 30  1  0  0  0
 30 28  1  0  0  0
 28 24  1  0  0  0
 24 25  1  0  0  0
 24 26  1  0  0  0
 24 22  1  0  0  0
 22 23  3  0  0  0
 23  1  1  0  0  0
  1  2  1  0  0  0
  2  3  2  0  0  0
  3  4  1  0  0  0
  4  5  2  0  0  0
  5  6  1  0  0  0
  6 17  1  0  0  0
 17 18  1  0  0  0
 17 19  2  0  0  0
  6  7  2  0  0  0
  7 31  1  0  0  0
 31 32  1  0  0  0
 32 33  2  0  0  0
 33 34  1  0  0  0
 34 35  2  0  0  0
 35 36  1  0  0  0
 36 37  1  0  0  0
  7  8  1  0  0  0
  8  9  1  0  0  0
  9 10  1  0  0  0
 10 11  1  0  0  0
 11 12  1  0  0  0
 11 13  1  0  0  0
 13 14  2  0  0  0
 14 15  1  0  0  0
 15 16  1  0  0  0
 15  1  2  0  0  0
 13  3  1  0  0  0
  8  4  1  0  0  0
 12  9  1  0  0  0
 36 32  1  0  0  0
 26 27  1  0  0  0
 18 20  1  0  0  0
 18 21  1  0  0  0
M  END
> <minimizedAffinity>
-5.34083

> <CNNscore>
0.1982630044

> <CNNaffinity>
5.6160879135

> <CNN_VS>
1.1134624481

> <CNNaffinity_variance>
0.1356492490

$$$$
[H]O[C@@](C#Cc1c([H])c2c(c([H])c1F)C1([H])C([H])([H])C([H])(n3c-2nc(C(=O)N([H])[H])c3C([H])([H])c2c([H])c([H])nn2C([H])([H])[H])C1([H])[H])(C([H])([H])[H])C([H])([H])OC([H])([H])[H]


 37 41  0  0  0  0  0  0  0  0999 V2000
   37.7164   15.9657   -6.3225 C   0  0  0  0  0  0  0  0  0  0  0  0
   38.5358   15.9417   -7.4379 C   0  0  0  0  0  0  0  0  0  0  0  0
   39.8352   15.4963   -7.3541 C   0  0  0  0  0  0  0  0  0  0  0  0
   40.5448   15.5480   -8.6537 C   0  0  0  0  0  0  0  0  0  0  0  0
   40.0555   15.9928   -9.8122 N   0  0  0  0  0  0  0  0  0  0  0  0
   41.0078   15.8821  -10.7937 C   0  0  0  0  0  0  0  0  0  0  0  0
   42.1101   15.3484  -10.1894 C   0  0  0  0  0  0  0  0  0  0  0  0
   41.8191   15.1461   -8.8777 N   0  0  0  0  0  0  0  0  0  0  0  0
   42.7361   14.5950   -7.9010 C   0  0  0  0  0  0  0  0  0  0  0  0
   42.7440   15.4657   -6.6304 C   0  0  0  0  0  0  0  0  0  0  0  0
   41.7580   14.5511   -5.9354 C   0  0  0  0  0  0  0  0  0  0  0  0
   42.0394   13.5386   -7.0410 C   0  0  0  0  0  0  0  0  0  0  0  0
   40.3630   15.0553   -6.1387 C   0  0  0  0  0  0  0  0  0  0  0  0
   39.5833   15.0694   -5.0383 C   0  0  0  0  0  0  0  0  0  0  0  0
   38.2852   15.5196   -5.1448 C   0  0  0  0  0  0  0  0  0  0  0  0
   37.5003   15.5346   -4.0410 F   0  0  0  0  0  0  0  0  0  0  0  0
   40.8197   16.2659  -12.1901 C   0  0  0  0  0  0  0  0  0  0  0  0
   39.7156   15.6720  -12.9109 N   0  0  0  0  0  0  0  0  0  0  0  0
   41.5096   17.0533  -12.8333 O   0  0  0  0  0  0  0  0  0  0  0  0
   39.8791   15.1341  -13.7918 H   0  0  0  0  0  0  0  0  0  0  0  0
   38.7305   15.7588  -12.5812 H   0  0  0  0  0  0  0  0  0  0  0  0
   35.2120   16.7946   -6.4308 C   0  0  0  0  0  0  0  0  0  0  0  0
   36.3556   16.4268   -6.3870 C   0  0  0  0  0  0  0  0  0  0  0  0
   33.7786   17.2825   -6.4976 C   0  0  0  0  0  0  0  0  0  0  0  0
   33.7398   18.7087   -6.0357 C   0  0  0  0  0  0  0  0  0  0  0  0
   33.3909   17.1679   -7.8399 O   0  0  0  0  0  0  0  0  0  0  0  0
   33.8998   16.4527   -8.2895 H   0  0  0  0  0  0  0  0  0  0  0  0
   33.0358   16.3003   -5.6699 C   0  0  0  0  0  0  0  0  0  0  0  0
   32.1861   14.1036   -5.8553 C   0  0  0  0  0  0  0  0  0  0  0  0
   33.1305   15.0278   -6.1146 O   0  0  0  0  0  0  0  0  0  0  0  0
   43.4266   15.0353  -10.7826 C   0  0  0  0  0  0  0  0  0  0  0  0
   44.3428   16.1871  -10.8819 C   0  0  0  0  0  0  0  0  0  0  0  0
   44.7728   16.9436   -9.7841 C   0  0  0  0  0  0  0  0  0  0  0  0
   45.6476   17.9084  -10.2372 C   0  0  0  0  0  0  0  0  0  0  0  0
   45.7195   17.7113  -11.5630 N   0  0  0  0  0  0  0  0  0  0  0  0
   44.9537   16.6985  -11.9480 N   0  0  0  0  0  0  0  0  0  0  0  0
   44.8791   16.2687  -13.3248 C   0  0  0  0  0  0  0  0  0  0  0  0
 29 30  1  0  0  0
 30 28  1  0  0  0
 28 24  1  0  0  0
 24 25  1  0  0  0
 24 26  1  0  0  0
 24 22  1  0  0  0
 22 23  3  0  0  0
 23  1  1  0  0  0
  1  2  1  0  0  0
  2  3  2  0  0  0
  3  4  1  0  0  0
  4  5  2  0  0  0
  5  6  1  0  0  0
  6 17  1  0  0  0
 17 18  1  0  0  0
 17 19  2  0  0  0
  6  7  2  0  0  0
  7 31  1  0  0  0
 31 32  1  0  0  0
 32 33  2  0  0  0
 33 34  1  0  0  0
 34 35  2  0  0  0
 35 36  1  0  0  0
 36 37  1  0  0  0
  7  8  1  0  0  0
  8  9  1  0  0  0
  9 10  1  0  0  0
 10 11  1  0  0  0
 11 12  1  0  0  0
 11 13  1  0  0  0
 13 14  2  0  0  0
 14 15  1  0  0  0
 15 16  1  0  0  0
 15  1  2  0  0  0
 13  3  1  0  0  0
  8  4  1  0  0  0
 12  9  1  0  0  0
 36 32  1  0  0  0
 26 27  1  0  0  0
 18 20  1  0  0  0
 18 21  1  0  0  0
M  END
> <minimizedAffinity>
-5.39270

> <CNNscore>
0.1964460164

> <CNNaffinity>
5.7738170624

> <CNN_VS>
1.1342433691

> <CNNaffinity_variance>
0.1877690852

$$$$
[H]O[C@@](C#Cc1c([H])c2c(c([H])c1F)C1([H])C([H])([H])C([H])(n3c-2nc(C(=O)N([H])[H])c3C([H])([H])c2c([H])c([H])nn2C([H])([H])[H])C1([H])[H])(C([H])([H])[H])C([H])([H])OC([H])([H])[H]


 37 41  0  0  0  0  0  0  0  0999 V2000
   33.5442   14.6939   -6.7298 C   0  0  0  0  0  0  0  0  0  0  0  0
   34.7395   15.1883   -7.2223 C   0  0  0  0  0  0  0  0  0  0  0  0
   35.9088   15.0587   -6.5083 C   0  0  0  0  0  0  0  0  0  0  0  0
   37.0751   15.6507   -7.2043 C   0  0  0  0  0  0  0  0  0  0  0  0
   37.0664   16.2824   -8.3790 N   0  0  0  0  0  0  0  0  0  0  0  0
   38.3371   16.6891   -8.6991 C   0  0  0  0  0  0  0  0  0  0  0  0
   39.1335   16.2805   -7.6678 C   0  0  0  0  0  0  0  0  0  0  0  0
   38.3534   15.6444   -6.7550 N   0  0  0  0  0  0  0  0  0  0  0  0
   38.8311   15.0681   -5.5150 C   0  0  0  0  0  0  0  0  0  0  0  0
   37.9332   15.5099   -4.3440 C   0  0  0  0  0  0  0  0  0  0  0  0
   37.1318   14.2271   -4.4069 C   0  0  0  0  0  0  0  0  0  0  0  0
   38.2364   13.6745   -5.3020 C   0  0  0  0  0  0  0  0  0  0  0  0
   35.9206   14.4232   -5.2648 C   0  0  0  0  0  0  0  0  0  0  0  0
   34.7679   13.9333   -4.7646 C   0  0  0  0  0  0  0  0  0  0  0  0
   33.6086   14.0742   -5.4963 C   0  0  0  0  0  0  0  0  0  0  0  0
   32.4498   13.5829   -4.9960 F   0  0  0  0  0  0  0  0  0  0  0  0
   38.7052   17.4044   -9.9179 C   0  0  0  0  0  0  0  0  0  0  0  0
   39.5316   16.7138  -10.8830 N   0  0  0  0  0  0  0  0  0  0  0  0
   38.3842   18.5514  -10.2202 O   0  0  0  0  0  0  0  0  0  0  0  0
   40.4483   17.1136  -11.1860 H   0  0  0  0  0  0  0  0  0  0  0  0
   39.2452   15.8045  -11.3047 H   0  0  0  0  0  0  0  0  0  0  0  0
   31.2905   14.9263   -8.0856 C   0  0  0  0  0  0  0  0  0  0  0  0
   32.3105   14.8178   -7.4588 C   0  0  0  0  0  0  0  0  0  0  0  0
   29.9900   15.0547   -8.8533 C   0  0  0  0  0  0  0  0  0  0  0  0
   29.1327   13.8652   -8.5385 C   0  0  0  0  0  0  0  0  0  0  0  0
   29.3951   16.2457   -8.4142 O   0  0  0  0  0  0  0  0  0  0  0  0
   30.0803   16.8830   -8.1027 H   0  0  0  0  0  0  0  0  0  0  0  0
   30.4288   15.1973  -10.2635 C   0  0  0  0  0  0  0  0  0  0  0  0
   29.4618   14.5005  -12.3034 C   0  0  0  0  0  0  0  0  0  0  0  0
   29.9609   14.2296  -11.0824 O   0  0  0  0  0  0  0  0  0  0  0  0
   40.5879   16.4735   -7.4930 C   0  0  0  0  0  0  0  0  0  0  0  0
   40.9789   17.0252   -6.1821 C   0  0  0  0  0  0  0  0  0  0  0  0
   40.4092   18.1712   -5.6125 C   0  0  0  0  0  0  0  0  0  0  0  0
   40.9814   18.3711   -4.3739 C   0  0  0  0  0  0  0  0  0  0  0  0
   41.8583   17.3645   -4.2342 N   0  0  0  0  0  0  0  0  0  0  0  0
   41.8605   16.5685   -5.2958 N   0  0  0  0  0  0  0  0  0  0  0  0
   42.6992   15.3956   -5.3777 C   0  0  0  0  0  0  0  0  0  0  0  0
 29 30  1  0  0  0
 30 28  1  0  0  0
 28 24  1  0  0  0
 24 25  1  0  0  0
 24 26  1  0  0  0
 24 22  1  0  0  0
 22 23  3  0  0  0
 23  1  1  0  0  0
  1  2  1  0  0  0
  2  3  2  0  0  0
  3  4  1  0  0  0
  4  5  2  0  0  0
  5  6  1  0  0  0
  6 17  1  0  0  0
 17 18  1  0  0  0
 17 19  2  0  0  0
  6  7  2  0  0  0
  7 31  1  0  0  0
 31 32  1  0  0  0
 32 33  2  0  0  0
 33 34  1  0  0  0
 34 35  2  0  0  0
 35 36  1  0  0  0
 36 37  1  0  0  0
  7  8  1  0  0  0
  8  9  1  0  0  0
  9 10  1  0  0  0
 10 11  1  0  0  0
 11 12  1  0  0  0
 11 13  1  0  0  0
 13 14  2  0  0  0
 14 15  1  0  0  0
 15 16  1  0  0  0
 15  1  2  0  0  0
 13  3  1  0  0  0
  8  4  1  0  0  0
 12  9  1  0  0  0
 36 32  1  0  0  0
 26 27  1  0  0  0
 18 20  1  0  0  0
 18 21  1  0  0  0
M  END
> <minimizedAffinity>
-6.20745

> <CNNscore>
0.1959641725

> <CNNaffinity>
5.9228096008

> <CNN_VS>
1.1606584787

> <CNNaffinity_variance>
0.2624844611

$$$$
[H]O[C@@](C#Cc1c([H])c2c(c([H])c1F)C1([H])C([H])([H])C([H])(n3c-2nc(C(=O)N([H])[H])c3C([H])([H])c2c([H])c([H])nn2C([H])([H])[H])C1([H])[H])(C([H])([H])[H])C([H])([H])OC([H])([H])[H]


 37 41  0  0  0  0  0  0  0  0999 V2000
   34.0802   16.2337   -5.4620 C   0  0  0  0  0  0  0  0  0  0  0  0
   35.2952   16.2168   -6.1249 C   0  0  0  0  0  0  0  0  0  0  0  0
   36.4460   15.8145   -5.4866 C   0  0  0  0  0  0  0  0  0  0  0  0
   37.6380   15.8665   -6.3651 C   0  0  0  0  0  0  0  0  0  0  0  0
   37.6760   16.2756   -7.6341 N   0  0  0  0  0  0  0  0  0  0  0  0
   38.9565   16.1785   -8.1171 C   0  0  0  0  0  0  0  0  0  0  0  0
   39.7104   15.6907   -7.0881 C   0  0  0  0  0  0  0  0  0  0  0  0
   38.8956   15.5016   -6.0173 N   0  0  0  0  0  0  0  0  0  0  0  0
   39.3243   14.9969   -4.7289 C   0  0  0  0  0  0  0  0  0  0  0  0
   38.7744   15.8890   -3.6000 C   0  0  0  0  0  0  0  0  0  0  0  0
   37.6069   14.9555   -3.3611 C   0  0  0  0  0  0  0  0  0  0  0  0
   38.3519   13.9337   -4.2140 C   0  0  0  0  0  0  0  0  0  0  0  0
   36.4188   15.4114   -4.1498 C   0  0  0  0  0  0  0  0  0  0  0  0
   35.2463   15.4195   -3.4832 C   0  0  0  0  0  0  0  0  0  0  0  0
   34.1061   15.8262   -4.1417 C   0  0  0  0  0  0  0  0  0  0  0  0
   32.9274   15.8351   -3.4745 F   0  0  0  0  0  0  0  0  0  0  0  0
   39.3693   16.5321   -9.4725 C   0  0  0  0  0  0  0  0  0  0  0  0
   38.8078   17.7288  -10.0590 N   0  0  0  0  0  0  0  0  0  0  0  0
   40.1566   15.9128  -10.1842 O   0  0  0  0  0  0  0  0  0  0  0  0
   38.2836   17.6870  -10.9621 H   0  0  0  0  0  0  0  0  0  0  0  0
   38.9054   18.6631   -9.6072 H   0  0  0  0  0  0  0  0  0  0  0  0
   31.8542   17.0181   -6.6456 C   0  0  0  0  0  0  0  0  0  0  0  0
   32.8651   16.6500   -6.1093 C   0  0  0  0  0  0  0  0  0  0  0  0
   30.5745   17.4556   -7.3297 C   0  0  0  0  0  0  0  0  0  0  0  0
   29.8974   18.4758   -6.4640 C   0  0  0  0  0  0  0  0  0  0  0  0
   30.9595   18.0030   -8.5615 O   0  0  0  0  0  0  0  0  0  0  0  0
   31.8074   17.6048   -8.8699 H   0  0  0  0  0  0  0  0  0  0  0  0
   29.8417   16.1839   -7.5473 C   0  0  0  0  0  0  0  0  0  0  0  0
   29.8704   14.4583   -9.1608 C   0  0  0  0  0  0  0  0  0  0  0  0
   29.8447   15.7637   -8.8316 O   0  0  0  0  0  0  0  0  0  0  0  0
   41.1606   15.4095   -7.0595 C   0  0  0  0  0  0  0  0  0  0  0  0
   42.0040   16.5761   -6.7376 C   0  0  0  0  0  0  0  0  0  0  0  0
   41.8049   17.4044   -5.6256 C   0  0  0  0  0  0  0  0  0  0  0  0
   42.7959   18.3632   -5.6150 C   0  0  0  0  0  0  0  0  0  0  0  0
   43.5470   18.0927   -6.6941 N   0  0  0  0  0  0  0  0  0  0  0  0
   43.0855   17.0409   -7.3585 N   0  0  0  0  0  0  0  0  0  0  0  0
   43.7362   16.5317   -8.5431 C   0  0  0  0  0  0  0  0  0  0  0  0
 29 30  1  0  0  0
 30 28  1  0  0  0
 28 24  1  0  0  0
 24 25  1  0  0  0
 24 26  1  0  0  0
 24 22  1  0  0  0
 22 23  3  0  0  0
 23  1  1  0  0  0
  1  2  1  0  0  0
  2  3  2  0  0  0
  3  4  1  0  0  0
  4  5  2  0  0  0
  5  6  1  0  0  0
  6 17  1  0  0  0
 17 18  1  0  0  0
 17 19  2  0  0  0
  6  7  2  0  0  0
  7 31  1  0  0  0
 31 32  1  0  0  0
 32 33  2  0  0  0
 33 34  1  0  0  0
 34 35  2  0  0  0
 35 36  1  0  0  0
 36 37  1  0  0  0
  7  8  1  0  0  0
  8  9  1  0  0  0
  9 10  1  0  0  0
 10 11  1  0  0  0
 11 12  1  0  0  0
 11 13  1  0  0  0
 13 14  2  0  0  0
 14 15  1  0  0  0
 15 16  1  0  0  0
 15  1  2  0  0  0
 13  3  1  0  0  0
  8  4  1  0  0  0
 12  9  1  0  0  0
 36 32  1  0  0  0
 26 27  1  0  0  0
 18 20  1  0  0  0
 18 21  1  0  0  0
M  END
> <minimizedAffinity>
-6.05333

> <CNNscore>
0.1627881080

> <CNNaffinity>
5.8039708138

> <CNN_VS>
0.9448174238

> <CNNaffinity_variance>
0.3530999422

$$$$
[H]O[C@@](C#Cc1c([H])c2c(c([H])c1F)C1([H])C([H])([H])C([H])(n3c-2nc(C(=O)N([H])[H])c3C([H])([H])c2c([H])c([H])nn2C([H])([H])[H])C1([H])[H])(C([H])([H])[H])C([H])([H])OC([H])([H])[H]


 37 41  0  0  0  0  0  0  0  0999 V2000
   40.0299   12.9275  -15.1067 C   0  0  0  0  0  0  0  0  0  0  0  0
   39.5077   13.7507  -14.1241 C   0  0  0  0  0  0  0  0  0  0  0  0
   38.1698   13.7127  -13.8041 C   0  0  0  0  0  0  0  0  0  0  0  0
   37.8092   14.6669  -12.7296 C   0  0  0  0  0  0  0  0  0  0  0  0
   38.6279   15.5215  -12.1142 N   0  0  0  0  0  0  0  0  0  0  0  0
   37.9320   16.2392  -11.1744 C   0  0  0  0  0  0  0  0  0  0  0  0
   36.6439   15.7900  -11.2365 C   0  0  0  0  0  0  0  0  0  0  0  0
   36.5758   14.8262  -12.1919 N   0  0  0  0  0  0  0  0  0  0  0  0
   35.3733   14.1066  -12.5586 C   0  0  0  0  0  0  0  0  0  0  0  0
   35.2100   14.0921  -14.0902 C   0  0  0  0  0  0  0  0  0  0  0  0
   35.8336   12.7167  -14.1953 C   0  0  0  0  0  0  0  0  0  0  0  0
   35.6569   12.6083  -12.6841 C   0  0  0  0  0  0  0  0  0  0  0  0
   37.3012   12.8405  -14.4637 C   0  0  0  0  0  0  0  0  0  0  0  0
   37.7874   12.0287  -15.4248 C   0  0  0  0  0  0  0  0  0  0  0  0
   39.1303   12.0833  -15.7294 C   0  0  0  0  0  0  0  0  0  0  0  0
   39.6209   11.2690  -16.6941 F   0  0  0  0  0  0  0  0  0  0  0  0
   38.5091   17.2601  -10.3043 C   0  0  0  0  0  0  0  0  0  0  0  0
   39.5373   16.8515   -9.3730 N   0  0  0  0  0  0  0  0  0  0  0  0
   38.2117   18.4520  -10.2751 O   0  0  0  0  0  0  0  0  0  0  0  0
   39.4247   17.0130   -8.3468 H   0  0  0  0  0  0  0  0  0  0  0  0
   40.4157   16.3875   -9.6892 H   0  0  0  0  0  0  0  0  0  0  0  0
   42.5953   12.9639  -15.7302 C   0  0  0  0  0  0  0  0  0  0  0  0
   41.4247   12.9502  -15.4572 C   0  0  0  0  0  0  0  0  0  0  0  0
   44.0647   12.9861  -16.1014 C   0  0  0  0  0  0  0  0  0  0  0  0
   44.3497   11.8087  -16.9853 C   0  0  0  0  0  0  0  0  0  0  0  0
   44.2772   14.1965  -16.7758 O   0  0  0  0  0  0  0  0  0  0  0  0
   43.6277   14.8779  -16.4815 H   0  0  0  0  0  0  0  0  0  0  0  0
   44.7566   13.0089  -14.7890 C   0  0  0  0  0  0  0  0  0  0  0  0
   47.1184   12.9668  -14.7479 C   0  0  0  0  0  0  0  0  0  0  0  0
   45.9287   12.3367  -14.7769 O   0  0  0  0  0  0  0  0  0  0  0  0
   35.4730   16.2346  -10.4525 C   0  0  0  0  0  0  0  0  0  0  0  0
   35.2833   15.5193   -9.1766 C   0  0  0  0  0  0  0  0  0  0  0  0
   36.2889   14.7888   -8.5304 C   0  0  0  0  0  0  0  0  0  0  0  0
   35.7751   14.2913   -7.3514 C   0  0  0  0  0  0  0  0  0  0  0  0
   34.5054   14.7256   -7.3198 N   0  0  0  0  0  0  0  0  0  0  0  0
   34.2106   15.4498   -8.3918 N   0  0  0  0  0  0  0  0  0  0  0  0
   32.9126   16.0545   -8.5801 C   0  0  0  0  0  0  0  0  0  0  0  0
 29 30  1  0  0  0
 30 28  1  0  0  0
 28 24  1  0  0  0
 24 25  1  0  0  0
 24 26  1  0  0  0
 24 22  1  0  0  0
 22 23  3  0  0  0
 23  1  1  0  0  0
  1  2  1  0  0  0
  2  3  2  0  0  0
  3  4  1  0  0  0
  4  5  2  0  0  0
  5  6  1  0  0  0
  6 17  1  0  0  0
 17 18  1  0  0  0
 17 19  2  0  0  0
  6  7  2  0  0  0
  7 31  1  0  0  0
 31 32  1  0  0  0
 32 33  2  0  0  0
 33 34  1  0  0  0
 34 35  2  0  0  0
 35 36  1  0  0  0
 36 37  1  0  0  0
  7  8  1  0  0  0
  8  9  1  0  0  0
  9 10  1  0  0  0
 10 11  1  0  0  0
 11 12  1  0  0  0
 11 13  1  0  0  0
 13 14  2  0  0  0
 14 15  1  0  0  0
 15 16  1  0  0  0
 15  1  2  0  0  0
 13  3  1  0  0  0
  8  4  1  0  0  0
 12  9  1  0  0  0
 36 32  1  0  0  0
 26 27  1  0  0  0
 18 20  1  0  0  0
 18 21  1  0  0  0
M  END
> <minimizedAffinity>
-9.66750

> <CNNscore>
0.1330161542

> <CNNaffinity>
6.2095608711

> <CNN_VS>
0.8259719014

> <CNNaffinity_variance>
0.3180605769

$$$$
[H]O[C@@](C#Cc1c([H])c2c(c([H])c1F)C1([H])C([H])([H])C([H])(n3c-2nc(C(=O)N([H])[H])c3C([H])([H])c2c([H])c([H])nn2C([H])([H])[H])C1([H])[H])(C([H])([H])[H])C([H])([H])OC([H])([H])[H]


 37 41  0  0  0  0  0  0  0  0999 V2000
   42.5125   13.8933   -8.1659 C   0  0  0  0  0  0  0  0  0  0  0  0
   41.4070   14.7082   -8.3388 C   0  0  0  0  0  0  0  0  0  0  0  0
   40.4718   14.8563   -7.3401 C   0  0  0  0  0  0  0  0  0  0  0  0
   39.3674   15.7686   -7.7185 C   0  0  0  0  0  0  0  0  0  0  0  0
   39.2117   16.3898   -8.8885 N   0  0  0  0  0  0  0  0  0  0  0  0
   38.0707   17.1513   -8.8639 C   0  0  0  0  0  0  0  0  0  0  0  0
   37.5262   16.9727   -7.6243 C   0  0  0  0  0  0  0  0  0  0  0  0
   38.3264   16.1240   -6.9274 N   0  0  0  0  0  0  0  0  0  0  0  0
   38.0838   15.6845   -5.5686 C   0  0  0  0  0  0  0  0  0  0  0  0
   38.2360   14.1549   -5.4706 C   0  0  0  0  0  0  0  0  0  0  0  0
   39.6601   14.2768   -4.9719 C   0  0  0  0  0  0  0  0  0  0  0  0
   39.3680   15.7558   -4.7398 C   0  0  0  0  0  0  0  0  0  0  0  0
   40.6136   14.1871   -6.1226 C   0  0  0  0  0  0  0  0  0  0  0  0
   41.6829   13.3876   -5.9312 C   0  0  0  0  0  0  0  0  0  0  0  0
   42.6070   13.2536   -6.9447 C   0  0  0  0  0  0  0  0  0  0  0  0
   43.6817   12.4513   -6.7547 F   0  0  0  0  0  0  0  0  0  0  0  0
   37.5897   17.9751   -9.9697 C   0  0  0  0  0  0  0  0  0  0  0  0
   36.6671   17.3749  -10.9077 N   0  0  0  0  0  0  0  0  0  0  0  0
   37.8883   19.1454  -10.1960 O   0  0  0  0  0  0  0  0  0  0  0  0
   36.8888   17.3396  -11.9282 H   0  0  0  0  0  0  0  0  0  0  0  0
   35.7601   16.9618  -10.6022 H   0  0  0  0  0  0  0  0  0  0  0  0
   44.3194   13.5651  -10.0629 C   0  0  0  0  0  0  0  0  0  0  0  0
   43.5023   13.7240   -9.1956 C   0  0  0  0  0  0  0  0  0  0  0  0
   45.3620   13.3890  -11.1488 C   0  0  0  0  0  0  0  0  0  0  0  0
   46.0457   14.7053  -11.3695 C   0  0  0  0  0  0  0  0  0  0  0  0
   46.2569   12.4196  -10.6751 O   0  0  0  0  0  0  0  0  0  0  0  0
   45.8083   11.8111  -10.0418 H   0  0  0  0  0  0  0  0  0  0  0  0
   44.5874   12.8477  -12.2928 C   0  0  0  0  0  0  0  0  0  0  0  0
   42.8075   13.8919  -13.4432 C   0  0  0  0  0  0  0  0  0  0  0  0
   44.1138   13.7964  -13.1304 O   0  0  0  0  0  0  0  0  0  0  0  0
   36.2832   17.5486   -7.0709 C   0  0  0  0  0  0  0  0  0  0  0  0
   36.4439   18.8839   -6.4653 C   0  0  0  0  0  0  0  0  0  0  0  0
   36.5014   20.0758   -7.1992 C   0  0  0  0  0  0  0  0  0  0  0  0
   36.6140   21.1265   -6.3133 C   0  0  0  0  0  0  0  0  0  0  0  0
   36.6205   20.5532   -5.0996 N   0  0  0  0  0  0  0  0  0  0  0  0
   36.5200   19.2328   -5.1832 N   0  0  0  0  0  0  0  0  0  0  0  0
   36.4771   18.3876   -4.0128 C   0  0  0  0  0  0  0  0  0  0  0  0
 29 30  1  0  0  0
 30 28  1  0  0  0
 28 24  1  0  0  0
 24 25  1  0  0  0
 24 26  1  0  0  0
 24 22  1  0  0  0
 22 23  3  0  0  0
 23  1  1  0  0  0
  1  2  1  0  0  0
  2  3  2  0  0  0
  3  4  1  0  0  0
  4  5  2  0  0  0
  5  6  1  0  0  0
  6 17  1  0  0  0
 17 18  1  0  0  0
 17 19  2  0  0  0
  6  7  2  0  0  0
  7 31  1  0  0  0
 31 32  1  0  0  0
 32 33  2  0  0  0
 33 34  1  0  0  0
 34 35  2  0  0  0
 35 36  1  0  0  0
 36 37  1  0  0  0
  7  8  1  0  0  0
  8  9  1  0  0  0
  9 10  1  0  0  0
 10 11  1  0  0  0
 11 12  1  0  0  0
 11 13  1  0  0  0
 13 14  2  0  0  0
 14 15  1  0  0  0
 15 16  1  0  0  0
 15  1  2  0  0  0
 13  3  1  0  0  0
  8  4  1  0  0  0
 12  9  1  0  0  0
 36 32  1  0  0  0
 26 27  1  0  0  0
 18 20  1  0  0  0
 18 21  1  0  0  0
M  END
> <minimizedAffinity>
-5.53571

> <CNNscore>
0.1218375713

> <CNNaffinity>
5.6835279465

> <CNN_VS>
0.6924672127

> <CNNaffinity_variance>
0.1585860401

$$$$
[H]O[C@@](C#Cc1c([H])c2c(c([H])c1F)C1([H])C([H])([H])C([H])(n3c-2nc(C(=O)N([H])[H])c3C([H])([H])c2c([H])c([H])nn2C([H])([H])[H])C1([H])[H])(C([H])([H])[H])C([H])([H])OC([H])([H])[H]


 37 41  0  0  0  0  0  0  0  0999 V2000
   33.6267   14.7279   -6.6746 C   0  0  0  0  0  0  0  0  0  0  0  0
   34.8197   15.1828   -7.2093 C   0  0  0  0  0  0  0  0  0  0  0  0
   35.9906   15.1168   -6.4893 C   0  0  0  0  0  0  0  0  0  0  0  0
   37.1539   15.6517   -7.2348 C   0  0  0  0  0  0  0  0  0  0  0  0
   37.1412   16.1829   -8.4583 N   0  0  0  0  0  0  0  0  0  0  0  0
   38.4100   16.5650   -8.8139 C   0  0  0  0  0  0  0  0  0  0  0  0
   39.2095   16.2464   -7.7536 C   0  0  0  0  0  0  0  0  0  0  0  0
   38.4330   15.6868   -6.7892 N   0  0  0  0  0  0  0  0  0  0  0  0
   38.9146   15.2177   -5.5061 C   0  0  0  0  0  0  0  0  0  0  0  0
   38.0175   15.7535   -4.3745 C   0  0  0  0  0  0  0  0  0  0  0  0
   37.2199   14.4676   -4.3282 C   0  0  0  0  0  0  0  0  0  0  0  0
   38.3245   13.8452   -5.1760 C   0  0  0  0  0  0  0  0  0  0  0  0
   36.0066   14.5877   -5.1970 C   0  0  0  0  0  0  0  0  0  0  0  0
   34.8562   14.1381   -4.6551 C   0  0  0  0  0  0  0  0  0  0  0  0
   33.6952   14.2139   -5.3937 C   0  0  0  0  0  0  0  0  0  0  0  0
   32.5388   13.7630   -4.8517 F   0  0  0  0  0  0  0  0  0  0  0  0
   38.7739   17.1767  -10.0890 C   0  0  0  0  0  0  0  0  0  0  0  0
   39.4318   16.3463  -11.0733 N   0  0  0  0  0  0  0  0  0  0  0  0
   38.5791   18.3425  -10.4249 O   0  0  0  0  0  0  0  0  0  0  0  0
   40.3666   16.6111  -11.4581 H   0  0  0  0  0  0  0  0  0  0  0  0
   39.0019   15.4657  -11.4288 H   0  0  0  0  0  0  0  0  0  0  0  0
   31.3700   14.8401   -8.0406 C   0  0  0  0  0  0  0  0  0  0  0  0
   32.3914   14.7868   -7.4090 C   0  0  0  0  0  0  0  0  0  0  0  0
   30.0677   14.9000   -8.8137 C   0  0  0  0  0  0  0  0  0  0  0  0
   29.2477   13.6958   -8.4578 C   0  0  0  0  0  0  0  0  0  0  0  0
   29.4345   16.0863   -8.4178 O   0  0  0  0  0  0  0  0  0  0  0  0
   30.0985   16.7557   -8.1283 H   0  0  0  0  0  0  0  0  0  0  0  0
   30.5049   15.0064  -10.2275 C   0  0  0  0  0  0  0  0  0  0  0  0
   29.4685   14.5673  -12.3048 C   0  0  0  0  0  0  0  0  0  0  0  0
   29.8405   14.1836  -11.0689 O   0  0  0  0  0  0  0  0  0  0  0  0
   40.6637   16.4575   -7.5984 C   0  0  0  0  0  0  0  0  0  0  0  0
   41.4973   15.3234   -8.0396 C   0  0  0  0  0  0  0  0  0  0  0  0
   41.4384   14.0418   -7.4772 C   0  0  0  0  0  0  0  0  0  0  0  0
   42.3202   13.2282   -8.1567 C   0  0  0  0  0  0  0  0  0  0  0  0
   42.8725   14.0221   -9.0875 N   0  0  0  0  0  0  0  0  0  0  0  0
   42.3911   15.2569   -9.0235 N   0  0  0  0  0  0  0  0  0  0  0  0
   42.8070   16.2945   -9.9380 C   0  0  0  0  0  0  0  0  0  0  0  0
 29 30  1  0  0  0
 30 28  1  0  0  0
 28 24  1  0  0  0
 24 25  1  0  0  0
 24 26  1  0  0  0
 24 22  1  0  0  0
 22 23  3  0  0  0
 23  1  1  0  0  0
  1  2  1  0  0  0
  2  3  2  0  0  0
  3  4  1  0  0  0
  4  5  2  0  0  0
  5  6  1  0  0  0
  6 17  1  0  0  0
 17 18  1  0  0  0
 17 19  2  0  0  0
  6  7  2  0  0  0
  7 31  1  0  0  0
 31 32  1  0  0  0
 32 33  2  0  0  0
 33 34  1  0  0  0
 34 35  2  0  0  0
 35 36  1  0  0  0
 36 37  1  0  0  0
  7  8  1  0  0  0
  8  9  1  0  0  0
  9 10  1  0  0  0
 10 11  1  0  0  0
 11 12  1  0  0  0
 11 13  1  0  0  0
 13 14  2  0  0  0
 14 15  1  0  0  0
 15 16  1  0  0  0
 15  1  2  0  0  0
 13  3  1  0  0  0
  8  4  1  0  0  0
 12  9  1  0  0  0
 36 32  1  0  0  0
 26 27  1  0  0  0
 18 20  1  0  0  0
 18 21  1  0  0  0
M  END
> <minimizedAffinity>
-6.47546

> <CNNscore>
0.1191453114

> <CNNaffinity>
6.0913496017

> <CNN_VS>
0.7257557511

> <CNNaffinity_variance>
0.3148779869

$$$$
[H]OC(C([H])([H])[H])(C([H])([H])[H])C([H])([H])n1nc([H])c(-c2c(C(=O)N([H])[H])nc3n2C2([H])C([H])([H])C([H])(c4c([H])c(F)c(C#C[C@@](O[H])(c5noc(C([H])([H])[H])c5[H])C([H])([H])[H])c([H])c4-3)C2([H])[H])c1[H]


 44 49  0  0  0  0  0  0  0  0999 V2000
   35.8521   12.8378  -14.7842 C   0  0  0  0  0  0  0  0  0  0  0  0
   36.6192   13.6599  -13.9927 C   0  0  0  0  0  0  0  0  0  0  0  0
   36.0645   14.3505  -12.9515 C   0  0  0  0  0  0  0  0  0  0  0  0
   37.0389   15.1620  -12.1906 C   0  0  0  0  0  0  0  0  0  0  0  0
   38.3117   15.3239  -12.5160 N   0  0  0  0  0  0  0  0  0  0  0  0
   38.8772   16.1088  -11.5274 C   0  0  0  0  0  0  0  0  0  0  0  0
   37.9301   16.4370  -10.5826 C   0  0  0  0  0  0  0  0  0  0  0  0
   36.8069   15.8402  -11.0172 N   0  0  0  0  0  0  0  0  0  0  0  0
   35.5080   15.9570  -10.4147 C   0  0  0  0  0  0  0  0  0  0  0  0
   34.4698   16.3257  -11.5363 C   0  0  0  0  0  0  0  0  0  0  0  0
   33.9838   14.9030  -11.6103 C   0  0  0  0  0  0  0  0  0  0  0  0
   34.7608   14.6195  -10.3457 C   0  0  0  0  0  0  0  0  0  0  0  0
   34.7128   14.1909  -12.7281 C   0  0  0  0  0  0  0  0  0  0  0  0
   33.8751   13.3940  -13.4636 C   0  0  0  0  0  0  0  0  0  0  0  0
   34.4984   12.7098  -14.5175 C   0  0  0  0  0  0  0  0  0  0  0  0
   33.7982   11.8895  -15.3154 F   0  0  0  0  0  0  0  0  0  0  0  0
   40.3034   16.3640  -11.6471 C   0  0  0  0  0  0  0  0  0  0  0  0
   41.2098   16.1627  -10.5844 N   0  0  0  0  0  0  0  0  0  0  0  0
   40.8036   16.7735  -12.7505 O   0  0  0  0  0  0  0  0  0  0  0  0
   42.0592   16.7542  -10.5237 H   0  0  0  0  0  0  0  0  0  0  0  0
   41.0754   15.4417   -9.8292 H   0  0  0  0  0  0  0  0  0  0  0  0
   38.1113   17.4171   -9.4934 C   0  0  0  0  0  0  0  0  0  0  0  0
   38.2974   17.1560   -8.1526 C   0  0  0  0  0  0  0  0  0  0  0  0
   38.2342   18.2942   -7.4216 N   0  0  0  0  0  0  0  0  0  0  0  0
   38.0159   19.2805   -8.2429 N   0  0  0  0  0  0  0  0  0  0  0  0
   37.9347   18.7846   -9.5210 C   0  0  0  0  0  0  0  0  0  0  0  0
   37.8676   20.6564   -7.9207 C   0  0  0  0  0  0  0  0  0  0  0  0
   36.5373   21.0756   -7.3934 C   0  0  0  0  0  0  0  0  0  0  0  0
   36.4833   21.0921   -5.8876 C   0  0  0  0  0  0  0  0  0  0  0  0
   36.1175   22.4433   -7.8926 C   0  0  0  0  0  0  0  0  0  0  0  0
   35.5858   20.1628   -7.8497 O   0  0  0  0  0  0  0  0  0  0  0  0
   35.6637   20.1523   -8.8385 H   0  0  0  0  0  0  0  0  0  0  0  0
   36.9905   11.5052  -16.7850 C   0  0  0  0  0  0  0  0  0  0  0  0
   36.4635   12.1039  -15.8779 C   0  0  0  0  0  0  0  0  0  0  0  0
   37.6465   10.7935  -17.8913 C   0  0  0  0  0  0  0  0  0  0  0  0
   37.4281    9.3392  -17.6712 C   0  0  0  0  0  0  0  0  0  0  0  0
   37.0111   11.1368  -19.1064 O   0  0  0  0  0  0  0  0  0  0  0  0
   36.8384   12.1356  -19.1227 H   0  0  0  0  0  0  0  0  0  0  0  0
   42.4343   12.2518  -16.9836 C   0  0  0  0  0  0  0  0  0  0  0  0
   41.1830   11.7855  -17.6612 C   0  0  0  0  0  0  0  0  0  0  0  0
   39.9643   11.5815  -17.0491 C   0  0  0  0  0  0  0  0  0  0  0  0
   39.0776   11.1540  -18.0109 C   0  0  0  0  0  0  0  0  0  0  0  0
   39.7783   11.1173  -19.1440 N   0  0  0  0  0  0  0  0  0  0  0  0
   41.0149   11.4906  -18.9210 O   0  0  0  0  0  0  0  0  0  0  0  0
 39 40  1  0  0  0
 40 41  2  0  0  0
 41 42  1  0  0  0
 42 43  2  0  0  0
 43 44  1  0  0  0
 42 35  1  0  0  0
 35 36  1  0  0  0
 35 37  1  0  0  0
 35 33  1  0  0  0
 33 34  3  0  0  0
 34  1  1  0  0  0
  1  2  1  0  0  0
  2  3  2  0  0  0
  3  4  1  0  0  0
  4  5  2  0  0  0
  5  6  1  0  0  0
  6 17  1  0  0  0
 17 18  1  0  0  0
 17 19  2  0  0  0
  6  7  2  0  0  0
  7 22  1  0  0  0
 22 23  1  0  0  0
 23 24  2  0  0  0
 24 25  1  0  0  0
 25 27  1  0  0  0
 27 28  1  0  0  0
 28 29  1  0  0  0
 28 30  1  0  0  0
 28 31  1  0  0  0
 25 26  1  0  0  0
  7  8  1  0  0  0
  8  9  1  0  0  0
  9 10  1  0  0  0
 10 11  1  0  0  0
 11 12  1  0  0  0
 11 13  1  0  0  0
 13 14  2  0  0  0
 14 15  1  0  0  0
 15 16  1  0  0  0
 44 40  1  0  0  0
 15  1  2  0  0  0
 13  3  1  0  0  0
  8  4  1  0  0  0
 12  9  1  0  0  0
 26 22  2  0  0  0
 37 38  1  0  0  0
 18 20  1  0  0  0
 18 21  1  0  0  0
 31 32  1  0  0  0
M  END
> <minimizedAffinity>
-8.29210

> <CNNscore>
0.1928903311

> <CNNaffinity>
7.1988191605

> <CNN_VS>
1.3885825872

> <CNNaffinity_variance>
0.0962540060

$$$$
[H]OC(C([H])([H])[H])(C([H])([H])[H])C([H])([H])n1nc([H])c(-c2c(C(=O)N([H])[H])nc3n2C2([H])C([H])([H])C([H])(c4c([H])c(F)c(C#C[C@@](O[H])(c5noc(C([H])([H])[H])c5[H])C([H])([H])[H])c([H])c4-3)C2([H])[H])c1[H]


 44 49  0  0  0  0  0  0  0  0999 V2000
   35.0688   14.4230   -5.8712 C   0  0  0  0  0  0  0  0  0  0  0  0
   36.0696   14.6337   -6.7903 C   0  0  0  0  0  0  0  0  0  0  0  0
   37.3821   14.6510   -6.4085 C   0  0  0  0  0  0  0  0  0  0  0  0
   38.3241   14.8613   -7.5290 C   0  0  0  0  0  0  0  0  0  0  0  0
   37.9729   15.1240   -8.7780 N   0  0  0  0  0  0  0  0  0  0  0  0
   39.1434   15.2025   -9.5109 C   0  0  0  0  0  0  0  0  0  0  0  0
   40.2307   14.9889   -8.6927 C   0  0  0  0  0  0  0  0  0  0  0  0
   39.6958   14.7815   -7.4772 N   0  0  0  0  0  0  0  0  0  0  0  0
   40.4317   14.5972   -6.2573 C   0  0  0  0  0  0  0  0  0  0  0  0
   39.8456   15.5698   -5.1700 C   0  0  0  0  0  0  0  0  0  0  0  0
   39.0718   14.4500   -4.5275 C   0  0  0  0  0  0  0  0  0  0  0  0
   39.8576   13.4794   -5.3782 C   0  0  0  0  0  0  0  0  0  0  0  0
   37.6607   14.4502   -5.0727 C   0  0  0  0  0  0  0  0  0  0  0  0
   36.7295   14.2322   -4.0914 C   0  0  0  0  0  0  0  0  0  0  0  0
   35.4008   14.2244   -4.5406 C   0  0  0  0  0  0  0  0  0  0  0  0
   34.3868   14.0160   -3.6874 F   0  0  0  0  0  0  0  0  0  0  0  0
   38.9927   15.4220  -10.9402 C   0  0  0  0  0  0  0  0  0  0  0  0
   38.3934   14.4784  -11.8014 N   0  0  0  0  0  0  0  0  0  0  0  0
   39.3916   16.5107  -11.4797 O   0  0  0  0  0  0  0  0  0  0  0  0
   38.7017   14.4268  -12.7900 H   0  0  0  0  0  0  0  0  0  0  0  0
   37.6431   13.8044  -11.4997 H   0  0  0  0  0  0  0  0  0  0  0  0
   41.6424   15.1894   -9.0753 C   0  0  0  0  0  0  0  0  0  0  0  0
   42.6787   14.2875   -8.9605 C   0  0  0  0  0  0  0  0  0  0  0  0
   43.8685   14.8762   -9.2287 N   0  0  0  0  0  0  0  0  0  0  0  0
   43.6367   16.1251   -9.5142 N   0  0  0  0  0  0  0  0  0  0  0  0
   42.2855   16.3562   -9.4317 C   0  0  0  0  0  0  0  0  0  0  0  0
   44.5881   17.1253   -9.8510 C   0  0  0  0  0  0  0  0  0  0  0  0
   45.2878   16.9635  -11.1577 C   0  0  0  0  0  0  0  0  0  0  0  0
   44.3988   17.2583  -12.3382 C   0  0  0  0  0  0  0  0  0  0  0  0
   46.5212   17.8365  -11.2700 C   0  0  0  0  0  0  0  0  0  0  0  0
   45.7130   15.6384  -11.2576 O   0  0  0  0  0  0  0  0  0  0  0  0
   46.2707   15.4651  -10.4559 H   0  0  0  0  0  0  0  0  0  0  0  0
   32.5215   14.3807   -6.6358 C   0  0  0  0  0  0  0  0  0  0  0  0
   33.6817   14.3965   -6.2997 C   0  0  0  0  0  0  0  0  0  0  0  0
   31.1038   14.3596   -7.0233 C   0  0  0  0  0  0  0  0  0  0  0  0
   30.5892   12.9936   -6.7397 C   0  0  0  0  0  0  0  0  0  0  0  0
   30.3849   15.2601   -6.2047 O   0  0  0  0  0  0  0  0  0  0  0  0
   30.9142   16.1193   -6.1077 H   0  0  0  0  0  0  0  0  0  0  0  0
   29.7716   14.6111  -11.9260 C   0  0  0  0  0  0  0  0  0  0  0  0
   30.3477   14.9262  -10.5802 C   0  0  0  0  0  0  0  0  0  0  0  0
   30.2532   14.1307   -9.4578 C   0  0  0  0  0  0  0  0  0  0  0  0
   30.9081   14.7728   -8.4316 C   0  0  0  0  0  0  0  0  0  0  0  0
   31.3646   15.9074   -8.9611 N   0  0  0  0  0  0  0  0  0  0  0  0
   31.0258   15.9828  -10.2252 O   0  0  0  0  0  0  0  0  0  0  0  0
 39 40  1  0  0  0
 40 41  2  0  0  0
 41 42  1  0  0  0
 42 43  2  0  0  0
 43 44  1  0  0  0
 42 35  1  0  0  0
 35 36  1  0  0  0
 35 37  1  0  0  0
 35 33  1  0  0  0
 33 34  3  0  0  0
 34  1  1  0  0  0
  1  2  1  0  0  0
  2  3  2  0  0  0
  3  4  1  0  0  0
  4  5  2  0  0  0
  5  6  1  0  0  0
  6 17  1  0  0  0
 17 18  1  0  0  0
 17 19  2  0  0  0
  6  7  2  0  0  0
  7 22  1  0  0  0
 22 23  1  0  0  0
 23 24  2  0  0  0
 24 25  1  0  0  0
 25 27  1  0  0  0
 27 28  1  0  0  0
 28 29  1  0  0  0
 28 30  1  0  0  0
 28 31  1  0  0  0
 25 26  1  0  0  0
  7  8  1  0  0  0
  8  9  1  0  0  0
  9 10  1  0  0  0
 10 11  1  0  0  0
 11 12  1  0  0  0
 11 13  1  0  0  0
 13 14  2  0  0  0
 14 15  1  0  0  0
 15 16  1  0  0  0
 44 40  1  0  0  0
 15  1  2  0  0  0
 13  3  1  0  0  0
  8  4  1  0  0  0
 12  9  1  0  0  0
 26 22  2  0  0  0
 37 38  1  0  0  0
 18 20  1  0  0  0
 18 21  1  0  0  0
 31 32  1  0  0  0
M  END
> <minimizedAffinity>
-7.61844

> <CNNscore>
0.1652772576

> <CNNaffinity>
6.2597827911

> <CNN_VS>
1.0345997810

> <CNNaffinity_variance>
0.1839797944

$$$$
[H]OC(C([H])([H])[H])(C([H])([H])[H])C([H])([H])n1nc([H])c(-c2c(C(=O)N([H])[H])nc3n2C2([H])C([H])([H])C([H])(c4c([H])c(F)c(C#C[C@@](O[H])(c5noc(C([H])([H])[H])c5[H])C([H])([H])[H])c([H])c4-3)C2([H])[H])c1[H]


 44 49  0  0  0  0  0  0  0  0999 V2000
   39.8302   12.7188  -15.4359 C   0  0  0  0  0  0  0  0  0  0  0  0
   39.2884   13.4457  -14.4021 C   0  0  0  0  0  0  0  0  0  0  0  0
   37.9466   13.4073  -14.1435 C   0  0  0  0  0  0  0  0  0  0  0  0
   37.5422   14.2253  -12.9797 C   0  0  0  0  0  0  0  0  0  0  0  0
   38.3469   15.0221  -12.2943 N   0  0  0  0  0  0  0  0  0  0  0  0
   37.5919   15.5611  -11.2684 C   0  0  0  0  0  0  0  0  0  0  0  0
   36.2996   15.0884  -11.3316 C   0  0  0  0  0  0  0  0  0  0  0  0
   36.2980   14.2676  -12.3959 N   0  0  0  0  0  0  0  0  0  0  0  0
   35.1494   13.5914  -12.9319 C   0  0  0  0  0  0  0  0  0  0  0  0
   35.0947   13.8539  -14.4811 C   0  0  0  0  0  0  0  0  0  0  0  0
   35.6662   12.4923  -14.7727 C   0  0  0  0  0  0  0  0  0  0  0  0
   35.4421   12.1372  -13.3212 C   0  0  0  0  0  0  0  0  0  0  0  0
   37.1627   12.6151  -14.9561 C   0  0  0  0  0  0  0  0  0  0  0  0
   37.6168   11.8587  -16.0045 C   0  0  0  0  0  0  0  0  0  0  0  0
   39.0002   11.9365  -16.2228 C   0  0  0  0  0  0  0  0  0  0  0  0
   39.5811   11.2419  -17.2127 F   0  0  0  0  0  0  0  0  0  0  0  0
   38.2975   16.4274  -10.3382 C   0  0  0  0  0  0  0  0  0  0  0  0
   38.1659   17.8323  -10.3491 N   0  0  0  0  0  0  0  0  0  0  0  0
   39.0682   15.9358   -9.4438 O   0  0  0  0  0  0  0  0  0  0  0  0
   38.9650   18.4186  -10.0443 H   0  0  0  0  0  0  0  0  0  0  0  0
   37.2951   18.3362  -10.6587 H   0  0  0  0  0  0  0  0  0  0  0  0
   35.1651   15.5884  -10.5300 C   0  0  0  0  0  0  0  0  0  0  0  0
   35.1613   15.9054   -9.1883 C   0  0  0  0  0  0  0  0  0  0  0  0
   33.9034   16.1468   -8.7486 N   0  0  0  0  0  0  0  0  0  0  0  0
   33.0958   15.9988   -9.7589 N   0  0  0  0  0  0  0  0  0  0  0  0
   33.8298   15.6572  -10.8681 C   0  0  0  0  0  0  0  0  0  0  0  0
   31.6823   16.1443   -9.7636 C   0  0  0  0  0  0  0  0  0  0  0  0
   30.9079   15.1330   -8.9884 C   0  0  0  0  0  0  0  0  0  0  0  0
   30.0078   15.7539   -7.9515 C   0  0  0  0  0  0  0  0  0  0  0  0
   30.0588   14.2447   -9.8750 C   0  0  0  0  0  0  0  0  0  0  0  0
   31.8180   14.3052   -8.3302 O   0  0  0  0  0  0  0  0  0  0  0  0
   32.4129   13.9342   -9.0319 H   0  0  0  0  0  0  0  0  0  0  0  0
   42.4501   12.8214  -15.8833 C   0  0  0  0  0  0  0  0  0  0  0  0
   41.2598   12.7644  -15.6862 C   0  0  0  0  0  0  0  0  0  0  0  0
   43.8981   12.9128  -16.1192 C   0  0  0  0  0  0  0  0  0  0  0  0
   44.2614   11.8211  -17.0611 C   0  0  0  0  0  0  0  0  0  0  0  0
   44.1879   14.1383  -16.7612 O   0  0  0  0  0  0  0  0  0  0  0  0
   43.6560   14.8805  -16.3205 H   0  0  0  0  0  0  0  0  0  0  0  0
   45.5008   13.4745  -11.3243 C   0  0  0  0  0  0  0  0  0  0  0  0
   45.4107   13.0902  -12.7688 C   0  0  0  0  0  0  0  0  0  0  0  0
   44.3750   13.4058  -13.6227 C   0  0  0  0  0  0  0  0  0  0  0  0
   44.6692   12.8700  -14.8558 C   0  0  0  0  0  0  0  0  0  0  0  0
   45.8467   12.2644  -14.7044 N   0  0  0  0  0  0  0  0  0  0  0  0
   46.2687   12.4024  -13.4710 O   0  0  0  0  0  0  0  0  0  0  0  0
 39 40  1  0  0  0
 40 41  2  0  0  0
 41 42  1  0  0  0
 42 43  2  0  0  0
 43 44  1  0  0  0
 42 35  1  0  0  0
 35 36  1  0  0  0
 35 37  1  0  0  0
 35 33  1  0  0  0
 33 34  3  0  0  0
 34  1  1  0  0  0
  1  2  1  0  0  0
  2  3  2  0  0  0
  3  4  1  0  0  0
  4  5  2  0  0  0
  5  6  1  0  0  0
  6 17  1  0  0  0
 17 18  1  0  0  0
 17 19  2  0  0  0
  6  7  2  0  0  0
  7 22  1  0  0  0
 22 23  1  0  0  0
 23 24  2  0  0  0
 24 25  1  0  0  0
 25 27  1  0  0  0
 27 28  1  0  0  0
 28 29  1  0  0  0
 28 30  1  0  0  0
 28 31  1  0  0  0
 25 26  1  0  0  0
  7  8  1  0  0  0
  8  9  1  0  0  0
  9 10  1  0  0  0
 10 11  1  0  0  0
 11 12  1  0  0  0
 11 13  1  0  0  0
 13 14  2  0  0  0
 14 15  1  0  0  0
 15 16  1  0  0  0
 44 40  1  0  0  0
 15  1  2  0  0  0
 13  3  1  0  0  0
  8  4  1  0  0  0
 12  9  1  0  0  0
 26 22  2  0  0  0
 37 38  1  0  0  0
 18 20  1  0  0  0
 18 21  1  0  0  0
 31 32  1  0  0  0
M  END
> <minimizedAffinity>
-11.16316

> <CNNscore>
0.1427304596

> <CNNaffinity>
6.7448487282

> <CNN_VS>
0.9626953602

> <CNNaffinity_variance>
0.4319537282

$$$$
[H]OC(C([H])([H])[H])(C([H])([H])[H])C([H])([H])n1nc([H])c(-c2c(C(=O)N([H])[H])nc3n2C2([H])C([H])([H])C([H])(c4c([H])c(F)c(C#C[C@@](O[H])(c5noc(C([H])([H])[H])c5[H])C([H])([H])[H])c([H])c4-3)C2([H])[H])c1[H]


 44 49  0  0  0  0  0  0  0  0999 V2000
   35.7740   15.4264   -7.2302 C   0  0  0  0  0  0  0  0  0  0  0  0
   36.8347   15.5153   -8.1007 C   0  0  0  0  0  0  0  0  0  0  0  0
   38.1222   15.5228   -7.6413 C   0  0  0  0  0  0  0  0  0  0  0  0
   39.1360   15.5945   -8.7156 C   0  0  0  0  0  0  0  0  0  0  0  0
   38.8696   15.7512  -10.0027 N   0  0  0  0  0  0  0  0  0  0  0  0
   40.0832   15.7201  -10.6656 C   0  0  0  0  0  0  0  0  0  0  0  0
   41.1111   15.5463   -9.7653 C   0  0  0  0  0  0  0  0  0  0  0  0
   40.4980   15.4723   -8.5715 N   0  0  0  0  0  0  0  0  0  0  0  0
   41.1530   15.3775   -7.2965 C   0  0  0  0  0  0  0  0  0  0  0  0
   40.5438   16.4673   -6.3411 C   0  0  0  0  0  0  0  0  0  0  0  0
   39.6891   15.4401   -5.6484 C   0  0  0  0  0  0  0  0  0  0  0  0
   40.4837   14.3675   -6.3564 C   0  0  0  0  0  0  0  0  0  0  0  0
   38.3136   15.4382   -6.2780 C   0  0  0  0  0  0  0  0  0  0  0  0
   37.3184   15.3455   -5.3406 C   0  0  0  0  0  0  0  0  0  0  0  0
   36.0191   15.3418   -5.8690 C   0  0  0  0  0  0  0  0  0  0  0  0
   34.9492   15.2495   -5.0650 F   0  0  0  0  0  0  0  0  0  0  0  0
   40.0257   15.8100  -12.1155 C   0  0  0  0  0  0  0  0  0  0  0  0
   39.3653   14.8545  -12.9169 N   0  0  0  0  0  0  0  0  0  0  0  0
   40.5693   16.7900  -12.7315 O   0  0  0  0  0  0  0  0  0  0  0  0
   39.7121   14.6713  -13.8767 H   0  0  0  0  0  0  0  0  0  0  0  0
   38.5307   14.2985  -12.5968 H   0  0  0  0  0  0  0  0  0  0  0  0
   42.5498   15.6611  -10.0761 C   0  0  0  0  0  0  0  0  0  0  0  0
   43.5029   14.6668  -10.0156 C   0  0  0  0  0  0  0  0  0  0  0  0
   44.7474   15.1744  -10.1817 N   0  0  0  0  0  0  0  0  0  0  0  0
   44.6312   16.4603  -10.3491 N   0  0  0  0  0  0  0  0  0  0  0  0
   43.3012   16.7974  -10.2914 C   0  0  0  0  0  0  0  0  0  0  0  0
   45.6750   17.4031  -10.5506 C   0  0  0  0  0  0  0  0  0  0  0  0
   46.1689   17.5585  -11.9489 C   0  0  0  0  0  0  0  0  0  0  0  0
   45.1624   18.2190  -12.8552 C   0  0  0  0  0  0  0  0  0  0  0  0
   47.4593   18.3491  -12.0263 C   0  0  0  0  0  0  0  0  0  0  0  0
   46.4366   16.2862  -12.4552 O   0  0  0  0  0  0  0  0  0  0  0  0
   47.0776   15.8665  -11.8254 H   0  0  0  0  0  0  0  0  0  0  0  0
   33.2873   15.4121   -8.1740 C   0  0  0  0  0  0  0  0  0  0  0  0
   34.4145   15.4081   -7.7399 C   0  0  0  0  0  0  0  0  0  0  0  0
   31.9170   15.4392   -8.7055 C   0  0  0  0  0  0  0  0  0  0  0  0
   32.0152   15.7060  -10.1650 C   0  0  0  0  0  0  0  0  0  0  0  0
   31.3323   14.1620   -8.5481 O   0  0  0  0  0  0  0  0  0  0  0  0
   31.5562   13.8031   -7.6267 H   0  0  0  0  0  0  0  0  0  0  0  0
   29.1178   17.9159   -5.2552 C   0  0  0  0  0  0  0  0  0  0  0  0
   29.8328   17.5376   -6.5153 C   0  0  0  0  0  0  0  0  0  0  0  0
   30.5734   16.3904   -6.7074 C   0  0  0  0  0  0  0  0  0  0  0  0
   31.0654   16.4182   -7.9924 C   0  0  0  0  0  0  0  0  0  0  0  0
   30.6128   17.5564   -8.5178 N   0  0  0  0  0  0  0  0  0  0  0  0
   29.8904   18.2035   -7.6359 O   0  0  0  0  0  0  0  0  0  0  0  0
 39 40  1  0  0  0
 40 41  2  0  0  0
 41 42  1  0  0  0
 42 43  2  0  0  0
 43 44  1  0  0  0
 42 35  1  0  0  0
 35 36  1  0  0  0
 35 37  1  0  0  0
 35 33  1  0  0  0
 33 34  3  0  0  0
 34  1  1  0  0  0
  1  2  1  0  0  0
  2  3  2  0  0  0
  3  4  1  0  0  0
  4  5  2  0  0  0
  5  6  1  0  0  0
  6 17  1  0  0  0
 17 18  1  0  0  0
 17 19  2  0  0  0
  6  7  2  0  0  0
  7 22  1  0  0  0
 22 23  1  0  0  0
 23 24  2  0  0  0
 24 25  1  0  0  0
 25 27  1  0  0  0
 27 28  1  0  0  0
 28 29  1  0  0  0
 28 30  1  0  0  0
 28 31  1  0  0  0
 25 26  1  0  0  0
  7  8  1  0  0  0
  8  9  1  0  0  0
  9 10  1  0  0  0
 10 11  1  0  0  0
 11 12  1  0  0  0
 11 13  1  0  0  0
 13 14  2  0  0  0
 14 15  1  0  0  0
 15 16  1  0  0  0
 44 40  1  0  0  0
 15  1  2  0  0  0
 13  3  1  0  0  0
  8  4  1  0  0  0
 12  9  1  0  0  0
 26 22  2  0  0  0
 37 38  1  0  0  0
 18 20  1  0  0  0
 18 21  1  0  0  0
 31 32  1  0  0  0
M  END
> <minimizedAffinity>
-6.90091

> <CNNscore>
0.1409410089

> <CNNaffinity>
6.0391030312

> <CNN_VS>
0.8511572480

> <CNNaffinity_variance>
0.1079608649

$$$$
[H]OC(C([H])([H])[H])(C([H])([H])[H])C([H])([H])n1nc([H])c(-c2c(C(=O)N([H])[H])nc3n2C2([H])C([H])([H])C([H])(c4c([H])c(F)c(C#C[C@@](O[H])(c5noc(C([H])([H])[H])c5[H])C([H])([H])[H])c([H])c4-3)C2([H])[H])c1[H]


 44 49  0  0  0  0  0  0  0  0999 V2000
   35.0497   13.3692  -13.9209 C   0  0  0  0  0  0  0  0  0  0  0  0
   36.3917   13.6526  -13.8234 C   0  0  0  0  0  0  0  0  0  0  0  0
   37.3006   13.0400  -14.6403 C   0  0  0  0  0  0  0  0  0  0  0  0
   38.6935   13.4843  -14.4180 C   0  0  0  0  0  0  0  0  0  0  0  0
   39.0845   14.3078  -13.4582 N   0  0  0  0  0  0  0  0  0  0  0  0
   40.4437   14.4993  -13.6292 C   0  0  0  0  0  0  0  0  0  0  0  0
   40.8924   13.7745  -14.7112 C   0  0  0  0  0  0  0  0  0  0  0  0
   39.7924   13.1588  -15.1776 N   0  0  0  0  0  0  0  0  0  0  0  0
   39.7555   12.2108  -16.2564 C   0  0  0  0  0  0  0  0  0  0  0  0
   38.9595   10.9423  -15.7779 C   0  0  0  0  0  0  0  0  0  0  0  0
   37.7263   11.3877  -16.5170 C   0  0  0  0  0  0  0  0  0  0  0  0
   38.5716   12.4340  -17.2054 C   0  0  0  0  0  0  0  0  0  0  0  0
   36.8207   12.1318  -15.5607 C   0  0  0  0  0  0  0  0  0  0  0  0
   35.5040   11.7907  -15.7276 C   0  0  0  0  0  0  0  0  0  0  0  0
   34.6175   12.4501  -14.8635 C   0  0  0  0  0  0  0  0  0  0  0  0
   33.2978   12.2162  -14.9215 F   0  0  0  0  0  0  0  0  0  0  0  0
   41.0813   15.4317  -12.7139 C   0  0  0  0  0  0  0  0  0  0  0  0
   41.9684   15.0209  -11.6963 N   0  0  0  0  0  0  0  0  0  0  0  0
   40.8702   16.6893  -12.8101 O   0  0  0  0  0  0  0  0  0  0  0  0
   42.0284   15.5751  -10.8220 H   0  0  0  0  0  0  0  0  0  0  0  0
   42.5815   14.1679  -11.7635 H   0  0  0  0  0  0  0  0  0  0  0  0
   42.3079   13.5738  -15.0796 C   0  0  0  0  0  0  0  0  0  0  0  0
   42.8369   13.4621  -16.3478 C   0  0  0  0  0  0  0  0  0  0  0  0
   44.1391   13.0933  -16.3014 N   0  0  0  0  0  0  0  0  0  0  0  0
   44.4698   12.9650  -15.0488 N   0  0  0  0  0  0  0  0  0  0  0  0
   43.3761   13.2510  -14.2691 C   0  0  0  0  0  0  0  0  0  0  0  0
   45.7341   12.5846  -14.5236 C   0  0  0  0  0  0  0  0  0  0  0  0
   46.9213   13.3118  -15.0577 C   0  0  0  0  0  0  0  0  0  0  0  0
   46.8874   14.7881  -14.7573 C   0  0  0  0  0  0  0  0  0  0  0  0
   48.2295   12.7563  -14.5322 C   0  0  0  0  0  0  0  0  0  0  0  0
   46.9360   13.1534  -16.4438 O   0  0  0  0  0  0  0  0  0  0  0  0
   46.9294   12.1757  -16.6111 H   0  0  0  0  0  0  0  0  0  0  0  0
   33.3071   14.5792  -12.3165 C   0  0  0  0  0  0  0  0  0  0  0  0
   34.0997   14.0399  -13.0514 C   0  0  0  0  0  0  0  0  0  0  0  0
   32.3348   15.2154  -11.4162 C   0  0  0  0  0  0  0  0  0  0  0  0
   31.6515   16.2856  -12.1901 C   0  0  0  0  0  0  0  0  0  0  0  0
   31.3527   14.2676  -11.0484 O   0  0  0  0  0  0  0  0  0  0  0  0
   31.8036   13.3853  -10.8336 H   0  0  0  0  0  0  0  0  0  0  0  0
   35.6407   16.7849   -7.8832 C   0  0  0  0  0  0  0  0  0  0  0  0
   34.3807   16.4066   -8.5985 C   0  0  0  0  0  0  0  0  0  0  0  0
   34.2990   15.9426   -9.8945 C   0  0  0  0  0  0  0  0  0  0  0  0
   32.9714   15.7126  -10.1753 C   0  0  0  0  0  0  0  0  0  0  0  0
   32.3148   16.0385   -9.0623 N   0  0  0  0  0  0  0  0  0  0  0  0
   33.1580   16.4456   -8.1448 O   0  0  0  0  0  0  0  0  0  0  0  0
 39 40  1  0  0  0
 40 41  2  0  0  0
 41 42  1  0  0  0
 42 43  2  0  0  0
 43 44  1  0  0  0
 42 35  1  0  0  0
 35 36  1  0  0  0
 35 37  1  0  0  0
 35 33  1  0  0  0
 33 34  3  0  0  0
 34  1  1  0  0  0
  1  2  1  0  0  0
  2  3  2  0  0  0
  3  4  1  0  0  0
  4  5  2  0  0  0
  5  6  1  0  0  0
  6 17  1  0  0  0
 17 18  1  0  0  0
 17 19  2  0  0  0
  6  7  2  0  0  0
  7 22  1  0  0  0
 22 23  1  0  0  0
 23 24  2  0  0  0
 24 25  1  0  0  0
 25 27  1  0  0  0
 27 28  1  0  0  0
 28 29  1  0  0  0
 28 30  1  0  0  0
 28 31  1  0  0  0
 25 26  1  0  0  0
  7  8  1  0  0  0
  8  9  1  0  0  0
  9 10  1  0  0  0
 10 11  1  0  0  0
 11 12  1  0  0  0
 11 13  1  0  0  0
 13 14  2  0  0  0
 14 15  1  0  0  0
 15 16  1  0  0  0
 44 40  1  0  0  0
 15  1  2  0  0  0
 13  3  1  0  0  0
  8  4  1  0  0  0
 12  9  1  0  0  0
 26 22  2  0  0  0
 37 38  1  0  0  0
 18 20  1  0  0  0
 18 21  1  0  0  0
 31 32  1  0  0  0
M  END
> <minimizedAffinity>
-8.84233

> <CNNscore>
0.1281009167

> <CNNaffinity>
7.1018266678

> <CNN_VS>
0.9097505212

> <CNNaffinity_variance>
0.1029942408

$$$$
[H]OC(C([H])([H])[H])(C([H])([H])[H])C([H])([H])n1nc([H])c(-c2c(C(=O)N([H])[H])nc3n2C2([H])C([H])([H])C([H])(c4c([H])c(F)c(C#C[C@@](O[H])(c5noc(C([H])([H])[H])c5[H])C([H])([H])[H])c([H])c4-3)C2([H])[H])c1[H]


 44 49  0  0  0  0  0  0  0  0999 V2000
   40.0287   12.6667  -15.4339 C   0  0  0  0  0  0  0  0  0  0  0  0
   39.5089   13.3320  -14.3485 C   0  0  0  0  0  0  0  0  0  0  0  0
   38.1783   13.2514  -14.0459 C   0  0  0  0  0  0  0  0  0  0  0  0
   37.7985   14.0046  -12.8312 C   0  0  0  0  0  0  0  0  0  0  0  0
   38.6104   14.7862  -12.1368 N   0  0  0  0  0  0  0  0  0  0  0  0
   37.8812   15.2594  -11.0608 C   0  0  0  0  0  0  0  0  0  0  0  0
   36.5976   14.7613  -11.1018 C   0  0  0  0  0  0  0  0  0  0  0  0
   36.5753   13.9915  -12.2034 N   0  0  0  0  0  0  0  0  0  0  0  0
   35.4227   13.3155  -12.7311 C   0  0  0  0  0  0  0  0  0  0  0  0
   35.3075   13.6491  -14.2632 C   0  0  0  0  0  0  0  0  0  0  0  0
   35.8965   12.3159  -14.6389 C   0  0  0  0  0  0  0  0  0  0  0  0
   35.7315   11.8881  -13.1991 C   0  0  0  0  0  0  0  0  0  0  0  0
   37.3827   12.4808  -14.8678 C   0  0  0  0  0  0  0  0  0  0  0  0
   37.8149   11.7847  -15.9661 C   0  0  0  0  0  0  0  0  0  0  0  0
   39.1877   11.9038  -16.2280 C   0  0  0  0  0  0  0  0  0  0  0  0
   39.7474   11.2696  -17.2694 F   0  0  0  0  0  0  0  0  0  0  0  0
   38.6012   16.0967  -10.1153 C   0  0  0  0  0  0  0  0  0  0  0  0
   38.8021   17.4792  -10.3143 N   0  0  0  0  0  0  0  0  0  0  0  0
   39.0754   15.6034   -9.0349 O   0  0  0  0  0  0  0  0  0  0  0  0
   39.6521   17.9289   -9.9265 H   0  0  0  0  0  0  0  0  0  0  0  0
   38.1364   18.0967  -10.8470 H   0  0  0  0  0  0  0  0  0  0  0  0
   35.4821   15.1975  -10.2387 C   0  0  0  0  0  0  0  0  0  0  0  0
   34.2812   15.7471  -10.6339 C   0  0  0  0  0  0  0  0  0  0  0  0
   33.5801   16.2027   -9.5686 N   0  0  0  0  0  0  0  0  0  0  0  0
   34.2849   15.9650   -8.5001 N   0  0  0  0  0  0  0  0  0  0  0  0
   35.4563   15.3500   -8.8682 C   0  0  0  0  0  0  0  0  0  0  0  0
   33.9486   16.2790   -7.1557 C   0  0  0  0  0  0  0  0  0  0  0  0
   34.2376   17.6712   -6.7065 C   0  0  0  0  0  0  0  0  0  0  0  0
   33.0087   18.3977   -6.2242 C   0  0  0  0  0  0  0  0  0  0  0  0
   35.2762   17.7237   -5.6043 C   0  0  0  0  0  0  0  0  0  0  0  0
   34.7571   18.3755   -7.7931 O   0  0  0  0  0  0  0  0  0  0  0  0
   35.5451   17.8607   -8.1059 H   0  0  0  0  0  0  0  0  0  0  0  0
   42.6295   12.8455  -15.9618 C   0  0  0  0  0  0  0  0  0  0  0  0
   41.4472   12.7562  -15.7309 C   0  0  0  0  0  0  0  0  0  0  0  0
   44.0685   12.9742  -16.2327 C   0  0  0  0  0  0  0  0  0  0  0  0
   44.4002   12.0155  -17.3199 C   0  0  0  0  0  0  0  0  0  0  0  0
   44.3352   14.2740  -16.7200 O   0  0  0  0  0  0  0  0  0  0  0  0
   43.8181   14.9501  -16.1692 H   0  0  0  0  0  0  0  0  0  0  0  0
   45.9005   13.0351  -11.4878 C   0  0  0  0  0  0  0  0  0  0  0  0
   45.7214   12.7710  -12.9508 C   0  0  0  0  0  0  0  0  0  0  0  0
   44.6833   13.2343  -13.7313 C   0  0  0  0  0  0  0  0  0  0  0  0
   44.8823   12.7723  -15.0123 C   0  0  0  0  0  0  0  0  0  0  0  0
   46.0093   12.0629  -14.9593 N   0  0  0  0  0  0  0  0  0  0  0  0
   46.4898   12.0713  -13.7397 O   0  0  0  0  0  0  0  0  0  0  0  0
 39 40  1  0  0  0
 40 41  2  0  0  0
 41 42  1  0  0  0
 42 43  2  0  0  0
 43 44  1  0  0  0
 42 35  1  0  0  0
 35 36  1  0  0  0
 35 37  1  0  0  0
 35 33  1  0  0  0
 33 34  3  0  0  0
 34  1  1  0  0  0
  1  2  1  0  0  0
  2  3  2  0  0  0
  3  4  1  0  0  0
  4  5  2  0  0  0
  5  6  1  0  0  0
  6 17  1  0  0  0
 17 18  1  0  0  0
 17 19  2  0  0  0
  6  7  2  0  0  0
  7 22  1  0  0  0
 22 23  1  0  0  0
 23 24  2  0  0  0
 24 25  1  0  0  0
 25 27  1  0  0  0
 27 28  1  0  0  0
 28 29  1  0  0  0
 28 30  1  0  0  0
 28 31  1  0  0  0
 25 26  1  0  0  0
  7  8  1  0  0  0
  8  9  1  0  0  0
  9 10  1  0  0  0
 10 11  1  0  0  0
 11 12  1  0  0  0
 11 13  1  0  0  0
 13 14  2  0  0  0
 14 15  1  0  0  0
 15 16  1  0  0  0
 44 40  1  0  0  0
 15  1  2  0  0  0
 13  3  1  0  0  0
  8  4  1  0  0  0
 12  9  1  0  0  0
 26 22  2  0  0  0
 37 38  1  0  0  0
 18 20  1  0  0  0
 18 21  1  0  0  0
 31 32  1  0  0  0
M  END
> <minimizedAffinity>
-10.36967

> <CNNscore>
0.1204866916

> <CNNaffinity>
6.5956406593

> <CNN_VS>
0.7946869135

> <CNNaffinity_variance>
0.3217141926

$$$$
[H]OC(C([H])([H])[H])(C([H])([H])[H])C([H])([H])n1nc([H])c(-c2c(C(=O)N([H])[H])nc3n2C2([H])C([H])([H])C([H])(c4c([H])c(F)c(C#C[C@@](O[H])(c5noc(C([H])([H])[H])c5[H])C([H])([H])[H])c([H])c4-3)C2([H])[H])c1[H]


 44 49  0  0  0  0  0  0  0  0999 V2000
   38.9636   15.4113   -5.8487 C   0  0  0  0  0  0  0  0  0  0  0  0
   39.6063   15.5465   -7.0568 C   0  0  0  0  0  0  0  0  0  0  0  0
   40.9486   15.7988   -7.1143 C   0  0  0  0  0  0  0  0  0  0  0  0
   41.4784   15.8851   -8.4923 C   0  0  0  0  0  0  0  0  0  0  0  0
   40.7442   15.8414   -9.5929 N   0  0  0  0  0  0  0  0  0  0  0  0
   41.6233   15.9069  -10.6589 C   0  0  0  0  0  0  0  0  0  0  0  0
   42.9190   15.9976  -10.2004 C   0  0  0  0  0  0  0  0  0  0  0  0
   42.7993   15.9823   -8.8617 N   0  0  0  0  0  0  0  0  0  0  0  0
   43.8737   16.1421   -7.9216 C   0  0  0  0  0  0  0  0  0  0  0  0
   43.4609   17.2404   -6.8752 C   0  0  0  0  0  0  0  0  0  0  0  0
   43.1132   16.1924   -5.8522 C   0  0  0  0  0  0  0  0  0  0  0  0
   43.7815   15.1687   -6.7402 C   0  0  0  0  0  0  0  0  0  0  0  0
   41.6283   15.9117   -5.9195 C   0  0  0  0  0  0  0  0  0  0  0  0
   41.0702   15.7905   -4.6739 C   0  0  0  0  0  0  0  0  0  0  0  0
   39.6917   15.5317   -4.6760 C   0  0  0  0  0  0  0  0  0  0  0  0
   39.0173   15.3836   -3.5258 F   0  0  0  0  0  0  0  0  0  0  0  0
   41.0341   15.8081  -11.9843 C   0  0  0  0  0  0  0  0  0  0  0  0
   41.2370   14.6986  -12.8323 N   0  0  0  0  0  0  0  0  0  0  0  0
   40.2787   16.7366  -12.4345 O   0  0  0  0  0  0  0  0  0  0  0  0
   41.2251   14.8371  -13.8599 H   0  0  0  0  0  0  0  0  0  0  0  0
   41.4101   13.7201  -12.4847 H   0  0  0  0  0  0  0  0  0  0  0  0
   44.1039   16.2825  -11.0337 C   0  0  0  0  0  0  0  0  0  0  0  0
   44.3480   17.4112  -11.7867 C   0  0  0  0  0  0  0  0  0  0  0  0
   45.4398   17.2467  -12.5708 N   0  0  0  0  0  0  0  0  0  0  0  0
   45.9100   16.0531  -12.3493 N   0  0  0  0  0  0  0  0  0  0  0  0
   45.1200   15.4310  -11.4139 C   0  0  0  0  0  0  0  0  0  0  0  0
   47.0417   15.4441  -12.9554 C   0  0  0  0  0  0  0  0  0  0  0  0
   46.8845   15.0147  -14.3746 C   0  0  0  0  0  0  0  0  0  0  0  0
   48.2035   14.7861  -15.0666 C   0  0  0  0  0  0  0  0  0  0  0  0
   46.0574   13.7526  -14.5132 C   0  0  0  0  0  0  0  0  0  0  0  0
   46.2077   16.0254  -15.0582 O   0  0  0  0  0  0  0  0  0  0  0  0
   45.3596   16.1733  -14.5655 H   0  0  0  0  0  0  0  0  0  0  0  0
   36.3518   14.9104   -5.7965 C   0  0  0  0  0  0  0  0  0  0  0  0
   37.5392   15.1316   -5.8100 C   0  0  0  0  0  0  0  0  0  0  0  0
   34.9035   14.6590   -5.7934 C   0  0  0  0  0  0  0  0  0  0  0  0
   34.4779   14.5148   -7.2109 C   0  0  0  0  0  0  0  0  0  0  0  0
   34.6470   13.4278   -5.1482 O   0  0  0  0  0  0  0  0  0  0  0  0
   35.2165   13.3637   -4.3119 H   0  0  0  0  0  0  0  0  0  0  0  0
   31.4791   18.1169   -4.3134 C   0  0  0  0  0  0  0  0  0  0  0  0
   32.6889   17.2371   -4.3817 C   0  0  0  0  0  0  0  0  0  0  0  0
   32.9586   16.3145   -5.3705 C   0  0  0  0  0  0  0  0  0  0  0  0
   34.1595   15.7140   -5.0684 C   0  0  0  0  0  0  0  0  0  0  0  0
   34.5623   16.2844   -3.9332 N   0  0  0  0  0  0  0  0  0  0  0  0
   33.6858   17.1773   -3.5422 O   0  0  0  0  0  0  0  0  0  0  0  0
 39 40  1  0  0  0
 40 41  2  0  0  0
 41 42  1  0  0  0
 42 43  2  0  0  0
 43 44  1  0  0  0
 42 35  1  0  0  0
 35 36  1  0  0  0
 35 37  1  0  0  0
 35 33  1  0  0  0
 33 34  3  0  0  0
 34  1  1  0  0  0
  1  2  1  0  0  0
  2  3  2  0  0  0
  3  4  1  0  0  0
  4  5  2  0  0  0
  5  6  1  0  0  0
  6 17  1  0  0  0
 17 18  1  0  0  0
 17 19  2  0  0  0
  6  7  2  0  0  0
  7 22  1  0  0  0
 22 23  1  0  0  0
 23 24  2  0  0  0
 24 25  1  0  0  0
 25 27  1  0  0  0
 27 28  1  0  0  0
 28 29  1  0  0  0
 28 30  1  0  0  0
 28 31  1  0  0  0
 25 26  1  0  0  0
  7  8  1  0  0  0
  8  9  1  0  0  0
  9 10  1  0  0  0
 10 11  1  0  0  0
 11 12  1  0  0  0
 11 13  1  0  0  0
 13 14  2  0  0  0
 14 15  1  0  0  0
 15 16  1  0  0  0
 44 40  1  0  0  0
 15  1  2  0  0  0
 13  3  1  0  0  0
  8  4  1  0  0  0
 12  9  1  0  0  0
 26 22  2  0  0  0
 37 38  1  0  0  0
 18 20  1  0  0  0
 18 21  1  0  0  0
 31 32  1  0  0  0
M  END
> <minimizedAffinity>
-6.40151

> <CNNscore>
0.1189213470

> <CNNaffinity>
5.9553055763

> <CNN_VS>
0.7082129717

> <CNNaffinity_variance>
0.0623938851

$$$$
[H]OC(C([H])([H])[H])(C([H])([H])[H])C([H])([H])n1nc([H])c(-c2c(C(=O)N([H])[H])nc3n2C2([H])C([H])([H])C([H])(c4c([H])c(F)c(C#C[C@@](O[H])(c5noc(C([H])([H])[H])c5[H])C([H])([H])[H])c([H])c4-3)C2([H])[H])c1[H]


 44 49  0  0  0  0  0  0  0  0999 V2000
   40.0310   12.7193  -15.3567 C   0  0  0  0  0  0  0  0  0  0  0  0
   39.4972   13.3739  -14.2717 C   0  0  0  0  0  0  0  0  0  0  0  0
   38.1697   13.2604  -13.9657 C   0  0  0  0  0  0  0  0  0  0  0  0
   37.7738   14.0068  -12.7519 C   0  0  0  0  0  0  0  0  0  0  0  0
   38.5673   14.8103  -12.0612 N   0  0  0  0  0  0  0  0  0  0  0  0
   37.8288   15.2675  -10.9847 C   0  0  0  0  0  0  0  0  0  0  0  0
   36.5581   14.7371  -11.0215 C   0  0  0  0  0  0  0  0  0  0  0  0
   36.5527   13.9643  -12.1213 N   0  0  0  0  0  0  0  0  0  0  0  0
   35.4164   13.2582  -12.6447 C   0  0  0  0  0  0  0  0  0  0  0  0
   35.2893   13.5851  -14.1772 C   0  0  0  0  0  0  0  0  0  0  0  0
   35.9109   12.2662  -14.5512 C   0  0  0  0  0  0  0  0  0  0  0  0
   35.7600   11.8379  -13.1100 C   0  0  0  0  0  0  0  0  0  0  0  0
   37.3919   12.4680  -14.7839 C   0  0  0  0  0  0  0  0  0  0  0  0
   37.8390   11.7804  -15.8817 C   0  0  0  0  0  0  0  0  0  0  0  0
   39.2078   11.9334  -16.1470 C   0  0  0  0  0  0  0  0  0  0  0  0
   39.7809   11.3111  -17.1882 F   0  0  0  0  0  0  0  0  0  0  0  0
   38.5297   16.1250  -10.0428 C   0  0  0  0  0  0  0  0  0  0  0  0
   39.0332   15.6584   -8.8099 N   0  0  0  0  0  0  0  0  0  0  0  0
   38.7357   17.3585  -10.3104 O   0  0  0  0  0  0  0  0  0  0  0  0
   39.0882   16.3104   -8.0055 H   0  0  0  0  0  0  0  0  0  0  0  0
   39.3573   14.6703   -8.6463 H   0  0  0  0  0  0  0  0  0  0  0  0
   35.4340   15.1471  -10.1568 C   0  0  0  0  0  0  0  0  0  0  0  0
   34.2916   15.8224  -10.5302 C   0  0  0  0  0  0  0  0  0  0  0  0
   33.5722   16.1989   -9.4463 N   0  0  0  0  0  0  0  0  0  0  0  0
   34.2086   15.7889   -8.3871 N   0  0  0  0  0  0  0  0  0  0  0  0
   35.3534   15.1400   -8.7800 C   0  0  0  0  0  0  0  0  0  0  0  0
   33.8303   15.9667   -7.0291 C   0  0  0  0  0  0  0  0  0  0  0  0
   32.7335   15.0913   -6.5250 C   0  0  0  0  0  0  0  0  0  0  0  0
   33.1747   14.1876   -5.4028 C   0  0  0  0  0  0  0  0  0  0  0  0
   31.5317   15.8806   -6.0464 C   0  0  0  0  0  0  0  0  0  0  0  0
   32.3024   14.2888   -7.5818 O   0  0  0  0  0  0  0  0  0  0  0  0
   32.0461   14.9078   -8.3132 H   0  0  0  0  0  0  0  0  0  0  0  0
   42.6236   12.9264  -15.9140 C   0  0  0  0  0  0  0  0  0  0  0  0
   41.4462   12.8438  -15.6572 C   0  0  0  0  0  0  0  0  0  0  0  0
   44.0581   13.0044  -16.2255 C   0  0  0  0  0  0  0  0  0  0  0  0
   44.3279   12.0238  -17.3102 C   0  0  0  0  0  0  0  0  0  0  0  0
   44.3537   14.2894  -16.7347 O   0  0  0  0  0  0  0  0  0  0  0  0
   43.8746   14.9880  -16.1777 H   0  0  0  0  0  0  0  0  0  0  0  0
   45.9801   12.9897  -11.5159 C   0  0  0  0  0  0  0  0  0  0  0  0
   45.7768   12.7550  -12.9808 C   0  0  0  0  0  0  0  0  0  0  0  0
   44.7170   13.2192  -13.7310 C   0  0  0  0  0  0  0  0  0  0  0  0
   44.8982   12.7884  -15.0255 C   0  0  0  0  0  0  0  0  0  0  0  0
   46.0366   12.0957  -15.0097 N   0  0  0  0  0  0  0  0  0  0  0  0
   46.5403   12.0848  -13.7995 O   0  0  0  0  0  0  0  0  0  0  0  0
 39 40  1  0  0  0
 40 41  2  0  0  0
 41 42  1  0  0  0
 42 43  2  0  0  0
 43 44  1  0  0  0
 42 35  1  0  0  0
 35 36  1  0  0  0
 35 37  1  0  0  0
 35 33  1  0  0  0
 33 34  3  0  0  0
 34  1  1  0  0  0
  1  2  1  0  0  0
  2  3  2  0  0  0
  3  4  1  0  0  0
  4  5  2  0  0  0
  5  6  1  0  0  0
  6 17  1  0  0  0
 17 18  1  0  0  0
 17 19  2  0  0  0
  6  7  2  0  0  0
  7 22  1  0  0  0
 22 23  1  0  0  0
 23 24  2  0  0  0
 24 25  1  0  0  0
 25 27  1  0  0  0
 27 28  1  0  0  0
 28 29  1  0  0  0
 28 30  1  0  0  0
 28 31  1  0  0  0
 25 26  1  0  0  0
  7  8  1  0  0  0
  8  9  1  0  0  0
  9 10  1  0  0  0
 10 11  1  0  0  0
 11 12  1  0  0  0
 11 13  1  0  0  0
 13 14  2  0  0  0
 14 15  1  0  0  0
 15 16  1  0  0  0
 44 40  1  0  0  0
 15  1  2  0  0  0
 13  3  1  0  0  0
  8  4  1  0  0  0
 12  9  1  0  0  0
 26 22  2  0  0  0
 37 38  1  0  0  0
 18 20  1  0  0  0
 18 21  1  0  0  0
 31 32  1  0  0  0
M  END
> <minimizedAffinity>
-10.54259

> <CNNscore>
0.1187422425

> <CNNaffinity>
6.6350846291

> <CNN_VS>
0.7878648043

> <CNNaffinity_variance>
0.2663659751

$$$$
[H]OC(C([H])([H])[H])(C([H])([H])[H])C([H])([H])n1nc([H])c(-c2c(C(=O)N([H])[H])nc3n2C2([H])C([H])([H])C([H])(c4c([H])c(F)c(C#C[C@@](O[H])(c5noc(C([H])([H])[H])c5[H])C([H])([H])[H])c([H])c4-3)C2([H])[H])c1[H]


 44 49  0  0  0  0  0  0  0  0999 V2000
   34.8068   16.2913   -5.8146 C   0  0  0  0  0  0  0  0  0  0  0  0
   35.8771   16.1693   -6.6692 C   0  0  0  0  0  0  0  0  0  0  0  0
   37.1270   15.8852   -6.1941 C   0  0  0  0  0  0  0  0  0  0  0  0
   38.1514   15.7617   -7.2535 C   0  0  0  0  0  0  0  0  0  0  0  0
   37.9487   16.0049   -8.5388 N   0  0  0  0  0  0  0  0  0  0  0  0
   39.1385   15.7274   -9.1874 C   0  0  0  0  0  0  0  0  0  0  0  0
   40.0877   15.3118   -8.2800 C   0  0  0  0  0  0  0  0  0  0  0  0
   39.4516   15.3429   -7.0963 N   0  0  0  0  0  0  0  0  0  0  0  0
   40.0474   15.0760   -5.8166 C   0  0  0  0  0  0  0  0  0  0  0  0
   39.6719   16.2478   -4.8381 C   0  0  0  0  0  0  0  0  0  0  0  0
   38.6023   15.4139   -4.1854 C   0  0  0  0  0  0  0  0  0  0  0  0
   39.1580   14.2123   -4.9139 C   0  0  0  0  0  0  0  0  0  0  0  0
   37.2708   15.7269   -4.8315 C   0  0  0  0  0  0  0  0  0  0  0  0
   36.2624   15.8291   -3.9094 C   0  0  0  0  0  0  0  0  0  0  0  0
   35.0030   16.1212   -4.4535 C   0  0  0  0  0  0  0  0  0  0  0  0
   33.9242   16.2435   -3.6655 F   0  0  0  0  0  0  0  0  0  0  0  0
   39.1280   15.8640  -10.6348 C   0  0  0  0  0  0  0  0  0  0  0  0
   38.5933   14.8802  -11.4935 N   0  0  0  0  0  0  0  0  0  0  0  0
   39.5984   16.9127  -11.1956 O   0  0  0  0  0  0  0  0  0  0  0  0
   38.9925   14.7654  -12.4435 H   0  0  0  0  0  0  0  0  0  0  0  0
   37.8042   14.2366  -11.2266 H   0  0  0  0  0  0  0  0  0  0  0  0
   41.5224   15.1189   -8.5698 C   0  0  0  0  0  0  0  0  0  0  0  0
   42.4104   16.0495   -9.0658 C   0  0  0  0  0  0  0  0  0  0  0  0
   43.5923   15.4718   -9.3873 N   0  0  0  0  0  0  0  0  0  0  0  0
   43.4993   14.2021   -9.1146 N   0  0  0  0  0  0  0  0  0  0  0  0
   42.2472   13.9463   -8.6118 C   0  0  0  0  0  0  0  0  0  0  0  0
   44.4938   13.2040   -9.2981 C   0  0  0  0  0  0  0  0  0  0  0  0
   44.7995   12.8219  -10.7066 C   0  0  0  0  0  0  0  0  0  0  0  0
   45.8894   13.6638  -11.3182 C   0  0  0  0  0  0  0  0  0  0  0  0
   45.1998   11.3666  -10.8415 C   0  0  0  0  0  0  0  0  0  0  0  0
   43.6405   13.0000  -11.4627 O   0  0  0  0  0  0  0  0  0  0  0  0
   42.9360   12.4585  -11.0218 H   0  0  0  0  0  0  0  0  0  0  0  0
   32.3768   16.8101   -6.7637 C   0  0  0  0  0  0  0  0  0  0  0  0
   33.4851   16.5817   -6.3411 C   0  0  0  0  0  0  0  0  0  0  0  0
   31.0207   17.0693   -7.2682 C   0  0  0  0  0  0  0  0  0  0  0  0
   30.0790   16.8380   -6.1409 C   0  0  0  0  0  0  0  0  0  0  0  0
   30.9136   18.4300   -7.6355 O   0  0  0  0  0  0  0  0  0  0  0  0
   31.7486   18.7068   -8.1396 H   0  0  0  0  0  0  0  0  0  0  0  0
   31.2377   14.5025  -11.6544 C   0  0  0  0  0  0  0  0  0  0  0  0
   30.7560   15.1166  -10.3765 C   0  0  0  0  0  0  0  0  0  0  0  0
   31.5140   15.8814   -9.5150 C   0  0  0  0  0  0  0  0  0  0  0  0
   30.7082   16.2519   -8.4626 C   0  0  0  0  0  0  0  0  0  0  0  0
   29.5188   15.7096   -8.7223 N   0  0  0  0  0  0  0  0  0  0  0  0
   29.5640   15.0444   -9.8510 O   0  0  0  0  0  0  0  0  0  0  0  0
 39 40  1  0  0  0
 40 41  2  0  0  0
 41 42  1  0  0  0
 42 43  2  0  0  0
 43 44  1  0  0  0
 42 35  1  0  0  0
 35 36  1  0  0  0
 35 37  1  0  0  0
 35 33  1  0  0  0
 33 34  3  0  0  0
 34  1  1  0  0  0
  1  2  1  0  0  0
  2  3  2  0  0  0
  3  4  1  0  0  0
  4  5  2  0  0  0
  5  6  1  0  0  0
  6 17  1  0  0  0
 17 18  1  0  0  0
 17 19  2  0  0  0
  6  7  2  0  0  0
  7 22  1  0  0  0
 22 23  1  0  0  0
 23 24  2  0  0  0
 24 25  1  0  0  0
 25 27  1  0  0  0
 27 28  1  0  0  0
 28 29  1  0  0  0
 28 30  1  0  0  0
 28 31  1  0  0  0
 25 26  1  0  0  0
  7  8  1  0  0  0
  8  9  1  0  0  0
  9 10  1  0  0  0
 10 11  1  0  0  0
 11 12  1  0  0  0
 11 13  1  0  0  0
 13 14  2  0  0  0
 14 15  1  0  0  0
 15 16  1  0  0  0
 44 40  1  0  0  0
 15  1  2  0  0  0
 13  3  1  0  0  0
  8  4  1  0  0  0
 12  9  1  0  0  0
 26 22  2  0  0  0
 37 38  1  0  0  0
 18 20  1  0  0  0
 18 21  1  0  0  0
 31 32  1  0  0  0
M  END
> <minimizedAffinity>
-7.37098

> <CNNscore>
0.1139778718

> <CNNaffinity>
6.1692752838

> <CNN_VS>
0.7031608820

> <CNNaffinity_variance>
0.2132234126

$$$$
[H]O[C@](C#Cc1c([H])c([H])c2c(c1[H])-c1nc(C(=O)N([H])[H])n(C([H])([H])[H])c1C1([H])C([H])([H])C2([H])C1([H])[H])(c1nc([H])c([H])c([H])n1)C([H])([H])[H]


 33 37  0  0  0  0  0  0  0  0999 V2000
   37.0391   10.9831  -17.5912 C   0  0  0  0  0  0  0  0  0  0  0  0
   38.0034   11.7248  -16.8004 N   0  0  0  0  0  0  0  0  0  0  0  0
   39.3027   11.9013  -17.1793 C   0  0  0  0  0  0  0  0  0  0  0  0
   39.9117   12.6596  -16.2162 N   0  0  0  0  0  0  0  0  0  0  0  0
   39.0371   12.9655  -15.2490 C   0  0  0  0  0  0  0  0  0  0  0  0
   37.8444   12.3540  -15.6512 C   0  0  0  0  0  0  0  0  0  0  0  0
   36.5453   12.3894  -14.9286 C   0  0  0  0  0  0  0  0  0  0  0  0
   36.1900   13.8648  -14.6616 C   0  0  0  0  0  0  0  0  0  0  0  0
   36.7548   13.7770  -13.2426 C   0  0  0  0  0  0  0  0  0  0  0  0
   36.6870   12.2519  -13.4071 C   0  0  0  0  0  0  0  0  0  0  0  0
   38.1859   14.1768  -13.1824 C   0  0  0  0  0  0  0  0  0  0  0  0
   38.3522   15.0518  -12.1384 C   0  0  0  0  0  0  0  0  0  0  0  0
   39.6084   15.5928  -12.0045 C   0  0  0  0  0  0  0  0  0  0  0  0
   40.6404   15.2685  -12.8740 C   0  0  0  0  0  0  0  0  0  0  0  0
   40.4477   14.3827  -13.9014 C   0  0  0  0  0  0  0  0  0  0  0  0
   39.2021   13.8165  -14.0778 C   0  0  0  0  0  0  0  0  0  0  0  0
   39.8869   11.3952  -18.4140 C   0  0  0  0  0  0  0  0  0  0  0  0
   39.1914   10.9342  -19.5373 N   0  0  0  0  0  0  0  0  0  0  0  0
   41.1682   11.3562  -18.5184 O   0  0  0  0  0  0  0  0  0  0  0  0
   38.3025   10.4189  -19.4561 H   0  0  0  0  0  0  0  0  0  0  0  0
   39.5595   11.1065  -20.5160 H   0  0  0  0  0  0  0  0  0  0  0  0
   41.8223   16.1132  -12.8151 C   0  0  0  0  0  0  0  0  0  0  0  0
   42.8780   16.6684  -12.8040 C   0  0  0  0  0  0  0  0  0  0  0  0
   44.2144   17.1781  -12.8303 C   0  0  0  0  0  0  0  0  0  0  0  0
   44.3375   18.5676  -13.3147 C   0  0  0  0  0  0  0  0  0  0  0  0
   44.5490   17.3475  -11.3676 O   0  0  0  0  0  0  0  0  0  0  0  0
   44.3612   16.3802  -11.0922 H   0  0  0  0  0  0  0  0  0  0  0  0
   45.3001   16.3042  -13.2250 C   0  0  0  0  0  0  0  0  0  0  0  0
   46.2876   16.6386  -14.0577 N   0  0  0  0  0  0  0  0  0  0  0  0
   47.2218   15.7477  -14.4875 C   0  0  0  0  0  0  0  0  0  0  0  0
   47.1712   14.4498  -14.0641 C   0  0  0  0  0  0  0  0  0  0  0  0
   46.1520   14.1006  -13.1988 C   0  0  0  0  0  0  0  0  0  0  0  0
   45.2554   15.0111  -12.8021 N   0  0  0  0  0  0  0  0  0  0  0  0
  1  2  1  0  0  0
  2  3  1  0  0  0
  3  4  2  0  0  0
  4  5  1  0  0  0
  5  6  2  0  0  0
  6  7  1  0  0  0
  7  8  1  0  0  0
  8  9  1  0  0  0
  9 10  1  0  0  0
  9 11  1  0  0  0
 11 12  2  0  0  0
 12 13  1  0  0  0
 13 14  2  0  0  0
 14 15  1  0  0  0
 15 16  2  0  0  0
 14 22  1  0  0  0
 22 23  3  0  0  0
 24 23  1  0  0  0
 24 25  1  0  0  0
 24 26  1  0  0  0
 24 28  1  0  0  0
 28 29  2  0  0  0
 29 30  1  0  0  0
 30 31  2  0  0  0
 31 32  1  0  0  0
 32 33  2  0  0  0
  3 17  1  0  0  0
 17 18  1  0  0  0
 17 19  2  0  0  0
  6  2  1  0  0  0
 10  7  1  0  0  0
 16 11  1  0  0  0
 33 28  1  0  0  0
  5 16  1  0  0  0
 26 27  1  0  0  0
 18 20  1  0  0  0
 18 21  1  0  0  0
M  END
> <minimizedAffinity>
-8.68507

> <CNNscore>
0.5375994444

> <CNNaffinity>
7.1900491714

> <CNN_VS>
3.8653664589

> <CNNaffinity_variance>
0.4577711523

$$$$
[H]O[C@](C#Cc1c([H])c([H])c2c(c1[H])-c1nc(C(=O)N([H])[H])n(C([H])([H])[H])c1C1([H])C([H])([H])C2([H])C1([H])[H])(c1nc([H])c([H])c([H])n1)C([H])([H])[H]


 33 37  0  0  0  0  0  0  0  0999 V2000
   40.0764   11.0842  -18.6957 C   0  0  0  0  0  0  0  0  0  0  0  0
   39.4101   11.5413  -17.4905 N   0  0  0  0  0  0  0  0  0  0  0  0
   40.0398   12.2586  -16.5149 C   0  0  0  0  0  0  0  0  0  0  0  0
   39.1133   12.5354  -15.5462 N   0  0  0  0  0  0  0  0  0  0  0  0
   37.9249   12.0180  -15.8838 C   0  0  0  0  0  0  0  0  0  0  0  0
   38.1534   11.3944  -17.1156 C   0  0  0  0  0  0  0  0  0  0  0  0
   37.1505   10.6661  -17.9372 C   0  0  0  0  0  0  0  0  0  0  0  0
   35.9471   11.6027  -18.1588 C   0  0  0  0  0  0  0  0  0  0  0  0
   35.1862   10.9504  -17.0031 C   0  0  0  0  0  0  0  0  0  0  0  0
   36.1948    9.7974  -17.1089 C   0  0  0  0  0  0  0  0  0  0  0  0
   35.4148   11.6536  -15.7129 C   0  0  0  0  0  0  0  0  0  0  0  0
   34.2021   11.8528  -15.1023 C   0  0  0  0  0  0  0  0  0  0  0  0
   34.2307   12.5794  -13.9362 C   0  0  0  0  0  0  0  0  0  0  0  0
   35.4165   13.0764  -13.4136 C   0  0  0  0  0  0  0  0  0  0  0  0
   36.6144   12.8521  -14.0397 C   0  0  0  0  0  0  0  0  0  0  0  0
   36.6351   12.1308  -15.2154 C   0  0  0  0  0  0  0  0  0  0  0  0
   41.4359   12.6723  -16.5541 C   0  0  0  0  0  0  0  0  0  0  0  0
   42.4828   12.0119  -17.2071 N   0  0  0  0  0  0  0  0  0  0  0  0
   41.7766   13.7497  -15.9400 O   0  0  0  0  0  0  0  0  0  0  0  0
   42.5288   10.9839  -17.2647 H   0  0  0  0  0  0  0  0  0  0  0  0
   43.2659   12.5550  -17.6706 H   0  0  0  0  0  0  0  0  0  0  0  0
   35.2900   14.0638  -12.3538 C   0  0  0  0  0  0  0  0  0  0  0  0
   35.3047   14.7873  -11.4055 C   0  0  0  0  0  0  0  0  0  0  0  0
   35.4472   15.5496  -10.2034 C   0  0  0  0  0  0  0  0  0  0  0  0
   36.6027   15.1726   -9.3648 C   0  0  0  0  0  0  0  0  0  0  0  0
   35.8794   16.9072  -10.7038 O   0  0  0  0  0  0  0  0  0  0  0  0
   35.0851   17.0587  -11.3307 H   0  0  0  0  0  0  0  0  0  0  0  0
   34.2639   15.9330   -9.4613 C   0  0  0  0  0  0  0  0  0  0  0  0
   34.2374   16.2213   -8.1588 N   0  0  0  0  0  0  0  0  0  0  0  0
   33.0826   16.4656   -7.4820 C   0  0  0  0  0  0  0  0  0  0  0  0
   31.8855   16.4213   -8.1389 C   0  0  0  0  0  0  0  0  0  0  0  0
   31.9093   16.1267   -9.4887 C   0  0  0  0  0  0  0  0  0  0  0  0
   33.0695   15.8939  -10.1132 N   0  0  0  0  0  0  0  0  0  0  0  0
  1  2  1  0  0  0
  2  3  1  0  0  0
  3  4  2  0  0  0
  4  5  1  0  0  0
  5  6  2  0  0  0
  6  7  1  0  0  0
  7  8  1  0  0  0
  8  9  1  0  0  0
  9 10  1  0  0  0
  9 11  1  0  0  0
 11 12  2  0  0  0
 12 13  1  0  0  0
 13 14  2  0  0  0
 14 15  1  0  0  0
 15 16  2  0  0  0
 14 22  1  0  0  0
 22 23  3  0  0  0
 24 23  1  0  0  0
 24 25  1  0  0  0
 24 26  1  0  0  0
 24 28  1  0  0  0
 28 29  2  0  0  0
 29 30  1  0  0  0
 30 31  2  0  0  0
 31 32  1  0  0  0
 32 33  2  0  0  0
  3 17  1  0  0  0
 17 18  1  0  0  0
 17 19  2  0  0  0
  6  2  1  0  0  0
 10  7  1  0  0  0
 16 11  1  0  0  0
 33 28  1  0  0  0
  5 16  1  0  0  0
 26 27  1  0  0  0
 18 20  1  0  0  0
 18 21  1  0  0  0
M  END
> <minimizedAffinity>
-9.00383

> <CNNscore>
0.4639121592

> <CNNaffinity>
7.1254110336

> <CNN_VS>
3.3055648804

> <CNNaffinity_variance>
0.1976466477

$$$$
[H]O[C@](C#Cc1c([H])c([H])c2c(c1[H])-c1nc(C(=O)N([H])[H])n(C([H])([H])[H])c1C1([H])C([H])([H])C2([H])C1([H])[H])(c1nc([H])c([H])c([H])n1)C([H])([H])[H]


 33 37  0  0  0  0  0  0  0  0999 V2000
   40.1872   11.2133  -18.6555 C   0  0  0  0  0  0  0  0  0  0  0  0
   39.5685   11.6047  -17.4027 N   0  0  0  0  0  0  0  0  0  0  0  0
   40.2439   12.2430  -16.4031 C   0  0  0  0  0  0  0  0  0  0  0  0
   39.3538   12.4756  -15.3897 N   0  0  0  0  0  0  0  0  0  0  0  0
   38.1440   12.0068  -15.7223 C   0  0  0  0  0  0  0  0  0  0  0  0
   38.3205   11.4604  -16.9985 C   0  0  0  0  0  0  0  0  0  0  0  0
   37.2766   10.8089  -17.8332 C   0  0  0  0  0  0  0  0  0  0  0  0
   36.0892   11.7834  -17.9556 C   0  0  0  0  0  0  0  0  0  0  0  0
   35.3486   11.0733  -16.8210 C   0  0  0  0  0  0  0  0  0  0  0  0
   36.3264    9.9085  -17.0331 C   0  0  0  0  0  0  0  0  0  0  0  0
   35.6324   11.6855  -15.4958 C   0  0  0  0  0  0  0  0  0  0  0  0
   34.4437   11.8702  -14.8355 C   0  0  0  0  0  0  0  0  0  0  0  0
   34.5245   12.5181  -13.6263 C   0  0  0  0  0  0  0  0  0  0  0  0
   35.7368   12.9545  -13.1104 C   0  0  0  0  0  0  0  0  0  0  0  0
   36.9096   12.7462  -13.7874 C   0  0  0  0  0  0  0  0  0  0  0  0
   36.8780   12.1030  -15.0074 C   0  0  0  0  0  0  0  0  0  0  0  0
   41.6475   12.6286  -16.4597 C   0  0  0  0  0  0  0  0  0  0  0  0
   42.6211   12.1067  -17.3188 N   0  0  0  0  0  0  0  0  0  0  0  0
   42.0690   13.5393  -15.6553 O   0  0  0  0  0  0  0  0  0  0  0  0
   42.6264   11.1154  -17.6006 H   0  0  0  0  0  0  0  0  0  0  0  0
   43.3880   12.7228  -17.7130 H   0  0  0  0  0  0  0  0  0  0  0  0
   35.6654   13.8729  -11.9855 C   0  0  0  0  0  0  0  0  0  0  0  0
   35.7452   14.5514  -11.0077 C   0  0  0  0  0  0  0  0  0  0  0  0
   35.9854   15.2730   -9.7960 C   0  0  0  0  0  0  0  0  0  0  0  0
   36.1841   16.7259   -9.9699 C   0  0  0  0  0  0  0  0  0  0  0  0
   34.6440   15.2420   -9.1032 O   0  0  0  0  0  0  0  0  0  0  0  0
   34.5397   14.2242   -9.0965 H   0  0  0  0  0  0  0  0  0  0  0  0
   36.8032   14.6726   -8.7622 C   0  0  0  0  0  0  0  0  0  0  0  0
   36.3370   13.9602   -7.7348 N   0  0  0  0  0  0  0  0  0  0  0  0
   37.1341   13.5126   -6.7271 C   0  0  0  0  0  0  0  0  0  0  0  0
   38.4720   13.7890   -6.7428 C   0  0  0  0  0  0  0  0  0  0  0  0
   38.9591   14.5234   -7.8071 C   0  0  0  0  0  0  0  0  0  0  0  0
   38.1374   14.9423   -8.7764 N   0  0  0  0  0  0  0  0  0  0  0  0
  1  2  1  0  0  0
  2  3  1  0  0  0
  3  4  2  0  0  0
  4  5  1  0  0  0
  5  6  2  0  0  0
  6  7  1  0  0  0
  7  8  1  0  0  0
  8  9  1  0  0  0
  9 10  1  0  0  0
  9 11  1  0  0  0
 11 12  2  0  0  0
 12 13  1  0  0  0
 13 14  2  0  0  0
 14 15  1  0  0  0
 15 16  2  0  0  0
 14 22  1  0  0  0
 22 23  3  0  0  0
 24 23  1  0  0  0
 24 25  1  0  0  0
 24 26  1  0  0  0
 24 28  1  0  0  0
 28 29  2  0  0  0
 29 30  1  0  0  0
 30 31  2  0  0  0
 31 32  1  0  0  0
 32 33  2  0  0  0
  3 17  1  0  0  0
 17 18  1  0  0  0
 17 19  2  0  0  0
  6  2  1  0  0  0
 10  7  1  0  0  0
 16 11  1  0  0  0
 33 28  1  0  0  0
  5 16  1  0  0  0
 26 27  1  0  0  0
 18 20  1  0  0  0
 18 21  1  0  0  0
M  END
> <minimizedAffinity>
-9.12889

> <CNNscore>
0.4608964622

> <CNNaffinity>
7.1808481216

> <CNN_VS>
3.3096275330

> <CNNaffinity_variance>
0.1091567129

$$$$
[H]O[C@](C#Cc1c([H])c([H])c2c(c1[H])-c1nc(C(=O)N([H])[H])n(C([H])([H])[H])c1C1([H])C([H])([H])C2([H])C1([H])[H])(c1nc([H])c([H])c([H])n1)C([H])([H])[H]


 33 37  0  0  0  0  0  0  0  0999 V2000
   40.3608   11.2279  -18.7384 C   0  0  0  0  0  0  0  0  0  0  0  0
   39.6999   11.5970  -17.5005 N   0  0  0  0  0  0  0  0  0  0  0  0
   40.3363   12.2342  -16.4749 C   0  0  0  0  0  0  0  0  0  0  0  0
   39.4135   12.4431  -15.4859 N   0  0  0  0  0  0  0  0  0  0  0  0
   38.2209   11.9606  -15.8588 C   0  0  0  0  0  0  0  0  0  0  0  0
   38.4429   11.4305  -17.1348 C   0  0  0  0  0  0  0  0  0  0  0  0
   37.4336   10.7731  -18.0067 C   0  0  0  0  0  0  0  0  0  0  0  0
   36.2362   11.7317  -18.1540 C   0  0  0  0  0  0  0  0  0  0  0  0
   35.4730   10.9990  -17.0491 C   0  0  0  0  0  0  0  0  0  0  0  0
   36.4735    9.8507  -17.2443 C   0  0  0  0  0  0  0  0  0  0  0  0
   35.7088   11.6010  -15.7100 C   0  0  0  0  0  0  0  0  0  0  0  0
   34.4986   11.7615  -15.0832 C   0  0  0  0  0  0  0  0  0  0  0  0
   34.5344   12.3976  -13.8655 C   0  0  0  0  0  0  0  0  0  0  0  0
   35.7245   12.8458  -13.3096 C   0  0  0  0  0  0  0  0  0  0  0  0
   36.9196   12.6615  -13.9538 C   0  0  0  0  0  0  0  0  0  0  0  0
   36.9332   12.0311  -15.1808 C   0  0  0  0  0  0  0  0  0  0  0  0
   41.7351   12.6404  -16.4861 C   0  0  0  0  0  0  0  0  0  0  0  0
   42.7655   12.0603  -17.2346 N   0  0  0  0  0  0  0  0  0  0  0  0
   42.0951   13.6299  -15.7476 O   0  0  0  0  0  0  0  0  0  0  0  0
   42.8016   11.0474  -17.4214 H   0  0  0  0  0  0  0  0  0  0  0  0
   43.5456   12.6522  -17.6399 H   0  0  0  0  0  0  0  0  0  0  0  0
   35.6066   13.7510  -12.1779 C   0  0  0  0  0  0  0  0  0  0  0  0
   35.6662   14.4489  -11.2124 C   0  0  0  0  0  0  0  0  0  0  0  0
   35.9013   15.2254  -10.0342 C   0  0  0  0  0  0  0  0  0  0  0  0
   34.8030   16.1417   -9.6674 C   0  0  0  0  0  0  0  0  0  0  0  0
   35.8142   14.2051   -8.9244 O   0  0  0  0  0  0  0  0  0  0  0  0
   36.5321   13.5741   -9.2894 H   0  0  0  0  0  0  0  0  0  0  0  0
   37.2294   15.7444   -9.7791 C   0  0  0  0  0  0  0  0  0  0  0  0
   37.9559   16.4488  -10.6487 N   0  0  0  0  0  0  0  0  0  0  0  0
   39.2427   16.8174  -10.4050 C   0  0  0  0  0  0  0  0  0  0  0  0
   39.8410   16.4656   -9.2282 C   0  0  0  0  0  0  0  0  0  0  0  0
   39.0905   15.7391   -8.3236 C   0  0  0  0  0  0  0  0  0  0  0  0
   37.8276   15.3993   -8.6060 N   0  0  0  0  0  0  0  0  0  0  0  0
  1  2  1  0  0  0
  2  3  1  0  0  0
  3  4  2  0  0  0
  4  5  1  0  0  0
  5  6  2  0  0  0
  6  7  1  0  0  0
  7  8  1  0  0  0
  8  9  1  0  0  0
  9 10  1  0  0  0
  9 11  1  0  0  0
 11 12  2  0  0  0
 12 13  1  0  0  0
 13 14  2  0  0  0
 14 15  1  0  0  0
 15 16  2  0  0  0
 14 22  1  0  0  0
 22 23  3  0  0  0
 24 23  1  0  0  0
 24 25  1  0  0  0
 24 26  1  0  0  0
 24 28  1  0  0  0
 28 29  2  0  0  0
 29 30  1  0  0  0
 30 31  2  0  0  0
 31 32  1  0  0  0
 32 33  2  0  0  0
  3 17  1  0  0  0
 17 18  1  0  0  0
 17 19  2  0  0  0
  6  2  1  0  0  0
 10  7  1  0  0  0
 16 11  1  0  0  0
 33 28  1  0  0  0
  5 16  1  0  0  0
 26 27  1  0  0  0
 18 20  1  0  0  0
 18 21  1  0  0  0
M  END
> <minimizedAffinity>
-9.14122

> <CNNscore>
0.4102506340

> <CNNaffinity>
7.1935882568

> <CNN_VS>
2.9511742592

> <CNNaffinity_variance>
0.1296285093

$$$$
[H]O[C@](C#Cc1c([H])c([H])c2c(c1[H])-c1nc(C(=O)N([H])[H])n(C([H])([H])[H])c1C1([H])C([H])([H])C2([H])C1([H])[H])(c1nc([H])c([H])c([H])n1)C([H])([H])[H]


 33 37  0  0  0  0  0  0  0  0999 V2000
   37.7759   10.5236  -19.2279 C   0  0  0  0  0  0  0  0  0  0  0  0
   37.8368   11.1355  -17.9136 N   0  0  0  0  0  0  0  0  0  0  0  0
   38.9652   11.7160  -17.4111 C   0  0  0  0  0  0  0  0  0  0  0  0
   38.6579   12.2041  -16.1699 N   0  0  0  0  0  0  0  0  0  0  0  0
   37.3749   11.9510  -15.8798 C   0  0  0  0  0  0  0  0  0  0  0  0
   36.8910   11.2712  -17.0032 C   0  0  0  0  0  0  0  0  0  0  0  0
   35.5075   10.7635  -17.2012 C   0  0  0  0  0  0  0  0  0  0  0  0
   34.5336   11.9348  -16.9688 C   0  0  0  0  0  0  0  0  0  0  0  0
   34.2845   11.4835  -15.5285 C   0  0  0  0  0  0  0  0  0  0  0  0
   34.8986   10.1375  -15.9397 C   0  0  0  0  0  0  0  0  0  0  0  0
   35.2069   12.1428  -14.5663 C   0  0  0  0  0  0  0  0  0  0  0  0
   34.4718   12.6110  -13.5063 C   0  0  0  0  0  0  0  0  0  0  0  0
   35.1679   13.3344  -12.5677 C   0  0  0  0  0  0  0  0  0  0  0  0
   36.5299   13.5714  -12.6901 C   0  0  0  0  0  0  0  0  0  0  0  0
   37.2402   13.0817  -13.7544 C   0  0  0  0  0  0  0  0  0  0  0  0
   36.5836   12.3526  -14.7241 C   0  0  0  0  0  0  0  0  0  0  0  0
   40.2358   11.8162  -18.1165 C   0  0  0  0  0  0  0  0  0  0  0  0
   41.2853   10.8913  -18.0786 N   0  0  0  0  0  0  0  0  0  0  0  0
   40.4479   12.8438  -18.8603 O   0  0  0  0  0  0  0  0  0  0  0  0
   41.5188   10.3646  -17.2241 H   0  0  0  0  0  0  0  0  0  0  0  0
   41.8750   10.6995  -18.9380 H   0  0  0  0  0  0  0  0  0  0  0  0
   37.0903   14.5812  -11.8067 C   0  0  0  0  0  0  0  0  0  0  0  0
   37.5759   15.2846  -10.9747 C   0  0  0  0  0  0  0  0  0  0  0  0
   38.1764   15.9828   -9.8800 C   0  0  0  0  0  0  0  0  0  0  0  0
   37.5745   17.2973   -9.5794 C   0  0  0  0  0  0  0  0  0  0  0  0
   37.7415   15.1799   -8.6773 O   0  0  0  0  0  0  0  0  0  0  0  0
   38.1145   14.2819   -8.9954 H   0  0  0  0  0  0  0  0  0  0  0  0
   39.6126   15.9230   -9.7017 C   0  0  0  0  0  0  0  0  0  0  0  0
   40.2345   15.8299   -8.5248 N   0  0  0  0  0  0  0  0  0  0  0  0
   41.5880   15.8914   -8.4003 C   0  0  0  0  0  0  0  0  0  0  0  0
   42.3676   16.0541   -9.5103 C   0  0  0  0  0  0  0  0  0  0  0  0
   41.7273   16.1472  -10.7312 C   0  0  0  0  0  0  0  0  0  0  0  0
   40.3930   16.0809  -10.8057 N   0  0  0  0  0  0  0  0  0  0  0  0
  1  2  1  0  0  0
  2  3  1  0  0  0
  3  4  2  0  0  0
  4  5  1  0  0  0
  5  6  2  0  0  0
  6  7  1  0  0  0
  7  8  1  0  0  0
  8  9  1  0  0  0
  9 10  1  0  0  0
  9 11  1  0  0  0
 11 12  2  0  0  0
 12 13  1  0  0  0
 13 14  2  0  0  0
 14 15  1  0  0  0
 15 16  2  0  0  0
 14 22  1  0  0  0
 22 23  3  0  0  0
 24 23  1  0  0  0
 24 25  1  0  0  0
 24 26  1  0  0  0
 24 28  1  0  0  0
 28 29  2  0  0  0
 29 30  1  0  0  0
 30 31  2  0  0  0
 31 32  1  0  0  0
 32 33  2  0  0  0
  3 17  1  0  0  0
 17 18  1  0  0  0
 17 19  2  0  0  0
  6  2  1  0  0  0
 10  7  1  0  0  0
 16 11  1  0  0  0
 33 28  1  0  0  0
  5 16  1  0  0  0
 26 27  1  0  0  0
 18 20  1  0  0  0
 18 21  1  0  0  0
M  END
> <minimizedAffinity>
-6.83733

> <CNNscore>
0.2528012693

> <CNNaffinity>
6.8821954727

> <CNN_VS>
1.7398277521

> <CNNaffinity_variance>
0.1848583817

$$$$
[H]O[C@](C#Cc1c([H])c([H])c2c(c1[H])-c1nc(C(=O)N([H])[H])n(C([H])([H])[H])c1C1([H])C([H])([H])C2([H])C1([H])[H])(c1nc([H])c([H])c([H])n1)C([H])([H])[H]


 33 37  0  0  0  0  0  0  0  0999 V2000
   39.5780   11.5133  -17.7541 C   0  0  0  0  0  0  0  0  0  0  0  0
   39.3345   12.1880  -16.4928 N   0  0  0  0  0  0  0  0  0  0  0  0
   40.3199   12.7890  -15.7645 C   0  0  0  0  0  0  0  0  0  0  0  0
   39.7343   13.3376  -14.6557 N   0  0  0  0  0  0  0  0  0  0  0  0
   38.4157   13.1024  -14.6668 C   0  0  0  0  0  0  0  0  0  0  0  0
   38.2020   12.3703  -15.8402 C   0  0  0  0  0  0  0  0  0  0  0  0
   36.8977   11.8575  -16.3369 C   0  0  0  0  0  0  0  0  0  0  0  0
   35.9132   13.0414  -16.3969 C   0  0  0  0  0  0  0  0  0  0  0  0
   35.3237   12.6611  -15.0375 C   0  0  0  0  0  0  0  0  0  0  0  0
   35.9985   11.2951  -15.2283 C   0  0  0  0  0  0  0  0  0  0  0  0
   36.0012   13.3638  -13.9156 C   0  0  0  0  0  0  0  0  0  0  0  0
   35.0427   13.8849  -13.0832 C   0  0  0  0  0  0  0  0  0  0  0  0
   35.5068   14.6510  -12.0409 C   0  0  0  0  0  0  0  0  0  0  0  0
   36.8623   14.8780  -11.8475 C   0  0  0  0  0  0  0  0  0  0  0  0
   37.7975   14.3353  -12.6889 C   0  0  0  0  0  0  0  0  0  0  0  0
   37.3790   13.5618  -13.7518 C   0  0  0  0  0  0  0  0  0  0  0  0
   41.7227   12.8514  -16.1521 C   0  0  0  0  0  0  0  0  0  0  0  0
   42.3194   12.1899  -17.2313 N   0  0  0  0  0  0  0  0  0  0  0  0
   42.5220   13.5803  -15.4565 O   0  0  0  0  0  0  0  0  0  0  0  0
   42.0244   11.2470  -17.5249 H   0  0  0  0  0  0  0  0  0  0  0  0
   43.0979   12.6452  -17.7877 H   0  0  0  0  0  0  0  0  0  0  0  0
   37.2118   15.9278  -10.9042 C   0  0  0  0  0  0  0  0  0  0  0  0
   37.3648   16.7399  -10.0440 C   0  0  0  0  0  0  0  0  0  0  0  0
   37.4043   17.6460   -8.9377 C   0  0  0  0  0  0  0  0  0  0  0  0
   37.9140   18.9940   -9.2597 C   0  0  0  0  0  0  0  0  0  0  0  0
   35.9458   17.9390   -8.6782 O   0  0  0  0  0  0  0  0  0  0  0  0
   35.6525   16.9671   -8.5508 H   0  0  0  0  0  0  0  0  0  0  0  0
   37.7864   17.1540   -7.6301 C   0  0  0  0  0  0  0  0  0  0  0  0
   38.8870   17.5154   -6.9680 N   0  0  0  0  0  0  0  0  0  0  0  0
   39.2616   16.9408   -5.7929 C   0  0  0  0  0  0  0  0  0  0  0  0
   38.4969   15.9502   -5.2447 C   0  0  0  0  0  0  0  0  0  0  0  0
   37.3543   15.5758   -5.9257 C   0  0  0  0  0  0  0  0  0  0  0  0
   37.0249   16.1696   -7.0785 N   0  0  0  0  0  0  0  0  0  0  0  0
  1  2  1  0  0  0
  2  3  1  0  0  0
  3  4  2  0  0  0
  4  5  1  0  0  0
  5  6  2  0  0  0
  6  7  1  0  0  0
  7  8  1  0  0  0
  8  9  1  0  0  0
  9 10  1  0  0  0
  9 11  1  0  0  0
 11 12  2  0  0  0
 12 13  1  0  0  0
 13 14  2  0  0  0
 14 15  1  0  0  0
 15 16  2  0  0  0
 14 22  1  0  0  0
 22 23  3  0  0  0
 24 23  1  0  0  0
 24 25  1  0  0  0
 24 26  1  0  0  0
 24 28  1  0  0  0
 28 29  2  0  0  0
 29 30  1  0  0  0
 30 31  2  0  0  0
 31 32  1  0  0  0
 32 33  2  0  0  0
  3 17  1  0  0  0
 17 18  1  0  0  0
 17 19  2  0  0  0
  6  2  1  0  0  0
 10  7  1  0  0  0
 16 11  1  0  0  0
 33 28  1  0  0  0
  5 16  1  0  0  0
 26 27  1  0  0  0
 18 20  1  0  0  0
 18 21  1  0  0  0
M  END
> <minimizedAffinity>
-7.63303

> <CNNscore>
0.2271996140

> <CNNaffinity>
6.5017766953

> <CNN_VS>
1.4772011042

> <CNNaffinity_variance>
0.2372294217

$$$$
[H]O[C@](C#Cc1c([H])c([H])c2c(c1[H])-c1nc(C(=O)N([H])[H])n(C([H])([H])[H])c1C1([H])C([H])([H])C2([H])C1([H])[H])(c1nc([H])c([H])c([H])n1)C([H])([H])[H]


 33 37  0  0  0  0  0  0  0  0999 V2000
   36.8888   11.6471  -16.6599 C   0  0  0  0  0  0  0  0  0  0  0  0
   37.9756   12.3282  -15.9814 N   0  0  0  0  0  0  0  0  0  0  0  0
   39.2584   12.3377  -16.4476 C   0  0  0  0  0  0  0  0  0  0  0  0
   40.0057   13.0850  -15.5779 N   0  0  0  0  0  0  0  0  0  0  0  0
   39.2337   13.5454  -14.5848 C   0  0  0  0  0  0  0  0  0  0  0  0
   37.9595   13.0430  -14.8722 C   0  0  0  0  0  0  0  0  0  0  0  0
   36.7219   13.2657  -14.0786 C   0  0  0  0  0  0  0  0  0  0  0  0
   36.5415   14.7851  -13.8958 C   0  0  0  0  0  0  0  0  0  0  0  0
   37.1864   14.7269  -12.5098 C   0  0  0  0  0  0  0  0  0  0  0  0
   36.9486   13.2108  -12.5622 C   0  0  0  0  0  0  0  0  0  0  0  0
   38.6523   14.9715  -12.5623 C   0  0  0  0  0  0  0  0  0  0  0  0
   38.9778   15.8880  -11.5941 C   0  0  0  0  0  0  0  0  0  0  0  0
   40.2899   16.2963  -11.5728 C   0  0  0  0  0  0  0  0  0  0  0  0
   41.2226   15.8067  -12.4765 C   0  0  0  0  0  0  0  0  0  0  0  0
   40.8708   14.8835  -13.4257 C   0  0  0  0  0  0  0  0  0  0  0  0
   39.5638   14.4463  -13.4882 C   0  0  0  0  0  0  0  0  0  0  0  0
   39.7036   11.6934  -17.6758 C   0  0  0  0  0  0  0  0  0  0  0  0
   40.3872   12.3007  -18.7351 N   0  0  0  0  0  0  0  0  0  0  0  0
   39.4636   10.4400  -17.8357 O   0  0  0  0  0  0  0  0  0  0  0  0
   40.1987   13.2727  -19.0212 H   0  0  0  0  0  0  0  0  0  0  0  0
   41.1303   11.7751  -19.2780 H   0  0  0  0  0  0  0  0  0  0  0  0
   42.4877   16.5198  -12.5468 C   0  0  0  0  0  0  0  0  0  0  0  0
   43.5723   16.9875  -12.7136 C   0  0  0  0  0  0  0  0  0  0  0  0
   44.9011   17.4159  -13.0253 C   0  0  0  0  0  0  0  0  0  0  0  0
   45.5154   16.7351  -14.1828 C   0  0  0  0  0  0  0  0  0  0  0  0
   44.6957   18.8059  -13.5785 O   0  0  0  0  0  0  0  0  0  0  0  0
   44.1994   19.1823  -12.7669 H   0  0  0  0  0  0  0  0  0  0  0  0
   45.8203   17.7200  -11.9479 C   0  0  0  0  0  0  0  0  0  0  0  0
   47.0764   18.1401  -12.1092 N   0  0  0  0  0  0  0  0  0  0  0  0
   47.9375   18.3037  -11.0686 C   0  0  0  0  0  0  0  0  0  0  0  0
   47.5251   18.0347   -9.7942 C   0  0  0  0  0  0  0  0  0  0  0  0
   46.2237   17.6030   -9.6229 C   0  0  0  0  0  0  0  0  0  0  0  0
   45.4118   17.4570  -10.6763 N   0  0  0  0  0  0  0  0  0  0  0  0
  1  2  1  0  0  0
  2  3  1  0  0  0
  3  4  2  0  0  0
  4  5  1  0  0  0
  5  6  2  0  0  0
  6  7  1  0  0  0
  7  8  1  0  0  0
  8  9  1  0  0  0
  9 10  1  0  0  0
  9 11  1  0  0  0
 11 12  2  0  0  0
 12 13  1  0  0  0
 13 14  2  0  0  0
 14 15  1  0  0  0
 15 16  2  0  0  0
 14 22  1  0  0  0
 22 23  3  0  0  0
 24 23  1  0  0  0
 24 25  1  0  0  0
 24 26  1  0  0  0
 24 28  1  0  0  0
 28 29  2  0  0  0
 29 30  1  0  0  0
 30 31  2  0  0  0
 31 32  1  0  0  0
 32 33  2  0  0  0
  3 17  1  0  0  0
 17 18  1  0  0  0
 17 19  2  0  0  0
  6  2  1  0  0  0
 10  7  1  0  0  0
 16 11  1  0  0  0
 33 28  1  0  0  0
  5 16  1  0  0  0
 26 27  1  0  0  0
 18 20  1  0  0  0
 18 21  1  0  0  0
M  END
> <minimizedAffinity>
-7.98991

> <CNNscore>
0.2267131507

> <CNNaffinity>
6.2332224846

> <CNN_VS>
1.4131535292

> <CNNaffinity_variance>
0.0763281435

$$$$
[H]O[C@](C#Cc1c([H])c([H])c2c(c1[H])-c1nc(C(=O)N([H])[H])n(C([H])([H])[H])c1C1([H])C([H])([H])C2([H])C1([H])[H])(c1nc([H])c([H])c([H])n1)C([H])([H])[H]


 33 37  0  0  0  0  0  0  0  0999 V2000
   33.9853   11.8831  -14.9789 C   0  0  0  0  0  0  0  0  0  0  0  0
   35.3874   12.2278  -15.1222 N   0  0  0  0  0  0  0  0  0  0  0  0
   36.0645   12.9948  -14.2187 C   0  0  0  0  0  0  0  0  0  0  0  0
   37.3575   13.0982  -14.6554 N   0  0  0  0  0  0  0  0  0  0  0  0
   37.5131   12.4201  -15.8000 C   0  0  0  0  0  0  0  0  0  0  0  0
   36.2462   11.8879  -16.0648 C   0  0  0  0  0  0  0  0  0  0  0  0
   35.8694   11.0383  -17.2255 C   0  0  0  0  0  0  0  0  0  0  0  0
   36.8438    9.8458  -17.2780 C   0  0  0  0  0  0  0  0  0  0  0  0
   37.7049   10.5547  -18.3251 C   0  0  0  0  0  0  0  0  0  0  0  0
   36.5065   11.4888  -18.5466 C   0  0  0  0  0  0  0  0  0  0  0  0
   38.8037   11.3436  -17.7073 C   0  0  0  0  0  0  0  0  0  0  0  0
   39.9716   11.0603  -18.3698 C   0  0  0  0  0  0  0  0  0  0  0  0
   41.1070   11.6405  -17.8570 C   0  0  0  0  0  0  0  0  0  0  0  0
   41.0671   12.4621  -16.7391 C   0  0  0  0  0  0  0  0  0  0  0  0
   39.8841   12.7361  -16.1045 C   0  0  0  0  0  0  0  0  0  0  0  0
   38.7181   12.1732  -16.5810 C   0  0  0  0  0  0  0  0  0  0  0  0
   35.4905   13.5488  -12.9999 C   0  0  0  0  0  0  0  0  0  0  0  0
   34.6820   14.6868  -12.9019 N   0  0  0  0  0  0  0  0  0  0  0  0
   35.7277   12.9569  -11.8830 O   0  0  0  0  0  0  0  0  0  0  0  0
   34.8232   15.5109  -13.5044 H   0  0  0  0  0  0  0  0  0  0  0  0
   33.8889   14.7341  -12.2005 H   0  0  0  0  0  0  0  0  0  0  0  0
   42.3463   12.7741  -16.1225 C   0  0  0  0  0  0  0  0  0  0  0  0
   43.3146   13.1524  -15.5377 C   0  0  0  0  0  0  0  0  0  0  0  0
   44.3717   13.7279  -14.7644 C   0  0  0  0  0  0  0  0  0  0  0  0
   45.5490   12.8559  -14.5797 C   0  0  0  0  0  0  0  0  0  0  0  0
   44.9337   14.7879  -15.6814 O   0  0  0  0  0  0  0  0  0  0  0  0
   44.0558   15.2924  -15.8283 H   0  0  0  0  0  0  0  0  0  0  0  0
   44.0458   14.5508  -13.6178 C   0  0  0  0  0  0  0  0  0  0  0  0
   42.9571   14.4103  -12.8595 N   0  0  0  0  0  0  0  0  0  0  0  0
   42.6370   15.2789  -11.8623 C   0  0  0  0  0  0  0  0  0  0  0  0
   43.4470   16.3483  -11.6043 C   0  0  0  0  0  0  0  0  0  0  0  0
   44.5775   16.4952  -12.3852 C   0  0  0  0  0  0  0  0  0  0  0  0
   44.8526   15.6153  -13.3550 N   0  0  0  0  0  0  0  0  0  0  0  0
  1  2  1  0  0  0
  2  3  1  0  0  0
  3  4  2  0  0  0
  4  5  1  0  0  0
  5  6  2  0  0  0
  6  7  1  0  0  0
  7  8  1  0  0  0
  8  9  1  0  0  0
  9 10  1  0  0  0
  9 11  1  0  0  0
 11 12  2  0  0  0
 12 13  1  0  0  0
 13 14  2  0  0  0
 14 15  1  0  0  0
 15 16  2  0  0  0
 14 22  1  0  0  0
 22 23  3  0  0  0
 24 23  1  0  0  0
 24 25  1  0  0  0
 24 26  1  0  0  0
 24 28  1  0  0  0
 28 29  2  0  0  0
 29 30  1  0  0  0
 30 31  2  0  0  0
 31 32  1  0  0  0
 32 33  2  0  0  0
  3 17  1  0  0  0
 17 18  1  0  0  0
 17 19  2  0  0  0
  6  2  1  0  0  0
 10  7  1  0  0  0
 16 11  1  0  0  0
 33 28  1  0  0  0
  5 16  1  0  0  0
 26 27  1  0  0  0
 18 20  1  0  0  0
 18 21  1  0  0  0
M  END
> <minimizedAffinity>
-9.94675

> <CNNscore>
0.2161252797

> <CNNaffinity>
6.8191232681

> <CNN_VS>
1.4737849236

> <CNNaffinity_variance>
0.1447818279

$$$$
[H]O[C@](C#Cc1c([H])c([H])c2c(c1[H])-c1nc(C(=O)N([H])[H])n(C([H])([H])[H])c1C1([H])C([H])([H])C2([H])C1([H])[H])(c1nc([H])c([H])c([H])n1)C([H])([H])[H]


 33 37  0  0  0  0  0  0  0  0999 V2000
   33.7888   11.2571  -16.0753 C   0  0  0  0  0  0  0  0  0  0  0  0
   35.0843   11.8579  -15.8186 N   0  0  0  0  0  0  0  0  0  0  0  0
   35.3144   12.7277  -14.7923 C   0  0  0  0  0  0  0  0  0  0  0  0
   36.6378   13.0744  -14.8369 N   0  0  0  0  0  0  0  0  0  0  0  0
   37.2439   12.4491  -15.8546 C   0  0  0  0  0  0  0  0  0  0  0  0
   36.2296   11.6936  -16.4534 C   0  0  0  0  0  0  0  0  0  0  0  0
   36.3720   10.8012  -17.6342 C   0  0  0  0  0  0  0  0  0  0  0  0
   37.5172    9.8112  -17.3466 C   0  0  0  0  0  0  0  0  0  0  0  0
   38.5059   10.6788  -18.1275 C   0  0  0  0  0  0  0  0  0  0  0  0
   37.2780   11.3762  -18.7308 C   0  0  0  0  0  0  0  0  0  0  0  0
   39.2120   11.6516  -17.2521 C   0  0  0  0  0  0  0  0  0  0  0  0
   40.5545   11.5974  -17.5316 C   0  0  0  0  0  0  0  0  0  0  0  0
   41.3636   12.3731  -16.7364 C   0  0  0  0  0  0  0  0  0  0  0  0
   40.8479   13.1611  -15.7169 C   0  0  0  0  0  0  0  0  0  0  0  0
   39.5013   13.2036  -15.4680 C   0  0  0  0  0  0  0  0  0  0  0  0
   38.6496   12.4389  -16.2381 C   0  0  0  0  0  0  0  0  0  0  0  0
   34.3163   13.1524  -13.8201 C   0  0  0  0  0  0  0  0  0  0  0  0
   33.0957   13.7780  -14.0978 N   0  0  0  0  0  0  0  0  0  0  0  0
   34.5452   12.9452  -12.5716 O   0  0  0  0  0  0  0  0  0  0  0  0
   32.9908   14.4531  -14.8695 H   0  0  0  0  0  0  0  0  0  0  0  0
   32.2321   13.5708  -13.5195 H   0  0  0  0  0  0  0  0  0  0  0  0
   41.8099   13.6988  -14.7685 C   0  0  0  0  0  0  0  0  0  0  0  0
   42.5813   13.9959  -13.9085 C   0  0  0  0  0  0  0  0  0  0  0  0
   43.4728   14.1944  -12.8076 C   0  0  0  0  0  0  0  0  0  0  0  0
   44.0262   15.5591  -12.6974 C   0  0  0  0  0  0  0  0  0  0  0  0
   42.5563   14.1527  -11.6082 O   0  0  0  0  0  0  0  0  0  0  0  0
   42.1554   13.2311  -11.7998 H   0  0  0  0  0  0  0  0  0  0  0  0
   44.3951   13.1392  -12.4414 C   0  0  0  0  0  0  0  0  0  0  0  0
   44.3570   12.4520  -11.2983 N   0  0  0  0  0  0  0  0  0  0  0  0
   45.3128   11.5484  -10.9501 C   0  0  0  0  0  0  0  0  0  0  0  0
   46.3666   11.3145  -11.7875 C   0  0  0  0  0  0  0  0  0  0  0  0
   46.4075   12.0216  -12.9740 C   0  0  0  0  0  0  0  0  0  0  0  0
   45.4444   12.9003  -13.2750 N   0  0  0  0  0  0  0  0  0  0  0  0
  1  2  1  0  0  0
  2  3  1  0  0  0
  3  4  2  0  0  0
  4  5  1  0  0  0
  5  6  2  0  0  0
  6  7  1  0  0  0
  7  8  1  0  0  0
  8  9  1  0  0  0
  9 10  1  0  0  0
  9 11  1  0  0  0
 11 12  2  0  0  0
 12 13  1  0  0  0
 13 14  2  0  0  0
 14 15  1  0  0  0
 15 16  2  0  0  0
 14 22  1  0  0  0
 22 23  3  0  0  0
 24 23  1  0  0  0
 24 25  1  0  0  0
 24 26  1  0  0  0
 24 28  1  0  0  0
 28 29  2  0  0  0
 29 30  1  0  0  0
 30 31  2  0  0  0
 31 32  1  0  0  0
 32 33  2  0  0  0
  3 17  1  0  0  0
 17 18  1  0  0  0
 17 19  2  0  0  0
  6  2  1  0  0  0
 10  7  1  0  0  0
 16 11  1  0  0  0
 33 28  1  0  0  0
  5 16  1  0  0  0
 26 27  1  0  0  0
 18 20  1  0  0  0
 18 21  1  0  0  0
M  END
> <minimizedAffinity>
-9.15354

> <CNNscore>
0.2121593058

> <CNNaffinity>
6.7427697182

> <CNN_VS>
1.4305413961

> <CNNaffinity_variance>
0.0947469920

$$$$
[H]O[C@@]([H])(c1c([H])c([H])nn1C([H])([H])[H])c1c(C(=O)N([H])[H])nc2n1C1([H])C([H])([H])C([H])(c3c([H])c(F)c(C#C[C@@]4(O[H])C(=O)N(C([H])([H])[H])C([H])([H])C4([H])[H])c([H])c3-2)C1([H])[H]


 41 46  0  0  0  0  0  0  0  0999 V2000
   41.4990   16.0806   -7.7741 C   0  0  0  0  0  0  0  0  0  0  0  0
   40.1393   16.1199   -7.5521 C   0  0  0  0  0  0  0  0  0  0  0  0
   39.6480   16.3666   -6.2869 C   0  0  0  0  0  0  0  0  0  0  0  0
   38.1628   16.3701   -6.2388 C   0  0  0  0  0  0  0  0  0  0  0  0
   37.3848   16.1708   -7.2990 N   0  0  0  0  0  0  0  0  0  0  0  0
   36.0800   16.2455   -6.8632 C   0  0  0  0  0  0  0  0  0  0  0  0
   36.0902   16.4951   -5.5102 C   0  0  0  0  0  0  0  0  0  0  0  0
   37.3752   16.5675   -5.1504 N   0  0  0  0  0  0  0  0  0  0  0  0
   37.8531   16.8167   -3.8068 C   0  0  0  0  0  0  0  0  0  0  0  0
   38.9615   15.8589   -3.4164 C   0  0  0  0  0  0  0  0  0  0  0  0
   40.0449   16.8587   -3.7846 C   0  0  0  0  0  0  0  0  0  0  0  0
   38.9363   17.9075   -3.7958 C   0  0  0  0  0  0  0  0  0  0  0  0
   40.4872   16.5818   -5.2040 C   0  0  0  0  0  0  0  0  0  0  0  0
   41.8236   16.5469   -5.4030 C   0  0  0  0  0  0  0  0  0  0  0  0
   42.3150   16.3001   -6.6686 C   0  0  0  0  0  0  0  0  0  0  0  0
   43.6585   16.2576   -6.9058 F   0  0  0  0  0  0  0  0  0  0  0  0
   35.0113   16.0674   -7.8192 C   0  0  0  0  0  0  0  0  0  0  0  0
   34.0611   17.0759   -8.1164 N   0  0  0  0  0  0  0  0  0  0  0  0
   34.8818   14.9904   -8.4349 O   0  0  0  0  0  0  0  0  0  0  0  0
   34.2925   17.8291   -8.7821 H   0  0  0  0  0  0  0  0  0  0  0  0
   33.1335   17.0560   -7.6646 H   0  0  0  0  0  0  0  0  0  0  0  0
   34.9155   16.6380   -4.6544 C   0  0  0  0  0  0  0  0  0  0  0  0
   35.0682   16.1435   -3.3613 O   0  0  0  0  0  0  0  0  0  0  0  0
   34.9280   15.1813   -3.3599 H   0  0  0  0  0  0  0  0  0  0  0  0
   34.3686   18.0217   -4.5825 C   0  0  0  0  0  0  0  0  0  0  0  0
   35.0656   19.1772   -4.3353 C   0  0  0  0  0  0  0  0  0  0  0  0
   34.1839   20.2082   -4.3589 C   0  0  0  0  0  0  0  0  0  0  0  0
   32.9910   19.6578   -4.6163 N   0  0  0  0  0  0  0  0  0  0  0  0
   33.0844   18.3539   -4.7525 N   0  0  0  0  0  0  0  0  0  0  0  0
   31.9688   17.4216   -5.0414 C   0  0  0  0  0  0  0  0  0  0  0  0
   42.5030   15.5975  -10.1847 C   0  0  0  0  0  0  0  0  0  0  0  0
   42.0552   15.8246   -9.0857 C   0  0  0  0  0  0  0  0  0  0  0  0
   44.9263   18.3354  -12.7325 C   0  0  0  0  0  0  0  0  0  0  0  0
   44.4341   17.0434  -12.3089 N   0  0  0  0  0  0  0  0  0  0  0  0
   45.2918   16.0254  -11.7307 C   0  0  0  0  0  0  0  0  0  0  0  0
   44.4310   14.8162  -11.5167 C   0  0  0  0  0  0  0  0  0  0  0  0
   43.0245   15.3110  -11.5276 C   0  0  0  0  0  0  0  0  0  0  0  0
   42.1449   14.4417  -12.1666 O   0  0  0  0  0  0  0  0  0  0  0  0
   43.1011   16.5359  -12.3663 C   0  0  0  0  0  0  0  0  0  0  0  0
   42.1981   17.0838  -13.0332 O   0  0  0  0  0  0  0  0  0  0  0  0
   41.3209   14.9845  -12.3606 H   0  0  0  0  0  0  0  0  0  0  0  0
 33 34  1  0  0  0
 34 35  1  0  0  0
 35 36  1  0  0  0
 36 37  1  0  0  0
 37 38  1  0  0  0
 37 31  1  0  0  0
 31 32  3  0  0  0
 32  1  1  0  0  0
  1  2  1  0  0  0
  2  3  2  0  0  0
  3  4  1  0  0  0
  4  5  2  0  0  0
  5  6  1  0  0  0
  6 17  1  0  0  0
 17 18  1  0  0  0
 17 19  2  0  0  0
  6  7  2  0  0  0
  7 22  1  0  0  0
 22 23  1  0  0  0
 22 25  1  0  0  0
 25 26  2  0  0  0
 26 27  1  0  0  0
 27 28  2  0  0  0
 28 29  1  0  0  0
 29 30  1  0  0  0
  7  8  1  0  0  0
  8  9  1  0  0  0
  9 10  1  0  0  0
 10 11  1  0  0  0
 11 12  1  0  0  0
 11 13  1  0  0  0
 13 14  2  0  0  0
 14 15  1  0  0  0
 15 16  1  0  0  0
 37 39  1  0  0  0
 39 40  2  0  0  0
 39 34  1  0  0  0
 15  1  2  0  0  0
 13  3  1  0  0  0
  8  4  1  0  0  0
 12  9  1  0  0  0
 29 25  1  0  0  0
 38 41  1  0  0  0
 18 20  1  0  0  0
 18 21  1  0  0  0
 23 24  1  0  0  0
M  END
> <minimizedAffinity>
-5.89427

> <CNNscore>
0.4067059755

> <CNNaffinity>
6.1608037949

> <CNN_VS>
2.5056357384

> <CNNaffinity_variance>
0.3195219338

$$$$
[H]O[C@@]([H])(c1c([H])c([H])nn1C([H])([H])[H])c1c(C(=O)N([H])[H])nc2n1C1([H])C([H])([H])C([H])(c3c([H])c(F)c(C#C[C@@]4(O[H])C(=O)N(C([H])([H])[H])C([H])([H])C4([H])[H])c([H])c3-2)C1([H])[H]


 41 46  0  0  0  0  0  0  0  0999 V2000
   38.0621   15.7541   -6.6404 C   0  0  0  0  0  0  0  0  0  0  0  0
   38.9276   15.7426   -7.7130 C   0  0  0  0  0  0  0  0  0  0  0  0
   40.1885   15.1982   -7.5833 C   0  0  0  0  0  0  0  0  0  0  0  0
   40.9786   15.2755   -8.8395 C   0  0  0  0  0  0  0  0  0  0  0  0
   40.5217   15.7994   -9.9734 N   0  0  0  0  0  0  0  0  0  0  0  0
   41.5319   15.6933  -10.9042 C   0  0  0  0  0  0  0  0  0  0  0  0
   42.6125   15.0911  -10.3019 C   0  0  0  0  0  0  0  0  0  0  0  0
   42.2507   14.8445   -9.0393 N   0  0  0  0  0  0  0  0  0  0  0  0
   43.0872   14.2157   -8.0389 C   0  0  0  0  0  0  0  0  0  0  0  0
   43.0465   14.9626   -6.7202 C   0  0  0  0  0  0  0  0  0  0  0  0
   41.9899   14.0314   -6.1500 C   0  0  0  0  0  0  0  0  0  0  0  0
   42.3307   13.0957   -7.3064 C   0  0  0  0  0  0  0  0  0  0  0  0
   40.6303   14.6491   -6.3890 C   0  0  0  0  0  0  0  0  0  0  0  0
   39.7950   14.6517   -5.3265 C   0  0  0  0  0  0  0  0  0  0  0  0
   38.5337   15.1962   -5.4562 C   0  0  0  0  0  0  0  0  0  0  0  0
   37.6643   15.2160   -4.4042 F   0  0  0  0  0  0  0  0  0  0  0  0
   41.3051   16.1873  -12.2429 C   0  0  0  0  0  0  0  0  0  0  0  0
   40.1851   15.8149  -13.0272 N   0  0  0  0  0  0  0  0  0  0  0  0
   42.1083   16.9812  -12.7724 O   0  0  0  0  0  0  0  0  0  0  0  0
   39.2758   16.2823  -12.8911 H   0  0  0  0  0  0  0  0  0  0  0  0
   40.2803   15.0725  -13.7377 H   0  0  0  0  0  0  0  0  0  0  0  0
   43.8959   14.7990  -10.9347 C   0  0  0  0  0  0  0  0  0  0  0  0
   43.8442   14.6333  -12.3167 O   0  0  0  0  0  0  0  0  0  0  0  0
   43.5566   13.7287  -12.5276 H   0  0  0  0  0  0  0  0  0  0  0  0
   44.9815   15.7633  -10.6026 C   0  0  0  0  0  0  0  0  0  0  0  0
   44.9358   17.1307  -10.7031 C   0  0  0  0  0  0  0  0  0  0  0  0
   46.1363   17.6181  -10.3002 C   0  0  0  0  0  0  0  0  0  0  0  0
   46.8688   16.5472   -9.9704 N   0  0  0  0  0  0  0  0  0  0  0  0
   46.1941   15.4329  -10.1453 N   0  0  0  0  0  0  0  0  0  0  0  0
   46.6878   14.0600   -9.8834 C   0  0  0  0  0  0  0  0  0  0  0  0
   35.6160   16.7769   -6.7933 C   0  0  0  0  0  0  0  0  0  0  0  0
   36.7313   16.3158   -6.7344 C   0  0  0  0  0  0  0  0  0  0  0  0
   32.8061   17.2101   -3.3616 C   0  0  0  0  0  0  0  0  0  0  0  0
   33.3157   17.5270   -4.6773 N   0  0  0  0  0  0  0  0  0  0  0  0
   33.8844   18.8199   -5.0106 C   0  0  0  0  0  0  0  0  0  0  0  0
   34.2039   18.7785   -6.4752 C   0  0  0  0  0  0  0  0  0  0  0  0
   34.2576   17.3336   -6.8392 C   0  0  0  0  0  0  0  0  0  0  0  0
   33.7127   17.0656   -8.0918 O   0  0  0  0  0  0  0  0  0  0  0  0
   33.3627   16.6968   -5.8376 C   0  0  0  0  0  0  0  0  0  0  0  0
   32.7290   15.6240   -5.9264 O   0  0  0  0  0  0  0  0  0  0  0  0
   33.5460   16.0740   -8.1079 H   0  0  0  0  0  0  0  0  0  0  0  0
 33 34  1  0  0  0
 34 35  1  0  0  0
 35 36  1  0  0  0
 36 37  1  0  0  0
 37 38  1  0  0  0
 37 31  1  0  0  0
 31 32  3  0  0  0
 32  1  1  0  0  0
  1  2  1  0  0  0
  2  3  2  0  0  0
  3  4  1  0  0  0
  4  5  2  0  0  0
  5  6  1  0  0  0
  6 17  1  0  0  0
 17 18  1  0  0  0
 17 19  2  0  0  0
  6  7  2  0  0  0
  7 22  1  0  0  0
 22 23  1  0  0  0
 22 25  1  0  0  0
 25 26  2  0  0  0
 26 27  1  0  0  0
 27 28  2  0  0  0
 28 29  1  0  0  0
 29 30  1  0  0  0
  7  8  1  0  0  0
  8  9  1  0  0  0
  9 10  1  0  0  0
 10 11  1  0  0  0
 11 12  1  0  0  0
 11 13  1  0  0  0
 13 14  2  0  0  0
 14 15  1  0  0  0
 15 16  1  0  0  0
 37 39  1  0  0  0
 39 40  2  0  0  0
 39 34  1  0  0  0
 15  1  2  0  0  0
 13  3  1  0  0  0
  8  4  1  0  0  0
 12  9  1  0  0  0
 29 25  1  0  0  0
 38 41  1  0  0  0
 18 20  1  0  0  0
 18 21  1  0  0  0
 23 24  1  0  0  0
M  END
> <minimizedAffinity>
-5.73115

> <CNNscore>
0.2533358634

> <CNNaffinity>
5.9503865242

> <CNN_VS>
1.5074462891

> <CNNaffinity_variance>
0.3166868985

$$$$
[H]O[C@@]([H])(c1c([H])c([H])nn1C([H])([H])[H])c1c(C(=O)N([H])[H])nc2n1C1([H])C([H])([H])C([H])(c3c([H])c(F)c(C#C[C@@]4(O[H])C(=O)N(C([H])([H])[H])C([H])([H])C4([H])[H])c([H])c3-2)C1([H])[H]


 41 46  0  0  0  0  0  0  0  0999 V2000
   41.5109   13.6161   -7.5036 C   0  0  0  0  0  0  0  0  0  0  0  0
   40.5545   14.5840   -7.7233 C   0  0  0  0  0  0  0  0  0  0  0  0
   39.5501   14.7912   -6.8007 C   0  0  0  0  0  0  0  0  0  0  0  0
   38.6130   15.8711   -7.2058 C   0  0  0  0  0  0  0  0  0  0  0  0
   38.7310   16.5746   -8.3282 N   0  0  0  0  0  0  0  0  0  0  0  0
   37.6864   17.4724   -8.3549 C   0  0  0  0  0  0  0  0  0  0  0  0
   36.9331   17.2923   -7.2177 C   0  0  0  0  0  0  0  0  0  0  0  0
   37.5191   16.3076   -6.5300 N   0  0  0  0  0  0  0  0  0  0  0  0
   37.0575   15.7865   -5.2607 C   0  0  0  0  0  0  0  0  0  0  0  0
   37.0445   14.2706   -5.2453 C   0  0  0  0  0  0  0  0  0  0  0  0
   38.4018   14.2002   -4.5661 C   0  0  0  0  0  0  0  0  0  0  0  0
   38.2116   15.6811   -4.2506 C   0  0  0  0  0  0  0  0  0  0  0  0
   39.4621   14.0473   -5.6336 C   0  0  0  0  0  0  0  0  0  0  0  0
   40.3913   13.0937   -5.4015 C   0  0  0  0  0  0  0  0  0  0  0  0
   41.3961   12.8864   -6.3244 C   0  0  0  0  0  0  0  0  0  0  0  0
   42.3508   11.9320   -6.1226 F   0  0  0  0  0  0  0  0  0  0  0  0
   37.5692   18.3771   -9.4754 C   0  0  0  0  0  0  0  0  0  0  0  0
   36.9759   18.0105  -10.7089 N   0  0  0  0  0  0  0  0  0  0  0  0
   37.9975   19.5459   -9.3964 O   0  0  0  0  0  0  0  0  0  0  0  0
   35.9502   18.0246  -10.8178 H   0  0  0  0  0  0  0  0  0  0  0  0
   37.5732   17.7282  -11.5017 H   0  0  0  0  0  0  0  0  0  0  0  0
   35.7279   18.0351   -6.8594 C   0  0  0  0  0  0  0  0  0  0  0  0
   35.0041   17.5010   -5.7959 O   0  0  0  0  0  0  0  0  0  0  0  0
   34.4391   16.7768   -6.1153 H   0  0  0  0  0  0  0  0  0  0  0  0
   35.9480   19.4878   -6.6144 C   0  0  0  0  0  0  0  0  0  0  0  0
   35.4478   20.5371   -7.3430 C   0  0  0  0  0  0  0  0  0  0  0  0
   35.8930   21.6868   -6.7766 C   0  0  0  0  0  0  0  0  0  0  0  0
   36.6418   21.3093   -5.7331 N   0  0  0  0  0  0  0  0  0  0  0  0
   36.6846   20.0004   -5.6227 N   0  0  0  0  0  0  0  0  0  0  0  0
   37.4165   19.2324   -4.5875 C   0  0  0  0  0  0  0  0  0  0  0  0
   43.4880   13.1626   -9.2177 C   0  0  0  0  0  0  0  0  0  0  0  0
   42.5806   13.3666   -8.4462 C   0  0  0  0  0  0  0  0  0  0  0  0
   44.9346   15.8792  -12.4406 C   0  0  0  0  0  0  0  0  0  0  0  0
   45.0684   14.7993  -11.4881 N   0  0  0  0  0  0  0  0  0  0  0  0
   45.9752   14.8560  -10.3565 C   0  0  0  0  0  0  0  0  0  0  0  0
   45.8885   13.5226   -9.6756 C   0  0  0  0  0  0  0  0  0  0  0  0
   44.6075   12.9136  -10.1353 C   0  0  0  0  0  0  0  0  0  0  0  0
   44.7025   11.5422  -10.3539 O   0  0  0  0  0  0  0  0  0  0  0  0
   44.3877   13.5449  -11.4630 C   0  0  0  0  0  0  0  0  0  0  0  0
   43.7336   13.1120  -12.4352 O   0  0  0  0  0  0  0  0  0  0  0  0
   43.9013   11.3009  -10.9119 H   0  0  0  0  0  0  0  0  0  0  0  0
 33 34  1  0  0  0
 34 35  1  0  0  0
 35 36  1  0  0  0
 36 37  1  0  0  0
 37 38  1  0  0  0
 37 31  1  0  0  0
 31 32  3  0  0  0
 32  1  1  0  0  0
  1  2  1  0  0  0
  2  3  2  0  0  0
  3  4  1  0  0  0
  4  5  2  0  0  0
  5  6  1  0  0  0
  6 17  1  0  0  0
 17 18  1  0  0  0
 17 19  2  0  0  0
  6  7  2  0  0  0
  7 22  1  0  0  0
 22 23  1  0  0  0
 22 25  1  0  0  0
 25 26  2  0  0  0
 26 27  1  0  0  0
 27 28  2  0  0  0
 28 29  1  0  0  0
 29 30  1  0  0  0
  7  8  1  0  0  0
  8  9  1  0  0  0
  9 10  1  0  0  0
 10 11  1  0  0  0
 11 12  1  0  0  0
 11 13  1  0  0  0
 13 14  2  0  0  0
 14 15  1  0  0  0
 15 16  1  0  0  0
 37 39  1  0  0  0
 39 40  2  0  0  0
 39 34  1  0  0  0
 15  1  2  0  0  0
 13  3  1  0  0  0
  8  4  1  0  0  0
 12  9  1  0  0  0
 29 25  1  0  0  0
 38 41  1  0  0  0
 18 20  1  0  0  0
 18 21  1  0  0  0
 23 24  1  0  0  0
M  END
> <minimizedAffinity>
-6.75223

> <CNNscore>
0.1853247136

> <CNNaffinity>
5.8701772690

> <CNN_VS>
1.0878889561

> <CNNaffinity_variance>
0.2552079558

$$$$
[H]O[C@@]([H])(c1c([H])c([H])nn1C([H])([H])[H])c1c(C(=O)N([H])[H])nc2n1C1([H])C([H])([H])C([H])(c3c([H])c(F)c(C#C[C@@]4(O[H])C(=O)N(C([H])([H])[H])C([H])([H])C4([H])[H])c([H])c3-2)C1([H])[H]


 41 46  0  0  0  0  0  0  0  0999 V2000
   37.6369   15.1307   -5.9570 C   0  0  0  0  0  0  0  0  0  0  0  0
   38.3740   15.3428   -7.1022 C   0  0  0  0  0  0  0  0  0  0  0  0
   39.7487   15.4382   -7.0367 C   0  0  0  0  0  0  0  0  0  0  0  0
   40.3717   15.6679   -8.3662 C   0  0  0  0  0  0  0  0  0  0  0  0
   39.6859   15.7595   -9.5020 N   0  0  0  0  0  0  0  0  0  0  0  0
   40.5999   15.9731  -10.5105 C   0  0  0  0  0  0  0  0  0  0  0  0
   41.8574   16.0083   -9.9532 C   0  0  0  0  0  0  0  0  0  0  0  0
   41.6929   15.8192   -8.6405 N   0  0  0  0  0  0  0  0  0  0  0  0
   42.7595   15.7827   -7.6624 C   0  0  0  0  0  0  0  0  0  0  0  0
   42.4344   16.6225   -6.4428 C   0  0  0  0  0  0  0  0  0  0  0  0
   41.9344   15.4172   -5.6644 C   0  0  0  0  0  0  0  0  0  0  0  0
   42.6184   14.5673   -6.7317 C   0  0  0  0  0  0  0  0  0  0  0  0
   40.4347   15.3267   -5.8367 C   0  0  0  0  0  0  0  0  0  0  0  0
   39.7281   15.1186   -4.7034 C   0  0  0  0  0  0  0  0  0  0  0  0
   38.3531   15.0231   -4.7689 C   0  0  0  0  0  0  0  0  0  0  0  0
   37.6080   14.8136   -3.6447 F   0  0  0  0  0  0  0  0  0  0  0  0
   40.1252   16.1093  -11.8684 C   0  0  0  0  0  0  0  0  0  0  0  0
   38.9112   15.5392  -12.3259 N   0  0  0  0  0  0  0  0  0  0  0  0
   40.7840   16.7510  -12.7109 O   0  0  0  0  0  0  0  0  0  0  0  0
   38.0137   16.0170  -12.1520 H   0  0  0  0  0  0  0  0  0  0  0  0
   38.9257   14.6420  -12.8355 H   0  0  0  0  0  0  0  0  0  0  0  0
   43.1100   16.2227  -10.6729 C   0  0  0  0  0  0  0  0  0  0  0  0
   44.0939   16.8938   -9.9508 O   0  0  0  0  0  0  0  0  0  0  0  0
   43.9314   17.8518   -9.9879 H   0  0  0  0  0  0  0  0  0  0  0  0
   43.7000   14.9902  -11.2659 C   0  0  0  0  0  0  0  0  0  0  0  0
   43.6919   13.7267  -10.7315 C   0  0  0  0  0  0  0  0  0  0  0  0
   44.3373   12.9047  -11.5967 C   0  0  0  0  0  0  0  0  0  0  0  0
   44.7150   13.6813  -12.6196 N   0  0  0  0  0  0  0  0  0  0  0  0
   44.3422   14.9284  -12.4374 N   0  0  0  0  0  0  0  0  0  0  0  0
   44.5892   16.0602  -13.3621 C   0  0  0  0  0  0  0  0  0  0  0  0
   34.9880   14.9436   -5.9829 C   0  0  0  0  0  0  0  0  0  0  0  0
   36.1936   15.0251   -5.9823 C   0  0  0  0  0  0  0  0  0  0  0  0
   32.1277   18.3583   -6.1201 C   0  0  0  0  0  0  0  0  0  0  0  0
   32.5160   16.9754   -6.2876 N   0  0  0  0  0  0  0  0  0  0  0  0
   32.5607   16.3219   -7.5826 C   0  0  0  0  0  0  0  0  0  0  0  0
   32.9135   14.8877   -7.3227 C   0  0  0  0  0  0  0  0  0  0  0  0
   33.5218   14.8586   -5.9618 C   0  0  0  0  0  0  0  0  0  0  0  0
   33.1552   13.7367   -5.2238 O   0  0  0  0  0  0  0  0  0  0  0  0
   32.9074   16.0333   -5.2892 C   0  0  0  0  0  0  0  0  0  0  0  0
   32.7311   16.2307   -4.0684 O   0  0  0  0  0  0  0  0  0  0  0  0
   33.3778   13.9568   -4.2680 H   0  0  0  0  0  0  0  0  0  0  0  0
 33 34  1  0  0  0
 34 35  1  0  0  0
 35 36  1  0  0  0
 36 37  1  0  0  0
 37 38  1  0  0  0
 37 31  1  0  0  0
 31 32  3  0  0  0
 32  1  1  0  0  0
  1  2  1  0  0  0
  2  3  2  0  0  0
  3  4  1  0  0  0
  4  5  2  0  0  0
  5  6  1  0  0  0
  6 17  1  0  0  0
 17 18  1  0  0  0
 17 19  2  0  0  0
  6  7  2  0  0  0
  7 22  1  0  0  0
 22 23  1  0  0  0
 22 25  1  0  0  0
 25 26  2  0  0  0
 26 27  1  0  0  0
 27 28  2  0  0  0
 28 29  1  0  0  0
 29 30  1  0  0  0
  7  8  1  0  0  0
  8  9  1  0  0  0
  9 10  1  0  0  0
 10 11  1  0  0  0
 11 12  1  0  0  0
 11 13  1  0  0  0
 13 14  2  0  0  0
 14 15  1  0  0  0
 15 16  1  0  0  0
 37 39  1  0  0  0
 39 40  2  0  0  0
 39 34  1  0  0  0
 15  1  2  0  0  0
 13  3  1  0  0  0
  8  4  1  0  0  0
 12  9  1  0  0  0
 29 25  1  0  0  0
 38 41  1  0  0  0
 18 20  1  0  0  0
 18 21  1  0  0  0
 23 24  1  0  0  0
M  END
> <minimizedAffinity>
-7.15753

> <CNNscore>
0.1490447521

> <CNNaffinity>
5.6300821304

> <CNN_VS>
0.8391342163

> <CNNaffinity_variance>
0.2662986517

$$$$
[H]O[C@@]([H])(c1c([H])c([H])nn1C([H])([H])[H])c1c(C(=O)N([H])[H])nc2n1C1([H])C([H])([H])C([H])(c3c([H])c(F)c(C#C[C@@]4(O[H])C(=O)N(C([H])([H])[H])C([H])([H])C4([H])[H])c([H])c3-2)C1([H])[H]


 41 46  0  0  0  0  0  0  0  0999 V2000
   41.5579   13.7668   -7.9317 C   0  0  0  0  0  0  0  0  0  0  0  0
   40.6194   14.7659   -8.0757 C   0  0  0  0  0  0  0  0  0  0  0  0
   39.4285   14.7066   -7.3819 C   0  0  0  0  0  0  0  0  0  0  0  0
   38.5428   15.8663   -7.6626 C   0  0  0  0  0  0  0  0  0  0  0  0
   38.8622   16.8637   -8.4824 N   0  0  0  0  0  0  0  0  0  0  0  0
   37.7997   17.7406   -8.4862 C   0  0  0  0  0  0  0  0  0  0  0  0
   36.8286   17.2459   -7.6463 C   0  0  0  0  0  0  0  0  0  0  0  0
   37.3055   16.0988   -7.1538 N   0  0  0  0  0  0  0  0  0  0  0  0
   36.6091   15.2368   -6.2223 C   0  0  0  0  0  0  0  0  0  0  0  0
   36.6781   13.7816   -6.6418 C   0  0  0  0  0  0  0  0  0  0  0  0
   37.8572   13.5045   -5.7245 C   0  0  0  0  0  0  0  0  0  0  0  0
   37.5202   14.8324   -5.0519 C   0  0  0  0  0  0  0  0  0  0  0  0
   39.1310   13.6574   -6.5253 C   0  0  0  0  0  0  0  0  0  0  0  0
   40.0396   12.6687   -6.3718 C   0  0  0  0  0  0  0  0  0  0  0  0
   41.2308   12.7280   -7.0658 C   0  0  0  0  0  0  0  0  0  0  0  0
   42.1709   11.7471   -6.9350 F   0  0  0  0  0  0  0  0  0  0  0  0
   37.8781   18.9321   -9.2997 C   0  0  0  0  0  0  0  0  0  0  0  0
   38.0584   20.2294   -8.7587 N   0  0  0  0  0  0  0  0  0  0  0  0
   37.7876   18.8613  -10.5416 O   0  0  0  0  0  0  0  0  0  0  0  0
   39.0008   20.5587   -8.4989 H   0  0  0  0  0  0  0  0  0  0  0  0
   37.2427   20.8472   -8.6244 H   0  0  0  0  0  0  0  0  0  0  0  0
   35.5346   17.8645   -7.3712 C   0  0  0  0  0  0  0  0  0  0  0  0
   35.4148   19.1864   -7.7934 O   0  0  0  0  0  0  0  0  0  0  0  0
   35.8158   19.7783   -7.1343 H   0  0  0  0  0  0  0  0  0  0  0  0
   34.3624   17.0899   -7.8660 C   0  0  0  0  0  0  0  0  0  0  0  0
   34.2666   16.3914   -9.0428 C   0  0  0  0  0  0  0  0  0  0  0  0
   33.0302   15.8353   -9.0974 C   0  0  0  0  0  0  0  0  0  0  0  0
   32.4168   16.2065   -7.9668 N   0  0  0  0  0  0  0  0  0  0  0  0
   33.1983   16.9554   -7.2214 N   0  0  0  0  0  0  0  0  0  0  0  0
   32.8520   17.5439   -5.9057 C   0  0  0  0  0  0  0  0  0  0  0  0
   43.8816   13.8190   -9.2164 C   0  0  0  0  0  0  0  0  0  0  0  0
   42.8192   13.7909   -8.6415 C   0  0  0  0  0  0  0  0  0  0  0  0
   44.6074   13.5251  -13.6035 C   0  0  0  0  0  0  0  0  0  0  0  0
   44.9512   13.8884  -12.2467 N   0  0  0  0  0  0  0  0  0  0  0  0
   45.1063   15.2656  -11.8160 C   0  0  0  0  0  0  0  0  0  0  0  0
   45.5509   15.2155  -10.3847 C   0  0  0  0  0  0  0  0  0  0  0  0
   45.1851   13.8565   -9.8924 C   0  0  0  0  0  0  0  0  0  0  0  0
   46.1402   13.3090   -9.0405 O   0  0  0  0  0  0  0  0  0  0  0  0
   45.1924   13.0328  -11.1298 C   0  0  0  0  0  0  0  0  0  0  0  0
   45.3718   11.8023  -11.2482 O   0  0  0  0  0  0  0  0  0  0  0  0
   45.9381   12.3245   -9.0042 H   0  0  0  0  0  0  0  0  0  0  0  0
 33 34  1  0  0  0
 34 35  1  0  0  0
 35 36  1  0  0  0
 36 37  1  0  0  0
 37 38  1  0  0  0
 37 31  1  0  0  0
 31 32  3  0  0  0
 32  1  1  0  0  0
  1  2  1  0  0  0
  2  3  2  0  0  0
  3  4  1  0  0  0
  4  5  2  0  0  0
  5  6  1  0  0  0
  6 17  1  0  0  0
 17 18  1  0  0  0
 17 19  2  0  0  0
  6  7  2  0  0  0
  7 22  1  0  0  0
 22 23  1  0  0  0
 22 25  1  0  0  0
 25 26  2  0  0  0
 26 27  1  0  0  0
 27 28  2  0  0  0
 28 29  1  0  0  0
 29 30  1  0  0  0
  7  8  1  0  0  0
  8  9  1  0  0  0
  9 10  1  0  0  0
 10 11  1  0  0  0
 11 12  1  0  0  0
 11 13  1  0  0  0
 13 14  2  0  0  0
 14 15  1  0  0  0
 15 16  1  0  0  0
 37 39  1  0  0  0
 39 40  2  0  0  0
 39 34  1  0  0  0
 15  1  2  0  0  0
 13  3  1  0  0  0
  8  4  1  0  0  0
 12  9  1  0  0  0
 29 25  1  0  0  0
 38 41  1  0  0  0
 18 20  1  0  0  0
 18 21  1  0  0  0
 23 24  1  0  0  0
M  END
> <minimizedAffinity>
-6.73432

> <CNNscore>
0.1296878755

> <CNNaffinity>
5.6863899231

> <CNN_VS>
0.7374558449

> <CNNaffinity_variance>
0.2160106450

$$$$
[H]O[C@@]([H])(c1c([H])c([H])nn1C([H])([H])[H])c1c(C(=O)N([H])[H])nc2n1C1([H])C([H])([H])C([H])(c3c([H])c(F)c(C#C[C@@]4(O[H])C(=O)N(C([H])([H])[H])C([H])([H])C4([H])[H])c([H])c3-2)C1([H])[H]


 41 46  0  0  0  0  0  0  0  0999 V2000
   42.8351   14.7288   -8.4538 C   0  0  0  0  0  0  0  0  0  0  0  0
   41.5033   14.5947   -8.1249 C   0  0  0  0  0  0  0  0  0  0  0  0
   40.5322   15.1983   -8.8968 C   0  0  0  0  0  0  0  0  0  0  0  0
   39.1581   14.9458   -8.3906 C   0  0  0  0  0  0  0  0  0  0  0  0
   38.8854   14.2081   -7.3181 N   0  0  0  0  0  0  0  0  0  0  0  0
   37.5162   14.2067   -7.1652 C   0  0  0  0  0  0  0  0  0  0  0  0
   36.9683   14.9642   -8.1748 C   0  0  0  0  0  0  0  0  0  0  0  0
   37.9918   15.4058   -8.9120 N   0  0  0  0  0  0  0  0  0  0  0  0
   37.8742   16.2463  -10.0848 C   0  0  0  0  0  0  0  0  0  0  0  0
   38.8607   17.3970  -10.0545 C   0  0  0  0  0  0  0  0  0  0  0  0
   39.8597   16.6499  -10.9220 C   0  0  0  0  0  0  0  0  0  0  0  0
   38.7140   15.6961  -11.2490 C   0  0  0  0  0  0  0  0  0  0  0  0
   40.8498   15.9521  -10.0166 C   0  0  0  0  0  0  0  0  0  0  0  0
   42.1508   16.0944  -10.3542 C   0  0  0  0  0  0  0  0  0  0  0  0
   43.1222   15.4906   -9.5820 C   0  0  0  0  0  0  0  0  0  0  0  0
   44.4454   15.6135   -9.8933 F   0  0  0  0  0  0  0  0  0  0  0  0
   36.9352   13.4704   -6.0662 C   0  0  0  0  0  0  0  0  0  0  0  0
   36.7187   14.0339   -4.7841 N   0  0  0  0  0  0  0  0  0  0  0  0
   36.5934   12.2794   -6.2089 O   0  0  0  0  0  0  0  0  0  0  0  0
   35.8848   14.6138   -4.6045 H   0  0  0  0  0  0  0  0  0  0  0  0
   37.3988   13.8628   -4.0270 H   0  0  0  0  0  0  0  0  0  0  0  0
   35.5460   15.2287   -8.3748 C   0  0  0  0  0  0  0  0  0  0  0  0
   34.7067   14.1466   -8.1206 O   0  0  0  0  0  0  0  0  0  0  0  0
   34.6863   13.5590   -8.8950 H   0  0  0  0  0  0  0  0  0  0  0  0
   35.0317   16.4222   -7.6468 C   0  0  0  0  0  0  0  0  0  0  0  0
   35.7402   17.2612   -6.8244 C   0  0  0  0  0  0  0  0  0  0  0  0
   34.8892   18.2153   -6.3703 C   0  0  0  0  0  0  0  0  0  0  0  0
   33.7025   17.9334   -6.9221 N   0  0  0  0  0  0  0  0  0  0  0  0
   33.7709   16.8664   -7.6864 N   0  0  0  0  0  0  0  0  0  0  0  0
   32.6535   16.2650   -8.4525 C   0  0  0  0  0  0  0  0  0  0  0  0
   44.7575   13.5791   -7.0271 C   0  0  0  0  0  0  0  0  0  0  0  0
   43.8845   14.1122   -7.6704 C   0  0  0  0  0  0  0  0  0  0  0  0
   44.2314   11.0992   -3.3620 C   0  0  0  0  0  0  0  0  0  0  0  0
   44.9351   11.5465   -4.5435 N   0  0  0  0  0  0  0  0  0  0  0  0
   45.1815   10.6858   -5.6857 C   0  0  0  0  0  0  0  0  0  0  0  0
   46.0097   11.4839   -6.6480 C   0  0  0  0  0  0  0  0  0  0  0  0
   45.8189   12.9114   -6.2623 C   0  0  0  0  0  0  0  0  0  0  0  0
   46.9832   13.6666   -6.3710 O   0  0  0  0  0  0  0  0  0  0  0  0
   45.4934   12.8321   -4.8140 C   0  0  0  0  0  0  0  0  0  0  0  0
   45.6530   13.6988   -3.9288 O   0  0  0  0  0  0  0  0  0  0  0  0
   46.8158   14.5009   -5.8350 H   0  0  0  0  0  0  0  0  0  0  0  0
 33 34  1  0  0  0
 34 35  1  0  0  0
 35 36  1  0  0  0
 36 37  1  0  0  0
 37 38  1  0  0  0
 37 31  1  0  0  0
 31 32  3  0  0  0
 32  1  1  0  0  0
  1  2  1  0  0  0
  2  3  2  0  0  0
  3  4  1  0  0  0
  4  5  2  0  0  0
  5  6  1  0  0  0
  6 17  1  0  0  0
 17 18  1  0  0  0
 17 19  2  0  0  0
  6  7  2  0  0  0
  7 22  1  0  0  0
 22 23  1  0  0  0
 22 25  1  0  0  0
 25 26  2  0  0  0
 26 27  1  0  0  0
 27 28  2  0  0  0
 28 29  1  0  0  0
 29 30  1  0  0  0
  7  8  1  0  0  0
  8  9  1  0  0  0
  9 10  1  0  0  0
 10 11  1  0  0  0
 11 12  1  0  0  0
 11 13  1  0  0  0
 13 14  2  0  0  0
 14 15  1  0  0  0
 15 16  1  0  0  0
 37 39  1  0  0  0
 39 40  2  0  0  0
 39 34  1  0  0  0
 15  1  2  0  0  0
 13  3  1  0  0  0
  8  4  1  0  0  0
 12  9  1  0  0  0
 29 25  1  0  0  0
 38 41  1  0  0  0
 18 20  1  0  0  0
 18 21  1  0  0  0
 23 24  1  0  0  0
M  END
> <minimizedAffinity>
-6.46492

> <CNNscore>
0.1162664816

> <CNNaffinity>
5.6366744041

> <CNN_VS>
0.6553562880

> <CNNaffinity_variance>
0.1549318135

$$$$
[H]O[C@@]([H])(c1c([H])c([H])nn1C([H])([H])[H])c1c(C(=O)N([H])[H])nc2n1C1([H])C([H])([H])C([H])(c3c([H])c(F)c(C#C[C@@]4(O[H])C(=O)N(C([H])([H])[H])C([H])([H])C4([H])[H])c([H])c3-2)C1([H])[H]


 41 46  0  0  0  0  0  0  0  0999 V2000
   39.6457   12.5288  -15.7307 C   0  0  0  0  0  0  0  0  0  0  0  0
   40.6823   12.8862  -14.8956 C   0  0  0  0  0  0  0  0  0  0  0  0
   41.9877   12.8090  -15.3351 C   0  0  0  0  0  0  0  0  0  0  0  0
   42.9672   13.2321  -14.3008 C   0  0  0  0  0  0  0  0  0  0  0  0
   42.6288   13.6532  -13.0855 N   0  0  0  0  0  0  0  0  0  0  0  0
   43.7979   13.9514  -12.4204 C   0  0  0  0  0  0  0  0  0  0  0  0
   44.8528   13.6988  -13.2670 C   0  0  0  0  0  0  0  0  0  0  0  0
   44.3202   13.2598  -14.4114 N   0  0  0  0  0  0  0  0  0  0  0  0
   45.0711   12.8726  -15.5870 C   0  0  0  0  0  0  0  0  0  0  0  0
   44.5802   11.5582  -16.1613 C   0  0  0  0  0  0  0  0  0  0  0  0
   43.7014   12.2577  -17.1845 C   0  0  0  0  0  0  0  0  0  0  0  0
   44.4918   13.5210  -16.8548 C   0  0  0  0  0  0  0  0  0  0  0  0
   42.3060   12.3762  -16.6136 C   0  0  0  0  0  0  0  0  0  0  0  0
   41.3023   12.0216  -17.4463 C   0  0  0  0  0  0  0  0  0  0  0  0
   39.9965   12.0988  -17.0066 C   0  0  0  0  0  0  0  0  0  0  0  0
   38.9583   11.7485  -17.8204 F   0  0  0  0  0  0  0  0  0  0  0  0
   43.7259   14.4405  -11.0627 C   0  0  0  0  0  0  0  0  0  0  0  0
   43.3305   13.6325   -9.9677 N   0  0  0  0  0  0  0  0  0  0  0  0
   44.0168   15.6238  -10.7969 O   0  0  0  0  0  0  0  0  0  0  0  0
   44.0086   12.9999   -9.5161 H   0  0  0  0  0  0  0  0  0  0  0  0
   42.3596   13.6778   -9.6210 H   0  0  0  0  0  0  0  0  0  0  0  0
   46.2680   13.8729  -12.9513 C   0  0  0  0  0  0  0  0  0  0  0  0
   46.5361   14.8103  -11.9567 O   0  0  0  0  0  0  0  0  0  0  0  0
   46.5316   15.7042  -12.3394 H   0  0  0  0  0  0  0  0  0  0  0  0
   46.9895   12.6092  -12.6331 C   0  0  0  0  0  0  0  0  0  0  0  0
   46.7196   11.7346  -11.6112 C   0  0  0  0  0  0  0  0  0  0  0  0
   47.6159   10.7186  -11.6852 C   0  0  0  0  0  0  0  0  0  0  0  0
   48.3956   11.0004  -12.7363 N   0  0  0  0  0  0  0  0  0  0  0  0
   48.0348   12.1251  -13.3126 N   0  0  0  0  0  0  0  0  0  0  0  0
   48.6713   12.7443  -14.4996 C   0  0  0  0  0  0  0  0  0  0  0  0
   37.1098   12.6713  -14.9551 C   0  0  0  0  0  0  0  0  0  0  0  0
   38.2628   12.5947  -15.3084 C   0  0  0  0  0  0  0  0  0  0  0  0
   35.6354   14.3582  -11.1028 C   0  0  0  0  0  0  0  0  0  0  0  0
   35.5074   13.9702  -12.4900 N   0  0  0  0  0  0  0  0  0  0  0  0
   35.2915   14.9282  -13.5585 C   0  0  0  0  0  0  0  0  0  0  0  0
   35.1212   14.1301  -14.8166 C   0  0  0  0  0  0  0  0  0  0  0  0
   35.7087   12.7898  -14.5307 C   0  0  0  0  0  0  0  0  0  0  0  0
   34.9855   11.7445  -15.0983 O   0  0  0  0  0  0  0  0  0  0  0  0
   35.5623   12.6613  -13.0570 C   0  0  0  0  0  0  0  0  0  0  0  0
   35.4926   11.6228  -12.3665 O   0  0  0  0  0  0  0  0  0  0  0  0
   35.2914   10.9135  -14.6216 H   0  0  0  0  0  0  0  0  0  0  0  0
 33 34  1  0  0  0
 34 35  1  0  0  0
 35 36  1  0  0  0
 36 37  1  0  0  0
 37 38  1  0  0  0
 37 31  1  0  0  0
 31 32  3  0  0  0
 32  1  1  0  0  0
  1  2  1  0  0  0
  2  3  2  0  0  0
  3  4  1  0  0  0
  4  5  2  0  0  0
  5  6  1  0  0  0
  6 17  1  0  0  0
 17 18  1  0  0  0
 17 19  2  0  0  0
  6  7  2  0  0  0
  7 22  1  0  0  0
 22 23  1  0  0  0
 22 25  1  0  0  0
 25 26  2  0  0  0
 26 27  1  0  0  0
 27 28  2  0  0  0
 28 29  1  0  0  0
 29 30  1  0  0  0
  7  8  1  0  0  0
  8  9  1  0  0  0
  9 10  1  0  0  0
 10 11  1  0  0  0
 11 12  1  0  0  0
 11 13  1  0  0  0
 13 14  2  0  0  0
 14 15  1  0  0  0
 15 16  1  0  0  0
 37 39  1  0  0  0
 39 40  2  0  0  0
 39 34  1  0  0  0
 15  1  2  0  0  0
 13  3  1  0  0  0
  8  4  1  0  0  0
 12  9  1  0  0  0
 29 25  1  0  0  0
 38 41  1  0  0  0
 18 20  1  0  0  0
 18 21  1  0  0  0
 23 24  1  0  0  0
M  END
> <minimizedAffinity>
-7.94903

> <CNNscore>
0.1069132611

> <CNNaffinity>
6.5034699440

> <CNN_VS>
0.6953071952

> <CNNaffinity_variance>
0.1049764603

$$$$
[H]O[C@@]([H])(c1c([H])c([H])nn1C([H])([H])[H])c1c(C(=O)N([H])[H])nc2n1C1([H])C([H])([H])C([H])(c3c([H])c(F)c(C#C[C@@]4(O[H])C(=O)N(C([H])([H])[H])C([H])([H])C4([H])[H])c([H])c3-2)C1([H])[H]


 41 46  0  0  0  0  0  0  0  0999 V2000
   40.2185   13.2044  -14.8115 C   0  0  0  0  0  0  0  0  0  0  0  0
   39.6222   13.9098  -13.7885 C   0  0  0  0  0  0  0  0  0  0  0  0
   38.2706   13.7755  -13.5467 C   0  0  0  0  0  0  0  0  0  0  0  0
   37.8056   14.6108  -12.4091 C   0  0  0  0  0  0  0  0  0  0  0  0
   38.6026   15.3952  -11.6890 N   0  0  0  0  0  0  0  0  0  0  0  0
   37.8168   16.0044  -10.7354 C   0  0  0  0  0  0  0  0  0  0  0  0
   36.5225   15.5670  -10.8987 C   0  0  0  0  0  0  0  0  0  0  0  0
   36.5400   14.7152  -11.9283 N   0  0  0  0  0  0  0  0  0  0  0  0
   35.3867   14.0133  -12.4507 C   0  0  0  0  0  0  0  0  0  0  0  0
   35.3212   14.0849  -13.9636 C   0  0  0  0  0  0  0  0  0  0  0  0
   35.9838   12.7268  -14.1224 C   0  0  0  0  0  0  0  0  0  0  0  0
   35.6857   12.5173  -12.6404 C   0  0  0  0  0  0  0  0  0  0  0  0
   37.4693   12.9396  -14.3097 C   0  0  0  0  0  0  0  0  0  0  0  0
   38.0370   12.2400  -15.3172 C   0  0  0  0  0  0  0  0  0  0  0  0
   39.3889   12.3743  -15.5590 C   0  0  0  0  0  0  0  0  0  0  0  0
   39.9952   11.6835  -16.5680 F   0  0  0  0  0  0  0  0  0  0  0  0
   38.4318   16.9196   -9.8017 C   0  0  0  0  0  0  0  0  0  0  0  0
   38.4881   18.3199  -10.0119 N   0  0  0  0  0  0  0  0  0  0  0  0
   38.9502   16.4999   -8.7477 O   0  0  0  0  0  0  0  0  0  0  0  0
   37.6754   18.9133   -9.7851 H   0  0  0  0  0  0  0  0  0  0  0  0
   39.3464   18.7474  -10.3935 H   0  0  0  0  0  0  0  0  0  0  0  0
   35.3706   15.9755  -10.0992 C   0  0  0  0  0  0  0  0  0  0  0  0
   34.1406   15.5185  -10.5664 O   0  0  0  0  0  0  0  0  0  0  0  0
   33.8257   16.0983  -11.2808 H   0  0  0  0  0  0  0  0  0  0  0  0
   35.4842   15.6619   -8.6475 C   0  0  0  0  0  0  0  0  0  0  0  0
   35.5567   14.4193   -8.0704 C   0  0  0  0  0  0  0  0  0  0  0  0
   35.6508   14.5889   -6.7276 C   0  0  0  0  0  0  0  0  0  0  0  0
   35.6330   15.9125   -6.5283 N   0  0  0  0  0  0  0  0  0  0  0  0
   35.5340   16.5667   -7.6639 N   0  0  0  0  0  0  0  0  0  0  0  0
   35.4860   18.0395   -7.8248 C   0  0  0  0  0  0  0  0  0  0  0  0
   42.8164   13.4197  -15.3184 C   0  0  0  0  0  0  0  0  0  0  0  0
   41.6328   13.3171  -15.0984 C   0  0  0  0  0  0  0  0  0  0  0  0
   45.9316   14.4618  -12.3068 C   0  0  0  0  0  0  0  0  0  0  0  0
   45.4581   13.8948  -13.5500 N   0  0  0  0  0  0  0  0  0  0  0  0
   45.5109   12.4732  -13.8370 C   0  0  0  0  0  0  0  0  0  0  0  0
   45.0198   12.3055  -15.2440 C   0  0  0  0  0  0  0  0  0  0  0  0
   44.2594   13.5484  -15.5603 C   0  0  0  0  0  0  0  0  0  0  0  0
   44.4505   13.9875  -16.8674 O   0  0  0  0  0  0  0  0  0  0  0  0
   44.8828   14.5641  -14.6718 C   0  0  0  0  0  0  0  0  0  0  0  0
   44.9333   15.8037  -14.8173 O   0  0  0  0  0  0  0  0  0  0  0  0
   44.1380   14.9433  -16.8803 H   0  0  0  0  0  0  0  0  0  0  0  0
 33 34  1  0  0  0
 34 35  1  0  0  0
 35 36  1  0  0  0
 36 37  1  0  0  0
 37 38  1  0  0  0
 37 31  1  0  0  0
 31 32  3  0  0  0
 32  1  1  0  0  0
  1  2  1  0  0  0
  2  3  2  0  0  0
  3  4  1  0  0  0
  4  5  2  0  0  0
  5  6  1  0  0  0
  6 17  1  0  0  0
 17 18  1  0  0  0
 17 19  2  0  0  0
  6  7  2  0  0  0
  7 22  1  0  0  0
 22 23  1  0  0  0
 22 25  1  0  0  0
 25 26  2  0  0  0
 26 27  1  0  0  0
 27 28  2  0  0  0
 28 29  1  0  0  0
 29 30  1  0  0  0
  7  8  1  0  0  0
  8  9  1  0  0  0
  9 10  1  0  0  0
 10 11  1  0  0  0
 11 12  1  0  0  0
 11 13  1  0  0  0
 13 14  2  0  0  0
 14 15  1  0  0  0
 15 16  1  0  0  0
 37 39  1  0  0  0
 39 40  2  0  0  0
 39 34  1  0  0  0
 15  1  2  0  0  0
 13  3  1  0  0  0
  8  4  1  0  0  0
 12  9  1  0  0  0
 29 25  1  0  0  0
 38 41  1  0  0  0
 18 20  1  0  0  0
 18 21  1  0  0  0
 23 24  1  0  0  0
M  END
> <minimizedAffinity>
-9.74516

> <CNNscore>
0.1062289253

> <CNNaffinity>
5.9259810448

> <CNN_VS>
0.6295105815

> <CNNaffinity_variance>
0.5048707724

$$$$
[H]O[C@@]([H])(c1c([H])c([H])nn1C([H])([H])[H])c1c(C(=O)N([H])[H])nc2n1C1([H])C([H])([H])C([H])(c3c([H])c(F)c(C#C[C@@]4(O[H])C(=O)N(C([H])([H])[H])C([H])([H])C4([H])[H])c([H])c3-2)C1([H])[H]


 41 46  0  0  0  0  0  0  0  0999 V2000
   41.0584   16.0441   -9.8077 C   0  0  0  0  0  0  0  0  0  0  0  0
   40.0164   15.7796   -8.9452 C   0  0  0  0  0  0  0  0  0  0  0  0
   38.7295   15.6555   -9.4266 C   0  0  0  0  0  0  0  0  0  0  0  0
   37.7407   15.3724   -8.3540 C   0  0  0  0  0  0  0  0  0  0  0  0
   38.0565   15.2388   -7.0690 N   0  0  0  0  0  0  0  0  0  0  0  0
   36.8855   14.9861   -6.3886 C   0  0  0  0  0  0  0  0  0  0  0  0
   35.8527   14.9708   -7.2976 C   0  0  0  0  0  0  0  0  0  0  0  0
   36.3999   15.2093   -8.4933 N   0  0  0  0  0  0  0  0  0  0  0  0
   35.6740   15.2834   -9.7436 C   0  0  0  0  0  0  0  0  0  0  0  0
   36.0878   16.4889  -10.5646 C   0  0  0  0  0  0  0  0  0  0  0  0
   37.0616   15.6709  -11.3960 C   0  0  0  0  0  0  0  0  0  0  0  0
   36.3564   14.4402  -10.8329 C   0  0  0  0  0  0  0  0  0  0  0  0
   38.4355   15.7892  -10.7752 C   0  0  0  0  0  0  0  0  0  0  0  0
   39.4449   16.0488  -11.6357 C   0  0  0  0  0  0  0  0  0  0  0  0
   40.7321   16.1729  -11.1542 C   0  0  0  0  0  0  0  0  0  0  0  0
   41.7754   16.4350  -11.9944 F   0  0  0  0  0  0  0  0  0  0  0  0
   36.9349   14.7930   -4.9575 C   0  0  0  0  0  0  0  0  0  0  0  0
   37.0222   15.8638   -4.0335 N   0  0  0  0  0  0  0  0  0  0  0  0
   36.9017   13.6458   -4.4692 O   0  0  0  0  0  0  0  0  0  0  0  0
   36.1748   16.3824   -3.7561 H   0  0  0  0  0  0  0  0  0  0  0  0
   37.9382   16.1255   -3.6365 H   0  0  0  0  0  0  0  0  0  0  0  0
   34.4424   14.7469   -6.9913 C   0  0  0  0  0  0  0  0  0  0  0  0
   34.2038   13.8948   -5.9157 O   0  0  0  0  0  0  0  0  0  0  0  0
   34.2664   12.9702   -6.2103 H   0  0  0  0  0  0  0  0  0  0  0  0
   33.6450   15.9919   -6.8091 C   0  0  0  0  0  0  0  0  0  0  0  0
   33.8871   17.0095   -5.9215 C   0  0  0  0  0  0  0  0  0  0  0  0
   32.9198   17.9462   -6.0882 C   0  0  0  0  0  0  0  0  0  0  0  0
   32.1270   17.4780   -7.0600 N   0  0  0  0  0  0  0  0  0  0  0  0
   32.5462   16.3129   -7.5006 N   0  0  0  0  0  0  0  0  0  0  0  0
   31.9153   15.5023   -8.5693 C   0  0  0  0  0  0  0  0  0  0  0  0
   43.5537   16.3007   -8.9359 C   0  0  0  0  0  0  0  0  0  0  0  0
   42.4224   16.1821   -9.3435 C   0  0  0  0  0  0  0  0  0  0  0  0
   44.7147   17.6745   -4.8586 C   0  0  0  0  0  0  0  0  0  0  0  0
   44.9302   16.9906   -6.1144 N   0  0  0  0  0  0  0  0  0  0  0  0
   45.0883   15.5511   -6.2095 C   0  0  0  0  0  0  0  0  0  0  0  0
   45.3818   15.2503   -7.6490 C   0  0  0  0  0  0  0  0  0  0  0  0
   44.9201   16.4425   -8.4161 C   0  0  0  0  0  0  0  0  0  0  0  0
   45.7631   16.7709   -9.4740 O   0  0  0  0  0  0  0  0  0  0  0  0
   45.0255   17.5461   -7.4259 C   0  0  0  0  0  0  0  0  0  0  0  0
   45.1729   18.7692   -7.6320 O   0  0  0  0  0  0  0  0  0  0  0  0
   45.5241   17.7142   -9.7279 H   0  0  0  0  0  0  0  0  0  0  0  0
 33 34  1  0  0  0
 34 35  1  0  0  0
 35 36  1  0  0  0
 36 37  1  0  0  0
 37 38  1  0  0  0
 37 31  1  0  0  0
 31 32  3  0  0  0
 32  1  1  0  0  0
  1  2  1  0  0  0
  2  3  2  0  0  0
  3  4  1  0  0  0
  4  5  2  0  0  0
  5  6  1  0  0  0
  6 17  1  0  0  0
 17 18  1  0  0  0
 17 19  2  0  0  0
  6  7  2  0  0  0
  7 22  1  0  0  0
 22 23  1  0  0  0
 22 25  1  0  0  0
 25 26  2  0  0  0
 26 27  1  0  0  0
 27 28  2  0  0  0
 28 29  1  0  0  0
 29 30  1  0  0  0
  7  8  1  0  0  0
  8  9  1  0  0  0
  9 10  1  0  0  0
 10 11  1  0  0  0
 11 12  1  0  0  0
 11 13  1  0  0  0
 13 14  2  0  0  0
 14 15  1  0  0  0
 15 16  1  0  0  0
 37 39  1  0  0  0
 39 40  2  0  0  0
 39 34  1  0  0  0
 15  1  2  0  0  0
 13  3  1  0  0  0
  8  4  1  0  0  0
 12  9  1  0  0  0
 29 25  1  0  0  0
 38 41  1  0  0  0
 18 20  1  0  0  0
 18 21  1  0  0  0
 23 24  1  0  0  0
M  END
> <minimizedAffinity>
-6.47835

> <CNNscore>
0.1021886468

> <CNNaffinity>
5.6984534264

> <CNN_VS>
0.5823172331

> <CNNaffinity_variance>
0.1935630292

$$$$
[H]O[C@]1(C#Cc2c([H])c([H])nc(-n3nc(C(=O)N([H])[H])c4c([H])c(F)c([H])c([H])c43)c2[H])C(=O)N(C([H])([H])[H])C([H])([H])C1([H])[H]


 32 35  0  0  0  0  0  0  0  0999 V2000
   35.6529   13.3318  -13.0190 C   0  0  0  0  0  0  0  0  0  0  0  0
   34.4042   12.8964  -13.4677 C   0  0  0  0  0  0  0  0  0  0  0  0
   34.2533   12.2757  -14.6847 C   0  0  0  0  0  0  0  0  0  0  0  0
   35.3183   12.0803  -15.4616 N   0  0  0  0  0  0  0  0  0  0  0  0
   36.5545   12.4776  -15.0865 C   0  0  0  0  0  0  0  0  0  0  0  0
   36.7117   13.0998  -13.8688 C   0  0  0  0  0  0  0  0  0  0  0  0
   37.7082   12.2826  -15.8941 N   0  0  0  0  0  0  0  0  0  0  0  0
   37.8050   11.6999  -17.0554 N   0  0  0  0  0  0  0  0  0  0  0  0
   39.0950   11.7196  -17.4993 C   0  0  0  0  0  0  0  0  0  0  0  0
   39.8509   12.3631  -16.5390 C   0  0  0  0  0  0  0  0  0  0  0  0
   41.1880   12.6913  -16.4048 C   0  0  0  0  0  0  0  0  0  0  0  0
   41.6334   13.3535  -15.2923 C   0  0  0  0  0  0  0  0  0  0  0  0
   42.9375   13.6587  -15.1902 F   0  0  0  0  0  0  0  0  0  0  0  0
   40.7562   13.6912  -14.3126 C   0  0  0  0  0  0  0  0  0  0  0  0
   39.4195   13.3665  -14.4404 C   0  0  0  0  0  0  0  0  0  0  0  0
   38.9349   12.7022  -15.5419 C   0  0  0  0  0  0  0  0  0  0  0  0
   39.5739   11.1613  -18.7564 C   0  0  0  0  0  0  0  0  0  0  0  0
   38.7648   10.6802  -19.7965 N   0  0  0  0  0  0  0  0  0  0  0  0
   40.8314   11.0937  -18.9509 O   0  0  0  0  0  0  0  0  0  0  0  0
   38.4348   11.3374  -20.5339 H   0  0  0  0  0  0  0  0  0  0  0  0
   38.4945    9.6812  -19.8361 H   0  0  0  0  0  0  0  0  0  0  0  0
   36.0055   14.5107  -10.6832 C   0  0  0  0  0  0  0  0  0  0  0  0
   35.8414   13.9824  -11.7543 C   0  0  0  0  0  0  0  0  0  0  0  0
   37.7453   18.5145   -9.0094 C   0  0  0  0  0  0  0  0  0  0  0  0
   36.9522   17.3135   -8.9496 N   0  0  0  0  0  0  0  0  0  0  0  0
   35.5987   17.2286   -8.4798 C   0  0  0  0  0  0  0  0  0  0  0  0
   35.0002   16.0069   -9.1176 C   0  0  0  0  0  0  0  0  0  0  0  0
   36.2060   15.1296   -9.3715 C   0  0  0  0  0  0  0  0  0  0  0  0
   36.3468   14.1525   -8.3767 O   0  0  0  0  0  0  0  0  0  0  0  0
   37.3793   16.0298   -9.3431 C   0  0  0  0  0  0  0  0  0  0  0  0
   38.5463   15.7011   -9.6216 O   0  0  0  0  0  0  0  0  0  0  0  0
   37.1803   13.6746   -8.5324 H   0  0  0  0  0  0  0  0  0  0  0  0
 24 25  1  0  0  0
 25 26  1  0  0  0
 26 27  1  0  0  0
 27 28  1  0  0  0
 28 29  1  0  0  0
 28 22  1  0  0  0
 22 23  3  0  0  0
 23  1  1  0  0  0
  1  2  2  0  0  0
  2  3  1  0  0  0
  3  4  2  0  0  0
  4  5  1  0  0  0
  5  6  2  0  0  0
  5  7  1  0  0  0
  7  8  1  0  0  0
  8  9  2  0  0  0
  9 17  1  0  0  0
 17 18  1  0  0  0
 17 19  2  0  0  0
  9 10  1  0  0  0
 10 11  2  0  0  0
 11 12  1  0  0  0
 12 13  1  0  0  0
 12 14  2  0  0  0
 14 15  1  0  0  0
 15 16  2  0  0  0
 28 30  1  0  0  0
 30 31  2  0  0  0
 30 25  1  0  0  0
  6  1  1  0  0  0
 16  7  1  0  0  0
 16 10  1  0  0  0
 29 32  1  0  0  0
 18 20  1  0  0  0
 18 21  1  0  0  0
M  END
> <minimizedAffinity>
-9.38951

> <CNNscore>
0.9200006723

> <CNNaffinity>
7.3154535294

> <CNN_VS>
6.7302222252

> <CNNaffinity_variance>
0.1475744545

$$$$
[H]O[C@]1(C#Cc2c([H])c([H])nc(-n3nc(C(=O)N([H])[H])c4c([H])c(F)c([H])c([H])c43)c2[H])C(=O)N(C([H])([H])[H])C([H])([H])C1([H])[H]


 32 35  0  0  0  0  0  0  0  0999 V2000
   33.7257   10.8498  -16.6569 C   0  0  0  0  0  0  0  0  0  0  0  0
   33.2838   11.2105  -15.3823 C   0  0  0  0  0  0  0  0  0  0  0  0
   34.1377   11.7521  -14.4514 C   0  0  0  0  0  0  0  0  0  0  0  0
   35.4193   11.9411  -14.7636 N   0  0  0  0  0  0  0  0  0  0  0  0
   35.9107   11.6135  -15.9794 C   0  0  0  0  0  0  0  0  0  0  0  0
   35.0603   11.0708  -16.9158 C   0  0  0  0  0  0  0  0  0  0  0  0
   37.2726   11.8038  -16.3404 N   0  0  0  0  0  0  0  0  0  0  0  0
   37.9140   11.3525  -17.3807 N   0  0  0  0  0  0  0  0  0  0  0  0
   39.2155   11.7616  -17.3603 C   0  0  0  0  0  0  0  0  0  0  0  0
   39.3898   12.5227  -16.2210 C   0  0  0  0  0  0  0  0  0  0  0  0
   40.4523   13.2006  -15.6508 C   0  0  0  0  0  0  0  0  0  0  0  0
   40.2915   13.8826  -14.4745 C   0  0  0  0  0  0  0  0  0  0  0  0
   41.3416   14.5315  -13.9450 F   0  0  0  0  0  0  0  0  0  0  0  0
   39.0797   13.8942  -13.8623 C   0  0  0  0  0  0  0  0  0  0  0  0
   38.0145   13.2192  -14.4265 C   0  0  0  0  0  0  0  0  0  0  0  0
   38.1370   12.5236  -15.6056 C   0  0  0  0  0  0  0  0  0  0  0  0
   40.2252   11.4466  -18.3616 C   0  0  0  0  0  0  0  0  0  0  0  0
   41.6081   11.6286  -18.2114 N   0  0  0  0  0  0  0  0  0  0  0  0
   39.8440   10.9634  -19.4773 O   0  0  0  0  0  0  0  0  0  0  0  0
   42.1821   10.8664  -17.7943 H   0  0  0  0  0  0  0  0  0  0  0  0
   42.0600   12.5111  -18.5109 H   0  0  0  0  0  0  0  0  0  0  0  0
   32.1132    9.8096  -18.4703 C   0  0  0  0  0  0  0  0  0  0  0  0
   32.8583   10.2826  -17.6492 C   0  0  0  0  0  0  0  0  0  0  0  0
   32.2078    8.6346  -22.9947 C   0  0  0  0  0  0  0  0  0  0  0  0
   31.6989    8.5893  -21.6479 N   0  0  0  0  0  0  0  0  0  0  0  0
   31.3561    7.3984  -20.9240 C   0  0  0  0  0  0  0  0  0  0  0  0
   31.4468    7.7437  -19.4645 C   0  0  0  0  0  0  0  0  0  0  0  0
   31.1900    9.2343  -19.4503 C   0  0  0  0  0  0  0  0  0  0  0  0
   29.8610    9.5216  -19.1103 O   0  0  0  0  0  0  0  0  0  0  0  0
   31.4565    9.7078  -20.8260 C   0  0  0  0  0  0  0  0  0  0  0  0
   31.4638   10.8974  -21.1897 O   0  0  0  0  0  0  0  0  0  0  0  0
   29.7216   10.4805  -19.2022 H   0  0  0  0  0  0  0  0  0  0  0  0
 24 25  1  0  0  0
 25 26  1  0  0  0
 26 27  1  0  0  0
 27 28  1  0  0  0
 28 29  1  0  0  0
 28 22  1  0  0  0
 22 23  3  0  0  0
 23  1  1  0  0  0
  1  2  2  0  0  0
  2  3  1  0  0  0
  3  4  2  0  0  0
  4  5  1  0  0  0
  5  6  2  0  0  0
  5  7  1  0  0  0
  7  8  1  0  0  0
  8  9  2  0  0  0
  9 17  1  0  0  0
 17 18  1  0  0  0
 17 19  2  0  0  0
  9 10  1  0  0  0
 10 11  2  0  0  0
 11 12  1  0  0  0
 12 13  1  0  0  0
 12 14  2  0  0  0
 14 15  1  0  0  0
 15 16  2  0  0  0
 28 30  1  0  0  0
 30 31  2  0  0  0
 30 25  1  0  0  0
  6  1  1  0  0  0
 16  7  1  0  0  0
 16 10  1  0  0  0
 29 32  1  0  0  0
 18 20  1  0  0  0
 18 21  1  0  0  0
M  END
> <minimizedAffinity>
-8.67942

> <CNNscore>
0.8099840283

> <CNNaffinity>
7.5564203262

> <CNN_VS>
6.1205797195

> <CNNaffinity_variance>
0.1553949565

$$$$
[H]O[C@]1(C#Cc2c([H])c([H])nc(-n3nc(C(=O)N([H])[H])c4c([H])c(F)c([H])c([H])c43)c2[H])C(=O)N(C([H])([H])[H])C([H])([H])C1([H])[H]


 32 35  0  0  0  0  0  0  0  0999 V2000
   36.4519   13.7870  -12.5279 C   0  0  0  0  0  0  0  0  0  0  0  0
   35.1432   13.4932  -12.9164 C   0  0  0  0  0  0  0  0  0  0  0  0
   34.8644   12.9341  -14.1407 C   0  0  0  0  0  0  0  0  0  0  0  0
   35.8604   12.6625  -14.9834 N   0  0  0  0  0  0  0  0  0  0  0  0
   37.1489   12.9224  -14.6688 C   0  0  0  0  0  0  0  0  0  0  0  0
   37.4341   13.4822  -13.4441 C   0  0  0  0  0  0  0  0  0  0  0  0
   38.2313   12.6435  -15.5473 N   0  0  0  0  0  0  0  0  0  0  0  0
   38.2097   12.0638  -16.7139 N   0  0  0  0  0  0  0  0  0  0  0  0
   39.4673   11.9855  -17.2374 C   0  0  0  0  0  0  0  0  0  0  0  0
   40.3296   12.5605  -16.3244 C   0  0  0  0  0  0  0  0  0  0  0  0
   41.6941   12.7816  -16.2731 C   0  0  0  0  0  0  0  0  0  0  0  0
   42.2585   13.3985  -15.1887 C   0  0  0  0  0  0  0  0  0  0  0  0
   43.5863   13.5996  -15.1675 F   0  0  0  0  0  0  0  0  0  0  0  0
   41.4730   13.7966  -14.1553 C   0  0  0  0  0  0  0  0  0  0  0  0
   40.1096   13.5787  -14.2004 C   0  0  0  0  0  0  0  0  0  0  0  0
   39.5068   12.9629  -15.2713 C   0  0  0  0  0  0  0  0  0  0  0  0
   39.8218   11.4007  -18.5234 C   0  0  0  0  0  0  0  0  0  0  0  0
   38.9276   10.7958  -19.4191 N   0  0  0  0  0  0  0  0  0  0  0  0
   41.0426   11.4293  -18.8876 O   0  0  0  0  0  0  0  0  0  0  0  0
   38.4427   11.3807  -20.1313 H   0  0  0  0  0  0  0  0  0  0  0  0
   38.7471    9.7768  -19.3774 H   0  0  0  0  0  0  0  0  0  0  0  0
   37.0559   14.8746  -10.1992 C   0  0  0  0  0  0  0  0  0  0  0  0
   36.7736   14.3704  -11.2572 C   0  0  0  0  0  0  0  0  0  0  0  0
   39.3160   13.6479   -6.2945 C   0  0  0  0  0  0  0  0  0  0  0  0
   38.7779   14.5837   -7.2483 N   0  0  0  0  0  0  0  0  0  0  0  0
   39.4656   15.7277   -7.7757 C   0  0  0  0  0  0  0  0  0  0  0  0
   38.8176   16.0466   -9.0933 C   0  0  0  0  0  0  0  0  0  0  0  0
   37.4172   15.5000   -8.9256 C   0  0  0  0  0  0  0  0  0  0  0  0
   36.5083   16.5139   -8.5936 O   0  0  0  0  0  0  0  0  0  0  0  0
   37.4896   14.5249   -7.8158 C   0  0  0  0  0  0  0  0  0  0  0  0
   36.5629   13.7799   -7.4499 O   0  0  0  0  0  0  0  0  0  0  0  0
   35.6454   16.1034   -8.4086 H   0  0  0  0  0  0  0  0  0  0  0  0
 24 25  1  0  0  0
 25 26  1  0  0  0
 26 27  1  0  0  0
 27 28  1  0  0  0
 28 29  1  0  0  0
 28 22  1  0  0  0
 22 23  3  0  0  0
 23  1  1  0  0  0
  1  2  2  0  0  0
  2  3  1  0  0  0
  3  4  2  0  0  0
  4  5  1  0  0  0
  5  6  2  0  0  0
  5  7  1  0  0  0
  7  8  1  0  0  0
  8  9  2  0  0  0
  9 17  1  0  0  0
 17 18  1  0  0  0
 17 19  2  0  0  0
  9 10  1  0  0  0
 10 11  2  0  0  0
 11 12  1  0  0  0
 12 13  1  0  0  0
 12 14  2  0  0  0
 14 15  1  0  0  0
 15 16  2  0  0  0
 28 30  1  0  0  0
 30 31  2  0  0  0
 30 25  1  0  0  0
  6  1  1  0  0  0
 16  7  1  0  0  0
 16 10  1  0  0  0
 29 32  1  0  0  0
 18 20  1  0  0  0
 18 21  1  0  0  0
M  END
> <minimizedAffinity>
-8.77898

> <CNNscore>
0.7098184228

> <CNNaffinity>
6.8754615784

> <CNN_VS>
4.8803291321

> <CNNaffinity_variance>
0.2091274261

$$$$
[H]O[C@]1(C#Cc2c([H])c([H])nc(-n3nc(C(=O)N([H])[H])c4c([H])c(F)c([H])c([H])c43)c2[H])C(=O)N(C([H])([H])[H])C([H])([H])C1([H])[H]


 32 35  0  0  0  0  0  0  0  0999 V2000
   41.5179   12.7930  -15.9095 C   0  0  0  0  0  0  0  0  0  0  0  0
   41.5400   12.2440  -17.1933 C   0  0  0  0  0  0  0  0  0  0  0  0
   40.3854   11.8551  -17.8295 C   0  0  0  0  0  0  0  0  0  0  0  0
   39.2123   12.0017  -17.2144 N   0  0  0  0  0  0  0  0  0  0  0  0
   39.1217   12.5260  -15.9719 C   0  0  0  0  0  0  0  0  0  0  0  0
   40.2747   12.9173  -15.3299 C   0  0  0  0  0  0  0  0  0  0  0  0
   37.8848   12.6943  -15.2915 N   0  0  0  0  0  0  0  0  0  0  0  0
   37.6343   13.3654  -14.2033 N   0  0  0  0  0  0  0  0  0  0  0  0
   36.3127   13.2777  -13.8755 C   0  0  0  0  0  0  0  0  0  0  0  0
   35.7021   12.4932  -14.8342 C   0  0  0  0  0  0  0  0  0  0  0  0
   34.4121   12.0452  -15.0549 C   0  0  0  0  0  0  0  0  0  0  0  0
   34.1255   11.2544  -16.1353 C   0  0  0  0  0  0  0  0  0  0  0  0
   32.8636   10.8349  -16.3234 F   0  0  0  0  0  0  0  0  0  0  0  0
   35.1152   10.9068  -16.9975 C   0  0  0  0  0  0  0  0  0  0  0  0
   36.4056   11.3508  -16.7829 C   0  0  0  0  0  0  0  0  0  0  0  0
   36.7319   12.1457  -15.7100 C   0  0  0  0  0  0  0  0  0  0  0  0
   35.6756   13.9014  -12.7237 C   0  0  0  0  0  0  0  0  0  0  0  0
   34.7199   14.9270  -12.7757 N   0  0  0  0  0  0  0  0  0  0  0  0
   35.9977   13.4975  -11.5589 O   0  0  0  0  0  0  0  0  0  0  0  0
   33.7106   14.6824  -12.8526 H   0  0  0  0  0  0  0  0  0  0  0  0
   35.0095   15.9207  -12.7385 H   0  0  0  0  0  0  0  0  0  0  0  0
   43.6971   13.5473  -14.6242 C   0  0  0  0  0  0  0  0  0  0  0  0
   42.7060   13.2079  -15.2205 C   0  0  0  0  0  0  0  0  0  0  0  0
   48.3007   13.8128  -15.3961 C   0  0  0  0  0  0  0  0  0  0  0  0
   47.0735   14.1384  -14.7157 N   0  0  0  0  0  0  0  0  0  0  0  0
   46.6433   15.4592  -14.3549 C   0  0  0  0  0  0  0  0  0  0  0  0
   45.1472   15.4022  -14.2279 C   0  0  0  0  0  0  0  0  0  0  0  0
   44.8898   13.9533  -13.8782 C   0  0  0  0  0  0  0  0  0  0  0  0
   44.6957   13.7859  -12.5003 O   0  0  0  0  0  0  0  0  0  0  0  0
   46.0992   13.2112  -14.2957 C   0  0  0  0  0  0  0  0  0  0  0  0
   46.2277   11.9740  -14.2766 O   0  0  0  0  0  0  0  0  0  0  0  0
   44.6245   12.8332  -12.3143 H   0  0  0  0  0  0  0  0  0  0  0  0
 24 25  1  0  0  0
 25 26  1  0  0  0
 26 27  1  0  0  0
 27 28  1  0  0  0
 28 29  1  0  0  0
 28 22  1  0  0  0
 22 23  3  0  0  0
 23  1  1  0  0  0
  1  2  2  0  0  0
  2  3  1  0  0  0
  3  4  2  0  0  0
  4  5  1  0  0  0
  5  6  2  0  0  0
  5  7  1  0  0  0
  7  8  1  0  0  0
  8  9  2  0  0  0
  9 17  1  0  0  0
 17 18  1  0  0  0
 17 19  2  0  0  0
  9 10  1  0  0  0
 10 11  2  0  0  0
 11 12  1  0  0  0
 12 13  1  0  0  0
 12 14  2  0  0  0
 14 15  1  0  0  0
 15 16  2  0  0  0
 28 30  1  0  0  0
 30 31  2  0  0  0
 30 25  1  0  0  0
  6  1  1  0  0  0
 16  7  1  0  0  0
 16 10  1  0  0  0
 29 32  1  0  0  0
 18 20  1  0  0  0
 18 21  1  0  0  0
M  END
> <minimizedAffinity>
-9.63497

> <CNNscore>
0.6937800646

> <CNNaffinity>
6.8522200584

> <CNN_VS>
4.7539339066

> <CNNaffinity_variance>
0.0475973785

$$$$
[H]O[C@]1(C#Cc2c([H])c([H])nc(-n3nc(C(=O)N([H])[H])c4c([H])c(F)c([H])c([H])c43)c2[H])C(=O)N(C([H])([H])[H])C([H])([H])C1([H])[H]


 32 35  0  0  0  0  0  0  0  0999 V2000
   38.4298   12.0324  -16.1887 C   0  0  0  0  0  0  0  0  0  0  0  0
   38.4724   11.4433  -17.4541 C   0  0  0  0  0  0  0  0  0  0  0  0
   39.6516   11.3141  -18.1483 C   0  0  0  0  0  0  0  0  0  0  0  0
   40.7862   11.7586  -17.6088 N   0  0  0  0  0  0  0  0  0  0  0  0
   40.8138   12.3384  -16.3882 C   0  0  0  0  0  0  0  0  0  0  0  0
   39.6360   12.4705  -15.6884 C   0  0  0  0  0  0  0  0  0  0  0  0
   42.0086   12.8216  -15.7880 N   0  0  0  0  0  0  0  0  0  0  0  0
   43.2457   12.5575  -16.1000 N   0  0  0  0  0  0  0  0  0  0  0  0
   44.1044   13.2257  -15.2767 C   0  0  0  0  0  0  0  0  0  0  0  0
   43.3388   13.9572  -14.3900 C   0  0  0  0  0  0  0  0  0  0  0  0
   43.6109   14.8154  -13.3397 C   0  0  0  0  0  0  0  0  0  0  0  0
   42.5915   15.3987  -12.6359 C   0  0  0  0  0  0  0  0  0  0  0  0
   42.8869   16.2276  -11.6212 F   0  0  0  0  0  0  0  0  0  0  0  0
   41.3029   15.1332  -12.9712 C   0  0  0  0  0  0  0  0  0  0  0  0
   41.0242   14.2771  -14.0190 C   0  0  0  0  0  0  0  0  0  0  0  0
   42.0202   13.6727  -14.7485 C   0  0  0  0  0  0  0  0  0  0  0  0
   45.5587   13.1695  -15.3330 C   0  0  0  0  0  0  0  0  0  0  0  0
   46.4193   14.2773  -15.3224 N   0  0  0  0  0  0  0  0  0  0  0  0
   46.1202   12.0274  -15.3979 O   0  0  0  0  0  0  0  0  0  0  0  0
   46.7459   14.6627  -14.4118 H   0  0  0  0  0  0  0  0  0  0  0  0
   46.7306   14.7124  -16.2092 H   0  0  0  0  0  0  0  0  0  0  0  0
   36.2021   12.2947  -14.7963 C   0  0  0  0  0  0  0  0  0  0  0  0
   37.2147   12.1811  -15.4405 C   0  0  0  0  0  0  0  0  0  0  0  0
   34.3585   15.3600  -11.7856 C   0  0  0  0  0  0  0  0  0  0  0  0
   34.3131   14.2677  -12.7235 N   0  0  0  0  0  0  0  0  0  0  0  0
   33.3633   14.1208  -13.7894 C   0  0  0  0  0  0  0  0  0  0  0  0
   34.0069   13.2333  -14.8169 C   0  0  0  0  0  0  0  0  0  0  0  0
   34.9804   12.4146  -13.9983 C   0  0  0  0  0  0  0  0  0  0  0  0
   34.4577   11.1499  -13.6956 O   0  0  0  0  0  0  0  0  0  0  0  0
   35.1946   13.1687  -12.7440 C   0  0  0  0  0  0  0  0  0  0  0  0
   36.0180   12.8755  -11.8588 O   0  0  0  0  0  0  0  0  0  0  0  0
   35.0772   10.6977  -13.0964 H   0  0  0  0  0  0  0  0  0  0  0  0
 24 25  1  0  0  0
 25 26  1  0  0  0
 26 27  1  0  0  0
 27 28  1  0  0  0
 28 29  1  0  0  0
 28 22  1  0  0  0
 22 23  3  0  0  0
 23  1  1  0  0  0
  1  2  2  0  0  0
  2  3  1  0  0  0
  3  4  2  0  0  0
  4  5  1  0  0  0
  5  6  2  0  0  0
  5  7  1  0  0  0
  7  8  1  0  0  0
  8  9  2  0  0  0
  9 17  1  0  0  0
 17 18  1  0  0  0
 17 19  2  0  0  0
  9 10  1  0  0  0
 10 11  2  0  0  0
 11 12  1  0  0  0
 12 13  1  0  0  0
 12 14  2  0  0  0
 14 15  1  0  0  0
 15 16  2  0  0  0
 28 30  1  0  0  0
 30 31  2  0  0  0
 30 25  1  0  0  0
  6  1  1  0  0  0
 16  7  1  0  0  0
 16 10  1  0  0  0
 29 32  1  0  0  0
 18 20  1  0  0  0
 18 21  1  0  0  0
M  END
> <minimizedAffinity>
-9.06903

> <CNNscore>
0.6903072000

> <CNNaffinity>
7.0492753983

> <CNN_VS>
4.8661656380

> <CNNaffinity_variance>
0.2328797132

$$$$
[H]O[C@]1(C#Cc2c([H])c([H])nc(-n3nc(C(=O)N([H])[H])c4c([H])c(F)c([H])c([H])c43)c2[H])C(=O)N(C([H])([H])[H])C([H])([H])C1([H])[H]


 32 35  0  0  0  0  0  0  0  0999 V2000
   42.5309   14.2846  -13.0149 C   0  0  0  0  0  0  0  0  0  0  0  0
   41.8713   15.4017  -12.4983 C   0  0  0  0  0  0  0  0  0  0  0  0
   40.6264   15.7735  -12.9468 C   0  0  0  0  0  0  0  0  0  0  0  0
   40.0269   15.0567  -13.8970 N   0  0  0  0  0  0  0  0  0  0  0  0
   40.6108   13.9648  -14.4389 C   0  0  0  0  0  0  0  0  0  0  0  0
   41.8575   13.5877  -13.9936 C   0  0  0  0  0  0  0  0  0  0  0  0
   39.9954   13.1814  -15.4532 N   0  0  0  0  0  0  0  0  0  0  0  0
   40.5028   12.7454  -16.5712 N   0  0  0  0  0  0  0  0  0  0  0  0
   39.5799   12.0248  -17.2716 C   0  0  0  0  0  0  0  0  0  0  0  0
   38.4152   12.0158  -16.5293 C   0  0  0  0  0  0  0  0  0  0  0  0
   37.1548   11.4701  -16.6940 C   0  0  0  0  0  0  0  0  0  0  0  0
   36.1889   11.6499  -15.7402 C   0  0  0  0  0  0  0  0  0  0  0  0
   34.9744   11.1079  -15.9280 F   0  0  0  0  0  0  0  0  0  0  0  0
   36.4700   12.3693  -14.6236 C   0  0  0  0  0  0  0  0  0  0  0  0
   37.7267   12.9169  -14.4530 C   0  0  0  0  0  0  0  0  0  0  0  0
   38.7218   12.7583  -15.3879 C   0  0  0  0  0  0  0  0  0  0  0  0
   39.7957   11.3876  -18.5634 C   0  0  0  0  0  0  0  0  0  0  0  0
   38.7928   10.8636  -19.3927 N   0  0  0  0  0  0  0  0  0  0  0  0
   40.9891   11.2857  -18.9985 O   0  0  0  0  0  0  0  0  0  0  0  0
   38.3277   11.4842  -20.0877 H   0  0  0  0  0  0  0  0  0  0  0  0
   38.5131    9.8692  -19.3190 H   0  0  0  0  0  0  0  0  0  0  0  0
   44.9126   13.5153  -12.1748 C   0  0  0  0  0  0  0  0  0  0  0  0
   43.8301   13.8723  -12.5669 C   0  0  0  0  0  0  0  0  0  0  0  0
   47.1413    9.4574  -11.5220 C   0  0  0  0  0  0  0  0  0  0  0  0
   47.0600   10.8847  -11.6988 N   0  0  0  0  0  0  0  0  0  0  0  0
   47.8835   11.6661  -12.5769 C   0  0  0  0  0  0  0  0  0  0  0  0
   47.1119   12.9177  -12.8863 C   0  0  0  0  0  0  0  0  0  0  0  0
   46.2169   13.0741  -11.6770 C   0  0  0  0  0  0  0  0  0  0  0  0
   46.7424   14.0022  -10.7678 O   0  0  0  0  0  0  0  0  0  0  0  0
   46.1582   11.7417  -11.0373 C   0  0  0  0  0  0  0  0  0  0  0  0
   45.4309   11.4359  -10.0755 O   0  0  0  0  0  0  0  0  0  0  0  0
   46.1830   14.0016   -9.9713 H   0  0  0  0  0  0  0  0  0  0  0  0
 24 25  1  0  0  0
 25 26  1  0  0  0
 26 27  1  0  0  0
 27 28  1  0  0  0
 28 29  1  0  0  0
 28 22  1  0  0  0
 22 23  3  0  0  0
 23  1  1  0  0  0
  1  2  2  0  0  0
  2  3  1  0  0  0
  3  4  2  0  0  0
  4  5  1  0  0  0
  5  6  2  0  0  0
  5  7  1  0  0  0
  7  8  1  0  0  0
  8  9  2  0  0  0
  9 17  1  0  0  0
 17 18  1  0  0  0
 17 19  2  0  0  0
  9 10  1  0  0  0
 10 11  2  0  0  0
 11 12  1  0  0  0
 12 13  1  0  0  0
 12 14  2  0  0  0
 14 15  1  0  0  0
 15 16  2  0  0  0
 28 30  1  0  0  0
 30 31  2  0  0  0
 30 25  1  0  0  0
  6  1  1  0  0  0
 16  7  1  0  0  0
 16 10  1  0  0  0
 29 32  1  0  0  0
 18 20  1  0  0  0
 18 21  1  0  0  0
M  END
> <minimizedAffinity>
-8.70434

> <CNNscore>
0.6132689714

> <CNNaffinity>
6.7426247597

> <CNN_VS>
4.1350426674

> <CNNaffinity_variance>
0.4300875664

$$$$
[H]O[C@]1(C#Cc2c([H])c([H])nc(-n3nc(C(=O)N([H])[H])c4c([H])c(F)c([H])c([H])c43)c2[H])C(=O)N(C([H])([H])[H])C([H])([H])C1([H])[H]


 32 35  0  0  0  0  0  0  0  0999 V2000
   41.3213   12.4852  -16.5227 C   0  0  0  0  0  0  0  0  0  0  0  0
   41.2309   11.8122  -17.7429 C   0  0  0  0  0  0  0  0  0  0  0  0
   40.0260   11.3666  -18.2313 C   0  0  0  0  0  0  0  0  0  0  0  0
   38.9121   11.5774  -17.5306 N   0  0  0  0  0  0  0  0  0  0  0  0
   38.9306   12.2220  -16.3428 C   0  0  0  0  0  0  0  0  0  0  0  0
   40.1345   12.6705  -15.8487 C   0  0  0  0  0  0  0  0  0  0  0  0
   37.7589   12.4610  -15.5739 N   0  0  0  0  0  0  0  0  0  0  0  0
   37.6209   13.1763  -14.4938 N   0  0  0  0  0  0  0  0  0  0  0  0
   36.3273   13.1516  -14.0605 C   0  0  0  0  0  0  0  0  0  0  0  0
   35.6137   12.3612  -14.9400 C   0  0  0  0  0  0  0  0  0  0  0  0
   34.2946   11.9577  -15.0428 C   0  0  0  0  0  0  0  0  0  0  0  0
   33.8939   11.1442  -16.0688 C   0  0  0  0  0  0  0  0  0  0  0  0
   32.6063   10.7691  -16.1423 F   0  0  0  0  0  0  0  0  0  0  0  0
   34.7982   10.7301  -16.9930 C   0  0  0  0  0  0  0  0  0  0  0  0
   36.1171   11.1294  -16.8961 C   0  0  0  0  0  0  0  0  0  0  0  0
   36.5570   11.9451  -15.8809 C   0  0  0  0  0  0  0  0  0  0  0  0
   35.8075   13.8370  -12.8851 C   0  0  0  0  0  0  0  0  0  0  0  0
   35.0165   14.9955  -12.8992 N   0  0  0  0  0  0  0  0  0  0  0  0
   36.0813   13.3623  -11.7347 O   0  0  0  0  0  0  0  0  0  0  0  0
   33.9809   14.9072  -12.9637 H   0  0  0  0  0  0  0  0  0  0  0  0
   35.4529   15.9332  -12.8461 H   0  0  0  0  0  0  0  0  0  0  0  0
   43.5984   13.3693  -15.5209 C   0  0  0  0  0  0  0  0  0  0  0  0
   42.5642   12.9618  -15.9875 C   0  0  0  0  0  0  0  0  0  0  0  0
   46.0867   12.6868  -11.6219 C   0  0  0  0  0  0  0  0  0  0  0  0
   45.8923   13.1079  -12.9857 N   0  0  0  0  0  0  0  0  0  0  0  0
   46.7657   12.8094  -14.0848 C   0  0  0  0  0  0  0  0  0  0  0  0
   45.9332   12.9078  -15.3318 C   0  0  0  0  0  0  0  0  0  0  0  0
   44.8413   13.8773  -14.9371 C   0  0  0  0  0  0  0  0  0  0  0  0
   45.1149   15.1721  -15.3984 O   0  0  0  0  0  0  0  0  0  0  0  0
   44.8129   13.8804  -13.4582 C   0  0  0  0  0  0  0  0  0  0  0  0
   43.9725   14.4695  -12.7551 O   0  0  0  0  0  0  0  0  0  0  0  0
   44.4356   15.7731  -15.0454 H   0  0  0  0  0  0  0  0  0  0  0  0
 24 25  1  0  0  0
 25 26  1  0  0  0
 26 27  1  0  0  0
 27 28  1  0  0  0
 28 29  1  0  0  0
 28 22  1  0  0  0
 22 23  3  0  0  0
 23  1  1  0  0  0
  1  2  2  0  0  0
  2  3  1  0  0  0
  3  4  2  0  0  0
  4  5  1  0  0  0
  5  6  2  0  0  0
  5  7  1  0  0  0
  7  8  1  0  0  0
  8  9  2  0  0  0
  9 17  1  0  0  0
 17 18  1  0  0  0
 17 19  2  0  0  0
  9 10  1  0  0  0
 10 11  2  0  0  0
 11 12  1  0  0  0
 12 13  1  0  0  0
 12 14  2  0  0  0
 14 15  1  0  0  0
 15 16  2  0  0  0
 28 30  1  0  0  0
 30 31  2  0  0  0
 30 25  1  0  0  0
  6  1  1  0  0  0
 16  7  1  0  0  0
 16 10  1  0  0  0
 29 32  1  0  0  0
 18 20  1  0  0  0
 18 21  1  0  0  0
M  END
> <minimizedAffinity>
-10.09780

> <CNNscore>
0.6062229872

> <CNNaffinity>
6.8962492943

> <CNN_VS>
4.1806650162

> <CNNaffinity_variance>
0.0852339417

$$$$
[H]O[C@]1(C#Cc2c([H])c([H])nc(-n3nc(C(=O)N([H])[H])c4c([H])c(F)c([H])c([H])c43)c2[H])C(=O)N(C([H])([H])[H])C([H])([H])C1([H])[H]


 32 35  0  0  0  0  0  0  0  0999 V2000
   40.5798   15.0032  -12.9023 C   0  0  0  0  0  0  0  0  0  0  0  0
   41.9749   14.9428  -12.8939 C   0  0  0  0  0  0  0  0  0  0  0  0
   42.6683   14.1980  -13.8177 C   0  0  0  0  0  0  0  0  0  0  0  0
   42.0020   13.5140  -14.7473 N   0  0  0  0  0  0  0  0  0  0  0  0
   40.6519   13.5299  -14.8104 C   0  0  0  0  0  0  0  0  0  0  0  0
   39.9521   14.2741  -13.8879 C   0  0  0  0  0  0  0  0  0  0  0  0
   39.9147   12.8105  -15.7904 N   0  0  0  0  0  0  0  0  0  0  0  0
   40.3116   12.3640  -16.9482 N   0  0  0  0  0  0  0  0  0  0  0  0
   39.2946   11.7217  -17.5923 C   0  0  0  0  0  0  0  0  0  0  0  0
   38.1868   11.7763  -16.7693 C   0  0  0  0  0  0  0  0  0  0  0  0
   36.8834   11.3205  -16.8523 C   0  0  0  0  0  0  0  0  0  0  0  0
   36.0012   11.5458  -15.8297 C   0  0  0  0  0  0  0  0  0  0  0  0
   34.7421   11.0910  -15.9390 F   0  0  0  0  0  0  0  0  0  0  0  0
   36.4084   12.2219  -14.7249 C   0  0  0  0  0  0  0  0  0  0  0  0
   37.7087   12.6798  -14.6357 C   0  0  0  0  0  0  0  0  0  0  0  0
   38.6228   12.4732  -15.6413 C   0  0  0  0  0  0  0  0  0  0  0  0
   39.3753   11.0976  -18.9058 C   0  0  0  0  0  0  0  0  0  0  0  0
   38.2818   10.6888  -19.6837 N   0  0  0  0  0  0  0  0  0  0  0  0
   40.5270   10.8954  -19.4123 O   0  0  0  0  0  0  0  0  0  0  0  0
   37.8382   11.3660  -20.3387 H   0  0  0  0  0  0  0  0  0  0  0  0
   37.9142    9.7232  -19.6115 H   0  0  0  0  0  0  0  0  0  0  0  0
   39.1841   16.4015  -11.1510 C   0  0  0  0  0  0  0  0  0  0  0  0
   39.8288   15.7716  -11.9515 C   0  0  0  0  0  0  0  0  0  0  0  0
   35.0505   15.9215   -9.0196 C   0  0  0  0  0  0  0  0  0  0  0  0
   36.3819   16.4490   -9.1754 N   0  0  0  0  0  0  0  0  0  0  0  0
   37.3674   16.5501   -8.1369 C   0  0  0  0  0  0  0  0  0  0  0  0
   38.7060   16.5793   -8.8186 C   0  0  0  0  0  0  0  0  0  0  0  0
   38.3821   17.1501  -10.1814 C   0  0  0  0  0  0  0  0  0  0  0  0
   38.6742   18.5194  -10.2456 O   0  0  0  0  0  0  0  0  0  0  0  0
   36.9291   16.9502  -10.3731 C   0  0  0  0  0  0  0  0  0  0  0  0
   36.3014   17.1873  -11.4207 O   0  0  0  0  0  0  0  0  0  0  0  0
   38.3671   18.8583  -11.1047 H   0  0  0  0  0  0  0  0  0  0  0  0
 24 25  1  0  0  0
 25 26  1  0  0  0
 26 27  1  0  0  0
 27 28  1  0  0  0
 28 29  1  0  0  0
 28 22  1  0  0  0
 22 23  3  0  0  0
 23  1  1  0  0  0
  1  2  2  0  0  0
  2  3  1  0  0  0
  3  4  2  0  0  0
  4  5  1  0  0  0
  5  6  2  0  0  0
  5  7  1  0  0  0
  7  8  1  0  0  0
  8  9  2  0  0  0
  9 17  1  0  0  0
 17 18  1  0  0  0
 17 19  2  0  0  0
  9 10  1  0  0  0
 10 11  2  0  0  0
 11 12  1  0  0  0
 12 13  1  0  0  0
 12 14  2  0  0  0
 14 15  1  0  0  0
 15 16  2  0  0  0
 28 30  1  0  0  0
 30 31  2  0  0  0
 30 25  1  0  0  0
  6  1  1  0  0  0
 16  7  1  0  0  0
 16 10  1  0  0  0
 29 32  1  0  0  0
 18 20  1  0  0  0
 18 21  1  0  0  0
M  END
> <minimizedAffinity>
-9.14914

> <CNNscore>
0.5833240747

> <CNNaffinity>
6.8227529526

> <CNN_VS>
3.9798760414

> <CNNaffinity_variance>
0.2530835271

$$$$
[H]O[C@]1(C#Cc2c([H])c([H])nc(-n3nc(C(=O)N([H])[H])c4c([H])c(F)c([H])c([H])c43)c2[H])C(=O)N(C([H])([H])[H])C([H])([H])C1([H])[H]


 32 35  0  0  0  0  0  0  0  0999 V2000
   41.4797   12.8018  -15.8657 C   0  0  0  0  0  0  0  0  0  0  0  0
   41.5185   12.3045  -17.1700 C   0  0  0  0  0  0  0  0  0  0  0  0
   40.3717   11.9481  -17.8385 C   0  0  0  0  0  0  0  0  0  0  0  0
   39.1902   12.0767  -17.2356 N   0  0  0  0  0  0  0  0  0  0  0  0
   39.0834   12.5514  -15.9746 C   0  0  0  0  0  0  0  0  0  0  0  0
   40.2285   12.9099  -15.3002 C   0  0  0  0  0  0  0  0  0  0  0  0
   37.8372   12.6994  -15.3066 N   0  0  0  0  0  0  0  0  0  0  0  0
   37.5662   13.3606  -14.2172 N   0  0  0  0  0  0  0  0  0  0  0  0
   36.2425   13.2538  -13.9043 C   0  0  0  0  0  0  0  0  0  0  0  0
   35.6525   12.4672  -14.8742 C   0  0  0  0  0  0  0  0  0  0  0  0
   34.3709   12.0039  -15.1114 C   0  0  0  0  0  0  0  0  0  0  0  0
   34.1063   11.2160  -16.1996 C   0  0  0  0  0  0  0  0  0  0  0  0
   32.8520   10.7813  -16.4038 F   0  0  0  0  0  0  0  0  0  0  0  0
   35.1096   10.8865  -17.0530 C   0  0  0  0  0  0  0  0  0  0  0  0
   36.3918   11.3459  -16.8218 C   0  0  0  0  0  0  0  0  0  0  0  0
   36.6961   12.1385  -15.7408 C   0  0  0  0  0  0  0  0  0  0  0  0
   35.5850   13.8621  -12.7558 C   0  0  0  0  0  0  0  0  0  0  0  0
   34.5876   14.8469  -12.8135 N   0  0  0  0  0  0  0  0  0  0  0  0
   35.9284   13.4835  -11.5885 O   0  0  0  0  0  0  0  0  0  0  0  0
   33.5889   14.5601  -12.8834 H   0  0  0  0  0  0  0  0  0  0  0  0
   34.8360   15.8520  -12.7873 H   0  0  0  0  0  0  0  0  0  0  0  0
   43.6424   13.4926  -14.5181 C   0  0  0  0  0  0  0  0  0  0  0  0
   42.6593   13.1819  -15.1428 C   0  0  0  0  0  0  0  0  0  0  0  0
   45.1301   17.2125  -12.1079 C   0  0  0  0  0  0  0  0  0  0  0  0
   45.1120   15.8189  -12.4720 N   0  0  0  0  0  0  0  0  0  0  0  0
   45.1006   14.7156  -11.5541 C   0  0  0  0  0  0  0  0  0  0  0  0
   44.5060   13.5503  -12.2930 C   0  0  0  0  0  0  0  0  0  0  0  0
   44.8242   13.8647  -13.7380 C   0  0  0  0  0  0  0  0  0  0  0  0
   45.9531   13.1605  -14.1785 O   0  0  0  0  0  0  0  0  0  0  0  0
   45.1025   15.3165  -13.7884 C   0  0  0  0  0  0  0  0  0  0  0  0
   45.2951   15.9775  -14.8245 O   0  0  0  0  0  0  0  0  0  0  0  0
   46.1704   13.4618  -15.0782 H   0  0  0  0  0  0  0  0  0  0  0  0
 24 25  1  0  0  0
 25 26  1  0  0  0
 26 27  1  0  0  0
 27 28  1  0  0  0
 28 29  1  0  0  0
 28 22  1  0  0  0
 22 23  3  0  0  0
 23  1  1  0  0  0
  1  2  2  0  0  0
  2  3  1  0  0  0
  3  4  2  0  0  0
  4  5  1  0  0  0
  5  6  2  0  0  0
  5  7  1  0  0  0
  7  8  1  0  0  0
  8  9  2  0  0  0
  9 17  1  0  0  0
 17 18  1  0  0  0
 17 19  2  0  0  0
  9 10  1  0  0  0
 10 11  2  0  0  0
 11 12  1  0  0  0
 12 13  1  0  0  0
 12 14  2  0  0  0
 14 15  1  0  0  0
 15 16  2  0  0  0
 28 30  1  0  0  0
 30 31  2  0  0  0
 30 25  1  0  0  0
  6  1  1  0  0  0
 16  7  1  0  0  0
 16 10  1  0  0  0
 29 32  1  0  0  0
 18 20  1  0  0  0
 18 21  1  0  0  0
M  END
> <minimizedAffinity>
-9.53583

> <CNNscore>
0.5596481562

> <CNNaffinity>
6.7498612404

> <CNN_VS>
3.7775473595

> <CNNaffinity_variance>
0.0902023613

$$$$
[H]O[C@]1(C#Cc2c([H])c([H])c([H])c(-n3nc(C(=O)N([H])[H])c4c([H])c([H])c([H])c([H])c43)c2[H])C(=O)N(C([H])([H])[H])C([H])([H])C1([H])[H]


 31 34  0  0  0  0  0  0  0  0999 V2000
   35.7430   13.2689  -12.9975 C   0  0  0  0  0  0  0  0  0  0  0  0
   34.5360   12.7895  -13.4946 C   0  0  0  0  0  0  0  0  0  0  0  0
   34.4309   12.1697  -14.7211 C   0  0  0  0  0  0  0  0  0  0  0  0
   35.5529   12.0126  -15.4930 C   0  0  0  0  0  0  0  0  0  0  0  0
   36.7689   12.4693  -15.0460 C   0  0  0  0  0  0  0  0  0  0  0  0
   36.8402   13.0854  -13.8136 C   0  0  0  0  0  0  0  0  0  0  0  0
   37.9518   12.3062  -15.8548 N   0  0  0  0  0  0  0  0  0  0  0  0
   38.0342   11.7377  -17.0358 N   0  0  0  0  0  0  0  0  0  0  0  0
   39.3072   11.7618  -17.5032 C   0  0  0  0  0  0  0  0  0  0  0  0
   40.0732   12.3857  -16.5538 C   0  0  0  0  0  0  0  0  0  0  0  0
   41.4089   12.7046  -16.4513 C   0  0  0  0  0  0  0  0  0  0  0  0
   41.8837   13.3527  -15.3351 C   0  0  0  0  0  0  0  0  0  0  0  0
   40.9940   13.6687  -14.3365 C   0  0  0  0  0  0  0  0  0  0  0  0
   39.6611   13.3635  -14.4127 C   0  0  0  0  0  0  0  0  0  0  0  0
   39.1821   12.7150  -15.5279 C   0  0  0  0  0  0  0  0  0  0  0  0
   39.7663   11.2206  -18.7817 C   0  0  0  0  0  0  0  0  0  0  0  0
   38.9024   10.8783  -19.8399 N   0  0  0  0  0  0  0  0  0  0  0  0
   40.9997   11.0460  -18.9594 O   0  0  0  0  0  0  0  0  0  0  0  0
   38.4242    9.9429  -19.7930 H   0  0  0  0  0  0  0  0  0  0  0  0
   38.6969   11.4766  -20.6682 H   0  0  0  0  0  0  0  0  0  0  0  0
   35.8672   14.4446  -10.6313 C   0  0  0  0  0  0  0  0  0  0  0  0
   35.8213   13.9120  -11.7122 C   0  0  0  0  0  0  0  0  0  0  0  0
   38.2407   17.5080   -7.6306 C   0  0  0  0  0  0  0  0  0  0  0  0
   37.1794   16.7814   -8.3223 N   0  0  0  0  0  0  0  0  0  0  0  0
   35.8001   17.2301   -8.2940 C   0  0  0  0  0  0  0  0  0  0  0  0
   35.1171   16.4038   -9.3338 C   0  0  0  0  0  0  0  0  0  0  0  0
   35.8992   15.1072   -9.3054 C   0  0  0  0  0  0  0  0  0  0  0  0
   35.4796   14.2578   -8.3020 O   0  0  0  0  0  0  0  0  0  0  0  0
   37.2886   15.5908   -9.0934 C   0  0  0  0  0  0  0  0  0  0  0  0
   38.3774   15.1118   -9.4775 O   0  0  0  0  0  0  0  0  0  0  0  0
   35.7985   13.3480   -8.5328 H   0  0  0  0  0  0  0  0  0  0  0  0
 23 24  1  0  0  0
 24 25  1  0  0  0
 25 26  1  0  0  0
 26 27  1  0  0  0
 27 28  1  0  0  0
 27 21  1  0  0  0
 21 22  3  0  0  0
 22  1  1  0  0  0
  1  2  2  0  0  0
  2  3  1  0  0  0
  3  4  2  0  0  0
  4  5  1  0  0  0
  5  6  2  0  0  0
  5  7  1  0  0  0
  7  8  1  0  0  0
  8  9  2  0  0  0
  9 16  1  0  0  0
 16 17  1  0  0  0
 16 18  2  0  0  0
  9 10  1  0  0  0
 10 11  2  0  0  0
 11 12  1  0  0  0
 12 13  2  0  0  0
 13 14  1  0  0  0
 14 15  2  0  0  0
 27 29  1  0  0  0
 29 30  2  0  0  0
 29 24  1  0  0  0
  6  1  1  0  0  0
 15  7  1  0  0  0
 15 10  1  0  0  0
 28 31  1  0  0  0
 17 19  1  0  0  0
 17 20  1  0  0  0
M  END
> <minimizedAffinity>
-9.31813

> <CNNscore>
0.9358285069

> <CNNaffinity>
7.0913176537

> <CNN_VS>
6.6362571716

> <CNNaffinity_variance>
0.1663092077

$$$$
[H]O[C@]1(C#Cc2c([H])c([H])c([H])c(-n3nc(C(=O)N([H])[H])c4c([H])c([H])c([H])c([H])c43)c2[H])C(=O)N(C([H])([H])[H])C([H])([H])C1([H])[H]


 31 34  0  0  0  0  0  0  0  0999 V2000
   41.3029   12.4287  -16.4173 C   0  0  0  0  0  0  0  0  0  0  0  0
   41.4602   11.8659  -17.6791 C   0  0  0  0  0  0  0  0  0  0  0  0
   40.3964   11.4105  -18.4278 C   0  0  0  0  0  0  0  0  0  0  0  0
   39.1266   11.5098  -17.9209 C   0  0  0  0  0  0  0  0  0  0  0  0
   38.9191   12.0582  -16.6786 C   0  0  0  0  0  0  0  0  0  0  0  0
   40.0054   12.5047  -15.9546 C   0  0  0  0  0  0  0  0  0  0  0  0
   37.5849   12.1645  -16.1415 N   0  0  0  0  0  0  0  0  0  0  0  0
   36.5192   11.4996  -16.5246 N   0  0  0  0  0  0  0  0  0  0  0  0
   35.4319   11.8549  -15.7958 C   0  0  0  0  0  0  0  0  0  0  0  0
   35.8420   12.8044  -14.8972 C   0  0  0  0  0  0  0  0  0  0  0  0
   35.2140   13.5317  -13.9109 C   0  0  0  0  0  0  0  0  0  0  0  0
   35.9246   14.4359  -13.1566 C   0  0  0  0  0  0  0  0  0  0  0  0
   37.2657   14.5893  -13.4147 C   0  0  0  0  0  0  0  0  0  0  0  0
   37.9150   13.8790  -14.3891 C   0  0  0  0  0  0  0  0  0  0  0  0
   37.2075   12.9734  -15.1461 C   0  0  0  0  0  0  0  0  0  0  0  0
   34.0797   11.3195  -15.9481 C   0  0  0  0  0  0  0  0  0  0  0  0
   33.2185   11.0546  -14.8658 N   0  0  0  0  0  0  0  0  0  0  0  0
   33.6492   11.0773  -17.1054 O   0  0  0  0  0  0  0  0  0  0  0  0
   33.3518   10.1480  -14.3499 H   0  0  0  0  0  0  0  0  0  0  0  0
   32.4577   11.6842  -14.5324 H   0  0  0  0  0  0  0  0  0  0  0  0
   43.3901   13.2679  -15.0259 C   0  0  0  0  0  0  0  0  0  0  0  0
   42.4338   12.8956  -15.6590 C   0  0  0  0  0  0  0  0  0  0  0  0
   48.2476   13.9116  -14.9143 C   0  0  0  0  0  0  0  0  0  0  0  0
   46.8152   14.0865  -14.6901 N   0  0  0  0  0  0  0  0  0  0  0  0
   46.2652   15.3314  -14.1877 C   0  0  0  0  0  0  0  0  0  0  0  0
   44.7908   15.1934  -14.3812 C   0  0  0  0  0  0  0  0  0  0  0  0
   44.5669   13.7026  -14.2357 C   0  0  0  0  0  0  0  0  0  0  0  0
   44.4680   13.3083  -12.9170 O   0  0  0  0  0  0  0  0  0  0  0  0
   45.7711   13.1442  -14.9047 C   0  0  0  0  0  0  0  0  0  0  0  0
   45.9195   12.0792  -15.5421 O   0  0  0  0  0  0  0  0  0  0  0  0
   44.0247   12.4217  -12.9064 H   0  0  0  0  0  0  0  0  0  0  0  0
 23 24  1  0  0  0
 24 25  1  0  0  0
 25 26  1  0  0  0
 26 27  1  0  0  0
 27 28  1  0  0  0
 27 21  1  0  0  0
 21 22  3  0  0  0
 22  1  1  0  0  0
  1  2  2  0  0  0
  2  3  1  0  0  0
  3  4  2  0  0  0
  4  5  1  0  0  0
  5  6  2  0  0  0
  5  7  1  0  0  0
  7  8  1  0  0  0
  8  9  2  0  0  0
  9 16  1  0  0  0
 16 17  1  0  0  0
 16 18  2  0  0  0
  9 10  1  0  0  0
 10 11  2  0  0  0
 11 12  1  0  0  0
 12 13  2  0  0  0
 13 14  1  0  0  0
 14 15  2  0  0  0
 27 29  1  0  0  0
 29 30  2  0  0  0
 29 24  1  0  0  0
  6  1  1  0  0  0
 15  7  1  0  0  0
 15 10  1  0  0  0
 28 31  1  0  0  0
 17 19  1  0  0  0
 17 20  1  0  0  0
M  END
> <minimizedAffinity>
-9.53583

> <CNNscore>
0.6954630017

> <CNNaffinity>
6.6958312988

> <CNN_VS>
4.6567029953

> <CNNaffinity_variance>
0.0538112894

$$$$
[H]O[C@]1(C#Cc2c([H])c([H])c([H])c(-n3nc(C(=O)N([H])[H])c4c([H])c([H])c([H])c([H])c43)c2[H])C(=O)N(C([H])([H])[H])C([H])([H])C1([H])[H]


 31 34  0  0  0  0  0  0  0  0999 V2000
   41.0593   15.1330  -13.0893 C   0  0  0  0  0  0  0  0  0  0  0  0
   39.9932   15.5788  -12.3158 C   0  0  0  0  0  0  0  0  0  0  0  0
   38.6864   15.2281  -12.5783 C   0  0  0  0  0  0  0  0  0  0  0  0
   38.4116   14.4075  -13.6416 C   0  0  0  0  0  0  0  0  0  0  0  0
   39.4304   13.9407  -14.4359 C   0  0  0  0  0  0  0  0  0  0  0  0
   40.7276   14.3104  -14.1461 C   0  0  0  0  0  0  0  0  0  0  0  0
   39.1458   13.0773  -15.5555 N   0  0  0  0  0  0  0  0  0  0  0  0
   39.9586   12.7521  -16.5344 N   0  0  0  0  0  0  0  0  0  0  0  0
   39.3539   11.9178  -17.4164 C   0  0  0  0  0  0  0  0  0  0  0  0
   38.0790   11.7059  -16.9614 C   0  0  0  0  0  0  0  0  0  0  0  0
   37.0057   10.9703  -17.4119 C   0  0  0  0  0  0  0  0  0  0  0  0
   35.8246   10.9633  -16.7072 C   0  0  0  0  0  0  0  0  0  0  0  0
   35.7497   11.7047  -15.5525 C   0  0  0  0  0  0  0  0  0  0  0  0
   36.8016   12.4449  -15.0820 C   0  0  0  0  0  0  0  0  0  0  0  0
   37.9850   12.4545  -15.7842 C   0  0  0  0  0  0  0  0  0  0  0  0
   39.9576   11.3554  -18.6237 C   0  0  0  0  0  0  0  0  0  0  0  0
   39.2132   10.8930  -19.7260 N   0  0  0  0  0  0  0  0  0  0  0  0
   41.2114   11.2742  -18.6944 O   0  0  0  0  0  0  0  0  0  0  0  0
   38.8071    9.9248  -19.6659 H   0  0  0  0  0  0  0  0  0  0  0  0
   39.0307   11.4320  -20.5993 H   0  0  0  0  0  0  0  0  0  0  0  0
   43.5555   15.8262  -12.5555 C   0  0  0  0  0  0  0  0  0  0  0  0
   42.4139   15.5165  -12.7900 C   0  0  0  0  0  0  0  0  0  0  0  0
   47.6276   18.0395  -14.1496 C   0  0  0  0  0  0  0  0  0  0  0  0
   46.5659   17.5358  -13.2826 N   0  0  0  0  0  0  0  0  0  0  0  0
   46.3751   18.0379  -11.9350 C   0  0  0  0  0  0  0  0  0  0  0  0
   45.0486   17.4931  -11.5178 C   0  0  0  0  0  0  0  0  0  0  0  0
   44.9666   16.1828  -12.2727 C   0  0  0  0  0  0  0  0  0  0  0  0
   45.6309   15.1586  -11.6293 O   0  0  0  0  0  0  0  0  0  0  0  0
   45.5953   16.5369  -13.5722 C   0  0  0  0  0  0  0  0  0  0  0  0
   45.3755   16.0973  -14.7216 O   0  0  0  0  0  0  0  0  0  0  0  0
   45.2829   14.3054  -11.9948 H   0  0  0  0  0  0  0  0  0  0  0  0
 23 24  1  0  0  0
 24 25  1  0  0  0
 25 26  1  0  0  0
 26 27  1  0  0  0
 27 28  1  0  0  0
 27 21  1  0  0  0
 21 22  3  0  0  0
 22  1  1  0  0  0
  1  2  2  0  0  0
  2  3  1  0  0  0
  3  4  2  0  0  0
  4  5  1  0  0  0
  5  6  2  0  0  0
  5  7  1  0  0  0
  7  8  1  0  0  0
  8  9  2  0  0  0
  9 16  1  0  0  0
 16 17  1  0  0  0
 16 18  2  0  0  0
  9 10  1  0  0  0
 10 11  2  0  0  0
 11 12  1  0  0  0
 12 13  2  0  0  0
 13 14  1  0  0  0
 14 15  2  0  0  0
 27 29  1  0  0  0
 29 30  2  0  0  0
 29 24  1  0  0  0
  6  1  1  0  0  0
 15  7  1  0  0  0
 15 10  1  0  0  0
 28 31  1  0  0  0
 17 19  1  0  0  0
 17 20  1  0  0  0
M  END
> <minimizedAffinity>
-8.64763

> <CNNscore>
0.6656845212

> <CNNaffinity>
6.5473685265

> <CNN_VS>
4.3584818840

> <CNNaffinity_variance>
0.3433121443

$$$$
[H]O[C@]1(C#Cc2c([H])c([H])c([H])c(-n3nc(C(=O)N([H])[H])c4c([H])c([H])c([H])c([H])c43)c2[H])C(=O)N(C([H])([H])[H])C([H])([H])C1([H])[H]


 31 34  0  0  0  0  0  0  0  0999 V2000
   41.1067   12.2356  -16.8158 C   0  0  0  0  0  0  0  0  0  0  0  0
   41.1987   11.5863  -18.0420 C   0  0  0  0  0  0  0  0  0  0  0  0
   40.0986   11.0773  -18.6980 C   0  0  0  0  0  0  0  0  0  0  0  0
   38.8575   11.2090  -18.1307 C   0  0  0  0  0  0  0  0  0  0  0  0
   38.7145   11.8426  -16.9203 C   0  0  0  0  0  0  0  0  0  0  0  0
   39.8358   12.3410  -16.2896 C   0  0  0  0  0  0  0  0  0  0  0  0
   37.4108   11.9833  -16.3199 N   0  0  0  0  0  0  0  0  0  0  0  0
   36.3036   11.3715  -16.6728 N   0  0  0  0  0  0  0  0  0  0  0  0
   35.2648   11.7457  -15.8853 C   0  0  0  0  0  0  0  0  0  0  0  0
   35.7516   12.6512  -14.9796 C   0  0  0  0  0  0  0  0  0  0  0  0
   35.1974   13.3717  -13.9452 C   0  0  0  0  0  0  0  0  0  0  0  0
   35.9760   14.2247  -13.1986 C   0  0  0  0  0  0  0  0  0  0  0  0
   37.3093   14.3346  -13.5132 C   0  0  0  0  0  0  0  0  0  0  0  0
   37.8860   13.6300  -14.5362 C   0  0  0  0  0  0  0  0  0  0  0  0
   37.1103   12.7755  -15.2856 C   0  0  0  0  0  0  0  0  0  0  0  0
   33.8871   11.2671  -15.9908 C   0  0  0  0  0  0  0  0  0  0  0  0
   33.1038   10.8923  -14.8822 N   0  0  0  0  0  0  0  0  0  0  0  0
   33.3599   11.1804  -17.1301 O   0  0  0  0  0  0  0  0  0  0  0  0
   33.2451    9.9259  -14.4923 H   0  0  0  0  0  0  0  0  0  0  0  0
   32.3934   11.4948  -14.4144 H   0  0  0  0  0  0  0  0  0  0  0  0
   43.2588   13.1741  -15.5974 C   0  0  0  0  0  0  0  0  0  0  0  0
   42.2742   12.7570  -16.1548 C   0  0  0  0  0  0  0  0  0  0  0  0
   45.6187   13.6418  -11.3273 C   0  0  0  0  0  0  0  0  0  0  0  0
   45.3360   13.4549  -12.7478 N   0  0  0  0  0  0  0  0  0  0  0  0
   46.3272   12.9197  -13.6618 C   0  0  0  0  0  0  0  0  0  0  0  0
   45.5626   12.6224  -14.9098 C   0  0  0  0  0  0  0  0  0  0  0  0
   44.4671   13.6680  -14.8944 C   0  0  0  0  0  0  0  0  0  0  0  0
   44.8873   14.8825  -15.3972 O   0  0  0  0  0  0  0  0  0  0  0  0
   44.1310   13.7398  -13.4483 C   0  0  0  0  0  0  0  0  0  0  0  0
   43.0444   13.9910  -12.8837 O   0  0  0  0  0  0  0  0  0  0  0  0
   44.0763   15.3968  -15.6430 H   0  0  0  0  0  0  0  0  0  0  0  0
 23 24  1  0  0  0
 24 25  1  0  0  0
 25 26  1  0  0  0
 26 27  1  0  0  0
 27 28  1  0  0  0
 27 21  1  0  0  0
 21 22  3  0  0  0
 22  1  1  0  0  0
  1  2  2  0  0  0
  2  3  1  0  0  0
  3  4  2  0  0  0
  4  5  1  0  0  0
  5  6  2  0  0  0
  5  7  1  0  0  0
  7  8  1  0  0  0
  8  9  2  0  0  0
  9 16  1  0  0  0
 16 17  1  0  0  0
 16 18  2  0  0  0
  9 10  1  0  0  0
 10 11  2  0  0  0
 11 12  1  0  0  0
 12 13  2  0  0  0
 13 14  1  0  0  0
 14 15  2  0  0  0
 27 29  1  0  0  0
 29 30  2  0  0  0
 29 24  1  0  0  0
  6  1  1  0  0  0
 15  7  1  0  0  0
 15 10  1  0  0  0
 28 31  1  0  0  0
 17 19  1  0  0  0
 17 20  1  0  0  0
M  END
> <minimizedAffinity>
-9.83853

> <CNNscore>
0.6483445168

> <CNNaffinity>
6.7505006790

> <CNN_VS>
4.3766503334

> <CNNaffinity_variance>
0.0658945888

$$$$
[H]O[C@]1(C#Cc2c([H])c([H])c([H])c(-n3nc(C(=O)N([H])[H])c4c([H])c([H])c([H])c([H])c43)c2[H])C(=O)N(C([H])([H])[H])C([H])([H])C1([H])[H]


 31 34  0  0  0  0  0  0  0  0999 V2000
   42.5356   14.2038  -13.1974 C   0  0  0  0  0  0  0  0  0  0  0  0
   41.8504   15.2640  -12.6143 C   0  0  0  0  0  0  0  0  0  0  0  0
   40.5595   15.5971  -12.9641 C   0  0  0  0  0  0  0  0  0  0  0  0
   39.9127   14.8625  -13.9240 C   0  0  0  0  0  0  0  0  0  0  0  0
   40.5471   13.8053  -14.5297 C   0  0  0  0  0  0  0  0  0  0  0  0
   41.8393   13.4980  -14.1568 C   0  0  0  0  0  0  0  0  0  0  0  0
   39.8703   13.0299  -15.5400 N   0  0  0  0  0  0  0  0  0  0  0  0
   40.3688   12.5968  -16.6751 N   0  0  0  0  0  0  0  0  0  0  0  0
   39.4450   11.8981  -17.3809 C   0  0  0  0  0  0  0  0  0  0  0  0
   38.2921   11.8926  -16.6405 C   0  0  0  0  0  0  0  0  0  0  0  0
   37.0352   11.3595  -16.8197 C   0  0  0  0  0  0  0  0  0  0  0  0
   36.0645   11.5340  -15.8612 C   0  0  0  0  0  0  0  0  0  0  0  0
   36.3841   12.2488  -14.7317 C   0  0  0  0  0  0  0  0  0  0  0  0
   37.6258   12.7896  -14.5282 C   0  0  0  0  0  0  0  0  0  0  0  0
   38.5998   12.6172  -15.4849 C   0  0  0  0  0  0  0  0  0  0  0  0
   39.6503   11.2720  -18.6862 C   0  0  0  0  0  0  0  0  0  0  0  0
   38.6042   10.7718  -19.4854 N   0  0  0  0  0  0  0  0  0  0  0  0
   40.8224   11.1678  -19.1322 O   0  0  0  0  0  0  0  0  0  0  0  0
   38.2347    9.8139  -19.2577 H   0  0  0  0  0  0  0  0  0  0  0  0
   38.1643   11.2735  -20.2862 H   0  0  0  0  0  0  0  0  0  0  0  0
   45.0075   13.5888  -12.4845 C   0  0  0  0  0  0  0  0  0  0  0  0
   43.8838   13.8801  -12.8109 C   0  0  0  0  0  0  0  0  0  0  0  0
   47.8091   11.3261   -9.1599 C   0  0  0  0  0  0  0  0  0  0  0  0
   47.2923   11.8426  -10.4243 N   0  0  0  0  0  0  0  0  0  0  0  0
   47.7590   11.3424  -11.7036 C   0  0  0  0  0  0  0  0  0  0  0  0
   46.7959   11.9033  -12.6978 C   0  0  0  0  0  0  0  0  0  0  0  0
   46.3795   13.2148  -12.0651 C   0  0  0  0  0  0  0  0  0  0  0  0
   47.2810   14.2305  -12.3101 O   0  0  0  0  0  0  0  0  0  0  0  0
   46.3116   12.8535  -10.6249 C   0  0  0  0  0  0  0  0  0  0  0  0
   45.5771   13.2961   -9.7155 O   0  0  0  0  0  0  0  0  0  0  0  0
   46.8105   15.0881  -12.1490 H   0  0  0  0  0  0  0  0  0  0  0  0
 23 24  1  0  0  0
 24 25  1  0  0  0
 25 26  1  0  0  0
 26 27  1  0  0  0
 27 28  1  0  0  0
 27 21  1  0  0  0
 21 22  3  0  0  0
 22  1  1  0  0  0
  1  2  2  0  0  0
  2  3  1  0  0  0
  3  4  2  0  0  0
  4  5  1  0  0  0
  5  6  2  0  0  0
  5  7  1  0  0  0
  7  8  1  0  0  0
  8  9  2  0  0  0
  9 16  1  0  0  0
 16 17  1  0  0  0
 16 18  2  0  0  0
  9 10  1  0  0  0
 10 11  2  0  0  0
 11 12  1  0  0  0
 12 13  2  0  0  0
 13 14  1  0  0  0
 14 15  2  0  0  0
 27 29  1  0  0  0
 29 30  2  0  0  0
 29 24  1  0  0  0
  6  1  1  0  0  0
 15  7  1  0  0  0
 15 10  1  0  0  0
 28 31  1  0  0  0
 17 19  1  0  0  0
 17 20  1  0  0  0
M  END
> <minimizedAffinity>
-8.22118

> <CNNscore>
0.6297246218

> <CNNaffinity>
6.5075354576

> <CNN_VS>
4.0979552269

> <CNNaffinity_variance>
0.4830058217

$$$$
[H]O[C@]1(C#Cc2c([H])c([H])c([H])c(-n3nc(C(=O)N([H])[H])c4c([H])c([H])c([H])c([H])c43)c2[H])C(=O)N(C([H])([H])[H])C([H])([H])C1([H])[H]


 31 34  0  0  0  0  0  0  0  0999 V2000
   41.0593   12.4045  -16.5515 C   0  0  0  0  0  0  0  0  0  0  0  0
   40.9491   11.7263  -17.7605 C   0  0  0  0  0  0  0  0  0  0  0  0
   39.7455   11.2620  -18.2453 C   0  0  0  0  0  0  0  0  0  0  0  0
   38.6026   11.4697  -17.5173 C   0  0  0  0  0  0  0  0  0  0  0  0
   38.6593   12.1345  -16.3165 C   0  0  0  0  0  0  0  0  0  0  0  0
   39.8799   12.5866  -15.8592 C   0  0  0  0  0  0  0  0  0  0  0  0
   37.4595   12.3552  -15.5473 N   0  0  0  0  0  0  0  0  0  0  0  0
   37.3360   13.0792  -14.4586 N   0  0  0  0  0  0  0  0  0  0  0  0
   36.0591   13.0628  -14.0017 C   0  0  0  0  0  0  0  0  0  0  0  0
   35.3344   12.2775  -14.8592 C   0  0  0  0  0  0  0  0  0  0  0  0
   34.0157   11.8866  -14.9254 C   0  0  0  0  0  0  0  0  0  0  0  0
   33.5852   11.0672  -15.9426 C   0  0  0  0  0  0  0  0  0  0  0  0
   34.5014   10.6552  -16.8804 C   0  0  0  0  0  0  0  0  0  0  0  0
   35.8183   11.0289  -16.8384 C   0  0  0  0  0  0  0  0  0  0  0  0
   36.2530   11.8487  -15.8222 C   0  0  0  0  0  0  0  0  0  0  0  0
   35.5592   13.7563  -12.8153 C   0  0  0  0  0  0  0  0  0  0  0  0
   34.6799   14.8551  -12.8659 N   0  0  0  0  0  0  0  0  0  0  0  0
   35.9276   13.3593  -11.6795 O   0  0  0  0  0  0  0  0  0  0  0  0
   35.0967   15.8023  -13.0529 H   0  0  0  0  0  0  0  0  0  0  0  0
   33.6471   14.8077  -12.7331 H   0  0  0  0  0  0  0  0  0  0  0  0
   43.4044   13.2551  -15.6720 C   0  0  0  0  0  0  0  0  0  0  0  0
   42.3309   12.8777  -16.0712 C   0  0  0  0  0  0  0  0  0  0  0  0
   46.7400   12.9625  -12.0928 C   0  0  0  0  0  0  0  0  0  0  0  0
   46.1173   13.0825  -13.4084 N   0  0  0  0  0  0  0  0  0  0  0  0
   46.8695   12.8820  -14.6326 C   0  0  0  0  0  0  0  0  0  0  0  0
   45.8294   12.8043  -15.7015 C   0  0  0  0  0  0  0  0  0  0  0  0
   44.7274   13.6964  -15.1689 C   0  0  0  0  0  0  0  0  0  0  0  0
   44.9528   15.0317  -15.4339 O   0  0  0  0  0  0  0  0  0  0  0  0
   44.7633   13.3940  -13.7141 C   0  0  0  0  0  0  0  0  0  0  0  0
   43.8438   13.3911  -12.8673 O   0  0  0  0  0  0  0  0  0  0  0  0
   44.0838   15.5008  -15.3465 H   0  0  0  0  0  0  0  0  0  0  0  0
 23 24  1  0  0  0
 24 25  1  0  0  0
 25 26  1  0  0  0
 26 27  1  0  0  0
 27 28  1  0  0  0
 27 21  1  0  0  0
 21 22  3  0  0  0
 22  1  1  0  0  0
  1  2  2  0  0  0
  2  3  1  0  0  0
  3  4  2  0  0  0
  4  5  1  0  0  0
  5  6  2  0  0  0
  5  7  1  0  0  0
  7  8  1  0  0  0
  8  9  2  0  0  0
  9 16  1  0  0  0
 16 17  1  0  0  0
 16 18  2  0  0  0
  9 10  1  0  0  0
 10 11  2  0  0  0
 11 12  1  0  0  0
 12 13  2  0  0  0
 13 14  1  0  0  0
 14 15  2  0  0  0
 27 29  1  0  0  0
 29 30  2  0  0  0
 29 24  1  0  0  0
  6  1  1  0  0  0
 15  7  1  0  0  0
 15 10  1  0  0  0
 28 31  1  0  0  0
 17 19  1  0  0  0
 17 20  1  0  0  0
M  END
> <minimizedAffinity>
-10.56261

> <CNNscore>
0.6037943363

> <CNNaffinity>
6.5980391502

> <CNN_VS>
3.9838585854

> <CNNaffinity_variance>
0.0401005261

$$$$
[H]O[C@]1(C#Cc2c([H])c([H])c([H])c(-n3nc(C(=O)N([H])[H])c4c([H])c([H])c([H])c([H])c43)c2[H])C(=O)N(C([H])([H])[H])C([H])([H])C1([H])[H]


 31 34  0  0  0  0  0  0  0  0999 V2000
   35.8407   14.9506  -12.0592 C   0  0  0  0  0  0  0  0  0  0  0  0
   34.5153   14.7208  -12.4116 C   0  0  0  0  0  0  0  0  0  0  0  0
   34.1579   14.0021  -13.5320 C   0  0  0  0  0  0  0  0  0  0  0  0
   35.1377   13.4872  -14.3409 C   0  0  0  0  0  0  0  0  0  0  0  0
   36.4620   13.6870  -14.0355 C   0  0  0  0  0  0  0  0  0  0  0  0
   36.7863   14.4110  -12.9066 C   0  0  0  0  0  0  0  0  0  0  0  0
   37.4960   13.1472  -14.8836 N   0  0  0  0  0  0  0  0  0  0  0  0
   38.7804   13.4176  -14.8404 N   0  0  0  0  0  0  0  0  0  0  0  0
   39.4587   12.7263  -15.7899 C   0  0  0  0  0  0  0  0  0  0  0  0
   38.5403   11.9734  -16.4732 C   0  0  0  0  0  0  0  0  0  0  0  0
   38.6129   11.0857  -17.5234 C   0  0  0  0  0  0  0  0  0  0  0  0
   37.4748   10.4745  -17.9951 C   0  0  0  0  0  0  0  0  0  0  0  0
   36.2763   10.7736  -17.3927 C   0  0  0  0  0  0  0  0  0  0  0  0
   36.1758   11.6522  -16.3470 C   0  0  0  0  0  0  0  0  0  0  0  0
   37.3122   12.2659  -15.8721 C   0  0  0  0  0  0  0  0  0  0  0  0
   40.8999   12.7810  -16.0313 C   0  0  0  0  0  0  0  0  0  0  0  0
   41.5025   12.4054  -17.2474 N   0  0  0  0  0  0  0  0  0  0  0  0
   41.6552   13.1842  -15.1091 O   0  0  0  0  0  0  0  0  0  0  0  0
   41.6716   11.3802  -17.4092 H   0  0  0  0  0  0  0  0  0  0  0  0
   41.7958   13.0610  -18.0028 H   0  0  0  0  0  0  0  0  0  0  0  0
   36.4768   16.3531   -9.9086 C   0  0  0  0  0  0  0  0  0  0  0  0
   36.1829   15.7053  -10.8823 C   0  0  0  0  0  0  0  0  0  0  0  0
   37.6186   20.7830   -8.1495 C   0  0  0  0  0  0  0  0  0  0  0  0
   37.0926   19.4257   -8.2674 N   0  0  0  0  0  0  0  0  0  0  0  0
   36.0959   18.9083   -7.3489 C   0  0  0  0  0  0  0  0  0  0  0  0
   35.6309   17.6370   -7.9797 C   0  0  0  0  0  0  0  0  0  0  0  0
   36.8599   17.1571   -8.7233 C   0  0  0  0  0  0  0  0  0  0  0  0
   37.7390   16.4742   -7.9079 O   0  0  0  0  0  0  0  0  0  0  0  0
   37.4312   18.4330   -9.2285 C   0  0  0  0  0  0  0  0  0  0  0  0
   38.0839   18.6695  -10.2680 O   0  0  0  0  0  0  0  0  0  0  0  0
   38.3324   15.9399   -8.4954 H   0  0  0  0  0  0  0  0  0  0  0  0
 23 24  1  0  0  0
 24 25  1  0  0  0
 25 26  1  0  0  0
 26 27  1  0  0  0
 27 28  1  0  0  0
 27 21  1  0  0  0
 21 22  3  0  0  0
 22  1  1  0  0  0
  1  2  2  0  0  0
  2  3  1  0  0  0
  3  4  2  0  0  0
  4  5  1  0  0  0
  5  6  2  0  0  0
  5  7  1  0  0  0
  7  8  1  0  0  0
  8  9  2  0  0  0
  9 16  1  0  0  0
 16 17  1  0  0  0
 16 18  2  0  0  0
  9 10  1  0  0  0
 10 11  2  0  0  0
 11 12  1  0  0  0
 12 13  2  0  0  0
 13 14  1  0  0  0
 14 15  2  0  0  0
 27 29  1  0  0  0
 29 30  2  0  0  0
 29 24  1  0  0  0
  6  1  1  0  0  0
 15  7  1  0  0  0
 15 10  1  0  0  0
 28 31  1  0  0  0
 17 19  1  0  0  0
 17 20  1  0  0  0
M  END
> <minimizedAffinity>
-9.50519

> <CNNscore>
0.4947265983

> <CNNaffinity>
6.3615293503

> <CNN_VS>
3.1472177505

> <CNNaffinity_variance>
0.2590824962

$$$$
[H]O[C@]1(C#Cc2c([H])c([H])c([H])c(-n3nc(C(=O)N([H])[H])c4c([H])c([H])c([H])c([H])c43)c2[H])C(=O)N(C([H])([H])[H])C([H])([H])C1([H])[H]


 31 34  0  0  0  0  0  0  0  0999 V2000
   42.5294   14.3106  -13.4348 C   0  0  0  0  0  0  0  0  0  0  0  0
   41.9589   15.3515  -12.7103 C   0  0  0  0  0  0  0  0  0  0  0  0
   40.6175   15.6599  -12.7828 C   0  0  0  0  0  0  0  0  0  0  0  0
   39.8008   14.9193  -13.5978 C   0  0  0  0  0  0  0  0  0  0  0  0
   40.3169   13.8806  -14.3338 C   0  0  0  0  0  0  0  0  0  0  0  0
   41.6639   13.5978  -14.2387 C   0  0  0  0  0  0  0  0  0  0  0  0
   39.4614   13.0990  -15.1924 N   0  0  0  0  0  0  0  0  0  0  0  0
   39.8032   12.4672  -16.2918 N   0  0  0  0  0  0  0  0  0  0  0  0
   38.7387   11.8329  -16.8433 C   0  0  0  0  0  0  0  0  0  0  0  0
   37.6590   12.0831  -16.0377 C   0  0  0  0  0  0  0  0  0  0  0  0
   36.3305   11.7220  -16.0684 C   0  0  0  0  0  0  0  0  0  0  0  0
   35.4728   12.1480  -15.0813 C   0  0  0  0  0  0  0  0  0  0  0  0
   35.9770   12.9363  -14.0747 C   0  0  0  0  0  0  0  0  0  0  0  0
   37.2934   13.3100  -14.0200 C   0  0  0  0  0  0  0  0  0  0  0  0
   38.1548   12.8858  -15.0058 C   0  0  0  0  0  0  0  0  0  0  0  0
   38.7510   11.0344  -18.0682 C   0  0  0  0  0  0  0  0  0  0  0  0
   39.8300   11.0089  -18.9727 N   0  0  0  0  0  0  0  0  0  0  0  0
   37.7475   10.3259  -18.3413 O   0  0  0  0  0  0  0  0  0  0  0  0
   39.8985   11.7940  -19.6690 H   0  0  0  0  0  0  0  0  0  0  0  0
   40.5687   10.2745  -19.0097 H   0  0  0  0  0  0  0  0  0  0  0  0
   45.1064   13.7449  -13.2470 C   0  0  0  0  0  0  0  0  0  0  0  0
   43.9342   14.0125  -13.3381 C   0  0  0  0  0  0  0  0  0  0  0  0
   49.3587   12.9049  -15.5349 C   0  0  0  0  0  0  0  0  0  0  0  0
   48.3695   13.3330  -14.5496 N   0  0  0  0  0  0  0  0  0  0  0  0
   48.6950   14.2788  -13.4988 C   0  0  0  0  0  0  0  0  0  0  0  0
   47.3737   14.6583  -12.9154 C   0  0  0  0  0  0  0  0  0  0  0  0
   46.5436   13.4068  -13.1112 C   0  0  0  0  0  0  0  0  0  0  0  0
   46.7544   12.4711  -12.1191 O   0  0  0  0  0  0  0  0  0  0  0  0
   47.0078   12.9351  -14.4421 C   0  0  0  0  0  0  0  0  0  0  0  0
   46.3952   12.3135  -15.3370 O   0  0  0  0  0  0  0  0  0  0  0  0
   45.9837   11.8477  -12.1325 H   0  0  0  0  0  0  0  0  0  0  0  0
 23 24  1  0  0  0
 24 25  1  0  0  0
 25 26  1  0  0  0
 26 27  1  0  0  0
 27 28  1  0  0  0
 27 21  1  0  0  0
 21 22  3  0  0  0
 22  1  1  0  0  0
  1  2  2  0  0  0
  2  3  1  0  0  0
  3  4  2  0  0  0
  4  5  1  0  0  0
  5  6  2  0  0  0
  5  7  1  0  0  0
  7  8  1  0  0  0
  8  9  2  0  0  0
  9 16  1  0  0  0
 16 17  1  0  0  0
 16 18  2  0  0  0
  9 10  1  0  0  0
 10 11  2  0  0  0
 11 12  1  0  0  0
 12 13  2  0  0  0
 13 14  1  0  0  0
 14 15  2  0  0  0
 27 29  1  0  0  0
 29 30  2  0  0  0
 29 24  1  0  0  0
  6  1  1  0  0  0
 15  7  1  0  0  0
 15 10  1  0  0  0
 28 31  1  0  0  0
 17 19  1  0  0  0
 17 20  1  0  0  0
M  END
> <minimizedAffinity>
-8.36371

> <CNNscore>
0.4901011586

> <CNNaffinity>
6.2899408340

> <CNN_VS>
3.0827074051

> <CNNaffinity_variance>
0.2142271101

$$$$
[H]O[C@]1(C#Cc2c([H])c([H])c([H])c(-n3nc(C(=O)N([H])[H])c4c([H])c([H])c([H])c([H])c43)c2[H])C(=O)N(C([H])([H])[H])C([H])([H])C1([H])[H]


 31 34  0  0  0  0  0  0  0  0999 V2000
   41.0630   14.2507  -13.9640 C   0  0  0  0  0  0  0  0  0  0  0  0
   40.7232   15.1693  -12.9768 C   0  0  0  0  0  0  0  0  0  0  0  0
   39.4193   15.4046  -12.5974 C   0  0  0  0  0  0  0  0  0  0  0  0
   38.4061   14.7127  -13.2091 C   0  0  0  0  0  0  0  0  0  0  0  0
   38.6904   13.7944  -14.1904 C   0  0  0  0  0  0  0  0  0  0  0  0
   40.0062   13.5822  -14.5470 C   0  0  0  0  0  0  0  0  0  0  0  0
   37.6277   13.0643  -14.8366 N   0  0  0  0  0  0  0  0  0  0  0  0
   36.3527   13.0733  -14.5223 N   0  0  0  0  0  0  0  0  0  0  0  0
   35.6393   12.2661  -15.3464 C   0  0  0  0  0  0  0  0  0  0  0  0
   36.5243   11.7149  -16.2354 C   0  0  0  0  0  0  0  0  0  0  0  0
   36.4090   10.8364  -17.2896 C   0  0  0  0  0  0  0  0  0  0  0  0
   37.5211   10.4666  -18.0092 C   0  0  0  0  0  0  0  0  0  0  0  0
   38.7372   10.9949  -17.6479 C   0  0  0  0  0  0  0  0  0  0  0  0
   38.8801   11.8702  -16.6044 C   0  0  0  0  0  0  0  0  0  0  0  0
   37.7698   12.2428  -15.8818 C   0  0  0  0  0  0  0  0  0  0  0  0
   34.1967   12.0341  -15.2890 C   0  0  0  0  0  0  0  0  0  0  0  0
   33.3246   12.7459  -14.4428 N   0  0  0  0  0  0  0  0  0  0  0  0
   33.6935   11.1519  -16.0319 O   0  0  0  0  0  0  0  0  0  0  0  0
   33.2576   12.4333  -13.4410 H   0  0  0  0  0  0  0  0  0  0  0  0
   32.7382   13.5592  -14.7277 H   0  0  0  0  0  0  0  0  0  0  0  0
   43.5773   13.8232  -14.6653 C   0  0  0  0  0  0  0  0  0  0  0  0
   42.4345   14.0267  -14.3387 C   0  0  0  0  0  0  0  0  0  0  0  0
   48.2879   15.1201  -14.2772 C   0  0  0  0  0  0  0  0  0  0  0  0
   47.0698   14.3261  -14.4134 N   0  0  0  0  0  0  0  0  0  0  0  0
   47.0605   12.8933  -14.1866 C   0  0  0  0  0  0  0  0  0  0  0  0
   45.6122   12.5321  -14.1389 C   0  0  0  0  0  0  0  0  0  0  0  0
   44.9779   13.5477  -15.0662 C   0  0  0  0  0  0  0  0  0  0  0  0
   45.0639   13.1792  -16.3933 O   0  0  0  0  0  0  0  0  0  0  0  0
   45.7657   14.7719  -14.7664 C   0  0  0  0  0  0  0  0  0  0  0  0
   45.4291   15.9754  -14.7943 O   0  0  0  0  0  0  0  0  0  0  0  0
   44.3830   13.7015  -16.8895 H   0  0  0  0  0  0  0  0  0  0  0  0
 23 24  1  0  0  0
 24 25  1  0  0  0
 25 26  1  0  0  0
 26 27  1  0  0  0
 27 28  1  0  0  0
 27 21  1  0  0  0
 21 22  3  0  0  0
 22  1  1  0  0  0
  1  2  2  0  0  0
  2  3  1  0  0  0
  3  4  2  0  0  0
  4  5  1  0  0  0
  5  6  2  0  0  0
  5  7  1  0  0  0
  7  8  1  0  0  0
  8  9  2  0  0  0
  9 16  1  0  0  0
 16 17  1  0  0  0
 16 18  2  0  0  0
  9 10  1  0  0  0
 10 11  2  0  0  0
 11 12  1  0  0  0
 12 13  2  0  0  0
 13 14  1  0  0  0
 14 15  2  0  0  0
 27 29  1  0  0  0
 29 30  2  0  0  0
 29 24  1  0  0  0
  6  1  1  0  0  0
 15  7  1  0  0  0
 15 10  1  0  0  0
 28 31  1  0  0  0
 17 19  1  0  0  0
 17 20  1  0  0  0
M  END
> <minimizedAffinity>
-9.44913

> <CNNscore>
0.4899642169

> <CNNaffinity>
6.4551763535

> <CNN_VS>
3.1628053188

> <CNNaffinity_variance>
0.0725756064

$$$$
[H]OC(C#Cc1c([H])c2c(c([H])c1F)OC([H])([H])C([H])([H])n1c-2nc(C(=O)N([H])[H])c1[H])(c1noc(C([H])([H])C#N)c1[H])C([H])([H])[H]


 34 37  0  0  0  0  0  0  0  0999 V2000
   41.0006   12.9154  -15.5238 C   0  0  0  0  0  0  0  0  0  0  0  0
   39.6185   12.8413  -15.3181 C   0  0  0  0  0  0  0  0  0  0  0  0
   38.8753   12.2317  -16.2969 C   0  0  0  0  0  0  0  0  0  0  0  0
   37.4560   12.2275  -15.9378 C   0  0  0  0  0  0  0  0  0  0  0  0
   36.8449   13.0776  -15.0983 N   0  0  0  0  0  0  0  0  0  0  0  0
   35.5110   12.7795  -15.0132 C   0  0  0  0  0  0  0  0  0  0  0  0
   35.3165   11.6939  -15.8496 C   0  0  0  0  0  0  0  0  0  0  0  0
   36.5020   11.3840  -16.3937 N   0  0  0  0  0  0  0  0  0  0  0  0
   36.7559   10.2835  -17.3313 C   0  0  0  0  0  0  0  0  0  0  0  0
   37.3767   10.7613  -18.6204 C   0  0  0  0  0  0  0  0  0  0  0  0
   38.7649   11.0601  -18.4956 O   0  0  0  0  0  0  0  0  0  0  0  0
   39.4356   11.7019  -17.4473 C   0  0  0  0  0  0  0  0  0  0  0  0
   40.7985   11.7937  -17.6176 C   0  0  0  0  0  0  0  0  0  0  0  0
   41.5968   12.4034  -16.6559 C   0  0  0  0  0  0  0  0  0  0  0  0
   42.9579   12.4796  -16.8214 F   0  0  0  0  0  0  0  0  0  0  0  0
   34.5065   13.4503  -14.2271 C   0  0  0  0  0  0  0  0  0  0  0  0
   33.6937   14.4638  -14.7803 N   0  0  0  0  0  0  0  0  0  0  0  0
   34.3394   13.1362  -13.0279 O   0  0  0  0  0  0  0  0  0  0  0  0
   32.6939   14.5344  -14.5600 H   0  0  0  0  0  0  0  0  0  0  0  0
   34.1436   15.1600  -15.4179 H   0  0  0  0  0  0  0  0  0  0  0  0
   42.4629   14.0393  -13.6268 C   0  0  0  0  0  0  0  0  0  0  0  0
   41.7954   13.5456  -14.5041 C   0  0  0  0  0  0  0  0  0  0  0  0
   44.1102   13.5327  -11.8937 C   0  0  0  0  0  0  0  0  0  0  0  0
   43.2499   14.6176  -12.5450 C   0  0  0  0  0  0  0  0  0  0  0  0
   42.3448   15.0312  -11.5408 O   0  0  0  0  0  0  0  0  0  0  0  0
   41.5478   14.4317  -11.5178 H   0  0  0  0  0  0  0  0  0  0  0  0
   44.0845   15.7572  -12.9786 C   0  0  0  0  0  0  0  0  0  0  0  0
   44.2074   16.9975  -12.3808 C   0  0  0  0  0  0  0  0  0  0  0  0
   45.1021   17.7461  -13.1485 C   0  0  0  0  0  0  0  0  0  0  0  0
   45.4640   16.9539  -14.1368 O   0  0  0  0  0  0  0  0  0  0  0  0
   44.8906   15.7974  -14.0601 N   0  0  0  0  0  0  0  0  0  0  0  0
   45.5224   19.1226  -12.8752 C   0  0  0  0  0  0  0  0  0  0  0  0
   44.5066   20.0635  -13.3875 C   0  0  0  0  0  0  0  0  0  0  0  0
   43.7287   20.7942  -13.8108 N   0  0  0  0  0  0  0  0  0  0  0  0
 23 24  1  0  0  0
 24 25  1  0  0  0
 24 21  1  0  0  0
 21 22  3  0  0  0
 22  1  1  0  0  0
  1  2  2  0  0  0
  2  3  1  0  0  0
  3  4  1  0  0  0
  4  5  2  0  0  0
  5  6  1  0  0  0
  6  7  2  0  0  0
  7  8  1  0  0  0
  8  9  1  0  0  0
  9 10  1  0  0  0
 10 11  1  0  0  0
 11 12  1  0  0  0
 12 13  1  0  0  0
 13 14  2  0  0  0
 14 15  1  0  0  0
  6 16  1  0  0  0
 16 17  1  0  0  0
 16 18  2  0  0  0
 24 27  1  0  0  0
 27 28  1  0  0  0
 28 29  2  0  0  0
 29 32  1  0  0  0
 32 33  1  0  0  0
 33 34  3  0  0  0
 29 30  1  0  0  0
 30 31  1  0  0  0
 14  1  1  0  0  0
 31 27  2  0  0  0
 12  3  2  0  0  0
  8  4  1  0  0  0
 25 26  1  0  0  0
 17 19  1  0  0  0
 17 20  1  0  0  0
M  END
> <minimizedAffinity>
-9.60765

> <CNNscore>
0.4420040846

> <CNNaffinity>
7.0495009422

> <CNN_VS>
3.1159081459

> <CNNaffinity_variance>
0.1409677714

$$$$
[H]OC(C#Cc1c([H])c2c(c([H])c1F)OC([H])([H])C([H])([H])n1c-2nc(C(=O)N([H])[H])c1[H])(c1noc(C([H])([H])C#N)c1[H])C([H])([H])[H]


 34 37  0  0  0  0  0  0  0  0999 V2000
   41.0117   12.9234  -15.4531 C   0  0  0  0  0  0  0  0  0  0  0  0
   39.6275   12.8152  -15.2787 C   0  0  0  0  0  0  0  0  0  0  0  0
   38.9173   12.2199  -16.2903 C   0  0  0  0  0  0  0  0  0  0  0  0
   37.4914   12.1762  -15.9613 C   0  0  0  0  0  0  0  0  0  0  0  0
   36.8457   12.9884  -15.1103 N   0  0  0  0  0  0  0  0  0  0  0  0
   35.5169   12.6609  -15.0620 C   0  0  0  0  0  0  0  0  0  0  0  0
   35.3622   11.5968  -15.9336 C   0  0  0  0  0  0  0  0  0  0  0  0
   36.5647   11.3273  -16.4616 N   0  0  0  0  0  0  0  0  0  0  0  0
   36.8607   10.2605  -17.4254 C   0  0  0  0  0  0  0  0  0  0  0  0
   37.4975   10.7889  -18.6866 C   0  0  0  0  0  0  0  0  0  0  0  0
   38.8763   11.1120  -18.5241 O   0  0  0  0  0  0  0  0  0  0  0  0
   39.5119   11.7359  -17.4437 C   0  0  0  0  0  0  0  0  0  0  0  0
   40.8758   11.8604  -17.5826 C   0  0  0  0  0  0  0  0  0  0  0  0
   41.6414   12.4575  -16.5869 C   0  0  0  0  0  0  0  0  0  0  0  0
   43.0037   12.5661  -16.7216 F   0  0  0  0  0  0  0  0  0  0  0  0
   34.4827   13.2875  -14.2778 C   0  0  0  0  0  0  0  0  0  0  0  0
   33.8941   14.5079  -14.6756 N   0  0  0  0  0  0  0  0  0  0  0  0
   34.0875   12.7483  -13.2207 O   0  0  0  0  0  0  0  0  0  0  0  0
   32.8869   14.6784  -14.5783 H   0  0  0  0  0  0  0  0  0  0  0  0
   34.5196   15.2505  -15.0642 H   0  0  0  0  0  0  0  0  0  0  0  0
   42.4419   14.0616  -13.5403 C   0  0  0  0  0  0  0  0  0  0  0  0
   41.7721   13.5391  -14.3990 C   0  0  0  0  0  0  0  0  0  0  0  0
   43.8749   13.5917  -11.6168 C   0  0  0  0  0  0  0  0  0  0  0  0
   43.2778   14.6758  -12.5164 C   0  0  0  0  0  0  0  0  0  0  0  0
   42.4278   15.4326  -11.6777 O   0  0  0  0  0  0  0  0  0  0  0  0
   41.5275   15.0076  -11.6147 H   0  0  0  0  0  0  0  0  0  0  0  0
   44.3408   15.5373  -13.0740 C   0  0  0  0  0  0  0  0  0  0  0  0
   45.5753   15.1552  -13.5649 C   0  0  0  0  0  0  0  0  0  0  0  0
   46.2393   16.3128  -13.9766 C   0  0  0  0  0  0  0  0  0  0  0  0
   45.4073   17.3025  -13.7247 O   0  0  0  0  0  0  0  0  0  0  0  0
   44.3017   16.8799  -13.2040 N   0  0  0  0  0  0  0  0  0  0  0  0
   47.5812   16.3687  -14.5616 C   0  0  0  0  0  0  0  0  0  0  0  0
   47.6671   17.5046  -15.5009 C   0  0  0  0  0  0  0  0  0  0  0  0
   47.7335   18.3699  -16.2525 N   0  0  0  0  0  0  0  0  0  0  0  0
 23 24  1  0  0  0
 24 25  1  0  0  0
 24 21  1  0  0  0
 21 22  3  0  0  0
 22  1  1  0  0  0
  1  2  2  0  0  0
  2  3  1  0  0  0
  3  4  1  0  0  0
  4  5  2  0  0  0
  5  6  1  0  0  0
  6  7  2  0  0  0
  7  8  1  0  0  0
  8  9  1  0  0  0
  9 10  1  0  0  0
 10 11  1  0  0  0
 11 12  1  0  0  0
 12 13  1  0  0  0
 13 14  2  0  0  0
 14 15  1  0  0  0
  6 16  1  0  0  0
 16 17  1  0  0  0
 16 18  2  0  0  0
 24 27  1  0  0  0
 27 28  1  0  0  0
 28 29  2  0  0  0
 29 32  1  0  0  0
 32 33  1  0  0  0
 33 34  3  0  0  0
 29 30  1  0  0  0
 30 31  1  0  0  0
 14  1  1  0  0  0
 31 27  2  0  0  0
 12  3  2  0  0  0
  8  4  1  0  0  0
 25 26  1  0  0  0
 17 19  1  0  0  0
 17 20  1  0  0  0
M  END
> <minimizedAffinity>
-8.81295

> <CNNscore>
0.3735424578

> <CNNaffinity>
6.9414854050

> <CNN_VS>
2.5929396152

> <CNNaffinity_variance>
0.1692104042

$$$$
[H]OC(C#Cc1c([H])c2c(c([H])c1F)OC([H])([H])C([H])([H])n1c-2nc(C(=O)N([H])[H])c1[H])(c1noc(C([H])([H])C#N)c1[H])C([H])([H])[H]


 34 37  0  0  0  0  0  0  0  0999 V2000
   36.8630   13.6824  -13.0683 C   0  0  0  0  0  0  0  0  0  0  0  0
   37.3987   13.1977  -14.2667 C   0  0  0  0  0  0  0  0  0  0  0  0
   36.6185   12.3341  -14.9930 C   0  0  0  0  0  0  0  0  0  0  0  0
   37.3096   11.9205  -16.2156 C   0  0  0  0  0  0  0  0  0  0  0  0
   38.6362   11.9176  -16.4178 N   0  0  0  0  0  0  0  0  0  0  0  0
   38.9208   11.4561  -17.6753 C   0  0  0  0  0  0  0  0  0  0  0  0
   37.6968   11.1661  -18.2529 C   0  0  0  0  0  0  0  0  0  0  0  0
   36.7457   11.4531  -17.3527 N   0  0  0  0  0  0  0  0  0  0  0  0
   35.2990   11.3099  -17.5557 C   0  0  0  0  0  0  0  0  0  0  0  0
   34.6600   10.4233  -16.5159 C   0  0  0  0  0  0  0  0  0  0  0  0
   34.4839   11.0724  -15.2591 O   0  0  0  0  0  0  0  0  0  0  0  0
   35.3537   11.9408  -14.5884 C   0  0  0  0  0  0  0  0  0  0  0  0
   34.8586   12.4361  -13.4032 C   0  0  0  0  0  0  0  0  0  0  0  0
   35.6102   13.3133  -12.6288 C   0  0  0  0  0  0  0  0  0  0  0  0
   35.1073   13.8178  -11.4548 F   0  0  0  0  0  0  0  0  0  0  0  0
   40.2180   11.2945  -18.2821 C   0  0  0  0  0  0  0  0  0  0  0  0
   41.3788   11.8458  -17.6968 N   0  0  0  0  0  0  0  0  0  0  0  0
   40.3324   10.6526  -19.3495 O   0  0  0  0  0  0  0  0  0  0  0  0
   42.2684   11.3347  -17.6773 H   0  0  0  0  0  0  0  0  0  0  0  0
   41.3139   12.8072  -17.2903 H   0  0  0  0  0  0  0  0  0  0  0  0
   38.3714   15.3339  -11.6550 C   0  0  0  0  0  0  0  0  0  0  0  0
   37.6655   14.5940  -12.2978 C   0  0  0  0  0  0  0  0  0  0  0  0
   39.3214   15.6759   -9.4292 C   0  0  0  0  0  0  0  0  0  0  0  0
   39.2376   16.1994  -10.8645 C   0  0  0  0  0  0  0  0  0  0  0  0
   38.6002   17.4576  -10.7679 O   0  0  0  0  0  0  0  0  0  0  0  0
   37.6085   17.3495  -10.7636 H   0  0  0  0  0  0  0  0  0  0  0  0
   40.5877   16.3560  -11.4441 C   0  0  0  0  0  0  0  0  0  0  0  0
   41.8059   16.0927  -10.8462 C   0  0  0  0  0  0  0  0  0  0  0  0
   42.8032   16.3959  -11.7756 C   0  0  0  0  0  0  0  0  0  0  0  0
   42.1658   16.8128  -12.8504 O   0  0  0  0  0  0  0  0  0  0  0  0
   40.8835   16.7974  -12.6846 N   0  0  0  0  0  0  0  0  0  0  0  0
   44.2459   16.2633  -11.5582 C   0  0  0  0  0  0  0  0  0  0  0  0
   44.6551   14.8620  -11.7792 C   0  0  0  0  0  0  0  0  0  0  0  0
   44.9983   13.7813  -11.9590 N   0  0  0  0  0  0  0  0  0  0  0  0
 23 24  1  0  0  0
 24 25  1  0  0  0
 24 21  1  0  0  0
 21 22  3  0  0  0
 22  1  1  0  0  0
  1  2  2  0  0  0
  2  3  1  0  0  0
  3  4  1  0  0  0
  4  5  2  0  0  0
  5  6  1  0  0  0
  6  7  2  0  0  0
  7  8  1  0  0  0
  8  9  1  0  0  0
  9 10  1  0  0  0
 10 11  1  0  0  0
 11 12  1  0  0  0
 12 13  1  0  0  0
 13 14  2  0  0  0
 14 15  1  0  0  0
  6 16  1  0  0  0
 16 17  1  0  0  0
 16 18  2  0  0  0
 24 27  1  0  0  0
 27 28  1  0  0  0
 28 29  2  0  0  0
 29 32  1  0  0  0
 32 33  1  0  0  0
 33 34  3  0  0  0
 29 30  1  0  0  0
 30 31  1  0  0  0
 14  1  1  0  0  0
 31 27  2  0  0  0
 12  3  2  0  0  0
  8  4  1  0  0  0
 25 26  1  0  0  0
 17 19  1  0  0  0
 17 20  1  0  0  0
M  END
> <minimizedAffinity>
-8.25500

> <CNNscore>
0.3657444417

> <CNNaffinity>
6.8831815720

> <CNN_VS>
2.5174853802

> <CNNaffinity_variance>
0.0490860119

$$$$
[H]OC(C#Cc1c([H])c2c(c([H])c1F)OC([H])([H])C([H])([H])n1c-2nc(C(=O)N([H])[H])c1[H])(c1noc(C([H])([H])C#N)c1[H])C([H])([H])[H]


 34 37  0  0  0  0  0  0  0  0999 V2000
   36.3346   12.9730  -14.5485 C   0  0  0  0  0  0  0  0  0  0  0  0
   37.6357   12.9113  -15.0599 C   0  0  0  0  0  0  0  0  0  0  0  0
   37.8365   12.1106  -16.1556 C   0  0  0  0  0  0  0  0  0  0  0  0
   39.2387   12.1535  -16.5742 C   0  0  0  0  0  0  0  0  0  0  0  0
   40.2906   12.4669  -15.8021 N   0  0  0  0  0  0  0  0  0  0  0  0
   41.4487   12.3910  -16.5290 C   0  0  0  0  0  0  0  0  0  0  0  0
   41.0659   12.0092  -17.8032 C   0  0  0  0  0  0  0  0  0  0  0  0
   39.7323   11.8719  -17.8017 N   0  0  0  0  0  0  0  0  0  0  0  0
   38.9059   11.4938  -18.9544 C   0  0  0  0  0  0  0  0  0  0  0  0
   38.0653   10.2717  -18.6800 C   0  0  0  0  0  0  0  0  0  0  0  0
   36.9242   10.5478  -17.8715 O   0  0  0  0  0  0  0  0  0  0  0  0
   36.8200   11.3845  -16.7537 C   0  0  0  0  0  0  0  0  0  0  0  0
   35.5524   11.4677  -16.2233 C   0  0  0  0  0  0  0  0  0  0  0  0
   35.2962   12.2639  -15.1123 C   0  0  0  0  0  0  0  0  0  0  0  0
   34.0275   12.3569  -14.5951 F   0  0  0  0  0  0  0  0  0  0  0  0
   42.7925   12.6458  -16.0749 C   0  0  0  0  0  0  0  0  0  0  0  0
   43.0495   13.4856  -14.9690 N   0  0  0  0  0  0  0  0  0  0  0  0
   43.7613   12.1166  -16.6631 O   0  0  0  0  0  0  0  0  0  0  0  0
   43.7693   13.2578  -14.2740 H   0  0  0  0  0  0  0  0  0  0  0  0
   42.4911   14.3654  -14.8810 H   0  0  0  0  0  0  0  0  0  0  0  0
   35.8737   14.5063  -12.4421 C   0  0  0  0  0  0  0  0  0  0  0  0
   36.1055   13.8131  -13.4038 C   0  0  0  0  0  0  0  0  0  0  0  0
   36.2125   16.7246  -11.4736 C   0  0  0  0  0  0  0  0  0  0  0  0
   35.5634   15.3505  -11.2953 C   0  0  0  0  0  0  0  0  0  0  0  0
   36.1983   14.7795  -10.1686 O   0  0  0  0  0  0  0  0  0  0  0  0
   37.0476   14.3290  -10.4347 H   0  0  0  0  0  0  0  0  0  0  0  0
   34.1129   15.4850  -11.0483 C   0  0  0  0  0  0  0  0  0  0  0  0
   33.4778   15.8017   -9.8621 C   0  0  0  0  0  0  0  0  0  0  0  0
   32.1036   15.8072  -10.1108 C   0  0  0  0  0  0  0  0  0  0  0  0
   31.9770   15.5049  -11.3866 O   0  0  0  0  0  0  0  0  0  0  0  0
   33.1247   15.3154  -11.9515 N   0  0  0  0  0  0  0  0  0  0  0  0
   31.0561   16.0948   -9.1279 C   0  0  0  0  0  0  0  0  0  0  0  0
   30.2024   14.9037   -8.9483 C   0  0  0  0  0  0  0  0  0  0  0  0
   29.5217   13.9869   -8.8286 N   0  0  0  0  0  0  0  0  0  0  0  0
 23 24  1  0  0  0
 24 25  1  0  0  0
 24 21  1  0  0  0
 21 22  3  0  0  0
 22  1  1  0  0  0
  1  2  2  0  0  0
  2  3  1  0  0  0
  3  4  1  0  0  0
  4  5  2  0  0  0
  5  6  1  0  0  0
  6  7  2  0  0  0
  7  8  1  0  0  0
  8  9  1  0  0  0
  9 10  1  0  0  0
 10 11  1  0  0  0
 11 12  1  0  0  0
 12 13  1  0  0  0
 13 14  2  0  0  0
 14 15  1  0  0  0
  6 16  1  0  0  0
 16 17  1  0  0  0
 16 18  2  0  0  0
 24 27  1  0  0  0
 27 28  1  0  0  0
 28 29  2  0  0  0
 29 32  1  0  0  0
 32 33  1  0  0  0
 33 34  3  0  0  0
 29 30  1  0  0  0
 30 31  1  0  0  0
 14  1  1  0  0  0
 31 27  2  0  0  0
 12  3  2  0  0  0
  8  4  1  0  0  0
 25 26  1  0  0  0
 17 19  1  0  0  0
 17 20  1  0  0  0
M  END
> <minimizedAffinity>
-8.54212

> <CNNscore>
0.3367316723

> <CNNaffinity>
6.8748207092

> <CNN_VS>
2.3149697781

> <CNNaffinity_variance>
0.1073586941

$$$$
[H]OC(C#Cc1c([H])c2c(c([H])c1F)OC([H])([H])C([H])([H])n1c-2nc(C(=O)N([H])[H])c1[H])(c1noc(C([H])([H])C#N)c1[H])C([H])([H])[H]


 34 37  0  0  0  0  0  0  0  0999 V2000
   36.9161   13.7909  -12.9924 C   0  0  0  0  0  0  0  0  0  0  0  0
   37.4692   13.3027  -14.1814 C   0  0  0  0  0  0  0  0  0  0  0  0
   36.7020   12.4323  -14.9134 C   0  0  0  0  0  0  0  0  0  0  0  0
   37.4105   12.0157  -16.1250 C   0  0  0  0  0  0  0  0  0  0  0  0
   38.7397   12.0175  -16.3100 N   0  0  0  0  0  0  0  0  0  0  0  0
   39.0424   11.5512  -17.5615 C   0  0  0  0  0  0  0  0  0  0  0  0
   37.8272   11.2530  -18.1534 C   0  0  0  0  0  0  0  0  0  0  0  0
   36.8633   11.5403  -17.2669 N   0  0  0  0  0  0  0  0  0  0  0  0
   35.4200   11.3899  -17.4878 C   0  0  0  0  0  0  0  0  0  0  0  0
   34.7714   10.5057  -16.4520 C   0  0  0  0  0  0  0  0  0  0  0  0
   34.5764   11.1601  -15.2007 O   0  0  0  0  0  0  0  0  0  0  0  0
   35.4338   12.0355  -14.5231 C   0  0  0  0  0  0  0  0  0  0  0  0
   34.9214   12.5344  -13.3468 C   0  0  0  0  0  0  0  0  0  0  0  0
   35.6592   13.4186  -12.5672 C   0  0  0  0  0  0  0  0  0  0  0  0
   35.1391   13.9266  -11.4022 F   0  0  0  0  0  0  0  0  0  0  0  0
   40.3480   11.3921  -18.1508 C   0  0  0  0  0  0  0  0  0  0  0  0
   41.5009   11.9379  -17.5451 N   0  0  0  0  0  0  0  0  0  0  0  0
   40.4769   10.7576  -19.2210 O   0  0  0  0  0  0  0  0  0  0  0  0
   42.3896   11.4256  -17.5165 H   0  0  0  0  0  0  0  0  0  0  0  0
   41.4313   12.8965  -17.1328 H   0  0  0  0  0  0  0  0  0  0  0  0
   38.3511   15.4648  -11.5299 C   0  0  0  0  0  0  0  0  0  0  0  0
   37.7047   14.7098  -12.2162 C   0  0  0  0  0  0  0  0  0  0  0  0
   38.2349   17.5853  -10.3199 C   0  0  0  0  0  0  0  0  0  0  0  0
   39.1043   16.3790  -10.6807 C   0  0  0  0  0  0  0  0  0  0  0  0
   40.1636   16.8998  -11.4588 O   0  0  0  0  0  0  0  0  0  0  0  0
   39.8927   16.9740  -12.4160 H   0  0  0  0  0  0  0  0  0  0  0  0
   39.6369   15.7347   -9.4623 C   0  0  0  0  0  0  0  0  0  0  0  0
   38.9912   14.8553   -8.6135 C   0  0  0  0  0  0  0  0  0  0  0  0
   39.8883   14.5179   -7.5978 C   0  0  0  0  0  0  0  0  0  0  0  0
   40.9919   15.1839   -7.8694 O   0  0  0  0  0  0  0  0  0  0  0  0
   40.8726   15.8937   -8.9437 N   0  0  0  0  0  0  0  0  0  0  0  0
   39.6167   13.6086   -6.4818 C   0  0  0  0  0  0  0  0  0  0  0  0
   38.2129   13.1551   -6.5404 C   0  0  0  0  0  0  0  0  0  0  0  0
   37.1213   12.8072   -6.6133 N   0  0  0  0  0  0  0  0  0  0  0  0
 23 24  1  0  0  0
 24 25  1  0  0  0
 24 21  1  0  0  0
 21 22  3  0  0  0
 22  1  1  0  0  0
  1  2  2  0  0  0
  2  3  1  0  0  0
  3  4  1  0  0  0
  4  5  2  0  0  0
  5  6  1  0  0  0
  6  7  2  0  0  0
  7  8  1  0  0  0
  8  9  1  0  0  0
  9 10  1  0  0  0
 10 11  1  0  0  0
 11 12  1  0  0  0
 12 13  1  0  0  0
 13 14  2  0  0  0
 14 15  1  0  0  0
  6 16  1  0  0  0
 16 17  1  0  0  0
 16 18  2  0  0  0
 24 27  1  0  0  0
 27 28  1  0  0  0
 28 29  2  0  0  0
 29 32  1  0  0  0
 32 33  1  0  0  0
 33 34  3  0  0  0
 29 30  1  0  0  0
 30 31  1  0  0  0
 14  1  1  0  0  0
 31 27  2  0  0  0
 12  3  2  0  0  0
  8  4  1  0  0  0
 25 26  1  0  0  0
 17 19  1  0  0  0
 17 20  1  0  0  0
M  END
> <minimizedAffinity>
-7.91836

> <CNNscore>
0.3257092535

> <CNNaffinity>
6.8223738670

> <CNN_VS>
2.2221102715

> <CNNaffinity_variance>
0.0744469166

$$$$
[H]OC(C#Cc1c([H])c2c(c([H])c1F)OC([H])([H])C([H])([H])n1c-2nc(C(=O)N([H])[H])c1[H])(c1noc(C([H])([H])C#N)c1[H])C([H])([H])[H]


 34 37  0  0  0  0  0  0  0  0999 V2000
   39.0606   14.4086  -13.6676 C   0  0  0  0  0  0  0  0  0  0  0  0
   38.1075   13.5903  -14.2841 C   0  0  0  0  0  0  0  0  0  0  0  0
   38.4839   12.9609  -15.4435 C   0  0  0  0  0  0  0  0  0  0  0  0
   37.3876   12.1419  -15.9637 C   0  0  0  0  0  0  0  0  0  0  0  0
   36.0796   12.3138  -15.7177 N   0  0  0  0  0  0  0  0  0  0  0  0
   35.3462   11.3671  -16.3818 C   0  0  0  0  0  0  0  0  0  0  0  0
   36.2676   10.5901  -17.0625 C   0  0  0  0  0  0  0  0  0  0  0  0
   37.4868   11.0792  -16.7945 N   0  0  0  0  0  0  0  0  0  0  0  0
   38.7572   10.5445  -17.2991 C   0  0  0  0  0  0  0  0  0  0  0  0
   39.5611   11.5831  -18.0411 C   0  0  0  0  0  0  0  0  0  0  0  0
   40.2193   12.5045  -17.1752 O   0  0  0  0  0  0  0  0  0  0  0  0
   39.7420   13.1056  -16.0042 C   0  0  0  0  0  0  0  0  0  0  0  0
   40.6544   13.9196  -15.3716 C   0  0  0  0  0  0  0  0  0  0  0  0
   40.3221   14.5815  -14.1946 C   0  0  0  0  0  0  0  0  0  0  0  0
   41.2396   15.3805  -13.5577 F   0  0  0  0  0  0  0  0  0  0  0  0
   33.9142   11.2048  -16.3863 C   0  0  0  0  0  0  0  0  0  0  0  0
   33.1629   11.2601  -15.1918 N   0  0  0  0  0  0  0  0  0  0  0  0
   33.3110   11.0118  -17.4649 O   0  0  0  0  0  0  0  0  0  0  0  0
   32.2538   11.7339  -15.1474 H   0  0  0  0  0  0  0  0  0  0  0  0
   33.5534   10.7877  -14.3444 H   0  0  0  0  0  0  0  0  0  0  0  0
   38.4072   15.6231  -11.4097 C   0  0  0  0  0  0  0  0  0  0  0  0
   38.6843   15.0708  -12.4475 C   0  0  0  0  0  0  0  0  0  0  0  0
   36.8422   17.1346  -10.2961 C   0  0  0  0  0  0  0  0  0  0  0  0
   38.0934   16.2676  -10.1407 C   0  0  0  0  0  0  0  0  0  0  0  0
   39.1428   17.1715   -9.8571 O   0  0  0  0  0  0  0  0  0  0  0  0
   39.5224   17.5448  -10.7008 H   0  0  0  0  0  0  0  0  0  0  0  0
   37.9316   15.3102   -9.0270 C   0  0  0  0  0  0  0  0  0  0  0  0
   38.9213   14.6988   -8.2804 C   0  0  0  0  0  0  0  0  0  0  0  0
   38.2920   13.8736   -7.3459 C   0  0  0  0  0  0  0  0  0  0  0  0
   37.0009   14.0188   -7.5632 O   0  0  0  0  0  0  0  0  0  0  0  0
   36.7665   14.8457   -8.5293 N   0  0  0  0  0  0  0  0  0  0  0  0
   38.9662   13.0375   -6.3497 C   0  0  0  0  0  0  0  0  0  0  0  0
   40.2863   12.6200   -6.8624 C   0  0  0  0  0  0  0  0  0  0  0  0
   41.3077   12.2695   -7.2523 N   0  0  0  0  0  0  0  0  0  0  0  0
 23 24  1  0  0  0
 24 25  1  0  0  0
 24 21  1  0  0  0
 21 22  3  0  0  0
 22  1  1  0  0  0
  1  2  2  0  0  0
  2  3  1  0  0  0
  3  4  1  0  0  0
  4  5  2  0  0  0
  5  6  1  0  0  0
  6  7  2  0  0  0
  7  8  1  0  0  0
  8  9  1  0  0  0
  9 10  1  0  0  0
 10 11  1  0  0  0
 11 12  1  0  0  0
 12 13  1  0  0  0
 13 14  2  0  0  0
 14 15  1  0  0  0
  6 16  1  0  0  0
 16 17  1  0  0  0
 16 18  2  0  0  0
 24 27  1  0  0  0
 27 28  1  0  0  0
 28 29  2  0  0  0
 29 32  1  0  0  0
 32 33  1  0  0  0
 33 34  3  0  0  0
 29 30  1  0  0  0
 30 31  1  0  0  0
 14  1  1  0  0  0
 31 27  2  0  0  0
 12  3  2  0  0  0
  8  4  1  0  0  0
 25 26  1  0  0  0
 17 19  1  0  0  0
 17 20  1  0  0  0
M  END
> <minimizedAffinity>
-8.32661

> <CNNscore>
0.3033679426

> <CNNaffinity>
6.8661675453

> <CNN_VS>
2.0829751492

> <CNNaffinity_variance>
0.0661264434

$$$$
[H]OC(C#Cc1c([H])c2c(c([H])c1F)OC([H])([H])C([H])([H])n1c-2nc(C(=O)N([H])[H])c1[H])(c1noc(C([H])([H])C#N)c1[H])C([H])([H])[H]


 34 37  0  0  0  0  0  0  0  0999 V2000
   36.9996   13.2749  -13.5188 C   0  0  0  0  0  0  0  0  0  0  0  0
   38.1775   13.1626  -14.2658 C   0  0  0  0  0  0  0  0  0  0  0  0
   38.1312   12.3723  -15.3861 C   0  0  0  0  0  0  0  0  0  0  0  0
   39.4308   12.3583  -16.0601 C   0  0  0  0  0  0  0  0  0  0  0  0
   40.6223   12.6103  -15.4965 N   0  0  0  0  0  0  0  0  0  0  0  0
   41.6190   12.4940  -16.4284 C   0  0  0  0  0  0  0  0  0  0  0  0
   40.9868   12.1517  -17.6112 C   0  0  0  0  0  0  0  0  0  0  0  0
   39.6720   12.0753  -17.3606 N   0  0  0  0  0  0  0  0  0  0  0  0
   38.6274   11.7548  -18.3408 C   0  0  0  0  0  0  0  0  0  0  0  0
   37.7954   10.5679  -17.9234 C   0  0  0  0  0  0  0  0  0  0  0  0
   36.8402   10.8819  -16.9129 O   0  0  0  0  0  0  0  0  0  0  0  0
   36.9872   11.7035  -15.7888 C   0  0  0  0  0  0  0  0  0  0  0  0
   35.8466   11.8353  -15.0293 C   0  0  0  0  0  0  0  0  0  0  0  0
   35.8412   12.6235  -13.8835 C   0  0  0  0  0  0  0  0  0  0  0  0
   34.6976   12.7654  -13.1366 F   0  0  0  0  0  0  0  0  0  0  0  0
   43.0347   12.6796  -16.2325 C   0  0  0  0  0  0  0  0  0  0  0  0
   43.9816   12.0912  -17.0992 N   0  0  0  0  0  0  0  0  0  0  0  0
   43.4471   13.3762  -15.2789 O   0  0  0  0  0  0  0  0  0  0  0  0
   44.8226   12.5952  -17.4021 H   0  0  0  0  0  0  0  0  0  0  0  0
   43.8110   11.1101  -17.4188 H   0  0  0  0  0  0  0  0  0  0  0  0
   37.0873   14.7816  -11.3458 C   0  0  0  0  0  0  0  0  0  0  0  0
   37.0291   14.1051  -12.3447 C   0  0  0  0  0  0  0  0  0  0  0  0
   37.0803   17.0598  -10.4606 C   0  0  0  0  0  0  0  0  0  0  0  0
   37.1664   15.5700  -10.1225 C   0  0  0  0  0  0  0  0  0  0  0  0
   38.4600   15.3822   -9.5839 O   0  0  0  0  0  0  0  0  0  0  0  0
   39.1269   15.2418  -10.3124 H   0  0  0  0  0  0  0  0  0  0  0  0
   36.1412   15.1996   -9.1252 C   0  0  0  0  0  0  0  0  0  0  0  0
   34.9554   15.8511   -8.8420 C   0  0  0  0  0  0  0  0  0  0  0  0
   34.3181   15.1382   -7.8242 C   0  0  0  0  0  0  0  0  0  0  0  0
   35.1179   14.1282   -7.5498 O   0  0  0  0  0  0  0  0  0  0  0  0
   36.1783   14.1404   -8.2899 N   0  0  0  0  0  0  0  0  0  0  0  0
   33.0290   15.4787   -7.2172 C   0  0  0  0  0  0  0  0  0  0  0  0
   32.4869   14.3022   -6.5088 C   0  0  0  0  0  0  0  0  0  0  0  0
   32.0911   13.3769   -5.9563 N   0  0  0  0  0  0  0  0  0  0  0  0
 23 24  1  0  0  0
 24 25  1  0  0  0
 24 21  1  0  0  0
 21 22  3  0  0  0
 22  1  1  0  0  0
  1  2  2  0  0  0
  2  3  1  0  0  0
  3  4  1  0  0  0
  4  5  2  0  0  0
  5  6  1  0  0  0
  6  7  2  0  0  0
  7  8  1  0  0  0
  8  9  1  0  0  0
  9 10  1  0  0  0
 10 11  1  0  0  0
 11 12  1  0  0  0
 12 13  1  0  0  0
 13 14  2  0  0  0
 14 15  1  0  0  0
  6 16  1  0  0  0
 16 17  1  0  0  0
 16 18  2  0  0  0
 24 27  1  0  0  0
 27 28  1  0  0  0
 28 29  2  0  0  0
 29 32  1  0  0  0
 32 33  1  0  0  0
 33 34  3  0  0  0
 29 30  1  0  0  0
 30 31  1  0  0  0
 14  1  1  0  0  0
 31 27  2  0  0  0
 12  3  2  0  0  0
  8  4  1  0  0  0
 25 26  1  0  0  0
 17 19  1  0  0  0
 17 20  1  0  0  0
M  END
> <minimizedAffinity>
-8.09582

> <CNNscore>
0.2728880048

> <CNNaffinity>
6.6101541519

> <CNN_VS>
1.8038318157

> <CNNaffinity_variance>
0.0745677799

$$$$
[H]OC(C#Cc1c([H])c2c(c([H])c1F)OC([H])([H])C([H])([H])n1c-2nc(C(=O)N([H])[H])c1[H])(c1noc(C([H])([H])C#N)c1[H])C([H])([H])[H]


 34 37  0  0  0  0  0  0  0  0999 V2000
   41.0774   12.8753  -15.5248 C   0  0  0  0  0  0  0  0  0  0  0  0
   39.6941   12.8427  -15.3161 C   0  0  0  0  0  0  0  0  0  0  0  0
   38.9314   12.2503  -16.2904 C   0  0  0  0  0  0  0  0  0  0  0  0
   37.5133   12.2894  -15.9286 C   0  0  0  0  0  0  0  0  0  0  0  0
   36.9291   13.1611  -15.0922 N   0  0  0  0  0  0  0  0  0  0  0  0
   35.5872   12.9026  -15.0031 C   0  0  0  0  0  0  0  0  0  0  0  0
   35.3593   11.8191  -15.8337 C   0  0  0  0  0  0  0  0  0  0  0  0
   36.5341   11.4719  -16.3785 N   0  0  0  0  0  0  0  0  0  0  0  0
   36.7538   10.3598  -17.3110 C   0  0  0  0  0  0  0  0  0  0  0  0
   37.3856   10.8129  -18.6036 C   0  0  0  0  0  0  0  0  0  0  0  0
   38.7823   11.0715  -18.4830 O   0  0  0  0  0  0  0  0  0  0  0  0
   39.4735   11.6986  -17.4393 C   0  0  0  0  0  0  0  0  0  0  0  0
   40.8383   11.7496  -17.6126 C   0  0  0  0  0  0  0  0  0  0  0  0
   41.6560   12.3405  -16.6554 C   0  0  0  0  0  0  0  0  0  0  0  0
   43.0184   12.3759  -16.8239 F   0  0  0  0  0  0  0  0  0  0  0  0
   34.6044   13.6064  -14.2184 C   0  0  0  0  0  0  0  0  0  0  0  0
   33.2304   13.5546  -14.5402 N   0  0  0  0  0  0  0  0  0  0  0  0
   34.9625   14.2800  -13.2272 O   0  0  0  0  0  0  0  0  0  0  0  0
   32.5086   13.4782  -13.8149 H   0  0  0  0  0  0  0  0  0  0  0  0
   32.9604   13.6114  -15.5490 H   0  0  0  0  0  0  0  0  0  0  0  0
   42.5605   14.0374  -13.6674 C   0  0  0  0  0  0  0  0  0  0  0  0
   41.8923   13.4870  -14.5098 C   0  0  0  0  0  0  0  0  0  0  0  0
   42.4665   15.3349  -11.5982 C   0  0  0  0  0  0  0  0  0  0  0  0
   43.3714   14.7278  -12.6724 C   0  0  0  0  0  0  0  0  0  0  0  0
   43.9797   15.8295  -13.3164 O   0  0  0  0  0  0  0  0  0  0  0  0
   43.3879   16.1866  -14.0357 H   0  0  0  0  0  0  0  0  0  0  0  0
   44.4018   13.8632  -12.0611 C   0  0  0  0  0  0  0  0  0  0  0  0
   44.2678   12.5583  -11.6248 C   0  0  0  0  0  0  0  0  0  0  0  0
   45.5050   12.1573  -11.1160 C   0  0  0  0  0  0  0  0  0  0  0  0
   46.2985   13.1986  -11.2625 O   0  0  0  0  0  0  0  0  0  0  0  0
   45.6846   14.1973  -11.8083 N   0  0  0  0  0  0  0  0  0  0  0  0
   45.8122   10.8427  -10.5472 C   0  0  0  0  0  0  0  0  0  0  0  0
   46.7358   10.1174  -11.4419 C   0  0  0  0  0  0  0  0  0  0  0  0
   47.4529    9.5315  -12.1206 N   0  0  0  0  0  0  0  0  0  0  0  0
 23 24  1  0  0  0
 24 25  1  0  0  0
 24 21  1  0  0  0
 21 22  3  0  0  0
 22  1  1  0  0  0
  1  2  2  0  0  0
  2  3  1  0  0  0
  3  4  1  0  0  0
  4  5  2  0  0  0
  5  6  1  0  0  0
  6  7  2  0  0  0
  7  8  1  0  0  0
  8  9  1  0  0  0
  9 10  1  0  0  0
 10 11  1  0  0  0
 11 12  1  0  0  0
 12 13  1  0  0  0
 13 14  2  0  0  0
 14 15  1  0  0  0
  6 16  1  0  0  0
 16 17  1  0  0  0
 16 18  2  0  0  0
 24 27  1  0  0  0
 27 28  1  0  0  0
 28 29  2  0  0  0
 29 32  1  0  0  0
 32 33  1  0  0  0
 33 34  3  0  0  0
 29 30  1  0  0  0
 30 31  1  0  0  0
 14  1  1  0  0  0
 31 27  2  0  0  0
 12  3  2  0  0  0
  8  4  1  0  0  0
 25 26  1  0  0  0
 17 19  1  0  0  0
 17 20  1  0  0  0
M  END
> <minimizedAffinity>
-8.84635

> <CNNscore>
0.2725606263

> <CNNaffinity>
6.7809638977

> <CNN_VS>
1.8482238054

> <CNNaffinity_variance>
0.0978574753

$$$$
[H]OC(C#Cc1c([H])c2c(c([H])c1F)OC([H])([H])C([H])([H])n1c-2nc(C(=O)N([H])[H])c1[H])(c1noc(C([H])([H])C#N)c1[H])C([H])([H])[H]


 34 37  0  0  0  0  0  0  0  0999 V2000
   37.1671   13.4711  -13.2544 C   0  0  0  0  0  0  0  0  0  0  0  0
   38.4980   13.5740  -13.6743 C   0  0  0  0  0  0  0  0  0  0  0  0
   38.8472   12.8884  -14.8100 C   0  0  0  0  0  0  0  0  0  0  0  0
   40.2622   13.0969  -15.1223 C   0  0  0  0  0  0  0  0  0  0  0  0
   41.2261   13.4432  -14.2551 N   0  0  0  0  0  0  0  0  0  0  0  0
   42.4302   13.5362  -14.9006 C   0  0  0  0  0  0  0  0  0  0  0  0
   42.1699   13.2261  -16.2242 C   0  0  0  0  0  0  0  0  0  0  0  0
   40.8591   12.9645  -16.3289 N   0  0  0  0  0  0  0  0  0  0  0  0
   40.1501   12.6065  -17.5632 C   0  0  0  0  0  0  0  0  0  0  0  0
   39.4191   11.2925  -17.4430 C   0  0  0  0  0  0  0  0  0  0  0  0
   38.2066   11.3929  -16.7001 O   0  0  0  0  0  0  0  0  0  0  0  0
   37.9483   12.1216  -15.5327 C   0  0  0  0  0  0  0  0  0  0  0  0
   36.6473   12.0416  -15.0900 C   0  0  0  0  0  0  0  0  0  0  0  0
   36.2425   12.7163  -13.9433 C   0  0  0  0  0  0  0  0  0  0  0  0
   34.9403   12.6471  -13.5131 F   0  0  0  0  0  0  0  0  0  0  0  0
   43.7102   13.8780  -14.3331 C   0  0  0  0  0  0  0  0  0  0  0  0
   44.7493   14.4109  -15.1271 N   0  0  0  0  0  0  0  0  0  0  0  0
   43.9179   13.7054  -13.1118 O   0  0  0  0  0  0  0  0  0  0  0  0
   45.3539   15.1675  -14.7882 H   0  0  0  0  0  0  0  0  0  0  0  0
   44.9001   14.0008  -16.0774 H   0  0  0  0  0  0  0  0  0  0  0  0
   36.4657   14.8277  -11.0939 C   0  0  0  0  0  0  0  0  0  0  0  0
   36.7827   14.1892  -12.0690 C   0  0  0  0  0  0  0  0  0  0  0  0
   36.3279   14.7977   -8.6538 C   0  0  0  0  0  0  0  0  0  0  0  0
   36.1078   15.6209   -9.9247 C   0  0  0  0  0  0  0  0  0  0  0  0
   34.7145   15.8530   -9.9843 O   0  0  0  0  0  0  0  0  0  0  0  0
   34.2486   15.0845  -10.4173 H   0  0  0  0  0  0  0  0  0  0  0  0
   36.8348   16.9049   -9.8490 C   0  0  0  0  0  0  0  0  0  0  0  0
   36.9022   17.7827   -8.7833 C   0  0  0  0  0  0  0  0  0  0  0  0
   37.6985   18.8602   -9.1773 C   0  0  0  0  0  0  0  0  0  0  0  0
   38.0610   18.5938  -10.4154 O   0  0  0  0  0  0  0  0  0  0  0  0
   37.5759   17.4678  -10.8263 N   0  0  0  0  0  0  0  0  0  0  0  0
   38.0348   20.0237   -8.3531 C   0  0  0  0  0  0  0  0  0  0  0  0
   36.8105   20.7938   -8.0571 C   0  0  0  0  0  0  0  0  0  0  0  0
   35.8431   21.3709   -7.8351 N   0  0  0  0  0  0  0  0  0  0  0  0
 23 24  1  0  0  0
 24 25  1  0  0  0
 24 21  1  0  0  0
 21 22  3  0  0  0
 22  1  1  0  0  0
  1  2  2  0  0  0
  2  3  1  0  0  0
  3  4  1  0  0  0
  4  5  2  0  0  0
  5  6  1  0  0  0
  6  7  2  0  0  0
  7  8  1  0  0  0
  8  9  1  0  0  0
  9 10  1  0  0  0
 10 11  1  0  0  0
 11 12  1  0  0  0
 12 13  1  0  0  0
 13 14  2  0  0  0
 14 15  1  0  0  0
  6 16  1  0  0  0
 16 17  1  0  0  0
 16 18  2  0  0  0
 24 27  1  0  0  0
 27 28  1  0  0  0
 28 29  2  0  0  0
 29 32  1  0  0  0
 32 33  1  0  0  0
 33 34  3  0  0  0
 29 30  1  0  0  0
 30 31  1  0  0  0
 14  1  1  0  0  0
 31 27  2  0  0  0
 12  3  2  0  0  0
  8  4  1  0  0  0
 25 26  1  0  0  0
 17 19  1  0  0  0
 17 20  1  0  0  0
M  END
> <minimizedAffinity>
-8.48207

> <CNNscore>
0.2656865716

> <CNNaffinity>
6.2696504593

> <CNN_VS>
1.6657619476

> <CNNaffinity_variance>
0.1043891162

$$$$
[H]OC(C#Cc1c([H])c([H])c2c(c1[H])-c1nc(C(=O)N([H])[H])c(C([H])([H])N([H])C([H])(C([H])([H])[H])C([H])([H])[H])n1C([H])([H])C([H])([H])O2)(C([H])([H])[H])C([H])([H])[H]


 32 34  0  0  0  0  0  0  0  0999 V2000
   35.2876   14.5675  -12.6195 C   0  0  0  0  0  0  0  0  0  0  0  0
   36.5566   14.6423  -11.9912 C   0  0  0  0  0  0  0  0  0  0  0  0
   37.4181   14.0179  -12.7900 N   0  0  0  0  0  0  0  0  0  0  0  0
   36.7704   13.5739  -13.8490 C   0  0  0  0  0  0  0  0  0  0  0  0
   37.3869   12.8222  -14.9448 C   0  0  0  0  0  0  0  0  0  0  0  0
   38.7660   13.0426  -15.0006 C   0  0  0  0  0  0  0  0  0  0  0  0
   39.5201   12.4192  -15.9645 C   0  0  0  0  0  0  0  0  0  0  0  0
   38.8782   11.5682  -16.8775 C   0  0  0  0  0  0  0  0  0  0  0  0
   37.5185   11.3446  -16.8301 C   0  0  0  0  0  0  0  0  0  0  0  0
   36.7821   11.9807  -15.8546 C   0  0  0  0  0  0  0  0  0  0  0  0
   35.4067   11.6751  -15.9047 O   0  0  0  0  0  0  0  0  0  0  0  0
   34.3746   12.0909  -15.0166 C   0  0  0  0  0  0  0  0  0  0  0  0
   34.4666   13.6001  -14.7735 C   0  0  0  0  0  0  0  0  0  0  0  0
   35.4327   13.9107  -13.7609 N   0  0  0  0  0  0  0  0  0  0  0  0
   36.8578   15.2966  -10.7114 C   0  0  0  0  0  0  0  0  0  0  0  0
   37.3466   16.6261  -10.7016 N   0  0  0  0  0  0  0  0  0  0  0  0
   36.6901   14.7014   -9.6401 O   0  0  0  0  0  0  0  0  0  0  0  0
   36.7638   17.4770  -10.7303 H   0  0  0  0  0  0  0  0  0  0  0  0
   38.3809   16.7506  -10.6619 H   0  0  0  0  0  0  0  0  0  0  0  0
   40.9361   12.6479  -16.0188 C   0  0  0  0  0  0  0  0  0  0  0  0
   42.1280   12.8236  -16.0513 C   0  0  0  0  0  0  0  0  0  0  0  0
   43.5949   13.0168  -16.0795 C   0  0  0  0  0  0  0  0  0  0  0  0
   44.3096   11.8180  -16.6297 C   0  0  0  0  0  0  0  0  0  0  0  0
   44.0207   13.1814  -14.6357 C   0  0  0  0  0  0  0  0  0  0  0  0
   43.9464   14.1575  -16.7870 O   0  0  0  0  0  0  0  0  0  0  0  0
   43.1021   14.6632  -16.9779 H   0  0  0  0  0  0  0  0  0  0  0  0
   34.1150   15.1726  -11.9718 C   0  0  0  0  0  0  0  0  0  0  0  0
   32.8646   14.5266  -12.0449 N   0  0  0  0  0  0  0  0  0  0  0  0
   32.8014   13.6768  -11.4007 H   0  0  0  0  0  0  0  0  0  0  0  0
   30.5347   14.5933  -11.4728 C   0  0  0  0  0  0  0  0  0  0  0  0
   31.8071   15.4180  -11.5333 C   0  0  0  0  0  0  0  0  0  0  0  0
   32.2271   15.8073  -10.1334 C   0  0  0  0  0  0  0  0  0  0  0  0
 30 31  1  0  0  0
 31 32  1  0  0  0
 31 28  1  0  0  0
 28 27  1  0  0  0
 27  1  1  0  0  0
  1  2  2  0  0  0
  2  3  1  0  0  0
  3  4  2  0  0  0
  4  5  1  0  0  0
  5  6  2  0  0  0
  6  7  1  0  0  0
  7  8  2  0  0  0
  8  9  1  0  0  0
  9 10  2  0  0  0
 10 11  1  0  0  0
 11 12  1  0  0  0
 12 13  1  0  0  0
 13 14  1  0  0  0
  7 20  1  0  0  0
 20 21  3  0  0  0
 21 22  1  0  0  0
 22 23  1  0  0  0
 22 24  1  0  0  0
 22 25  1  0  0  0
  2 15  1  0  0  0
 15 16  1  0  0  0
 15 17  2  0  0  0
 14  1  1  0  0  0
 14  4  1  0  0  0
 10  5  1  0  0  0
 28 29  1  0  0  0
 25 26  1  0  0  0
 16 18  1  0  0  0
 16 19  1  0  0  0
M  END
> <minimizedAffinity>
-9.44492

> <CNNscore>
0.6176336408

> <CNNaffinity>
6.8629732132

> <CNN_VS>
4.2388029099

> <CNNaffinity_variance>
0.1451017857

$$$$
[H]OC(C#Cc1c([H])c([H])c2c(c1[H])-c1nc(C(=O)N([H])[H])c(C([H])([H])N([H])C([H])(C([H])([H])[H])C([H])([H])[H])n1C([H])([H])C([H])([H])O2)(C([H])([H])[H])C([H])([H])[H]


 32 34  0  0  0  0  0  0  0  0999 V2000
   44.8731   15.4110  -10.4132 C   0  0  0  0  0  0  0  0  0  0  0  0
   44.0888   14.2533  -10.1774 C   0  0  0  0  0  0  0  0  0  0  0  0
   43.3208   14.5177   -9.1237 N   0  0  0  0  0  0  0  0  0  0  0  0
   43.5787   15.7415   -8.7065 C   0  0  0  0  0  0  0  0  0  0  0  0
   42.9351   16.3794   -7.5556 C   0  0  0  0  0  0  0  0  0  0  0  0
   41.7117   15.7735   -7.2560 C   0  0  0  0  0  0  0  0  0  0  0  0
   40.9596   16.2342   -6.2031 C   0  0  0  0  0  0  0  0  0  0  0  0
   41.4454   17.3130   -5.4482 C   0  0  0  0  0  0  0  0  0  0  0  0
   42.6510   17.9169   -5.7361 C   0  0  0  0  0  0  0  0  0  0  0  0
   43.3885   17.4379   -6.7968 C   0  0  0  0  0  0  0  0  0  0  0  0
   44.5998   18.1319   -6.9936 O   0  0  0  0  0  0  0  0  0  0  0  0
   45.6301   17.8639   -7.9388 C   0  0  0  0  0  0  0  0  0  0  0  0
   45.0260   17.6593   -9.3311 C   0  0  0  0  0  0  0  0  0  0  0  0
   44.5488   16.3186   -9.5043 N   0  0  0  0  0  0  0  0  0  0  0  0
   44.1145   13.0098  -10.9585 C   0  0  0  0  0  0  0  0  0  0  0  0
   44.6765   11.8386  -10.3938 N   0  0  0  0  0  0  0  0  0  0  0  0
   43.6511   12.9715  -12.1047 O   0  0  0  0  0  0  0  0  0  0  0  0
   44.1779   11.1698   -9.7864 H   0  0  0  0  0  0  0  0  0  0  0  0
   45.6761   11.6396  -10.6122 H   0  0  0  0  0  0  0  0  0  0  0  0
   39.7038   15.6095   -5.8984 C   0  0  0  0  0  0  0  0  0  0  0  0
   38.6573   15.0779   -5.6243 C   0  0  0  0  0  0  0  0  0  0  0  0
   37.3810   14.4215   -5.2638 C   0  0  0  0  0  0  0  0  0  0  0  0
   36.8898   13.5118   -6.3510 C   0  0  0  0  0  0  0  0  0  0  0  0
   36.3690   15.5370   -5.1077 C   0  0  0  0  0  0  0  0  0  0  0  0
   37.4822   13.7321   -4.0640 O   0  0  0  0  0  0  0  0  0  0  0  0
   38.3620   13.9777   -3.6510 H   0  0  0  0  0  0  0  0  0  0  0  0
   45.8350   15.4278  -11.5246 C   0  0  0  0  0  0  0  0  0  0  0  0
   45.4530   15.9610  -12.7720 N   0  0  0  0  0  0  0  0  0  0  0  0
   44.6649   16.6775  -12.6901 H   0  0  0  0  0  0  0  0  0  0  0  0
   45.9860   18.0895  -13.7445 C   0  0  0  0  0  0  0  0  0  0  0  0
   46.5633   16.7441  -13.3456 C   0  0  0  0  0  0  0  0  0  0  0  0
   47.5653   16.9322  -12.2284 C   0  0  0  0  0  0  0  0  0  0  0  0
 30 31  1  0  0  0
 31 32  1  0  0  0
 31 28  1  0  0  0
 28 27  1  0  0  0
 27  1  1  0  0  0
  1  2  2  0  0  0
  2  3  1  0  0  0
  3  4  2  0  0  0
  4  5  1  0  0  0
  5  6  2  0  0  0
  6  7  1  0  0  0
  7  8  2  0  0  0
  8  9  1  0  0  0
  9 10  2  0  0  0
 10 11  1  0  0  0
 11 12  1  0  0  0
 12 13  1  0  0  0
 13 14  1  0  0  0
  7 20  1  0  0  0
 20 21  3  0  0  0
 21 22  1  0  0  0
 22 23  1  0  0  0
 22 24  1  0  0  0
 22 25  1  0  0  0
  2 15  1  0  0  0
 15 16  1  0  0  0
 15 17  2  0  0  0
 14  1  1  0  0  0
 14  4  1  0  0  0
 10  5  1  0  0  0
 28 29  1  0  0  0
 25 26  1  0  0  0
 16 18  1  0  0  0
 16 19  1  0  0  0
M  END
> <minimizedAffinity>
-4.29696

> <CNNscore>
0.5103476644

> <CNNaffinity>
5.0034527779

> <CNN_VS>
2.5535004139

> <CNNaffinity_variance>
0.4834727347

$$$$
[H]OC(C#Cc1c([H])c([H])c2c(c1[H])-c1nc(C(=O)N([H])[H])c(C([H])([H])N([H])C([H])(C([H])([H])[H])C([H])([H])[H])n1C([H])([H])C([H])([H])O2)(C([H])([H])[H])C([H])([H])[H]


 32 34  0  0  0  0  0  0  0  0999 V2000
   39.1161   15.9080   -6.8609 C   0  0  0  0  0  0  0  0  0  0  0  0
   38.2562   16.0236   -7.9827 C   0  0  0  0  0  0  0  0  0  0  0  0
   37.0111   15.9273   -7.5238 N   0  0  0  0  0  0  0  0  0  0  0  0
   37.0518   15.7638   -6.2161 C   0  0  0  0  0  0  0  0  0  0  0  0
   35.8724   15.6056   -5.3619 C   0  0  0  0  0  0  0  0  0  0  0  0
   34.7272   16.1220   -5.9745 C   0  0  0  0  0  0  0  0  0  0  0  0
   33.5181   16.0626   -5.3255 C   0  0  0  0  0  0  0  0  0  0  0  0
   33.4649   15.4784   -4.0505 C   0  0  0  0  0  0  0  0  0  0  0  0
   34.5892   14.9661   -3.4384 C   0  0  0  0  0  0  0  0  0  0  0  0
   35.7912   15.0367   -4.1083 C   0  0  0  0  0  0  0  0  0  0  0  0
   36.8669   14.4816   -3.3855 O   0  0  0  0  0  0  0  0  0  0  0  0
   38.2201   14.3197   -3.7971 C   0  0  0  0  0  0  0  0  0  0  0  0
   38.7441   15.6238   -4.4053 C   0  0  0  0  0  0  0  0  0  0  0  0
   38.3639   15.7510   -5.7817 N   0  0  0  0  0  0  0  0  0  0  0  0
   38.6672   16.2246   -9.3782 C   0  0  0  0  0  0  0  0  0  0  0  0
   38.8369   15.1038  -10.2276 N   0  0  0  0  0  0  0  0  0  0  0  0
   38.8674   17.3615   -9.8226 O   0  0  0  0  0  0  0  0  0  0  0  0
   38.0859   14.6404  -10.7623 H   0  0  0  0  0  0  0  0  0  0  0  0
   39.8014   14.7185  -10.3170 H   0  0  0  0  0  0  0  0  0  0  0  0
   32.3441   16.5940   -5.9577 C   0  0  0  0  0  0  0  0  0  0  0  0
   31.3488   17.0214   -6.4863 C   0  0  0  0  0  0  0  0  0  0  0  0
   30.1142   17.5253   -7.1277 C   0  0  0  0  0  0  0  0  0  0  0  0
   29.2675   18.3160   -6.1745 C   0  0  0  0  0  0  0  0  0  0  0  0
   29.3247   16.2979   -7.5319 C   0  0  0  0  0  0  0  0  0  0  0  0
   30.3964   18.2743   -8.2611 O   0  0  0  0  0  0  0  0  0  0  0  0
   31.3726   18.1612   -8.4590 H   0  0  0  0  0  0  0  0  0  0  0  0
   40.5726   15.9741   -7.0472 C   0  0  0  0  0  0  0  0  0  0  0  0
   41.4190   15.2113   -6.2178 N   0  0  0  0  0  0  0  0  0  0  0  0
   42.1156   14.6205   -6.7717 H   0  0  0  0  0  0  0  0  0  0  0  0
   43.4236   15.2494   -4.8986 C   0  0  0  0  0  0  0  0  0  0  0  0
   42.2866   16.1040   -5.4272 C   0  0  0  0  0  0  0  0  0  0  0  0
   42.8299   17.1289   -6.3977 C   0  0  0  0  0  0  0  0  0  0  0  0
 30 31  1  0  0  0
 31 32  1  0  0  0
 31 28  1  0  0  0
 28 27  1  0  0  0
 27  1  1  0  0  0
  1  2  2  0  0  0
  2  3  1  0  0  0
  3  4  2  0  0  0
  4  5  1  0  0  0
  5  6  2  0  0  0
  6  7  1  0  0  0
  7  8  2  0  0  0
  8  9  1  0  0  0
  9 10  2  0  0  0
 10 11  1  0  0  0
 11 12  1  0  0  0
 12 13  1  0  0  0
 13 14  1  0  0  0
  7 20  1  0  0  0
 20 21  3  0  0  0
 21 22  1  0  0  0
 22 23  1  0  0  0
 22 24  1  0  0  0
 22 25  1  0  0  0
  2 15  1  0  0  0
 15 16  1  0  0  0
 15 17  2  0  0  0
 14  1  1  0  0  0
 14  4  1  0  0  0
 10  5  1  0  0  0
 28 29  1  0  0  0
 25 26  1  0  0  0
 16 18  1  0  0  0
 16 19  1  0  0  0
M  END
> <minimizedAffinity>
-5.07269

> <CNNscore>
0.4104047716

> <CNNaffinity>
5.1722383499

> <CNN_VS>
2.1227111816

> <CNNaffinity_variance>
0.5354865789

$$$$
[H]OC(C#Cc1c([H])c([H])c2c(c1[H])-c1nc(C(=O)N([H])[H])c(C([H])([H])N([H])C([H])(C([H])([H])[H])C([H])([H])[H])n1C([H])([H])C([H])([H])O2)(C([H])([H])[H])C([H])([H])[H]


 32 34  0  0  0  0  0  0  0  0999 V2000
   35.8669   13.6576  -13.8730 C   0  0  0  0  0  0  0  0  0  0  0  0
   36.8319   13.8790  -12.8578 C   0  0  0  0  0  0  0  0  0  0  0  0
   38.0038   13.4847  -13.3491 N   0  0  0  0  0  0  0  0  0  0  0  0
   37.8223   13.0444  -14.5785 C   0  0  0  0  0  0  0  0  0  0  0  0
   38.8850   12.5133  -15.4357 C   0  0  0  0  0  0  0  0  0  0  0  0
   40.1430   12.9617  -15.0238 C   0  0  0  0  0  0  0  0  0  0  0  0
   41.2675   12.5665  -15.7063 C   0  0  0  0  0  0  0  0  0  0  0  0
   41.1211   11.7136  -16.8113 C   0  0  0  0  0  0  0  0  0  0  0  0
   39.8842   11.2660  -17.2248 C   0  0  0  0  0  0  0  0  0  0  0  0
   38.7702   11.6755  -16.5249 C   0  0  0  0  0  0  0  0  0  0  0  0
   37.5651   11.1543  -17.0387 O   0  0  0  0  0  0  0  0  0  0  0  0
   36.2453   11.3073  -16.5273 C   0  0  0  0  0  0  0  0  0  0  0  0
   35.9714   12.7805  -16.2115 C   0  0  0  0  0  0  0  0  0  0  0  0
   36.4883   13.1466  -14.9255 N   0  0  0  0  0  0  0  0  0  0  0  0
   36.5816   14.4476  -11.5270 C   0  0  0  0  0  0  0  0  0  0  0  0
   36.7937   15.8303  -11.3041 N   0  0  0  0  0  0  0  0  0  0  0  0
   36.1874   13.7341  -10.5967 O   0  0  0  0  0  0  0  0  0  0  0  0
   36.1083   16.5779  -11.4936 H   0  0  0  0  0  0  0  0  0  0  0  0
   37.7197   16.1114  -10.9166 H   0  0  0  0  0  0  0  0  0  0  0  0
   42.5579   13.0290  -15.2805 C   0  0  0  0  0  0  0  0  0  0  0  0
   43.6504   13.4054  -14.9379 C   0  0  0  0  0  0  0  0  0  0  0  0
   45.0018   13.8572  -14.5385 C   0  0  0  0  0  0  0  0  0  0  0  0
   45.0985   15.3529  -14.4738 C   0  0  0  0  0  0  0  0  0  0  0  0
   45.9382   13.3843  -15.6306 C   0  0  0  0  0  0  0  0  0  0  0  0
   45.3932   13.2936  -13.3325 O   0  0  0  0  0  0  0  0  0  0  0  0
   44.7197   12.5886  -13.0992 H   0  0  0  0  0  0  0  0  0  0  0  0
   34.4578   13.9965  -13.6277 C   0  0  0  0  0  0  0  0  0  0  0  0
   33.9138   13.8342  -12.3378 N   0  0  0  0  0  0  0  0  0  0  0  0
   34.6499   13.9104  -11.5675 H   0  0  0  0  0  0  0  0  0  0  0  0
   31.6182   14.3329  -11.8461 C   0  0  0  0  0  0  0  0  0  0  0  0
   32.9931   14.9462  -12.0365 C   0  0  0  0  0  0  0  0  0  0  0  0
   33.4686   15.5428  -10.7306 C   0  0  0  0  0  0  0  0  0  0  0  0
 30 31  1  0  0  0
 31 32  1  0  0  0
 31 28  1  0  0  0
 28 27  1  0  0  0
 27  1  1  0  0  0
  1  2  2  0  0  0
  2  3  1  0  0  0
  3  4  2  0  0  0
  4  5  1  0  0  0
  5  6  2  0  0  0
  6  7  1  0  0  0
  7  8  2  0  0  0
  8  9  1  0  0  0
  9 10  2  0  0  0
 10 11  1  0  0  0
 11 12  1  0  0  0
 12 13  1  0  0  0
 13 14  1  0  0  0
  7 20  1  0  0  0
 20 21  3  0  0  0
 21 22  1  0  0  0
 22 23  1  0  0  0
 22 24  1  0  0  0
 22 25  1  0  0  0
  2 15  1  0  0  0
 15 16  1  0  0  0
 15 17  2  0  0  0
 14  1  1  0  0  0
 14  4  1  0  0  0
 10  5  1  0  0  0
 28 29  1  0  0  0
 25 26  1  0  0  0
 16 18  1  0  0  0
 16 19  1  0  0  0
M  END
> <minimizedAffinity>
-7.03983

> <CNNscore>
0.3371892869

> <CNNaffinity>
6.4206380844

> <CNN_VS>
2.1649703979

> <CNNaffinity_variance>
0.1462507546

$$$$
[H]OC(C#Cc1c([H])c([H])c2c(c1[H])-c1nc(C(=O)N([H])[H])c(C([H])([H])N([H])C([H])(C([H])([H])[H])C([H])([H])[H])n1C([H])([H])C([H])([H])O2)(C([H])([H])[H])C([H])([H])[H]


 32 34  0  0  0  0  0  0  0  0999 V2000
   41.9577   14.4384  -13.4484 C   0  0  0  0  0  0  0  0  0  0  0  0
   40.6226   14.8827  -13.2722 C   0  0  0  0  0  0  0  0  0  0  0  0
   39.8846   14.2520  -14.1820 N   0  0  0  0  0  0  0  0  0  0  0  0
   40.6675   13.4633  -14.8914 C   0  0  0  0  0  0  0  0  0  0  0  0
   40.2122   12.6185  -15.9981 C   0  0  0  0  0  0  0  0  0  0  0  0
   38.8411   12.3613  -15.9114 C   0  0  0  0  0  0  0  0  0  0  0  0
   38.2287   11.5855  -16.8652 C   0  0  0  0  0  0  0  0  0  0  0  0
   39.0052   11.0662  -17.9127 C   0  0  0  0  0  0  0  0  0  0  0  0
   40.3582   11.3147  -18.0066 C   0  0  0  0  0  0  0  0  0  0  0  0
   40.9510   12.0956  -17.0385 C   0  0  0  0  0  0  0  0  0  0  0  0
   42.3341   12.2806  -17.2398 O   0  0  0  0  0  0  0  0  0  0  0  0
   43.2393   13.0797  -16.4855 C   0  0  0  0  0  0  0  0  0  0  0  0
   43.0597   12.8074  -14.9893 C   0  0  0  0  0  0  0  0  0  0  0  0
   41.9716   13.5653  -14.4447 N   0  0  0  0  0  0  0  0  0  0  0  0
   40.1498   15.8439  -12.2674 C   0  0  0  0  0  0  0  0  0  0  0  0
   39.4234   15.3820  -11.1425 N   0  0  0  0  0  0  0  0  0  0  0  0
   40.3777   17.0533  -12.3907 O   0  0  0  0  0  0  0  0  0  0  0  0
   39.8394   15.0294  -10.2665 H   0  0  0  0  0  0  0  0  0  0  0  0
   38.3833   15.4016  -11.2091 H   0  0  0  0  0  0  0  0  0  0  0  0
   36.8206   11.3234  -16.7729 C   0  0  0  0  0  0  0  0  0  0  0  0
   35.6422   11.0826  -16.6938 C   0  0  0  0  0  0  0  0  0  0  0  0
   34.2011   10.7630  -16.5895 C   0  0  0  0  0  0  0  0  0  0  0  0
   33.6163   11.2213  -15.2862 C   0  0  0  0  0  0  0  0  0  0  0  0
   34.1061    9.2522  -16.6282 C   0  0  0  0  0  0  0  0  0  0  0  0
   33.4830   11.2883  -17.6543 O   0  0  0  0  0  0  0  0  0  0  0  0
   34.1469   11.6290  -18.3237 H   0  0  0  0  0  0  0  0  0  0  0  0
   43.0226   14.9632  -12.5816 C   0  0  0  0  0  0  0  0  0  0  0  0
   43.0816   14.5693  -11.2298 N   0  0  0  0  0  0  0  0  0  0  0  0
   43.6954   13.7083  -11.0778 H   0  0  0  0  0  0  0  0  0  0  0  0
   44.1718   16.7005  -11.4011 C   0  0  0  0  0  0  0  0  0  0  0  0
   43.7556   15.6100  -10.4315 C   0  0  0  0  0  0  0  0  0  0  0  0
   42.7126   16.1489   -9.4780 C   0  0  0  0  0  0  0  0  0  0  0  0
 30 31  1  0  0  0
 31 32  1  0  0  0
 31 28  1  0  0  0
 28 27  1  0  0  0
 27  1  1  0  0  0
  1  2  2  0  0  0
  2  3  1  0  0  0
  3  4  2  0  0  0
  4  5  1  0  0  0
  5  6  2  0  0  0
  6  7  1  0  0  0
  7  8  2  0  0  0
  8  9  1  0  0  0
  9 10  2  0  0  0
 10 11  1  0  0  0
 11 12  1  0  0  0
 12 13  1  0  0  0
 13 14  1  0  0  0
  7 20  1  0  0  0
 20 21  3  0  0  0
 21 22  1  0  0  0
 22 23  1  0  0  0
 22 24  1  0  0  0
 22 25  1  0  0  0
  2 15  1  0  0  0
 15 16  1  0  0  0
 15 17  2  0  0  0
 14  1  1  0  0  0
 14  4  1  0  0  0
 10  5  1  0  0  0
 28 29  1  0  0  0
 25 26  1  0  0  0
 16 18  1  0  0  0
 16 19  1  0  0  0
M  END
> <minimizedAffinity>
-8.22719

> <CNNscore>
0.3244031072

> <CNNaffinity>
6.3672122955

> <CNN_VS>
2.0655434132

> <CNNaffinity_variance>
0.1197923422

$$$$
[H]OC(C#Cc1c([H])c([H])c2c(c1[H])-c1nc(C(=O)N([H])[H])c(C([H])([H])N([H])C([H])(C([H])([H])[H])C([H])([H])[H])n1C([H])([H])C([H])([H])O2)(C([H])([H])[H])C([H])([H])[H]


 32 34  0  0  0  0  0  0  0  0999 V2000
   45.6180   15.1010  -10.3609 C   0  0  0  0  0  0  0  0  0  0  0  0
   44.7183   14.2232  -11.0174 C   0  0  0  0  0  0  0  0  0  0  0  0
   43.5355   14.3737  -10.4272 N   0  0  0  0  0  0  0  0  0  0  0  0
   43.6501   15.2718   -9.4688 C   0  0  0  0  0  0  0  0  0  0  0  0
   42.5567   15.6917   -8.5890 C   0  0  0  0  0  0  0  0  0  0  0  0
   41.3105   15.4259   -9.1634 C   0  0  0  0  0  0  0  0  0  0  0  0
   40.1612   15.7489   -8.4843 C   0  0  0  0  0  0  0  0  0  0  0  0
   40.2706   16.3437   -7.2178 C   0  0  0  0  0  0  0  0  0  0  0  0
   41.4954   16.6094   -6.6431 C   0  0  0  0  0  0  0  0  0  0  0  0
   42.6348   16.2768   -7.3428 C   0  0  0  0  0  0  0  0  0  0  0  0
   43.8246   16.5943   -6.6561 O   0  0  0  0  0  0  0  0  0  0  0  0
   45.1683   16.3276   -7.0434 C   0  0  0  0  0  0  0  0  0  0  0  0
   45.3903   16.7522   -8.4979 C   0  0  0  0  0  0  0  0  0  0  0  0
   44.9491   15.7408   -9.4131 N   0  0  0  0  0  0  0  0  0  0  0  0
   45.0346   13.3322  -12.1412 C   0  0  0  0  0  0  0  0  0  0  0  0
   45.6397   12.0761  -11.8912 N   0  0  0  0  0  0  0  0  0  0  0  0
   44.7793   13.6645  -13.3049 O   0  0  0  0  0  0  0  0  0  0  0  0
   45.1364   11.2079  -11.6510 H   0  0  0  0  0  0  0  0  0  0  0  0
   46.6790   12.0292  -11.9563 H   0  0  0  0  0  0  0  0  0  0  0  0
   38.8832   15.4745   -9.0772 C   0  0  0  0  0  0  0  0  0  0  0  0
   37.8051   15.2319   -9.5586 C   0  0  0  0  0  0  0  0  0  0  0  0
   36.4742   14.9237  -10.1273 C   0  0  0  0  0  0  0  0  0  0  0  0
   36.5761   14.2476  -11.4627 C   0  0  0  0  0  0  0  0  0  0  0  0
   35.7936   16.2594  -10.3409 C   0  0  0  0  0  0  0  0  0  0  0  0
   35.7101   14.1616   -9.2553 O   0  0  0  0  0  0  0  0  0  0  0  0
   36.1943   14.1353   -8.3779 H   0  0  0  0  0  0  0  0  0  0  0  0
   47.0224   15.1628  -10.7905 C   0  0  0  0  0  0  0  0  0  0  0  0
   47.3848   15.9782  -11.8813 N   0  0  0  0  0  0  0  0  0  0  0  0
   46.5629   16.5425  -12.2650 H   0  0  0  0  0  0  0  0  0  0  0  0
   47.5080   18.2565  -11.1367 C   0  0  0  0  0  0  0  0  0  0  0  0
   48.3318   17.0185  -11.4391 C   0  0  0  0  0  0  0  0  0  0  0  0
   48.9582   16.5010  -10.1634 C   0  0  0  0  0  0  0  0  0  0  0  0
 30 31  1  0  0  0
 31 32  1  0  0  0
 31 28  1  0  0  0
 28 27  1  0  0  0
 27  1  1  0  0  0
  1  2  2  0  0  0
  2  3  1  0  0  0
  3  4  2  0  0  0
  4  5  1  0  0  0
  5  6  2  0  0  0
  6  7  1  0  0  0
  7  8  2  0  0  0
  8  9  1  0  0  0
  9 10  2  0  0  0
 10 11  1  0  0  0
 11 12  1  0  0  0
 12 13  1  0  0  0
 13 14  1  0  0  0
  7 20  1  0  0  0
 20 21  3  0  0  0
 21 22  1  0  0  0
 22 23  1  0  0  0
 22 24  1  0  0  0
 22 25  1  0  0  0
  2 15  1  0  0  0
 15 16  1  0  0  0
 15 17  2  0  0  0
 14  1  1  0  0  0
 14  4  1  0  0  0
 10  5  1  0  0  0
 28 29  1  0  0  0
 25 26  1  0  0  0
 16 18  1  0  0  0
 16 19  1  0  0  0
M  END
> <minimizedAffinity>
-3.93046

> <CNNscore>
0.3148929775

> <CNNaffinity>
5.1424083710

> <CNN_VS>
1.6193082333

> <CNNaffinity_variance>
0.5468601584

$$$$
[H]OC(C#Cc1c([H])c([H])c2c(c1[H])-c1nc(C(=O)N([H])[H])c(C([H])([H])N([H])C([H])(C([H])([H])[H])C([H])([H])[H])n1C([H])([H])C([H])([H])O2)(C([H])([H])[H])C([H])([H])[H]


 32 34  0  0  0  0  0  0  0  0999 V2000
   38.6512   16.5760   -7.5901 C   0  0  0  0  0  0  0  0  0  0  0  0
   37.3797   17.0967   -7.2393 C   0  0  0  0  0  0  0  0  0  0  0  0
   36.5745   16.8740   -8.2748 N   0  0  0  0  0  0  0  0  0  0  0  0
   37.2584   16.2604   -9.2204 C   0  0  0  0  0  0  0  0  0  0  0  0
   36.7083   15.8642  -10.5190 C   0  0  0  0  0  0  0  0  0  0  0  0
   35.3157   15.7561  -10.4703 C   0  0  0  0  0  0  0  0  0  0  0  0
   34.6175   15.3954  -11.5968 C   0  0  0  0  0  0  0  0  0  0  0  0
   35.3296   15.1424  -12.7795 C   0  0  0  0  0  0  0  0  0  0  0  0
   36.7032   15.2467  -12.8371 C   0  0  0  0  0  0  0  0  0  0  0  0
   37.3825   15.6100  -11.6947 C   0  0  0  0  0  0  0  0  0  0  0  0
   38.7788   15.6845  -11.8750 O   0  0  0  0  0  0  0  0  0  0  0  0
   39.7714   16.0950  -10.9407 C   0  0  0  0  0  0  0  0  0  0  0  0
   39.5527   15.3912   -9.5983 C   0  0  0  0  0  0  0  0  0  0  0  0
   38.5629   16.0632   -8.8084 N   0  0  0  0  0  0  0  0  0  0  0  0
   37.0233   17.7438   -5.9700 C   0  0  0  0  0  0  0  0  0  0  0  0
   37.0501   19.1566   -5.8716 N   0  0  0  0  0  0  0  0  0  0  0  0
   36.6997   17.0706   -4.9842 O   0  0  0  0  0  0  0  0  0  0  0  0
   36.2795   19.7887   -6.1388 H   0  0  0  0  0  0  0  0  0  0  0  0
   37.9217   19.5894   -5.4979 H   0  0  0  0  0  0  0  0  0  0  0  0
   33.1874   15.2854  -11.5431 C   0  0  0  0  0  0  0  0  0  0  0  0
   31.9855   15.1995  -11.5181 C   0  0  0  0  0  0  0  0  0  0  0  0
   30.5092   15.0971  -11.5128 C   0  0  0  0  0  0  0  0  0  0  0  0
   29.9581   14.9855  -10.1220 C   0  0  0  0  0  0  0  0  0  0  0  0
   30.1788   13.8112  -12.2410 C   0  0  0  0  0  0  0  0  0  0  0  0
   29.9210   16.1599  -12.1834 O   0  0  0  0  0  0  0  0  0  0  0  0
   30.6535   16.6635  -12.6469 H   0  0  0  0  0  0  0  0  0  0  0  0
   39.7682   16.6739   -6.6396 C   0  0  0  0  0  0  0  0  0  0  0  0
   41.0601   16.9860   -7.1084 N   0  0  0  0  0  0  0  0  0  0  0  0
   41.3615   17.9792   -6.8559 H   0  0  0  0  0  0  0  0  0  0  0  0
   42.6331   15.2105   -7.4738 C   0  0  0  0  0  0  0  0  0  0  0  0
   42.0602   16.1452   -6.4246 C   0  0  0  0  0  0  0  0  0  0  0  0
   43.1395   17.0872   -5.9395 C   0  0  0  0  0  0  0  0  0  0  0  0
 30 31  1  0  0  0
 31 32  1  0  0  0
 31 28  1  0  0  0
 28 27  1  0  0  0
 27  1  1  0  0  0
  1  2  2  0  0  0
  2  3  1  0  0  0
  3  4  2  0  0  0
  4  5  1  0  0  0
  5  6  2  0  0  0
  6  7  1  0  0  0
  7  8  2  0  0  0
  8  9  1  0  0  0
  9 10  2  0  0  0
 10 11  1  0  0  0
 11 12  1  0  0  0
 12 13  1  0  0  0
 13 14  1  0  0  0
  7 20  1  0  0  0
 20 21  3  0  0  0
 21 22  1  0  0  0
 22 23  1  0  0  0
 22 24  1  0  0  0
 22 25  1  0  0  0
  2 15  1  0  0  0
 15 16  1  0  0  0
 15 17  2  0  0  0
 14  1  1  0  0  0
 14  4  1  0  0  0
 10  5  1  0  0  0
 28 29  1  0  0  0
 25 26  1  0  0  0
 16 18  1  0  0  0
 16 19  1  0  0  0
M  END
> <minimizedAffinity>
-3.67791

> <CNNscore>
0.3084227145

> <CNNaffinity>
5.5477876663

> <CNN_VS>
1.7110637426

> <CNNaffinity_variance>
0.6084534526

$$$$
[H]OC(C#Cc1c([H])c([H])c2c(c1[H])-c1nc(C(=O)N([H])[H])c(C([H])([H])N([H])C([H])(C([H])([H])[H])C([H])([H])[H])n1C([H])([H])C([H])([H])O2)(C([H])([H])[H])C([H])([H])[H]


 32 34  0  0  0  0  0  0  0  0999 V2000
   36.4011   15.2461  -12.3790 C   0  0  0  0  0  0  0  0  0  0  0  0
   37.6743   15.2416  -11.7545 C   0  0  0  0  0  0  0  0  0  0  0  0
   38.4875   14.5460  -12.5450 N   0  0  0  0  0  0  0  0  0  0  0  0
   37.8069   14.1320  -13.5956 C   0  0  0  0  0  0  0  0  0  0  0  0
   38.3659   13.3219  -14.6806 C   0  0  0  0  0  0  0  0  0  0  0  0
   39.7568   13.4442  -14.7426 C   0  0  0  0  0  0  0  0  0  0  0  0
   40.4625   12.7545  -15.6981 C   0  0  0  0  0  0  0  0  0  0  0  0
   39.7597   11.9365  -16.5963 C   0  0  0  0  0  0  0  0  0  0  0  0
   38.3878   11.8094  -16.5426 C   0  0  0  0  0  0  0  0  0  0  0  0
   37.7009   12.5107  -15.5758 C   0  0  0  0  0  0  0  0  0  0  0  0
   36.3072   12.3016  -15.6183 O   0  0  0  0  0  0  0  0  0  0  0  0
   35.3096   12.8024  -14.7348 C   0  0  0  0  0  0  0  0  0  0  0  0
   35.5078   14.3050  -14.5157 C   0  0  0  0  0  0  0  0  0  0  0  0
   36.4964   14.5629  -13.5101 N   0  0  0  0  0  0  0  0  0  0  0  0
   38.0245   15.8931  -10.4857 C   0  0  0  0  0  0  0  0  0  0  0  0
   38.3876   17.2623  -10.4775 N   0  0  0  0  0  0  0  0  0  0  0  0
   38.0066   15.2613   -9.4225 O   0  0  0  0  0  0  0  0  0  0  0  0
   37.7285   18.0548  -10.4310 H   0  0  0  0  0  0  0  0  0  0  0  0
   39.4054   17.4830  -10.5221 H   0  0  0  0  0  0  0  0  0  0  0  0
   41.8908   12.8826  -15.7588 C   0  0  0  0  0  0  0  0  0  0  0  0
   43.0882   13.0111  -15.8080 C   0  0  0  0  0  0  0  0  0  0  0  0
   44.5558   13.1933  -15.8610 C   0  0  0  0  0  0  0  0  0  0  0  0
   45.1793   12.4134  -16.9806 C   0  0  0  0  0  0  0  0  0  0  0  0
   45.0916   12.6346  -14.5595 C   0  0  0  0  0  0  0  0  0  0  0  0
   44.9011   14.5340  -15.9533 O   0  0  0  0  0  0  0  0  0  0  0  0
   44.0664   15.0689  -15.8042 H   0  0  0  0  0  0  0  0  0  0  0  0
   35.2758   15.9419  -11.7386 C   0  0  0  0  0  0  0  0  0  0  0  0
   34.2513   15.1954  -11.1227 N   0  0  0  0  0  0  0  0  0  0  0  0
   34.0821   15.4861  -10.1088 H   0  0  0  0  0  0  0  0  0  0  0  0
   32.5783   14.2292  -12.5466 C   0  0  0  0  0  0  0  0  0  0  0  0
   32.9599   15.4793  -11.7756 C   0  0  0  0  0  0  0  0  0  0  0  0
   31.9666   15.7103  -10.6587 C   0  0  0  0  0  0  0  0  0  0  0  0
 30 31  1  0  0  0
 31 32  1  0  0  0
 31 28  1  0  0  0
 28 27  1  0  0  0
 27  1  1  0  0  0
  1  2  2  0  0  0
  2  3  1  0  0  0
  3  4  2  0  0  0
  4  5  1  0  0  0
  5  6  2  0  0  0
  6  7  1  0  0  0
  7  8  2  0  0  0
  8  9  1  0  0  0
  9 10  2  0  0  0
 10 11  1  0  0  0
 11 12  1  0  0  0
 12 13  1  0  0  0
 13 14  1  0  0  0
  7 20  1  0  0  0
 20 21  3  0  0  0
 21 22  1  0  0  0
 22 23  1  0  0  0
 22 24  1  0  0  0
 22 25  1  0  0  0
  2 15  1  0  0  0
 15 16  1  0  0  0
 15 17  2  0  0  0
 14  1  1  0  0  0
 14  4  1  0  0  0
 10  5  1  0  0  0
 28 29  1  0  0  0
 25 26  1  0  0  0
 16 18  1  0  0  0
 16 19  1  0  0  0
M  END
> <minimizedAffinity>
-8.36497

> <CNNscore>
0.3073017895

> <CNNaffinity>
6.1215715408

> <CNN_VS>
1.8811699152

> <CNNaffinity_variance>
0.0670037046

$$$$
[H]OC(C#Cc1c([H])c([H])c2c(c1[H])-c1nc(C(=O)N([H])[H])c(C([H])([H])N([H])C([H])(C([H])([H])[H])C([H])([H])[H])n1C([H])([H])C([H])([H])O2)(C([H])([H])[H])C([H])([H])[H]


 32 34  0  0  0  0  0  0  0  0999 V2000
   41.6873   14.6026  -14.2811 C   0  0  0  0  0  0  0  0  0  0  0  0
   41.5217   13.3930  -15.0024 C   0  0  0  0  0  0  0  0  0  0  0  0
   40.2522   13.0256  -14.8500 N   0  0  0  0  0  0  0  0  0  0  0  0
   39.6397   13.9167  -14.0957 C   0  0  0  0  0  0  0  0  0  0  0  0
   38.2319   13.8411  -13.6979 C   0  0  0  0  0  0  0  0  0  0  0  0
   37.4998   13.0291  -14.5687 C   0  0  0  0  0  0  0  0  0  0  0  0
   36.1569   12.8343  -14.3563 C   0  0  0  0  0  0  0  0  0  0  0  0
   35.5494   13.4631  -13.2584 C   0  0  0  0  0  0  0  0  0  0  0  0
   36.2635   14.2656  -12.3940 C   0  0  0  0  0  0  0  0  0  0  0  0
   37.6094   14.4466  -12.6267 C   0  0  0  0  0  0  0  0  0  0  0  0
   38.2324   15.2841  -11.6790 O   0  0  0  0  0  0  0  0  0  0  0  0
   39.6100   15.6264  -11.5701 C   0  0  0  0  0  0  0  0  0  0  0  0
   40.1558   16.0504  -12.9367 C   0  0  0  0  0  0  0  0  0  0  0  0
   40.5235   14.9147  -13.7305 N   0  0  0  0  0  0  0  0  0  0  0  0
   42.5539   12.6930  -15.7780 C   0  0  0  0  0  0  0  0  0  0  0  0
   43.8214   12.4459  -15.1959 N   0  0  0  0  0  0  0  0  0  0  0  0
   42.3309   12.3158  -16.9347 O   0  0  0  0  0  0  0  0  0  0  0  0
   44.0569   11.6386  -14.5980 H   0  0  0  0  0  0  0  0  0  0  0  0
   44.5755   13.1390  -15.3900 H   0  0  0  0  0  0  0  0  0  0  0  0
   35.4082   11.9998  -15.2526 C   0  0  0  0  0  0  0  0  0  0  0  0
   34.7954   11.2851  -16.0052 C   0  0  0  0  0  0  0  0  0  0  0  0
   34.0599   10.3888  -16.9247 C   0  0  0  0  0  0  0  0  0  0  0  0
   32.6674   10.8782  -17.1931 C   0  0  0  0  0  0  0  0  0  0  0  0
   33.9482    9.0591  -16.2088 C   0  0  0  0  0  0  0  0  0  0  0  0
   34.7467   10.2041  -18.1161 O   0  0  0  0  0  0  0  0  0  0  0  0
   35.6585   10.6045  -18.0010 H   0  0  0  0  0  0  0  0  0  0  0  0
   42.9996   15.2644  -14.2561 C   0  0  0  0  0  0  0  0  0  0  0  0
   43.4899   15.7997  -13.0481 N   0  0  0  0  0  0  0  0  0  0  0  0
   42.7743   15.7538  -12.2564 H   0  0  0  0  0  0  0  0  0  0  0  0
   45.0992   14.1517  -13.7221 C   0  0  0  0  0  0  0  0  0  0  0  0
   44.6027   14.9724  -12.5463 C   0  0  0  0  0  0  0  0  0  0  0  0
   45.6810   15.9391  -12.1100 C   0  0  0  0  0  0  0  0  0  0  0  0
 30 31  1  0  0  0
 31 32  1  0  0  0
 31 28  1  0  0  0
 28 27  1  0  0  0
 27  1  1  0  0  0
  1  2  2  0  0  0
  2  3  1  0  0  0
  3  4  2  0  0  0
  4  5  1  0  0  0
  5  6  2  0  0  0
  6  7  1  0  0  0
  7  8  2  0  0  0
  8  9  1  0  0  0
  9 10  2  0  0  0
 10 11  1  0  0  0
 11 12  1  0  0  0
 12 13  1  0  0  0
 13 14  1  0  0  0
  7 20  1  0  0  0
 20 21  3  0  0  0
 21 22  1  0  0  0
 22 23  1  0  0  0
 22 24  1  0  0  0
 22 25  1  0  0  0
  2 15  1  0  0  0
 15 16  1  0  0  0
 15 17  2  0  0  0
 14  1  1  0  0  0
 14  4  1  0  0  0
 10  5  1  0  0  0
 28 29  1  0  0  0
 25 26  1  0  0  0
 16 18  1  0  0  0
 16 19  1  0  0  0
M  END
> <minimizedAffinity>
-1.94764

> <CNNscore>
0.3018615544

> <CNNaffinity>
6.0099668503

> <CNN_VS>
1.8141779900

> <CNNaffinity_variance>
0.6444672942

$$$$
[H]O[C@]1(C#Cc2c([H])c([H])c3c(c2[H])-c2nc(C(=O)N([H])[H])sc2[C@](F)(C([H])([H])F)C([H])([H])O3)C(=O)N(C([H])([H])[H])C([H])([H])C1([H])[H]


 33 36  0  0  0  0  0  0  0  0999 V2000
   38.2936   14.3436  -12.9083 C   0  0  0  0  0  0  0  0  0  0  0  0
   39.5673   14.8447  -13.1730 C   0  0  0  0  0  0  0  0  0  0  0  0
   40.1574   14.5365  -14.3791 C   0  0  0  0  0  0  0  0  0  0  0  0
   39.5076   13.7476  -15.3129 C   0  0  0  0  0  0  0  0  0  0  0  0
   40.2536   13.5424  -16.4674 O   0  0  0  0  0  0  0  0  0  0  0  0
   39.8846   12.9841  -17.6992 C   0  0  0  0  0  0  0  0  0  0  0  0
   39.2547   11.6261  -17.5874 C   0  0  0  0  0  0  0  0  0  0  0  0
   39.1537   11.0872  -18.8535 F   0  0  0  0  0  0  0  0  0  0  0  0
   37.8731   11.7063  -17.0067 C   0  0  0  0  0  0  0  0  0  0  0  0
   36.4703   10.9225  -17.5824 S   0  0  0  0  0  0  0  0  0  0  0  0
   35.3507   11.5074  -16.4120 C   0  0  0  0  0  0  0  0  0  0  0  0
   36.1248   12.2674  -15.6533 N   0  0  0  0  0  0  0  0  0  0  0  0
   37.3825   12.3889  -15.9199 C   0  0  0  0  0  0  0  0  0  0  0  0
   38.2493   13.2468  -15.0628 C   0  0  0  0  0  0  0  0  0  0  0  0
   37.6735   13.5647  -13.8515 C   0  0  0  0  0  0  0  0  0  0  0  0
   33.9112   11.2317  -16.2913 C   0  0  0  0  0  0  0  0  0  0  0  0
   33.2958   11.2534  -15.0259 N   0  0  0  0  0  0  0  0  0  0  0  0
   33.2690   10.9857  -17.3061 O   0  0  0  0  0  0  0  0  0  0  0  0
   33.4306   10.4967  -14.3277 H   0  0  0  0  0  0  0  0  0  0  0  0
   32.6842   12.0528  -14.7772 H   0  0  0  0  0  0  0  0  0  0  0  0
   37.0426   14.8547  -10.6216 C   0  0  0  0  0  0  0  0  0  0  0  0
   37.6075   14.6165  -11.6772 C   0  0  0  0  0  0  0  0  0  0  0  0
   39.2392   16.3009   -7.2133 C   0  0  0  0  0  0  0  0  0  0  0  0
   38.0174   16.1550   -7.9681 N   0  0  0  0  0  0  0  0  0  0  0  0
   37.2526   17.2399   -8.5377 C   0  0  0  0  0  0  0  0  0  0  0  0
   36.0671   16.6074   -9.1988 C   0  0  0  0  0  0  0  0  0  0  0  0
   36.3911   15.1392   -9.3511 C   0  0  0  0  0  0  0  0  0  0  0  0
   35.2709   14.3374   -9.1470 O   0  0  0  0  0  0  0  0  0  0  0  0
   37.3812   14.9187   -8.2651 C   0  0  0  0  0  0  0  0  0  0  0  0
   37.6058   13.8037   -7.7093 O   0  0  0  0  0  0  0  0  0  0  0  0
   34.9096   13.9629   -9.9945 H   0  0  0  0  0  0  0  0  0  0  0  0
   40.1409   10.7250  -16.7631 C   0  0  0  0  0  0  0  0  0  0  0  0
   39.5877    9.4599  -16.8117 F   0  0  0  0  0  0  0  0  0  0  0  0
 23 24  1  0  0  0
 24 25  1  0  0  0
 25 26  1  0  0  0
 26 27  1  0  0  0
 27 28  1  0  0  0
 27 21  1  0  0  0
 21 22  3  0  0  0
 22  1  1  0  0  0
  1  2  2  0  0  0
  2  3  1  0  0  0
  3  4  2  0  0  0
  4  5  1  0  0  0
  5  6  1  0  0  0
  6  7  1  0  0  0
  7  8  1  0  0  0
  7 32  1  0  0  0
 32 33  1  0  0  0
  7  9  1  0  0  0
  9 10  1  0  0  0
 10 11  1  0  0  0
 11 12  2  0  0  0
 12 13  1  0  0  0
 13 14  1  0  0  0
 14 15  2  0  0  0
 11 16  1  0  0  0
 16 17  1  0  0  0
 16 18  2  0  0  0
 27 29  1  0  0  0
 29 30  2  0  0  0
 29 24  1  0  0  0
 15  1  1  0  0  0
 14  4  1  0  0  0
 13  9  2  0  0  0
 28 31  1  0  0  0
 17 19  1  0  0  0
 17 20  1  0  0  0
M  END
> <minimizedAffinity>
-7.22828

> <CNNscore>
0.4464903474

> <CNNaffinity>
6.8377900124

> <CNN_VS>
3.0530071259

> <CNNaffinity_variance>
0.2209165394

$$$$
[H]O[C@]1(C#Cc2c([H])c([H])c3c(c2[H])-c2nc(C(=O)N([H])[H])sc2[C@](F)(C([H])([H])F)C([H])([H])O3)C(=O)N(C([H])([H])[H])C([H])([H])C1([H])[H]


 33 36  0  0  0  0  0  0  0  0999 V2000
   37.2550   13.3080  -13.8323 C   0  0  0  0  0  0  0  0  0  0  0  0
   35.9940   12.7355  -13.9931 C   0  0  0  0  0  0  0  0  0  0  0  0
   35.7973   11.8617  -15.0397 C   0  0  0  0  0  0  0  0  0  0  0  0
   36.8230   11.5531  -15.9168 C   0  0  0  0  0  0  0  0  0  0  0  0
   36.4421   10.6564  -16.9079 O   0  0  0  0  0  0  0  0  0  0  0  0
   37.2155    9.9560  -17.8442 C   0  0  0  0  0  0  0  0  0  0  0  0
   38.1219   10.8307  -18.6607 C   0  0  0  0  0  0  0  0  0  0  0  0
   38.6466   10.0748  -19.6888 F   0  0  0  0  0  0  0  0  0  0  0  0
   39.2649   11.3553  -17.8417 C   0  0  0  0  0  0  0  0  0  0  0  0
   40.9137   11.3886  -18.2826 S   0  0  0  0  0  0  0  0  0  0  0  0
   41.5467   12.1134  -16.8546 C   0  0  0  0  0  0  0  0  0  0  0  0
   40.4523   12.2840  -16.1297 N   0  0  0  0  0  0  0  0  0  0  0  0
   39.3019   11.9187  -16.5892 C   0  0  0  0  0  0  0  0  0  0  0  0
   38.0729   12.1123  -15.7683 C   0  0  0  0  0  0  0  0  0  0  0  0
   38.2525   12.9844  -14.7161 C   0  0  0  0  0  0  0  0  0  0  0  0
   42.9404   12.4523  -16.5299 C   0  0  0  0  0  0  0  0  0  0  0  0
   43.9712   12.1213  -17.4289 N   0  0  0  0  0  0  0  0  0  0  0  0
   43.1793   13.0225  -15.4712 O   0  0  0  0  0  0  0  0  0  0  0  0
   44.3085   11.1474  -17.5557 H   0  0  0  0  0  0  0  0  0  0  0  0
   44.4133   12.8746  -17.9875 H   0  0  0  0  0  0  0  0  0  0  0  0
   37.8111   15.0029  -11.8642 C   0  0  0  0  0  0  0  0  0  0  0  0
   37.5448   14.2279  -12.7691 C   0  0  0  0  0  0  0  0  0  0  0  0
   34.8639   16.3724   -9.0409 C   0  0  0  0  0  0  0  0  0  0  0  0
   36.2284   16.0835   -9.4128 N   0  0  0  0  0  0  0  0  0  0  0  0
   37.0778   15.1031   -8.7775 C   0  0  0  0  0  0  0  0  0  0  0  0
   38.3968   15.1801   -9.4823 C   0  0  0  0  0  0  0  0  0  0  0  0
   38.1495   15.9138  -10.7802 C   0  0  0  0  0  0  0  0  0  0  0  0
   39.2119   16.7506  -11.1130 O   0  0  0  0  0  0  0  0  0  0  0  0
   36.9435   16.7219  -10.4628 C   0  0  0  0  0  0  0  0  0  0  0  0
   36.6238   17.7998  -11.0448 O   0  0  0  0  0  0  0  0  0  0  0  0
   39.7651   16.3886  -11.8559 H   0  0  0  0  0  0  0  0  0  0  0  0
   37.3235   11.9582  -19.2673 C   0  0  0  0  0  0  0  0  0  0  0  0
   36.2808   11.3834  -19.9683 F   0  0  0  0  0  0  0  0  0  0  0  0
 23 24  1  0  0  0
 24 25  1  0  0  0
 25 26  1  0  0  0
 26 27  1  0  0  0
 27 28  1  0  0  0
 27 21  1  0  0  0
 21 22  3  0  0  0
 22  1  1  0  0  0
  1  2  2  0  0  0
  2  3  1  0  0  0
  3  4  2  0  0  0
  4  5  1  0  0  0
  5  6  1  0  0  0
  6  7  1  0  0  0
  7  8  1  0  0  0
  7 32  1  0  0  0
 32 33  1  0  0  0
  7  9  1  0  0  0
  9 10  1  0  0  0
 10 11  1  0  0  0
 11 12  2  0  0  0
 12 13  1  0  0  0
 13 14  1  0  0  0
 14 15  2  0  0  0
 11 16  1  0  0  0
 16 17  1  0  0  0
 16 18  2  0  0  0
 27 29  1  0  0  0
 29 30  2  0  0  0
 29 24  1  0  0  0
 15  1  1  0  0  0
 14  4  1  0  0  0
 13  9  2  0  0  0
 28 31  1  0  0  0
 17 19  1  0  0  0
 17 20  1  0  0  0
M  END
> <minimizedAffinity>
-6.14437

> <CNNscore>
0.4431501031

> <CNNaffinity>
6.8220367432

> <CNN_VS>
3.0231862068

> <CNNaffinity_variance>
0.4357588291

$$$$
[H]O[C@]1(C#Cc2c([H])c([H])c3c(c2[H])-c2nc(C(=O)N([H])[H])sc2[C@](F)(C([H])([H])F)C([H])([H])O3)C(=O)N(C([H])([H])[H])C([H])([H])C1([H])[H]


 33 36  0  0  0  0  0  0  0  0999 V2000
   40.7037   15.6870  -12.6337 C   0  0  0  0  0  0  0  0  0  0  0  0
   39.8801   15.9289  -11.5351 C   0  0  0  0  0  0  0  0  0  0  0  0
   38.6581   15.2956  -11.4776 C   0  0  0  0  0  0  0  0  0  0  0  0
   38.2490   14.4367  -12.4833 C   0  0  0  0  0  0  0  0  0  0  0  0
   36.9912   13.8907  -12.2565 O   0  0  0  0  0  0  0  0  0  0  0  0
   36.3205   12.8515  -12.9163 C   0  0  0  0  0  0  0  0  0  0  0  0
   36.2274   13.0350  -14.4032 C   0  0  0  0  0  0  0  0  0  0  0  0
   35.3572   12.0891  -14.9052 F   0  0  0  0  0  0  0  0  0  0  0  0
   37.5590   12.8374  -15.0666 C   0  0  0  0  0  0  0  0  0  0  0  0
   37.8818   11.9165  -16.4672 S   0  0  0  0  0  0  0  0  0  0  0  0
   39.5792   12.1889  -16.5680 C   0  0  0  0  0  0  0  0  0  0  0  0
   39.7906   12.9696  -15.5201 N   0  0  0  0  0  0  0  0  0  0  0  0
   38.8098   13.3114  -14.7527 C   0  0  0  0  0  0  0  0  0  0  0  0
   39.0537   14.1899  -13.5734 C   0  0  0  0  0  0  0  0  0  0  0  0
   40.2729   14.8315  -13.6153 C   0  0  0  0  0  0  0  0  0  0  0  0
   40.5389   11.6836  -17.5611 C   0  0  0  0  0  0  0  0  0  0  0  0
   41.8762   12.1208  -17.5309 N   0  0  0  0  0  0  0  0  0  0  0  0
   40.1510   10.8830  -18.4046 O   0  0  0  0  0  0  0  0  0  0  0  0
   42.1589   13.0708  -17.8406 H   0  0  0  0  0  0  0  0  0  0  0  0
   42.6099   11.4738  -17.1875 H   0  0  0  0  0  0  0  0  0  0  0  0
   43.0817   16.8378  -12.9093 C   0  0  0  0  0  0  0  0  0  0  0  0
   41.9917   16.3057  -12.7720 C   0  0  0  0  0  0  0  0  0  0  0  0
   46.5958   15.5025  -10.8113 C   0  0  0  0  0  0  0  0  0  0  0  0
   45.9546   16.1574  -11.9266 N   0  0  0  0  0  0  0  0  0  0  0  0
   46.0292   15.7274  -13.3034 C   0  0  0  0  0  0  0  0  0  0  0  0
   45.2354   16.7233  -14.0911 C   0  0  0  0  0  0  0  0  0  0  0  0
   44.3779   17.4731  -13.0979 C   0  0  0  0  0  0  0  0  0  0  0  0
   44.2563   18.8199  -13.4311 O   0  0  0  0  0  0  0  0  0  0  0  0
   45.1514   17.3271  -11.8375 C   0  0  0  0  0  0  0  0  0  0  0  0
   45.0899   18.1255  -10.8568 O   0  0  0  0  0  0  0  0  0  0  0  0
   43.3619   19.0417  -13.8050 H   0  0  0  0  0  0  0  0  0  0  0  0
   35.6634   14.4007  -14.7090 C   0  0  0  0  0  0  0  0  0  0  0  0
   34.2873   14.2772  -14.7166 F   0  0  0  0  0  0  0  0  0  0  0  0
 23 24  1  0  0  0
 24 25  1  0  0  0
 25 26  1  0  0  0
 26 27  1  0  0  0
 27 28  1  0  0  0
 27 21  1  0  0  0
 21 22  3  0  0  0
 22  1  1  0  0  0
  1  2  2  0  0  0
  2  3  1  0  0  0
  3  4  2  0  0  0
  4  5  1  0  0  0
  5  6  1  0  0  0
  6  7  1  0  0  0
  7  8  1  0  0  0
  7 32  1  0  0  0
 32 33  1  0  0  0
  7  9  1  0  0  0
  9 10  1  0  0  0
 10 11  1  0  0  0
 11 12  2  0  0  0
 12 13  1  0  0  0
 13 14  1  0  0  0
 14 15  2  0  0  0
 11 16  1  0  0  0
 16 17  1  0  0  0
 16 18  2  0  0  0
 27 29  1  0  0  0
 29 30  2  0  0  0
 29 24  1  0  0  0
 15  1  1  0  0  0
 14  4  1  0  0  0
 13  9  2  0  0  0
 28 31  1  0  0  0
 17 19  1  0  0  0
 17 20  1  0  0  0
M  END
> <minimizedAffinity>
-8.09556

> <CNNscore>
0.3969309032

> <CNNaffinity>
6.4410543442

> <CNN_VS>
2.5566534996

> <CNNaffinity_variance>
0.4854572713

$$$$
[H]O[C@]1(C#Cc2c([H])c([H])c3c(c2[H])-c2nc(C(=O)N([H])[H])sc2[C@](F)(C([H])([H])F)C([H])([H])O3)C(=O)N(C([H])([H])[H])C([H])([H])C1([H])[H]


 33 36  0  0  0  0  0  0  0  0999 V2000
   36.1160   16.9229   -6.1435 C   0  0  0  0  0  0  0  0  0  0  0  0
   36.3429   18.1390   -5.5007 C   0  0  0  0  0  0  0  0  0  0  0  0
   35.2596   18.8393   -5.0172 C   0  0  0  0  0  0  0  0  0  0  0  0
   33.9712   18.3538   -5.1618 C   0  0  0  0  0  0  0  0  0  0  0  0
   33.0076   19.1923   -4.6142 O   0  0  0  0  0  0  0  0  0  0  0  0
   31.6423   18.9754   -4.3811 C   0  0  0  0  0  0  0  0  0  0  0  0
   30.8844   18.5130   -5.5915 C   0  0  0  0  0  0  0  0  0  0  0  0
   29.5355   18.5613   -5.3056 F   0  0  0  0  0  0  0  0  0  0  0  0
   31.2312   17.0976   -5.9505 C   0  0  0  0  0  0  0  0  0  0  0  0
   30.1438   15.8428   -6.3464 S   0  0  0  0  0  0  0  0  0  0  0  0
   31.2895   14.5863   -6.6183 C   0  0  0  0  0  0  0  0  0  0  0  0
   32.4343   15.2097   -6.3880 N   0  0  0  0  0  0  0  0  0  0  0  0
   32.4423   16.4572   -6.0541 C   0  0  0  0  0  0  0  0  0  0  0  0
   33.7344   17.1539   -5.7950 C   0  0  0  0  0  0  0  0  0  0  0  0
   34.8293   16.4662   -6.2727 C   0  0  0  0  0  0  0  0  0  0  0  0
   31.0526   13.1875   -7.0051 C   0  0  0  0  0  0  0  0  0  0  0  0
   30.7833   12.8664   -8.3486 N   0  0  0  0  0  0  0  0  0  0  0  0
   31.0949   12.3194   -6.1405 O   0  0  0  0  0  0  0  0  0  0  0  0
   29.8712   13.0747   -8.7991 H   0  0  0  0  0  0  0  0  0  0  0  0
   31.5200   12.4046   -8.9133 H   0  0  0  0  0  0  0  0  0  0  0  0
   38.1070   15.4543   -7.1100 C   0  0  0  0  0  0  0  0  0  0  0  0
   37.1878   16.1305   -6.6764 C   0  0  0  0  0  0  0  0  0  0  0  0
   41.8404   15.1747   -4.9848 C   0  0  0  0  0  0  0  0  0  0  0  0
   40.8637   14.6520   -5.9103 N   0  0  0  0  0  0  0  0  0  0  0  0
   40.1246   13.4229   -5.7393 C   0  0  0  0  0  0  0  0  0  0  0  0
   39.2604   13.2878   -6.9547 C   0  0  0  0  0  0  0  0  0  0  0  0
   39.2156   14.6511   -7.6053 C   0  0  0  0  0  0  0  0  0  0  0  0
   39.2167   14.5624   -8.9951 O   0  0  0  0  0  0  0  0  0  0  0  0
   40.4813   15.2697   -7.1324 C   0  0  0  0  0  0  0  0  0  0  0  0
   41.1012   16.1947   -7.7349 O   0  0  0  0  0  0  0  0  0  0  0  0
   38.3253   14.7563   -9.3910 H   0  0  0  0  0  0  0  0  0  0  0  0
   31.1538   19.4492   -6.7438 C   0  0  0  0  0  0  0  0  0  0  0  0
   30.5662   18.8918   -7.8632 F   0  0  0  0  0  0  0  0  0  0  0  0
 23 24  1  0  0  0
 24 25  1  0  0  0
 25 26  1  0  0  0
 26 27  1  0  0  0
 27 28  1  0  0  0
 27 21  1  0  0  0
 21 22  3  0  0  0
 22  1  1  0  0  0
  1  2  2  0  0  0
  2  3  1  0  0  0
  3  4  2  0  0  0
  4  5  1  0  0  0
  5  6  1  0  0  0
  6  7  1  0  0  0
  7  8  1  0  0  0
  7 32  1  0  0  0
 32 33  1  0  0  0
  7  9  1  0  0  0
  9 10  1  0  0  0
 10 11  1  0  0  0
 11 12  2  0  0  0
 12 13  1  0  0  0
 13 14  1  0  0  0
 14 15  2  0  0  0
 11 16  1  0  0  0
 16 17  1  0  0  0
 16 18  2  0  0  0
 27 29  1  0  0  0
 29 30  2  0  0  0
 29 24  1  0  0  0
 15  1  1  0  0  0
 14  4  1  0  0  0
 13  9  2  0  0  0
 28 31  1  0  0  0
 17 19  1  0  0  0
 17 20  1  0  0  0
M  END
> <minimizedAffinity>
-5.82179

> <CNNscore>
0.2604706585

> <CNNaffinity>
5.3111662865

> <CNN_VS>
1.3834029436

> <CNNaffinity_variance>
0.5066660047

$$$$
[H]O[C@]1(C#Cc2c([H])c([H])c3c(c2[H])-c2nc(C(=O)N([H])[H])sc2[C@](F)(C([H])([H])F)C([H])([H])O3)C(=O)N(C([H])([H])[H])C([H])([H])C1([H])[H]


 33 36  0  0  0  0  0  0  0  0999 V2000
   40.0791   12.8320  -15.3924 C   0  0  0  0  0  0  0  0  0  0  0  0
   40.4478   12.2264  -16.5928 C   0  0  0  0  0  0  0  0  0  0  0  0
   39.4558   11.7387  -17.4149 C   0  0  0  0  0  0  0  0  0  0  0  0
   38.1205   11.8432  -17.0649 C   0  0  0  0  0  0  0  0  0  0  0  0
   37.2636   11.2973  -18.0133 O   0  0  0  0  0  0  0  0  0  0  0  0
   35.8687   11.3765  -18.1286 C   0  0  0  0  0  0  0  0  0  0  0  0
   35.1313   10.9650  -16.8876 C   0  0  0  0  0  0  0  0  0  0  0  0
   33.7900   10.8587  -17.1929 F   0  0  0  0  0  0  0  0  0  0  0  0
   35.2783   11.9847  -15.7963 C   0  0  0  0  0  0  0  0  0  0  0  0
   34.0389   12.6149  -14.8060 S   0  0  0  0  0  0  0  0  0  0  0  0
   34.9921   13.6848  -13.8511 C   0  0  0  0  0  0  0  0  0  0  0  0
   36.2016   13.4905  -14.3529 N   0  0  0  0  0  0  0  0  0  0  0  0
   36.3800   12.6533  -15.3198 C   0  0  0  0  0  0  0  0  0  0  0  0
   37.7439   12.4392  -15.8818 C   0  0  0  0  0  0  0  0  0  0  0  0
   38.7489   12.9217  -15.0711 C   0  0  0  0  0  0  0  0  0  0  0  0
   34.5683   14.5790  -12.7632 C   0  0  0  0  0  0  0  0  0  0  0  0
   33.2636   15.1063  -12.7558 N   0  0  0  0  0  0  0  0  0  0  0  0
   35.3684   14.8504  -11.8749 O   0  0  0  0  0  0  0  0  0  0  0  0
   32.9642   15.8617  -13.4024 H   0  0  0  0  0  0  0  0  0  0  0  0
   32.5722   14.7297  -12.0813 H   0  0  0  0  0  0  0  0  0  0  0  0
   41.8582   13.8220  -13.6866 C   0  0  0  0  0  0  0  0  0  0  0  0
   41.0488   13.3662  -14.4785 C   0  0  0  0  0  0  0  0  0  0  0  0
   46.0183   12.7145  -13.7025 C   0  0  0  0  0  0  0  0  0  0  0  0
   44.9500   13.6337  -13.3902 N   0  0  0  0  0  0  0  0  0  0  0  0
   44.8092   14.9657  -13.9307 C   0  0  0  0  0  0  0  0  0  0  0  0
   43.5767   15.5387  -13.3020 C   0  0  0  0  0  0  0  0  0  0  0  0
   42.8046   14.3735  -12.7276 C   0  0  0  0  0  0  0  0  0  0  0  0
   42.1935   14.7017  -11.5199 O   0  0  0  0  0  0  0  0  0  0  0  0
   43.8730   13.3657  -12.5016 C   0  0  0  0  0  0  0  0  0  0  0  0
   43.8134   12.4296  -11.6514 O   0  0  0  0  0  0  0  0  0  0  0  0
   41.2110   14.8260  -11.6103 H   0  0  0  0  0  0  0  0  0  0  0  0
   35.6188    9.6101  -16.4367 C   0  0  0  0  0  0  0  0  0  0  0  0
   34.5732    8.7246  -16.6147 F   0  0  0  0  0  0  0  0  0  0  0  0
 23 24  1  0  0  0
 24 25  1  0  0  0
 25 26  1  0  0  0
 26 27  1  0  0  0
 27 28  1  0  0  0
 27 21  1  0  0  0
 21 22  3  0  0  0
 22  1  1  0  0  0
  1  2  2  0  0  0
  2  3  1  0  0  0
  3  4  2  0  0  0
  4  5  1  0  0  0
  5  6  1  0  0  0
  6  7  1  0  0  0
  7  8  1  0  0  0
  7 32  1  0  0  0
 32 33  1  0  0  0
  7  9  1  0  0  0
  9 10  1  0  0  0
 10 11  1  0  0  0
 11 12  2  0  0  0
 12 13  1  0  0  0
 13 14  1  0  0  0
 14 15  2  0  0  0
 11 16  1  0  0  0
 16 17  1  0  0  0
 16 18  2  0  0  0
 27 29  1  0  0  0
 29 30  2  0  0  0
 29 24  1  0  0  0
 15  1  1  0  0  0
 14  4  1  0  0  0
 13  9  2  0  0  0
 28 31  1  0  0  0
 17 19  1  0  0  0
 17 20  1  0  0  0
M  END
> <minimizedAffinity>
-7.80987

> <CNNscore>
0.2250861824

> <CNNaffinity>
6.5880074501

> <CNN_VS>
1.4828693867

> <CNNaffinity_variance>
0.4772387445

$$$$
[H]O[C@]1(C#Cc2c([H])c([H])c3c(c2[H])-c2nc(C(=O)N([H])[H])sc2[C@](F)(C([H])([H])F)C([H])([H])O3)C(=O)N(C([H])([H])[H])C([H])([H])C1([H])[H]


 33 36  0  0  0  0  0  0  0  0999 V2000
   37.3940   16.1733   -9.1405 C   0  0  0  0  0  0  0  0  0  0  0  0
   38.7038   16.1946   -9.6176 C   0  0  0  0  0  0  0  0  0  0  0  0
   38.9405   15.7737  -10.9078 C   0  0  0  0  0  0  0  0  0  0  0  0
   37.9071   15.3377  -11.7193 C   0  0  0  0  0  0  0  0  0  0  0  0
   38.3326   14.9526  -12.9850 O   0  0  0  0  0  0  0  0  0  0  0  0
   37.5943   14.6487  -14.1373 C   0  0  0  0  0  0  0  0  0  0  0  0
   36.5344   13.6075  -13.9238 C   0  0  0  0  0  0  0  0  0  0  0  0
   36.0433   13.2267  -15.1557 F   0  0  0  0  0  0  0  0  0  0  0  0
   35.3899   14.1448  -13.1151 C   0  0  0  0  0  0  0  0  0  0  0  0
   33.7250   13.9631  -13.4449 S   0  0  0  0  0  0  0  0  0  0  0  0
   33.0997   14.8356  -12.0985 C   0  0  0  0  0  0  0  0  0  0  0  0
   34.2087   15.2112  -11.4809 N   0  0  0  0  0  0  0  0  0  0  0  0
   35.3636   14.8855  -11.9583 C   0  0  0  0  0  0  0  0  0  0  0  0
   36.6092   15.3120  -11.2593 C   0  0  0  0  0  0  0  0  0  0  0  0
   36.3900   15.7365   -9.9663 C   0  0  0  0  0  0  0  0  0  0  0  0
   31.6984   15.0934  -11.7343 C   0  0  0  0  0  0  0  0  0  0  0  0
   30.6646   14.3877  -12.3773 N   0  0  0  0  0  0  0  0  0  0  0  0
   31.4560   15.9269  -10.8685 O   0  0  0  0  0  0  0  0  0  0  0  0
   30.3769   14.5887  -13.3547 H   0  0  0  0  0  0  0  0  0  0  0  0
   30.1688   13.6385  -11.8599 H   0  0  0  0  0  0  0  0  0  0  0  0
   36.7948   16.9641   -6.6767 C   0  0  0  0  0  0  0  0  0  0  0  0
   37.0605   16.5946   -7.8094 C   0  0  0  0  0  0  0  0  0  0  0  0
   33.8082   15.0442   -4.2421 C   0  0  0  0  0  0  0  0  0  0  0  0
   35.0078   15.8325   -4.3945 N   0  0  0  0  0  0  0  0  0  0  0  0
   36.3205   15.4556   -3.9243 C   0  0  0  0  0  0  0  0  0  0  0  0
   37.2301   16.5891   -4.2854 C   0  0  0  0  0  0  0  0  0  0  0  0
   36.5019   17.4121   -5.3228 C   0  0  0  0  0  0  0  0  0  0  0  0
   36.7367   18.7753   -5.1611 O   0  0  0  0  0  0  0  0  0  0  0  0
   35.0781   17.1015   -5.0317 C   0  0  0  0  0  0  0  0  0  0  0  0
   34.1026   17.8576   -5.3137 O   0  0  0  0  0  0  0  0  0  0  0  0
   37.3562   19.1404   -5.8480 H   0  0  0  0  0  0  0  0  0  0  0  0
   37.1440   12.3940  -13.2661 C   0  0  0  0  0  0  0  0  0  0  0  0
   36.1345   11.7655  -12.5627 F   0  0  0  0  0  0  0  0  0  0  0  0
 23 24  1  0  0  0
 24 25  1  0  0  0
 25 26  1  0  0  0
 26 27  1  0  0  0
 27 28  1  0  0  0
 27 21  1  0  0  0
 21 22  3  0  0  0
 22  1  1  0  0  0
  1  2  2  0  0  0
  2  3  1  0  0  0
  3  4  2  0  0  0
  4  5  1  0  0  0
  5  6  1  0  0  0
  6  7  1  0  0  0
  7  8  1  0  0  0
  7 32  1  0  0  0
 32 33  1  0  0  0
  7  9  1  0  0  0
  9 10  1  0  0  0
 10 11  1  0  0  0
 11 12  2  0  0  0
 12 13  1  0  0  0
 13 14  1  0  0  0
 14 15  2  0  0  0
 11 16  1  0  0  0
 16 17  1  0  0  0
 16 18  2  0  0  0
 27 29  1  0  0  0
 29 30  2  0  0  0
 29 24  1  0  0  0
 15  1  1  0  0  0
 14  4  1  0  0  0
 13  9  2  0  0  0
 28 31  1  0  0  0
 17 19  1  0  0  0
 17 20  1  0  0  0
M  END
> <minimizedAffinity>
-7.47714

> <CNNscore>
0.1704499125

> <CNNaffinity>
5.5618600845

> <CNN_VS>
0.9480185509

> <CNNaffinity_variance>
0.3830178380

$$$$
[H]O[C@]1(C#Cc2c([H])c([H])c3c(c2[H])-c2nc(C(=O)N([H])[H])sc2[C@](F)(C([H])([H])F)C([H])([H])O3)C(=O)N(C([H])([H])[H])C([H])([H])C1([H])[H]


 33 36  0  0  0  0  0  0  0  0999 V2000
   37.2372   16.0811   -9.0484 C   0  0  0  0  0  0  0  0  0  0  0  0
   38.5543   16.0748   -9.5055 C   0  0  0  0  0  0  0  0  0  0  0  0
   38.8011   15.6540  -10.7938 C   0  0  0  0  0  0  0  0  0  0  0  0
   37.7707   15.2449  -11.6229 C   0  0  0  0  0  0  0  0  0  0  0  0
   38.2068   14.8555  -12.8837 O   0  0  0  0  0  0  0  0  0  0  0  0
   37.4795   14.5732  -14.0485 C   0  0  0  0  0  0  0  0  0  0  0  0
   36.3933   13.5552  -13.8558 C   0  0  0  0  0  0  0  0  0  0  0  0
   35.9127   13.1908  -15.0967 F   0  0  0  0  0  0  0  0  0  0  0  0
   35.2490   14.1149  -13.0622 C   0  0  0  0  0  0  0  0  0  0  0  0
   33.5856   13.9721  -13.4180 S   0  0  0  0  0  0  0  0  0  0  0  0
   32.9596   14.8529  -12.0773 C   0  0  0  0  0  0  0  0  0  0  0  0
   34.0672   15.2008  -11.4412 N   0  0  0  0  0  0  0  0  0  0  0  0
   35.2216   14.8511  -11.9025 C   0  0  0  0  0  0  0  0  0  0  0  0
   36.4657   15.2465  -11.1827 C   0  0  0  0  0  0  0  0  0  0  0  0
   36.2363   15.6704   -9.8914 C   0  0  0  0  0  0  0  0  0  0  0  0
   31.5591   15.1407  -11.7332 C   0  0  0  0  0  0  0  0  0  0  0  0
   30.5213   14.4212  -12.3544 N   0  0  0  0  0  0  0  0  0  0  0  0
   31.3207   16.0110  -10.9034 O   0  0  0  0  0  0  0  0  0  0  0  0
   30.2422   14.5858  -13.3410 H   0  0  0  0  0  0  0  0  0  0  0  0
   30.0138   13.6990  -11.8106 H   0  0  0  0  0  0  0  0  0  0  0  0
   36.5830   16.8514   -6.5921 C   0  0  0  0  0  0  0  0  0  0  0  0
   36.8929   16.5042   -7.7206 C   0  0  0  0  0  0  0  0  0  0  0  0
   39.4633   18.1933   -3.6875 C   0  0  0  0  0  0  0  0  0  0  0  0
   38.1218   18.1480   -4.2187 N   0  0  0  0  0  0  0  0  0  0  0  0
   37.3812   19.2841   -4.7157 C   0  0  0  0  0  0  0  0  0  0  0  0
   36.0435   18.7554   -5.1321 C   0  0  0  0  0  0  0  0  0  0  0  0
   36.1904   17.2559   -5.2499 C   0  0  0  0  0  0  0  0  0  0  0  0
   35.0484   16.5876   -4.8155 O   0  0  0  0  0  0  0  0  0  0  0  0
   37.3256   16.9756   -4.3327 C   0  0  0  0  0  0  0  0  0  0  0  0
   37.5313   15.8668   -3.7575 O   0  0  0  0  0  0  0  0  0  0  0  0
   34.5120   16.2194   -5.5676 H   0  0  0  0  0  0  0  0  0  0  0  0
   36.9654   12.3256  -13.1944 C   0  0  0  0  0  0  0  0  0  0  0  0
   37.6768   11.6409  -14.1608 F   0  0  0  0  0  0  0  0  0  0  0  0
 23 24  1  0  0  0
 24 25  1  0  0  0
 25 26  1  0  0  0
 26 27  1  0  0  0
 27 28  1  0  0  0
 27 21  1  0  0  0
 21 22  3  0  0  0
 22  1  1  0  0  0
  1  2  2  0  0  0
  2  3  1  0  0  0
  3  4  2  0  0  0
  4  5  1  0  0  0
  5  6  1  0  0  0
  6  7  1  0  0  0
  7  8  1  0  0  0
  7 32  1  0  0  0
 32 33  1  0  0  0
  7  9  1  0  0  0
  9 10  1  0  0  0
 10 11  1  0  0  0
 11 12  2  0  0  0
 12 13  1  0  0  0
 13 14  1  0  0  0
 14 15  2  0  0  0
 11 16  1  0  0  0
 16 17  1  0  0  0
 16 18  2  0  0  0
 27 29  1  0  0  0
 29 30  2  0  0  0
 29 24  1  0  0  0
 15  1  1  0  0  0
 14  4  1  0  0  0
 13  9  2  0  0  0
 28 31  1  0  0  0
 17 19  1  0  0  0
 17 20  1  0  0  0
M  END
> <minimizedAffinity>
-7.21457

> <CNNscore>
0.1653394699

> <CNNaffinity>
5.5662126541

> <CNN_VS>
0.9203146696

> <CNNaffinity_variance>
0.4315594733

$$$$
[H]O[C@]1(C#Cc2c([H])c([H])c3c(c2[H])-c2nc(C(=O)N([H])[H])sc2[C@](F)(C([H])([H])F)C([H])([H])O3)C(=O)N(C([H])([H])[H])C([H])([H])C1([H])[H]


 33 36  0  0  0  0  0  0  0  0999 V2000
   37.0590   13.4333  -13.8105 C   0  0  0  0  0  0  0  0  0  0  0  0
   36.2109   12.7059  -14.6443 C   0  0  0  0  0  0  0  0  0  0  0  0
   36.7614   12.0186  -15.7037 C   0  0  0  0  0  0  0  0  0  0  0  0
   38.1249   12.0439  -15.9423 C   0  0  0  0  0  0  0  0  0  0  0  0
   38.4986   11.2948  -17.0517 O   0  0  0  0  0  0  0  0  0  0  0  0
   39.7697   10.9106  -17.5010 C   0  0  0  0  0  0  0  0  0  0  0  0
   40.7297   12.0535  -17.6606 C   0  0  0  0  0  0  0  0  0  0  0  0
   41.8498   11.5925  -18.3214 F   0  0  0  0  0  0  0  0  0  0  0  0
   41.1667   12.5950  -16.3309 C   0  0  0  0  0  0  0  0  0  0  0  0
   42.7604   12.9718  -15.8491 S   0  0  0  0  0  0  0  0  0  0  0  0
   42.4237   13.5145  -14.2499 C   0  0  0  0  0  0  0  0  0  0  0  0
   41.1091   13.3722  -14.1871 N   0  0  0  0  0  0  0  0  0  0  0  0
   40.4528   12.9181  -15.2024 C   0  0  0  0  0  0  0  0  0  0  0  0
   38.9727   12.7589  -15.1257 C   0  0  0  0  0  0  0  0  0  0  0  0
   38.4055   13.4408  -14.0706 C   0  0  0  0  0  0  0  0  0  0  0  0
   43.3568   14.0065  -13.2253 C   0  0  0  0  0  0  0  0  0  0  0  0
   43.3894   13.3999  -11.9559 N   0  0  0  0  0  0  0  0  0  0  0  0
   44.0956   14.9455  -13.5000 O   0  0  0  0  0  0  0  0  0  0  0  0
   42.6426   13.5457  -11.2493 H   0  0  0  0  0  0  0  0  0  0  0  0
   44.1869   12.7836  -11.7128 H   0  0  0  0  0  0  0  0  0  0  0  0
   36.1701   14.8106  -11.7205 C   0  0  0  0  0  0  0  0  0  0  0  0
   36.5679   14.1772  -12.6852 C   0  0  0  0  0  0  0  0  0  0  0  0
   38.6617   15.3533   -8.2520 C   0  0  0  0  0  0  0  0  0  0  0  0
   37.5781   15.7618   -9.1138 N   0  0  0  0  0  0  0  0  0  0  0  0
   37.5245   16.9972   -9.8602 C   0  0  0  0  0  0  0  0  0  0  0  0
   36.2111   16.9888  -10.5795 C   0  0  0  0  0  0  0  0  0  0  0  0
   35.7171   15.5608  -10.5579 C   0  0  0  0  0  0  0  0  0  0  0  0
   34.3353   15.4927  -10.3978 O   0  0  0  0  0  0  0  0  0  0  0  0
   36.3976   15.0080   -9.3581 C   0  0  0  0  0  0  0  0  0  0  0  0
   35.9776   14.0255   -8.6790 O   0  0  0  0  0  0  0  0  0  0  0  0
   33.8648   15.2493  -11.2394 H   0  0  0  0  0  0  0  0  0  0  0  0
   40.0961   13.1306  -18.5062 C   0  0  0  0  0  0  0  0  0  0  0  0
   40.4795   14.3443  -17.9687 F   0  0  0  0  0  0  0  0  0  0  0  0
 23 24  1  0  0  0
 24 25  1  0  0  0
 25 26  1  0  0  0
 26 27  1  0  0  0
 27 28  1  0  0  0
 27 21  1  0  0  0
 21 22  3  0  0  0
 22  1  1  0  0  0
  1  2  2  0  0  0
  2  3  1  0  0  0
  3  4  2  0  0  0
  4  5  1  0  0  0
  5  6  1  0  0  0
  6  7  1  0  0  0
  7  8  1  0  0  0
  7 32  1  0  0  0
 32 33  1  0  0  0
  7  9  1  0  0  0
  9 10  1  0  0  0
 10 11  1  0  0  0
 11 12  2  0  0  0
 12 13  1  0  0  0
 13 14  1  0  0  0
 14 15  2  0  0  0
 11 16  1  0  0  0
 16 17  1  0  0  0
 16 18  2  0  0  0
 27 29  1  0  0  0
 29 30  2  0  0  0
 29 24  1  0  0  0
 15  1  1  0  0  0
 14  4  1  0  0  0
 13  9  2  0  0  0
 28 31  1  0  0  0
 17 19  1  0  0  0
 17 20  1  0  0  0
M  END
> <minimizedAffinity>
-8.52568

> <CNNscore>
0.1483429670

> <CNNaffinity>
6.3075690269

> <CNN_VS>
0.9356834888

> <CNNaffinity_variance>
0.1992955208

$$$$
[H]O[C@]1(C#Cc2c([H])c([H])c3c(c2[H])-c2nc(C(=O)N([H])[H])sc2[C@](F)(C([H])([H])F)C([H])([H])O3)C(=O)N(C([H])([H])[H])C([H])([H])C1([H])[H]


 33 36  0  0  0  0  0  0  0  0999 V2000
   40.1444   15.7604  -10.6806 C   0  0  0  0  0  0  0  0  0  0  0  0
   40.4450   16.2805  -11.9387 C   0  0  0  0  0  0  0  0  0  0  0  0
   41.7688   16.4092  -12.2977 C   0  0  0  0  0  0  0  0  0  0  0  0
   42.7841   16.0330  -11.4350 C   0  0  0  0  0  0  0  0  0  0  0  0
   44.0530   16.2341  -11.9651 O   0  0  0  0  0  0  0  0  0  0  0  0
   45.3069   15.8094  -11.5041 C   0  0  0  0  0  0  0  0  0  0  0  0
   45.5904   16.1854  -10.0788 C   0  0  0  0  0  0  0  0  0  0  0  0
   46.9204   15.9282   -9.8167 F   0  0  0  0  0  0  0  0  0  0  0  0
   44.7650   15.3762   -9.1215 C   0  0  0  0  0  0  0  0  0  0  0  0
   45.3071   14.5976   -7.7025 S   0  0  0  0  0  0  0  0  0  0  0  0
   43.8093   13.9158   -7.1954 C   0  0  0  0  0  0  0  0  0  0  0  0
   42.9878   14.3292   -8.1476 N   0  0  0  0  0  0  0  0  0  0  0  0
   43.4289   15.0562   -9.1196 C   0  0  0  0  0  0  0  0  0  0  0  0
   42.4996   15.5180  -10.1897 C   0  0  0  0  0  0  0  0  0  0  0  0
   41.1702   15.3961   -9.8465 C   0  0  0  0  0  0  0  0  0  0  0  0
   43.5228   13.0905   -6.0125 C   0  0  0  0  0  0  0  0  0  0  0  0
   43.9467   11.7492   -5.9728 N   0  0  0  0  0  0  0  0  0  0  0  0
   42.9138   13.5925   -5.0744 O   0  0  0  0  0  0  0  0  0  0  0  0
   43.4820   11.0014   -6.5235 H   0  0  0  0  0  0  0  0  0  0  0  0
   44.7526   11.4934   -5.3729 H   0  0  0  0  0  0  0  0  0  0  0  0
   37.6501   15.4446   -9.8240 C   0  0  0  0  0  0  0  0  0  0  0  0
   38.7924   15.5932  -10.2279 C   0  0  0  0  0  0  0  0  0  0  0  0
   36.6106   16.2354   -5.7219 C   0  0  0  0  0  0  0  0  0  0  0  0
   36.2642   16.1029   -7.1170 N   0  0  0  0  0  0  0  0  0  0  0  0
   35.7444   17.1601   -7.9528 C   0  0  0  0  0  0  0  0  0  0  0  0
   35.5152   16.5472   -9.2997 C   0  0  0  0  0  0  0  0  0  0  0  0
   36.2965   15.2538   -9.3231 C   0  0  0  0  0  0  0  0  0  0  0  0
   35.6198   14.2519  -10.0144 O   0  0  0  0  0  0  0  0  0  0  0  0
   36.3826   14.9093   -7.8802 C   0  0  0  0  0  0  0  0  0  0  0  0
   36.5365   13.7375   -7.4263 O   0  0  0  0  0  0  0  0  0  0  0  0
   36.0143   14.0720  -10.9094 H   0  0  0  0  0  0  0  0  0  0  0  0
   45.3520   17.6632   -9.8896 C   0  0  0  0  0  0  0  0  0  0  0  0
   46.0801   18.3181  -10.8642 F   0  0  0  0  0  0  0  0  0  0  0  0
 23 24  1  0  0  0
 24 25  1  0  0  0
 25 26  1  0  0  0
 26 27  1  0  0  0
 27 28  1  0  0  0
 27 21  1  0  0  0
 21 22  3  0  0  0
 22  1  1  0  0  0
  1  2  2  0  0  0
  2  3  1  0  0  0
  3  4  2  0  0  0
  4  5  1  0  0  0
  5  6  1  0  0  0
  6  7  1  0  0  0
  7  8  1  0  0  0
  7 32  1  0  0  0
 32 33  1  0  0  0
  7  9  1  0  0  0
  9 10  1  0  0  0
 10 11  1  0  0  0
 11 12  2  0  0  0
 12 13  1  0  0  0
 13 14  1  0  0  0
 14 15  2  0  0  0
 11 16  1  0  0  0
 16 17  1  0  0  0
 16 18  2  0  0  0
 27 29  1  0  0  0
 29 30  2  0  0  0
 29 24  1  0  0  0
 15  1  1  0  0  0
 14  4  1  0  0  0
 13  9  2  0  0  0
 28 31  1  0  0  0
 17 19  1  0  0  0
 17 20  1  0  0  0
M  END
> <minimizedAffinity>
-5.45924

> <CNNscore>
0.1424226463

> <CNNaffinity>
5.2797293663

> <CNN_VS>
0.7519530058

> <CNNaffinity_variance>
0.2963802516

$$$$
[H]O[C@](C#Cc1c([H])c([H])c2c(c1[H])-c1nc(C(=O)N([H])[H])c(C(=O)N(C([H])([H])[H])C([H])([H])[H])n1C1([H])C([H])([H])C2([H])C1([H])[H])(c1noc(C([H])([H])[H])c1[H])C([H])([H])[H]


 37 41  0  0  0  0  0  0  0  0999 V2000
   35.4382   15.8783   -7.8291 C   0  0  0  0  0  0  0  0  0  0  0  0
   36.0371   15.7893   -9.0946 C   0  0  0  0  0  0  0  0  0  0  0  0
   37.2733   15.3126   -8.9093 N   0  0  0  0  0  0  0  0  0  0  0  0
   37.5129   15.0812   -7.6197 C   0  0  0  0  0  0  0  0  0  0  0  0
   38.7468   14.5384   -7.0290 C   0  0  0  0  0  0  0  0  0  0  0  0
   39.7919   14.4249   -7.9321 C   0  0  0  0  0  0  0  0  0  0  0  0
   41.0106   13.9205   -7.5750 C   0  0  0  0  0  0  0  0  0  0  0  0
   41.1214   13.5166   -6.2216 C   0  0  0  0  0  0  0  0  0  0  0  0
   40.1164   13.6099   -5.3028 C   0  0  0  0  0  0  0  0  0  0  0  0
   38.9331   14.1279   -5.7202 C   0  0  0  0  0  0  0  0  0  0  0  0
   37.9395   14.3582   -4.6148 C   0  0  0  0  0  0  0  0  0  0  0  0
   36.5541   13.9682   -5.0026 C   0  0  0  0  0  0  0  0  0  0  0  0
   36.2272   15.3879   -5.5283 C   0  0  0  0  0  0  0  0  0  0  0  0
   37.4902   15.8381   -4.7575 C   0  0  0  0  0  0  0  0  0  0  0  0
   36.3776   15.4337   -6.9527 N   0  0  0  0  0  0  0  0  0  0  0  0
   32.0507   15.0357   -7.9382 C   0  0  0  0  0  0  0  0  0  0  0  0
   32.8214   16.2136   -7.6436 N   0  0  0  0  0  0  0  0  0  0  0  0
   31.9242   17.3857   -7.2205 C   0  0  0  0  0  0  0  0  0  0  0  0
   34.1580   16.5125   -7.6377 C   0  0  0  0  0  0  0  0  0  0  0  0
   34.3072   17.8385   -7.3745 O   0  0  0  0  0  0  0  0  0  0  0  0
   35.4086   15.9806  -10.4111 C   0  0  0  0  0  0  0  0  0  0  0  0
   34.2486   15.3368  -10.8523 N   0  0  0  0  0  0  0  0  0  0  0  0
   35.9690   16.7920  -11.2194 O   0  0  0  0  0  0  0  0  0  0  0  0
   33.3729   15.3922  -10.3065 H   0  0  0  0  0  0  0  0  0  0  0  0
   34.2532   14.7942  -11.7433 H   0  0  0  0  0  0  0  0  0  0  0  0
   42.1830   13.8899   -8.3924 C   0  0  0  0  0  0  0  0  0  0  0  0
   43.1666   13.7595   -9.0724 C   0  0  0  0  0  0  0  0  0  0  0  0
   44.3323   13.4818   -9.8650 C   0  0  0  0  0  0  0  0  0  0  0  0
   43.9336   12.8520  -11.2056 C   0  0  0  0  0  0  0  0  0  0  0  0
   44.9188   14.7413  -10.2778 O   0  0  0  0  0  0  0  0  0  0  0  0
   44.8573   15.3021   -9.4693 H   0  0  0  0  0  0  0  0  0  0  0  0
   45.3896   12.6958   -9.2522 C   0  0  0  0  0  0  0  0  0  0  0  0
   45.6027   12.4934   -7.8700 C   0  0  0  0  0  0  0  0  0  0  0  0
   46.7513   11.7586   -7.7004 C   0  0  0  0  0  0  0  0  0  0  0  0
   47.3318   11.3286   -6.3848 C   0  0  0  0  0  0  0  0  0  0  0  0
   47.1861   11.5355   -8.8983 O   0  0  0  0  0  0  0  0  0  0  0  0
   46.4449   12.0452   -9.8309 N   0  0  0  0  0  0  0  0  0  0  0  0
 16 17  1  0  0  0
 17 18  1  0  0  0
 17 19  1  0  0  0
 19 20  2  0  0  0
 19  1  1  0  0  0
  1  2  2  0  0  0
  2  3  1  0  0  0
  3  4  2  0  0  0
  4  5  1  0  0  0
  5  6  2  0  0  0
  6  7  1  0  0  0
  7  8  2  0  0  0
  8  9  1  0  0  0
  9 10  2  0  0  0
 10 11  1  0  0  0
 11 12  1  0  0  0
 12 13  1  0  0  0
 13 14  1  0  0  0
 13 15  1  0  0  0
  7 26  1  0  0  0
 26 27  3  0  0  0
 28 27  1  0  0  0
 28 29  1  0  0  0
 28 30  1  0  0  0
 28 32  1  0  0  0
 32 33  1  0  0  0
 33 34  2  0  0  0
 34 35  1  0  0  0
 34 36  1  0  0  0
 36 37  1  0  0  0
  2 21  1  0  0  0
 21 22  1  0  0  0
 21 23  2  0  0  0
 15  1  1  0  0  0
 37 32  2  0  0  0
 15  4  1  0  0  0
 10  5  1  0  0  0
 14 11  1  0  0  0
 30 31  1  0  0  0
 22 24  1  0  0  0
 22 25  1  0  0  0
M  END
> <minimizedAffinity>
-5.79131

> <CNNscore>
0.3146138787

> <CNNaffinity>
5.7347707748

> <CNN_VS>
1.8042384386

> <CNNaffinity_variance>
0.3541150689

$$$$
[H]O[C@](C#Cc1c([H])c([H])c2c(c1[H])-c1nc(C(=O)N([H])[H])c(C(=O)N(C([H])([H])[H])C([H])([H])[H])n1C1([H])C([H])([H])C2([H])C1([H])[H])(c1noc(C([H])([H])[H])c1[H])C([H])([H])[H]


 37 41  0  0  0  0  0  0  0  0999 V2000
   36.8205   12.2845  -16.0218 C   0  0  0  0  0  0  0  0  0  0  0  0
   36.8101   13.0446  -14.8427 C   0  0  0  0  0  0  0  0  0  0  0  0
   38.0849   13.3180  -14.5426 N   0  0  0  0  0  0  0  0  0  0  0  0
   38.9153   12.7967  -15.4443 C   0  0  0  0  0  0  0  0  0  0  0  0
   40.3831   12.9020  -15.4655 C   0  0  0  0  0  0  0  0  0  0  0  0
   40.9156   13.4748  -14.3214 C   0  0  0  0  0  0  0  0  0  0  0  0
   42.2581   13.6770  -14.1661 C   0  0  0  0  0  0  0  0  0  0  0  0
   43.0588   13.2669  -15.2605 C   0  0  0  0  0  0  0  0  0  0  0  0
   42.5732   12.7015  -16.4040 C   0  0  0  0  0  0  0  0  0  0  0  0
   41.2307   12.5206  -16.4912 C   0  0  0  0  0  0  0  0  0  0  0  0
   40.7938   11.7379  -17.6991 C   0  0  0  0  0  0  0  0  0  0  0  0
   39.5677   12.3022  -18.3316 C   0  0  0  0  0  0  0  0  0  0  0  0
   38.6326   11.4127  -17.4754 C   0  0  0  0  0  0  0  0  0  0  0  0
   39.9017   10.5896  -17.1533 C   0  0  0  0  0  0  0  0  0  0  0  0
   38.1317   12.1560  -16.3572 N   0  0  0  0  0  0  0  0  0  0  0  0
   33.7508   11.1084  -14.8427 C   0  0  0  0  0  0  0  0  0  0  0  0
   34.3984   11.2273  -16.1213 N   0  0  0  0  0  0  0  0  0  0  0  0
   33.4838   10.7636  -17.2642 C   0  0  0  0  0  0  0  0  0  0  0  0
   35.6232   11.6732  -16.5418 C   0  0  0  0  0  0  0  0  0  0  0  0
   35.7320   11.4526  -17.8794 O   0  0  0  0  0  0  0  0  0  0  0  0
   35.6501   13.6212  -14.1453 C   0  0  0  0  0  0  0  0  0  0  0  0
   34.7744   14.5688  -14.6838 N   0  0  0  0  0  0  0  0  0  0  0  0
   35.4276   13.2334  -12.9512 O   0  0  0  0  0  0  0  0  0  0  0  0
   34.2848   14.3896  -15.5760 H   0  0  0  0  0  0  0  0  0  0  0  0
   34.6018   15.4697  -14.1868 H   0  0  0  0  0  0  0  0  0  0  0  0
   42.9106   14.1312  -12.9780 C   0  0  0  0  0  0  0  0  0  0  0  0
   43.4292   14.4238  -11.9329 C   0  0  0  0  0  0  0  0  0  0  0  0
   44.0035   14.6674  -10.6386 C   0  0  0  0  0  0  0  0  0  0  0  0
   44.7173   16.0249  -10.6138 C   0  0  0  0  0  0  0  0  0  0  0  0
   42.9276   14.8669   -9.6881 O   0  0  0  0  0  0  0  0  0  0  0  0
   42.2676   14.1779   -9.9365 H   0  0  0  0  0  0  0  0  0  0  0  0
   44.8785   13.6461  -10.0889 C   0  0  0  0  0  0  0  0  0  0  0  0
   44.9724   12.2982  -10.5027 C   0  0  0  0  0  0  0  0  0  0  0  0
   45.8557   11.6413   -9.6803 C   0  0  0  0  0  0  0  0  0  0  0  0
   46.2367   10.1931   -9.7800 C   0  0  0  0  0  0  0  0  0  0  0  0
   46.2620   12.5380   -8.8410 O   0  0  0  0  0  0  0  0  0  0  0  0
   45.7394   13.7089   -9.0274 N   0  0  0  0  0  0  0  0  0  0  0  0
 16 17  1  0  0  0
 17 18  1  0  0  0
 17 19  1  0  0  0
 19 20  2  0  0  0
 19  1  1  0  0  0
  1  2  2  0  0  0
  2  3  1  0  0  0
  3  4  2  0  0  0
  4  5  1  0  0  0
  5  6  2  0  0  0
  6  7  1  0  0  0
  7  8  2  0  0  0
  8  9  1  0  0  0
  9 10  2  0  0  0
 10 11  1  0  0  0
 11 12  1  0  0  0
 12 13  1  0  0  0
 13 14  1  0  0  0
 13 15  1  0  0  0
  7 26  1  0  0  0
 26 27  3  0  0  0
 28 27  1  0  0  0
 28 29  1  0  0  0
 28 30  1  0  0  0
 28 32  1  0  0  0
 32 33  1  0  0  0
 33 34  2  0  0  0
 34 35  1  0  0  0
 34 36  1  0  0  0
 36 37  1  0  0  0
  2 21  1  0  0  0
 21 22  1  0  0  0
 21 23  2  0  0  0
 15  1  1  0  0  0
 37 32  2  0  0  0
 15  4  1  0  0  0
 10  5  1  0  0  0
 14 11  1  0  0  0
 30 31  1  0  0  0
 22 24  1  0  0  0
 22 25  1  0  0  0
M  END
> <minimizedAffinity>
-9.00995

> <CNNscore>
0.2764747143

> <CNNaffinity>
6.9566831589

> <CNN_VS>
1.9233469963

> <CNNaffinity_variance>
0.0393454432

$$$$
[H]O[C@](C#Cc1c([H])c([H])c2c(c1[H])-c1nc(C(=O)N([H])[H])c(C(=O)N(C([H])([H])[H])C([H])([H])[H])n1C1([H])C([H])([H])C2([H])C1([H])[H])(c1noc(C([H])([H])[H])c1[H])C([H])([H])[H]


 37 41  0  0  0  0  0  0  0  0999 V2000
   36.6768   12.2690  -16.0362 C   0  0  0  0  0  0  0  0  0  0  0  0
   36.6599   13.1014  -14.9071 C   0  0  0  0  0  0  0  0  0  0  0  0
   37.9331   13.3924  -14.6170 N   0  0  0  0  0  0  0  0  0  0  0  0
   38.7685   12.8153  -15.4792 C   0  0  0  0  0  0  0  0  0  0  0  0
   40.2364   12.9183  -15.4980 C   0  0  0  0  0  0  0  0  0  0  0  0
   40.7626   13.5614  -14.3888 C   0  0  0  0  0  0  0  0  0  0  0  0
   42.1042   13.7723  -14.2383 C   0  0  0  0  0  0  0  0  0  0  0  0
   42.9112   13.2940  -15.3000 C   0  0  0  0  0  0  0  0  0  0  0  0
   42.4321   12.6584  -16.4087 C   0  0  0  0  0  0  0  0  0  0  0  0
   41.0900   12.4731  -16.4926 C   0  0  0  0  0  0  0  0  0  0  0  0
   40.6597   11.6164  -17.6517 C   0  0  0  0  0  0  0  0  0  0  0  0
   39.4379   12.1407  -18.3259 C   0  0  0  0  0  0  0  0  0  0  0  0
   38.4969   11.3070  -17.4214 C   0  0  0  0  0  0  0  0  0  0  0  0
   39.7633   10.5050  -17.0406 C   0  0  0  0  0  0  0  0  0  0  0  0
   37.9898   12.1190  -16.3550 N   0  0  0  0  0  0  0  0  0  0  0  0
   33.6711   11.0145  -14.7759 C   0  0  0  0  0  0  0  0  0  0  0  0
   34.2810   11.1496  -16.0712 N   0  0  0  0  0  0  0  0  0  0  0  0
   33.3483   10.6623  -17.1895 C   0  0  0  0  0  0  0  0  0  0  0  0
   35.4821   11.6269  -16.5242 C   0  0  0  0  0  0  0  0  0  0  0  0
   35.5606   11.4088  -17.8644 O   0  0  0  0  0  0  0  0  0  0  0  0
   35.4961   13.7211  -14.2543 C   0  0  0  0  0  0  0  0  0  0  0  0
   34.5869   14.5828  -14.8753 N   0  0  0  0  0  0  0  0  0  0  0  0
   35.3033   13.4595  -13.0214 O   0  0  0  0  0  0  0  0  0  0  0  0
   34.0881   14.2959  -15.7336 H   0  0  0  0  0  0  0  0  0  0  0  0
   34.3982   15.5276  -14.4752 H   0  0  0  0  0  0  0  0  0  0  0  0
   42.7500   14.2996  -13.0770 C   0  0  0  0  0  0  0  0  0  0  0  0
   43.1986   14.7740  -12.0667 C   0  0  0  0  0  0  0  0  0  0  0  0
   43.6192   15.3770  -10.8324 C   0  0  0  0  0  0  0  0  0  0  0  0
   42.4054   15.8623  -10.0299 C   0  0  0  0  0  0  0  0  0  0  0  0
   44.1617   14.3413   -9.9757 O   0  0  0  0  0  0  0  0  0  0  0  0
   44.6972   13.7878  -10.5913 H   0  0  0  0  0  0  0  0  0  0  0  0
   44.6106   16.4366  -10.9060 C   0  0  0  0  0  0  0  0  0  0  0  0
   44.9842   17.1694  -12.0551 C   0  0  0  0  0  0  0  0  0  0  0  0
   46.0093   18.0224  -11.7244 C   0  0  0  0  0  0  0  0  0  0  0  0
   46.6946   18.9751  -12.6599 C   0  0  0  0  0  0  0  0  0  0  0  0
   46.2249   17.8148  -10.4657 O   0  0  0  0  0  0  0  0  0  0  0  0
   45.4508   16.9186   -9.9398 N   0  0  0  0  0  0  0  0  0  0  0  0
 16 17  1  0  0  0
 17 18  1  0  0  0
 17 19  1  0  0  0
 19 20  2  0  0  0
 19  1  1  0  0  0
  1  2  2  0  0  0
  2  3  1  0  0  0
  3  4  2  0  0  0
  4  5  1  0  0  0
  5  6  2  0  0  0
  6  7  1  0  0  0
  7  8  2  0  0  0
  8  9  1  0  0  0
  9 10  2  0  0  0
 10 11  1  0  0  0
 11 12  1  0  0  0
 12 13  1  0  0  0
 13 14  1  0  0  0
 13 15  1  0  0  0
  7 26  1  0  0  0
 26 27  3  0  0  0
 28 27  1  0  0  0
 28 29  1  0  0  0
 28 30  1  0  0  0
 28 32  1  0  0  0
 32 33  1  0  0  0
 33 34  2  0  0  0
 34 35  1  0  0  0
 34 36  1  0  0  0
 36 37  1  0  0  0
  2 21  1  0  0  0
 21 22  1  0  0  0
 21 23  2  0  0  0
 15  1  1  0  0  0
 37 32  2  0  0  0
 15  4  1  0  0  0
 10  5  1  0  0  0
 14 11  1  0  0  0
 30 31  1  0  0  0
 22 24  1  0  0  0
 22 25  1  0  0  0
M  END
> <minimizedAffinity>
-8.93278

> <CNNscore>
0.2468121648

> <CNNaffinity>
6.9134612083

> <CNN_VS>
1.7063263655

> <CNNaffinity_variance>
0.0572297350

$$$$
[H]O[C@](C#Cc1c([H])c([H])c2c(c1[H])-c1nc(C(=O)N([H])[H])c(C(=O)N(C([H])([H])[H])C([H])([H])[H])n1C1([H])C([H])([H])C2([H])C1([H])[H])(c1noc(C([H])([H])[H])c1[H])C([H])([H])[H]


 37 41  0  0  0  0  0  0  0  0999 V2000
   36.7956   12.3255  -15.9614 C   0  0  0  0  0  0  0  0  0  0  0  0
   36.7731   13.1048  -14.7951 C   0  0  0  0  0  0  0  0  0  0  0  0
   38.0443   13.3897  -14.4907 N   0  0  0  0  0  0  0  0  0  0  0  0
   38.8836   12.8579  -15.3778 C   0  0  0  0  0  0  0  0  0  0  0  0
   40.3510   12.9705  -15.3906 C   0  0  0  0  0  0  0  0  0  0  0  0
   40.8725   13.5648  -14.2524 C   0  0  0  0  0  0  0  0  0  0  0  0
   42.2128   13.7765  -14.0911 C   0  0  0  0  0  0  0  0  0  0  0  0
   43.0233   13.3526  -15.1730 C   0  0  0  0  0  0  0  0  0  0  0  0
   42.5487   12.7660  -16.3103 C   0  0  0  0  0  0  0  0  0  0  0  0
   41.2078   12.5767  -16.4039 C   0  0  0  0  0  0  0  0  0  0  0  0
   40.7833   11.7719  -17.6017 C   0  0  0  0  0  0  0  0  0  0  0  0
   39.5589   12.3194  -18.2520 C   0  0  0  0  0  0  0  0  0  0  0  0
   38.6223   11.4393  -17.3878 C   0  0  0  0  0  0  0  0  0  0  0  0
   39.8933   10.6282  -17.0433 C   0  0  0  0  0  0  0  0  0  0  0  0
   38.1097   12.1982  -16.2855 N   0  0  0  0  0  0  0  0  0  0  0  0
   33.7547   11.0849  -14.7736 C   0  0  0  0  0  0  0  0  0  0  0  0
   34.3911   11.2283  -16.0553 N   0  0  0  0  0  0  0  0  0  0  0  0
   33.4763   10.7614  -17.1967 C   0  0  0  0  0  0  0  0  0  0  0  0
   35.6051   11.6995  -16.4795 C   0  0  0  0  0  0  0  0  0  0  0  0
   35.7080   11.4950  -17.8203 O   0  0  0  0  0  0  0  0  0  0  0  0
   35.6052   13.6868  -14.1154 C   0  0  0  0  0  0  0  0  0  0  0  0
   34.6832   14.5596  -14.7011 N   0  0  0  0  0  0  0  0  0  0  0  0
   35.4211   13.3785  -12.8919 O   0  0  0  0  0  0  0  0  0  0  0  0
   34.1838   14.2980  -15.5670 H   0  0  0  0  0  0  0  0  0  0  0  0
   34.4854   15.4870  -14.2662 H   0  0  0  0  0  0  0  0  0  0  0  0
   42.8547   14.2536  -12.9062 C   0  0  0  0  0  0  0  0  0  0  0  0
   43.3253   14.7337  -11.9087 C   0  0  0  0  0  0  0  0  0  0  0  0
   43.8046   15.3986  -10.7287 C   0  0  0  0  0  0  0  0  0  0  0  0
   45.0053   14.6482  -10.1388 C   0  0  0  0  0  0  0  0  0  0  0  0
   44.3934   16.6637  -11.1207 O   0  0  0  0  0  0  0  0  0  0  0  0
   43.7670   17.0114  -11.7981 H   0  0  0  0  0  0  0  0  0  0  0  0
   42.8413   15.6802   -9.6782 C   0  0  0  0  0  0  0  0  0  0  0  0
   41.4343   15.7135   -9.8052 C   0  0  0  0  0  0  0  0  0  0  0  0
   40.8885   16.0954   -8.6034 C   0  0  0  0  0  0  0  0  0  0  0  0
   39.4242   16.2553   -8.3159 C   0  0  0  0  0  0  0  0  0  0  0  0
   41.9004   16.2707   -7.8167 O   0  0  0  0  0  0  0  0  0  0  0  0
   43.0473   16.0440   -8.3755 N   0  0  0  0  0  0  0  0  0  0  0  0
 16 17  1  0  0  0
 17 18  1  0  0  0
 17 19  1  0  0  0
 19 20  2  0  0  0
 19  1  1  0  0  0
  1  2  2  0  0  0
  2  3  1  0  0  0
  3  4  2  0  0  0
  4  5  1  0  0  0
  5  6  2  0  0  0
  6  7  1  0  0  0
  7  8  2  0  0  0
  8  9  1  0  0  0
  9 10  2  0  0  0
 10 11  1  0  0  0
 11 12  1  0  0  0
 12 13  1  0  0  0
 13 14  1  0  0  0
 13 15  1  0  0  0
  7 26  1  0  0  0
 26 27  3  0  0  0
 28 27  1  0  0  0
 28 29  1  0  0  0
 28 30  1  0  0  0
 28 32  1  0  0  0
 32 33  1  0  0  0
 33 34  2  0  0  0
 34 35  1  0  0  0
 34 36  1  0  0  0
 36 37  1  0  0  0
  2 21  1  0  0  0
 21 22  1  0  0  0
 21 23  2  0  0  0
 15  1  1  0  0  0
 37 32  2  0  0  0
 15  4  1  0  0  0
 10  5  1  0  0  0
 14 11  1  0  0  0
 30 31  1  0  0  0
 22 24  1  0  0  0
 22 25  1  0  0  0
M  END
> <minimizedAffinity>
-8.99669

> <CNNscore>
0.2111537308

> <CNNaffinity>
7.0277528763

> <CNN_VS>
1.4839361906

> <CNNaffinity_variance>
0.0593176670

$$$$
[H]O[C@](C#Cc1c([H])c([H])c2c(c1[H])-c1nc(C(=O)N([H])[H])c(C(=O)N(C([H])([H])[H])C([H])([H])[H])n1C1([H])C([H])([H])C2([H])C1([H])[H])(c1noc(C([H])([H])[H])c1[H])C([H])([H])[H]


 37 41  0  0  0  0  0  0  0  0999 V2000
   45.4259   13.4655  -14.4998 C   0  0  0  0  0  0  0  0  0  0  0  0
   44.5198   12.8028  -15.3412 C   0  0  0  0  0  0  0  0  0  0  0  0
   43.2936   13.2063  -14.9901 N   0  0  0  0  0  0  0  0  0  0  0  0
   43.3426   14.0848  -13.9900 C   0  0  0  0  0  0  0  0  0  0  0  0
   42.2059   14.7648  -13.3487 C   0  0  0  0  0  0  0  0  0  0  0  0
   40.9706   14.2860  -13.7554 C   0  0  0  0  0  0  0  0  0  0  0  0
   39.7977   14.8077  -13.2870 C   0  0  0  0  0  0  0  0  0  0  0  0
   39.9394   15.8748  -12.3659 C   0  0  0  0  0  0  0  0  0  0  0  0
   41.1362   16.3760  -11.9424 C   0  0  0  0  0  0  0  0  0  0  0  0
   42.2639   15.8072  -12.4398 C   0  0  0  0  0  0  0  0  0  0  0  0
   43.5329   16.2951  -11.7963 C   0  0  0  0  0  0  0  0  0  0  0  0
   44.6259   16.5157  -12.7857 C   0  0  0  0  0  0  0  0  0  0  0  0
   45.1566   15.0695  -12.6260 C   0  0  0  0  0  0  0  0  0  0  0  0
   44.2914   15.0171  -11.3451 C   0  0  0  0  0  0  0  0  0  0  0  0
   44.6621   14.2422  -13.6866 N   0  0  0  0  0  0  0  0  0  0  0  0
   47.7439   11.9184  -12.3950 C   0  0  0  0  0  0  0  0  0  0  0  0
   47.7619   12.5150  -13.7034 N   0  0  0  0  0  0  0  0  0  0  0  0
   49.1441   12.3948  -14.3612 C   0  0  0  0  0  0  0  0  0  0  0  0
   46.8300   13.1396  -14.4891 C   0  0  0  0  0  0  0  0  0  0  0  0
   47.4450   13.6033  -15.6101 O   0  0  0  0  0  0  0  0  0  0  0  0
   44.8163   11.9732  -16.5195 C   0  0  0  0  0  0  0  0  0  0  0  0
   45.2235   12.4585  -17.7659 N   0  0  0  0  0  0  0  0  0  0  0  0
   44.6845   10.7106  -16.3997 O   0  0  0  0  0  0  0  0  0  0  0  0
   46.0549   13.0662  -17.8509 H   0  0  0  0  0  0  0  0  0  0  0  0
   44.6923   12.2083  -18.6283 H   0  0  0  0  0  0  0  0  0  0  0  0
   38.4868   14.2966  -13.5399 C   0  0  0  0  0  0  0  0  0  0  0  0
   37.4080   13.8678  -13.8548 C   0  0  0  0  0  0  0  0  0  0  0  0
   36.1558   13.3658  -14.3490 C   0  0  0  0  0  0  0  0  0  0  0  0
   35.3085   12.8077  -13.1985 C   0  0  0  0  0  0  0  0  0  0  0  0
   35.3581   14.4870  -14.8043 O   0  0  0  0  0  0  0  0  0  0  0  0
   36.0086   15.0584  -15.2759 H   0  0  0  0  0  0  0  0  0  0  0  0
   36.2002   12.4011  -15.4345 C   0  0  0  0  0  0  0  0  0  0  0  0
   37.3350   12.0247  -16.1879 C   0  0  0  0  0  0  0  0  0  0  0  0
   36.9446   11.1487  -17.1719 C   0  0  0  0  0  0  0  0  0  0  0  0
   37.8464   10.5129  -18.1892 C   0  0  0  0  0  0  0  0  0  0  0  0
   35.6684   11.0104  -17.0101 O   0  0  0  0  0  0  0  0  0  0  0  0
   35.1845   11.7013  -16.0265 N   0  0  0  0  0  0  0  0  0  0  0  0
 16 17  1  0  0  0
 17 18  1  0  0  0
 17 19  1  0  0  0
 19 20  2  0  0  0
 19  1  1  0  0  0
  1  2  2  0  0  0
  2  3  1  0  0  0
  3  4  2  0  0  0
  4  5  1  0  0  0
  5  6  2  0  0  0
  6  7  1  0  0  0
  7  8  2  0  0  0
  8  9  1  0  0  0
  9 10  2  0  0  0
 10 11  1  0  0  0
 11 12  1  0  0  0
 12 13  1  0  0  0
 13 14  1  0  0  0
 13 15  1  0  0  0
  7 26  1  0  0  0
 26 27  3  0  0  0
 28 27  1  0  0  0
 28 29  1  0  0  0
 28 30  1  0  0  0
 28 32  1  0  0  0
 32 33  1  0  0  0
 33 34  2  0  0  0
 34 35  1  0  0  0
 34 36  1  0  0  0
 36 37  1  0  0  0
  2 21  1  0  0  0
 21 22  1  0  0  0
 21 23  2  0  0  0
 15  1  1  0  0  0
 37 32  2  0  0  0
 15  4  1  0  0  0
 10  5  1  0  0  0
 14 11  1  0  0  0
 30 31  1  0  0  0
 22 24  1  0  0  0
 22 25  1  0  0  0
M  END
> <minimizedAffinity>
-8.98674

> <CNNscore>
0.2093940824

> <CNNaffinity>
6.5978226662

> <CNN_VS>
1.3815450668

> <CNNaffinity_variance>
0.0349074081

$$$$
[H]O[C@](C#Cc1c([H])c([H])c2c(c1[H])-c1nc(C(=O)N([H])[H])c(C(=O)N(C([H])([H])[H])C([H])([H])[H])n1C1([H])C([H])([H])C2([H])C1([H])[H])(c1noc(C([H])([H])[H])c1[H])C([H])([H])[H]


 37 41  0  0  0  0  0  0  0  0999 V2000
   39.3225   13.5502  -14.9210 C   0  0  0  0  0  0  0  0  0  0  0  0
   40.1896   14.1944  -14.0259 C   0  0  0  0  0  0  0  0  0  0  0  0
   39.4294   14.7400  -13.0696 N   0  0  0  0  0  0  0  0  0  0  0  0
   38.1380   14.4893  -13.2781 C   0  0  0  0  0  0  0  0  0  0  0  0
   37.0053   14.9040  -12.4349 C   0  0  0  0  0  0  0  0  0  0  0  0
   37.3591   15.7792  -11.4203 C   0  0  0  0  0  0  0  0  0  0  0  0
   36.4481   16.2575  -10.5213 C   0  0  0  0  0  0  0  0  0  0  0  0
   35.1236   15.7869  -10.6988 C   0  0  0  0  0  0  0  0  0  0  0  0
   34.7356   14.9243  -11.6827 C   0  0  0  0  0  0  0  0  0  0  0  0
   35.6883   14.4933  -12.5484 C   0  0  0  0  0  0  0  0  0  0  0  0
   35.1522   13.6892  -13.7010 C   0  0  0  0  0  0  0  0  0  0  0  0
   36.0071   12.5107  -14.0208 C   0  0  0  0  0  0  0  0  0  0  0  0
   36.8551   13.3145  -15.0374 C   0  0  0  0  0  0  0  0  0  0  0  0
   35.7192   14.3624  -14.9806 C   0  0  0  0  0  0  0  0  0  0  0  0
   38.0735   13.7551  -14.4248 N   0  0  0  0  0  0  0  0  0  0  0  0
   38.8692   10.6728  -16.8476 C   0  0  0  0  0  0  0  0  0  0  0  0
   39.6181   11.8952  -16.9625 N   0  0  0  0  0  0  0  0  0  0  0  0
   40.3709   11.9742  -18.2985 C   0  0  0  0  0  0  0  0  0  0  0  0
   39.7911   12.9961  -16.1663 C   0  0  0  0  0  0  0  0  0  0  0  0
   40.7097   13.8141  -16.7469 O   0  0  0  0  0  0  0  0  0  0  0  0
   41.6595   14.1424  -13.9907 C   0  0  0  0  0  0  0  0  0  0  0  0
   42.4486   13.1877  -14.6392 N   0  0  0  0  0  0  0  0  0  0  0  0
   42.2646   15.0335  -13.3083 O   0  0  0  0  0  0  0  0  0  0  0  0
   42.3602   13.0316  -15.6569 H   0  0  0  0  0  0  0  0  0  0  0  0
   43.1411   12.6226  -14.1013 H   0  0  0  0  0  0  0  0  0  0  0  0
   36.6867   17.2612   -9.5316 C   0  0  0  0  0  0  0  0  0  0  0  0
   36.8071   18.1591   -8.7403 C   0  0  0  0  0  0  0  0  0  0  0  0
   36.8586   19.2891   -7.8545 C   0  0  0  0  0  0  0  0  0  0  0  0
   37.7338   20.3995   -8.4495 C   0  0  0  0  0  0  0  0  0  0  0  0
   35.5494   19.9103   -7.8248 O   0  0  0  0  0  0  0  0  0  0  0  0
   34.9296   19.1443   -7.7918 H   0  0  0  0  0  0  0  0  0  0  0  0
   37.2499   19.0452   -6.4767 C   0  0  0  0  0  0  0  0  0  0  0  0
   37.5661   17.7975   -5.8936 C   0  0  0  0  0  0  0  0  0  0  0  0
   37.8056   17.9813   -4.5531 C   0  0  0  0  0  0  0  0  0  0  0  0
   38.1727   16.9067   -3.5718 C   0  0  0  0  0  0  0  0  0  0  0  0
   37.6484   19.2501   -4.3557 O   0  0  0  0  0  0  0  0  0  0  0  0
   37.3325   19.9138   -5.4228 N   0  0  0  0  0  0  0  0  0  0  0  0
 16 17  1  0  0  0
 17 18  1  0  0  0
 17 19  1  0  0  0
 19 20  2  0  0  0
 19  1  1  0  0  0
  1  2  2  0  0  0
  2  3  1  0  0  0
  3  4  2  0  0  0
  4  5  1  0  0  0
  5  6  2  0  0  0
  6  7  1  0  0  0
  7  8  2  0  0  0
  8  9  1  0  0  0
  9 10  2  0  0  0
 10 11  1  0  0  0
 11 12  1  0  0  0
 12 13  1  0  0  0
 13 14  1  0  0  0
 13 15  1  0  0  0
  7 26  1  0  0  0
 26 27  3  0  0  0
 28 27  1  0  0  0
 28 29  1  0  0  0
 28 30  1  0  0  0
 28 32  1  0  0  0
 32 33  1  0  0  0
 33 34  2  0  0  0
 34 35  1  0  0  0
 34 36  1  0  0  0
 36 37  1  0  0  0
  2 21  1  0  0  0
 21 22  1  0  0  0
 21 23  2  0  0  0
 15  1  1  0  0  0
 37 32  2  0  0  0
 15  4  1  0  0  0
 10  5  1  0  0  0
 14 11  1  0  0  0
 30 31  1  0  0  0
 22 24  1  0  0  0
 22 25  1  0  0  0
M  END
> <minimizedAffinity>
-8.25763

> <CNNscore>
0.2025303841

> <CNNaffinity>
6.2875952721

> <CNN_VS>
1.2734290361

> <CNNaffinity_variance>
0.0622630641

$$$$
[H]O[C@](C#Cc1c([H])c([H])c2c(c1[H])-c1nc(C(=O)N([H])[H])c(C(=O)N(C([H])([H])[H])C([H])([H])[H])n1C1([H])C([H])([H])C2([H])C1([H])[H])(c1noc(C([H])([H])[H])c1[H])C([H])([H])[H]


 37 41  0  0  0  0  0  0  0  0999 V2000
   37.1162   12.3332  -15.6352 C   0  0  0  0  0  0  0  0  0  0  0  0
   38.3958   12.1119  -16.1659 C   0  0  0  0  0  0  0  0  0  0  0  0
   39.2495   12.8517  -15.4491 N   0  0  0  0  0  0  0  0  0  0  0  0
   38.6162   13.5275  -14.4918 C   0  0  0  0  0  0  0  0  0  0  0  0
   39.2167   14.4271  -13.4938 C   0  0  0  0  0  0  0  0  0  0  0  0
   40.5591   14.6888  -13.7181 C   0  0  0  0  0  0  0  0  0  0  0  0
   41.2943   15.4845  -12.8854 C   0  0  0  0  0  0  0  0  0  0  0  0
   40.5866   16.0118  -11.7771 C   0  0  0  0  0  0  0  0  0  0  0  0
   39.2669   15.7763  -11.5203 C   0  0  0  0  0  0  0  0  0  0  0  0
   38.5917   14.9839  -12.3914 C   0  0  0  0  0  0  0  0  0  0  0  0
   37.1107   14.9151  -12.1377 C   0  0  0  0  0  0  0  0  0  0  0  0
   36.5680   13.5361  -12.2983 C   0  0  0  0  0  0  0  0  0  0  0  0
   36.2529   13.7601  -13.7980 C   0  0  0  0  0  0  0  0  0  0  0  0
   36.4373   15.2650  -13.4927 C   0  0  0  0  0  0  0  0  0  0  0  0
   37.2965   13.2073  -14.6097 N   0  0  0  0  0  0  0  0  0  0  0  0
   33.8480   11.4490  -14.7786 C   0  0  0  0  0  0  0  0  0  0  0  0
   34.6333   11.4913  -15.9827 N   0  0  0  0  0  0  0  0  0  0  0  0
   33.8052   11.0925  -17.2127 C   0  0  0  0  0  0  0  0  0  0  0  0
   35.9300   11.8216  -16.2747 C   0  0  0  0  0  0  0  0  0  0  0  0
   36.1575   11.5721  -17.5922 O   0  0  0  0  0  0  0  0  0  0  0  0
   38.7997   11.1233  -17.1779 C   0  0  0  0  0  0  0  0  0  0  0  0
   38.9972   11.3933  -18.5354 N   0  0  0  0  0  0  0  0  0  0  0  0
   38.9767    9.9216  -16.7902 O   0  0  0  0  0  0  0  0  0  0  0  0
   39.6549   12.1308  -18.8377 H   0  0  0  0  0  0  0  0  0  0  0  0
   38.4835   10.8482  -19.2616 H   0  0  0  0  0  0  0  0  0  0  0  0
   42.6380   15.9205  -13.1045 C   0  0  0  0  0  0  0  0  0  0  0  0
   43.7947   16.1864  -13.3002 C   0  0  0  0  0  0  0  0  0  0  0  0
   45.1977   16.3820  -13.5402 C   0  0  0  0  0  0  0  0  0  0  0  0
   46.0268   15.3732  -12.7352 C   0  0  0  0  0  0  0  0  0  0  0  0
   45.4883   15.9991  -14.9076 O   0  0  0  0  0  0  0  0  0  0  0  0
   44.7305   16.3690  -15.4183 H   0  0  0  0  0  0  0  0  0  0  0  0
   45.7326   17.7187  -13.3454 C   0  0  0  0  0  0  0  0  0  0  0  0
   47.0328   18.0557  -12.9064 C   0  0  0  0  0  0  0  0  0  0  0  0
   47.1177   19.4208  -12.7750 C   0  0  0  0  0  0  0  0  0  0  0  0
   48.3297   20.1859  -12.3299 C   0  0  0  0  0  0  0  0  0  0  0  0
   45.9513   19.8634  -13.1177 O   0  0  0  0  0  0  0  0  0  0  0  0
   45.1150   18.9343  -13.4588 N   0  0  0  0  0  0  0  0  0  0  0  0
 16 17  1  0  0  0
 17 18  1  0  0  0
 17 19  1  0  0  0
 19 20  2  0  0  0
 19  1  1  0  0  0
  1  2  2  0  0  0
  2  3  1  0  0  0
  3  4  2  0  0  0
  4  5  1  0  0  0
  5  6  2  0  0  0
  6  7  1  0  0  0
  7  8  2  0  0  0
  8  9  1  0  0  0
  9 10  2  0  0  0
 10 11  1  0  0  0
 11 12  1  0  0  0
 12 13  1  0  0  0
 13 14  1  0  0  0
 13 15  1  0  0  0
  7 26  1  0  0  0
 26 27  3  0  0  0
 28 27  1  0  0  0
 28 29  1  0  0  0
 28 30  1  0  0  0
 28 32  1  0  0  0
 32 33  1  0  0  0
 33 34  2  0  0  0
 34 35  1  0  0  0
 34 36  1  0  0  0
 36 37  1  0  0  0
  2 21  1  0  0  0
 21 22  1  0  0  0
 21 23  2  0  0  0
 15  1  1  0  0  0
 37 32  2  0  0  0
 15  4  1  0  0  0
 10  5  1  0  0  0
 14 11  1  0  0  0
 30 31  1  0  0  0
 22 24  1  0  0  0
 22 25  1  0  0  0
M  END
> <minimizedAffinity>
-8.26299

> <CNNscore>
0.1956448555

> <CNNaffinity>
6.5113916397

> <CNN_VS>
1.2739202976

> <CNNaffinity_variance>
0.0540310852

$$$$
[H]O[C@](C#Cc1c([H])c([H])c2c(c1[H])-c1nc(C(=O)N([H])[H])c(C(=O)N(C([H])([H])[H])C([H])([H])[H])n1C1([H])C([H])([H])C2([H])C1([H])[H])(c1noc(C([H])([H])[H])c1[H])C([H])([H])[H]


 37 41  0  0  0  0  0  0  0  0999 V2000
   37.5924   16.5114   -8.2373 C   0  0  0  0  0  0  0  0  0  0  0  0
   37.7225   16.2583   -9.6110 C   0  0  0  0  0  0  0  0  0  0  0  0
   38.9988   15.9202   -9.8270 N   0  0  0  0  0  0  0  0  0  0  0  0
   39.6988   15.9298   -8.6938 C   0  0  0  0  0  0  0  0  0  0  0  0
   41.1221   15.5951   -8.5263 C   0  0  0  0  0  0  0  0  0  0  0  0
   41.7953   15.4149   -9.7242 C   0  0  0  0  0  0  0  0  0  0  0  0
   43.1185   15.0772   -9.7717 C   0  0  0  0  0  0  0  0  0  0  0  0
   43.7443   14.9178   -8.5107 C   0  0  0  0  0  0  0  0  0  0  0  0
   43.1166   15.0841   -7.3102 C   0  0  0  0  0  0  0  0  0  0  0  0
   41.8035   15.4277   -7.3331 C   0  0  0  0  0  0  0  0  0  0  0  0
   41.2324   15.7611   -5.9821 C   0  0  0  0  0  0  0  0  0  0  0  0
   39.8647   15.2014   -5.7871 C   0  0  0  0  0  0  0  0  0  0  0  0
   39.1874   16.4812   -6.3368 C   0  0  0  0  0  0  0  0  0  0  0  0
   40.5659   17.1547   -6.1418 C   0  0  0  0  0  0  0  0  0  0  0  0
   38.8279   16.2978   -7.7119 N   0  0  0  0  0  0  0  0  0  0  0  0
   36.2270   19.6454   -7.5229 C   0  0  0  0  0  0  0  0  0  0  0  0
   35.8044   18.2755   -7.4093 N   0  0  0  0  0  0  0  0  0  0  0  0
   34.3647   18.1689   -6.8864 C   0  0  0  0  0  0  0  0  0  0  0  0
   36.3844   17.0641   -7.6780 C   0  0  0  0  0  0  0  0  0  0  0  0
   35.5408   16.0773   -7.2725 O   0  0  0  0  0  0  0  0  0  0  0  0
   36.6576   16.1736  -10.6226 C   0  0  0  0  0  0  0  0  0  0  0  0
   36.3081   17.1933  -11.5131 N   0  0  0  0  0  0  0  0  0  0  0  0
   35.9932   15.0874  -10.6896 O   0  0  0  0  0  0  0  0  0  0  0  0
   37.0152   17.6159  -12.1370 H   0  0  0  0  0  0  0  0  0  0  0  0
   35.3245   17.5377  -11.5605 H   0  0  0  0  0  0  0  0  0  0  0  0
   43.9282   15.0030  -10.9475 C   0  0  0  0  0  0  0  0  0  0  0  0
   44.6490   15.0341  -11.9100 C   0  0  0  0  0  0  0  0  0  0  0  0
   45.5462   15.1838  -13.0222 C   0  0  0  0  0  0  0  0  0  0  0  0
   45.2345   16.4716  -13.7950 C   0  0  0  0  0  0  0  0  0  0  0  0
   46.8759   15.4460  -12.5086 O   0  0  0  0  0  0  0  0  0  0  0  0
   46.9567   14.8262  -11.7461 H   0  0  0  0  0  0  0  0  0  0  0  0
   45.6558   14.0720  -13.9511 C   0  0  0  0  0  0  0  0  0  0  0  0
   44.8981   13.8721  -15.1270 C   0  0  0  0  0  0  0  0  0  0  0  0
   45.2475   12.6642  -15.6809 C   0  0  0  0  0  0  0  0  0  0  0  0
   44.6739   12.0760  -16.9369 C   0  0  0  0  0  0  0  0  0  0  0  0
   46.1534   12.1836  -14.8922 O   0  0  0  0  0  0  0  0  0  0  0  0
   46.4328   12.9478  -13.8838 N   0  0  0  0  0  0  0  0  0  0  0  0
 16 17  1  0  0  0
 17 18  1  0  0  0
 17 19  1  0  0  0
 19 20  2  0  0  0
 19  1  1  0  0  0
  1  2  2  0  0  0
  2  3  1  0  0  0
  3  4  2  0  0  0
  4  5  1  0  0  0
  5  6  2  0  0  0
  6  7  1  0  0  0
  7  8  2  0  0  0
  8  9  1  0  0  0
  9 10  2  0  0  0
 10 11  1  0  0  0
 11 12  1  0  0  0
 12 13  1  0  0  0
 13 14  1  0  0  0
 13 15  1  0  0  0
  7 26  1  0  0  0
 26 27  3  0  0  0
 28 27  1  0  0  0
 28 29  1  0  0  0
 28 30  1  0  0  0
 28 32  1  0  0  0
 32 33  1  0  0  0
 33 34  2  0  0  0
 34 35  1  0  0  0
 34 36  1  0  0  0
 36 37  1  0  0  0
  2 21  1  0  0  0
 21 22  1  0  0  0
 21 23  2  0  0  0
 15  1  1  0  0  0
 37 32  2  0  0  0
 15  4  1  0  0  0
 10  5  1  0  0  0
 14 11  1  0  0  0
 30 31  1  0  0  0
 22 24  1  0  0  0
 22 25  1  0  0  0
M  END
> <minimizedAffinity>
-6.39551

> <CNNscore>
0.1487706751

> <CNNaffinity>
5.5003108978

> <CNN_VS>
0.8182849884

> <CNNaffinity_variance>
0.3018899560

$$$$
[H]O[C@](C#Cc1c([H])c([H])c2c(c1[H])-c1nc(C(=O)N([H])[H])c(C(=O)N(C([H])([H])[H])C([H])([H])[H])n1C1([H])C([H])([H])C2([H])C1([H])[H])(c1noc(C([H])([H])[H])c1[H])C([H])([H])[H]


 37 41  0  0  0  0  0  0  0  0999 V2000
   37.2720   12.8057  -15.2320 C   0  0  0  0  0  0  0  0  0  0  0  0
   37.5371   13.4853  -14.0337 C   0  0  0  0  0  0  0  0  0  0  0  0
   38.8665   13.5985  -13.9344 N   0  0  0  0  0  0  0  0  0  0  0  0
   39.4771   13.0488  -14.9828 C   0  0  0  0  0  0  0  0  0  0  0  0
   40.9253   12.9949  -15.2395 C   0  0  0  0  0  0  0  0  0  0  0  0
   41.6952   13.4319  -14.1731 C   0  0  0  0  0  0  0  0  0  0  0  0
   43.0597   13.4764  -14.2308 C   0  0  0  0  0  0  0  0  0  0  0  0
   43.6240   13.0526  -15.4593 C   0  0  0  0  0  0  0  0  0  0  0  0
   42.9011   12.6179  -16.5323 C   0  0  0  0  0  0  0  0  0  0  0  0
   41.5498   12.5901  -16.4065 C   0  0  0  0  0  0  0  0  0  0  0  0
   40.8389   11.9385  -17.5609 C   0  0  0  0  0  0  0  0  0  0  0  0
   39.6036   12.6724  -17.9576 C   0  0  0  0  0  0  0  0  0  0  0  0
   38.7169   11.8369  -17.0012 C   0  0  0  0  0  0  0  0  0  0  0  0
   39.9151   10.8616  -16.9294 C   0  0  0  0  0  0  0  0  0  0  0  0
   38.4895   12.5570  -15.7833 N   0  0  0  0  0  0  0  0  0  0  0  0
   35.7521   10.2987  -17.1298 C   0  0  0  0  0  0  0  0  0  0  0  0
   35.3119   11.3777  -16.2871 N   0  0  0  0  0  0  0  0  0  0  0  0
   33.7829   11.3997  -16.1483 C   0  0  0  0  0  0  0  0  0  0  0  0
   35.9442   12.3629  -15.5761 C   0  0  0  0  0  0  0  0  0  0  0  0
   35.0032   13.1832  -15.0359 O   0  0  0  0  0  0  0  0  0  0  0  0
   36.5775   14.1388  -13.1300 C   0  0  0  0  0  0  0  0  0  0  0  0
   36.0002   15.3951  -13.3383 N   0  0  0  0  0  0  0  0  0  0  0  0
   36.2503   13.5154  -12.0670 O   0  0  0  0  0  0  0  0  0  0  0  0
   35.4850   15.6024  -14.2097 H   0  0  0  0  0  0  0  0  0  0  0  0
   36.0802   16.1392  -12.6115 H   0  0  0  0  0  0  0  0  0  0  0  0
   43.9402   13.7798  -13.1463 C   0  0  0  0  0  0  0  0  0  0  0  0
   44.7533   14.0606  -12.3055 C   0  0  0  0  0  0  0  0  0  0  0  0
   45.8042   14.4185  -11.3934 C   0  0  0  0  0  0  0  0  0  0  0  0
   45.4628   13.9557   -9.9714 C   0  0  0  0  0  0  0  0  0  0  0  0
   46.9745   13.6221  -11.7048 O   0  0  0  0  0  0  0  0  0  0  0  0
   47.0023   13.6256  -12.6903 H   0  0  0  0  0  0  0  0  0  0  0  0
   46.2253   15.8087  -11.3661 C   0  0  0  0  0  0  0  0  0  0  0  0
   45.9590   16.7944  -12.3430 C   0  0  0  0  0  0  0  0  0  0  0  0
   46.5980   17.9574  -11.9867 C   0  0  0  0  0  0  0  0  0  0  0  0
   46.5711   19.2451  -12.7572 C   0  0  0  0  0  0  0  0  0  0  0  0
   47.1968   17.6829  -10.8732 O   0  0  0  0  0  0  0  0  0  0  0  0
   47.0170   16.4665  -10.4646 N   0  0  0  0  0  0  0  0  0  0  0  0
 16 17  1  0  0  0
 17 18  1  0  0  0
 17 19  1  0  0  0
 19 20  2  0  0  0
 19  1  1  0  0  0
  1  2  2  0  0  0
  2  3  1  0  0  0
  3  4  2  0  0  0
  4  5  1  0  0  0
  5  6  2  0  0  0
  6  7  1  0  0  0
  7  8  2  0  0  0
  8  9  1  0  0  0
  9 10  2  0  0  0
 10 11  1  0  0  0
 11 12  1  0  0  0
 12 13  1  0  0  0
 13 14  1  0  0  0
 13 15  1  0  0  0
  7 26  1  0  0  0
 26 27  3  0  0  0
 28 27  1  0  0  0
 28 29  1  0  0  0
 28 30  1  0  0  0
 28 32  1  0  0  0
 32 33  1  0  0  0
 33 34  2  0  0  0
 34 35  1  0  0  0
 34 36  1  0  0  0
 36 37  1  0  0  0
  2 21  1  0  0  0
 21 22  1  0  0  0
 21 23  2  0  0  0
 15  1  1  0  0  0
 37 32  2  0  0  0
 15  4  1  0  0  0
 10  5  1  0  0  0
 14 11  1  0  0  0
 30 31  1  0  0  0
 22 24  1  0  0  0
 22 25  1  0  0  0
M  END
> <minimizedAffinity>
-8.37735

> <CNNscore>
0.1432738006

> <CNNaffinity>
6.6042633057

> <CNN_VS>
0.9462178946

> <CNNaffinity_variance>
0.0885995179

$$$$
[H]O[C@](C#Cc1c([H])c2c(c([H])c1F)OC([H])([H])C([H])([H])c1sc(C(=O)N([H])[H])nc1-2)(c1noc(C([H])([H])[H])n1)C([H])([H])[H]


 32 35  0  0  0  0  0  0  0  0999 V2000
   36.6076   14.0624  -13.2249 C   0  0  0  0  0  0  0  0  0  0  0  0
   37.0489   13.2304  -14.2193 C   0  0  0  0  0  0  0  0  0  0  0  0
   36.1560   12.6010  -15.0600 C   0  0  0  0  0  0  0  0  0  0  0  0
   36.8117   11.8068  -16.1396 C   0  0  0  0  0  0  0  0  0  0  0  0
   38.0326   12.1028  -16.4953 N   0  0  0  0  0  0  0  0  0  0  0  0
   38.5809   11.5083  -17.5342 C   0  0  0  0  0  0  0  0  0  0  0  0
   37.3101   10.4558  -18.0576 S   0  0  0  0  0  0  0  0  0  0  0  0
   36.1327   10.8685  -16.8675 C   0  0  0  0  0  0  0  0  0  0  0  0
   34.8088   10.1981  -16.8561 C   0  0  0  0  0  0  0  0  0  0  0  0
   33.7105   10.7879  -16.1093 C   0  0  0  0  0  0  0  0  0  0  0  0
   33.8164   12.1642  -15.7585 O   0  0  0  0  0  0  0  0  0  0  0  0
   34.7720   12.7877  -14.9327 C   0  0  0  0  0  0  0  0  0  0  0  0
   34.3184   13.6063  -13.9652 C   0  0  0  0  0  0  0  0  0  0  0  0
   35.2201   14.2307  -13.1243 C   0  0  0  0  0  0  0  0  0  0  0  0
   34.7875   15.0732  -12.1317 F   0  0  0  0  0  0  0  0  0  0  0  0
   39.9347   11.6242  -18.1275 C   0  0  0  0  0  0  0  0  0  0  0  0
   40.8579   12.4498  -17.4604 N   0  0  0  0  0  0  0  0  0  0  0  0
   40.2084   11.0127  -19.1485 O   0  0  0  0  0  0  0  0  0  0  0  0
   41.7491   12.0611  -17.0320 H   0  0  0  0  0  0  0  0  0  0  0  0
   40.7451   13.4645  -17.3483 H   0  0  0  0  0  0  0  0  0  0  0  0
   38.2664   15.2987  -11.5394 C   0  0  0  0  0  0  0  0  0  0  0  0
   37.4651   14.7383  -12.2771 C   0  0  0  0  0  0  0  0  0  0  0  0
   39.2866   15.9210  -10.7519 C   0  0  0  0  0  0  0  0  0  0  0  0
   38.7804   17.1838  -10.0221 C   0  0  0  0  0  0  0  0  0  0  0  0
   39.5882   15.0372   -9.6304 O   0  0  0  0  0  0  0  0  0  0  0  0
   39.2427   14.1219   -9.8208 H   0  0  0  0  0  0  0  0  0  0  0  0
   44.1789   16.4434  -11.3836 C   0  0  0  0  0  0  0  0  0  0  0  0
   42.7046   16.4678  -11.6823 C   0  0  0  0  0  0  0  0  0  0  0  0
   41.7391   16.0680  -10.8353 N   0  0  0  0  0  0  0  0  0  0  0  0
   40.5059   16.2333  -11.4538 C   0  0  0  0  0  0  0  0  0  0  0  0
   40.7757   16.7138  -12.6398 N   0  0  0  0  0  0  0  0  0  0  0  0
   42.0898   16.8623  -12.7902 O   0  0  0  0  0  0  0  0  0  0  0  0
 27 28  1  0  0  0
 28 29  2  0  0  0
 29 30  1  0  0  0
 30 31  2  0  0  0
 31 32  1  0  0  0
 30 23  1  0  0  0
 23 24  1  0  0  0
 23 25  1  0  0  0
 23 21  1  0  0  0
 21 22  3  0  0  0
 22  1  1  0  0  0
  1  2  2  0  0  0
  2  3  1  0  0  0
  3  4  1  0  0  0
  4  5  1  0  0  0
  5  6  2  0  0  0
  6  7  1  0  0  0
  7  8  1  0  0  0
  8  9  1  0  0  0
  9 10  1  0  0  0
 10 11  1  0  0  0
 11 12  1  0  0  0
 12 13  1  0  0  0
 13 14  2  0  0  0
 14 15  1  0  0  0
  6 16  1  0  0  0
 16 17  1  0  0  0
 16 18  2  0  0  0
 32 28  1  0  0  0
 14  1  1  0  0  0
 12  3  2  0  0  0
  8  4  2  0  0  0
 25 26  1  0  0  0
 17 19  1  0  0  0
 17 20  1  0  0  0
M  END
> <minimizedAffinity>
-9.87435

> <CNNscore>
0.6165462732

> <CNNaffinity>
7.1508493423

> <CNN_VS>
4.4088296890

> <CNNaffinity_variance>
0.0276314467

$$$$
[H]O[C@](C#Cc1c([H])c2c(c([H])c1F)OC([H])([H])C([H])([H])c1sc(C(=O)N([H])[H])nc1-2)(c1noc(C([H])([H])[H])n1)C([H])([H])[H]


 32 35  0  0  0  0  0  0  0  0999 V2000
   41.3301   14.6158  -13.5703 C   0  0  0  0  0  0  0  0  0  0  0  0
   40.7148   13.7328  -14.4174 C   0  0  0  0  0  0  0  0  0  0  0  0
   39.3414   13.6172  -14.4392 C   0  0  0  0  0  0  0  0  0  0  0  0
   38.8386   12.6771  -15.4830 C   0  0  0  0  0  0  0  0  0  0  0  0
   39.5886   12.4171  -16.5197 N   0  0  0  0  0  0  0  0  0  0  0  0
   39.1128   11.7010  -17.5168 C   0  0  0  0  0  0  0  0  0  0  0  0
   37.5043   11.3580  -16.9770 S   0  0  0  0  0  0  0  0  0  0  0  0
   37.5628   12.1838  -15.4645 C   0  0  0  0  0  0  0  0  0  0  0  0
   36.3883   12.1751  -14.5576 C   0  0  0  0  0  0  0  0  0  0  0  0
   36.3025   13.1491  -13.4826 C   0  0  0  0  0  0  0  0  0  0  0  0
   37.1206   14.3110  -13.5795 O   0  0  0  0  0  0  0  0  0  0  0  0
   38.5264   14.3942  -13.6033 C   0  0  0  0  0  0  0  0  0  0  0  0
   39.1117   15.2722  -12.7677 C   0  0  0  0  0  0  0  0  0  0  0  0
   40.4894   15.3794  -12.7495 C   0  0  0  0  0  0  0  0  0  0  0  0
   41.1137   16.2680  -11.9111 F   0  0  0  0  0  0  0  0  0  0  0  0
   39.7422   11.2344  -18.7755 C   0  0  0  0  0  0  0  0  0  0  0  0
   38.8861   10.7292  -19.7709 N   0  0  0  0  0  0  0  0  0  0  0  0
   40.9535   11.3037  -18.9149 O   0  0  0  0  0  0  0  0  0  0  0  0
   38.7867   11.2025  -20.7169 H   0  0  0  0  0  0  0  0  0  0  0  0
   38.3148    9.8827  -19.6620 H   0  0  0  0  0  0  0  0  0  0  0  0
   43.9755   14.9463  -13.4533 C   0  0  0  0  0  0  0  0  0  0  0  0
   42.7616   14.7826  -13.4541 C   0  0  0  0  0  0  0  0  0  0  0  0
   45.3879   15.1466  -13.5686 C   0  0  0  0  0  0  0  0  0  0  0  0
   45.7421   16.5427  -14.1245 C   0  0  0  0  0  0  0  0  0  0  0  0
   45.9412   15.2205  -12.2202 O   0  0  0  0  0  0  0  0  0  0  0  0
   45.2890   14.8437  -11.5676 H   0  0  0  0  0  0  0  0  0  0  0  0
   49.1258   13.1968  -16.1825 C   0  0  0  0  0  0  0  0  0  0  0  0
   47.7902   13.3182  -15.5006 C   0  0  0  0  0  0  0  0  0  0  0  0
   47.3745   14.3909  -14.8036 N   0  0  0  0  0  0  0  0  0  0  0  0
   46.0961   14.1413  -14.3200 C   0  0  0  0  0  0  0  0  0  0  0  0
   45.7990   12.9369  -14.7341 N   0  0  0  0  0  0  0  0  0  0  0  0
   46.8041   12.4319  -15.4456 O   0  0  0  0  0  0  0  0  0  0  0  0
 27 28  1  0  0  0
 28 29  2  0  0  0
 29 30  1  0  0  0
 30 31  2  0  0  0
 31 32  1  0  0  0
 30 23  1  0  0  0
 23 24  1  0  0  0
 23 25  1  0  0  0
 23 21  1  0  0  0
 21 22  3  0  0  0
 22  1  1  0  0  0
  1  2  2  0  0  0
  2  3  1  0  0  0
  3  4  1  0  0  0
  4  5  1  0  0  0
  5  6  2  0  0  0
  6  7  1  0  0  0
  7  8  1  0  0  0
  8  9  1  0  0  0
  9 10  1  0  0  0
 10 11  1  0  0  0
 11 12  1  0  0  0
 12 13  1  0  0  0
 13 14  2  0  0  0
 14 15  1  0  0  0
  6 16  1  0  0  0
 16 17  1  0  0  0
 16 18  2  0  0  0
 32 28  1  0  0  0
 14  1  1  0  0  0
 12  3  2  0  0  0
  8  4  2  0  0  0
 25 26  1  0  0  0
 17 19  1  0  0  0
 17 20  1  0  0  0
M  END
> <minimizedAffinity>
-8.31264

> <CNNscore>
0.5787488222

> <CNNaffinity>
7.2022652626

> <CNN_VS>
4.1683025360

> <CNNaffinity_variance>
0.4394189715

$$$$
[H]O[C@](C#Cc1c([H])c2c(c([H])c1F)OC([H])([H])C([H])([H])c1sc(C(=O)N([H])[H])nc1-2)(c1noc(C([H])([H])[H])n1)C([H])([H])[H]


 32 35  0  0  0  0  0  0  0  0999 V2000
   40.7853   13.1029  -15.3564 C   0  0  0  0  0  0  0  0  0  0  0  0
   39.4440   12.8837  -15.5257 C   0  0  0  0  0  0  0  0  0  0  0  0
   38.9850   12.0699  -16.5392 C   0  0  0  0  0  0  0  0  0  0  0  0
   37.5065   11.8700  -16.5203 C   0  0  0  0  0  0  0  0  0  0  0  0
   36.8547   12.0471  -15.4029 N   0  0  0  0  0  0  0  0  0  0  0  0
   35.5754   11.7452  -15.3290 C   0  0  0  0  0  0  0  0  0  0  0  0
   35.2479   11.1753  -16.9304 S   0  0  0  0  0  0  0  0  0  0  0  0
   36.8255   11.3731  -17.5976 C   0  0  0  0  0  0  0  0  0  0  0  0
   37.0883   11.0352  -19.0184 C   0  0  0  0  0  0  0  0  0  0  0  0
   38.4564   10.8522  -19.4729 C   0  0  0  0  0  0  0  0  0  0  0  0
   39.4512   10.6033  -18.4845 O   0  0  0  0  0  0  0  0  0  0  0  0
   39.8661   11.4377  -17.4283 C   0  0  0  0  0  0  0  0  0  0  0  0
   41.1886   11.6357  -17.2749 C   0  0  0  0  0  0  0  0  0  0  0  0
   41.6404   12.4560  -16.2585 C   0  0  0  0  0  0  0  0  0  0  0  0
   42.9825   12.6735  -16.0755 F   0  0  0  0  0  0  0  0  0  0  0  0
   34.6006   11.8752  -14.2194 C   0  0  0  0  0  0  0  0  0  0  0  0
   33.2376   11.9122  -14.5652 N   0  0  0  0  0  0  0  0  0  0  0  0
   34.9942   11.9394  -13.0651 O   0  0  0  0  0  0  0  0  0  0  0  0
   32.5602   11.1552  -14.2538 H   0  0  0  0  0  0  0  0  0  0  0  0
   32.8063   12.6589  -15.1231 H   0  0  0  0  0  0  0  0  0  0  0  0
   41.9010   14.6176  -13.4637 C   0  0  0  0  0  0  0  0  0  0  0  0
   41.3567   13.9640  -14.3452 C   0  0  0  0  0  0  0  0  0  0  0  0
   42.5915   15.2831  -12.4014 C   0  0  0  0  0  0  0  0  0  0  0  0
   41.6634   16.2044  -11.5807 C   0  0  0  0  0  0  0  0  0  0  0  0
   42.9587   14.2792  -11.4079 O   0  0  0  0  0  0  0  0  0  0  0  0
   42.9051   13.3699  -11.8125 H   0  0  0  0  0  0  0  0  0  0  0  0
   45.5054   19.2571  -12.9692 C   0  0  0  0  0  0  0  0  0  0  0  0
   45.0293   17.8318  -13.0407 C   0  0  0  0  0  0  0  0  0  0  0  0
   43.8636   17.3819  -12.5425 N   0  0  0  0  0  0  0  0  0  0  0  0
   43.7673   16.0186  -12.7929 C   0  0  0  0  0  0  0  0  0  0  0  0
   44.8716   15.7034  -13.4186 N   0  0  0  0  0  0  0  0  0  0  0  0
   45.6368   16.7808  -13.5768 O   0  0  0  0  0  0  0  0  0  0  0  0
 27 28  1  0  0  0
 28 29  2  0  0  0
 29 30  1  0  0  0
 30 31  2  0  0  0
 31 32  1  0  0  0
 30 23  1  0  0  0
 23 24  1  0  0  0
 23 25  1  0  0  0
 23 21  1  0  0  0
 21 22  3  0  0  0
 22  1  1  0  0  0
  1  2  2  0  0  0
  2  3  1  0  0  0
  3  4  1  0  0  0
  4  5  1  0  0  0
  5  6  2  0  0  0
  6  7  1  0  0  0
  7  8  1  0  0  0
  8  9  1  0  0  0
  9 10  1  0  0  0
 10 11  1  0  0  0
 11 12  1  0  0  0
 12 13  1  0  0  0
 13 14  2  0  0  0
 14 15  1  0  0  0
  6 16  1  0  0  0
 16 17  1  0  0  0
 16 18  2  0  0  0
 32 28  1  0  0  0
 14  1  1  0  0  0
 12  3  2  0  0  0
  8  4  2  0  0  0
 25 26  1  0  0  0
 17 19  1  0  0  0
 17 20  1  0  0  0
M  END
> <minimizedAffinity>
-8.18244

> <CNNscore>
0.5144121051

> <CNNaffinity>
7.0232477188

> <CNN_VS>
3.6128437519

> <CNNaffinity_variance>
0.1791788042

$$$$
[H]O[C@](C#Cc1c([H])c2c(c([H])c1F)OC([H])([H])C([H])([H])c1sc(C(=O)N([H])[H])nc1-2)(c1noc(C([H])([H])[H])n1)C([H])([H])[H]


 32 35  0  0  0  0  0  0  0  0999 V2000
   36.8007   14.2400  -13.1697 C   0  0  0  0  0  0  0  0  0  0  0  0
   37.2284   13.3899  -14.1547 C   0  0  0  0  0  0  0  0  0  0  0  0
   36.3248   12.7568  -14.9810 C   0  0  0  0  0  0  0  0  0  0  0  0
   36.9668   11.9411  -16.0528 C   0  0  0  0  0  0  0  0  0  0  0  0
   38.1883   12.2207  -16.4198 N   0  0  0  0  0  0  0  0  0  0  0  0
   38.7249   11.6063  -17.4532 C   0  0  0  0  0  0  0  0  0  0  0  0
   37.4415   10.5583  -17.9541 S   0  0  0  0  0  0  0  0  0  0  0  0
   36.2749   10.9989  -16.7633 C   0  0  0  0  0  0  0  0  0  0  0  0
   34.9450   10.3411  -16.7346 C   0  0  0  0  0  0  0  0  0  0  0  0
   33.8566   10.9517  -15.9901 C   0  0  0  0  0  0  0  0  0  0  0  0
   33.9773   12.3319  -15.6597 O   0  0  0  0  0  0  0  0  0  0  0  0
   34.9434   12.9582  -14.8485 C   0  0  0  0  0  0  0  0  0  0  0  0
   34.5031   13.7947  -13.8903 C   0  0  0  0  0  0  0  0  0  0  0  0
   35.4155   14.4227  -13.0636 C   0  0  0  0  0  0  0  0  0  0  0  0
   34.9965   15.2833  -12.0807 F   0  0  0  0  0  0  0  0  0  0  0  0
   40.0762   11.7010  -18.0558 C   0  0  0  0  0  0  0  0  0  0  0  0
   41.0487   12.4208  -17.3381 N   0  0  0  0  0  0  0  0  0  0  0  0
   40.3062   11.1622  -19.1274 O   0  0  0  0  0  0  0  0  0  0  0  0
   41.9231   11.9532  -16.9565 H   0  0  0  0  0  0  0  0  0  0  0  0
   40.9903   13.4273  -17.1421 H   0  0  0  0  0  0  0  0  0  0  0  0
   38.3246   15.5230  -11.3941 C   0  0  0  0  0  0  0  0  0  0  0  0
   37.6700   14.9215  -12.2367 C   0  0  0  0  0  0  0  0  0  0  0  0
   38.9882   16.2626  -10.3642 C   0  0  0  0  0  0  0  0  0  0  0  0
   40.5258   16.1965  -10.4879 C   0  0  0  0  0  0  0  0  0  0  0  0
   38.7375   17.6809  -10.5989 O   0  0  0  0  0  0  0  0  0  0  0  0
   37.9638   17.7880  -11.2181 H   0  0  0  0  0  0  0  0  0  0  0  0
   37.1853   13.4412   -6.7042 C   0  0  0  0  0  0  0  0  0  0  0  0
   37.7719   14.6313   -7.4135 C   0  0  0  0  0  0  0  0  0  0  0  0
   38.0878   14.6719   -8.7204 N   0  0  0  0  0  0  0  0  0  0  0  0
   38.6043   15.9274   -9.0162 C   0  0  0  0  0  0  0  0  0  0  0  0
   38.5865   16.5837   -7.8852 N   0  0  0  0  0  0  0  0  0  0  0  0
   38.0875   15.8203   -6.9158 O   0  0  0  0  0  0  0  0  0  0  0  0
 27 28  1  0  0  0
 28 29  2  0  0  0
 29 30  1  0  0  0
 30 31  2  0  0  0
 31 32  1  0  0  0
 30 23  1  0  0  0
 23 24  1  0  0  0
 23 25  1  0  0  0
 23 21  1  0  0  0
 21 22  3  0  0  0
 22  1  1  0  0  0
  1  2  2  0  0  0
  2  3  1  0  0  0
  3  4  1  0  0  0
  4  5  1  0  0  0
  5  6  2  0  0  0
  6  7  1  0  0  0
  7  8  1  0  0  0
  8  9  1  0  0  0
  9 10  1  0  0  0
 10 11  1  0  0  0
 11 12  1  0  0  0
 12 13  1  0  0  0
 13 14  2  0  0  0
 14 15  1  0  0  0
  6 16  1  0  0  0
 16 17  1  0  0  0
 16 18  2  0  0  0
 32 28  1  0  0  0
 14  1  1  0  0  0
 12  3  2  0  0  0
  8  4  2  0  0  0
 25 26  1  0  0  0
 17 19  1  0  0  0
 17 20  1  0  0  0
M  END
> <minimizedAffinity>
-9.20738

> <CNNscore>
0.4855615497

> <CNNaffinity>
7.0666666031

> <CNN_VS>
3.4313015938

> <CNNaffinity_variance>
0.1254871786

$$$$
[H]O[C@](C#Cc1c([H])c2c(c([H])c1F)OC([H])([H])C([H])([H])c1sc(C(=O)N([H])[H])nc1-2)(c1noc(C([H])([H])[H])n1)C([H])([H])[H]


 32 35  0  0  0  0  0  0  0  0999 V2000
   40.6923   13.4371  -15.0692 C   0  0  0  0  0  0  0  0  0  0  0  0
   39.3927   13.1011  -15.3407 C   0  0  0  0  0  0  0  0  0  0  0  0
   39.0890   12.2283  -16.3636 C   0  0  0  0  0  0  0  0  0  0  0  0
   37.6357   11.9043  -16.4593 C   0  0  0  0  0  0  0  0  0  0  0  0
   36.8803   12.0508  -15.4045 N   0  0  0  0  0  0  0  0  0  0  0  0
   35.6285   11.6432  -15.4262 C   0  0  0  0  0  0  0  0  0  0  0  0
   35.4845   11.0113  -17.0314 S   0  0  0  0  0  0  0  0  0  0  0  0
   37.0907   11.3270  -17.5733 C   0  0  0  0  0  0  0  0  0  0  0  0
   37.4985   10.9803  -18.9573 C   0  0  0  0  0  0  0  0  0  0  0  0
   38.9103   10.9037  -19.2931 C   0  0  0  0  0  0  0  0  0  0  0  0
   39.8361   10.7627  -18.2199 O   0  0  0  0  0  0  0  0  0  0  0  0
   40.0907   11.6531  -17.1587 C   0  0  0  0  0  0  0  0  0  0  0  0
   41.3748   11.9660  -16.9040 C   0  0  0  0  0  0  0  0  0  0  0  0
   41.6705   12.8446  -15.8789 C   0  0  0  0  0  0  0  0  0  0  0  0
   42.9700   13.1794  -15.5937 F   0  0  0  0  0  0  0  0  0  0  0  0
   34.5570   11.7153  -14.4042 C   0  0  0  0  0  0  0  0  0  0  0  0
   33.2595   11.3533  -14.8096 N   0  0  0  0  0  0  0  0  0  0  0  0
   34.8212   12.0718  -13.2663 O   0  0  0  0  0  0  0  0  0  0  0  0
   32.7552   10.5167  -14.3916 H   0  0  0  0  0  0  0  0  0  0  0  0
   32.7150   11.8628  -15.5159 H   0  0  0  0  0  0  0  0  0  0  0  0
   41.5215   15.0864  -13.1421 C   0  0  0  0  0  0  0  0  0  0  0  0
   41.1040   14.3664  -14.0408 C   0  0  0  0  0  0  0  0  0  0  0  0
   42.0752   15.8377  -12.0572 C   0  0  0  0  0  0  0  0  0  0  0  0
   42.9884   16.9852  -12.5399 C   0  0  0  0  0  0  0  0  0  0  0  0
   40.9881   16.5770  -11.4237 O   0  0  0  0  0  0  0  0  0  0  0  0
   40.1124   16.1846  -11.6930 H   0  0  0  0  0  0  0  0  0  0  0  0
   45.0060   12.2416  -10.3008 C   0  0  0  0  0  0  0  0  0  0  0  0
   44.0775   13.4253  -10.3200 C   0  0  0  0  0  0  0  0  0  0  0  0
   43.5866   14.0028  -11.4312 N   0  0  0  0  0  0  0  0  0  0  0  0
   42.7701   15.0638  -11.0597 C   0  0  0  0  0  0  0  0  0  0  0  0
   42.8077   15.0877   -9.7526 N   0  0  0  0  0  0  0  0  0  0  0  0
   43.5855   14.1095   -9.2948 O   0  0  0  0  0  0  0  0  0  0  0  0
 27 28  1  0  0  0
 28 29  2  0  0  0
 29 30  1  0  0  0
 30 31  2  0  0  0
 31 32  1  0  0  0
 30 23  1  0  0  0
 23 24  1  0  0  0
 23 25  1  0  0  0
 23 21  1  0  0  0
 21 22  3  0  0  0
 22  1  1  0  0  0
  1  2  2  0  0  0
  2  3  1  0  0  0
  3  4  1  0  0  0
  4  5  1  0  0  0
  5  6  2  0  0  0
  6  7  1  0  0  0
  7  8  1  0  0  0
  8  9  1  0  0  0
  9 10  1  0  0  0
 10 11  1  0  0  0
 11 12  1  0  0  0
 12 13  1  0  0  0
 13 14  2  0  0  0
 14 15  1  0  0  0
  6 16  1  0  0  0
 16 17  1  0  0  0
 16 18  2  0  0  0
 32 28  1  0  0  0
 14  1  1  0  0  0
 12  3  2  0  0  0
  8  4  2  0  0  0
 25 26  1  0  0  0
 17 19  1  0  0  0
 17 20  1  0  0  0
M  END
> <minimizedAffinity>
-8.08011

> <CNNscore>
0.4436014891

> <CNNaffinity>
7.0511169434

> <CNN_VS>
3.1278860569

> <CNNaffinity_variance>
0.1689128876

$$$$
[H]O[C@](C#Cc1c([H])c2c(c([H])c1F)OC([H])([H])C([H])([H])c1sc(C(=O)N([H])[H])nc1-2)(c1noc(C([H])([H])[H])n1)C([H])([H])[H]


 32 35  0  0  0  0  0  0  0  0999 V2000
   40.8056   14.6367  -13.4409 C   0  0  0  0  0  0  0  0  0  0  0  0
   40.3071   13.7365  -14.3447 C   0  0  0  0  0  0  0  0  0  0  0  0
   38.9472   13.5720  -14.4991 C   0  0  0  0  0  0  0  0  0  0  0  0
   38.5816   12.6197  -15.5880 C   0  0  0  0  0  0  0  0  0  0  0  0
   39.4369   12.3918  -16.5478 N   0  0  0  0  0  0  0  0  0  0  0  0
   39.0856   11.6641  -17.5872 C   0  0  0  0  0  0  0  0  0  0  0  0
   37.4460   11.2610  -17.2056 S   0  0  0  0  0  0  0  0  0  0  0  0
   37.3286   12.0809  -15.6934 C   0  0  0  0  0  0  0  0  0  0  0  0
   36.0732   12.0258  -14.9041 C   0  0  0  0  0  0  0  0  0  0  0  0
   35.8492   12.9907  -13.8409 C   0  0  0  0  0  0  0  0  0  0  0  0
   36.6303   14.1816  -13.8567 O   0  0  0  0  0  0  0  0  0  0  0  0
   38.0280   14.3152  -13.7446 C   0  0  0  0  0  0  0  0  0  0  0  0
   38.4979   15.2094  -12.8552 C   0  0  0  0  0  0  0  0  0  0  0  0
   39.8628   15.3657  -12.7039 C   0  0  0  0  0  0  0  0  0  0  0  0
   40.3709   16.2720  -11.8079 F   0  0  0  0  0  0  0  0  0  0  0  0
   39.8498   11.2265  -18.7800 C   0  0  0  0  0  0  0  0  0  0  0  0
   39.1085   10.8815  -19.9247 N   0  0  0  0  0  0  0  0  0  0  0  0
   41.0697   11.1832  -18.7417 O   0  0  0  0  0  0  0  0  0  0  0  0
   39.1926   11.4280  -20.8319 H   0  0  0  0  0  0  0  0  0  0  0  0
   38.4540   10.0912  -19.9688 H   0  0  0  0  0  0  0  0  0  0  0  0
   43.3775   15.1156  -12.9142 C   0  0  0  0  0  0  0  0  0  0  0  0
   42.2123   14.8541  -13.1869 C   0  0  0  0  0  0  0  0  0  0  0  0
   44.6999   15.5184  -12.5438 C   0  0  0  0  0  0  0  0  0  0  0  0
   45.0408   15.1515  -11.0834 C   0  0  0  0  0  0  0  0  0  0  0  0
   45.6446   14.6863  -13.2818 O   0  0  0  0  0  0  0  0  0  0  0  0
   45.1817   14.2514  -14.0498 H   0  0  0  0  0  0  0  0  0  0  0  0
   47.5153   19.6006  -12.6692 C   0  0  0  0  0  0  0  0  0  0  0  0
   46.3072   18.7124  -12.7927 C   0  0  0  0  0  0  0  0  0  0  0  0
   46.2947   17.3891  -12.5518 N   0  0  0  0  0  0  0  0  0  0  0  0
   45.0100   16.9074  -12.7705 C   0  0  0  0  0  0  0  0  0  0  0  0
   44.3087   17.9481  -13.1386 N   0  0  0  0  0  0  0  0  0  0  0  0
   45.0725   19.0380  -13.1539 O   0  0  0  0  0  0  0  0  0  0  0  0
 27 28  1  0  0  0
 28 29  2  0  0  0
 29 30  1  0  0  0
 30 31  2  0  0  0
 31 32  1  0  0  0
 30 23  1  0  0  0
 23 24  1  0  0  0
 23 25  1  0  0  0
 23 21  1  0  0  0
 21 22  3  0  0  0
 22  1  1  0  0  0
  1  2  2  0  0  0
  2  3  1  0  0  0
  3  4  1  0  0  0
  4  5  1  0  0  0
  5  6  2  0  0  0
  6  7  1  0  0  0
  7  8  1  0  0  0
  8  9  1  0  0  0
  9 10  1  0  0  0
 10 11  1  0  0  0
 11 12  1  0  0  0
 12 13  1  0  0  0
 13 14  2  0  0  0
 14 15  1  0  0  0
  6 16  1  0  0  0
 16 17  1  0  0  0
 16 18  2  0  0  0
 32 28  1  0  0  0
 14  1  1  0  0  0
 12  3  2  0  0  0
  8  4  2  0  0  0
 25 26  1  0  0  0
 17 19  1  0  0  0
 17 20  1  0  0  0
M  END
> <minimizedAffinity>
-7.99269

> <CNNscore>
0.4427858591

> <CNNaffinity>
6.7911581993

> <CNN_VS>
3.0070288181

> <CNNaffinity_variance>
0.3012900949

$$$$
[H]O[C@](C#Cc1c([H])c2c(c([H])c1F)OC([H])([H])C([H])([H])c1sc(C(=O)N([H])[H])nc1-2)(c1noc(C([H])([H])[H])n1)C([H])([H])[H]


 32 35  0  0  0  0  0  0  0  0999 V2000
   36.2520   13.5128  -13.0408 C   0  0  0  0  0  0  0  0  0  0  0  0
   37.3347   13.0895  -13.7650 C   0  0  0  0  0  0  0  0  0  0  0  0
   37.1780   12.5873  -15.0391 C   0  0  0  0  0  0  0  0  0  0  0  0
   38.4679   12.2602  -15.7140 C   0  0  0  0  0  0  0  0  0  0  0  0
   39.5627   12.8480  -15.3133 N   0  0  0  0  0  0  0  0  0  0  0  0
   40.6855   12.6794  -15.9798 C   0  0  0  0  0  0  0  0  0  0  0  0
   40.1889   11.6232  -17.2582 S   0  0  0  0  0  0  0  0  0  0  0  0
   38.5258   11.4706  -16.8296 C   0  0  0  0  0  0  0  0  0  0  0  0
   37.6190   10.6117  -17.6309 C   0  0  0  0  0  0  0  0  0  0  0  0
   36.1800   10.7671  -17.5007 C   0  0  0  0  0  0  0  0  0  0  0  0
   35.6970   11.9813  -16.9344 O   0  0  0  0  0  0  0  0  0  0  0  0
   35.9145   12.4928  -15.6401 C   0  0  0  0  0  0  0  0  0  0  0  0
   34.8384   12.9092  -14.9471 C   0  0  0  0  0  0  0  0  0  0  0  0
   35.0038   13.4081  -13.6688 C   0  0  0  0  0  0  0  0  0  0  0  0
   33.9261   13.8433  -12.9399 F   0  0  0  0  0  0  0  0  0  0  0  0
   42.0563   13.1882  -15.7344 C   0  0  0  0  0  0  0  0  0  0  0  0
   43.0340   12.8866  -16.6998 N   0  0  0  0  0  0  0  0  0  0  0  0
   42.2943   13.8428  -14.7312 O   0  0  0  0  0  0  0  0  0  0  0  0
   43.5152   13.6462  -17.2656 H   0  0  0  0  0  0  0  0  0  0  0  0
   43.3521   11.9346  -16.9175 H   0  0  0  0  0  0  0  0  0  0  0  0
   36.2703   14.4728  -10.5510 C   0  0  0  0  0  0  0  0  0  0  0  0
   36.3149   14.0220  -11.6891 C   0  0  0  0  0  0  0  0  0  0  0  0
   36.1085   15.0330   -9.2440 C   0  0  0  0  0  0  0  0  0  0  0  0
   34.8986   15.9881   -9.1573 C   0  0  0  0  0  0  0  0  0  0  0  0
   35.6979   13.9597   -8.3445 O   0  0  0  0  0  0  0  0  0  0  0  0
   35.8965   13.0766   -8.7615 H   0  0  0  0  0  0  0  0  0  0  0  0
   40.9426   15.8962   -8.5423 C   0  0  0  0  0  0  0  0  0  0  0  0
   39.4497   16.0255   -8.4083 C   0  0  0  0  0  0  0  0  0  0  0  0
   38.5480   15.2901   -9.0832 N   0  0  0  0  0  0  0  0  0  0  0  0
   37.2724   15.6888   -8.7035 C   0  0  0  0  0  0  0  0  0  0  0  0
   37.4548   16.6445   -7.8296 N   0  0  0  0  0  0  0  0  0  0  0  0
   38.7552   16.8556   -7.6405 O   0  0  0  0  0  0  0  0  0  0  0  0
 27 28  1  0  0  0
 28 29  2  0  0  0
 29 30  1  0  0  0
 30 31  2  0  0  0
 31 32  1  0  0  0
 30 23  1  0  0  0
 23 24  1  0  0  0
 23 25  1  0  0  0
 23 21  1  0  0  0
 21 22  3  0  0  0
 22  1  1  0  0  0
  1  2  2  0  0  0
  2  3  1  0  0  0
  3  4  1  0  0  0
  4  5  1  0  0  0
  5  6  2  0  0  0
  6  7  1  0  0  0
  7  8  1  0  0  0
  8  9  1  0  0  0
  9 10  1  0  0  0
 10 11  1  0  0  0
 11 12  1  0  0  0
 12 13  1  0  0  0
 13 14  2  0  0  0
 14 15  1  0  0  0
  6 16  1  0  0  0
 16 17  1  0  0  0
 16 18  2  0  0  0
 32 28  1  0  0  0
 14  1  1  0  0  0
 12  3  2  0  0  0
  8  4  2  0  0  0
 25 26  1  0  0  0
 17 19  1  0  0  0
 17 20  1  0  0  0
M  END
> <minimizedAffinity>
-8.68210

> <CNNscore>
0.4418503940

> <CNNaffinity>
7.0071916580

> <CNN_VS>
3.0961303711

> <CNNaffinity_variance>
0.1624355614

$$$$
[H]O[C@](C#Cc1c([H])c2c(c([H])c1F)OC([H])([H])C([H])([H])c1sc(C(=O)N([H])[H])nc1-2)(c1noc(C([H])([H])[H])n1)C([H])([H])[H]


 32 35  0  0  0  0  0  0  0  0999 V2000
   35.5993   13.7213  -12.6302 C   0  0  0  0  0  0  0  0  0  0  0  0
   36.4683   13.1346  -13.5114 C   0  0  0  0  0  0  0  0  0  0  0  0
   36.0098   12.5631  -14.6790 C   0  0  0  0  0  0  0  0  0  0  0  0
   37.0995   12.0534  -15.5615 C   0  0  0  0  0  0  0  0  0  0  0  0
   38.3017   12.5479  -15.4386 N   0  0  0  0  0  0  0  0  0  0  0  0
   39.2446   12.2137  -16.2945 C   0  0  0  0  0  0  0  0  0  0  0  0
   38.4038   11.1286  -17.3492 S   0  0  0  0  0  0  0  0  0  0  0  0
   36.8566   11.1851  -16.5903 C   0  0  0  0  0  0  0  0  0  0  0  0
   35.7314   10.3733  -17.1166 C   0  0  0  0  0  0  0  0  0  0  0  0
   34.3695   10.6901  -16.7210 C   0  0  0  0  0  0  0  0  0  0  0  0
   34.1241   11.9860  -16.1835 O   0  0  0  0  0  0  0  0  0  0  0  0
   34.6469   12.5617  -15.0090 C   0  0  0  0  0  0  0  0  0  0  0  0
   33.7772   13.1385  -14.1589 C   0  0  0  0  0  0  0  0  0  0  0  0
   34.2448   13.7061  -12.9887 C   0  0  0  0  0  0  0  0  0  0  0  0
   33.3827   14.3044  -12.1049 F   0  0  0  0  0  0  0  0  0  0  0  0
   40.6768   12.5894  -16.3703 C   0  0  0  0  0  0  0  0  0  0  0  0
   41.3447   12.3273  -17.5803 N   0  0  0  0  0  0  0  0  0  0  0  0
   41.2239   13.1076  -15.4092 O   0  0  0  0  0  0  0  0  0  0  0  0
   41.7415   13.1084  -18.1814 H   0  0  0  0  0  0  0  0  0  0  0  0
   41.5009   11.3851  -17.9581 H   0  0  0  0  0  0  0  0  0  0  0  0
   36.2191   14.7896  -10.2647 C   0  0  0  0  0  0  0  0  0  0  0  0
   35.9829   14.3153  -11.3690 C   0  0  0  0  0  0  0  0  0  0  0  0
   36.3841   15.3206   -8.9460 C   0  0  0  0  0  0  0  0  0  0  0  0
   37.2299   16.6121   -8.9318 C   0  0  0  0  0  0  0  0  0  0  0  0
   35.0870   15.8164   -8.4973 O   0  0  0  0  0  0  0  0  0  0  0  0
   34.3642   15.4288   -9.0637 H   0  0  0  0  0  0  0  0  0  0  0  0
   39.8341   13.1022   -6.1562 C   0  0  0  0  0  0  0  0  0  0  0  0
   38.4908   13.4238   -6.7526 C   0  0  0  0  0  0  0  0  0  0  0  0
   38.2585   14.3984   -7.6500 N   0  0  0  0  0  0  0  0  0  0  0  0
   36.9061   14.3990   -7.9687 C   0  0  0  0  0  0  0  0  0  0  0  0
   36.3816   13.4394   -7.2515 N   0  0  0  0  0  0  0  0  0  0  0  0
   37.3201   12.8439   -6.5193 O   0  0  0  0  0  0  0  0  0  0  0  0
 27 28  1  0  0  0
 28 29  2  0  0  0
 29 30  1  0  0  0
 30 31  2  0  0  0
 31 32  1  0  0  0
 30 23  1  0  0  0
 23 24  1  0  0  0
 23 25  1  0  0  0
 23 21  1  0  0  0
 21 22  3  0  0  0
 22  1  1  0  0  0
  1  2  2  0  0  0
  2  3  1  0  0  0
  3  4  1  0  0  0
  4  5  1  0  0  0
  5  6  2  0  0  0
  6  7  1  0  0  0
  7  8  1  0  0  0
  8  9  1  0  0  0
  9 10  1  0  0  0
 10 11  1  0  0  0
 11 12  1  0  0  0
 12 13  1  0  0  0
 13 14  2  0  0  0
 14 15  1  0  0  0
  6 16  1  0  0  0
 16 17  1  0  0  0
 16 18  2  0  0  0
 32 28  1  0  0  0
 14  1  1  0  0  0
 12  3  2  0  0  0
  8  4  2  0  0  0
 25 26  1  0  0  0
 17 19  1  0  0  0
 17 20  1  0  0  0
M  END
> <minimizedAffinity>
-9.01513

> <CNNscore>
0.4263970554

> <CNNaffinity>
6.9317541122

> <CNN_VS>
2.9556796551

> <CNNaffinity_variance>
0.1170991510

$$$$
[H]O[C@](C#Cc1c([H])c2c(c([H])c1F)OC([H])([H])C([H])([H])c1sc(C(=O)N([H])[H])nc1-2)(c1noc(C([H])([H])[H])n1)C([H])([H])[H]


 32 35  0  0  0  0  0  0  0  0999 V2000
   36.3481   13.4367  -13.3073 C   0  0  0  0  0  0  0  0  0  0  0  0
   37.5197   13.0843  -13.9229 C   0  0  0  0  0  0  0  0  0  0  0  0
   37.5167   12.5634  -15.1991 C   0  0  0  0  0  0  0  0  0  0  0  0
   38.8830   12.3217  -15.7477 C   0  0  0  0  0  0  0  0  0  0  0  0
   39.8931   12.9868  -15.2558 N   0  0  0  0  0  0  0  0  0  0  0  0
   41.0818   12.8917  -15.8137 C   0  0  0  0  0  0  0  0  0  0  0  0
   40.7795   11.7945  -17.1180 S   0  0  0  0  0  0  0  0  0  0  0  0
   39.0981   11.5300  -16.8424 C   0  0  0  0  0  0  0  0  0  0  0  0
   38.3305   10.6046  -17.7121 C   0  0  0  0  0  0  0  0  0  0  0  0
   36.8784   10.6607  -17.7172 C   0  0  0  0  0  0  0  0  0  0  0  0
   36.2630   11.8426  -17.2143 O   0  0  0  0  0  0  0  0  0  0  0  0
   36.3239   12.3772  -15.9126 C   0  0  0  0  0  0  0  0  0  0  0  0
   35.1622   12.7229  -15.3273 C   0  0  0  0  0  0  0  0  0  0  0  0
   35.1736   13.2412  -14.0462 C   0  0  0  0  0  0  0  0  0  0  0  0
   34.0057   13.6059  -13.4256 F   0  0  0  0  0  0  0  0  0  0  0  0
   42.3859   13.4960  -15.4499 C   0  0  0  0  0  0  0  0  0  0  0  0
   43.4104   13.4361  -16.4120 N   0  0  0  0  0  0  0  0  0  0  0  0
   42.5321   14.0210  -14.3570 O   0  0  0  0  0  0  0  0  0  0  0  0
   43.8211   14.3136  -16.8480 H   0  0  0  0  0  0  0  0  0  0  0  0
   43.8316   12.5621  -16.7493 H   0  0  0  0  0  0  0  0  0  0  0  0
   36.1037   14.4696  -10.8589 C   0  0  0  0  0  0  0  0  0  0  0  0
   36.2501   13.9588  -11.9625 C   0  0  0  0  0  0  0  0  0  0  0  0
   35.8725   15.1517   -9.6222 C   0  0  0  0  0  0  0  0  0  0  0  0
   36.3908   16.6058   -9.6448 C   0  0  0  0  0  0  0  0  0  0  0  0
   34.4341   15.3568   -9.4861 O   0  0  0  0  0  0  0  0  0  0  0  0
   33.9471   14.7506  -10.1095 H   0  0  0  0  0  0  0  0  0  0  0  0
   35.6879   13.1720   -5.0776 C   0  0  0  0  0  0  0  0  0  0  0  0
   36.2435   13.6272   -6.3996 C   0  0  0  0  0  0  0  0  0  0  0  0
   35.5268   14.2064   -7.3794 N   0  0  0  0  0  0  0  0  0  0  0  0
   36.3725   14.4863   -8.4457 C   0  0  0  0  0  0  0  0  0  0  0  0
   37.5516   14.0615   -8.0723 N   0  0  0  0  0  0  0  0  0  0  0  0
   37.4904   13.5463   -6.8466 O   0  0  0  0  0  0  0  0  0  0  0  0
 27 28  1  0  0  0
 28 29  2  0  0  0
 29 30  1  0  0  0
 30 31  2  0  0  0
 31 32  1  0  0  0
 30 23  1  0  0  0
 23 24  1  0  0  0
 23 25  1  0  0  0
 23 21  1  0  0  0
 21 22  3  0  0  0
 22  1  1  0  0  0
  1  2  2  0  0  0
  2  3  1  0  0  0
  3  4  1  0  0  0
  4  5  1  0  0  0
  5  6  2  0  0  0
  6  7  1  0  0  0
  7  8  1  0  0  0
  8  9  1  0  0  0
  9 10  1  0  0  0
 10 11  1  0  0  0
 11 12  1  0  0  0
 12 13  1  0  0  0
 13 14  2  0  0  0
 14 15  1  0  0  0
  6 16  1  0  0  0
 16 17  1  0  0  0
 16 18  2  0  0  0
 32 28  1  0  0  0
 14  1  1  0  0  0
 12  3  2  0  0  0
  8  4  2  0  0  0
 25 26  1  0  0  0
 17 19  1  0  0  0
 17 20  1  0  0  0
M  END
> <minimizedAffinity>
-8.73953

> <CNNscore>
0.4215711653

> <CNNaffinity>
6.7922158241

> <CNN_VS>
2.8634023666

> <CNNaffinity_variance>
0.0876850188

$$$$
[H]OC(C#Cc1c([H])c2c(c([H])c1F)OC([H])([H])C([H])([H])n1c-2nc(C(=O)N([H])[H])c1[H])(c1nc([H])c([H])s1)C([H])([H])[H]


 31 34  0  0  0  0  0  0  0  0999 V2000
   36.6894   13.8233  -13.0695 C   0  0  0  0  0  0  0  0  0  0  0  0
   37.2831   13.2194  -14.1377 C   0  0  0  0  0  0  0  0  0  0  0  0
   36.4548   12.5943  -15.0633 C   0  0  0  0  0  0  0  0  0  0  0  0
   37.2352   11.9852  -16.1295 C   0  0  0  0  0  0  0  0  0  0  0  0
   38.4993   12.3543  -16.4848 N   0  0  0  0  0  0  0  0  0  0  0  0
   38.8506   11.5449  -17.5140 C   0  0  0  0  0  0  0  0  0  0  0  0
   37.8042   10.6949  -17.7764 C   0  0  0  0  0  0  0  0  0  0  0  0
   36.7998   10.9686  -16.9130 N   0  0  0  0  0  0  0  0  0  0  0  0
   35.5491   10.2816  -16.8483 C   0  0  0  0  0  0  0  0  0  0  0  0
   34.3182   11.1169  -16.8833 C   0  0  0  0  0  0  0  0  0  0  0  0
   34.1791   11.9917  -15.7793 O   0  0  0  0  0  0  0  0  0  0  0  0
   35.0672   12.5824  -14.9092 C   0  0  0  0  0  0  0  0  0  0  0  0
   34.4700   13.1923  -13.8271 C   0  0  0  0  0  0  0  0  0  0  0  0
   35.2858   13.8040  -12.9240 C   0  0  0  0  0  0  0  0  0  0  0  0
   34.7707   14.4192  -11.8398 F   0  0  0  0  0  0  0  0  0  0  0  0
   40.1038   11.5079  -18.2596 C   0  0  0  0  0  0  0  0  0  0  0  0
   41.2640   12.0546  -17.6867 N   0  0  0  0  0  0  0  0  0  0  0  0
   40.1449   10.9833  -19.4150 O   0  0  0  0  0  0  0  0  0  0  0  0
   42.0639   12.3073  -18.3302 H   0  0  0  0  0  0  0  0  0  0  0  0
   41.3954   12.2285  -16.6692 H   0  0  0  0  0  0  0  0  0  0  0  0
   38.1917   15.0736  -11.2561 C   0  0  0  0  0  0  0  0  0  0  0  0
   37.4705   14.5178  -12.0794 C   0  0  0  0  0  0  0  0  0  0  0  0
   40.3772   16.1679  -11.0623 C   0  0  0  0  0  0  0  0  0  0  0  0
   39.1079   15.6781  -10.3143 C   0  0  0  0  0  0  0  0  0  0  0  0
   39.5701   14.7948   -9.3397 O   0  0  0  0  0  0  0  0  0  0  0  0
   38.8397   14.6918   -8.6651 H   0  0  0  0  0  0  0  0  0  0  0  0
   38.5012   16.8770   -9.6755 C   0  0  0  0  0  0  0  0  0  0  0  0
   38.2953   18.0761  -10.2320 N   0  0  0  0  0  0  0  0  0  0  0  0
   37.7299   19.0118   -9.5553 C   0  0  0  0  0  0  0  0  0  0  0  0
   37.3514   18.7353   -8.2613 C   0  0  0  0  0  0  0  0  0  0  0  0
   37.8519   17.1087   -8.1091 S   0  0  0  0  0  0  0  0  0  0  0  0
 23 24  1  0  0  0
 24 25  1  0  0  0
 24 21  1  0  0  0
 21 22  3  0  0  0
 22  1  1  0  0  0
  1  2  2  0  0  0
  2  3  1  0  0  0
  3  4  1  0  0  0
  4  5  2  0  0  0
  5  6  1  0  0  0
  6  7  2  0  0  0
  7  8  1  0  0  0
  8  9  1  0  0  0
  9 10  1  0  0  0
 10 11  1  0  0  0
 11 12  1  0  0  0
 12 13  1  0  0  0
 13 14  2  0  0  0
 14 15  1  0  0  0
  6 16  1  0  0  0
 16 17  1  0  0  0
 16 18  2  0  0  0
 24 27  1  0  0  0
 27 28  2  0  0  0
 28 29  1  0  0  0
 29 30  2  0  0  0
 30 31  1  0  0  0
 14  1  1  0  0  0
 31 27  1  0  0  0
 12  3  2  0  0  0
  8  4  1  0  0  0
 25 26  1  0  0  0
 17 19  1  0  0  0
 17 20  1  0  0  0
M  END
> <minimizedAffinity>
-9.13563

> <CNNscore>
0.5828971863

> <CNNaffinity>
7.0398855209

> <CNN_VS>
4.1035294533

> <CNNaffinity_variance>
0.2056688964

$$$$
[H]OC(C#Cc1c([H])c2c(c([H])c1F)OC([H])([H])C([H])([H])n1c-2nc(C(=O)N([H])[H])c1[H])(c1nc([H])c([H])s1)C([H])([H])[H]


 31 34  0  0  0  0  0  0  0  0999 V2000
   40.7553   14.8565  -13.2400 C   0  0  0  0  0  0  0  0  0  0  0  0
   40.4084   14.0450  -14.2790 C   0  0  0  0  0  0  0  0  0  0  0  0
   39.0540   13.8008  -14.4775 C   0  0  0  0  0  0  0  0  0  0  0  0
   38.8482   12.9079  -15.6077 C   0  0  0  0  0  0  0  0  0  0  0  0
   39.7325   12.7194  -16.6289 N   0  0  0  0  0  0  0  0  0  0  0  0
   39.1549   11.8209  -17.4636 C   0  0  0  0  0  0  0  0  0  0  0  0
   37.9307   11.4718  -16.9481 C   0  0  0  0  0  0  0  0  0  0  0  0
   37.7414   12.1477  -15.7919 N   0  0  0  0  0  0  0  0  0  0  0  0
   36.5991   12.0363  -14.9415 C   0  0  0  0  0  0  0  0  0  0  0  0
   35.9224   13.3028  -14.5519 C   0  0  0  0  0  0  0  0  0  0  0  0
   36.7248   14.1751  -13.7779 O   0  0  0  0  0  0  0  0  0  0  0  0
   38.0821   14.3625  -13.6472 C   0  0  0  0  0  0  0  0  0  0  0  0
   38.4363   15.1811  -12.5964 C   0  0  0  0  0  0  0  0  0  0  0  0
   39.7642   15.4178  -12.4069 C   0  0  0  0  0  0  0  0  0  0  0  0
   40.1835   16.2075  -11.3971 F   0  0  0  0  0  0  0  0  0  0  0  0
   39.6777   11.2604  -18.7047 C   0  0  0  0  0  0  0  0  0  0  0  0
   38.7871   10.7166  -19.6451 N   0  0  0  0  0  0  0  0  0  0  0  0
   40.9265   11.2672  -18.9332 O   0  0  0  0  0  0  0  0  0  0  0  0
   39.1743   10.0480  -20.3669 H   0  0  0  0  0  0  0  0  0  0  0  0
   37.7687   10.9261  -19.6849 H   0  0  0  0  0  0  0  0  0  0  0  0
   43.3247   15.3998  -12.7799 C   0  0  0  0  0  0  0  0  0  0  0  0
   42.1331   15.1844  -12.9810 C   0  0  0  0  0  0  0  0  0  0  0  0
   45.5334   14.7637  -13.6334 C   0  0  0  0  0  0  0  0  0  0  0  0
   44.7451   15.5704  -12.5665 C   0  0  0  0  0  0  0  0  0  0  0  0
   45.1866   15.0869  -11.3356 O   0  0  0  0  0  0  0  0  0  0  0  0
   44.9338   15.7640  -10.6452 H   0  0  0  0  0  0  0  0  0  0  0  0
   45.1412   16.9948  -12.7314 C   0  0  0  0  0  0  0  0  0  0  0  0
   44.3793   18.0032  -13.1704 N   0  0  0  0  0  0  0  0  0  0  0  0
   44.8597   19.1943  -13.2313 C   0  0  0  0  0  0  0  0  0  0  0  0
   46.1631   19.3867  -12.8336 C   0  0  0  0  0  0  0  0  0  0  0  0
   46.6136   17.7986  -12.3924 S   0  0  0  0  0  0  0  0  0  0  0  0
 23 24  1  0  0  0
 24 25  1  0  0  0
 24 21  1  0  0  0
 21 22  3  0  0  0
 22  1  1  0  0  0
  1  2  2  0  0  0
  2  3  1  0  0  0
  3  4  1  0  0  0
  4  5  2  0  0  0
  5  6  1  0  0  0
  6  7  2  0  0  0
  7  8  1  0  0  0
  8  9  1  0  0  0
  9 10  1  0  0  0
 10 11  1  0  0  0
 11 12  1  0  0  0
 12 13  1  0  0  0
 13 14  2  0  0  0
 14 15  1  0  0  0
  6 16  1  0  0  0
 16 17  1  0  0  0
 16 18  2  0  0  0
 24 27  1  0  0  0
 27 28  2  0  0  0
 28 29  1  0  0  0
 29 30  2  0  0  0
 30 31  1  0  0  0
 14  1  1  0  0  0
 31 27  1  0  0  0
 12  3  2  0  0  0
  8  4  1  0  0  0
 25 26  1  0  0  0
 17 19  1  0  0  0
 17 20  1  0  0  0
M  END
> <minimizedAffinity>
-7.68479

> <CNNscore>
0.5084318519

> <CNNaffinity>
6.7193307877

> <CNN_VS>
3.4163217545

> <CNNaffinity_variance>
0.2579719424

$$$$
[H]OC(C#Cc1c([H])c2c(c([H])c1F)OC([H])([H])C([H])([H])n1c-2nc(C(=O)N([H])[H])c1[H])(c1nc([H])c([H])s1)C([H])([H])[H]


 31 34  0  0  0  0  0  0  0  0999 V2000
   36.5300   13.9180  -13.2308 C   0  0  0  0  0  0  0  0  0  0  0  0
   37.1558   13.2911  -14.2670 C   0  0  0  0  0  0  0  0  0  0  0  0
   36.3599   12.5963  -15.1711 C   0  0  0  0  0  0  0  0  0  0  0  0
   37.1724   11.9713  -16.2036 C   0  0  0  0  0  0  0  0  0  0  0  0
   38.4254   12.3716  -16.5646 N   0  0  0  0  0  0  0  0  0  0  0  0
   38.8161   11.5323  -17.5548 C   0  0  0  0  0  0  0  0  0  0  0  0
   37.8042   10.6333  -17.7884 C   0  0  0  0  0  0  0  0  0  0  0  0
   36.7823   10.9063  -16.9456 N   0  0  0  0  0  0  0  0  0  0  0  0
   35.5572   10.1766  -16.8610 C   0  0  0  0  0  0  0  0  0  0  0  0
   34.2967   10.9632  -16.9421 C   0  0  0  0  0  0  0  0  0  0  0  0
   34.1149   11.8790  -15.8782 O   0  0  0  0  0  0  0  0  0  0  0  0
   34.9723   12.5393  -15.0276 C   0  0  0  0  0  0  0  0  0  0  0  0
   34.3427   13.1726  -13.9777 C   0  0  0  0  0  0  0  0  0  0  0  0
   35.1268   13.8526  -13.0956 C   0  0  0  0  0  0  0  0  0  0  0  0
   34.5790   14.4943  -12.0433 F   0  0  0  0  0  0  0  0  0  0  0  0
   40.0768   11.5098  -18.2882 C   0  0  0  0  0  0  0  0  0  0  0  0
   41.2219   12.0817  -17.7095 N   0  0  0  0  0  0  0  0  0  0  0  0
   40.1380   10.9753  -19.4381 O   0  0  0  0  0  0  0  0  0  0  0  0
   42.0235   12.3421  -18.3478 H   0  0  0  0  0  0  0  0  0  0  0  0
   41.3405   12.2672  -16.6925 H   0  0  0  0  0  0  0  0  0  0  0  0
   37.9397   15.3703  -11.4953 C   0  0  0  0  0  0  0  0  0  0  0  0
   37.2755   14.6831  -12.2656 C   0  0  0  0  0  0  0  0  0  0  0  0
   38.7721   15.6647   -9.2079 C   0  0  0  0  0  0  0  0  0  0  0  0
   38.7578   16.2197  -10.6578 C   0  0  0  0  0  0  0  0  0  0  0  0
   38.2794   17.5248  -10.5502 O   0  0  0  0  0  0  0  0  0  0  0  0
   38.5298   18.0009  -11.3926 H   0  0  0  0  0  0  0  0  0  0  0  0
   40.1703   16.2268  -11.1248 C   0  0  0  0  0  0  0  0  0  0  0  0
   40.6167   16.5045  -12.3552 N   0  0  0  0  0  0  0  0  0  0  0  0
   41.8790   16.4968  -12.5994 C   0  0  0  0  0  0  0  0  0  0  0  0
   42.7357   16.1982  -11.5646 C   0  0  0  0  0  0  0  0  0  0  0  0
   41.6335   15.9418  -10.2842 S   0  0  0  0  0  0  0  0  0  0  0  0
 23 24  1  0  0  0
 24 25  1  0  0  0
 24 21  1  0  0  0
 21 22  3  0  0  0
 22  1  1  0  0  0
  1  2  2  0  0  0
  2  3  1  0  0  0
  3  4  1  0  0  0
  4  5  2  0  0  0
  5  6  1  0  0  0
  6  7  2  0  0  0
  7  8  1  0  0  0
  8  9  1  0  0  0
  9 10  1  0  0  0
 10 11  1  0  0  0
 11 12  1  0  0  0
 12 13  1  0  0  0
 13 14  2  0  0  0
 14 15  1  0  0  0
  6 16  1  0  0  0
 16 17  1  0  0  0
 16 18  2  0  0  0
 24 27  1  0  0  0
 27 28  2  0  0  0
 28 29  1  0  0  0
 29 30  2  0  0  0
 30 31  1  0  0  0
 14  1  1  0  0  0
 31 27  1  0  0  0
 12  3  2  0  0  0
  8  4  1  0  0  0
 25 26  1  0  0  0
 17 19  1  0  0  0
 17 20  1  0  0  0
M  END
> <minimizedAffinity>
-9.26125

> <CNNscore>
0.4666044116

> <CNNaffinity>
6.9223909378

> <CNN_VS>
3.2300181389

> <CNNaffinity_variance>
0.0421685800

$$$$
[H]OC(C#Cc1c([H])c2c(c([H])c1F)OC([H])([H])C([H])([H])n1c-2nc(C(=O)N([H])[H])c1[H])(c1nc([H])c([H])s1)C([H])([H])[H]


 31 34  0  0  0  0  0  0  0  0999 V2000
   36.0170   13.2682  -13.4315 C   0  0  0  0  0  0  0  0  0  0  0  0
   37.2124   13.0496  -14.0494 C   0  0  0  0  0  0  0  0  0  0  0  0
   37.1842   12.4782  -15.3168 C   0  0  0  0  0  0  0  0  0  0  0  0
   38.5321   12.2938  -15.8326 C   0  0  0  0  0  0  0  0  0  0  0  0
   39.6306   12.9907  -15.4224 N   0  0  0  0  0  0  0  0  0  0  0  0
   40.6694   12.5164  -16.1528 C   0  0  0  0  0  0  0  0  0  0  0  0
   40.1986   11.5410  -16.9974 C   0  0  0  0  0  0  0  0  0  0  0  0
   38.8684   11.4020  -16.7961 N   0  0  0  0  0  0  0  0  0  0  0  0
   38.0198   10.4678  -17.4651 C   0  0  0  0  0  0  0  0  0  0  0  0
   36.7885   11.0102  -18.1003 C   0  0  0  0  0  0  0  0  0  0  0  0
   35.8657   11.5757  -17.1880 O   0  0  0  0  0  0  0  0  0  0  0  0
   35.9804   12.1390  -15.9374 C   0  0  0  0  0  0  0  0  0  0  0  0
   34.7736   12.3596  -15.3092 C   0  0  0  0  0  0  0  0  0  0  0  0
   34.8067   12.9204  -14.0684 C   0  0  0  0  0  0  0  0  0  0  0  0
   33.6642   13.1630  -13.3939 F   0  0  0  0  0  0  0  0  0  0  0  0
   42.0737   12.9082  -16.1044 C   0  0  0  0  0  0  0  0  0  0  0  0
   42.9629   12.4092  -17.0705 N   0  0  0  0  0  0  0  0  0  0  0  0
   42.4868   13.6958  -15.1984 O   0  0  0  0  0  0  0  0  0  0  0  0
   43.9973   12.4343  -16.8534 H   0  0  0  0  0  0  0  0  0  0  0  0
   42.6767   12.0160  -17.9904 H   0  0  0  0  0  0  0  0  0  0  0  0
   35.9662   14.4247  -11.0297 C   0  0  0  0  0  0  0  0  0  0  0  0
   35.9540   13.8819  -12.1306 C   0  0  0  0  0  0  0  0  0  0  0  0
   36.9024   16.3842   -9.8916 C   0  0  0  0  0  0  0  0  0  0  0  0
   36.0650   15.0849   -9.7466 C   0  0  0  0  0  0  0  0  0  0  0  0
   36.7218   14.3271   -8.7781 O   0  0  0  0  0  0  0  0  0  0  0  0
   36.0727   13.6413   -8.4502 H   0  0  0  0  0  0  0  0  0  0  0  0
   34.7227   15.4964   -9.2545 C   0  0  0  0  0  0  0  0  0  0  0  0
   33.6420   15.7832   -9.9893 N   0  0  0  0  0  0  0  0  0  0  0  0
   32.5366   16.0985   -9.4134 C   0  0  0  0  0  0  0  0  0  0  0  0
   32.5098   16.1274   -8.0377 C   0  0  0  0  0  0  0  0  0  0  0  0
   34.1190   15.6900   -7.6649 S   0  0  0  0  0  0  0  0  0  0  0  0
 23 24  1  0  0  0
 24 25  1  0  0  0
 24 21  1  0  0  0
 21 22  3  0  0  0
 22  1  1  0  0  0
  1  2  2  0  0  0
  2  3  1  0  0  0
  3  4  1  0  0  0
  4  5  2  0  0  0
  5  6  1  0  0  0
  6  7  2  0  0  0
  7  8  1  0  0  0
  8  9  1  0  0  0
  9 10  1  0  0  0
 10 11  1  0  0  0
 11 12  1  0  0  0
 12 13  1  0  0  0
 13 14  2  0  0  0
 14 15  1  0  0  0
  6 16  1  0  0  0
 16 17  1  0  0  0
 16 18  2  0  0  0
 24 27  1  0  0  0
 27 28  2  0  0  0
 28 29  1  0  0  0
 29 30  2  0  0  0
 30 31  1  0  0  0
 14  1  1  0  0  0
 31 27  1  0  0  0
 12  3  2  0  0  0
  8  4  1  0  0  0
 25 26  1  0  0  0
 17 19  1  0  0  0
 17 20  1  0  0  0
M  END
> <minimizedAffinity>
-7.99427

> <CNNscore>
0.4047573805

> <CNNaffinity>
6.8374962807

> <CNN_VS>
2.7675271034

> <CNNaffinity_variance>
0.1690656245

$$$$
[H]OC(C#Cc1c([H])c2c(c([H])c1F)OC([H])([H])C([H])([H])n1c-2nc(C(=O)N([H])[H])c1[H])(c1nc([H])c([H])s1)C([H])([H])[H]


 31 34  0  0  0  0  0  0  0  0999 V2000
   40.3764   15.0609  -13.0725 C   0  0  0  0  0  0  0  0  0  0  0  0
   40.1889   14.2239  -14.1321 C   0  0  0  0  0  0  0  0  0  0  0  0
   38.8834   13.8495  -14.4306 C   0  0  0  0  0  0  0  0  0  0  0  0
   38.8508   12.9458  -15.5703 C   0  0  0  0  0  0  0  0  0  0  0  0
   39.8231   12.8490  -16.5221 N   0  0  0  0  0  0  0  0  0  0  0  0
   39.3999   11.9020  -17.3949 C   0  0  0  0  0  0  0  0  0  0  0  0
   38.1806   11.4328  -16.9712 C   0  0  0  0  0  0  0  0  0  0  0  0
   37.8405   12.0819  -15.8344 N   0  0  0  0  0  0  0  0  0  0  0  0
   36.6542   11.8557  -15.0714 C   0  0  0  0  0  0  0  0  0  0  0  0
   35.8298   13.0484  -14.7371 C   0  0  0  0  0  0  0  0  0  0  0  0
   36.4831   13.9915  -13.9079 O   0  0  0  0  0  0  0  0  0  0  0  0
   37.8021   14.3100  -13.6768 C   0  0  0  0  0  0  0  0  0  0  0  0
   37.9952   15.1546  -12.6049 C   0  0  0  0  0  0  0  0  0  0  0  0
   39.2757   15.5190  -12.3174 C   0  0  0  0  0  0  0  0  0  0  0  0
   39.5394   16.3415  -11.2815 F   0  0  0  0  0  0  0  0  0  0  0  0
   40.0661   11.4007  -18.5919 C   0  0  0  0  0  0  0  0  0  0  0  0
   39.2932   10.9103  -19.6574 N   0  0  0  0  0  0  0  0  0  0  0  0
   41.3331   11.4106  -18.6699 O   0  0  0  0  0  0  0  0  0  0  0  0
   39.7629   10.2761  -20.3609 H   0  0  0  0  0  0  0  0  0  0  0  0
   38.2868   11.1283  -19.8072 H   0  0  0  0  0  0  0  0  0  0  0  0
   42.8226   15.9339  -12.4704 C   0  0  0  0  0  0  0  0  0  0  0  0
   41.6923   15.5206  -12.7122 C   0  0  0  0  0  0  0  0  0  0  0  0
   44.3375   17.7698  -13.0585 C   0  0  0  0  0  0  0  0  0  0  0  0
   44.1612   16.4439  -12.2703 C   0  0  0  0  0  0  0  0  0  0  0  0
   45.1591   15.5945  -12.7461 O   0  0  0  0  0  0  0  0  0  0  0  0
   45.2664   14.8612  -12.0755 H   0  0  0  0  0  0  0  0  0  0  0  0
   44.3998   16.7656  -10.8375 C   0  0  0  0  0  0  0  0  0  0  0  0
   45.3450   17.5666  -10.3323 N   0  0  0  0  0  0  0  0  0  0  0  0
   45.4070   17.7695   -9.0642 C   0  0  0  0  0  0  0  0  0  0  0  0
   44.4799   17.1428   -8.2632 C   0  0  0  0  0  0  0  0  0  0  0  0
   43.5652   16.2840   -9.4232 S   0  0  0  0  0  0  0  0  0  0  0  0
 23 24  1  0  0  0
 24 25  1  0  0  0
 24 21  1  0  0  0
 21 22  3  0  0  0
 22  1  1  0  0  0
  1  2  2  0  0  0
  2  3  1  0  0  0
  3  4  1  0  0  0
  4  5  2  0  0  0
  5  6  1  0  0  0
  6  7  2  0  0  0
  7  8  1  0  0  0
  8  9  1  0  0  0
  9 10  1  0  0  0
 10 11  1  0  0  0
 11 12  1  0  0  0
 12 13  1  0  0  0
 13 14  2  0  0  0
 14 15  1  0  0  0
  6 16  1  0  0  0
 16 17  1  0  0  0
 16 18  2  0  0  0
 24 27  1  0  0  0
 27 28  2  0  0  0
 28 29  1  0  0  0
 29 30  2  0  0  0
 30 31  1  0  0  0
 14  1  1  0  0  0
 31 27  1  0  0  0
 12  3  2  0  0  0
  8  4  1  0  0  0
 25 26  1  0  0  0
 17 19  1  0  0  0
 17 20  1  0  0  0
M  END
> <minimizedAffinity>
-7.88947

> <CNNscore>
0.4039419591

> <CNNaffinity>
6.4694075584

> <CNN_VS>
2.6132652760

> <CNNaffinity_variance>
0.1975837499

$$$$
[H]OC(C#Cc1c([H])c2c(c([H])c1F)OC([H])([H])C([H])([H])n1c-2nc(C(=O)N([H])[H])c1[H])(c1nc([H])c([H])s1)C([H])([H])[H]


 31 34  0  0  0  0  0  0  0  0999 V2000
   40.1424   15.0660  -13.1403 C   0  0  0  0  0  0  0  0  0  0  0  0
   39.9781   14.2204  -14.1969 C   0  0  0  0  0  0  0  0  0  0  0  0
   38.6878   13.7809  -14.4720 C   0  0  0  0  0  0  0  0  0  0  0  0
   38.6800   12.8764  -15.6116 C   0  0  0  0  0  0  0  0  0  0  0  0
   39.6386   12.8282  -16.5808 N   0  0  0  0  0  0  0  0  0  0  0  0
   39.2478   11.8610  -17.4465 C   0  0  0  0  0  0  0  0  0  0  0  0
   38.0613   11.3313  -17.0012 C   0  0  0  0  0  0  0  0  0  0  0  0
   37.7097   11.9629  -15.8581 N   0  0  0  0  0  0  0  0  0  0  0  0
   36.5502   11.6777  -15.0740 C   0  0  0  0  0  0  0  0  0  0  0  0
   35.6732   12.8277  -14.7241 C   0  0  0  0  0  0  0  0  0  0  0  0
   36.2932   13.8025  -13.9062 O   0  0  0  0  0  0  0  0  0  0  0  0
   37.5986   14.1868  -13.6986 C   0  0  0  0  0  0  0  0  0  0  0  0
   37.7683   15.0403  -12.6298 C   0  0  0  0  0  0  0  0  0  0  0  0
   39.0340   15.4686  -12.3653 C   0  0  0  0  0  0  0  0  0  0  0  0
   39.2747   16.3035  -11.3337 F   0  0  0  0  0  0  0  0  0  0  0  0
   39.9166   11.3934  -18.6555 C   0  0  0  0  0  0  0  0  0  0  0  0
   39.1489   10.8797  -19.7138 N   0  0  0  0  0  0  0  0  0  0  0  0
   41.1811   11.4533  -18.7505 O   0  0  0  0  0  0  0  0  0  0  0  0
   39.6334   10.2686  -20.4277 H   0  0  0  0  0  0  0  0  0  0  0  0
   38.1329   11.0591  -19.8486 H   0  0  0  0  0  0  0  0  0  0  0  0
   42.5722   16.0035  -12.5698 C   0  0  0  0  0  0  0  0  0  0  0  0
   41.4399   15.5912  -12.8035 C   0  0  0  0  0  0  0  0  0  0  0  0
   44.2920   16.3374  -10.8544 C   0  0  0  0  0  0  0  0  0  0  0  0
   43.9352   16.4407  -12.3619 C   0  0  0  0  0  0  0  0  0  0  0  0
   44.1516   17.7750  -12.7032 O   0  0  0  0  0  0  0  0  0  0  0  0
   44.2195   17.8171  -13.6996 H   0  0  0  0  0  0  0  0  0  0  0  0
   44.8926   15.5627  -13.0870 C   0  0  0  0  0  0  0  0  0  0  0  0
   44.6520   14.8265  -14.1780 N   0  0  0  0  0  0  0  0  0  0  0  0
   45.5968   14.1356  -14.7101 C   0  0  0  0  0  0  0  0  0  0  0  0
   46.8413   14.1836  -14.1246 C   0  0  0  0  0  0  0  0  0  0  0  0
   46.5523   15.2446  -12.8167 S   0  0  0  0  0  0  0  0  0  0  0  0
 23 24  1  0  0  0
 24 25  1  0  0  0
 24 21  1  0  0  0
 21 22  3  0  0  0
 22  1  1  0  0  0
  1  2  2  0  0  0
  2  3  1  0  0  0
  3  4  1  0  0  0
  4  5  2  0  0  0
  5  6  1  0  0  0
  6  7  2  0  0  0
  7  8  1  0  0  0
  8  9  1  0  0  0
  9 10  1  0  0  0
 10 11  1  0  0  0
 11 12  1  0  0  0
 12 13  1  0  0  0
 13 14  2  0  0  0
 14 15  1  0  0  0
  6 16  1  0  0  0
 16 17  1  0  0  0
 16 18  2  0  0  0
 24 27  1  0  0  0
 27 28  2  0  0  0
 28 29  1  0  0  0
 29 30  2  0  0  0
 30 31  1  0  0  0
 14  1  1  0  0  0
 31 27  1  0  0  0
 12  3  2  0  0  0
  8  4  1  0  0  0
 25 26  1  0  0  0
 17 19  1  0  0  0
 17 20  1  0  0  0
M  END
> <minimizedAffinity>
-7.81101

> <CNNscore>
0.3753839135

> <CNNaffinity>
6.6717467308

> <CNN_VS>
2.5044662952

> <CNNaffinity_variance>
0.2752304971

$$$$
[H]OC(C#Cc1c([H])c2c(c([H])c1F)OC([H])([H])C([H])([H])n1c-2nc(C(=O)N([H])[H])c1[H])(c1nc([H])c([H])s1)C([H])([H])[H]


 31 34  0  0  0  0  0  0  0  0999 V2000
   40.3600   13.2658  -15.2823 C   0  0  0  0  0  0  0  0  0  0  0  0
   39.0357   12.9522  -15.3619 C   0  0  0  0  0  0  0  0  0  0  0  0
   38.6351   12.1193  -16.4009 C   0  0  0  0  0  0  0  0  0  0  0  0
   37.1983   11.8936  -16.3600 C   0  0  0  0  0  0  0  0  0  0  0  0
   36.4151   12.0266  -15.2512 N   0  0  0  0  0  0  0  0  0  0  0  0
   35.1541   11.7220  -15.6446 C   0  0  0  0  0  0  0  0  0  0  0  0
   35.1788   11.4072  -16.9812 C   0  0  0  0  0  0  0  0  0  0  0  0
   36.4515   11.5160  -17.4260 N   0  0  0  0  0  0  0  0  0  0  0  0
   36.8838   11.2964  -18.7697 C   0  0  0  0  0  0  0  0  0  0  0  0
   38.0223   10.3589  -18.9671 C   0  0  0  0  0  0  0  0  0  0  0  0
   39.2370   10.7898  -18.3819 O   0  0  0  0  0  0  0  0  0  0  0  0
   39.5500   11.6207  -17.3301 C   0  0  0  0  0  0  0  0  0  0  0  0
   40.8880   11.9411  -17.2480 C   0  0  0  0  0  0  0  0  0  0  0  0
   41.2753   12.7564  -16.2279 C   0  0  0  0  0  0  0  0  0  0  0  0
   42.5684   13.1131  -16.0872 F   0  0  0  0  0  0  0  0  0  0  0  0
   33.9276   11.7169  -14.8549 C   0  0  0  0  0  0  0  0  0  0  0  0
   33.5518   12.8762  -14.1565 N   0  0  0  0  0  0  0  0  0  0  0  0
   33.2055   10.6740  -14.8025 O   0  0  0  0  0  0  0  0  0  0  0  0
   32.8644   12.7750  -13.3597 H   0  0  0  0  0  0  0  0  0  0  0  0
   33.9010   13.8333  -14.3682 H   0  0  0  0  0  0  0  0  0  0  0  0
   41.2692   14.7623  -13.2718 C   0  0  0  0  0  0  0  0  0  0  0  0
   40.8642   14.0985  -14.2215 C   0  0  0  0  0  0  0  0  0  0  0  0
   42.4415   16.7844  -12.5313 C   0  0  0  0  0  0  0  0  0  0  0  0
   41.7110   15.4844  -12.0990 C   0  0  0  0  0  0  0  0  0  0  0  0
   42.6330   14.7812  -11.3250 O   0  0  0  0  0  0  0  0  0  0  0  0
   42.1199   14.1049  -10.7973 H   0  0  0  0  0  0  0  0  0  0  0  0
   40.5531   15.9042  -11.2645 C   0  0  0  0  0  0  0  0  0  0  0  0
   39.3020   16.1429  -11.6740 N   0  0  0  0  0  0  0  0  0  0  0  0
   38.3974   16.4734  -10.8222 C   0  0  0  0  0  0  0  0  0  0  0  0
   38.7604   16.5689   -9.4982 C   0  0  0  0  0  0  0  0  0  0  0  0
   40.4195   16.1682   -9.5789 S   0  0  0  0  0  0  0  0  0  0  0  0
 23 24  1  0  0  0
 24 25  1  0  0  0
 24 21  1  0  0  0
 21 22  3  0  0  0
 22  1  1  0  0  0
  1  2  2  0  0  0
  2  3  1  0  0  0
  3  4  1  0  0  0
  4  5  2  0  0  0
  5  6  1  0  0  0
  6  7  2  0  0  0
  7  8  1  0  0  0
  8  9  1  0  0  0
  9 10  1  0  0  0
 10 11  1  0  0  0
 11 12  1  0  0  0
 12 13  1  0  0  0
 13 14  2  0  0  0
 14 15  1  0  0  0
  6 16  1  0  0  0
 16 17  1  0  0  0
 16 18  2  0  0  0
 24 27  1  0  0  0
 27 28  2  0  0  0
 28 29  1  0  0  0
 29 30  2  0  0  0
 30 31  1  0  0  0
 14  1  1  0  0  0
 31 27  1  0  0  0
 12  3  2  0  0  0
  8  4  1  0  0  0
 25 26  1  0  0  0
 17 19  1  0  0  0
 17 20  1  0  0  0
M  END
> <minimizedAffinity>
-8.11328

> <CNNscore>
0.3142854273

> <CNNaffinity>
6.8807182312

> <CNN_VS>
2.1625094414

> <CNNaffinity_variance>
0.1440363675

$$$$
[H]OC(C#Cc1c([H])c2c(c([H])c1F)OC([H])([H])C([H])([H])n1c-2nc(C(=O)N([H])[H])c1[H])(c1nc([H])c([H])s1)C([H])([H])[H]


 31 34  0  0  0  0  0  0  0  0999 V2000
   39.1392   13.2462  -14.4152 C   0  0  0  0  0  0  0  0  0  0  0  0
   38.1356   13.7887  -13.6690 C   0  0  0  0  0  0  0  0  0  0  0  0
   36.8395   13.3553  -13.9255 C   0  0  0  0  0  0  0  0  0  0  0  0
   35.8849   14.0363  -13.0641 C   0  0  0  0  0  0  0  0  0  0  0  0
   36.1854   14.6199  -11.8684 N   0  0  0  0  0  0  0  0  0  0  0  0
   35.0210   15.1295  -11.3972 C   0  0  0  0  0  0  0  0  0  0  0  0
   34.0264   14.8537  -12.3034 C   0  0  0  0  0  0  0  0  0  0  0  0
   34.5655   14.1747  -13.3415 N   0  0  0  0  0  0  0  0  0  0  0  0
   33.8590   13.7307  -14.5008 C   0  0  0  0  0  0  0  0  0  0  0  0
   34.0028   12.2965  -14.8701 C   0  0  0  0  0  0  0  0  0  0  0  0
   35.3205   11.9170  -15.2211 O   0  0  0  0  0  0  0  0  0  0  0  0
   36.5705   12.4014  -14.9089 C   0  0  0  0  0  0  0  0  0  0  0  0
   37.5873   11.8561  -15.6629 C   0  0  0  0  0  0  0  0  0  0  0  0
   38.8551   12.2834  -15.4070 C   0  0  0  0  0  0  0  0  0  0  0  0
   39.8989   11.7945  -16.1075 F   0  0  0  0  0  0  0  0  0  0  0  0
   34.7807   15.8661  -10.1613 C   0  0  0  0  0  0  0  0  0  0  0  0
   33.5279   15.7698   -9.5332 N   0  0  0  0  0  0  0  0  0  0  0  0
   35.6974   16.5852   -9.6571 O   0  0  0  0  0  0  0  0  0  0  0  0
   33.2588   16.5248   -8.8438 H   0  0  0  0  0  0  0  0  0  0  0  0
   32.8421   15.0044   -9.6963 H   0  0  0  0  0  0  0  0  0  0  0  0
   41.6920   13.8753  -13.9725 C   0  0  0  0  0  0  0  0  0  0  0  0
   40.5128   13.6175  -14.1955 C   0  0  0  0  0  0  0  0  0  0  0  0
   43.4514   13.3846  -12.3368 C   0  0  0  0  0  0  0  0  0  0  0  0
   43.0863   14.1045  -13.6630 C   0  0  0  0  0  0  0  0  0  0  0  0
   43.3981   15.4471  -13.4537 O   0  0  0  0  0  0  0  0  0  0  0  0
   43.4576   15.8795  -14.3529 H   0  0  0  0  0  0  0  0  0  0  0  0
   43.9669   13.5301  -14.7156 C   0  0  0  0  0  0  0  0  0  0  0  0
   45.3001   13.4220  -14.6880 N   0  0  0  0  0  0  0  0  0  0  0  0
   45.9223   12.8722  -15.6696 C   0  0  0  0  0  0  0  0  0  0  0  0
   45.1763   12.4075  -16.7287 C   0  0  0  0  0  0  0  0  0  0  0  0
   43.5944   12.8084  -16.2220 S   0  0  0  0  0  0  0  0  0  0  0  0
 23 24  1  0  0  0
 24 25  1  0  0  0
 24 21  1  0  0  0
 21 22  3  0  0  0
 22  1  1  0  0  0
  1  2  2  0  0  0
  2  3  1  0  0  0
  3  4  1  0  0  0
  4  5  2  0  0  0
  5  6  1  0  0  0
  6  7  2  0  0  0
  7  8  1  0  0  0
  8  9  1  0  0  0
  9 10  1  0  0  0
 10 11  1  0  0  0
 11 12  1  0  0  0
 12 13  1  0  0  0
 13 14  2  0  0  0
 14 15  1  0  0  0
  6 16  1  0  0  0
 16 17  1  0  0  0
 16 18  2  0  0  0
 24 27  1  0  0  0
 27 28  2  0  0  0
 28 29  1  0  0  0
 29 30  2  0  0  0
 30 31  1  0  0  0
 14  1  1  0  0  0
 31 27  1  0  0  0
 12  3  2  0  0  0
  8  4  1  0  0  0
 25 26  1  0  0  0
 17 19  1  0  0  0
 17 20  1  0  0  0
M  END
> <minimizedAffinity>
-8.50357

> <CNNscore>
0.2897954285

> <CNNaffinity>
6.2452969551

> <CNN_VS>
1.8098585606

> <CNNaffinity_variance>
0.1391188800

$$$$
[H]OC(C#Cc1c([H])c2c(c([H])c1F)OC([H])([H])C([H])([H])n1c-2nc(C(=O)N([H])[H])c1[H])(c1nc([H])c([H])s1)C([H])([H])[H]


 31 34  0  0  0  0  0  0  0  0999 V2000
   39.3474   12.5867  -15.4629 C   0  0  0  0  0  0  0  0  0  0  0  0
   38.5211   13.1046  -14.5102 C   0  0  0  0  0  0  0  0  0  0  0  0
   37.1621   12.8329  -14.6235 C   0  0  0  0  0  0  0  0  0  0  0  0
   36.4152   13.4661  -13.5473 C   0  0  0  0  0  0  0  0  0  0  0  0
   36.9385   13.8403  -12.3445 N   0  0  0  0  0  0  0  0  0  0  0  0
   35.9129   14.3803  -11.6415 C   0  0  0  0  0  0  0  0  0  0  0  0
   34.7799   14.3305  -12.4163 C   0  0  0  0  0  0  0  0  0  0  0  0
   35.0940   13.7629  -13.6030 N   0  0  0  0  0  0  0  0  0  0  0  0
   34.1914   13.5578  -14.6910 C   0  0  0  0  0  0  0  0  0  0  0  0
   34.1234   12.1852  -15.2613 C   0  0  0  0  0  0  0  0  0  0  0  0
   35.3307   11.7420  -15.8526 O   0  0  0  0  0  0  0  0  0  0  0  0
   36.6576   12.0600  -15.6711 C   0  0  0  0  0  0  0  0  0  0  0  0
   37.4954   11.5394  -16.6338 C   0  0  0  0  0  0  0  0  0  0  0  0
   38.8258   11.8077  -16.5176 C   0  0  0  0  0  0  0  0  0  0  0  0
   39.7037   11.3324  -17.4245 F   0  0  0  0  0  0  0  0  0  0  0  0
   35.9263   14.9488  -10.2982 C   0  0  0  0  0  0  0  0  0  0  0  0
   35.3118   16.1908  -10.0685 N   0  0  0  0  0  0  0  0  0  0  0  0
   36.4863   14.3242   -9.3453 O   0  0  0  0  0  0  0  0  0  0  0  0
   35.5907   16.7304   -9.2032 H   0  0  0  0  0  0  0  0  0  0  0  0
   34.5965   16.6205  -10.6902 H   0  0  0  0  0  0  0  0  0  0  0  0
   41.9925   12.9127  -15.3888 C   0  0  0  0  0  0  0  0  0  0  0  0
   40.7708   12.7954  -15.4054 C   0  0  0  0  0  0  0  0  0  0  0  0
   43.8974   14.2190  -16.2114 C   0  0  0  0  0  0  0  0  0  0  0  0
   43.4376   12.9723  -15.4085 C   0  0  0  0  0  0  0  0  0  0  0  0
   44.0325   11.8829  -16.0432 O   0  0  0  0  0  0  0  0  0  0  0  0
   44.0062   11.1173  -15.4011 H   0  0  0  0  0  0  0  0  0  0  0  0
   43.9830   13.1269  -14.0330 C   0  0  0  0  0  0  0  0  0  0  0  0
   43.2927   13.3215  -12.9036 N   0  0  0  0  0  0  0  0  0  0  0  0
   43.9093   13.4084  -11.7787 C   0  0  0  0  0  0  0  0  0  0  0  0
   45.2808   13.2944  -11.7829 C   0  0  0  0  0  0  0  0  0  0  0  0
   45.5902   13.0671  -13.4479 S   0  0  0  0  0  0  0  0  0  0  0  0
 23 24  1  0  0  0
 24 25  1  0  0  0
 24 21  1  0  0  0
 21 22  3  0  0  0
 22  1  1  0  0  0
  1  2  2  0  0  0
  2  3  1  0  0  0
  3  4  1  0  0  0
  4  5  2  0  0  0
  5  6  1  0  0  0
  6  7  2  0  0  0
  7  8  1  0  0  0
  8  9  1  0  0  0
  9 10  1  0  0  0
 10 11  1  0  0  0
 11 12  1  0  0  0
 12 13  1  0  0  0
 13 14  2  0  0  0
 14 15  1  0  0  0
  6 16  1  0  0  0
 16 17  1  0  0  0
 16 18  2  0  0  0
 24 27  1  0  0  0
 27 28  2  0  0  0
 28 29  1  0  0  0
 29 30  2  0  0  0
 30 31  1  0  0  0
 14  1  1  0  0  0
 31 27  1  0  0  0
 12  3  2  0  0  0
  8  4  1  0  0  0
 25 26  1  0  0  0
 17 19  1  0  0  0
 17 20  1  0  0  0
M  END
> <minimizedAffinity>
-7.66808

> <CNNscore>
0.2571442127

> <CNNaffinity>
6.6167058945

> <CNN_VS>
1.7014476061

> <CNNaffinity_variance>
0.0960150734

$$$$
[H]OC(C#Cc1c([H])c([H])c2c(c1[H])-c1nc(C(=O)N([H])[H])c(C([H])([H])n3c(C([H])([H])[H])nc4c([H])c([H])c([H])c([H])c43)n1C([H])([H])C([H])([H])O2)(C([H])([H])[H])C([H])([H])[H]


 37 41  0  0  0  0  0  0  0  0999 V2000
   40.9150   13.6138  -15.2662 C   0  0  0  0  0  0  0  0  0  0  0  0
   40.6537   14.1554  -14.0229 C   0  0  0  0  0  0  0  0  0  0  0  0
   41.7555   14.0547  -13.2217 N   0  0  0  0  0  0  0  0  0  0  0  0
   42.6891   13.4571  -13.9495 C   0  0  0  0  0  0  0  0  0  0  0  0
   44.0351   13.1771  -13.4252 C   0  0  0  0  0  0  0  0  0  0  0  0
   44.0521   13.2596  -12.0370 C   0  0  0  0  0  0  0  0  0  0  0  0
   45.1951   13.0310  -11.2959 C   0  0  0  0  0  0  0  0  0  0  0  0
   46.3257   12.7139  -12.0071 C   0  0  0  0  0  0  0  0  0  0  0  0
   46.3479   12.6231  -13.3932 C   0  0  0  0  0  0  0  0  0  0  0  0
   45.1934   12.8569  -14.1006 C   0  0  0  0  0  0  0  0  0  0  0  0
   45.2975   12.7452  -15.4864 O   0  0  0  0  0  0  0  0  0  0  0  0
   44.3183   13.2318  -16.4242 C   0  0  0  0  0  0  0  0  0  0  0  0
   42.9941   12.5139  -16.1805 C   0  0  0  0  0  0  0  0  0  0  0  0
   42.1854   13.1834  -15.1915 N   0  0  0  0  0  0  0  0  0  0  0  0
   39.4135   14.6824  -13.4778 C   0  0  0  0  0  0  0  0  0  0  0  0
   38.5110   13.7720  -12.7608 N   0  0  0  0  0  0  0  0  0  0  0  0
   38.9840   15.8445  -13.5362 O   0  0  0  0  0  0  0  0  0  0  0  0
   37.8625   14.0885  -12.0308 H   0  0  0  0  0  0  0  0  0  0  0  0
   38.5402   12.7658  -13.0150 H   0  0  0  0  0  0  0  0  0  0  0  0
   45.1691   13.1125   -9.8531 C   0  0  0  0  0  0  0  0  0  0  0  0
   45.1629   13.1562   -8.6495 C   0  0  0  0  0  0  0  0  0  0  0  0
   45.1931   13.1936   -7.1891 C   0  0  0  0  0  0  0  0  0  0  0  0
   46.0885   14.3453   -6.7888 C   0  0  0  0  0  0  0  0  0  0  0  0
   45.8332   11.9280   -6.6160 C   0  0  0  0  0  0  0  0  0  0  0  0
   43.9004   13.3398   -6.6673 O   0  0  0  0  0  0  0  0  0  0  0  0
   43.5206   12.4532   -6.4620 H   0  0  0  0  0  0  0  0  0  0  0  0
   40.0159   13.6321  -16.3985 C   0  0  0  0  0  0  0  0  0  0  0  0
   40.8260   11.2750  -18.4004 C   0  0  0  0  0  0  0  0  0  0  0  0
   39.5609   11.5175  -17.6900 C   0  0  0  0  0  0  0  0  0  0  0  0
   38.4473   10.7258  -17.8281 N   0  0  0  0  0  0  0  0  0  0  0  0
   37.4865   11.1860  -17.0573 C   0  0  0  0  0  0  0  0  0  0  0  0
   36.1612   10.7683  -16.8496 C   0  0  0  0  0  0  0  0  0  0  0  0
   35.3554   11.4767  -15.9961 C   0  0  0  0  0  0  0  0  0  0  0  0
   35.8208   12.5939  -15.3335 C   0  0  0  0  0  0  0  0  0  0  0  0
   37.1249   12.9483  -15.5759 C   0  0  0  0  0  0  0  0  0  0  0  0
   37.9843   12.2769  -16.4212 C   0  0  0  0  0  0  0  0  0  0  0  0
   39.2995   12.4818  -16.8252 N   0  0  0  0  0  0  0  0  0  0  0  0
 28 29  1  0  0  0
 29 30  2  0  0  0
 30 31  1  0  0  0
 31 32  2  0  0  0
 32 33  1  0  0  0
 33 34  2  0  0  0
 34 35  1  0  0  0
 35 36  2  0  0  0
 36 37  1  0  0  0
 37 27  1  0  0  0
 27  1  1  0  0  0
  1  2  2  0  0  0
  2  3  1  0  0  0
  3  4  2  0  0  0
  4  5  1  0  0  0
  5  6  2  0  0  0
  6  7  1  0  0  0
  7  8  2  0  0  0
  8  9  1  0  0  0
  9 10  2  0  0  0
 10 11  1  0  0  0
 11 12  1  0  0  0
 12 13  1  0  0  0
 13 14  1  0  0  0
  7 20  1  0  0  0
 20 21  3  0  0  0
 21 22  1  0  0  0
 22 23  1  0  0  0
 22 24  1  0  0  0
 22 25  1  0  0  0
  2 15  1  0  0  0
 15 16  1  0  0  0
 15 17  2  0  0  0
 37 29  1  0  0  0
 14  1  1  0  0  0
 36 31  1  0  0  0
 14  4  1  0  0  0
 10  5  1  0  0  0
 25 26  1  0  0  0
 16 18  1  0  0  0
 16 19  1  0  0  0
M  END
> <minimizedAffinity>
-8.24961

> <CNNscore>
0.2730672657

> <CNNaffinity>
6.7915711403

> <CNN_VS>
1.8545557261

> <CNNaffinity_variance>
0.0293988995

$$$$
[H]OC(C#Cc1c([H])c([H])c2c(c1[H])-c1nc(C(=O)N([H])[H])c(C([H])([H])n3c(C([H])([H])[H])nc4c([H])c([H])c([H])c([H])c43)n1C([H])([H])C([H])([H])O2)(C([H])([H])[H])C([H])([H])[H]


 37 41  0  0  0  0  0  0  0  0999 V2000
   44.2499   14.1593  -13.7444 C   0  0  0  0  0  0  0  0  0  0  0  0
   43.2028   14.1600  -12.8439 C   0  0  0  0  0  0  0  0  0  0  0  0
   42.0711   13.6723  -13.4333 N   0  0  0  0  0  0  0  0  0  0  0  0
   42.4030   13.3749  -14.6822 C   0  0  0  0  0  0  0  0  0  0  0  0
   41.4380   12.8102  -15.6388 C   0  0  0  0  0  0  0  0  0  0  0  0
   40.1336   12.9978  -15.1943 C   0  0  0  0  0  0  0  0  0  0  0  0
   39.0369   12.5669  -15.9150 C   0  0  0  0  0  0  0  0  0  0  0  0
   39.3028   11.9378  -17.1059 C   0  0  0  0  0  0  0  0  0  0  0  0
   40.5915   11.7314  -17.5821 C   0  0  0  0  0  0  0  0  0  0  0  0
   41.6607   12.1722  -16.8403 C   0  0  0  0  0  0  0  0  0  0  0  0
   42.9202   11.9283  -17.3865 O   0  0  0  0  0  0  0  0  0  0  0  0
   44.1612   12.0258  -16.6615 C   0  0  0  0  0  0  0  0  0  0  0  0
   44.3391   13.4583  -16.1670 C   0  0  0  0  0  0  0  0  0  0  0  0
   43.7238   13.6706  -14.8799 N   0  0  0  0  0  0  0  0  0  0  0  0
   43.1423   14.6737  -11.4853 C   0  0  0  0  0  0  0  0  0  0  0  0
   43.0527   13.7213  -10.3707 N   0  0  0  0  0  0  0  0  0  0  0  0
   43.1520   15.8567  -11.1128 O   0  0  0  0  0  0  0  0  0  0  0  0
   43.3978   13.9317   -9.4272 H   0  0  0  0  0  0  0  0  0  0  0  0
   42.6174   12.7980  -10.5599 H   0  0  0  0  0  0  0  0  0  0  0  0
   37.6958   12.7932  -15.4261 C   0  0  0  0  0  0  0  0  0  0  0  0
   36.5833   12.9638  -14.9969 C   0  0  0  0  0  0  0  0  0  0  0  0
   35.2486   13.1674  -14.4384 C   0  0  0  0  0  0  0  0  0  0  0  0
   35.3162   12.8034  -12.9718 C   0  0  0  0  0  0  0  0  0  0  0  0
   34.2318   12.2176  -15.0739 C   0  0  0  0  0  0  0  0  0  0  0  0
   34.8279   14.4918  -14.6222 O   0  0  0  0  0  0  0  0  0  0  0  0
   34.3003   14.5628  -15.4523 H   0  0  0  0  0  0  0  0  0  0  0  0
   45.6189   14.5150  -13.4444 C   0  0  0  0  0  0  0  0  0  0  0  0
   48.0173   13.9567  -15.4828 C   0  0  0  0  0  0  0  0  0  0  0  0
   47.6406   13.2465  -14.2510 C   0  0  0  0  0  0  0  0  0  0  0  0
   48.2926   12.1306  -13.7866 N   0  0  0  0  0  0  0  0  0  0  0  0
   47.7366   11.7369  -12.6619 C   0  0  0  0  0  0  0  0  0  0  0  0
   47.9988   10.6519  -11.8086 C   0  0  0  0  0  0  0  0  0  0  0  0
   47.2162   10.4603  -10.6993 C   0  0  0  0  0  0  0  0  0  0  0  0
   46.1744   11.3144  -10.4015 C   0  0  0  0  0  0  0  0  0  0  0  0
   45.9719   12.3570  -11.2718 C   0  0  0  0  0  0  0  0  0  0  0  0
   46.7242   12.6029  -12.4021 C   0  0  0  0  0  0  0  0  0  0  0  0
   46.6684   13.5580  -13.4118 N   0  0  0  0  0  0  0  0  0  0  0  0
 28 29  1  0  0  0
 29 30  2  0  0  0
 30 31  1  0  0  0
 31 32  2  0  0  0
 32 33  1  0  0  0
 33 34  2  0  0  0
 34 35  1  0  0  0
 35 36  2  0  0  0
 36 37  1  0  0  0
 37 27  1  0  0  0
 27  1  1  0  0  0
  1  2  2  0  0  0
  2  3  1  0  0  0
  3  4  2  0  0  0
  4  5  1  0  0  0
  5  6  2  0  0  0
  6  7  1  0  0  0
  7  8  2  0  0  0
  8  9  1  0  0  0
  9 10  2  0  0  0
 10 11  1  0  0  0
 11 12  1  0  0  0
 12 13  1  0  0  0
 13 14  1  0  0  0
  7 20  1  0  0  0
 20 21  3  0  0  0
 21 22  1  0  0  0
 22 23  1  0  0  0
 22 24  1  0  0  0
 22 25  1  0  0  0
  2 15  1  0  0  0
 15 16  1  0  0  0
 15 17  2  0  0  0
 37 29  1  0  0  0
 14  1  1  0  0  0
 36 31  1  0  0  0
 14  4  1  0  0  0
 10  5  1  0  0  0
 25 26  1  0  0  0
 16 18  1  0  0  0
 16 19  1  0  0  0
M  END
> <minimizedAffinity>
-8.95101

> <CNNscore>
0.1726375818

> <CNNaffinity>
6.5474319458

> <CNN_VS>
1.1303328276

> <CNNaffinity_variance>
0.0225121584

$$$$
[H]OC(C#Cc1c([H])c([H])c2c(c1[H])-c1nc(C(=O)N([H])[H])c(C([H])([H])n3c(C([H])([H])[H])nc4c([H])c([H])c([H])c([H])c43)n1C([H])([H])C([H])([H])O2)(C([H])([H])[H])C([H])([H])[H]


 37 41  0  0  0  0  0  0  0  0999 V2000
   44.7653   13.7878  -13.4358 C   0  0  0  0  0  0  0  0  0  0  0  0
   43.7193   13.7178  -12.5367 C   0  0  0  0  0  0  0  0  0  0  0  0
   42.5674   13.3595  -13.1776 N   0  0  0  0  0  0  0  0  0  0  0  0
   42.8860   13.2113  -14.4562 C   0  0  0  0  0  0  0  0  0  0  0  0
   41.8972   12.8168  -15.4720 C   0  0  0  0  0  0  0  0  0  0  0  0
   40.6022   13.0017  -14.9997 C   0  0  0  0  0  0  0  0  0  0  0  0
   39.4878   12.7150  -15.7636 C   0  0  0  0  0  0  0  0  0  0  0  0
   39.7259   12.2336  -17.0270 C   0  0  0  0  0  0  0  0  0  0  0  0
   41.0044   12.0347  -17.5331 C   0  0  0  0  0  0  0  0  0  0  0  0
   42.0919   12.3298  -16.7468 C   0  0  0  0  0  0  0  0  0  0  0  0
   43.3394   12.1041  -17.3270 O   0  0  0  0  0  0  0  0  0  0  0  0
   44.5836   12.0536  -16.6026 C   0  0  0  0  0  0  0  0  0  0  0  0
   44.8237   13.4015  -15.9289 C   0  0  0  0  0  0  0  0  0  0  0  0
   44.2184   13.4726  -14.6217 N   0  0  0  0  0  0  0  0  0  0  0  0
   43.6814   14.0544  -11.1230 C   0  0  0  0  0  0  0  0  0  0  0  0
   43.3934   12.9932  -10.1492 N   0  0  0  0  0  0  0  0  0  0  0  0
   43.8618   15.1618  -10.5944 O   0  0  0  0  0  0  0  0  0  0  0  0
   43.7258   13.0208   -9.1784 H   0  0  0  0  0  0  0  0  0  0  0  0
   42.8262   12.1854  -10.4708 H   0  0  0  0  0  0  0  0  0  0  0  0
   38.1578   12.9343  -15.2420 C   0  0  0  0  0  0  0  0  0  0  0  0
   37.0402   13.0942  -14.8223 C   0  0  0  0  0  0  0  0  0  0  0  0
   35.6795   13.2478  -14.3126 C   0  0  0  0  0  0  0  0  0  0  0  0
   35.6916   12.8114  -12.8643 C   0  0  0  0  0  0  0  0  0  0  0  0
   34.7081   12.3150  -15.0379 C   0  0  0  0  0  0  0  0  0  0  0  0
   35.2428   14.5728  -14.4484 O   0  0  0  0  0  0  0  0  0  0  0  0
   34.7496   14.6771  -15.2960 H   0  0  0  0  0  0  0  0  0  0  0  0
   46.1486   14.0424  -13.1002 C   0  0  0  0  0  0  0  0  0  0  0  0
   48.4459   13.9449  -15.3212 C   0  0  0  0  0  0  0  0  0  0  0  0
   47.8994   15.0905  -14.5778 C   0  0  0  0  0  0  0  0  0  0  0  0
   48.3625   16.3762  -14.7137 N   0  0  0  0  0  0  0  0  0  0  0  0
   47.6670   17.1751  -13.9344 C   0  0  0  0  0  0  0  0  0  0  0  0
   47.7509   18.5545  -13.6809 C   0  0  0  0  0  0  0  0  0  0  0  0
   46.9015   19.1269  -12.7696 C   0  0  0  0  0  0  0  0  0  0  0  0
   45.9618   18.3745  -12.0954 C   0  0  0  0  0  0  0  0  0  0  0  0
   45.9276   17.0339  -12.3900 C   0  0  0  0  0  0  0  0  0  0  0  0
   46.7536   16.4004  -13.2958 C   0  0  0  0  0  0  0  0  0  0  0  0
   46.9046   15.0805  -13.7079 N   0  0  0  0  0  0  0  0  0  0  0  0
 28 29  1  0  0  0
 29 30  2  0  0  0
 30 31  1  0  0  0
 31 32  2  0  0  0
 32 33  1  0  0  0
 33 34  2  0  0  0
 34 35  1  0  0  0
 35 36  2  0  0  0
 36 37  1  0  0  0
 37 27  1  0  0  0
 27  1  1  0  0  0
  1  2  2  0  0  0
  2  3  1  0  0  0
  3  4  2  0  0  0
  4  5  1  0  0  0
  5  6  2  0  0  0
  6  7  1  0  0  0
  7  8  2  0  0  0
  8  9  1  0  0  0
  9 10  2  0  0  0
 10 11  1  0  0  0
 11 12  1  0  0  0
 12 13  1  0  0  0
 13 14  1  0  0  0
  7 20  1  0  0  0
 20 21  3  0  0  0
 21 22  1  0  0  0
 22 23  1  0  0  0
 22 24  1  0  0  0
 22 25  1  0  0  0
  2 15  1  0  0  0
 15 16  1  0  0  0
 15 17  2  0  0  0
 37 29  1  0  0  0
 14  1  1  0  0  0
 36 31  1  0  0  0
 14  4  1  0  0  0
 10  5  1  0  0  0
 25 26  1  0  0  0
 16 18  1  0  0  0
 16 19  1  0  0  0
M  END
> <minimizedAffinity>
-8.33229

> <CNNscore>
0.1528959572

> <CNNaffinity>
6.3376808167

> <CNN_VS>
0.9690057635

> <CNNaffinity_variance>
0.0477448553

$$$$
[H]OC(C#Cc1c([H])c([H])c2c(c1[H])-c1nc(C(=O)N([H])[H])c(C([H])([H])n3c(C([H])([H])[H])nc4c([H])c([H])c([H])c([H])c43)n1C([H])([H])C([H])([H])O2)(C([H])([H])[H])C([H])([H])[H]


 37 41  0  0  0  0  0  0  0  0999 V2000
   44.1480   14.3426  -13.6789 C   0  0  0  0  0  0  0  0  0  0  0  0
   43.0857   14.3048  -12.7972 C   0  0  0  0  0  0  0  0  0  0  0  0
   41.9870   13.7643  -13.4026 N   0  0  0  0  0  0  0  0  0  0  0  0
   42.3540   13.4721  -14.6429 C   0  0  0  0  0  0  0  0  0  0  0  0
   41.4317   12.8591  -15.6118 C   0  0  0  0  0  0  0  0  0  0  0  0
   40.1126   12.9934  -15.1922 C   0  0  0  0  0  0  0  0  0  0  0  0
   39.0487   12.5101  -15.9287 C   0  0  0  0  0  0  0  0  0  0  0  0
   39.3630   11.8842  -17.1094 C   0  0  0  0  0  0  0  0  0  0  0  0
   40.6678   11.7301  -17.5608 C   0  0  0  0  0  0  0  0  0  0  0  0
   41.7035   12.2223  -16.8038 C   0  0  0  0  0  0  0  0  0  0  0  0
   42.9819   12.0289  -17.3255 O   0  0  0  0  0  0  0  0  0  0  0  0
   44.2043   12.1854  -16.5794 C   0  0  0  0  0  0  0  0  0  0  0  0
   44.3113   13.6279  -16.0937 C   0  0  0  0  0  0  0  0  0  0  0  0
   43.6642   13.8231  -14.8195 N   0  0  0  0  0  0  0  0  0  0  0  0
   42.9785   14.8256  -11.4443 C   0  0  0  0  0  0  0  0  0  0  0  0
   43.2276   13.9206  -10.3145 N   0  0  0  0  0  0  0  0  0  0  0  0
   42.6896   15.9780  -11.0879 O   0  0  0  0  0  0  0  0  0  0  0  0
   43.5647   14.2467   -9.4014 H   0  0  0  0  0  0  0  0  0  0  0  0
   43.0494   12.9083  -10.4601 H   0  0  0  0  0  0  0  0  0  0  0  0
   37.6904   12.6820  -15.4656 C   0  0  0  0  0  0  0  0  0  0  0  0
   36.5627   12.8040  -15.0607 C   0  0  0  0  0  0  0  0  0  0  0  0
   35.2077   12.9432  -14.5318 C   0  0  0  0  0  0  0  0  0  0  0  0
   35.2401   12.4859  -13.0903 C   0  0  0  0  0  0  0  0  0  0  0  0
   34.2319   12.0160  -15.2585 C   0  0  0  0  0  0  0  0  0  0  0  0
   34.7628   14.2678  -14.6428 O   0  0  0  0  0  0  0  0  0  0  0  0
   34.2585   14.3818  -15.4826 H   0  0  0  0  0  0  0  0  0  0  0  0
   45.4948   14.7594  -13.3575 C   0  0  0  0  0  0  0  0  0  0  0  0
   44.9866   17.9093  -13.5569 C   0  0  0  0  0  0  0  0  0  0  0  0
   45.6407   17.1235  -12.4993 C   0  0  0  0  0  0  0  0  0  0  0  0
   46.2063   17.6795  -11.3781 N   0  0  0  0  0  0  0  0  0  0  0  0
   46.6943   16.7249  -10.6166 C   0  0  0  0  0  0  0  0  0  0  0  0
   47.3867   16.7538   -9.3944 C   0  0  0  0  0  0  0  0  0  0  0  0
   47.8196   15.5792   -8.8352 C   0  0  0  0  0  0  0  0  0  0  0  0
   47.5872   14.3655   -9.4488 C   0  0  0  0  0  0  0  0  0  0  0  0
   46.9026   14.4040  -10.6384 C   0  0  0  0  0  0  0  0  0  0  0  0
   46.4412   15.5515  -11.2502 C   0  0  0  0  0  0  0  0  0  0  0  0
   45.7726   15.8098  -12.4422 N   0  0  0  0  0  0  0  0  0  0  0  0
 28 29  1  0  0  0
 29 30  2  0  0  0
 30 31  1  0  0  0
 31 32  2  0  0  0
 32 33  1  0  0  0
 33 34  2  0  0  0
 34 35  1  0  0  0
 35 36  2  0  0  0
 36 37  1  0  0  0
 37 27  1  0  0  0
 27  1  1  0  0  0
  1  2  2  0  0  0
  2  3  1  0  0  0
  3  4  2  0  0  0
  4  5  1  0  0  0
  5  6  2  0  0  0
  6  7  1  0  0  0
  7  8  2  0  0  0
  8  9  1  0  0  0
  9 10  2  0  0  0
 10 11  1  0  0  0
 11 12  1  0  0  0
 12 13  1  0  0  0
 13 14  1  0  0  0
  7 20  1  0  0  0
 20 21  3  0  0  0
 21 22  1  0  0  0
 22 23  1  0  0  0
 22 24  1  0  0  0
 22 25  1  0  0  0
  2 15  1  0  0  0
 15 16  1  0  0  0
 15 17  2  0  0  0
 37 29  1  0  0  0
 14  1  1  0  0  0
 36 31  1  0  0  0
 14  4  1  0  0  0
 10  5  1  0  0  0
 25 26  1  0  0  0
 16 18  1  0  0  0
 16 19  1  0  0  0
M  END
> <minimizedAffinity>
-8.36684

> <CNNscore>
0.1505450606

> <CNNaffinity>
6.4155654907

> <CNN_VS>
0.9658316970

> <CNNaffinity_variance>
0.0176120363

$$$$
[H]OC(C#Cc1c([H])c([H])c2c(c1[H])-c1nc(C(=O)N([H])[H])c(C([H])([H])n3c(C([H])([H])[H])nc4c([H])c([H])c([H])c([H])c43)n1C([H])([H])C([H])([H])O2)(C([H])([H])[H])C([H])([H])[H]


 37 41  0  0  0  0  0  0  0  0999 V2000
   42.7751   13.7598  -14.4445 C   0  0  0  0  0  0  0  0  0  0  0  0
   42.1558   13.1132  -15.4960 C   0  0  0  0  0  0  0  0  0  0  0  0
   40.7985   13.2162  -15.3818 N   0  0  0  0  0  0  0  0  0  0  0  0
   40.5719   13.9121  -14.2760 C   0  0  0  0  0  0  0  0  0  0  0  0
   39.2124   14.2391  -13.8177 C   0  0  0  0  0  0  0  0  0  0  0  0
   38.2710   13.4308  -14.4459 C   0  0  0  0  0  0  0  0  0  0  0  0
   36.9183   13.5296  -14.1845 C   0  0  0  0  0  0  0  0  0  0  0  0
   36.5463   14.4762  -13.2625 C   0  0  0  0  0  0  0  0  0  0  0  0
   37.4570   15.3022  -12.6156 C   0  0  0  0  0  0  0  0  0  0  0  0
   38.7958   15.1783  -12.8987 C   0  0  0  0  0  0  0  0  0  0  0  0
   39.6448   16.0418  -12.2077 O   0  0  0  0  0  0  0  0  0  0  0  0
   41.0191   16.2947  -12.5577 C   0  0  0  0  0  0  0  0  0  0  0  0
   41.8055   14.9903  -12.4661 C   0  0  0  0  0  0  0  0  0  0  0  0
   41.7672   14.2434  -13.6994 N   0  0  0  0  0  0  0  0  0  0  0  0
   42.7291   12.3127  -16.5655 C   0  0  0  0  0  0  0  0  0  0  0  0
   41.9081   12.0155  -17.7466 N   0  0  0  0  0  0  0  0  0  0  0  0
   43.8645   11.8171  -16.6269 O   0  0  0  0  0  0  0  0  0  0  0  0
   42.3089   11.8304  -18.6733 H   0  0  0  0  0  0  0  0  0  0  0  0
   40.8775   11.9939  -17.6237 H   0  0  0  0  0  0  0  0  0  0  0  0
   35.9720   12.6615  -14.8477 C   0  0  0  0  0  0  0  0  0  0  0  0
   35.1926   11.9480  -15.4257 C   0  0  0  0  0  0  0  0  0  0  0  0
   34.2745   11.0775  -16.1567 C   0  0  0  0  0  0  0  0  0  0  0  0
   33.3379   10.4607  -15.1416 C   0  0  0  0  0  0  0  0  0  0  0  0
   35.0203    9.9176  -16.8187 C   0  0  0  0  0  0  0  0  0  0  0  0
   33.5740   11.7993  -17.1330 O   0  0  0  0  0  0  0  0  0  0  0  0
   34.0445   11.7359  -17.9974 H   0  0  0  0  0  0  0  0  0  0  0  0
   44.2014   13.9395  -14.2890 C   0  0  0  0  0  0  0  0  0  0  0  0
   44.8396   12.4586  -11.5287 C   0  0  0  0  0  0  0  0  0  0  0  0
   45.0134   13.8699  -11.9052 C   0  0  0  0  0  0  0  0  0  0  0  0
   45.4729   14.8359  -11.0439 N   0  0  0  0  0  0  0  0  0  0  0  0
   45.5343   15.9885  -11.6738 C   0  0  0  0  0  0  0  0  0  0  0  0
   45.9049   17.2764  -11.2514 C   0  0  0  0  0  0  0  0  0  0  0  0
   45.8344   18.3232  -12.1340 C   0  0  0  0  0  0  0  0  0  0  0  0
   45.4074   18.1375  -13.4327 C   0  0  0  0  0  0  0  0  0  0  0  0
   45.0632   16.8558  -13.7849 C   0  0  0  0  0  0  0  0  0  0  0  0
   45.1133   15.7627  -12.9442 C   0  0  0  0  0  0  0  0  0  0  0  0
   44.7854   14.4184  -13.0857 N   0  0  0  0  0  0  0  0  0  0  0  0
 28 29  1  0  0  0
 29 30  2  0  0  0
 30 31  1  0  0  0
 31 32  2  0  0  0
 32 33  1  0  0  0
 33 34  2  0  0  0
 34 35  1  0  0  0
 35 36  2  0  0  0
 36 37  1  0  0  0
 37 27  1  0  0  0
 27  1  1  0  0  0
  1  2  2  0  0  0
  2  3  1  0  0  0
  3  4  2  0  0  0
  4  5  1  0  0  0
  5  6  2  0  0  0
  6  7  1  0  0  0
  7  8  2  0  0  0
  8  9  1  0  0  0
  9 10  2  0  0  0
 10 11  1  0  0  0
 11 12  1  0  0  0
 12 13  1  0  0  0
 13 14  1  0  0  0
  7 20  1  0  0  0
 20 21  3  0  0  0
 21 22  1  0  0  0
 22 23  1  0  0  0
 22 24  1  0  0  0
 22 25  1  0  0  0
  2 15  1  0  0  0
 15 16  1  0  0  0
 15 17  2  0  0  0
 37 29  1  0  0  0
 14  1  1  0  0  0
 36 31  1  0  0  0
 14  4  1  0  0  0
 10  5  1  0  0  0
 25 26  1  0  0  0
 16 18  1  0  0  0
 16 19  1  0  0  0
M  END
> <minimizedAffinity>
-8.10757

> <CNNscore>
0.1307717115

> <CNNaffinity>
6.8918542862

> <CNN_VS>
0.9012596011

> <CNNaffinity_variance>
0.1087147966

$$$$
[H]OC(C#Cc1c([H])c([H])c2c(c1[H])-c1nc(C(=O)N([H])[H])c(C([H])([H])n3c(C([H])([H])[H])nc4c([H])c([H])c([H])c([H])c43)n1C([H])([H])C([H])([H])O2)(C([H])([H])[H])C([H])([H])[H]


 37 41  0  0  0  0  0  0  0  0999 V2000
   37.4773   14.4740  -13.4390 C   0  0  0  0  0  0  0  0  0  0  0  0
   36.2787   14.2885  -12.7786 C   0  0  0  0  0  0  0  0  0  0  0  0
   36.4239   14.5620  -11.4482 N   0  0  0  0  0  0  0  0  0  0  0  0
   37.6923   14.9092  -11.2780 C   0  0  0  0  0  0  0  0  0  0  0  0
   38.2342   15.2871   -9.9632 C   0  0  0  0  0  0  0  0  0  0  0  0
   37.3884   14.8696   -8.9412 C   0  0  0  0  0  0  0  0  0  0  0  0
   37.6721   15.0931   -7.6080 C   0  0  0  0  0  0  0  0  0  0  0  0
   38.8446   15.7549   -7.3400 C   0  0  0  0  0  0  0  0  0  0  0  0
   39.7138   16.1881   -8.3335 C   0  0  0  0  0  0  0  0  0  0  0  0
   39.4017   15.9499   -9.6502 C   0  0  0  0  0  0  0  0  0  0  0  0
   40.3246   16.4143  -10.5863 O   0  0  0  0  0  0  0  0  0  0  0  0
   40.0664   16.5448  -11.9975 C   0  0  0  0  0  0  0  0  0  0  0  0
   39.7440   15.1698  -12.5751 C   0  0  0  0  0  0  0  0  0  0  0  0
   38.3395   14.8554  -12.4819 N   0  0  0  0  0  0  0  0  0  0  0  0
   35.0110   13.7778  -13.2740 C   0  0  0  0  0  0  0  0  0  0  0  0
   34.0433   14.7207  -13.8499 N   0  0  0  0  0  0  0  0  0  0  0  0
   34.6067   12.6052  -13.2777 O   0  0  0  0  0  0  0  0  0  0  0  0
   33.3488   14.4476  -14.5547 H   0  0  0  0  0  0  0  0  0  0  0  0
   34.0740   15.7044  -13.5192 H   0  0  0  0  0  0  0  0  0  0  0  0
   36.7744   14.6310   -6.5738 C   0  0  0  0  0  0  0  0  0  0  0  0
   36.0490   14.2412   -5.6948 C   0  0  0  0  0  0  0  0  0  0  0  0
   35.1941   13.7852   -4.6011 C   0  0  0  0  0  0  0  0  0  0  0  0
   33.7603   13.9554   -5.0523 C   0  0  0  0  0  0  0  0  0  0  0  0
   35.3652   14.6645   -3.3612 C   0  0  0  0  0  0  0  0  0  0  0  0
   35.4760   12.4526   -4.2703 O   0  0  0  0  0  0  0  0  0  0  0  0
   36.1333   12.4223   -3.5358 H   0  0  0  0  0  0  0  0  0  0  0  0
   37.6764   14.3718  -14.8676 C   0  0  0  0  0  0  0  0  0  0  0  0
   40.7425   13.5334  -15.2078 C   0  0  0  0  0  0  0  0  0  0  0  0
   39.5230   12.8729  -15.6983 C   0  0  0  0  0  0  0  0  0  0  0  0
   39.5311   11.7347  -16.4667 N   0  0  0  0  0  0  0  0  0  0  0  0
   38.2933   11.3789  -16.7323 C   0  0  0  0  0  0  0  0  0  0  0  0
   37.7562   10.3236  -17.4885 C   0  0  0  0  0  0  0  0  0  0  0  0
   36.3966   10.2164  -17.6285 C   0  0  0  0  0  0  0  0  0  0  0  0
   35.5420   11.1251  -17.0389 C   0  0  0  0  0  0  0  0  0  0  0  0
   36.1282   12.1305  -16.3104 C   0  0  0  0  0  0  0  0  0  0  0  0
   37.4870   12.2912  -16.1322 C   0  0  0  0  0  0  0  0  0  0  0  0
   38.2714   13.2351  -15.4776 N   0  0  0  0  0  0  0  0  0  0  0  0
 28 29  1  0  0  0
 29 30  2  0  0  0
 30 31  1  0  0  0
 31 32  2  0  0  0
 32 33  1  0  0  0
 33 34  2  0  0  0
 34 35  1  0  0  0
 35 36  2  0  0  0
 36 37  1  0  0  0
 37 27  1  0  0  0
 27  1  1  0  0  0
  1  2  2  0  0  0
  2  3  1  0  0  0
  3  4  2  0  0  0
  4  5  1  0  0  0
  5  6  2  0  0  0
  6  7  1  0  0  0
  7  8  2  0  0  0
  8  9  1  0  0  0
  9 10  2  0  0  0
 10 11  1  0  0  0
 11 12  1  0  0  0
 12 13  1  0  0  0
 13 14  1  0  0  0
  7 20  1  0  0  0
 20 21  3  0  0  0
 21 22  1  0  0  0
 22 23  1  0  0  0
 22 24  1  0  0  0
 22 25  1  0  0  0
  2 15  1  0  0  0
 15 16  1  0  0  0
 15 17  2  0  0  0
 37 29  1  0  0  0
 14  1  1  0  0  0
 36 31  1  0  0  0
 14  4  1  0  0  0
 10  5  1  0  0  0
 25 26  1  0  0  0
 16 18  1  0  0  0
 16 19  1  0  0  0
M  END
> <minimizedAffinity>
-8.68008

> <CNNscore>
0.1229462400

> <CNNaffinity>
6.6360521317

> <CNN_VS>
0.8158776760

> <CNNaffinity_variance>
0.1137521043

$$$$
[H]OC(C#Cc1c([H])c([H])c2c(c1[H])-c1nc(C(=O)N([H])[H])c(C([H])([H])n3c(C([H])([H])[H])nc4c([H])c([H])c([H])c([H])c43)n1C([H])([H])C([H])([H])O2)(C([H])([H])[H])C([H])([H])[H]


 37 41  0  0  0  0  0  0  0  0999 V2000
   44.1490   14.4025  -13.6663 C   0  0  0  0  0  0  0  0  0  0  0  0
   43.0937   14.3521  -12.7768 C   0  0  0  0  0  0  0  0  0  0  0  0
   42.0009   13.7870  -13.3705 N   0  0  0  0  0  0  0  0  0  0  0  0
   42.3646   13.4921  -14.6111 C   0  0  0  0  0  0  0  0  0  0  0  0
   41.4471   12.8549  -15.5688 C   0  0  0  0  0  0  0  0  0  0  0  0
   40.1286   12.9683  -15.1410 C   0  0  0  0  0  0  0  0  0  0  0  0
   39.0687   12.4601  -15.8663 C   0  0  0  0  0  0  0  0  0  0  0  0
   39.3863   11.8310  -17.0445 C   0  0  0  0  0  0  0  0  0  0  0  0
   40.6906   11.6973  -17.5039 C   0  0  0  0  0  0  0  0  0  0  0  0
   41.7222   12.2141  -16.7578 C   0  0  0  0  0  0  0  0  0  0  0  0
   43.0004   12.0402  -17.2870 O   0  0  0  0  0  0  0  0  0  0  0  0
   44.2248   12.2246  -16.5507 C   0  0  0  0  0  0  0  0  0  0  0  0
   44.3087   13.6725  -16.0766 C   0  0  0  0  0  0  0  0  0  0  0  0
   43.6669   13.8656  -14.7995 N   0  0  0  0  0  0  0  0  0  0  0  0
   42.9862   14.8812  -11.4271 C   0  0  0  0  0  0  0  0  0  0  0  0
   43.5957   14.1311  -10.3211 N   0  0  0  0  0  0  0  0  0  0  0  0
   42.4243   15.9225  -11.0552 O   0  0  0  0  0  0  0  0  0  0  0  0
   43.9209   14.5773   -9.4558 H   0  0  0  0  0  0  0  0  0  0  0  0
   43.6946   13.1037  -10.4329 H   0  0  0  0  0  0  0  0  0  0  0  0
   37.7108   12.6106  -15.3950 C   0  0  0  0  0  0  0  0  0  0  0  0
   36.5840   12.7641  -14.9980 C   0  0  0  0  0  0  0  0  0  0  0  0
   35.2167   12.9872  -14.5335 C   0  0  0  0  0  0  0  0  0  0  0  0
   35.1674   12.5855  -13.0760 C   0  0  0  0  0  0  0  0  0  0  0  0
   34.2279   12.0792  -15.2667 C   0  0  0  0  0  0  0  0  0  0  0  0
   34.8416   14.3259  -14.7125 O   0  0  0  0  0  0  0  0  0  0  0  0
   34.3785   14.4306  -15.5768 H   0  0  0  0  0  0  0  0  0  0  0  0
   45.4901   14.8463  -13.3575 C   0  0  0  0  0  0  0  0  0  0  0  0
   44.3831   17.8390  -13.1613 C   0  0  0  0  0  0  0  0  0  0  0  0
   45.5781   17.3170  -13.8421 C   0  0  0  0  0  0  0  0  0  0  0  0
   46.4332   18.0963  -14.5821 N   0  0  0  0  0  0  0  0  0  0  0  0
   47.4102   17.3499  -15.0486 C   0  0  0  0  0  0  0  0  0  0  0  0
   48.5118   17.6426  -15.8701 C   0  0  0  0  0  0  0  0  0  0  0  0
   49.3673   16.6360  -16.2370 C   0  0  0  0  0  0  0  0  0  0  0  0
   49.1694   15.3379  -15.8135 C   0  0  0  0  0  0  0  0  0  0  0  0
   48.0779   15.1175  -15.0103 C   0  0  0  0  0  0  0  0  0  0  0  0
   47.1826   16.0869  -14.6067 C   0  0  0  0  0  0  0  0  0  0  0  0
   46.0209   16.0719  -13.8419 N   0  0  0  0  0  0  0  0  0  0  0  0
 28 29  1  0  0  0
 29 30  2  0  0  0
 30 31  1  0  0  0
 31 32  2  0  0  0
 32 33  1  0  0  0
 33 34  2  0  0  0
 34 35  1  0  0  0
 35 36  2  0  0  0
 36 37  1  0  0  0
 37 27  1  0  0  0
 27  1  1  0  0  0
  1  2  2  0  0  0
  2  3  1  0  0  0
  3  4  2  0  0  0
  4  5  1  0  0  0
  5  6  2  0  0  0
  6  7  1  0  0  0
  7  8  2  0  0  0
  8  9  1  0  0  0
  9 10  2  0  0  0
 10 11  1  0  0  0
 11 12  1  0  0  0
 12 13  1  0  0  0
 13 14  1  0  0  0
  7 20  1  0  0  0
 20 21  3  0  0  0
 21 22  1  0  0  0
 22 23  1  0  0  0
 22 24  1  0  0  0
 22 25  1  0  0  0
  2 15  1  0  0  0
 15 16  1  0  0  0
 15 17  2  0  0  0
 37 29  1  0  0  0
 14  1  1  0  0  0
 36 31  1  0  0  0
 14  4  1  0  0  0
 10  5  1  0  0  0
 25 26  1  0  0  0
 16 18  1  0  0  0
 16 19  1  0  0  0
M  END
> <minimizedAffinity>
-9.03008

> <CNNscore>
0.1165636927

> <CNNaffinity>
6.3382124901

> <CNN_VS>
0.7388054729

> <CNNaffinity_variance>
0.0348712131

$$$$
[H]OC(C#Cc1c([H])c([H])c2c(c1[H])-c1nc(C(=O)N([H])[H])c(C([H])([H])n3c(C([H])([H])[H])nc4c([H])c([H])c([H])c([H])c43)n1C([H])([H])C([H])([H])O2)(C([H])([H])[H])C([H])([H])[H]


 37 41  0  0  0  0  0  0  0  0999 V2000
   36.3493   14.3821  -13.5466 C   0  0  0  0  0  0  0  0  0  0  0  0
   35.2462   14.4521  -12.7185 C   0  0  0  0  0  0  0  0  0  0  0  0
   35.6369   14.6578  -11.4258 N   0  0  0  0  0  0  0  0  0  0  0  0
   36.9617   14.7120  -11.4437 C   0  0  0  0  0  0  0  0  0  0  0  0
   37.7559   14.9320  -10.2248 C   0  0  0  0  0  0  0  0  0  0  0  0
   36.9933   14.6898   -9.0872 C   0  0  0  0  0  0  0  0  0  0  0  0
   37.5068   14.8160   -7.8112 C   0  0  0  0  0  0  0  0  0  0  0  0
   38.8229   15.1961   -7.7219 C   0  0  0  0  0  0  0  0  0  0  0  0
   39.6157   15.4476   -8.8347 C   0  0  0  0  0  0  0  0  0  0  0  0
   39.0738   15.3131  -10.0902 C   0  0  0  0  0  0  0  0  0  0  0  0
   39.9336   15.5820  -11.1543 O   0  0  0  0  0  0  0  0  0  0  0  0
   39.5121   15.7970  -12.5149 C   0  0  0  0  0  0  0  0  0  0  0  0
   38.8134   14.5402  -13.0254 C   0  0  0  0  0  0  0  0  0  0  0  0
   37.4021   14.5424  -12.7276 N   0  0  0  0  0  0  0  0  0  0  0  0
   33.8394   14.2454  -13.0207 C   0  0  0  0  0  0  0  0  0  0  0  0
   32.8889   15.3316  -12.7486 N   0  0  0  0  0  0  0  0  0  0  0  0
   33.2983   13.2348  -13.4945 O   0  0  0  0  0  0  0  0  0  0  0  0
   32.0099   15.4473  -13.2659 H   0  0  0  0  0  0  0  0  0  0  0  0
   33.1294   16.0047  -11.9957 H   0  0  0  0  0  0  0  0  0  0  0  0
   36.6860   14.5417   -6.6537 C   0  0  0  0  0  0  0  0  0  0  0  0
   35.9992   14.2857   -5.6978 C   0  0  0  0  0  0  0  0  0  0  0  0
   35.1827   13.9381   -4.5370 C   0  0  0  0  0  0  0  0  0  0  0  0
   33.7371   14.1599   -4.9234 C   0  0  0  0  0  0  0  0  0  0  0  0
   35.4653   14.8745   -3.3610 C   0  0  0  0  0  0  0  0  0  0  0  0
   35.4140   12.6127   -4.1438 O   0  0  0  0  0  0  0  0  0  0  0  0
   36.1077   12.5880   -3.4434 H   0  0  0  0  0  0  0  0  0  0  0  0
   36.3147   14.2694  -14.9877 C   0  0  0  0  0  0  0  0  0  0  0  0
   34.4641   11.7693  -15.7256 C   0  0  0  0  0  0  0  0  0  0  0  0
   35.9045   11.9744  -15.9424 C   0  0  0  0  0  0  0  0  0  0  0  0
   36.7318   11.0304  -16.4999 N   0  0  0  0  0  0  0  0  0  0  0  0
   37.9532   11.5115  -16.5765 C   0  0  0  0  0  0  0  0  0  0  0  0
   39.1598   10.9551  -17.0332 C   0  0  0  0  0  0  0  0  0  0  0  0
   40.3144   11.6906  -16.9576 C   0  0  0  0  0  0  0  0  0  0  0  0
   40.3157   12.9704  -16.4422 C   0  0  0  0  0  0  0  0  0  0  0  0
   39.1050   13.4584  -16.0164 C   0  0  0  0  0  0  0  0  0  0  0  0
   37.9109   12.7688  -16.0669 C   0  0  0  0  0  0  0  0  0  0  0  0
   36.6101   13.0574  -15.6675 N   0  0  0  0  0  0  0  0  0  0  0  0
 28 29  1  0  0  0
 29 30  2  0  0  0
 30 31  1  0  0  0
 31 32  2  0  0  0
 32 33  1  0  0  0
 33 34  2  0  0  0
 34 35  1  0  0  0
 35 36  2  0  0  0
 36 37  1  0  0  0
 37 27  1  0  0  0
 27  1  1  0  0  0
  1  2  2  0  0  0
  2  3  1  0  0  0
  3  4  2  0  0  0
  4  5  1  0  0  0
  5  6  2  0  0  0
  6  7  1  0  0  0
  7  8  2  0  0  0
  8  9  1  0  0  0
  9 10  2  0  0  0
 10 11  1  0  0  0
 11 12  1  0  0  0
 12 13  1  0  0  0
 13 14  1  0  0  0
  7 20  1  0  0  0
 20 21  3  0  0  0
 21 22  1  0  0  0
 22 23  1  0  0  0
 22 24  1  0  0  0
 22 25  1  0  0  0
  2 15  1  0  0  0
 15 16  1  0  0  0
 15 17  2  0  0  0
 37 29  1  0  0  0
 14  1  1  0  0  0
 36 31  1  0  0  0
 14  4  1  0  0  0
 10  5  1  0  0  0
 25 26  1  0  0  0
 16 18  1  0  0  0
 16 19  1  0  0  0
M  END
> <minimizedAffinity>
-8.74499

> <CNNscore>
0.0973127931

> <CNNaffinity>
6.4211668968

> <CNN_VS>
0.6248616576

> <CNNaffinity_variance>
0.0943135694

$$$$
[H]OC(C#Cc1c([H])c([H])c2c(c1[H])-c1nc(C(=O)N([H])[H])c(C([H])([H])n3c(C([H])([H])[H])nc4c([H])c([H])c([H])c([H])c43)n1C([H])([H])C([H])([H])O2)(C([H])([H])[H])C([H])([H])[H]


 37 41  0  0  0  0  0  0  0  0999 V2000
   44.9641   13.3449  -14.4050 C   0  0  0  0  0  0  0  0  0  0  0  0
   43.9937   12.9770  -15.3162 C   0  0  0  0  0  0  0  0  0  0  0  0
   42.7821   13.4913  -14.9510 N   0  0  0  0  0  0  0  0  0  0  0  0
   42.9896   14.1665  -13.8288 C   0  0  0  0  0  0  0  0  0  0  0  0
   41.9086   14.8767  -13.1274 C   0  0  0  0  0  0  0  0  0  0  0  0
   40.6634   14.4342  -13.5609 C   0  0  0  0  0  0  0  0  0  0  0  0
   39.4813   14.9357  -13.0521 C   0  0  0  0  0  0  0  0  0  0  0  0
   39.5992   15.9033  -12.0855 C   0  0  0  0  0  0  0  0  0  0  0  0
   40.8246   16.3712  -11.6279 C   0  0  0  0  0  0  0  0  0  0  0  0
   41.9820   15.8513  -12.1553 C   0  0  0  0  0  0  0  0  0  0  0  0
   43.1698   16.3719  -11.6432 O   0  0  0  0  0  0  0  0  0  0  0  0
   44.4669   16.2019  -12.2463 C   0  0  0  0  0  0  0  0  0  0  0  0
   44.8052   14.7147  -12.2915 C   0  0  0  0  0  0  0  0  0  0  0  0
   44.3118   14.0799  -13.4890 N   0  0  0  0  0  0  0  0  0  0  0  0
   44.0828   12.0929  -16.4666 C   0  0  0  0  0  0  0  0  0  0  0  0
   42.9534   12.0330  -17.4038 N   0  0  0  0  0  0  0  0  0  0  0  0
   45.0177   11.3426  -16.7854 O   0  0  0  0  0  0  0  0  0  0  0  0
   43.0615   11.7833  -18.3935 H   0  0  0  0  0  0  0  0  0  0  0  0
   42.0088   12.2544  -17.0343 H   0  0  0  0  0  0  0  0  0  0  0  0
   38.2064   14.4397  -13.5186 C   0  0  0  0  0  0  0  0  0  0  0  0
   37.1536   14.0281  -13.9345 C   0  0  0  0  0  0  0  0  0  0  0  0
   35.8965   13.5090  -14.4685 C   0  0  0  0  0  0  0  0  0  0  0  0
   35.2740   12.6478  -13.3920 C   0  0  0  0  0  0  0  0  0  0  0  0
   36.1413   12.5927  -15.6686 C   0  0  0  0  0  0  0  0  0  0  0  0
   35.0455   14.5564  -14.8474 O   0  0  0  0  0  0  0  0  0  0  0  0
   35.1672   14.7561  -15.8054 H   0  0  0  0  0  0  0  0  0  0  0  0
   46.3778   13.0638  -14.5206 C   0  0  0  0  0  0  0  0  0  0  0  0
   48.6156   15.2172  -13.7625 C   0  0  0  0  0  0  0  0  0  0  0  0
   48.2428   13.9650  -13.0866 C   0  0  0  0  0  0  0  0  0  0  0  0
   48.8802   13.4851  -11.9688 N   0  0  0  0  0  0  0  0  0  0  0  0
   48.3117   12.3611  -11.5913 C   0  0  0  0  0  0  0  0  0  0  0  0
   48.5908   11.4677  -10.5434 C   0  0  0  0  0  0  0  0  0  0  0  0
   47.8394   10.3289  -10.4082 C   0  0  0  0  0  0  0  0  0  0  0  0
   46.8106   10.0419  -11.2816 C   0  0  0  0  0  0  0  0  0  0  0  0
   46.5857   10.9556  -12.2815 C   0  0  0  0  0  0  0  0  0  0  0  0
   47.3053   12.1179  -12.4690 C   0  0  0  0  0  0  0  0  0  0  0  0
   47.2655   13.1379  -13.4139 N   0  0  0  0  0  0  0  0  0  0  0  0
 28 29  1  0  0  0
 29 30  2  0  0  0
 30 31  1  0  0  0
 31 32  2  0  0  0
 32 33  1  0  0  0
 33 34  2  0  0  0
 34 35  1  0  0  0
 35 36  2  0  0  0
 36 37  1  0  0  0
 37 27  1  0  0  0
 27  1  1  0  0  0
  1  2  2  0  0  0
  2  3  1  0  0  0
  3  4  2  0  0  0
  4  5  1  0  0  0
  5  6  2  0  0  0
  6  7  1  0  0  0
  7  8  2  0  0  0
  8  9  1  0  0  0
  9 10  2  0  0  0
 10 11  1  0  0  0
 11 12  1  0  0  0
 12 13  1  0  0  0
 13 14  1  0  0  0
  7 20  1  0  0  0
 20 21  3  0  0  0
 21 22  1  0  0  0
 22 23  1  0  0  0
 22 24  1  0  0  0
 22 25  1  0  0  0
  2 15  1  0  0  0
 15 16  1  0  0  0
 15 17  2  0  0  0
 37 29  1  0  0  0
 14  1  1  0  0  0
 36 31  1  0  0  0
 14  4  1  0  0  0
 10  5  1  0  0  0
 25 26  1  0  0  0
 16 18  1  0  0  0
 16 19  1  0  0  0
M  END
> <minimizedAffinity>
-7.78591

> <CNNscore>
0.0820859447

> <CNNaffinity>
5.9603362083

> <CNN_VS>
0.4892598391

> <CNNaffinity_variance>
0.2881495059

$$$$
[H]O[C@](C#Cc1c([H])c([H])c2c(c1[H])-c1nc(C(=O)N([H])[H])sc1C(F)(F)C([H])([H])O2)(C([H])([H])[H])C([H])([H])OC([H])([H])[H]


 30 32  0  0  0  0  0  0  0  0999 V2000
   35.7602   14.0214  -13.1298 C   0  0  0  0  0  0  0  0  0  0  0  0
   34.4789   13.5008  -13.3127 C   0  0  0  0  0  0  0  0  0  0  0  0
   34.2050   12.5832  -14.2925 C   0  0  0  0  0  0  0  0  0  0  0  0
   35.2304   12.1820  -15.1000 C   0  0  0  0  0  0  0  0  0  0  0  0
   34.7757   11.2574  -16.0283 O   0  0  0  0  0  0  0  0  0  0  0  0
   35.5567   10.2774  -16.7130 C   0  0  0  0  0  0  0  0  0  0  0  0
   36.5732   10.8981  -17.6400 C   0  0  0  0  0  0  0  0  0  0  0  0
   37.1229    9.8942  -18.3892 F   0  0  0  0  0  0  0  0  0  0  0  0
   35.9282   11.7664  -18.4965 F   0  0  0  0  0  0  0  0  0  0  0  0
   37.6786   11.5617  -16.9008 C   0  0  0  0  0  0  0  0  0  0  0  0
   39.3185   11.5112  -17.3658 S   0  0  0  0  0  0  0  0  0  0  0  0
   39.9809   12.4642  -16.0844 C   0  0  0  0  0  0  0  0  0  0  0  0
   38.8946   12.7564  -15.3861 N   0  0  0  0  0  0  0  0  0  0  0  0
   37.7384   12.3255  -15.7625 C   0  0  0  0  0  0  0  0  0  0  0  0
   36.5200   12.6552  -14.9751 C   0  0  0  0  0  0  0  0  0  0  0  0
   36.7479   13.5775  -13.9746 C   0  0  0  0  0  0  0  0  0  0  0  0
   41.3762   12.8413  -15.8459 C   0  0  0  0  0  0  0  0  0  0  0  0
   42.3522   12.5505  -16.8048 N   0  0  0  0  0  0  0  0  0  0  0  0
   41.6621   13.4187  -14.7819 O   0  0  0  0  0  0  0  0  0  0  0  0
   42.6328   11.5577  -17.0589 H   0  0  0  0  0  0  0  0  0  0  0  0
   42.8544   13.3077  -17.3200 H   0  0  0  0  0  0  0  0  0  0  0  0
   36.3503   15.7722  -11.2560 C   0  0  0  0  0  0  0  0  0  0  0  0
   36.0855   14.9798  -12.1194 C   0  0  0  0  0  0  0  0  0  0  0  0
   36.6631   16.7695  -10.1500 C   0  0  0  0  0  0  0  0  0  0  0  0
   35.4603   16.7874   -9.2695 C   0  0  0  0  0  0  0  0  0  0  0  0
   36.8950   17.9624  -10.8519 O   0  0  0  0  0  0  0  0  0  0  0  0
   37.8617   18.1148  -10.9382 H   0  0  0  0  0  0  0  0  0  0  0  0
   37.9385   16.3321   -9.4926 C   0  0  0  0  0  0  0  0  0  0  0  0
   40.0927   16.5056  -10.3318 C   0  0  0  0  0  0  0  0  0  0  0  0
   39.0126   17.0770   -9.7481 O   0  0  0  0  0  0  0  0  0  0  0  0
 29 30  1  0  0  0
 30 28  1  0  0  0
 28 24  1  0  0  0
 24 25  1  0  0  0
 24 26  1  0  0  0
 24 22  1  0  0  0
 22 23  3  0  0  0
 23  1  1  0  0  0
  1  2  2  0  0  0
  2  3  1  0  0  0
  3  4  2  0  0  0
  4  5  1  0  0  0
  5  6  1  0  0  0
  6  7  1  0  0  0
  7  8  1  0  0  0
  7  9  1  0  0  0
  7 10  1  0  0  0
 10 11  1  0  0  0
 11 12  1  0  0  0
 12 13  2  0  0  0
 13 14  1  0  0  0
 14 15  1  0  0  0
 15 16  2  0  0  0
 12 17  1  0  0  0
 17 18  1  0  0  0
 17 19  2  0  0  0
 16  1  1  0  0  0
 15  4  1  0  0  0
 14 10  2  0  0  0
 26 27  1  0  0  0
 18 20  1  0  0  0
 18 21  1  0  0  0
M  END
> <minimizedAffinity>
-8.30749

> <CNNscore>
0.7003591657

> <CNNaffinity>
6.8650870323

> <CNN_VS>
4.8080267906

> <CNNaffinity_variance>
0.2108359784

$$$$
[H]O[C@](C#Cc1c([H])c([H])c2c(c1[H])-c1nc(C(=O)N([H])[H])sc1C(F)(F)C([H])([H])O2)(C([H])([H])[H])C([H])([H])OC([H])([H])[H]


 30 32  0  0  0  0  0  0  0  0999 V2000
   36.9747   14.1211  -12.6321 C   0  0  0  0  0  0  0  0  0  0  0  0
   35.7155   14.0161  -12.0404 C   0  0  0  0  0  0  0  0  0  0  0  0
   34.7181   13.2576  -12.5943 C   0  0  0  0  0  0  0  0  0  0  0  0
   34.9870   12.5951  -13.7576 C   0  0  0  0  0  0  0  0  0  0  0  0
   33.8718   11.8825  -14.1720 O   0  0  0  0  0  0  0  0  0  0  0  0
   33.8566   10.7374  -15.0252 C   0  0  0  0  0  0  0  0  0  0  0  0
   34.3299   11.0557  -16.4224 C   0  0  0  0  0  0  0  0  0  0  0  0
   34.0892    9.9596  -17.2047 F   0  0  0  0  0  0  0  0  0  0  0  0
   33.5869   12.1068  -16.9193 F   0  0  0  0  0  0  0  0  0  0  0  0
   35.7895   11.3307  -16.4739 C   0  0  0  0  0  0  0  0  0  0  0  0
   36.8279   10.8059  -17.7207 S   0  0  0  0  0  0  0  0  0  0  0  0
   38.3075   11.4711  -17.1232 C   0  0  0  0  0  0  0  0  0  0  0  0
   37.9014   12.0518  -16.0047 N   0  0  0  0  0  0  0  0  0  0  0  0
   36.6611   12.0013  -15.6534 C   0  0  0  0  0  0  0  0  0  0  0  0
   36.2084   12.6544  -14.3958 C   0  0  0  0  0  0  0  0  0  0  0  0
   37.1818   13.4305  -13.8010 C   0  0  0  0  0  0  0  0  0  0  0  0
   39.6486   11.4032  -17.7086 C   0  0  0  0  0  0  0  0  0  0  0  0
   39.8217   10.8973  -19.0013 N   0  0  0  0  0  0  0  0  0  0  0  0
   40.6131   11.8025  -17.0323 O   0  0  0  0  0  0  0  0  0  0  0  0
   39.6274    9.8839  -19.2545 H   0  0  0  0  0  0  0  0  0  0  0  0
   40.1542   11.5029  -19.7847 H   0  0  0  0  0  0  0  0  0  0  0  0
   38.9231   15.5649  -11.6106 C   0  0  0  0  0  0  0  0  0  0  0  0
   38.0407   14.9020  -12.0851 C   0  0  0  0  0  0  0  0  0  0  0  0
   40.0231   16.4236  -11.0036 C   0  0  0  0  0  0  0  0  0  0  0  0
   40.4853   15.6907   -9.7904 C   0  0  0  0  0  0  0  0  0  0  0  0
   39.3722   17.6392  -10.7430 O   0  0  0  0  0  0  0  0  0  0  0  0
   39.5828   18.2875  -11.4505 H   0  0  0  0  0  0  0  0  0  0  0  0
   41.0636   16.6420  -12.0619 C   0  0  0  0  0  0  0  0  0  0  0  0
   43.3452   16.3592  -12.3604 C   0  0  0  0  0  0  0  0  0  0  0  0
   42.1408   15.8620  -11.9916 O   0  0  0  0  0  0  0  0  0  0  0  0
 29 30  1  0  0  0
 30 28  1  0  0  0
 28 24  1  0  0  0
 24 25  1  0  0  0
 24 26  1  0  0  0
 24 22  1  0  0  0
 22 23  3  0  0  0
 23  1  1  0  0  0
  1  2  2  0  0  0
  2  3  1  0  0  0
  3  4  2  0  0  0
  4  5  1  0  0  0
  5  6  1  0  0  0
  6  7  1  0  0  0
  7  8  1  0  0  0
  7  9  1  0  0  0
  7 10  1  0  0  0
 10 11  1  0  0  0
 11 12  1  0  0  0
 12 13  2  0  0  0
 13 14  1  0  0  0
 14 15  1  0  0  0
 15 16  2  0  0  0
 12 17  1  0  0  0
 17 18  1  0  0  0
 17 19  2  0  0  0
 16  1  1  0  0  0
 15  4  1  0  0  0
 14 10  2  0  0  0
 26 27  1  0  0  0
 18 20  1  0  0  0
 18 21  1  0  0  0
M  END
> <minimizedAffinity>
-6.97204

> <CNNscore>
0.4910116792

> <CNNaffinity>
6.6934728622

> <CNN_VS>
3.2865734100

> <CNNaffinity_variance>
0.2731053233

$$$$
[H]O[C@](C#Cc1c([H])c([H])c2c(c1[H])-c1nc(C(=O)N([H])[H])sc1C(F)(F)C([H])([H])O2)(C([H])([H])[H])C([H])([H])OC([H])([H])[H]


 30 32  0  0  0  0  0  0  0  0999 V2000
   41.9428   13.7005  -14.3626 C   0  0  0  0  0  0  0  0  0  0  0  0
   42.8761   13.3320  -15.3320 C   0  0  0  0  0  0  0  0  0  0  0  0
   42.5073   12.6788  -16.4784 C   0  0  0  0  0  0  0  0  0  0  0  0
   41.1843   12.3911  -16.6553 C   0  0  0  0  0  0  0  0  0  0  0  0
   40.9939   11.7331  -17.8612 O   0  0  0  0  0  0  0  0  0  0  0  0
   39.7879   11.6760  -18.6236 C   0  0  0  0  0  0  0  0  0  0  0  0
   38.6863   10.9388  -17.9020 C   0  0  0  0  0  0  0  0  0  0  0  0
   37.6544   10.7636  -18.7827 F   0  0  0  0  0  0  0  0  0  0  0  0
   39.1482    9.6926  -17.5315 F   0  0  0  0  0  0  0  0  0  0  0  0
   38.1603   11.7061  -16.7430 C   0  0  0  0  0  0  0  0  0  0  0  0
   36.5137   11.7899  -16.3072 S   0  0  0  0  0  0  0  0  0  0  0  0
   36.6634   12.8160  -14.9238 C   0  0  0  0  0  0  0  0  0  0  0  0
   37.9707   13.0241  -14.8917 N   0  0  0  0  0  0  0  0  0  0  0  0
   38.7410   12.4894  -15.7776 C   0  0  0  0  0  0  0  0  0  0  0  0
   40.2092   12.7259  -15.7389 C   0  0  0  0  0  0  0  0  0  0  0  0
   40.6279   13.3825  -14.6000 C   0  0  0  0  0  0  0  0  0  0  0  0
   35.6142   13.3156  -14.0320 C   0  0  0  0  0  0  0  0  0  0  0  0
   35.6223   12.9639  -12.6781 N   0  0  0  0  0  0  0  0  0  0  0  0
   34.7302   14.0502  -14.5074 O   0  0  0  0  0  0  0  0  0  0  0  0
   35.4760   11.9671  -12.3406 H   0  0  0  0  0  0  0  0  0  0  0  0
   35.7749   13.6763  -11.9297 H   0  0  0  0  0  0  0  0  0  0  0  0
   42.5682   14.9729  -12.1459 C   0  0  0  0  0  0  0  0  0  0  0  0
   42.2882   14.3827  -13.1541 C   0  0  0  0  0  0  0  0  0  0  0  0
   42.9261   15.7430  -10.8830 C   0  0  0  0  0  0  0  0  0  0  0  0
   41.6351   16.2581  -10.3440 C   0  0  0  0  0  0  0  0  0  0  0  0
   43.8041   16.7328  -11.3505 O   0  0  0  0  0  0  0  0  0  0  0  0
   44.7322   16.4673  -11.1674 H   0  0  0  0  0  0  0  0  0  0  0  0
   43.6764   14.8092   -9.9801 C   0  0  0  0  0  0  0  0  0  0  0  0
   43.5468   13.2906   -8.2332 C   0  0  0  0  0  0  0  0  0  0  0  0
   42.9608   14.2216   -9.0228 O   0  0  0  0  0  0  0  0  0  0  0  0
 29 30  1  0  0  0
 30 28  1  0  0  0
 28 24  1  0  0  0
 24 25  1  0  0  0
 24 26  1  0  0  0
 24 22  1  0  0  0
 22 23  3  0  0  0
 23  1  1  0  0  0
  1  2  2  0  0  0
  2  3  1  0  0  0
  3  4  2  0  0  0
  4  5  1  0  0  0
  5  6  1  0  0  0
  6  7  1  0  0  0
  7  8  1  0  0  0
  7  9  1  0  0  0
  7 10  1  0  0  0
 10 11  1  0  0  0
 11 12  1  0  0  0
 12 13  2  0  0  0
 13 14  1  0  0  0
 14 15  1  0  0  0
 15 16  2  0  0  0
 12 17  1  0  0  0
 17 18  1  0  0  0
 17 19  2  0  0  0
 16  1  1  0  0  0
 15  4  1  0  0  0
 14 10  2  0  0  0
 26 27  1  0  0  0
 18 20  1  0  0  0
 18 21  1  0  0  0
M  END
> <minimizedAffinity>
-7.51847

> <CNNscore>
0.4645214379

> <CNNaffinity>
6.4114351273

> <CNN_VS>
2.9782490730

> <CNNaffinity_variance>
0.3357897401

$$$$
[H]O[C@](C#Cc1c([H])c([H])c2c(c1[H])-c1nc(C(=O)N([H])[H])sc1C(F)(F)C([H])([H])O2)(C([H])([H])[H])C([H])([H])OC([H])([H])[H]


 30 32  0  0  0  0  0  0  0  0999 V2000
   36.4316   14.3384  -12.4612 C   0  0  0  0  0  0  0  0  0  0  0  0
   35.1144   14.2179  -12.0174 C   0  0  0  0  0  0  0  0  0  0  0  0
   34.2015   13.4315  -12.6694 C   0  0  0  0  0  0  0  0  0  0  0  0
   34.6153   12.7564  -13.7819 C   0  0  0  0  0  0  0  0  0  0  0  0
   33.5685   12.0156  -14.3099 O   0  0  0  0  0  0  0  0  0  0  0  0
   33.6726   10.8574  -15.1387 C   0  0  0  0  0  0  0  0  0  0  0  0
   34.2990   11.1632  -16.4772 C   0  0  0  0  0  0  0  0  0  0  0  0
   34.1702   10.0506  -17.2626 F   0  0  0  0  0  0  0  0  0  0  0  0
   33.6003   12.1917  -17.0752 F   0  0  0  0  0  0  0  0  0  0  0  0
   35.7497   11.4660  -16.3644 C   0  0  0  0  0  0  0  0  0  0  0  0
   36.9348   10.9425  -17.4732 S   0  0  0  0  0  0  0  0  0  0  0  0
   38.3232   11.6458  -16.7203 C   0  0  0  0  0  0  0  0  0  0  0  0
   37.7798   12.2357  -15.6667 N   0  0  0  0  0  0  0  0  0  0  0  0
   36.5082   12.1663  -15.4605 C   0  0  0  0  0  0  0  0  0  0  0  0
   35.9012   12.8298  -14.2754 C   0  0  0  0  0  0  0  0  0  0  0  0
   36.7851   13.6340  -13.5859 C   0  0  0  0  0  0  0  0  0  0  0  0
   39.7241   11.5952  -17.1454 C   0  0  0  0  0  0  0  0  0  0  0  0
   40.0799   10.8821  -18.2950 N   0  0  0  0  0  0  0  0  0  0  0  0
   40.5739   12.1958  -16.4640 O   0  0  0  0  0  0  0  0  0  0  0  0
   39.9880    9.8263  -18.3700 H   0  0  0  0  0  0  0  0  0  0  0  0
   40.4567   11.3639  -19.1417 H   0  0  0  0  0  0  0  0  0  0  0  0
   38.2420   15.8379  -11.2787 C   0  0  0  0  0  0  0  0  0  0  0  0
   37.4129   15.1485  -11.8084 C   0  0  0  0  0  0  0  0  0  0  0  0
   39.3076   16.7090  -10.6293 C   0  0  0  0  0  0  0  0  0  0  0  0
   38.5802   17.8757  -10.0528 C   0  0  0  0  0  0  0  0  0  0  0  0
   40.1617   17.0193  -11.6986 O   0  0  0  0  0  0  0  0  0  0  0  0
   40.9546   16.4398  -11.6698 H   0  0  0  0  0  0  0  0  0  0  0  0
   40.0487   15.8575   -9.6414 C   0  0  0  0  0  0  0  0  0  0  0  0
   39.3493   14.3850   -7.9930 C   0  0  0  0  0  0  0  0  0  0  0  0
   39.4369   15.6465   -8.4774 O   0  0  0  0  0  0  0  0  0  0  0  0
 29 30  1  0  0  0
 30 28  1  0  0  0
 28 24  1  0  0  0
 24 25  1  0  0  0
 24 26  1  0  0  0
 24 22  1  0  0  0
 22 23  3  0  0  0
 23  1  1  0  0  0
  1  2  2  0  0  0
  2  3  1  0  0  0
  3  4  2  0  0  0
  4  5  1  0  0  0
  5  6  1  0  0  0
  6  7  1  0  0  0
  7  8  1  0  0  0
  7  9  1  0  0  0
  7 10  1  0  0  0
 10 11  1  0  0  0
 11 12  1  0  0  0
 12 13  2  0  0  0
 13 14  1  0  0  0
 14 15  1  0  0  0
 15 16  2  0  0  0
 12 17  1  0  0  0
 17 18  1  0  0  0
 17 19  2  0  0  0
 16  1  1  0  0  0
 15  4  1  0  0  0
 14 10  2  0  0  0
 26 27  1  0  0  0
 18 20  1  0  0  0
 18 21  1  0  0  0
M  END
> <minimizedAffinity>
-6.48366

> <CNNscore>
0.4562372267

> <CNNaffinity>
6.5899987221

> <CNN_VS>
3.0066027641

> <CNNaffinity_variance>
0.2404764146

$$$$
[H]O[C@](C#Cc1c([H])c([H])c2c(c1[H])-c1nc(C(=O)N([H])[H])sc1C(F)(F)C([H])([H])O2)(C([H])([H])[H])C([H])([H])OC([H])([H])[H]


 30 32  0  0  0  0  0  0  0  0999 V2000
   39.9056   12.7871  -15.4095 C   0  0  0  0  0  0  0  0  0  0  0  0
   40.2011   12.0530  -16.5585 C   0  0  0  0  0  0  0  0  0  0  0  0
   39.2203   11.4591  -17.3085 C   0  0  0  0  0  0  0  0  0  0  0  0
   37.9253   11.6036  -16.9006 C   0  0  0  0  0  0  0  0  0  0  0  0
   37.0721   10.9420  -17.7712 O   0  0  0  0  0  0  0  0  0  0  0  0
   35.6867   11.2150  -17.9839 C   0  0  0  0  0  0  0  0  0  0  0  0
   34.8522   10.9414  -16.7565 C   0  0  0  0  0  0  0  0  0  0  0  0
   33.5359   11.0364  -17.1167 F   0  0  0  0  0  0  0  0  0  0  0  0
   35.0871    9.6496  -16.3329 F   0  0  0  0  0  0  0  0  0  0  0  0
   35.0939   11.9349  -15.6780 C   0  0  0  0  0  0  0  0  0  0  0  0
   33.8784   12.5872  -14.6753 S   0  0  0  0  0  0  0  0  0  0  0  0
   34.8682   13.6238  -13.7085 C   0  0  0  0  0  0  0  0  0  0  0  0
   36.0669   13.3972  -14.2234 N   0  0  0  0  0  0  0  0  0  0  0  0
   36.2141   12.5667  -15.1996 C   0  0  0  0  0  0  0  0  0  0  0  0
   37.5622   12.3150  -15.7761 C   0  0  0  0  0  0  0  0  0  0  0  0
   38.5838   12.8951  -15.0527 C   0  0  0  0  0  0  0  0  0  0  0  0
   34.4732   14.5124  -12.6130 C   0  0  0  0  0  0  0  0  0  0  0  0
   33.2604   15.2063  -12.6791 N   0  0  0  0  0  0  0  0  0  0  0  0
   35.2367   14.6295  -11.6381 O   0  0  0  0  0  0  0  0  0  0  0  0
   33.0669   15.9614  -13.4011 H   0  0  0  0  0  0  0  0  0  0  0  0
   32.4814   15.0091  -12.0118 H   0  0  0  0  0  0  0  0  0  0  0  0
   41.7501   13.9396  -13.9282 C   0  0  0  0  0  0  0  0  0  0  0  0
   40.9004   13.4212  -14.6010 C   0  0  0  0  0  0  0  0  0  0  0  0
   42.8365   14.5721  -13.0707 C   0  0  0  0  0  0  0  0  0  0  0  0
   44.0865   14.4947  -13.8795 C   0  0  0  0  0  0  0  0  0  0  0  0
   42.8348   13.7764  -11.9148 O   0  0  0  0  0  0  0  0  0  0  0  0
   42.3366   14.2300  -11.1997 H   0  0  0  0  0  0  0  0  0  0  0  0
   42.3831   15.9566  -12.7132 C   0  0  0  0  0  0  0  0  0  0  0  0
   40.3449   16.3550  -11.6828 C   0  0  0  0  0  0  0  0  0  0  0  0
   41.0748   16.1860  -12.8108 O   0  0  0  0  0  0  0  0  0  0  0  0
 29 30  1  0  0  0
 30 28  1  0  0  0
 28 24  1  0  0  0
 24 25  1  0  0  0
 24 26  1  0  0  0
 24 22  1  0  0  0
 22 23  3  0  0  0
 23  1  1  0  0  0
  1  2  2  0  0  0
  2  3  1  0  0  0
  3  4  2  0  0  0
  4  5  1  0  0  0
  5  6  1  0  0  0
  6  7  1  0  0  0
  7  8  1  0  0  0
  7  9  1  0  0  0
  7 10  1  0  0  0
 10 11  1  0  0  0
 11 12  1  0  0  0
 12 13  2  0  0  0
 13 14  1  0  0  0
 14 15  1  0  0  0
 15 16  2  0  0  0
 12 17  1  0  0  0
 17 18  1  0  0  0
 17 19  2  0  0  0
 16  1  1  0  0  0
 15  4  1  0  0  0
 14 10  2  0  0  0
 26 27  1  0  0  0
 18 20  1  0  0  0
 18 21  1  0  0  0
M  END
> <minimizedAffinity>
-8.91003

> <CNNscore>
0.4053380489

> <CNNaffinity>
6.6040368080

> <CNN_VS>
2.6768674850

> <CNNaffinity_variance>
0.1457717866

$$$$
[H]O[C@](C#Cc1c([H])c([H])c2c(c1[H])-c1nc(C(=O)N([H])[H])sc1C(F)(F)C([H])([H])O2)(C([H])([H])[H])C([H])([H])OC([H])([H])[H]


 30 32  0  0  0  0  0  0  0  0999 V2000
   36.8267   13.4126  -13.8454 C   0  0  0  0  0  0  0  0  0  0  0  0
   36.0126   12.7508  -14.7649 C   0  0  0  0  0  0  0  0  0  0  0  0
   36.5266   12.1514  -15.8845 C   0  0  0  0  0  0  0  0  0  0  0  0
   37.8757   12.2166  -16.0848 C   0  0  0  0  0  0  0  0  0  0  0  0
   38.2182   11.5616  -17.2583 O   0  0  0  0  0  0  0  0  0  0  0  0
   39.4912   11.0044  -17.5868 C   0  0  0  0  0  0  0  0  0  0  0  0
   40.5646   12.0579  -17.7120 C   0  0  0  0  0  0  0  0  0  0  0  0
   41.6830   11.4563  -18.2205 F   0  0  0  0  0  0  0  0  0  0  0  0
   40.1488   13.0173  -18.6121 F   0  0  0  0  0  0  0  0  0  0  0  0
   40.9315   12.6473  -16.3980 C   0  0  0  0  0  0  0  0  0  0  0  0
   42.5218   13.0445  -15.9277 S   0  0  0  0  0  0  0  0  0  0  0  0
   42.1802   13.6536  -14.3462 C   0  0  0  0  0  0  0  0  0  0  0  0
   40.8652   13.5097  -14.2880 N   0  0  0  0  0  0  0  0  0  0  0  0
   40.2156   13.0147  -15.2865 C   0  0  0  0  0  0  0  0  0  0  0  0
   38.7383   12.8539  -15.2174 C   0  0  0  0  0  0  0  0  0  0  0  0
   38.1752   13.4428  -14.1040 C   0  0  0  0  0  0  0  0  0  0  0  0
   43.1086   14.1851  -13.3455 C   0  0  0  0  0  0  0  0  0  0  0  0
   42.8895   13.9347  -11.9867 N   0  0  0  0  0  0  0  0  0  0  0  0
   44.0817   14.8551  -13.7342 O   0  0  0  0  0  0  0  0  0  0  0  0
   42.0521   14.3189  -11.4575 H   0  0  0  0  0  0  0  0  0  0  0  0
   43.5492   13.3507  -11.4258 H   0  0  0  0  0  0  0  0  0  0  0  0
   35.9207   14.6025  -11.6803 C   0  0  0  0  0  0  0  0  0  0  0  0
   36.3284   14.0499  -12.6660 C   0  0  0  0  0  0  0  0  0  0  0  0
   35.4278   15.3146  -10.4289 C   0  0  0  0  0  0  0  0  0  0  0  0
   36.3416   16.4771  -10.2387 C   0  0  0  0  0  0  0  0  0  0  0  0
   35.5236   14.3242   -9.4392 O   0  0  0  0  0  0  0  0  0  0  0  0
   34.6385   13.9300   -9.2767 H   0  0  0  0  0  0  0  0  0  0  0  0
   33.9829   15.6567  -10.6415 C   0  0  0  0  0  0  0  0  0  0  0  0
   31.9636   15.9220   -9.5339 C   0  0  0  0  0  0  0  0  0  0  0  0
   33.3112   16.0517   -9.5614 O   0  0  0  0  0  0  0  0  0  0  0  0
 29 30  1  0  0  0
 30 28  1  0  0  0
 28 24  1  0  0  0
 24 25  1  0  0  0
 24 26  1  0  0  0
 24 22  1  0  0  0
 22 23  3  0  0  0
 23  1  1  0  0  0
  1  2  2  0  0  0
  2  3  1  0  0  0
  3  4  2  0  0  0
  4  5  1  0  0  0
  5  6  1  0  0  0
  6  7  1  0  0  0
  7  8  1  0  0  0
  7  9  1  0  0  0
  7 10  1  0  0  0
 10 11  1  0  0  0
 11 12  1  0  0  0
 12 13  2  0  0  0
 13 14  1  0  0  0
 14 15  1  0  0  0
 15 16  2  0  0  0
 12 17  1  0  0  0
 17 18  1  0  0  0
 17 19  2  0  0  0
 16  1  1  0  0  0
 15  4  1  0  0  0
 14 10  2  0  0  0
 26 27  1  0  0  0
 18 20  1  0  0  0
 18 21  1  0  0  0
M  END
> <minimizedAffinity>
-8.51049

> <CNNscore>
0.3827322721

> <CNNaffinity>
6.1683154106

> <CNN_VS>
2.3608133793

> <CNNaffinity_variance>
0.1387645602

$$$$
[H]O[C@](C#Cc1c([H])c([H])c2c(c1[H])-c1nc(C(=O)N([H])[H])sc1C(F)(F)C([H])([H])O2)(C([H])([H])[H])C([H])([H])OC([H])([H])[H]


 30 32  0  0  0  0  0  0  0  0999 V2000
   41.0107   12.5990  -16.1084 C   0  0  0  0  0  0  0  0  0  0  0  0
   41.2309   11.8987  -17.2948 C   0  0  0  0  0  0  0  0  0  0  0  0
   40.2011   11.3426  -18.0071 C   0  0  0  0  0  0  0  0  0  0  0  0
   38.9330   11.4908  -17.5230 C   0  0  0  0  0  0  0  0  0  0  0  0
   38.0230   10.8693  -18.3649 O   0  0  0  0  0  0  0  0  0  0  0  0
   36.6321   11.1673  -18.4909 C   0  0  0  0  0  0  0  0  0  0  0  0
   35.8631   10.8651  -17.2280 C   0  0  0  0  0  0  0  0  0  0  0  0
   34.5305   10.9892  -17.5108 F   0  0  0  0  0  0  0  0  0  0  0  0
   36.1018    9.5572  -16.8594 F   0  0  0  0  0  0  0  0  0  0  0  0
   36.1793   11.8198  -16.1338 C   0  0  0  0  0  0  0  0  0  0  0  0
   35.0313   12.4551  -15.0445 S   0  0  0  0  0  0  0  0  0  0  0  0
   36.0887   13.4466  -14.1022 C   0  0  0  0  0  0  0  0  0  0  0  0
   37.2534   13.2209  -14.6904 N   0  0  0  0  0  0  0  0  0  0  0  0
   37.3337   12.4208  -15.6991 C   0  0  0  0  0  0  0  0  0  0  0  0
   38.6437   12.1701  -16.3579 C   0  0  0  0  0  0  0  0  0  0  0  0
   39.7126   12.7128  -15.6748 C   0  0  0  0  0  0  0  0  0  0  0  0
   35.7686   14.3043  -12.9587 C   0  0  0  0  0  0  0  0  0  0  0  0
   34.6710   14.0035  -12.1455 N   0  0  0  0  0  0  0  0  0  0  0  0
   36.4908   15.2924  -12.7365 O   0  0  0  0  0  0  0  0  0  0  0  0
   33.6679   14.0424  -12.4935 H   0  0  0  0  0  0  0  0  0  0  0  0
   34.7919   13.7234  -11.1465 H   0  0  0  0  0  0  0  0  0  0  0  0
   42.9434   13.6733  -14.6819 C   0  0  0  0  0  0  0  0  0  0  0  0
   42.0583   13.1932  -15.3371 C   0  0  0  0  0  0  0  0  0  0  0  0
   44.0596   14.2639  -13.8326 C   0  0  0  0  0  0  0  0  0  0  0  0
   44.4950   13.1692  -12.9190 C   0  0  0  0  0  0  0  0  0  0  0  0
   43.4366   15.3478  -13.1952 O   0  0  0  0  0  0  0  0  0  0  0  0
   43.6680   16.1832  -13.6577 H   0  0  0  0  0  0  0  0  0  0  0  0
   45.1127   14.7836  -14.7659 C   0  0  0  0  0  0  0  0  0  0  0  0
   46.5313   16.5585  -14.3055 C   0  0  0  0  0  0  0  0  0  0  0  0
   45.3303   16.0970  -14.7276 O   0  0  0  0  0  0  0  0  0  0  0  0
 29 30  1  0  0  0
 30 28  1  0  0  0
 28 24  1  0  0  0
 24 25  1  0  0  0
 24 26  1  0  0  0
 24 22  1  0  0  0
 22 23  3  0  0  0
 23  1  1  0  0  0
  1  2  2  0  0  0
  2  3  1  0  0  0
  3  4  2  0  0  0
  4  5  1  0  0  0
  5  6  1  0  0  0
  6  7  1  0  0  0
  7  8  1  0  0  0
  7  9  1  0  0  0
  7 10  1  0  0  0
 10 11  1  0  0  0
 11 12  1  0  0  0
 12 13  2  0  0  0
 13 14  1  0  0  0
 14 15  1  0  0  0
 15 16  2  0  0  0
 12 17  1  0  0  0
 17 18  1  0  0  0
 17 19  2  0  0  0
 16  1  1  0  0  0
 15  4  1  0  0  0
 14 10  2  0  0  0
 26 27  1  0  0  0
 18 20  1  0  0  0
 18 21  1  0  0  0
M  END
> <minimizedAffinity>
-8.31968

> <CNNscore>
0.3654520810

> <CNNaffinity>
6.5017867088

> <CNN_VS>
2.3760914803

> <CNNaffinity_variance>
0.2219089568

$$$$
[H]O[C@](C#Cc1c([H])c([H])c2c(c1[H])-c1nc(C(=O)N([H])[H])sc1C(F)(F)C([H])([H])O2)(C([H])([H])[H])C([H])([H])OC([H])([H])[H]


 30 32  0  0  0  0  0  0  0  0999 V2000
   40.0262   12.0681  -16.6369 C   0  0  0  0  0  0  0  0  0  0  0  0
   39.7383   11.2763  -17.7489 C   0  0  0  0  0  0  0  0  0  0  0  0
   38.4584   10.8901  -18.0489 C   0  0  0  0  0  0  0  0  0  0  0  0
   37.4534   11.3039  -17.2223 C   0  0  0  0  0  0  0  0  0  0  0  0
   36.2332   10.8238  -17.6740 O   0  0  0  0  0  0  0  0  0  0  0  0
   34.9439   11.3752  -17.4042 C   0  0  0  0  0  0  0  0  0  0  0  0
   34.5787   11.2936  -15.9422 C   0  0  0  0  0  0  0  0  0  0  0  0
   33.2651   11.6550  -15.8191 F   0  0  0  0  0  0  0  0  0  0  0  0
   34.7033    9.9857  -15.5208 F   0  0  0  0  0  0  0  0  0  0  0  0
   35.3798   12.2272  -15.1084 C   0  0  0  0  0  0  0  0  0  0  0  0
   34.7600   13.1277  -13.7995 S   0  0  0  0  0  0  0  0  0  0  0  0
   36.2107   13.9475  -13.3386 C   0  0  0  0  0  0  0  0  0  0  0  0
   37.0733   13.4721  -14.2237 N   0  0  0  0  0  0  0  0  0  0  0  0
   36.6949   12.6187  -15.1139 C   0  0  0  0  0  0  0  0  0  0  0  0
   37.6666   12.0872  -16.1072 C   0  0  0  0  0  0  0  0  0  0  0  0
   38.9713   12.4512  -15.8452 C   0  0  0  0  0  0  0  0  0  0  0  0
   36.4176   14.9105  -12.2543 C   0  0  0  0  0  0  0  0  0  0  0  0
   36.1312   16.2644  -12.4584 N   0  0  0  0  0  0  0  0  0  0  0  0
   36.8488   14.4945  -11.1643 O   0  0  0  0  0  0  0  0  0  0  0  0
   36.6732   16.8717  -13.1413 H   0  0  0  0  0  0  0  0  0  0  0  0
   35.3609   16.7437  -11.9408 H   0  0  0  0  0  0  0  0  0  0  0  0
   42.4503   12.8552  -15.9821 C   0  0  0  0  0  0  0  0  0  0  0  0
   41.3477   12.4913  -16.2907 C   0  0  0  0  0  0  0  0  0  0  0  0
   43.8364   13.3381  -15.5804 C   0  0  0  0  0  0  0  0  0  0  0  0
   43.6785   13.9383  -14.2250 C   0  0  0  0  0  0  0  0  0  0  0  0
   44.1619   14.2529  -16.5936 O   0  0  0  0  0  0  0  0  0  0  0  0
   44.7588   13.8265  -17.2473 H   0  0  0  0  0  0  0  0  0  0  0  0
   44.7667   12.1642  -15.6627 C   0  0  0  0  0  0  0  0  0  0  0  0
   46.9116   12.8793  -15.1501 C   0  0  0  0  0  0  0  0  0  0  0  0
   46.0107   12.4314  -16.0564 O   0  0  0  0  0  0  0  0  0  0  0  0
 29 30  1  0  0  0
 30 28  1  0  0  0
 28 24  1  0  0  0
 24 25  1  0  0  0
 24 26  1  0  0  0
 24 22  1  0  0  0
 22 23  3  0  0  0
 23  1  1  0  0  0
  1  2  2  0  0  0
  2  3  1  0  0  0
  3  4  2  0  0  0
  4  5  1  0  0  0
  5  6  1  0  0  0
  6  7  1  0  0  0
  7  8  1  0  0  0
  7  9  1  0  0  0
  7 10  1  0  0  0
 10 11  1  0  0  0
 11 12  1  0  0  0
 12 13  2  0  0  0
 13 14  1  0  0  0
 14 15  1  0  0  0
 15 16  2  0  0  0
 12 17  1  0  0  0
 17 18  1  0  0  0
 17 19  2  0  0  0
 16  1  1  0  0  0
 15  4  1  0  0  0
 14 10  2  0  0  0
 26 27  1  0  0  0
 18 20  1  0  0  0
 18 21  1  0  0  0
M  END
> <minimizedAffinity>
-9.01090

> <CNNscore>
0.3531182706

> <CNNaffinity>
6.6376142502

> <CNN_VS>
2.3438627720

> <CNNaffinity_variance>
0.0544669032

$$$$
[H]O[C@](C#Cc1c([H])c([H])c2c(c1[H])-c1nc(C(=O)N([H])[H])sc1C(F)(F)C([H])([H])O2)(C([H])([H])[H])C([H])([H])OC([H])([H])[H]


 30 32  0  0  0  0  0  0  0  0999 V2000
   40.6579   15.8836  -12.4890 C   0  0  0  0  0  0  0  0  0  0  0  0
   39.8220   16.1996  -11.4176 C   0  0  0  0  0  0  0  0  0  0  0  0
   38.5655   15.6663  -11.3000 C   0  0  0  0  0  0  0  0  0  0  0  0
   38.1414   14.8042  -12.2702 C   0  0  0  0  0  0  0  0  0  0  0  0
   36.8556   14.3650  -11.9923 O   0  0  0  0  0  0  0  0  0  0  0  0
   36.2441   13.1604  -12.4551 C   0  0  0  0  0  0  0  0  0  0  0  0
   36.0612   13.1478  -13.9531 C   0  0  0  0  0  0  0  0  0  0  0  0
   35.2957   12.0596  -14.2712 F   0  0  0  0  0  0  0  0  0  0  0  0
   35.3706   14.2811  -14.3304 F   0  0  0  0  0  0  0  0  0  0  0  0
   37.3521   13.0141  -14.6772 C   0  0  0  0  0  0  0  0  0  0  0  0
   37.5810   12.0669  -16.0767 S   0  0  0  0  0  0  0  0  0  0  0  0
   39.2598   12.3885  -16.3359 C   0  0  0  0  0  0  0  0  0  0  0  0
   39.5297   13.2031  -15.3275 N   0  0  0  0  0  0  0  0  0  0  0  0
   38.6079   13.5334  -14.4875 C   0  0  0  0  0  0  0  0  0  0  0  0
   38.9149   14.4483  -13.3554 C   0  0  0  0  0  0  0  0  0  0  0  0
   40.1726   15.0103  -13.4314 C   0  0  0  0  0  0  0  0  0  0  0  0
   40.1393   11.8866  -17.3944 C   0  0  0  0  0  0  0  0  0  0  0  0
   41.4593   12.3415  -17.4800 N   0  0  0  0  0  0  0  0  0  0  0  0
   39.6840   11.0571  -18.2017 O   0  0  0  0  0  0  0  0  0  0  0  0
   41.7082   13.3486  -17.7096 H   0  0  0  0  0  0  0  0  0  0  0  0
   42.2690   11.7014  -17.3195 H   0  0  0  0  0  0  0  0  0  0  0  0
   43.0880   16.8493  -12.7827 C   0  0  0  0  0  0  0  0  0  0  0  0
   41.9746   16.4190  -12.6468 C   0  0  0  0  0  0  0  0  0  0  0  0
   44.5080   17.3727  -12.9426 C   0  0  0  0  0  0  0  0  0  0  0  0
   45.0745   17.4327  -11.5649 C   0  0  0  0  0  0  0  0  0  0  0  0
   44.3211   18.6212  -13.5555 O   0  0  0  0  0  0  0  0  0  0  0  0
   44.4925   18.5470  -14.5201 H   0  0  0  0  0  0  0  0  0  0  0  0
   45.2225   16.4610  -13.8957 C   0  0  0  0  0  0  0  0  0  0  0  0
   45.9355   14.2558  -13.8374 C   0  0  0  0  0  0  0  0  0  0  0  0
   44.9331   15.1651  -13.7921 O   0  0  0  0  0  0  0  0  0  0  0  0
 29 30  1  0  0  0
 30 28  1  0  0  0
 28 24  1  0  0  0
 24 25  1  0  0  0
 24 26  1  0  0  0
 24 22  1  0  0  0
 22 23  3  0  0  0
 23  1  1  0  0  0
  1  2  2  0  0  0
  2  3  1  0  0  0
  3  4  2  0  0  0
  4  5  1  0  0  0
  5  6  1  0  0  0
  6  7  1  0  0  0
  7  8  1  0  0  0
  7  9  1  0  0  0
  7 10  1  0  0  0
 10 11  1  0  0  0
 11 12  1  0  0  0
 12 13  2  0  0  0
 13 14  1  0  0  0
 14 15  1  0  0  0
 15 16  2  0  0  0
 12 17  1  0  0  0
 17 18  1  0  0  0
 17 19  2  0  0  0
 16  1  1  0  0  0
 15  4  1  0  0  0
 14 10  2  0  0  0
 26 27  1  0  0  0
 18 20  1  0  0  0
 18 21  1  0  0  0
M  END
> <minimizedAffinity>
-7.81757

> <CNNscore>
0.3433496356

> <CNNaffinity>
6.0105853081

> <CNN_VS>
2.0637323856

> <CNNaffinity_variance>
0.1257547438

$$$$
[H]O[C@]1(C#Cc2c([H])c([H])c3c(c2[H])-c2nc(C(=O)N([H])[H])c(C(F)(F)F)n2C([H])([H])C([H])([H])O3)C(=O)N(C([H])([H])[H])C([H])([H])C1([H])[H]


 34 37  0  0  0  0  0  0  0  0999 V2000
   35.5951   13.6074  -12.8276 C   0  0  0  0  0  0  0  0  0  0  0  0
   34.3118   13.2380  -13.1521 C   0  0  0  0  0  0  0  0  0  0  0  0
   34.0275   12.5407  -14.3266 C   0  0  0  0  0  0  0  0  0  0  0  0
   35.0307   12.2109  -15.1810 C   0  0  0  0  0  0  0  0  0  0  0  0
   34.6456   11.5054  -16.3402 O   0  0  0  0  0  0  0  0  0  0  0  0
   35.4061   10.4643  -16.8982 C   0  0  0  0  0  0  0  0  0  0  0  0
   36.6680   10.8706  -17.6041 C   0  0  0  0  0  0  0  0  0  0  0  0
   37.6152   11.6354  -16.8448 N   0  0  0  0  0  0  0  0  0  0  0  0
   37.5140   12.3262  -15.6979 C   0  0  0  0  0  0  0  0  0  0  0  0
   38.7007   12.8408  -15.3744 N   0  0  0  0  0  0  0  0  0  0  0  0
   39.6035   12.4729  -16.3470 C   0  0  0  0  0  0  0  0  0  0  0  0
   38.9179   11.7224  -17.2634 C   0  0  0  0  0  0  0  0  0  0  0  0
   36.3106   12.5730  -14.8707 C   0  0  0  0  0  0  0  0  0  0  0  0
   36.6028   13.2543  -13.7260 C   0  0  0  0  0  0  0  0  0  0  0  0
   40.9891   12.8953  -16.2453 C   0  0  0  0  0  0  0  0  0  0  0  0
   42.1150   12.4157  -16.9207 N   0  0  0  0  0  0  0  0  0  0  0  0
   41.2688   13.8564  -15.4153 O   0  0  0  0  0  0  0  0  0  0  0  0
   42.5239   12.7889  -17.7994 H   0  0  0  0  0  0  0  0  0  0  0  0
   42.6323   11.5903  -16.5038 H   0  0  0  0  0  0  0  0  0  0  0  0
   39.5274   11.1625  -18.4880 C   0  0  0  0  0  0  0  0  0  0  0  0
   40.5474   10.2993  -18.1989 F   0  0  0  0  0  0  0  0  0  0  0  0
   40.0831   12.2082  -19.2698 F   0  0  0  0  0  0  0  0  0  0  0  0
   38.6137   10.5989  -19.3620 F   0  0  0  0  0  0  0  0  0  0  0  0
   36.0609   14.9360  -10.6081 C   0  0  0  0  0  0  0  0  0  0  0  0
   35.8528   14.3175  -11.6220 C   0  0  0  0  0  0  0  0  0  0  0  0
   37.5557   19.0797   -8.5568 C   0  0  0  0  0  0  0  0  0  0  0  0
   36.7744   17.8731   -8.7796 N   0  0  0  0  0  0  0  0  0  0  0  0
   35.5676   17.5141   -8.0772 C   0  0  0  0  0  0  0  0  0  0  0  0
   35.0165   16.3594   -8.8789 C   0  0  0  0  0  0  0  0  0  0  0  0
   36.2885   15.6910   -9.3745 C   0  0  0  0  0  0  0  0  0  0  0  0
   36.8895   14.9239   -8.3896 O   0  0  0  0  0  0  0  0  0  0  0  0
   37.1129   16.8686   -9.7453 C   0  0  0  0  0  0  0  0  0  0  0  0
   37.9327   17.0290  -10.6663 O   0  0  0  0  0  0  0  0  0  0  0  0
   36.6514   13.9811   -8.5479 H   0  0  0  0  0  0  0  0  0  0  0  0
 26 27  1  0  0  0
 27 28  1  0  0  0
 28 29  1  0  0  0
 29 30  1  0  0  0
 30 31  1  0  0  0
 30 24  1  0  0  0
 24 25  3  0  0  0
 25  1  1  0  0  0
  1  2  2  0  0  0
  2  3  1  0  0  0
  3  4  2  0  0  0
  4  5  1  0  0  0
  5  6  1  0  0  0
  6  7  1  0  0  0
  7  8  1  0  0  0
  8  9  1  0  0  0
  9 10  2  0  0  0
 10 11  1  0  0  0
 11 15  1  0  0  0
 15 16  1  0  0  0
 15 17  2  0  0  0
 11 12  2  0  0  0
 12 20  1  0  0  0
 20 21  1  0  0  0
 20 22  1  0  0  0
 20 23  1  0  0  0
  9 13  1  0  0  0
 13 14  2  0  0  0
 30 32  1  0  0  0
 32 33  2  0  0  0
 32 27  1  0  0  0
 14  1  1  0  0  0
 13  4  1  0  0  0
 12  8  1  0  0  0
 31 34  1  0  0  0
 16 18  1  0  0  0
 16 19  1  0  0  0
M  END
> <minimizedAffinity>
-9.75449

> <CNNscore>
0.8856631517

> <CNNaffinity>
7.4375023842

> <CNN_VS>
6.5871219635

> <CNNaffinity_variance>
0.2258207798

$$$$
[H]O[C@]1(C#Cc2c([H])c([H])c3c(c2[H])-c2nc(C(=O)N([H])[H])c(C(F)(F)F)n2C([H])([H])C([H])([H])O3)C(=O)N(C([H])([H])[H])C([H])([H])C1([H])[H]


 34 37  0  0  0  0  0  0  0  0999 V2000
   40.9347   13.3487  -15.1053 C   0  0  0  0  0  0  0  0  0  0  0  0
   41.7191   12.8010  -16.0917 C   0  0  0  0  0  0  0  0  0  0  0  0
   41.1822   11.9675  -17.0732 C   0  0  0  0  0  0  0  0  0  0  0  0
   39.8546   11.6799  -17.0688 C   0  0  0  0  0  0  0  0  0  0  0  0
   39.4049   10.8305  -18.1013 O   0  0  0  0  0  0  0  0  0  0  0  0
   38.1740   10.9982  -18.7573 C   0  0  0  0  0  0  0  0  0  0  0  0
   36.9483   10.6351  -17.9690 C   0  0  0  0  0  0  0  0  0  0  0  0
   36.7722   11.2964  -16.7079 N   0  0  0  0  0  0  0  0  0  0  0  0
   37.6118   11.9851  -15.9182 C   0  0  0  0  0  0  0  0  0  0  0  0
   36.9551   12.4444  -14.8526 N   0  0  0  0  0  0  0  0  0  0  0  0
   35.6434   12.0374  -14.9532 C   0  0  0  0  0  0  0  0  0  0  0  0
   35.5370   11.3188  -16.1130 C   0  0  0  0  0  0  0  0  0  0  0  0
   39.0639   12.2172  -16.0932 C   0  0  0  0  0  0  0  0  0  0  0  0
   39.5754   13.0338  -15.1281 C   0  0  0  0  0  0  0  0  0  0  0  0
   34.6905   12.4050  -13.9209 C   0  0  0  0  0  0  0  0  0  0  0  0
   33.5146   13.1536  -14.0243 N   0  0  0  0  0  0  0  0  0  0  0  0
   34.9275   12.0011  -12.7078 O   0  0  0  0  0  0  0  0  0  0  0  0
   32.5523   12.7908  -14.1685 H   0  0  0  0  0  0  0  0  0  0  0  0
   33.5851   14.2072  -13.9367 H   0  0  0  0  0  0  0  0  0  0  0  0
   34.2872   10.6751  -16.5692 C   0  0  0  0  0  0  0  0  0  0  0  0
   33.7510   11.3162  -17.6511 F   0  0  0  0  0  0  0  0  0  0  0  0
   33.3148   10.7277  -15.5370 F   0  0  0  0  0  0  0  0  0  0  0  0
   34.4054    9.3136  -16.7892 F   0  0  0  0  0  0  0  0  0  0  0  0
   42.0069   14.8962  -13.2711 C   0  0  0  0  0  0  0  0  0  0  0  0
   41.5121   14.1956  -14.1185 C   0  0  0  0  0  0  0  0  0  0  0  0
   45.5375   15.3861   -9.9684 C   0  0  0  0  0  0  0  0  0  0  0  0
   44.5858   15.7413  -11.0098 N   0  0  0  0  0  0  0  0  0  0  0  0
   44.5285   17.0076  -11.6966 C   0  0  0  0  0  0  0  0  0  0  0  0
   43.5883   16.7478  -12.8491 C   0  0  0  0  0  0  0  0  0  0  0  0
   42.6299   15.7344  -12.2450 C   0  0  0  0  0  0  0  0  0  0  0  0
   41.6965   16.3336  -11.4147 O   0  0  0  0  0  0  0  0  0  0  0  0
   43.5644   14.8590  -11.4938 C   0  0  0  0  0  0  0  0  0  0  0  0
   43.5393   13.6335  -11.2850 O   0  0  0  0  0  0  0  0  0  0  0  0
   40.8550   16.4287  -11.9184 H   0  0  0  0  0  0  0  0  0  0  0  0
 26 27  1  0  0  0
 27 28  1  0  0  0
 28 29  1  0  0  0
 29 30  1  0  0  0
 30 31  1  0  0  0
 30 24  1  0  0  0
 24 25  3  0  0  0
 25  1  1  0  0  0
  1  2  2  0  0  0
  2  3  1  0  0  0
  3  4  2  0  0  0
  4  5  1  0  0  0
  5  6  1  0  0  0
  6  7  1  0  0  0
  7  8  1  0  0  0
  8  9  1  0  0  0
  9 10  2  0  0  0
 10 11  1  0  0  0
 11 15  1  0  0  0
 15 16  1  0  0  0
 15 17  2  0  0  0
 11 12  2  0  0  0
 12 20  1  0  0  0
 20 21  1  0  0  0
 20 22  1  0  0  0
 20 23  1  0  0  0
  9 13  1  0  0  0
 13 14  2  0  0  0
 30 32  1  0  0  0
 32 33  2  0  0  0
 32 27  1  0  0  0
 14  1  1  0  0  0
 13  4  1  0  0  0
 12  8  1  0  0  0
 31 34  1  0  0  0
 16 18  1  0  0  0
 16 19  1  0  0  0
M  END
> <minimizedAffinity>
-9.65142

> <CNNscore>
0.8083586097

> <CNNaffinity>
7.2606315613

> <CNN_VS>
5.8691940308

> <CNNaffinity_variance>
0.1984555423

$$$$
[H]O[C@]1(C#Cc2c([H])c([H])c3c(c2[H])-c2nc(C(=O)N([H])[H])c(C(F)(F)F)n2C([H])([H])C([H])([H])O3)C(=O)N(C([H])([H])[H])C([H])([H])C1([H])[H]


 34 37  0  0  0  0  0  0  0  0999 V2000
   35.2257   14.0759  -12.8519 C   0  0  0  0  0  0  0  0  0  0  0  0
   33.9599   13.6853  -13.2172 C   0  0  0  0  0  0  0  0  0  0  0  0
   33.7356   12.9014  -14.3493 C   0  0  0  0  0  0  0  0  0  0  0  0
   34.7818   12.5058  -15.1202 C   0  0  0  0  0  0  0  0  0  0  0  0
   34.4561   11.7150  -16.2419 O   0  0  0  0  0  0  0  0  0  0  0  0
   35.2396   10.6331  -16.6770 C   0  0  0  0  0  0  0  0  0  0  0  0
   36.5404   10.9822  -17.3415 C   0  0  0  0  0  0  0  0  0  0  0  0
   37.4495   11.8007  -16.5916 N   0  0  0  0  0  0  0  0  0  0  0  0
   37.2903   12.5768  -15.5076 C   0  0  0  0  0  0  0  0  0  0  0  0
   38.4607   13.1123  -15.1596 N   0  0  0  0  0  0  0  0  0  0  0  0
   39.4127   12.6699  -16.0508 C   0  0  0  0  0  0  0  0  0  0  0  0
   38.7735   11.8532  -16.9438 C   0  0  0  0  0  0  0  0  0  0  0  0
   36.0451   12.8880  -14.7686 C   0  0  0  0  0  0  0  0  0  0  0  0
   36.2787   13.6537  -13.6645 C   0  0  0  0  0  0  0  0  0  0  0  0
   40.7933   13.0962  -15.9057 C   0  0  0  0  0  0  0  0  0  0  0  0
   41.7316   13.4164  -16.8911 N   0  0  0  0  0  0  0  0  0  0  0  0
   41.2679   13.2084  -14.7003 O   0  0  0  0  0  0  0  0  0  0  0  0
   41.9405   14.3590  -17.2737 H   0  0  0  0  0  0  0  0  0  0  0  0
   42.3144   12.6308  -17.2985 H   0  0  0  0  0  0  0  0  0  0  0  0
   39.4454   11.2008  -18.0873 C   0  0  0  0  0  0  0  0  0  0  0  0
   40.5045   10.4355  -17.6851 F   0  0  0  0  0  0  0  0  0  0  0  0
   39.9616   12.1865  -18.9679 F   0  0  0  0  0  0  0  0  0  0  0  0
   38.5880   10.4931  -18.9122 F   0  0  0  0  0  0  0  0  0  0  0  0
   35.5910   15.5347  -10.6963 C   0  0  0  0  0  0  0  0  0  0  0  0
   35.4218   14.8750  -11.6912 C   0  0  0  0  0  0  0  0  0  0  0  0
   37.4945   15.7288   -6.2295 C   0  0  0  0  0  0  0  0  0  0  0  0
   37.0908   16.1586   -7.5593 N   0  0  0  0  0  0  0  0  0  0  0  0
   37.4430   17.4122   -8.1782 C   0  0  0  0  0  0  0  0  0  0  0  0
   37.0349   17.2271   -9.6200 C   0  0  0  0  0  0  0  0  0  0  0  0
   35.8193   16.3246   -9.4848 C   0  0  0  0  0  0  0  0  0  0  0  0
   34.6917   17.0278   -9.0930 O   0  0  0  0  0  0  0  0  0  0  0  0
   36.2751   15.3738   -8.4397 C   0  0  0  0  0  0  0  0  0  0  0  0
   36.0473   14.1608   -8.2897 O   0  0  0  0  0  0  0  0  0  0  0  0
   34.1430   17.1973   -9.8936 H   0  0  0  0  0  0  0  0  0  0  0  0
 26 27  1  0  0  0
 27 28  1  0  0  0
 28 29  1  0  0  0
 29 30  1  0  0  0
 30 31  1  0  0  0
 30 24  1  0  0  0
 24 25  3  0  0  0
 25  1  1  0  0  0
  1  2  2  0  0  0
  2  3  1  0  0  0
  3  4  2  0  0  0
  4  5  1  0  0  0
  5  6  1  0  0  0
  6  7  1  0  0  0
  7  8  1  0  0  0
  8  9  1  0  0  0
  9 10  2  0  0  0
 10 11  1  0  0  0
 11 15  1  0  0  0
 15 16  1  0  0  0
 15 17  2  0  0  0
 11 12  2  0  0  0
 12 20  1  0  0  0
 20 21  1  0  0  0
 20 22  1  0  0  0
 20 23  1  0  0  0
  9 13  1  0  0  0
 13 14  2  0  0  0
 30 32  1  0  0  0
 32 33  2  0  0  0
 32 27  1  0  0  0
 14  1  1  0  0  0
 13  4  1  0  0  0
 12  8  1  0  0  0
 31 34  1  0  0  0
 16 18  1  0  0  0
 16 19  1  0  0  0
M  END
> <minimizedAffinity>
-9.58001

> <CNNscore>
0.7152210474

> <CNNaffinity>
7.1724901199

> <CNN_VS>
5.1299157143

> <CNNaffinity_variance>
0.1199458614

$$$$
[H]O[C@]1(C#Cc2c([H])c([H])c3c(c2[H])-c2nc(C(=O)N([H])[H])c(C(F)(F)F)n2C([H])([H])C([H])([H])O3)C(=O)N(C([H])([H])[H])C([H])([H])C1([H])[H]


 34 37  0  0  0  0  0  0  0  0999 V2000
   41.1525   12.8396  -15.7242 C   0  0  0  0  0  0  0  0  0  0  0  0
   41.6826   12.2936  -16.8684 C   0  0  0  0  0  0  0  0  0  0  0  0
   40.8891   11.5980  -17.7811 C   0  0  0  0  0  0  0  0  0  0  0  0
   39.5592   11.4475  -17.5490 C   0  0  0  0  0  0  0  0  0  0  0  0
   38.8402   10.7312  -18.5287 O   0  0  0  0  0  0  0  0  0  0  0  0
   37.5400   11.0739  -18.9359 C   0  0  0  0  0  0  0  0  0  0  0  0
   36.4396   10.7769  -17.9579 C   0  0  0  0  0  0  0  0  0  0  0  0
   36.5658   11.3524  -16.6496 N   0  0  0  0  0  0  0  0  0  0  0  0
   37.6047   11.8884  -15.9893 C   0  0  0  0  0  0  0  0  0  0  0  0
   37.2034   12.3276  -14.7960 N   0  0  0  0  0  0  0  0  0  0  0  0
   35.8569   12.0652  -14.6768 C   0  0  0  0  0  0  0  0  0  0  0  0
   35.4660   11.4537  -15.8371 C   0  0  0  0  0  0  0  0  0  0  0  0
   39.0200   11.9846  -16.4149 C   0  0  0  0  0  0  0  0  0  0  0  0
   39.7837   12.6672  -15.5146 C   0  0  0  0  0  0  0  0  0  0  0  0
   35.1498   12.4461  -13.4671 C   0  0  0  0  0  0  0  0  0  0  0  0
   34.1111   13.3664  -13.2986 N   0  0  0  0  0  0  0  0  0  0  0  0
   35.5030   11.8733  -12.3544 O   0  0  0  0  0  0  0  0  0  0  0  0
   33.0917   13.1681  -13.3073 H   0  0  0  0  0  0  0  0  0  0  0  0
   34.3665   14.3807  -13.1294 H   0  0  0  0  0  0  0  0  0  0  0  0
   34.0900   10.9780  -16.0920 C   0  0  0  0  0  0  0  0  0  0  0  0
   33.3442   11.9120  -16.7556 F   0  0  0  0  0  0  0  0  0  0  0  0
   33.4323   10.7266  -14.8599 F   0  0  0  0  0  0  0  0  0  0  0  0
   34.0298    9.7418  -16.7122 F   0  0  0  0  0  0  0  0  0  0  0  0
   42.6794   14.1522  -14.0347 C   0  0  0  0  0  0  0  0  0  0  0  0
   41.9880   13.5439  -14.8130 C   0  0  0  0  0  0  0  0  0  0  0  0
   46.4299   17.1518  -13.2938 C   0  0  0  0  0  0  0  0  0  0  0  0
   45.1241   16.5338  -13.1234 N   0  0  0  0  0  0  0  0  0  0  0  0
   44.0749   17.0155  -12.2599 C   0  0  0  0  0  0  0  0  0  0  0  0
   42.8689   16.2084  -12.6769 C   0  0  0  0  0  0  0  0  0  0  0  0
   43.5030   14.8843  -13.0707 C   0  0  0  0  0  0  0  0  0  0  0  0
   43.8298   14.1160  -11.9650 O   0  0  0  0  0  0  0  0  0  0  0  0
   44.7077   15.3438  -13.8066 C   0  0  0  0  0  0  0  0  0  0  0  0
   45.2869   14.8644  -14.7968 O   0  0  0  0  0  0  0  0  0  0  0  0
   43.1260   13.4369  -11.8452 H   0  0  0  0  0  0  0  0  0  0  0  0
 26 27  1  0  0  0
 27 28  1  0  0  0
 28 29  1  0  0  0
 29 30  1  0  0  0
 30 31  1  0  0  0
 30 24  1  0  0  0
 24 25  3  0  0  0
 25  1  1  0  0  0
  1  2  2  0  0  0
  2  3  1  0  0  0
  3  4  2  0  0  0
  4  5  1  0  0  0
  5  6  1  0  0  0
  6  7  1  0  0  0
  7  8  1  0  0  0
  8  9  1  0  0  0
  9 10  2  0  0  0
 10 11  1  0  0  0
 11 15  1  0  0  0
 15 16  1  0  0  0
 15 17  2  0  0  0
 11 12  2  0  0  0
 12 20  1  0  0  0
 20 21  1  0  0  0
 20 22  1  0  0  0
 20 23  1  0  0  0
  9 13  1  0  0  0
 13 14  2  0  0  0
 30 32  1  0  0  0
 32 33  2  0  0  0
 32 27  1  0  0  0
 14  1  1  0  0  0
 13  4  1  0  0  0
 12  8  1  0  0  0
 31 34  1  0  0  0
 16 18  1  0  0  0
 16 19  1  0  0  0
M  END
> <minimizedAffinity>
-9.41674

> <CNNscore>
0.6443783641

> <CNNaffinity>
7.0544152260

> <CNN_VS>
4.5457124710

> <CNNaffinity_variance>
0.1443279088

$$$$
[H]O[C@]1(C#Cc2c([H])c([H])c3c(c2[H])-c2nc(C(=O)N([H])[H])c(C(F)(F)F)n2C([H])([H])C([H])([H])O3)C(=O)N(C([H])([H])[H])C([H])([H])C1([H])[H]


 34 37  0  0  0  0  0  0  0  0999 V2000
   42.3295   13.0644  -15.5294 C   0  0  0  0  0  0  0  0  0  0  0  0
   42.9961   12.4863  -16.5828 C   0  0  0  0  0  0  0  0  0  0  0  0
   42.3224   11.7498  -17.5575 C   0  0  0  0  0  0  0  0  0  0  0  0
   40.9756   11.5903  -17.4790 C   0  0  0  0  0  0  0  0  0  0  0  0
   40.3840   10.8318  -18.5107 O   0  0  0  0  0  0  0  0  0  0  0  0
   39.1384   11.1437  -19.0806 C   0  0  0  0  0  0  0  0  0  0  0  0
   37.9324   10.8664  -18.2294 C   0  0  0  0  0  0  0  0  0  0  0  0
   37.8976   11.4879  -16.9367 N   0  0  0  0  0  0  0  0  0  0  0  0
   38.8464   12.0595  -16.1777 C   0  0  0  0  0  0  0  0  0  0  0  0
   38.3028   12.5342  -15.0566 N   0  0  0  0  0  0  0  0  0  0  0  0
   36.9539   12.2589  -15.0881 C   0  0  0  0  0  0  0  0  0  0  0  0
   36.7085   11.6030  -16.2640 C   0  0  0  0  0  0  0  0  0  0  0  0
   40.3012   12.1591  -16.4363 C   0  0  0  0  0  0  0  0  0  0  0  0
   40.9470   12.8819  -15.4770 C   0  0  0  0  0  0  0  0  0  0  0  0
   36.1051   12.6720  -13.9846 C   0  0  0  0  0  0  0  0  0  0  0  0
   35.7847   11.9896  -12.8075 N   0  0  0  0  0  0  0  0  0  0  0  0
   35.5387   13.8400  -14.0619 O   0  0  0  0  0  0  0  0  0  0  0  0
   36.2657   12.0641  -11.8901 H   0  0  0  0  0  0  0  0  0  0  0  0
   34.9571   11.3281  -12.8244 H   0  0  0  0  0  0  0  0  0  0  0  0
   35.3766   11.1014  -16.6625 C   0  0  0  0  0  0  0  0  0  0  0  0
   34.9964   11.5839  -17.8839 F   0  0  0  0  0  0  0  0  0  0  0  0
   34.4004   11.5340  -15.7278 F   0  0  0  0  0  0  0  0  0  0  0  0
   35.2532    9.7241  -16.5966 F   0  0  0  0  0  0  0  0  0  0  0  0
   43.6679   14.4291  -13.7253 C   0  0  0  0  0  0  0  0  0  0  0  0
   43.0450   13.8101  -14.5515 C   0  0  0  0  0  0  0  0  0  0  0  0
   46.0659   18.5188  -12.6591 C   0  0  0  0  0  0  0  0  0  0  0  0
   45.2219   17.3474  -12.4813 N   0  0  0  0  0  0  0  0  0  0  0  0
   44.4349   17.0511  -11.3103 C   0  0  0  0  0  0  0  0  0  0  0  0
   43.5448   15.9155  -11.7548 C   0  0  0  0  0  0  0  0  0  0  0  0
   44.4430   15.1844  -12.7393 C   0  0  0  0  0  0  0  0  0  0  0  0
   45.3871   14.3999  -12.0967 O   0  0  0  0  0  0  0  0  0  0  0  0
   45.0634   16.3193  -13.4682 C   0  0  0  0  0  0  0  0  0  0  0  0
   45.3996   16.4330  -14.6598 O   0  0  0  0  0  0  0  0  0  0  0  0
   45.0687   13.4675  -12.1072 H   0  0  0  0  0  0  0  0  0  0  0  0
 26 27  1  0  0  0
 27 28  1  0  0  0
 28 29  1  0  0  0
 29 30  1  0  0  0
 30 31  1  0  0  0
 30 24  1  0  0  0
 24 25  3  0  0  0
 25  1  1  0  0  0
  1  2  2  0  0  0
  2  3  1  0  0  0
  3  4  2  0  0  0
  4  5  1  0  0  0
  5  6  1  0  0  0
  6  7  1  0  0  0
  7  8  1  0  0  0
  8  9  1  0  0  0
  9 10  2  0  0  0
 10 11  1  0  0  0
 11 15  1  0  0  0
 15 16  1  0  0  0
 15 17  2  0  0  0
 11 12  2  0  0  0
 12 20  1  0  0  0
 20 21  1  0  0  0
 20 22  1  0  0  0
 20 23  1  0  0  0
  9 13  1  0  0  0
 13 14  2  0  0  0
 30 32  1  0  0  0
 32 33  2  0  0  0
 32 27  1  0  0  0
 14  1  1  0  0  0
 13  4  1  0  0  0
 12  8  1  0  0  0
 31 34  1  0  0  0
 16 18  1  0  0  0
 16 19  1  0  0  0
M  END
> <minimizedAffinity>
-8.71415

> <CNNscore>
0.4796725810

> <CNNaffinity>
6.8295388222

> <CNN_VS>
3.2759425640

> <CNNaffinity_variance>
0.3734348416

$$$$
[H]O[C@]1(C#Cc2c([H])c([H])c3c(c2[H])-c2nc(C(=O)N([H])[H])c(C(F)(F)F)n2C([H])([H])C([H])([H])O3)C(=O)N(C([H])([H])[H])C([H])([H])C1([H])[H]


 34 37  0  0  0  0  0  0  0  0999 V2000
   38.9971   15.1655  -12.4522 C   0  0  0  0  0  0  0  0  0  0  0  0
   40.3530   15.3468  -12.5828 C   0  0  0  0  0  0  0  0  0  0  0  0
   41.0733   14.7499  -13.6178 C   0  0  0  0  0  0  0  0  0  0  0  0
   40.4352   13.9680  -14.5271 C   0  0  0  0  0  0  0  0  0  0  0  0
   41.2467   13.4100  -15.5369 O   0  0  0  0  0  0  0  0  0  0  0  0
   40.8334   13.2762  -16.8729 C   0  0  0  0  0  0  0  0  0  0  0  0
   39.8138   12.2081  -17.1472 C   0  0  0  0  0  0  0  0  0  0  0  0
   38.5899   12.2768  -16.4015 N   0  0  0  0  0  0  0  0  0  0  0  0
   38.2422   12.9368  -15.2851 C   0  0  0  0  0  0  0  0  0  0  0  0
   36.9595   12.7052  -15.0045 N   0  0  0  0  0  0  0  0  0  0  0  0
   36.4576   11.8633  -15.9717 C   0  0  0  0  0  0  0  0  0  0  0  0
   37.4821   11.5978  -16.8395 C   0  0  0  0  0  0  0  0  0  0  0  0
   39.0877   13.7790  -14.4081 C   0  0  0  0  0  0  0  0  0  0  0  0
   38.3713   14.3566  -13.4017 C   0  0  0  0  0  0  0  0  0  0  0  0
   35.0680   11.4454  -15.9171 C   0  0  0  0  0  0  0  0  0  0  0  0
   33.9605   12.1132  -15.3866 N   0  0  0  0  0  0  0  0  0  0  0  0
   34.7648   10.2863  -16.4227 O   0  0  0  0  0  0  0  0  0  0  0  0
   33.2982   12.7298  -15.8962 H   0  0  0  0  0  0  0  0  0  0  0  0
   33.7451   11.9818  -14.3575 H   0  0  0  0  0  0  0  0  0  0  0  0
   37.3588   10.6987  -18.0060 C   0  0  0  0  0  0  0  0  0  0  0  0
   37.1465    9.4021  -17.6280 F   0  0  0  0  0  0  0  0  0  0  0  0
   38.5635   10.7161  -18.7559 F   0  0  0  0  0  0  0  0  0  0  0  0
   36.4275   11.1172  -18.9407 F   0  0  0  0  0  0  0  0  0  0  0  0
   37.7052   16.3071  -10.4683 C   0  0  0  0  0  0  0  0  0  0  0  0
   38.2906   15.7883  -11.3858 C   0  0  0  0  0  0  0  0  0  0  0  0
   36.9712   16.4757   -5.6677 C   0  0  0  0  0  0  0  0  0  0  0  0
   37.1477   16.9344   -7.0369 N   0  0  0  0  0  0  0  0  0  0  0  0
   37.2890   18.3087   -7.4490 C   0  0  0  0  0  0  0  0  0  0  0  0
   37.7337   18.2072   -8.8883 C   0  0  0  0  0  0  0  0  0  0  0  0
   37.0163   16.9479   -9.3465 C   0  0  0  0  0  0  0  0  0  0  0  0
   35.6770   17.1815   -9.6135 O   0  0  0  0  0  0  0  0  0  0  0  0
   37.2044   16.0598   -8.1718 C   0  0  0  0  0  0  0  0  0  0  0  0
   37.3773   14.8305   -8.1020 O   0  0  0  0  0  0  0  0  0  0  0  0
   35.5710   17.2745  -10.5887 H   0  0  0  0  0  0  0  0  0  0  0  0
 26 27  1  0  0  0
 27 28  1  0  0  0
 28 29  1  0  0  0
 29 30  1  0  0  0
 30 31  1  0  0  0
 30 24  1  0  0  0
 24 25  3  0  0  0
 25  1  1  0  0  0
  1  2  2  0  0  0
  2  3  1  0  0  0
  3  4  2  0  0  0
  4  5  1  0  0  0
  5  6  1  0  0  0
  6  7  1  0  0  0
  7  8  1  0  0  0
  8  9  1  0  0  0
  9 10  2  0  0  0
 10 11  1  0  0  0
 11 15  1  0  0  0
 15 16  1  0  0  0
 15 17  2  0  0  0
 11 12  2  0  0  0
 12 20  1  0  0  0
 20 21  1  0  0  0
 20 22  1  0  0  0
 20 23  1  0  0  0
  9 13  1  0  0  0
 13 14  2  0  0  0
 30 32  1  0  0  0
 32 33  2  0  0  0
 32 27  1  0  0  0
 14  1  1  0  0  0
 13  4  1  0  0  0
 12  8  1  0  0  0
 31 34  1  0  0  0
 16 18  1  0  0  0
 16 19  1  0  0  0
M  END
> <minimizedAffinity>
-8.34252

> <CNNscore>
0.4172328711

> <CNNaffinity>
6.7094955444

> <CNN_VS>
2.7994220257

> <CNNaffinity_variance>
0.1797892600

$$$$
[H]O[C@]1(C#Cc2c([H])c([H])c3c(c2[H])-c2nc(C(=O)N([H])[H])c(C(F)(F)F)n2C([H])([H])C([H])([H])O3)C(=O)N(C([H])([H])[H])C([H])([H])C1([H])[H]


 34 37  0  0  0  0  0  0  0  0999 V2000
   35.4680   14.8604  -12.6282 C   0  0  0  0  0  0  0  0  0  0  0  0
   34.1124   14.6364  -12.6060 C   0  0  0  0  0  0  0  0  0  0  0  0
   33.5039   13.7505  -13.4955 C   0  0  0  0  0  0  0  0  0  0  0  0
   34.2541   13.0850  -14.4118 C   0  0  0  0  0  0  0  0  0  0  0  0
   33.5503   12.2105  -15.2660 O   0  0  0  0  0  0  0  0  0  0  0  0
   34.0520   10.9647  -15.6781 C   0  0  0  0  0  0  0  0  0  0  0  0
   35.1660   10.9994  -16.6849 C   0  0  0  0  0  0  0  0  0  0  0  0
   36.3340   11.7534  -16.3300 N   0  0  0  0  0  0  0  0  0  0  0  0
   36.5619   12.6881  -15.3934 C   0  0  0  0  0  0  0  0  0  0  0  0
   37.8396   13.0669  -15.4349 N   0  0  0  0  0  0  0  0  0  0  0  0
   38.4624   12.3545  -16.4354 C   0  0  0  0  0  0  0  0  0  0  0  0
   37.5153   11.5380  -16.9918 C   0  0  0  0  0  0  0  0  0  0  0  0
   35.6026   13.2994  -14.4451 C   0  0  0  0  0  0  0  0  0  0  0  0
   36.2105   14.1621  -13.5813 C   0  0  0  0  0  0  0  0  0  0  0  0
   39.8744   12.5639  -16.7015 C   0  0  0  0  0  0  0  0  0  0  0  0
   40.5004   13.0173  -17.8663 N   0  0  0  0  0  0  0  0  0  0  0  0
   40.7154   12.3025  -15.7448 O   0  0  0  0  0  0  0  0  0  0  0  0
   40.7614   13.9959  -18.0962 H   0  0  0  0  0  0  0  0  0  0  0  0
   40.7580   12.3022  -18.6044 H   0  0  0  0  0  0  0  0  0  0  0  0
   37.7777   10.6315  -18.1293 C   0  0  0  0  0  0  0  0  0  0  0  0
   39.1066   10.5863  -18.4469 F   0  0  0  0  0  0  0  0  0  0  0  0
   37.0951   11.0976  -19.2828 F   0  0  0  0  0  0  0  0  0  0  0  0
   37.2473    9.3629  -17.9693 F   0  0  0  0  0  0  0  0  0  0  0  0
   36.5676   16.5242  -10.9161 C   0  0  0  0  0  0  0  0  0  0  0  0
   36.0590   15.7699  -11.7073 C   0  0  0  0  0  0  0  0  0  0  0  0
   36.7997   18.1609   -6.3466 C   0  0  0  0  0  0  0  0  0  0  0  0
   37.2390   17.7390   -7.6676 N   0  0  0  0  0  0  0  0  0  0  0  0
   38.6093   17.5562   -8.0767 C   0  0  0  0  0  0  0  0  0  0  0  0
   38.4952   16.8437   -9.4030 C   0  0  0  0  0  0  0  0  0  0  0  0
   37.2079   17.4294   -9.9600 C   0  0  0  0  0  0  0  0  0  0  0  0
   37.3982   18.6989  -10.4812 O   0  0  0  0  0  0  0  0  0  0  0  0
   36.3464   17.4460   -8.7510 C   0  0  0  0  0  0  0  0  0  0  0  0
   35.1241   17.2589   -8.6218 O   0  0  0  0  0  0  0  0  0  0  0  0
   37.4709   18.6201  -11.4606 H   0  0  0  0  0  0  0  0  0  0  0  0
 26 27  1  0  0  0
 27 28  1  0  0  0
 28 29  1  0  0  0
 29 30  1  0  0  0
 30 31  1  0  0  0
 30 24  1  0  0  0
 24 25  3  0  0  0
 25  1  1  0  0  0
  1  2  2  0  0  0
  2  3  1  0  0  0
  3  4  2  0  0  0
  4  5  1  0  0  0
  5  6  1  0  0  0
  6  7  1  0  0  0
  7  8  1  0  0  0
  8  9  1  0  0  0
  9 10  2  0  0  0
 10 11  1  0  0  0
 11 15  1  0  0  0
 15 16  1  0  0  0
 15 17  2  0  0  0
 11 12  2  0  0  0
 12 20  1  0  0  0
 20 21  1  0  0  0
 20 22  1  0  0  0
 20 23  1  0  0  0
  9 13  1  0  0  0
 13 14  2  0  0  0
 30 32  1  0  0  0
 32 33  2  0  0  0
 32 27  1  0  0  0
 14  1  1  0  0  0
 13  4  1  0  0  0
 12  8  1  0  0  0
 31 34  1  0  0  0
 16 18  1  0  0  0
 16 19  1  0  0  0
M  END
> <minimizedAffinity>
-9.45109

> <CNNscore>
0.3608878851

> <CNNaffinity>
6.7334618568

> <CNN_VS>
2.4300248623

> <CNNaffinity_variance>
0.0811339021

$$$$
[H]O[C@]1(C#Cc2c([H])c([H])c3c(c2[H])-c2nc(C(=O)N([H])[H])c(C(F)(F)F)n2C([H])([H])C([H])([H])O3)C(=O)N(C([H])([H])[H])C([H])([H])C1([H])[H]


 34 37  0  0  0  0  0  0  0  0999 V2000
   42.6546   13.7676   -7.6586 C   0  0  0  0  0  0  0  0  0  0  0  0
   43.0740   14.0000   -6.3707 C   0  0  0  0  0  0  0  0  0  0  0  0
   42.2201   14.5461   -5.4120 C   0  0  0  0  0  0  0  0  0  0  0  0
   40.9407   14.8614   -5.7421 C   0  0  0  0  0  0  0  0  0  0  0  0
   40.1537   15.4062   -4.7059 O   0  0  0  0  0  0  0  0  0  0  0  0
   38.7945   15.0995   -4.5266 C   0  0  0  0  0  0  0  0  0  0  0  0
   37.8430   15.7003   -5.5212 C   0  0  0  0  0  0  0  0  0  0  0  0
   38.0918   15.4170   -6.9056 N   0  0  0  0  0  0  0  0  0  0  0  0
   39.1679   14.9487   -7.5578 C   0  0  0  0  0  0  0  0  0  0  0  0
   38.8889   14.8193   -8.8552 N   0  0  0  0  0  0  0  0  0  0  0  0
   37.5862   15.2200   -9.0522 C   0  0  0  0  0  0  0  0  0  0  0  0
   37.0955   15.5944   -7.8307 C   0  0  0  0  0  0  0  0  0  0  0  0
   40.5116   14.6362   -7.0191 C   0  0  0  0  0  0  0  0  0  0  0  0
   41.3353   14.1026   -7.9660 C   0  0  0  0  0  0  0  0  0  0  0  0
   37.0099   15.1781  -10.3844 C   0  0  0  0  0  0  0  0  0  0  0  0
   37.2225   16.0316  -11.4708 N   0  0  0  0  0  0  0  0  0  0  0  0
   36.1663   14.2244  -10.6485 O   0  0  0  0  0  0  0  0  0  0  0  0
   37.9087   15.9064  -12.2402 H   0  0  0  0  0  0  0  0  0  0  0  0
   36.6219   16.9012  -11.5465 H   0  0  0  0  0  0  0  0  0  0  0  0
   35.7314   16.1229   -7.6200 C   0  0  0  0  0  0  0  0  0  0  0  0
   34.7920   15.1299   -7.6462 F   0  0  0  0  0  0  0  0  0  0  0  0
   35.4007   17.0288   -8.6611 F   0  0  0  0  0  0  0  0  0  0  0  0
   35.6050   16.9159   -6.4924 F   0  0  0  0  0  0  0  0  0  0  0  0
   44.2920   12.7355   -9.4368 C   0  0  0  0  0  0  0  0  0  0  0  0
   43.5493   13.2089   -8.6134 C   0  0  0  0  0  0  0  0  0  0  0  0
   45.9324   12.9376  -14.0064 C   0  0  0  0  0  0  0  0  0  0  0  0
   45.9378   12.7614  -12.5625 N   0  0  0  0  0  0  0  0  0  0  0  0
   47.1112   12.5815  -11.7442 C   0  0  0  0  0  0  0  0  0  0  0  0
   46.5941   12.7466  -10.3353 C   0  0  0  0  0  0  0  0  0  0  0  0
   45.1885   12.1801  -10.4524 C   0  0  0  0  0  0  0  0  0  0  0  0
   45.1860   10.7946  -10.4578 O   0  0  0  0  0  0  0  0  0  0  0  0
   44.7530   12.7439  -11.7549 C   0  0  0  0  0  0  0  0  0  0  0  0
   43.6370   13.1352  -12.1384 O   0  0  0  0  0  0  0  0  0  0  0  0
   44.9466   10.4853   -9.5534 H   0  0  0  0  0  0  0  0  0  0  0  0
 26 27  1  0  0  0
 27 28  1  0  0  0
 28 29  1  0  0  0
 29 30  1  0  0  0
 30 31  1  0  0  0
 30 24  1  0  0  0
 24 25  3  0  0  0
 25  1  1  0  0  0
  1  2  2  0  0  0
  2  3  1  0  0  0
  3  4  2  0  0  0
  4  5  1  0  0  0
  5  6  1  0  0  0
  6  7  1  0  0  0
  7  8  1  0  0  0
  8  9  1  0  0  0
  9 10  2  0  0  0
 10 11  1  0  0  0
 11 15  1  0  0  0
 15 16  1  0  0  0
 15 17  2  0  0  0
 11 12  2  0  0  0
 12 20  1  0  0  0
 20 21  1  0  0  0
 20 22  1  0  0  0
 20 23  1  0  0  0
  9 13  1  0  0  0
 13 14  2  0  0  0
 30 32  1  0  0  0
 32 33  2  0  0  0
 32 27  1  0  0  0
 14  1  1  0  0  0
 13  4  1  0  0  0
 12  8  1  0  0  0
 31 34  1  0  0  0
 16 18  1  0  0  0
 16 19  1  0  0  0
M  END
> <minimizedAffinity>
-5.64336

> <CNNscore>
0.3525125086

> <CNNaffinity>
5.2509241104

> <CNN_VS>
1.8510164022

> <CNNaffinity_variance>
0.5204547048

$$$$
[H]O[C@]1(C#Cc2c([H])c([H])c3c(c2[H])-c2nc(C(=O)N([H])[H])c(C(F)(F)F)n2C([H])([H])C([H])([H])O3)C(=O)N(C([H])([H])[H])C([H])([H])C1([H])[H]


 34 37  0  0  0  0  0  0  0  0999 V2000
   45.8284   14.3048  -12.0864 C   0  0  0  0  0  0  0  0  0  0  0  0
   46.9598   13.7067  -12.5869 C   0  0  0  0  0  0  0  0  0  0  0  0
   46.9332   12.9698  -13.7712 C   0  0  0  0  0  0  0  0  0  0  0  0
   45.7700   12.8300  -14.4588 C   0  0  0  0  0  0  0  0  0  0  0  0
   45.8430   12.0694  -15.6445 O   0  0  0  0  0  0  0  0  0  0  0  0
   45.1341   12.3929  -16.8135 C   0  0  0  0  0  0  0  0  0  0  0  0
   43.6538   12.1412  -16.7817 C   0  0  0  0  0  0  0  0  0  0  0  0
   42.9133   12.7764  -15.7295 N   0  0  0  0  0  0  0  0  0  0  0  0
   43.2856   13.3423  -14.5703 C   0  0  0  0  0  0  0  0  0  0  0  0
   42.2166   13.8360  -13.9448 N   0  0  0  0  0  0  0  0  0  0  0  0
   41.1111   13.5793  -14.7247 C   0  0  0  0  0  0  0  0  0  0  0  0
   41.5534   12.9150  -15.8365 C   0  0  0  0  0  0  0  0  0  0  0  0
   44.6380   13.4188  -13.9716 C   0  0  0  0  0  0  0  0  0  0  0  0
   44.6497   14.1423  -12.8156 C   0  0  0  0  0  0  0  0  0  0  0  0
   39.7978   14.0155  -14.2845 C   0  0  0  0  0  0  0  0  0  0  0  0
   38.7807   13.2833  -13.6654 N   0  0  0  0  0  0  0  0  0  0  0  0
   39.4790   15.2616  -14.4759 O   0  0  0  0  0  0  0  0  0  0  0  0
   38.6083   13.1902  -12.6455 H   0  0  0  0  0  0  0  0  0  0  0  0
   38.0902   12.7689  -14.2829 H   0  0  0  0  0  0  0  0  0  0  0  0
   40.6632   12.4280  -16.9112 C   0  0  0  0  0  0  0  0  0  0  0  0
   39.6526   11.6493  -16.4200 F   0  0  0  0  0  0  0  0  0  0  0  0
   41.4000   11.6217  -17.8172 F   0  0  0  0  0  0  0  0  0  0  0  0
   40.1815   13.4290  -17.7372 F   0  0  0  0  0  0  0  0  0  0  0  0
   45.9375   15.6641   -9.8394 C   0  0  0  0  0  0  0  0  0  0  0  0
   45.8880   15.0504  -10.8760 C   0  0  0  0  0  0  0  0  0  0  0  0
   48.2393   19.0229   -7.1873 C   0  0  0  0  0  0  0  0  0  0  0  0
   47.1496   18.2325   -7.7385 N   0  0  0  0  0  0  0  0  0  0  0  0
   45.7446   18.4919   -7.5455 C   0  0  0  0  0  0  0  0  0  0  0  0
   45.0718   17.5848   -8.5475 C   0  0  0  0  0  0  0  0  0  0  0  0
   46.0181   16.3956   -8.5737 C   0  0  0  0  0  0  0  0  0  0  0  0
   45.8444   15.5697   -7.4749 O   0  0  0  0  0  0  0  0  0  0  0  0
   47.3394   17.0723   -8.5596 C   0  0  0  0  0  0  0  0  0  0  0  0
   48.4137   16.7687   -9.1071 O   0  0  0  0  0  0  0  0  0  0  0  0
   45.2974   14.7993   -7.7543 H   0  0  0  0  0  0  0  0  0  0  0  0
 26 27  1  0  0  0
 27 28  1  0  0  0
 28 29  1  0  0  0
 29 30  1  0  0  0
 30 31  1  0  0  0
 30 24  1  0  0  0
 24 25  3  0  0  0
 25  1  1  0  0  0
  1  2  2  0  0  0
  2  3  1  0  0  0
  3  4  2  0  0  0
  4  5  1  0  0  0
  5  6  1  0  0  0
  6  7  1  0  0  0
  7  8  1  0  0  0
  8  9  1  0  0  0
  9 10  2  0  0  0
 10 11  1  0  0  0
 11 15  1  0  0  0
 15 16  1  0  0  0
 15 17  2  0  0  0
 11 12  2  0  0  0
 12 20  1  0  0  0
 20 21  1  0  0  0
 20 22  1  0  0  0
 20 23  1  0  0  0
  9 13  1  0  0  0
 13 14  2  0  0  0
 30 32  1  0  0  0
 32 33  2  0  0  0
 32 27  1  0  0  0
 14  1  1  0  0  0
 13  4  1  0  0  0
 12  8  1  0  0  0
 31 34  1  0  0  0
 16 18  1  0  0  0
 16 19  1  0  0  0
M  END
> <minimizedAffinity>
-7.43684

> <CNNscore>
0.3172231317

> <CNNaffinity>
5.5103273392

> <CNN_VS>
1.7480032444

> <CNNaffinity_variance>
0.1033535004

$$$$
[H]O[C@](C#Cc1c([H])c([H])c2c(c1[H])-c1nc(C(=O)N([H])[H])sc1[C@]([H])(C([H])([H])[H])C([H])([H])O2)(c1noc(C([H])([H])[H])c1[H])C([H])([H])[H]


 32 35  0  0  0  0  0  0  0  0999 V2000
   34.8521   11.5846  -18.3455 C   0  0  0  0  0  0  0  0  0  0  0  0
   35.3004   10.8560  -17.0676 C   0  0  0  0  0  0  0  0  0  0  0  0
   34.3039   11.0670  -16.0192 C   0  0  0  0  0  0  0  0  0  0  0  0
   34.7490   11.0326  -14.6827 O   0  0  0  0  0  0  0  0  0  0  0  0
   35.6163   11.9369  -14.0449 C   0  0  0  0  0  0  0  0  0  0  0  0
   35.2242   12.4309  -12.8454 C   0  0  0  0  0  0  0  0  0  0  0  0
   36.0376   13.3221  -12.1863 C   0  0  0  0  0  0  0  0  0  0  0  0
   37.2692   13.7551  -12.6978 C   0  0  0  0  0  0  0  0  0  0  0  0
   37.6389   13.2427  -13.9030 C   0  0  0  0  0  0  0  0  0  0  0  0
   36.8387   12.3505  -14.5732 C   0  0  0  0  0  0  0  0  0  0  0  0
   37.4349   11.8891  -15.8689 C   0  0  0  0  0  0  0  0  0  0  0  0
   38.7046   12.0700  -16.0881 N   0  0  0  0  0  0  0  0  0  0  0  0
   39.2469   11.6619  -17.2204 C   0  0  0  0  0  0  0  0  0  0  0  0
   37.9228   10.9825  -18.0432 S   0  0  0  0  0  0  0  0  0  0  0  0
   36.6963   11.2728  -16.8373 C   0  0  0  0  0  0  0  0  0  0  0  0
   40.6548   11.7651  -17.6595 C   0  0  0  0  0  0  0  0  0  0  0  0
   41.5448   12.4769  -16.8318 N   0  0  0  0  0  0  0  0  0  0  0  0
   40.9709   11.2255  -18.7186 O   0  0  0  0  0  0  0  0  0  0  0  0
   42.5662   12.2006  -16.8041 H   0  0  0  0  0  0  0  0  0  0  0  0
   41.2719   13.2827  -16.2202 H   0  0  0  0  0  0  0  0  0  0  0  0
   38.0590   14.7231  -11.9810 C   0  0  0  0  0  0  0  0  0  0  0  0
   38.7032   15.5685  -11.3588 C   0  0  0  0  0  0  0  0  0  0  0  0
   39.4194   16.5914  -10.6076 C   0  0  0  0  0  0  0  0  0  0  0  0
   40.3170   15.9170   -9.5850 C   0  0  0  0  0  0  0  0  0  0  0  0
   40.2709   17.3362  -11.4416 O   0  0  0  0  0  0  0  0  0  0  0  0
   39.7015   17.6445  -12.1908 H   0  0  0  0  0  0  0  0  0  0  0  0
   38.4985   17.4933   -9.9421 C   0  0  0  0  0  0  0  0  0  0  0  0
   37.7160   17.0869   -8.8476 C   0  0  0  0  0  0  0  0  0  0  0  0
   36.9402   18.1689   -8.4342 C   0  0  0  0  0  0  0  0  0  0  0  0
   35.9625   18.1517   -7.2886 C   0  0  0  0  0  0  0  0  0  0  0  0
   37.2530   19.1484   -9.2439 O   0  0  0  0  0  0  0  0  0  0  0  0
   38.1521   18.7704  -10.1185 N   0  0  0  0  0  0  0  0  0  0  0  0
  1  2  1  0  0  0
  2  3  1  0  0  0
  3  4  1  0  0  0
  4  5  1  0  0  0
  5  6  2  0  0  0
  6  7  1  0  0  0
  7  8  2  0  0  0
  8  9  1  0  0  0
  9 10  2  0  0  0
 10 11  1  0  0  0
 11 12  1  0  0  0
 12 13  2  0  0  0
 13 14  1  0  0  0
 14 15  1  0  0  0
 13 16  1  0  0  0
 16 17  1  0  0  0
 16 18  2  0  0  0
  8 21  1  0  0  0
 21 22  3  0  0  0
 23 22  1  0  0  0
 23 24  1  0  0  0
 23 25  1  0  0  0
 23 27  1  0  0  0
 27 28  1  0  0  0
 28 29  2  0  0  0
 29 30  1  0  0  0
 29 31  1  0  0  0
 31 32  1  0  0  0
 15  2  1  0  0  0
 32 27  2  0  0  0
 10  5  1  0  0  0
 15 11  2  0  0  0
 17 19  1  0  0  0
 17 20  1  0  0  0
 25 26  1  0  0  0
M  END
> <minimizedAffinity>
-6.55856

> <CNNscore>
0.6081093550

> <CNNaffinity>
7.0054330826

> <CNN_VS>
4.2600693703

> <CNNaffinity_variance>
0.3393347263

$$$$
[H]O[C@](C#Cc1c([H])c([H])c2c(c1[H])-c1nc(C(=O)N([H])[H])sc1[C@]([H])(C([H])([H])[H])C([H])([H])O2)(c1noc(C([H])([H])[H])c1[H])C([H])([H])[H]


 32 35  0  0  0  0  0  0  0  0999 V2000
   39.1817   11.7662  -19.9938 C   0  0  0  0  0  0  0  0  0  0  0  0
   38.9606   10.9449  -18.7126 C   0  0  0  0  0  0  0  0  0  0  0  0
   37.5259   10.7609  -18.5012 C   0  0  0  0  0  0  0  0  0  0  0  0
   37.0799   10.5973  -17.1746 O   0  0  0  0  0  0  0  0  0  0  0  0
   37.1149   11.5443  -16.1360 C   0  0  0  0  0  0  0  0  0  0  0  0
   35.9725   11.7354  -15.4324 C   0  0  0  0  0  0  0  0  0  0  0  0
   35.9574   12.6549  -14.4104 C   0  0  0  0  0  0  0  0  0  0  0  0
   37.0778   13.4184  -14.0529 C   0  0  0  0  0  0  0  0  0  0  0  0
   38.2116   13.2059  -14.7748 C   0  0  0  0  0  0  0  0  0  0  0  0
   38.2435   12.2901  -15.7975 C   0  0  0  0  0  0  0  0  0  0  0  0
   39.5889   12.1899  -16.4509 C   0  0  0  0  0  0  0  0  0  0  0  0
   40.6329   12.6697  -15.8403 N   0  0  0  0  0  0  0  0  0  0  0  0
   41.8261   12.5819  -16.3983 C   0  0  0  0  0  0  0  0  0  0  0  0
   41.4937   11.7857  -17.8636 S   0  0  0  0  0  0  0  0  0  0  0  0
   39.7698   11.6029  -17.6698 C   0  0  0  0  0  0  0  0  0  0  0  0
   43.1264   13.0531  -15.8757 C   0  0  0  0  0  0  0  0  0  0  0  0
   44.1760   13.2249  -16.7991 N   0  0  0  0  0  0  0  0  0  0  0  0
   43.2198   13.2692  -14.6685 O   0  0  0  0  0  0  0  0  0  0  0  0
   44.9110   13.9656  -16.6220 H   0  0  0  0  0  0  0  0  0  0  0  0
   44.2937   12.6636  -17.6759 H   0  0  0  0  0  0  0  0  0  0  0  0
   36.9899   14.3971  -12.9998 C   0  0  0  0  0  0  0  0  0  0  0  0
   36.9336   15.2111  -12.0773 C   0  0  0  0  0  0  0  0  0  0  0  0
   36.8969   16.1413  -10.9561 C   0  0  0  0  0  0  0  0  0  0  0  0
   38.3189   16.4460  -10.5190 C   0  0  0  0  0  0  0  0  0  0  0  0
   36.3328   17.3726  -11.3315 O   0  0  0  0  0  0  0  0  0  0  0  0
   35.4676   17.1467  -11.7570 H   0  0  0  0  0  0  0  0  0  0  0  0
   36.1426   15.5924   -9.8451 C   0  0  0  0  0  0  0  0  0  0  0  0
   35.0622   16.2792   -9.2650 C   0  0  0  0  0  0  0  0  0  0  0  0
   34.5494   15.4998   -8.2291 C   0  0  0  0  0  0  0  0  0  0  0  0
   33.3840   15.8755   -7.3519 C   0  0  0  0  0  0  0  0  0  0  0  0
   35.2910   14.4216   -8.2074 O   0  0  0  0  0  0  0  0  0  0  0  0
   36.2139   14.4635   -9.1361 N   0  0  0  0  0  0  0  0  0  0  0  0
  1  2  1  0  0  0
  2  3  1  0  0  0
  3  4  1  0  0  0
  4  5  1  0  0  0
  5  6  2  0  0  0
  6  7  1  0  0  0
  7  8  2  0  0  0
  8  9  1  0  0  0
  9 10  2  0  0  0
 10 11  1  0  0  0
 11 12  1  0  0  0
 12 13  2  0  0  0
 13 14  1  0  0  0
 14 15  1  0  0  0
 13 16  1  0  0  0
 16 17  1  0  0  0
 16 18  2  0  0  0
  8 21  1  0  0  0
 21 22  3  0  0  0
 23 22  1  0  0  0
 23 24  1  0  0  0
 23 25  1  0  0  0
 23 27  1  0  0  0
 27 28  1  0  0  0
 28 29  2  0  0  0
 29 30  1  0  0  0
 29 31  1  0  0  0
 31 32  1  0  0  0
 15  2  1  0  0  0
 32 27  2  0  0  0
 10  5  1  0  0  0
 15 11  2  0  0  0
 17 19  1  0  0  0
 17 20  1  0  0  0
 25 26  1  0  0  0
M  END
> <minimizedAffinity>
-8.93963

> <CNNscore>
0.5563626289

> <CNNaffinity>
6.9704170227

> <CNN_VS>
3.8780796528

> <CNNaffinity_variance>
0.0868371129

$$$$
[H]O[C@](C#Cc1c([H])c([H])c2c(c1[H])-c1nc(C(=O)N([H])[H])sc1[C@]([H])(C([H])([H])[H])C([H])([H])O2)(c1noc(C([H])([H])[H])c1[H])C([H])([H])[H]


 32 35  0  0  0  0  0  0  0  0999 V2000
   39.2579   11.6903  -20.1412 C   0  0  0  0  0  0  0  0  0  0  0  0
   38.9425   10.8462  -18.8950 C   0  0  0  0  0  0  0  0  0  0  0  0
   37.5053   10.5842  -18.8431 C   0  0  0  0  0  0  0  0  0  0  0  0
   36.9262   10.3844  -17.5741 O   0  0  0  0  0  0  0  0  0  0  0  0
   36.7963   11.3220  -16.5345 C   0  0  0  0  0  0  0  0  0  0  0  0
   35.5751   11.4454  -15.9599 C   0  0  0  0  0  0  0  0  0  0  0  0
   35.3987   12.3529  -14.9424 C   0  0  0  0  0  0  0  0  0  0  0  0
   36.4304   13.1714  -14.4612 C   0  0  0  0  0  0  0  0  0  0  0  0
   37.6462   13.0264  -15.0550 C   0  0  0  0  0  0  0  0  0  0  0  0
   37.8392   12.1234  -16.0713 C   0  0  0  0  0  0  0  0  0  0  0  0
   39.2515   12.1011  -16.5735 C   0  0  0  0  0  0  0  0  0  0  0  0
   40.1949   12.6298  -15.8502 N   0  0  0  0  0  0  0  0  0  0  0  0
   41.4451   12.6109  -16.2740 C   0  0  0  0  0  0  0  0  0  0  0  0
   41.3184   11.8123  -17.7700 S   0  0  0  0  0  0  0  0  0  0  0  0
   39.5961   11.5363  -17.7673 C   0  0  0  0  0  0  0  0  0  0  0  0
   42.6530   13.1456  -15.6101 C   0  0  0  0  0  0  0  0  0  0  0  0
   43.7618   13.4514  -16.4230 N   0  0  0  0  0  0  0  0  0  0  0  0
   42.6236   13.2941  -14.3895 O   0  0  0  0  0  0  0  0  0  0  0  0
   44.4170   14.2330  -16.1397 H   0  0  0  0  0  0  0  0  0  0  0  0
   43.9999   12.9550  -17.3144 H   0  0  0  0  0  0  0  0  0  0  0  0
   36.1752   14.1339  -13.4205 C   0  0  0  0  0  0  0  0  0  0  0  0
   35.9802   14.9385  -12.5086 C   0  0  0  0  0  0  0  0  0  0  0  0
   35.7856   15.8643  -11.4002 C   0  0  0  0  0  0  0  0  0  0  0  0
   36.7766   15.5326  -10.2985 C   0  0  0  0  0  0  0  0  0  0  0  0
   36.0604   17.1878  -11.7851 O   0  0  0  0  0  0  0  0  0  0  0  0
   35.5197   17.3422  -12.6003 H   0  0  0  0  0  0  0  0  0  0  0  0
   34.4304   15.7902  -10.8881 C   0  0  0  0  0  0  0  0  0  0  0  0
   33.3426   15.4355  -11.7045 C   0  0  0  0  0  0  0  0  0  0  0  0
   32.1844   15.4547  -10.9287 C   0  0  0  0  0  0  0  0  0  0  0  0
   30.7989   15.1342  -11.4250 C   0  0  0  0  0  0  0  0  0  0  0  0
   32.5768   15.8025   -9.7295 O   0  0  0  0  0  0  0  0  0  0  0  0
   33.8715   15.9985   -9.6937 N   0  0  0  0  0  0  0  0  0  0  0  0
  1  2  1  0  0  0
  2  3  1  0  0  0
  3  4  1  0  0  0
  4  5  1  0  0  0
  5  6  2  0  0  0
  6  7  1  0  0  0
  7  8  2  0  0  0
  8  9  1  0  0  0
  9 10  2  0  0  0
 10 11  1  0  0  0
 11 12  1  0  0  0
 12 13  2  0  0  0
 13 14  1  0  0  0
 14 15  1  0  0  0
 13 16  1  0  0  0
 16 17  1  0  0  0
 16 18  2  0  0  0
  8 21  1  0  0  0
 21 22  3  0  0  0
 23 22  1  0  0  0
 23 24  1  0  0  0
 23 25  1  0  0  0
 23 27  1  0  0  0
 27 28  1  0  0  0
 28 29  2  0  0  0
 29 30  1  0  0  0
 29 31  1  0  0  0
 31 32  1  0  0  0
 15  2  1  0  0  0
 32 27  2  0  0  0
 10  5  1  0  0  0
 15 11  2  0  0  0
 17 19  1  0  0  0
 17 20  1  0  0  0
 25 26  1  0  0  0
M  END
> <minimizedAffinity>
-9.35682

> <CNNscore>
0.4706876576

> <CNNaffinity>
6.9754424095

> <CNN_VS>
3.2832546234

> <CNNaffinity_variance>
0.0642443076

$$$$
[H]O[C@](C#Cc1c([H])c([H])c2c(c1[H])-c1nc(C(=O)N([H])[H])sc1[C@]([H])(C([H])([H])[H])C([H])([H])O2)(c1noc(C([H])([H])[H])c1[H])C([H])([H])[H]


 32 35  0  0  0  0  0  0  0  0999 V2000
   34.2281   11.4880  -18.0030 C   0  0  0  0  0  0  0  0  0  0  0  0
   34.7910   10.8018  -16.7472 C   0  0  0  0  0  0  0  0  0  0  0  0
   33.9330   11.1113  -15.6049 C   0  0  0  0  0  0  0  0  0  0  0  0
   34.5288   11.1206  -14.3279 O   0  0  0  0  0  0  0  0  0  0  0  0
   35.5018   12.0121  -13.8429 C   0  0  0  0  0  0  0  0  0  0  0  0
   35.2731   12.5823  -12.6349 C   0  0  0  0  0  0  0  0  0  0  0  0
   36.1945   13.4644  -12.1219 C   0  0  0  0  0  0  0  0  0  0  0  0
   37.3753   13.8122  -12.7931 C   0  0  0  0  0  0  0  0  0  0  0  0
   37.5803   13.2246  -14.0032 C   0  0  0  0  0  0  0  0  0  0  0  0
   36.6708   12.3403  -14.5287 C   0  0  0  0  0  0  0  0  0  0  0  0
   37.0921   11.7882  -15.8572 C   0  0  0  0  0  0  0  0  0  0  0  0
   38.3341   11.8970  -16.2292 N   0  0  0  0  0  0  0  0  0  0  0  0
   38.7233   11.4086  -17.3923 C   0  0  0  0  0  0  0  0  0  0  0  0
   37.2850   10.7544  -18.0209 S   0  0  0  0  0  0  0  0  0  0  0  0
   36.2205   11.1617  -16.7004 C   0  0  0  0  0  0  0  0  0  0  0  0
   40.0737   11.4225  -17.9940 C   0  0  0  0  0  0  0  0  0  0  0  0
   41.0827   12.1318  -17.3138 N   0  0  0  0  0  0  0  0  0  0  0  0
   40.2417   10.8161  -19.0508 O   0  0  0  0  0  0  0  0  0  0  0  0
   42.0880   11.8088  -17.3874 H   0  0  0  0  0  0  0  0  0  0  0  0
   40.9164   12.9792  -16.7206 H   0  0  0  0  0  0  0  0  0  0  0  0
   38.2833   14.7749  -12.2243 C   0  0  0  0  0  0  0  0  0  0  0  0
   39.0815   15.5702  -11.7272 C   0  0  0  0  0  0  0  0  0  0  0  0
   40.0579   16.4702  -11.1268 C   0  0  0  0  0  0  0  0  0  0  0  0
   41.1427   16.7740  -12.1450 C   0  0  0  0  0  0  0  0  0  0  0  0
   39.4776   17.7067  -10.7957 O   0  0  0  0  0  0  0  0  0  0  0  0
   38.6778   17.4856  -10.2553 H   0  0  0  0  0  0  0  0  0  0  0  0
   40.6444   15.8865   -9.9353 C   0  0  0  0  0  0  0  0  0  0  0  0
   39.9155   15.7325   -8.7434 C   0  0  0  0  0  0  0  0  0  0  0  0
   40.7479   15.1481   -7.7899 C   0  0  0  0  0  0  0  0  0  0  0  0
   40.3509   14.8132   -6.3761 C   0  0  0  0  0  0  0  0  0  0  0  0
   41.8961   14.9737   -8.3931 O   0  0  0  0  0  0  0  0  0  0  0  0
   41.8484   15.3958   -9.6323 N   0  0  0  0  0  0  0  0  0  0  0  0
  1  2  1  0  0  0
  2  3  1  0  0  0
  3  4  1  0  0  0
  4  5  1  0  0  0
  5  6  2  0  0  0
  6  7  1  0  0  0
  7  8  2  0  0  0
  8  9  1  0  0  0
  9 10  2  0  0  0
 10 11  1  0  0  0
 11 12  1  0  0  0
 12 13  2  0  0  0
 13 14  1  0  0  0
 14 15  1  0  0  0
 13 16  1  0  0  0
 16 17  1  0  0  0
 16 18  2  0  0  0
  8 21  1  0  0  0
 21 22  3  0  0  0
 23 22  1  0  0  0
 23 24  1  0  0  0
 23 25  1  0  0  0
 23 27  1  0  0  0
 27 28  1  0  0  0
 28 29  2  0  0  0
 29 30  1  0  0  0
 29 31  1  0  0  0
 31 32  1  0  0  0
 15  2  1  0  0  0
 32 27  2  0  0  0
 10  5  1  0  0  0
 15 11  2  0  0  0
 17 19  1  0  0  0
 17 20  1  0  0  0
 25 26  1  0  0  0
M  END
> <minimizedAffinity>
-6.64947

> <CNNscore>
0.4621592760

> <CNNaffinity>
6.8577322960

> <CNN_VS>
3.1693646908

> <CNNaffinity_variance>
0.3511968553

$$$$
[H]O[C@](C#Cc1c([H])c([H])c2c(c1[H])-c1nc(C(=O)N([H])[H])sc1[C@]([H])(C([H])([H])[H])C([H])([H])O2)(c1noc(C([H])([H])[H])c1[H])C([H])([H])[H]


 32 35  0  0  0  0  0  0  0  0999 V2000
   36.9422    9.9473  -17.2083 C   0  0  0  0  0  0  0  0  0  0  0  0
   37.6268   11.2658  -17.6055 C   0  0  0  0  0  0  0  0  0  0  0  0
   38.9384   10.9723  -18.1802 C   0  0  0  0  0  0  0  0  0  0  0  0
   39.9387   11.9568  -18.0539 O   0  0  0  0  0  0  0  0  0  0  0  0
   40.5535   12.4068  -16.8722 C   0  0  0  0  0  0  0  0  0  0  0  0
   41.9074   12.4636  -16.8605 C   0  0  0  0  0  0  0  0  0  0  0  0
   42.5532   12.8931  -15.7254 C   0  0  0  0  0  0  0  0  0  0  0  0
   41.8752   13.2798  -14.5606 C   0  0  0  0  0  0  0  0  0  0  0  0
   40.5165   13.2141  -14.6000 C   0  0  0  0  0  0  0  0  0  0  0  0
   39.8565   12.7890  -15.7265 C   0  0  0  0  0  0  0  0  0  0  0  0
   38.3653   12.8110  -15.5740 C   0  0  0  0  0  0  0  0  0  0  0  0
   37.8324   13.4985  -14.6064 N   0  0  0  0  0  0  0  0  0  0  0  0
   36.5205   13.5352  -14.4633 C   0  0  0  0  0  0  0  0  0  0  0  0
   35.9792   12.5579  -15.7453 S   0  0  0  0  0  0  0  0  0  0  0  0
   37.5319   12.1395  -16.4210 C   0  0  0  0  0  0  0  0  0  0  0  0
   35.7227   14.2522  -13.4458 C   0  0  0  0  0  0  0  0  0  0  0  0
   34.3433   14.4032  -13.6872 N   0  0  0  0  0  0  0  0  0  0  0  0
   36.3045   14.6751  -12.4481 O   0  0  0  0  0  0  0  0  0  0  0  0
   33.6719   14.4453  -12.8701 H   0  0  0  0  0  0  0  0  0  0  0  0
   33.9114   14.4786  -14.6388 H   0  0  0  0  0  0  0  0  0  0  0  0
   42.6078   13.6812  -13.3872 C   0  0  0  0  0  0  0  0  0  0  0  0
   43.2627   14.0337  -12.4056 C   0  0  0  0  0  0  0  0  0  0  0  0
   44.0767   14.4664  -11.2769 C   0  0  0  0  0  0  0  0  0  0  0  0
   43.2154   14.4917  -10.0265 C   0  0  0  0  0  0  0  0  0  0  0  0
   45.1146   13.5554  -11.0160 O   0  0  0  0  0  0  0  0  0  0  0  0
   45.5777   13.4292  -11.8823 H   0  0  0  0  0  0  0  0  0  0  0  0
   44.6458   15.7794  -11.5148 C   0  0  0  0  0  0  0  0  0  0  0  0
   45.3105   16.0989  -12.7113 C   0  0  0  0  0  0  0  0  0  0  0  0
   45.7404   17.4230  -12.6368 C   0  0  0  0  0  0  0  0  0  0  0  0
   46.4953   18.1550  -13.7152 C   0  0  0  0  0  0  0  0  0  0  0  0
   45.3489   17.8484  -11.4626 O   0  0  0  0  0  0  0  0  0  0  0  0
   44.7155   16.9085  -10.8060 N   0  0  0  0  0  0  0  0  0  0  0  0
  1  2  1  0  0  0
  2  3  1  0  0  0
  3  4  1  0  0  0
  4  5  1  0  0  0
  5  6  2  0  0  0
  6  7  1  0  0  0
  7  8  2  0  0  0
  8  9  1  0  0  0
  9 10  2  0  0  0
 10 11  1  0  0  0
 11 12  1  0  0  0
 12 13  2  0  0  0
 13 14  1  0  0  0
 14 15  1  0  0  0
 13 16  1  0  0  0
 16 17  1  0  0  0
 16 18  2  0  0  0
  8 21  1  0  0  0
 21 22  3  0  0  0
 23 22  1  0  0  0
 23 24  1  0  0  0
 23 25  1  0  0  0
 23 27  1  0  0  0
 27 28  1  0  0  0
 28 29  2  0  0  0
 29 30  1  0  0  0
 29 31  1  0  0  0
 31 32  1  0  0  0
 15  2  1  0  0  0
 32 27  2  0  0  0
 10  5  1  0  0  0
 15 11  2  0  0  0
 17 19  1  0  0  0
 17 20  1  0  0  0
 25 26  1  0  0  0
M  END
> <minimizedAffinity>
-7.69083

> <CNNscore>
0.4373131692

> <CNNaffinity>
6.8632459641

> <CNN_VS>
3.0013878345

> <CNNaffinity_variance>
0.5958586931

$$$$
[H]O[C@](C#Cc1c([H])c([H])c2c(c1[H])-c1nc(C(=O)N([H])[H])sc1[C@]([H])(C([H])([H])[H])C([H])([H])O2)(c1noc(C([H])([H])[H])c1[H])C([H])([H])[H]


 32 35  0  0  0  0  0  0  0  0999 V2000
   39.6160   10.5766  -17.1480 C   0  0  0  0  0  0  0  0  0  0  0  0
   39.2213   12.0621  -17.0981 C   0  0  0  0  0  0  0  0  0  0  0  0
   40.3136   12.8299  -16.5028 C   0  0  0  0  0  0  0  0  0  0  0  0
   39.9785   14.0192  -15.8253 O   0  0  0  0  0  0  0  0  0  0  0  0
   39.2359   14.1490  -14.6385 C   0  0  0  0  0  0  0  0  0  0  0  0
   39.7607   14.9268  -13.6607 C   0  0  0  0  0  0  0  0  0  0  0  0
   39.0726   15.0797  -12.4804 C   0  0  0  0  0  0  0  0  0  0  0  0
   37.8386   14.4630  -12.2299 C   0  0  0  0  0  0  0  0  0  0  0  0
   37.3342   13.6885  -13.2287 C   0  0  0  0  0  0  0  0  0  0  0  0
   38.0082   13.5269  -14.4140 C   0  0  0  0  0  0  0  0  0  0  0  0
   37.2751   12.6565  -15.3897 C   0  0  0  0  0  0  0  0  0  0  0  0
   36.0086   12.4199  -15.2083 N   0  0  0  0  0  0  0  0  0  0  0  0
   35.3463   11.6624  -16.0629 C   0  0  0  0  0  0  0  0  0  0  0  0
   36.5443   11.2444  -17.1951 S   0  0  0  0  0  0  0  0  0  0  0  0
   37.8839   12.1010  -16.4777 C   0  0  0  0  0  0  0  0  0  0  0  0
   33.9186   11.2790  -16.0426 C   0  0  0  0  0  0  0  0  0  0  0  0
   33.2597   11.2866  -14.7978 N   0  0  0  0  0  0  0  0  0  0  0  0
   33.3864   10.9764  -17.1094 O   0  0  0  0  0  0  0  0  0  0  0  0
   32.2240   11.5010  -14.7567 H   0  0  0  0  0  0  0  0  0  0  0  0
   33.7238   11.0927  -13.8787 H   0  0  0  0  0  0  0  0  0  0  0  0
   37.1843   14.6266  -10.9572 C   0  0  0  0  0  0  0  0  0  0  0  0
   36.6568   14.7585   -9.8521 C   0  0  0  0  0  0  0  0  0  0  0  0
   36.0801   14.9057   -8.5219 C   0  0  0  0  0  0  0  0  0  0  0  0
   35.9414   16.3839   -8.2034 C   0  0  0  0  0  0  0  0  0  0  0  0
   34.7812   14.3720   -8.4658 O   0  0  0  0  0  0  0  0  0  0  0  0
   34.8593   13.4516   -8.8228 H   0  0  0  0  0  0  0  0  0  0  0  0
   36.9039   14.2567   -7.5196 C   0  0  0  0  0  0  0  0  0  0  0  0
   38.2282   14.6557   -7.2698 C   0  0  0  0  0  0  0  0  0  0  0  0
   38.7496   13.8468   -6.2611 C   0  0  0  0  0  0  0  0  0  0  0  0
   40.1428   13.9473   -5.6976 C   0  0  0  0  0  0  0  0  0  0  0  0
   37.7832   13.0232   -5.9437 O   0  0  0  0  0  0  0  0  0  0  0  0
   36.7125   13.2506   -6.6633 N   0  0  0  0  0  0  0  0  0  0  0  0
  1  2  1  0  0  0
  2  3  1  0  0  0
  3  4  1  0  0  0
  4  5  1  0  0  0
  5  6  2  0  0  0
  6  7  1  0  0  0
  7  8  2  0  0  0
  8  9  1  0  0  0
  9 10  2  0  0  0
 10 11  1  0  0  0
 11 12  1  0  0  0
 12 13  2  0  0  0
 13 14  1  0  0  0
 14 15  1  0  0  0
 13 16  1  0  0  0
 16 17  1  0  0  0
 16 18  2  0  0  0
  8 21  1  0  0  0
 21 22  3  0  0  0
 23 22  1  0  0  0
 23 24  1  0  0  0
 23 25  1  0  0  0
 23 27  1  0  0  0
 27 28  1  0  0  0
 28 29  2  0  0  0
 29 30  1  0  0  0
 29 31  1  0  0  0
 31 32  1  0  0  0
 15  2  1  0  0  0
 32 27  2  0  0  0
 10  5  1  0  0  0
 15 11  2  0  0  0
 17 19  1  0  0  0
 17 20  1  0  0  0
 25 26  1  0  0  0
M  END
> <minimizedAffinity>
-9.00114

> <CNNscore>
0.4353380501

> <CNNaffinity>
6.7401580811

> <CNN_VS>
2.9342472553

> <CNNaffinity_variance>
0.0796372145

$$$$
[H]O[C@](C#Cc1c([H])c([H])c2c(c1[H])-c1nc(C(=O)N([H])[H])sc1[C@]([H])(C([H])([H])[H])C([H])([H])O2)(c1noc(C([H])([H])[H])c1[H])C([H])([H])[H]


 32 35  0  0  0  0  0  0  0  0999 V2000
   39.1287   11.9343  -20.2905 C   0  0  0  0  0  0  0  0  0  0  0  0
   38.8894   10.9618  -19.1235 C   0  0  0  0  0  0  0  0  0  0  0  0
   37.4620   10.6593  -19.0349 C   0  0  0  0  0  0  0  0  0  0  0  0
   36.9469   10.3188  -17.7682 O   0  0  0  0  0  0  0  0  0  0  0  0
   36.8459   11.1439  -16.6344 C   0  0  0  0  0  0  0  0  0  0  0  0
   35.6504   11.1779  -15.9968 C   0  0  0  0  0  0  0  0  0  0  0  0
   35.5027   11.9741  -14.8859 C   0  0  0  0  0  0  0  0  0  0  0  0
   36.5383   12.7664  -14.3704 C   0  0  0  0  0  0  0  0  0  0  0  0
   37.7279   12.7127  -15.0290 C   0  0  0  0  0  0  0  0  0  0  0  0
   37.8922   11.9213  -16.1390 C   0  0  0  0  0  0  0  0  0  0  0  0
   39.2798   11.9854  -16.7028 C   0  0  0  0  0  0  0  0  0  0  0  0
   40.2446   12.4630  -15.9721 N   0  0  0  0  0  0  0  0  0  0  0  0
   41.4738   12.5185  -16.4505 C   0  0  0  0  0  0  0  0  0  0  0  0
   41.2944   11.8708  -18.0125 S   0  0  0  0  0  0  0  0  0  0  0  0
   39.5802   11.5520  -17.9617 C   0  0  0  0  0  0  0  0  0  0  0  0
   42.6998   13.0146  -15.7899 C   0  0  0  0  0  0  0  0  0  0  0  0
   43.8581   13.1459  -16.5804 N   0  0  0  0  0  0  0  0  0  0  0  0
   42.6414   13.2851  -14.5915 O   0  0  0  0  0  0  0  0  0  0  0  0
   44.5682   13.8949  -16.3456 H   0  0  0  0  0  0  0  0  0  0  0  0
   44.0830   12.5458  -17.4093 H   0  0  0  0  0  0  0  0  0  0  0  0
   36.3117   13.6130  -13.2274 C   0  0  0  0  0  0  0  0  0  0  0  0
   36.1263   14.3085  -12.2280 C   0  0  0  0  0  0  0  0  0  0  0  0
   35.9222   15.0901  -11.0151 C   0  0  0  0  0  0  0  0  0  0  0  0
   34.6582   15.9179  -11.1667 C   0  0  0  0  0  0  0  0  0  0  0  0
   35.7121   14.2597   -9.9009 O   0  0  0  0  0  0  0  0  0  0  0  0
   36.4691   13.6212   -9.9023 H   0  0  0  0  0  0  0  0  0  0  0  0
   37.0556   15.9572  -10.7542 C   0  0  0  0  0  0  0  0  0  0  0  0
   38.3567   15.4537  -10.5839 C   0  0  0  0  0  0  0  0  0  0  0  0
   39.2170   16.5253  -10.3491 C   0  0  0  0  0  0  0  0  0  0  0  0
   40.7007   16.4151  -10.1145 C   0  0  0  0  0  0  0  0  0  0  0  0
   38.4583   17.5913  -10.3797 O   0  0  0  0  0  0  0  0  0  0  0  0
   37.2085   17.2759  -10.6133 N   0  0  0  0  0  0  0  0  0  0  0  0
  1  2  1  0  0  0
  2  3  1  0  0  0
  3  4  1  0  0  0
  4  5  1  0  0  0
  5  6  2  0  0  0
  6  7  1  0  0  0
  7  8  2  0  0  0
  8  9  1  0  0  0
  9 10  2  0  0  0
 10 11  1  0  0  0
 11 12  1  0  0  0
 12 13  2  0  0  0
 13 14  1  0  0  0
 14 15  1  0  0  0
 13 16  1  0  0  0
 16 17  1  0  0  0
 16 18  2  0  0  0
  8 21  1  0  0  0
 21 22  3  0  0  0
 23 22  1  0  0  0
 23 24  1  0  0  0
 23 25  1  0  0  0
 23 27  1  0  0  0
 27 28  1  0  0  0
 28 29  2  0  0  0
 29 30  1  0  0  0
 29 31  1  0  0  0
 31 32  1  0  0  0
 15  2  1  0  0  0
 32 27  2  0  0  0
 10  5  1  0  0  0
 15 11  2  0  0  0
 17 19  1  0  0  0
 17 20  1  0  0  0
 25 26  1  0  0  0
M  END
> <minimizedAffinity>
-8.94485

> <CNNscore>
0.4058067501

> <CNNaffinity>
6.9541616440

> <CNN_VS>
2.8220458031

> <CNNaffinity_variance>
0.0992668793

$$$$
[H]O[C@](C#Cc1c([H])c([H])c2c(c1[H])-c1nc(C(=O)N([H])[H])sc1[C@]([H])(C([H])([H])[H])C([H])([H])O2)(c1noc(C([H])([H])[H])c1[H])C([H])([H])[H]


 32 35  0  0  0  0  0  0  0  0999 V2000
   39.6242   10.5048  -17.0247 C   0  0  0  0  0  0  0  0  0  0  0  0
   39.2464   11.9955  -17.0364 C   0  0  0  0  0  0  0  0  0  0  0  0
   40.3309   12.7709  -16.4367 C   0  0  0  0  0  0  0  0  0  0  0  0
   39.9915   13.9863  -15.8096 O   0  0  0  0  0  0  0  0  0  0  0  0
   39.2177   14.1650  -14.6494 C   0  0  0  0  0  0  0  0  0  0  0  0
   39.7244   14.9699  -13.6840 C   0  0  0  0  0  0  0  0  0  0  0  0
   39.0055   15.1708  -12.5295 C   0  0  0  0  0  0  0  0  0  0  0  0
   37.7576   14.5768  -12.2934 C   0  0  0  0  0  0  0  0  0  0  0  0
   37.2718   13.7744  -13.2793 C   0  0  0  0  0  0  0  0  0  0  0  0
   37.9767   13.5648  -14.4389 C   0  0  0  0  0  0  0  0  0  0  0  0
   37.2605   12.6698  -15.4049 C   0  0  0  0  0  0  0  0  0  0  0  0
   35.9867   12.4537  -15.2516 N   0  0  0  0  0  0  0  0  0  0  0  0
   35.3394   11.6749  -16.0985 C   0  0  0  0  0  0  0  0  0  0  0  0
   36.5634   11.2051  -17.1814 S   0  0  0  0  0  0  0  0  0  0  0  0
   37.8927   12.0706  -16.4558 C   0  0  0  0  0  0  0  0  0  0  0  0
   33.9071   11.3086  -16.1057 C   0  0  0  0  0  0  0  0  0  0  0  0
   33.2549   11.2051  -14.8616 N   0  0  0  0  0  0  0  0  0  0  0  0
   33.3655   11.1157  -17.1930 O   0  0  0  0  0  0  0  0  0  0  0  0
   32.2222   11.4270  -14.7936 H   0  0  0  0  0  0  0  0  0  0  0  0
   33.7214   10.9186  -13.9683 H   0  0  0  0  0  0  0  0  0  0  0  0
   37.0700   14.7913  -11.0460 C   0  0  0  0  0  0  0  0  0  0  0  0
   36.5136   14.9673   -9.9615 C   0  0  0  0  0  0  0  0  0  0  0  0
   35.9021   15.1678   -8.6539 C   0  0  0  0  0  0  0  0  0  0  0  0
   34.4330   15.5034   -8.8409 C   0  0  0  0  0  0  0  0  0  0  0  0
   35.9377   13.9906   -7.8869 O   0  0  0  0  0  0  0  0  0  0  0  0
   36.8831   13.6961   -7.9009 H   0  0  0  0  0  0  0  0  0  0  0  0
   36.5655   16.2309   -7.9233 C   0  0  0  0  0  0  0  0  0  0  0  0
   36.6985   17.5275   -8.4492 C   0  0  0  0  0  0  0  0  0  0  0  0
   37.3765   18.3134   -7.5185 C   0  0  0  0  0  0  0  0  0  0  0  0
   37.7233   19.7684   -7.6960 C   0  0  0  0  0  0  0  0  0  0  0  0
   37.6249   17.5180   -6.5093 O   0  0  0  0  0  0  0  0  0  0  0  0
   37.1610   16.3132   -6.7313 N   0  0  0  0  0  0  0  0  0  0  0  0
  1  2  1  0  0  0
  2  3  1  0  0  0
  3  4  1  0  0  0
  4  5  1  0  0  0
  5  6  2  0  0  0
  6  7  1  0  0  0
  7  8  2  0  0  0
  8  9  1  0  0  0
  9 10  2  0  0  0
 10 11  1  0  0  0
 11 12  1  0  0  0
 12 13  2  0  0  0
 13 14  1  0  0  0
 14 15  1  0  0  0
 13 16  1  0  0  0
 16 17  1  0  0  0
 16 18  2  0  0  0
  8 21  1  0  0  0
 21 22  3  0  0  0
 23 22  1  0  0  0
 23 24  1  0  0  0
 23 25  1  0  0  0
 23 27  1  0  0  0
 27 28  1  0  0  0
 28 29  2  0  0  0
 29 30  1  0  0  0
 29 31  1  0  0  0
 31 32  1  0  0  0
 15  2  1  0  0  0
 32 27  2  0  0  0
 10  5  1  0  0  0
 15 11  2  0  0  0
 17 19  1  0  0  0
 17 20  1  0  0  0
 25 26  1  0  0  0
M  END
> <minimizedAffinity>
-8.38706

> <CNNscore>
0.3918779194

> <CNNaffinity>
6.6291337013

> <CNN_VS>
2.5978112221

> <CNNaffinity_variance>
0.1187680960

$$$$
[H]O[C@](C#Cc1c([H])c([H])c2c(c1[H])-c1nc(C(=O)N([H])[H])sc1[C@]([H])(C([H])([H])[H])C([H])([H])O2)(c1noc(C([H])([H])[H])c1[H])C([H])([H])[H]


 32 35  0  0  0  0  0  0  0  0999 V2000
   35.6238    9.6734  -16.7235 C   0  0  0  0  0  0  0  0  0  0  0  0
   36.2656   10.8655  -17.4526 C   0  0  0  0  0  0  0  0  0  0  0  0
   37.3559   10.3818  -18.2978 C   0  0  0  0  0  0  0  0  0  0  0  0
   38.4174   11.2702  -18.5614 O   0  0  0  0  0  0  0  0  0  0  0  0
   39.3515   11.7848  -17.6452 C   0  0  0  0  0  0  0  0  0  0  0  0
   40.6610   11.7080  -17.9857 C   0  0  0  0  0  0  0  0  0  0  0  0
   41.6112   12.1941  -17.1192 C   0  0  0  0  0  0  0  0  0  0  0  0
   41.2929   12.7724  -15.8822 C   0  0  0  0  0  0  0  0  0  0  0  0
   39.9710   12.8377  -15.5659 C   0  0  0  0  0  0  0  0  0  0  0  0
   39.0096   12.3583  -16.4210 C   0  0  0  0  0  0  0  0  0  0  0  0
   37.6168   12.5448  -15.8988 C   0  0  0  0  0  0  0  0  0  0  0  0
   37.4060   13.3843  -14.9274 N   0  0  0  0  0  0  0  0  0  0  0  0
   36.1842   13.5665  -14.4618 C   0  0  0  0  0  0  0  0  0  0  0  0
   35.2590   12.5121  -15.4229 S   0  0  0  0  0  0  0  0  0  0  0  0
   36.5461   11.8697  -16.4095 C   0  0  0  0  0  0  0  0  0  0  0  0
   35.7338   14.4669  -13.3791 C   0  0  0  0  0  0  0  0  0  0  0  0
   34.3475   14.5698  -13.1519 N   0  0  0  0  0  0  0  0  0  0  0  0
   36.5905   15.0737  -12.7383 O   0  0  0  0  0  0  0  0  0  0  0  0
   33.9921   14.7694  -12.1751 H   0  0  0  0  0  0  0  0  0  0  0  0
   33.6144   14.4608  -13.8923 H   0  0  0  0  0  0  0  0  0  0  0  0
   42.3349   13.2263  -14.9974 C   0  0  0  0  0  0  0  0  0  0  0  0
   43.2077   13.5991  -14.2125 C   0  0  0  0  0  0  0  0  0  0  0  0
   44.2144   14.0152  -13.2444 C   0  0  0  0  0  0  0  0  0  0  0  0
   43.5782   14.0833  -11.8672 C   0  0  0  0  0  0  0  0  0  0  0  0
   45.2516   13.0717  -13.1478 O   0  0  0  0  0  0  0  0  0  0  0  0
   45.5571   12.9206  -14.0775 H   0  0  0  0  0  0  0  0  0  0  0  0
   44.7770   15.3052  -13.5960 C   0  0  0  0  0  0  0  0  0  0  0  0
   44.4860   16.4703  -12.8657 C   0  0  0  0  0  0  0  0  0  0  0  0
   45.1708   17.5370  -13.4460 C   0  0  0  0  0  0  0  0  0  0  0  0
   45.1286   18.9636  -12.9645 C   0  0  0  0  0  0  0  0  0  0  0  0
   45.8217   17.0213  -14.4575 O   0  0  0  0  0  0  0  0  0  0  0  0
   45.6025   15.7333  -14.5539 N   0  0  0  0  0  0  0  0  0  0  0  0
  1  2  1  0  0  0
  2  3  1  0  0  0
  3  4  1  0  0  0
  4  5  1  0  0  0
  5  6  2  0  0  0
  6  7  1  0  0  0
  7  8  2  0  0  0
  8  9  1  0  0  0
  9 10  2  0  0  0
 10 11  1  0  0  0
 11 12  1  0  0  0
 12 13  2  0  0  0
 13 14  1  0  0  0
 14 15  1  0  0  0
 13 16  1  0  0  0
 16 17  1  0  0  0
 16 18  2  0  0  0
  8 21  1  0  0  0
 21 22  3  0  0  0
 23 22  1  0  0  0
 23 24  1  0  0  0
 23 25  1  0  0  0
 23 27  1  0  0  0
 27 28  1  0  0  0
 28 29  2  0  0  0
 29 30  1  0  0  0
 29 31  1  0  0  0
 31 32  1  0  0  0
 15  2  1  0  0  0
 32 27  2  0  0  0
 10  5  1  0  0  0
 15 11  2  0  0  0
 17 19  1  0  0  0
 17 20  1  0  0  0
 25 26  1  0  0  0
M  END
> <minimizedAffinity>
-8.82823

> <CNNscore>
0.3739959598

> <CNNaffinity>
6.8911085129

> <CNN_VS>
2.5772466660

> <CNNaffinity_variance>
0.3277219534

$$$$
[H]OC(C#Cc1c([H])c2c(c([H])c1F)OC([H])([H])C([H])([H])n1c-2nc(C(=O)N([H])[H])c1C(=O)N([H])C([H])([H])[H])(C([H])([H])[H])C([H])([H])F


 33 35  0  0  0  0  0  0  0  0999 V2000
   37.6400   11.2705  -18.1570 C   0  0  0  0  0  0  0  0  0  0  0  0
   36.2722   11.1815  -18.0174 C   0  0  0  0  0  0  0  0  0  0  0  0
   35.9414   11.6032  -16.7498 N   0  0  0  0  0  0  0  0  0  0  0  0
   37.0881   11.9275  -16.1686 C   0  0  0  0  0  0  0  0  0  0  0  0
   37.1492   12.4140  -14.7675 C   0  0  0  0  0  0  0  0  0  0  0  0
   35.9380   12.9655  -14.3634 C   0  0  0  0  0  0  0  0  0  0  0  0
   35.8208   13.4611  -13.0925 C   0  0  0  0  0  0  0  0  0  0  0  0
   36.9335   13.3866  -12.2601 C   0  0  0  0  0  0  0  0  0  0  0  0
   36.7658   13.8923  -11.0083 F   0  0  0  0  0  0  0  0  0  0  0  0
   38.1317   12.8388  -12.6658 C   0  0  0  0  0  0  0  0  0  0  0  0
   38.2515   12.3405  -13.9416 C   0  0  0  0  0  0  0  0  0  0  0  0
   39.5061   11.8119  -14.2396 O   0  0  0  0  0  0  0  0  0  0  0  0
   39.9480   11.2081  -15.4713 C   0  0  0  0  0  0  0  0  0  0  0  0
   39.5059   12.0542  -16.6372 C   0  0  0  0  0  0  0  0  0  0  0  0
   38.1464   11.7432  -16.9862 N   0  0  0  0  0  0  0  0  0  0  0  0
   40.0917   11.5712  -21.1415 C   0  0  0  0  0  0  0  0  0  0  0  0
   39.3064   11.9542  -19.9611 N   0  0  0  0  0  0  0  0  0  0  0  0
   38.4683   11.0046  -19.3250 C   0  0  0  0  0  0  0  0  0  0  0  0
   38.4595    9.8334  -19.8286 O   0  0  0  0  0  0  0  0  0  0  0  0
   39.3921   12.9111  -19.5916 H   0  0  0  0  0  0  0  0  0  0  0  0
   35.3158   10.6917  -18.9940 C   0  0  0  0  0  0  0  0  0  0  0  0
   34.3603    9.6936  -18.5618 N   0  0  0  0  0  0  0  0  0  0  0  0
   35.2445   11.0578  -20.1802 O   0  0  0  0  0  0  0  0  0  0  0  0
   34.0235    9.7536  -17.5937 H   0  0  0  0  0  0  0  0  0  0  0  0
   34.0317    8.9589  -19.1890 H   0  0  0  0  0  0  0  0  0  0  0  0
   34.5756   14.0343  -12.6599 C   0  0  0  0  0  0  0  0  0  0  0  0
   33.5192   14.4984  -12.3026 C   0  0  0  0  0  0  0  0  0  0  0  0
   32.2262   15.0463  -11.8863 C   0  0  0  0  0  0  0  0  0  0  0  0
   31.6045   15.8812  -12.9981 C   0  0  0  0  0  0  0  0  0  0  0  0
   31.4055   13.9790  -11.5815 O   0  0  0  0  0  0  0  0  0  0  0  0
   31.0439   14.0353  -10.6761 H   0  0  0  0  0  0  0  0  0  0  0  0
   32.4131   15.9895  -10.7007 C   0  0  0  0  0  0  0  0  0  0  0  0
   33.4335   15.4393   -9.9366 F   0  0  0  0  0  0  0  0  0  0  0  0
 16 17  1  0  0  0
 17 18  1  0  0  0
 18 19  2  0  0  0
 18  1  1  0  0  0
  1  2  2  0  0  0
  2  3  1  0  0  0
  3  4  2  0  0  0
  4  5  1  0  0  0
  5  6  2  0  0  0
  6  7  1  0  0  0
  7 26  1  0  0  0
 26 27  3  0  0  0
 27 28  1  0  0  0
 28 29  1  0  0  0
 28 30  1  0  0  0
 28 32  1  0  0  0
 32 33  1  0  0  0
  7  8  2  0  0  0
  8  9  1  0  0  0
  8 10  1  0  0  0
 10 11  2  0  0  0
 11 12  1  0  0  0
 12 13  1  0  0  0
 13 14  1  0  0  0
 14 15  1  0  0  0
  2 21  1  0  0  0
 21 22  1  0  0  0
 21 23  2  0  0  0
 15  1  1  0  0  0
 15  4  1  0  0  0
 11  5  1  0  0  0
 17 20  1  0  0  0
 30 31  1  0  0  0
 22 24  1  0  0  0
 22 25  1  0  0  0
M  END
> <minimizedAffinity>
15.41468

> <CNNscore>
0.4974136055

> <CNNaffinity>
6.6925172806

> <CNN_VS>
3.3289492130

> <CNNaffinity_variance>
1.6976940632

$$$$
[H]OC(C#Cc1c([H])c2c(c([H])c1F)OC([H])([H])C([H])([H])n1c-2nc(C(=O)N([H])[H])c1C(=O)N([H])C([H])([H])[H])(C([H])([H])[H])C([H])([H])F


 33 35  0  0  0  0  0  0  0  0999 V2000
   35.3254   14.1450  -12.6807 C   0  0  0  0  0  0  0  0  0  0  0  0
   36.5342   14.1664  -12.0199 C   0  0  0  0  0  0  0  0  0  0  0  0
   37.4842   13.6075  -12.8441 N   0  0  0  0  0  0  0  0  0  0  0  0
   36.8425   13.2697  -13.9541 C   0  0  0  0  0  0  0  0  0  0  0  0
   37.5323   12.6094  -15.0907 C   0  0  0  0  0  0  0  0  0  0  0  0
   38.8988   12.8681  -15.0808 C   0  0  0  0  0  0  0  0  0  0  0  0
   39.6876   12.3298  -16.0621 C   0  0  0  0  0  0  0  0  0  0  0  0
   39.0737   11.5418  -17.0309 C   0  0  0  0  0  0  0  0  0  0  0  0
   39.9002   11.0309  -17.9831 F   0  0  0  0  0  0  0  0  0  0  0  0
   37.7185   11.2886  -17.0359 C   0  0  0  0  0  0  0  0  0  0  0  0
   36.9247   11.8281  -16.0515 C   0  0  0  0  0  0  0  0  0  0  0  0
   35.5733   11.5046  -16.1575 O   0  0  0  0  0  0  0  0  0  0  0  0
   34.4932   11.8968  -15.2877 C   0  0  0  0  0  0  0  0  0  0  0  0
   34.6012   13.3675  -14.9777 C   0  0  0  0  0  0  0  0  0  0  0  0
   35.5295   13.5788  -13.9006 N   0  0  0  0  0  0  0  0  0  0  0  0
   31.5462   14.6767  -12.0149 C   0  0  0  0  0  0  0  0  0  0  0  0
   32.7865   14.0392  -12.4751 N   0  0  0  0  0  0  0  0  0  0  0  0
   34.0350   14.6756  -12.2627 C   0  0  0  0  0  0  0  0  0  0  0  0
   34.0011   15.7944  -11.6525 O   0  0  0  0  0  0  0  0  0  0  0  0
   32.7367   13.1176  -12.9307 H   0  0  0  0  0  0  0  0  0  0  0  0
   36.7954   14.6433  -10.6736 C   0  0  0  0  0  0  0  0  0  0  0  0
   37.8294   15.6415  -10.4994 N   0  0  0  0  0  0  0  0  0  0  0  0
   36.2031   14.2663   -9.6472 O   0  0  0  0  0  0  0  0  0  0  0  0
   37.9492   16.3302  -11.2514 H   0  0  0  0  0  0  0  0  0  0  0  0
   38.4176   15.6643   -9.6659 H   0  0  0  0  0  0  0  0  0  0  0  0
   41.1016   12.5879  -16.0656 C   0  0  0  0  0  0  0  0  0  0  0  0
   42.2928   12.7878  -16.0563 C   0  0  0  0  0  0  0  0  0  0  0  0
   43.7390   13.0176  -16.0229 C   0  0  0  0  0  0  0  0  0  0  0  0
   44.4955   11.8092  -16.5587 C   0  0  0  0  0  0  0  0  0  0  0  0
   43.9986   14.1235  -16.8072 O   0  0  0  0  0  0  0  0  0  0  0  0
   44.4822   14.8186  -16.3208 H   0  0  0  0  0  0  0  0  0  0  0  0
   44.2072   13.2072  -14.5823 C   0  0  0  0  0  0  0  0  0  0  0  0
   43.0593   13.1627  -13.8025 F   0  0  0  0  0  0  0  0  0  0  0  0
 16 17  1  0  0  0
 17 18  1  0  0  0
 18 19  2  0  0  0
 18  1  1  0  0  0
  1  2  2  0  0  0
  2  3  1  0  0  0
  3  4  2  0  0  0
  4  5  1  0  0  0
  5  6  2  0  0  0
  6  7  1  0  0  0
  7 26  1  0  0  0
 26 27  3  0  0  0
 27 28  1  0  0  0
 28 29  1  0  0  0
 28 30  1  0  0  0
 28 32  1  0  0  0
 32 33  1  0  0  0
  7  8  2  0  0  0
  8  9  1  0  0  0
  8 10  1  0  0  0
 10 11  2  0  0  0
 11 12  1  0  0  0
 12 13  1  0  0  0
 13 14  1  0  0  0
 14 15  1  0  0  0
  2 21  1  0  0  0
 21 22  1  0  0  0
 21 23  2  0  0  0
 15  1  1  0  0  0
 15  4  1  0  0  0
 11  5  1  0  0  0
 17 20  1  0  0  0
 30 31  1  0  0  0
 22 24  1  0  0  0
 22 25  1  0  0  0
M  END
> <minimizedAffinity>
-9.80200

> <CNNscore>
0.4877009094

> <CNNaffinity>
6.7829771042

> <CNN_VS>
3.3080639839

> <CNNaffinity_variance>
0.0885103568

$$$$
[H]OC(C#Cc1c([H])c2c(c([H])c1F)OC([H])([H])C([H])([H])n1c-2nc(C(=O)N([H])[H])c1C(=O)N([H])C([H])([H])[H])(C([H])([H])[H])C([H])([H])F


 33 35  0  0  0  0  0  0  0  0999 V2000
   37.1702   12.0920  -15.7849 C   0  0  0  0  0  0  0  0  0  0  0  0
   38.2386   11.7485  -16.5842 C   0  0  0  0  0  0  0  0  0  0  0  0
   39.3629   12.3684  -16.0882 N   0  0  0  0  0  0  0  0  0  0  0  0
   38.9567   13.0547  -15.0290 C   0  0  0  0  0  0  0  0  0  0  0  0
   39.8890   13.8841  -14.2250 C   0  0  0  0  0  0  0  0  0  0  0  0
   41.2051   13.4561  -14.3637 C   0  0  0  0  0  0  0  0  0  0  0  0
   42.1968   14.1167  -13.6892 C   0  0  0  0  0  0  0  0  0  0  0  0
   41.8323   15.1957  -12.8897 C   0  0  0  0  0  0  0  0  0  0  0  0
   42.8536   15.8179  -12.2410 F   0  0  0  0  0  0  0  0  0  0  0  0
   40.5261   15.6158  -12.7558 C   0  0  0  0  0  0  0  0  0  0  0  0
   39.5288   14.9540  -13.4323 C   0  0  0  0  0  0  0  0  0  0  0  0
   38.2500   15.4664  -13.2218 O   0  0  0  0  0  0  0  0  0  0  0  0
   37.0047   15.0118  -13.7871 C   0  0  0  0  0  0  0  0  0  0  0  0
   36.9285   13.5093  -13.7020 C   0  0  0  0  0  0  0  0  0  0  0  0
   37.6326   12.9153  -14.8057 N   0  0  0  0  0  0  0  0  0  0  0  0
   33.6881   10.8954  -16.9897 C   0  0  0  0  0  0  0  0  0  0  0  0
   35.0903   11.3284  -17.0459 N   0  0  0  0  0  0  0  0  0  0  0  0
   35.7855   11.6456  -15.8522 C   0  0  0  0  0  0  0  0  0  0  0  0
   35.1296   11.5177  -14.7666 O   0  0  0  0  0  0  0  0  0  0  0  0
   35.5639   11.3748  -17.9586 H   0  0  0  0  0  0  0  0  0  0  0  0
   38.2183   10.9187  -17.7755 C   0  0  0  0  0  0  0  0  0  0  0  0
   39.2582   11.1263  -18.7611 N   0  0  0  0  0  0  0  0  0  0  0  0
   37.3783   10.0367  -18.0259 O   0  0  0  0  0  0  0  0  0  0  0  0
   40.1873   11.3931  -18.4148 H   0  0  0  0  0  0  0  0  0  0  0  0
   39.0809   11.0137  -19.7596 H   0  0  0  0  0  0  0  0  0  0  0  0
   43.5618   13.6864  -13.8222 C   0  0  0  0  0  0  0  0  0  0  0  0
   44.7105   13.3359  -13.9518 C   0  0  0  0  0  0  0  0  0  0  0  0
   46.1014   12.9145  -14.1342 C   0  0  0  0  0  0  0  0  0  0  0  0
   46.5887   12.1098  -12.9364 C   0  0  0  0  0  0  0  0  0  0  0  0
   46.1508   12.1399  -15.2757 O   0  0  0  0  0  0  0  0  0  0  0  0
   46.7970   12.4770  -15.9256 H   0  0  0  0  0  0  0  0  0  0  0  0
   47.0123   14.1362  -14.2242 C   0  0  0  0  0  0  0  0  0  0  0  0
   46.7911   14.8597  -13.0599 F   0  0  0  0  0  0  0  0  0  0  0  0
 16 17  1  0  0  0
 17 18  1  0  0  0
 18 19  2  0  0  0
 18  1  1  0  0  0
  1  2  2  0  0  0
  2  3  1  0  0  0
  3  4  2  0  0  0
  4  5  1  0  0  0
  5  6  2  0  0  0
  6  7  1  0  0  0
  7 26  1  0  0  0
 26 27  3  0  0  0
 27 28  1  0  0  0
 28 29  1  0  0  0
 28 30  1  0  0  0
 28 32  1  0  0  0
 32 33  1  0  0  0
  7  8  2  0  0  0
  8  9  1  0  0  0
  8 10  1  0  0  0
 10 11  2  0  0  0
 11 12  1  0  0  0
 12 13  1  0  0  0
 13 14  1  0  0  0
 14 15  1  0  0  0
  2 21  1  0  0  0
 21 22  1  0  0  0
 21 23  2  0  0  0
 15  1  1  0  0  0
 15  4  1  0  0  0
 11  5  1  0  0  0
 17 20  1  0  0  0
 30 31  1  0  0  0
 22 24  1  0  0  0
 22 25  1  0  0  0
M  END
> <minimizedAffinity>
-8.21620

> <CNNscore>
0.3300207555

> <CNNaffinity>
6.5456075668

> <CNN_VS>
2.1601862907

> <CNNaffinity_variance>
0.1592210829

$$$$
[H]OC(C#Cc1c([H])c2c(c([H])c1F)OC([H])([H])C([H])([H])n1c-2nc(C(=O)N([H])[H])c1C(=O)N([H])C([H])([H])[H])(C([H])([H])[H])C([H])([H])F


 33 35  0  0  0  0  0  0  0  0999 V2000
   37.3839   14.8937  -10.8112 C   0  0  0  0  0  0  0  0  0  0  0  0
   38.6695   14.9894  -11.2972 C   0  0  0  0  0  0  0  0  0  0  0  0
   39.5062   15.2814  -10.2442 N   0  0  0  0  0  0  0  0  0  0  0  0
   38.7256   15.3541   -9.1749 C   0  0  0  0  0  0  0  0  0  0  0  0
   39.2637   15.6759   -7.8294 C   0  0  0  0  0  0  0  0  0  0  0  0
   40.6173   15.3711   -7.7325 C   0  0  0  0  0  0  0  0  0  0  0  0
   41.2731   15.6102   -6.5546 C   0  0  0  0  0  0  0  0  0  0  0  0
   40.5424   16.1527   -5.5018 C   0  0  0  0  0  0  0  0  0  0  0  0
   41.2393   16.3711   -4.3540 F   0  0  0  0  0  0  0  0  0  0  0  0
   39.2008   16.4529   -5.6033 C   0  0  0  0  0  0  0  0  0  0  0  0
   38.5404   16.2137   -6.7852 C   0  0  0  0  0  0  0  0  0  0  0  0
   37.1896   16.5563   -6.7714 O   0  0  0  0  0  0  0  0  0  0  0  0
   36.2314   16.4425   -7.8419 C   0  0  0  0  0  0  0  0  0  0  0  0
   36.3674   15.0948   -8.5021 C   0  0  0  0  0  0  0  0  0  0  0  0
   37.4288   15.1240   -9.4712 N   0  0  0  0  0  0  0  0  0  0  0  0
   34.2550   14.9003  -13.0955 C   0  0  0  0  0  0  0  0  0  0  0  0
   35.4958   15.3609  -12.4592 N   0  0  0  0  0  0  0  0  0  0  0  0
   36.1561   14.5406  -11.5106 C   0  0  0  0  0  0  0  0  0  0  0  0
   35.6184   13.4097  -11.2717 O   0  0  0  0  0  0  0  0  0  0  0  0
   35.8882   16.2735  -12.7292 H   0  0  0  0  0  0  0  0  0  0  0  0
   39.1033   14.8579  -12.6766 C   0  0  0  0  0  0  0  0  0  0  0  0
   38.4813   15.7138  -13.6648 N   0  0  0  0  0  0  0  0  0  0  0  0
   39.9706   14.0672  -13.0878 O   0  0  0  0  0  0  0  0  0  0  0  0
   38.2134   16.6588  -13.3660 H   0  0  0  0  0  0  0  0  0  0  0  0
   38.3137   15.3962  -14.6199 H   0  0  0  0  0  0  0  0  0  0  0  0
   42.6720   15.3005   -6.4388 C   0  0  0  0  0  0  0  0  0  0  0  0
   43.8484   15.0520   -6.3239 C   0  0  0  0  0  0  0  0  0  0  0  0
   45.2781   14.7723   -6.1713 C   0  0  0  0  0  0  0  0  0  0  0  0
   45.5221   13.7826   -5.0396 C   0  0  0  0  0  0  0  0  0  0  0  0
   45.7242   14.2436   -7.3659 O   0  0  0  0  0  0  0  0  0  0  0  0
   46.4745   14.7463   -7.7374 H   0  0  0  0  0  0  0  0  0  0  0  0
   46.0245   16.0477   -5.7885 C   0  0  0  0  0  0  0  0  0  0  0  0
   46.8422   16.3467   -6.8700 F   0  0  0  0  0  0  0  0  0  0  0  0
 16 17  1  0  0  0
 17 18  1  0  0  0
 18 19  2  0  0  0
 18  1  1  0  0  0
  1  2  2  0  0  0
  2  3  1  0  0  0
  3  4  2  0  0  0
  4  5  1  0  0  0
  5  6  2  0  0  0
  6  7  1  0  0  0
  7 26  1  0  0  0
 26 27  3  0  0  0
 27 28  1  0  0  0
 28 29  1  0  0  0
 28 30  1  0  0  0
 28 32  1  0  0  0
 32 33  1  0  0  0
  7  8  2  0  0  0
  8  9  1  0  0  0
  8 10  1  0  0  0
 10 11  2  0  0  0
 11 12  1  0  0  0
 12 13  1  0  0  0
 13 14  1  0  0  0
 14 15  1  0  0  0
  2 21  1  0  0  0
 21 22  1  0  0  0
 21 23  2  0  0  0
 15  1  1  0  0  0
 15  4  1  0  0  0
 11  5  1  0  0  0
 17 20  1  0  0  0
 30 31  1  0  0  0
 22 24  1  0  0  0
 22 25  1  0  0  0
M  END
> <minimizedAffinity>
-2.95683

> <CNNscore>
0.3225635290

> <CNNaffinity>
5.3077735901

> <CNN_VS>
1.7120941877

> <CNNaffinity_variance>
0.8951810598

$$$$
[H]OC(C#Cc1c([H])c2c(c([H])c1F)OC([H])([H])C([H])([H])n1c-2nc(C(=O)N([H])[H])c1C(=O)N([H])C([H])([H])[H])(C([H])([H])[H])C([H])([H])F


 33 35  0  0  0  0  0  0  0  0999 V2000
   35.7838   14.3676  -12.4428 C   0  0  0  0  0  0  0  0  0  0  0  0
   36.8882   14.3138  -11.6208 C   0  0  0  0  0  0  0  0  0  0  0  0
   37.9495   13.8395  -12.3577 N   0  0  0  0  0  0  0  0  0  0  0  0
   37.4725   13.6227  -13.5757 C   0  0  0  0  0  0  0  0  0  0  0  0
   38.3207   13.0815  -14.6671 C   0  0  0  0  0  0  0  0  0  0  0  0
   39.6698   13.3311  -14.4392 C   0  0  0  0  0  0  0  0  0  0  0  0
   40.5931   12.8945  -15.3512 C   0  0  0  0  0  0  0  0  0  0  0  0
   40.1282   12.2150  -16.4731 C   0  0  0  0  0  0  0  0  0  0  0  0
   41.0846   11.8024  -17.3484 F   0  0  0  0  0  0  0  0  0  0  0  0
   38.7896   11.9704  -16.6941 C   0  0  0  0  0  0  0  0  0  0  0  0
   37.8609   12.4079  -15.7796 C   0  0  0  0  0  0  0  0  0  0  0  0
   36.5408   12.1038  -16.1067 O   0  0  0  0  0  0  0  0  0  0  0  0
   35.3460   12.4082  -15.3605 C   0  0  0  0  0  0  0  0  0  0  0  0
   35.3952   13.8379  -14.8870 C   0  0  0  0  0  0  0  0  0  0  0  0
   36.1619   13.9309  -13.6745 N   0  0  0  0  0  0  0  0  0  0  0  0
   31.9453   14.7431  -12.0780 C   0  0  0  0  0  0  0  0  0  0  0  0
   33.2450   14.1405  -12.4013 N   0  0  0  0  0  0  0  0  0  0  0  0
   34.4426   14.8578  -12.1565 C   0  0  0  0  0  0  0  0  0  0  0  0
   34.3108   16.0163  -11.6411 O   0  0  0  0  0  0  0  0  0  0  0  0
   33.2727   13.1855  -12.7842 H   0  0  0  0  0  0  0  0  0  0  0  0
   36.9542   14.6461  -10.2089 C   0  0  0  0  0  0  0  0  0  0  0  0
   38.0092   15.5365   -9.7732 N   0  0  0  0  0  0  0  0  0  0  0  0
   36.1765   14.2293   -9.3327 O   0  0  0  0  0  0  0  0  0  0  0  0
   38.2974   16.2772  -10.4233 H   0  0  0  0  0  0  0  0  0  0  0  0
   38.4516   15.4368   -8.8591 H   0  0  0  0  0  0  0  0  0  0  0  0
   41.9912   13.1446  -15.1299 C   0  0  0  0  0  0  0  0  0  0  0  0
   43.1706   13.3433  -14.9611 C   0  0  0  0  0  0  0  0  0  0  0  0
   44.6060   13.5626  -14.7690 C   0  0  0  0  0  0  0  0  0  0  0  0
   44.9319   15.0502  -14.7466 C   0  0  0  0  0  0  0  0  0  0  0  0
   44.9535   12.9845  -13.5646 O   0  0  0  0  0  0  0  0  0  0  0  0
   45.6755   12.3338  -13.6596 H   0  0  0  0  0  0  0  0  0  0  0  0
   45.3882   12.9741  -15.9403 C   0  0  0  0  0  0  0  0  0  0  0  0
   44.8933   11.6891  -16.1183 F   0  0  0  0  0  0  0  0  0  0  0  0
 16 17  1  0  0  0
 17 18  1  0  0  0
 18 19  2  0  0  0
 18  1  1  0  0  0
  1  2  2  0  0  0
  2  3  1  0  0  0
  3  4  2  0  0  0
  4  5  1  0  0  0
  5  6  2  0  0  0
  6  7  1  0  0  0
  7 26  1  0  0  0
 26 27  3  0  0  0
 27 28  1  0  0  0
 28 29  1  0  0  0
 28 30  1  0  0  0
 28 32  1  0  0  0
 32 33  1  0  0  0
  7  8  2  0  0  0
  8  9  1  0  0  0
  8 10  1  0  0  0
 10 11  2  0  0  0
 11 12  1  0  0  0
 12 13  1  0  0  0
 13 14  1  0  0  0
 14 15  1  0  0  0
  2 21  1  0  0  0
 21 22  1  0  0  0
 21 23  2  0  0  0
 15  1  1  0  0  0
 15  4  1  0  0  0
 11  5  1  0  0  0
 17 20  1  0  0  0
 30 31  1  0  0  0
 22 24  1  0  0  0
 22 25  1  0  0  0
M  END
> <minimizedAffinity>
-8.43219

> <CNNscore>
0.3135524988

> <CNNaffinity>
6.2752151489

> <CNN_VS>
1.9676094055

> <CNNaffinity_variance>
0.0664074570

$$$$
[H]OC(C#Cc1c([H])c2c(c([H])c1F)OC([H])([H])C([H])([H])n1c-2nc(C(=O)N([H])[H])c1C(=O)N([H])C([H])([H])[H])(C([H])([H])[H])C([H])([H])F


 33 35  0  0  0  0  0  0  0  0999 V2000
   35.7984   13.8405  -13.0836 C   0  0  0  0  0  0  0  0  0  0  0  0
   36.8894   13.9017  -12.2445 C   0  0  0  0  0  0  0  0  0  0  0  0
   37.9974   13.4908  -12.9499 N   0  0  0  0  0  0  0  0  0  0  0  0
   37.5600   13.1978  -14.1667 C   0  0  0  0  0  0  0  0  0  0  0  0
   38.4670   12.6919  -15.2274 C   0  0  0  0  0  0  0  0  0  0  0  0
   39.7879   13.0559  -14.9885 C   0  0  0  0  0  0  0  0  0  0  0  0
   40.7584   12.6659  -15.8721 C   0  0  0  0  0  0  0  0  0  0  0  0
   40.3683   11.9160  -16.9775 C   0  0  0  0  0  0  0  0  0  0  0  0
   41.3692   11.5538  -17.8248 F   0  0  0  0  0  0  0  0  0  0  0  0
   39.0574   11.5579  -17.2095 C   0  0  0  0  0  0  0  0  0  0  0  0
   38.0813   11.9484  -16.3234 C   0  0  0  0  0  0  0  0  0  0  0  0
   36.7954   11.5292  -16.6593 O   0  0  0  0  0  0  0  0  0  0  0  0
   35.5677   11.7604  -15.9408 C   0  0  0  0  0  0  0  0  0  0  0  0
   35.4947   13.2037  -15.5142 C   0  0  0  0  0  0  0  0  0  0  0  0
   36.2309   13.3966  -14.2945 N   0  0  0  0  0  0  0  0  0  0  0  0
   32.5890   15.6474  -11.8822 C   0  0  0  0  0  0  0  0  0  0  0  0
   34.0159   15.3584  -12.0746 N   0  0  0  0  0  0  0  0  0  0  0  0
   34.4176   14.2305  -12.8330 C   0  0  0  0  0  0  0  0  0  0  0  0
   33.4812   13.5213  -13.3282 O   0  0  0  0  0  0  0  0  0  0  0  0
   34.7150   15.9975  -11.6717 H   0  0  0  0  0  0  0  0  0  0  0  0
   36.9047   14.2830  -10.8436 C   0  0  0  0  0  0  0  0  0  0  0  0
   38.1255   14.8507  -10.3113 N   0  0  0  0  0  0  0  0  0  0  0  0
   35.9521   14.1639  -10.0532 O   0  0  0  0  0  0  0  0  0  0  0  0
   38.6860   15.4352  -10.9425 H   0  0  0  0  0  0  0  0  0  0  0  0
   38.4214   14.6803   -9.3498 H   0  0  0  0  0  0  0  0  0  0  0  0
   42.1281   13.0343  -15.6392 C   0  0  0  0  0  0  0  0  0  0  0  0
   43.2849   13.3322  -15.4600 C   0  0  0  0  0  0  0  0  0  0  0  0
   44.6949   13.6718  -15.2545 C   0  0  0  0  0  0  0  0  0  0  0  0
   45.6024   12.7198  -16.0226 C   0  0  0  0  0  0  0  0  0  0  0  0
   44.8770   14.9642  -15.7041 O   0  0  0  0  0  0  0  0  0  0  0  0
   45.2578   15.5458  -15.0182 H   0  0  0  0  0  0  0  0  0  0  0  0
   45.0634   13.5142  -13.7815 C   0  0  0  0  0  0  0  0  0  0  0  0
   43.9638   12.9189  -13.1780 F   0  0  0  0  0  0  0  0  0  0  0  0
 16 17  1  0  0  0
 17 18  1  0  0  0
 18 19  2  0  0  0
 18  1  1  0  0  0
  1  2  2  0  0  0
  2  3  1  0  0  0
  3  4  2  0  0  0
  4  5  1  0  0  0
  5  6  2  0  0  0
  6  7  1  0  0  0
  7 26  1  0  0  0
 26 27  3  0  0  0
 27 28  1  0  0  0
 28 29  1  0  0  0
 28 30  1  0  0  0
 28 32  1  0  0  0
 32 33  1  0  0  0
  7  8  2  0  0  0
  8  9  1  0  0  0
  8 10  1  0  0  0
 10 11  2  0  0  0
 11 12  1  0  0  0
 12 13  1  0  0  0
 13 14  1  0  0  0
 14 15  1  0  0  0
  2 21  1  0  0  0
 21 22  1  0  0  0
 21 23  2  0  0  0
 15  1  1  0  0  0
 15  4  1  0  0  0
 11  5  1  0  0  0
 17 20  1  0  0  0
 30 31  1  0  0  0
 22 24  1  0  0  0
 22 25  1  0  0  0
M  END
> <minimizedAffinity>
-9.06387

> <CNNscore>
0.2915617228

> <CNNaffinity>
6.3302073479

> <CNN_VS>
1.8456461430

> <CNNaffinity_variance>
0.0967949480

$$$$
[H]OC(C#Cc1c([H])c2c(c([H])c1F)OC([H])([H])C([H])([H])n1c-2nc(C(=O)N([H])[H])c1C(=O)N([H])C([H])([H])[H])(C([H])([H])[H])C([H])([H])F


 33 35  0  0  0  0  0  0  0  0999 V2000
   36.5762   13.0326  -14.4144 C   0  0  0  0  0  0  0  0  0  0  0  0
   37.4284   13.3173  -13.3699 C   0  0  0  0  0  0  0  0  0  0  0  0
   38.7203   13.1322  -13.8070 N   0  0  0  0  0  0  0  0  0  0  0  0
   38.6198   12.7488  -15.0722 C   0  0  0  0  0  0  0  0  0  0  0  0
   39.8140   12.4278  -15.8934 C   0  0  0  0  0  0  0  0  0  0  0  0
   40.9562   13.0511  -15.4022 C   0  0  0  0  0  0  0  0  0  0  0  0
   42.1506   12.8576  -16.0430 C   0  0  0  0  0  0  0  0  0  0  0  0
   42.1604   12.0370  -17.1668 C   0  0  0  0  0  0  0  0  0  0  0  0
   43.3708   11.8770  -17.7671 F   0  0  0  0  0  0  0  0  0  0  0  0
   41.0252   11.4214  -17.6494 C   0  0  0  0  0  0  0  0  0  0  0  0
   39.8248   11.6144  -17.0074 C   0  0  0  0  0  0  0  0  0  0  0  0
   38.7477   10.9433  -17.5832 O   0  0  0  0  0  0  0  0  0  0  0  0
   37.3734   10.9285  -17.1496 C   0  0  0  0  0  0  0  0  0  0  0  0
   36.9312   12.3308  -16.8200 C   0  0  0  0  0  0  0  0  0  0  0  0
   37.3364   12.6760  -15.4846 N   0  0  0  0  0  0  0  0  0  0  0  0
   32.9088   14.2562  -14.1668 C   0  0  0  0  0  0  0  0  0  0  0  0
   34.3736   14.2672  -14.0629 N   0  0  0  0  0  0  0  0  0  0  0  0
   35.1250   13.1393  -14.4776 C   0  0  0  0  0  0  0  0  0  0  0  0
   34.4581   12.1575  -14.9429 O   0  0  0  0  0  0  0  0  0  0  0  0
   34.8441   15.1112  -13.7080 H   0  0  0  0  0  0  0  0  0  0  0  0
   37.0681   13.7038  -12.0175 C   0  0  0  0  0  0  0  0  0  0  0  0
   38.0225   14.4876  -11.2621 N   0  0  0  0  0  0  0  0  0  0  0  0
   36.0014   13.4182  -11.4457 O   0  0  0  0  0  0  0  0  0  0  0  0
   38.5960   15.1604  -11.7842 H   0  0  0  0  0  0  0  0  0  0  0  0
   38.1252   14.3799  -10.2526 H   0  0  0  0  0  0  0  0  0  0  0  0
   43.3400   13.4950  -15.5477 C   0  0  0  0  0  0  0  0  0  0  0  0
   44.3285   14.0377  -15.1147 C   0  0  0  0  0  0  0  0  0  0  0  0
   45.5123   14.7121  -14.5771 C   0  0  0  0  0  0  0  0  0  0  0  0
   46.7603   13.8613  -14.7726 C   0  0  0  0  0  0  0  0  0  0  0  0
   45.6461   15.9092  -15.2512 O   0  0  0  0  0  0  0  0  0  0  0  0
   45.6743   16.6752  -14.6461 H   0  0  0  0  0  0  0  0  0  0  0  0
   45.3648   14.9098  -13.0706 C   0  0  0  0  0  0  0  0  0  0  0  0
   44.1266   15.5107  -12.8872 F   0  0  0  0  0  0  0  0  0  0  0  0
 16 17  1  0  0  0
 17 18  1  0  0  0
 18 19  2  0  0  0
 18  1  1  0  0  0
  1  2  2  0  0  0
  2  3  1  0  0  0
  3  4  2  0  0  0
  4  5  1  0  0  0
  5  6  2  0  0  0
  6  7  1  0  0  0
  7 26  1  0  0  0
 26 27  3  0  0  0
 27 28  1  0  0  0
 28 29  1  0  0  0
 28 30  1  0  0  0
 28 32  1  0  0  0
 32 33  1  0  0  0
  7  8  2  0  0  0
  8  9  1  0  0  0
  8 10  1  0  0  0
 10 11  2  0  0  0
 11 12  1  0  0  0
 12 13  1  0  0  0
 13 14  1  0  0  0
 14 15  1  0  0  0
  2 21  1  0  0  0
 21 22  1  0  0  0
 21 23  2  0  0  0
 15  1  1  0  0  0
 15  4  1  0  0  0
 11  5  1  0  0  0
 17 20  1  0  0  0
 30 31  1  0  0  0
 22 24  1  0  0  0
 22 25  1  0  0  0
M  END
> <minimizedAffinity>
-7.48380

> <CNNscore>
0.2815814614

> <CNNaffinity>
6.4513106346

> <CNN_VS>
1.8165694475

> <CNNaffinity_variance>
0.1596980095

$$$$
[H]OC(C#Cc1c([H])c2c(c([H])c1F)OC([H])([H])C([H])([H])n1c-2nc(C(=O)N([H])[H])c1C(=O)N([H])C([H])([H])[H])(C([H])([H])[H])C([H])([H])F


 33 35  0  0  0  0  0  0  0  0999 V2000
   42.0053   14.4526  -13.4593 C   0  0  0  0  0  0  0  0  0  0  0  0
   40.7139   14.8931  -13.2690 C   0  0  0  0  0  0  0  0  0  0  0  0
   39.9041   14.2576  -14.1825 N   0  0  0  0  0  0  0  0  0  0  0  0
   40.7057   13.4693  -14.8855 C   0  0  0  0  0  0  0  0  0  0  0  0
   40.2005   12.6242  -15.9964 C   0  0  0  0  0  0  0  0  0  0  0  0
   38.8417   12.3597  -15.8619 C   0  0  0  0  0  0  0  0  0  0  0  0
   38.2137   11.5935  -16.8070 C   0  0  0  0  0  0  0  0  0  0  0  0
   38.9769   11.1128  -17.8667 C   0  0  0  0  0  0  0  0  0  0  0  0
   38.3068   10.3570  -18.7781 F   0  0  0  0  0  0  0  0  0  0  0  0
   40.3236   11.3781  -17.9952 C   0  0  0  0  0  0  0  0  0  0  0  0
   40.9561   12.1474  -17.0473 C   0  0  0  0  0  0  0  0  0  0  0  0
   42.3151   12.3494  -17.2807 O   0  0  0  0  0  0  0  0  0  0  0  0
   43.2504   13.1101  -16.4911 C   0  0  0  0  0  0  0  0  0  0  0  0
   43.0685   12.7790  -15.0323 C   0  0  0  0  0  0  0  0  0  0  0  0
   41.9907   13.5536  -14.4803 N   0  0  0  0  0  0  0  0  0  0  0  0
   45.3662   15.9615  -12.2610 C   0  0  0  0  0  0  0  0  0  0  0  0
   44.1829   15.7283  -13.0989 N   0  0  0  0  0  0  0  0  0  0  0  0
   43.2109   14.7738  -12.7079 C   0  0  0  0  0  0  0  0  0  0  0  0
   43.4273   14.1667  -11.6080 O   0  0  0  0  0  0  0  0  0  0  0  0
   44.0602   16.2826  -13.9575 H   0  0  0  0  0  0  0  0  0  0  0  0
   40.2518   15.8855  -12.3151 C   0  0  0  0  0  0  0  0  0  0  0  0
   39.4736   15.4247  -11.1846 N   0  0  0  0  0  0  0  0  0  0  0  0
   40.4680   17.1081  -12.3843 O   0  0  0  0  0  0  0  0  0  0  0  0
   39.7084   14.5035  -10.7968 H   0  0  0  0  0  0  0  0  0  0  0  0
   38.7220   15.9879  -10.7858 H   0  0  0  0  0  0  0  0  0  0  0  0
   36.8099   11.3112  -16.6820 C   0  0  0  0  0  0  0  0  0  0  0  0
   35.6270   11.0820  -16.5963 C   0  0  0  0  0  0  0  0  0  0  0  0
   34.1880   10.8229  -16.5090 C   0  0  0  0  0  0  0  0  0  0  0  0
   33.6089   11.3915  -15.2202 C   0  0  0  0  0  0  0  0  0  0  0  0
   33.5942   11.4251  -17.6000 O   0  0  0  0  0  0  0  0  0  0  0  0
   33.0669   10.7966  -18.1299 H   0  0  0  0  0  0  0  0  0  0  0  0
   33.9272    9.3195  -16.4648 C   0  0  0  0  0  0  0  0  0  0  0  0
   35.1041    8.7186  -16.8910 F   0  0  0  0  0  0  0  0  0  0  0  0
 16 17  1  0  0  0
 17 18  1  0  0  0
 18 19  2  0  0  0
 18  1  1  0  0  0
  1  2  2  0  0  0
  2  3  1  0  0  0
  3  4  2  0  0  0
  4  5  1  0  0  0
  5  6  2  0  0  0
  6  7  1  0  0  0
  7 26  1  0  0  0
 26 27  3  0  0  0
 27 28  1  0  0  0
 28 29  1  0  0  0
 28 30  1  0  0  0
 28 32  1  0  0  0
 32 33  1  0  0  0
  7  8  2  0  0  0
  8  9  1  0  0  0
  8 10  1  0  0  0
 10 11  2  0  0  0
 11 12  1  0  0  0
 12 13  1  0  0  0
 13 14  1  0  0  0
 14 15  1  0  0  0
  2 21  1  0  0  0
 21 22  1  0  0  0
 21 23  2  0  0  0
 15  1  1  0  0  0
 15  4  1  0  0  0
 11  5  1  0  0  0
 17 20  1  0  0  0
 30 31  1  0  0  0
 22 24  1  0  0  0
 22 25  1  0  0  0
M  END
> <minimizedAffinity>
-8.26065

> <CNNscore>
0.2492831349

> <CNNaffinity>
6.5343375206

> <CNN_VS>
1.6289001703

> <CNNaffinity_variance>
0.1832367480

$$$$
[H]OC(C#Cc1c([H])c2c(c([H])c1F)OC([H])([H])C([H])([H])n1c-2nc(C(=O)N([H])[H])c1C(=O)N([H])C([H])([H])[H])(C([H])([H])[H])C([H])([H])F


 33 35  0  0  0  0  0  0  0  0999 V2000
   36.5389   12.1418  -15.1616 C   0  0  0  0  0  0  0  0  0  0  0  0
   36.9220   12.4134  -13.8663 C   0  0  0  0  0  0  0  0  0  0  0  0
   38.2829   12.6185  -13.8549 N   0  0  0  0  0  0  0  0  0  0  0  0
   38.6791   12.4685  -15.1112 C   0  0  0  0  0  0  0  0  0  0  0  0
   40.1046   12.5938  -15.5061 C   0  0  0  0  0  0  0  0  0  0  0  0
   40.8232   13.3603  -14.5947 C   0  0  0  0  0  0  0  0  0  0  0  0
   42.1588   13.5733  -14.8077 C   0  0  0  0  0  0  0  0  0  0  0  0
   42.7358   13.0048  -15.9393 C   0  0  0  0  0  0  0  0  0  0  0  0
   44.0644   13.2458  -16.1056 F   0  0  0  0  0  0  0  0  0  0  0  0
   42.0188   12.2458  -16.8394 C   0  0  0  0  0  0  0  0  0  0  0  0
   40.6775   12.0307  -16.6273 C   0  0  0  0  0  0  0  0  0  0  0  0
   40.0571   11.2497  -17.6006 O   0  0  0  0  0  0  0  0  0  0  0  0
   38.6782   10.8354  -17.6638 C   0  0  0  0  0  0  0  0  0  0  0  0
   37.7825   12.0089  -17.3620 C   0  0  0  0  0  0  0  0  0  0  0  0
   37.6537   12.1798  -15.9404 N   0  0  0  0  0  0  0  0  0  0  0  0
   33.4695   10.7486  -17.0711 C   0  0  0  0  0  0  0  0  0  0  0  0
   34.8494   10.8669  -16.5827 N   0  0  0  0  0  0  0  0  0  0  0  0
   35.2052   11.9196  -15.7029 C   0  0  0  0  0  0  0  0  0  0  0  0
   34.2681   12.7171  -15.3697 O   0  0  0  0  0  0  0  0  0  0  0  0
   35.5441   10.1636  -16.8694 H   0  0  0  0  0  0  0  0  0  0  0  0
   36.0786   12.4432  -12.6848 C   0  0  0  0  0  0  0  0  0  0  0  0
   36.1154   13.6314  -11.8585 N   0  0  0  0  0  0  0  0  0  0  0  0
   35.3201   11.5292  -12.3168 O   0  0  0  0  0  0  0  0  0  0  0  0
   36.2545   14.5305  -12.3343 H   0  0  0  0  0  0  0  0  0  0  0  0
   36.0082   13.5831  -10.8449 H   0  0  0  0  0  0  0  0  0  0  0  0
   42.9152   14.3633  -13.8750 C   0  0  0  0  0  0  0  0  0  0  0  0
   43.5438   15.0447  -13.1007 C   0  0  0  0  0  0  0  0  0  0  0  0
   44.3068   15.8897  -12.1792 C   0  0  0  0  0  0  0  0  0  0  0  0
   43.4973   16.1998  -10.9269 C   0  0  0  0  0  0  0  0  0  0  0  0
   45.4539   15.1999  -11.8416 O   0  0  0  0  0  0  0  0  0  0  0  0
   46.2641   15.7111  -12.0313 H   0  0  0  0  0  0  0  0  0  0  0  0
   44.6119   17.2356  -12.8317 C   0  0  0  0  0  0  0  0  0  0  0  0
   43.3788   17.7985  -13.1324 F   0  0  0  0  0  0  0  0  0  0  0  0
 16 17  1  0  0  0
 17 18  1  0  0  0
 18 19  2  0  0  0
 18  1  1  0  0  0
  1  2  2  0  0  0
  2  3  1  0  0  0
  3  4  2  0  0  0
  4  5  1  0  0  0
  5  6  2  0  0  0
  6  7  1  0  0  0
  7 26  1  0  0  0
 26 27  3  0  0  0
 27 28  1  0  0  0
 28 29  1  0  0  0
 28 30  1  0  0  0
 28 32  1  0  0  0
 32 33  1  0  0  0
  7  8  2  0  0  0
  8  9  1  0  0  0
  8 10  1  0  0  0
 10 11  2  0  0  0
 11 12  1  0  0  0
 12 13  1  0  0  0
 13 14  1  0  0  0
 14 15  1  0  0  0
  2 21  1  0  0  0
 21 22  1  0  0  0
 21 23  2  0  0  0
 15  1  1  0  0  0
 15  4  1  0  0  0
 11  5  1  0  0  0
 17 20  1  0  0  0
 30 31  1  0  0  0
 22 24  1  0  0  0
 22 25  1  0  0  0
M  END
> <minimizedAffinity>
-7.57075

> <CNNscore>
0.2168833911

> <CNNaffinity>
6.4247703552

> <CNN_VS>
1.3934259415

> <CNNaffinity_variance>
0.1798712015

$$$$
[H]OC([H])([H])[C@@]1(F)c2sc(C(=O)N([H])[H])nc2-c2c([H])c(C#C[C@@]3(O[H])C(=O)N(C([H])([H])[H])C([H])([H])C3([H])[H])c([H])c([H])c2OC1([H])[H]


 34 37  0  0  0  0  0  0  0  0999 V2000
   40.7258   15.7528  -12.6216 C   0  0  0  0  0  0  0  0  0  0  0  0
   39.9034   16.0129  -11.5453 C   0  0  0  0  0  0  0  0  0  0  0  0
   38.6560   15.4415  -11.4089 C   0  0  0  0  0  0  0  0  0  0  0  0
   38.2262   14.5702  -12.4067 C   0  0  0  0  0  0  0  0  0  0  0  0
   36.9587   14.0811  -12.1265 O   0  0  0  0  0  0  0  0  0  0  0  0
   36.3313   12.9673  -12.6955 C   0  0  0  0  0  0  0  0  0  0  0  0
   36.1770   13.0359  -14.1842 C   0  0  0  0  0  0  0  0  0  0  0  0
   35.4302   11.9062  -14.5530 F   0  0  0  0  0  0  0  0  0  0  0  0
   37.4857   12.8786  -14.9001 C   0  0  0  0  0  0  0  0  0  0  0  0
   37.7633   11.9521  -16.3099 S   0  0  0  0  0  0  0  0  0  0  0  0
   39.4439   12.2685  -16.4978 C   0  0  0  0  0  0  0  0  0  0  0  0
   39.6874   13.0653  -15.4675 N   0  0  0  0  0  0  0  0  0  0  0  0
   38.7357   13.3875  -14.6547 C   0  0  0  0  0  0  0  0  0  0  0  0
   39.0155   14.2828  -13.4983 C   0  0  0  0  0  0  0  0  0  0  0  0
   40.2492   14.8826  -13.5795 C   0  0  0  0  0  0  0  0  0  0  0  0
   40.3282   11.7663  -17.5386 C   0  0  0  0  0  0  0  0  0  0  0  0
   41.6816   12.1463  -17.5431 N   0  0  0  0  0  0  0  0  0  0  0  0
   39.8774   11.0072  -18.4121 O   0  0  0  0  0  0  0  0  0  0  0  0
   42.0203   13.1250  -17.3403 H   0  0  0  0  0  0  0  0  0  0  0  0
   42.4717   11.4669  -17.7535 H   0  0  0  0  0  0  0  0  0  0  0  0
   35.4053   14.2255  -14.6547 C   0  0  0  0  0  0  0  0  0  0  0  0
   34.5626   14.7774  -13.7247 O   0  0  0  0  0  0  0  0  0  0  0  0
   33.6513   14.8379  -14.0893 H   0  0  0  0  0  0  0  0  0  0  0  0
   43.1053   16.8926  -12.7647 C   0  0  0  0  0  0  0  0  0  0  0  0
   42.0148   16.3826  -12.7017 C   0  0  0  0  0  0  0  0  0  0  0  0
   47.6641   16.6950  -11.1204 C   0  0  0  0  0  0  0  0  0  0  0  0
   46.4266   16.6437  -11.8798 N   0  0  0  0  0  0  0  0  0  0  0  0
   46.2714   15.9555  -13.1439 C   0  0  0  0  0  0  0  0  0  0  0  0
   45.3058   16.8594  -13.8812 C   0  0  0  0  0  0  0  0  0  0  0  0
   44.4273   17.4845  -12.8356 C   0  0  0  0  0  0  0  0  0  0  0  0
   44.3731   18.8745  -12.9848 O   0  0  0  0  0  0  0  0  0  0  0  0
   45.1671   17.2178  -11.5788 C   0  0  0  0  0  0  0  0  0  0  0  0
   44.7646   17.4540  -10.4113 O   0  0  0  0  0  0  0  0  0  0  0  0
   43.4963   19.1538  -13.3033 H   0  0  0  0  0  0  0  0  0  0  0  0
 26 27  1  0  0  0
 27 28  1  0  0  0
 28 29  1  0  0  0
 29 30  1  0  0  0
 30 31  1  0  0  0
 30 24  1  0  0  0
 24 25  3  0  0  0
 25  1  1  0  0  0
  1  2  2  0  0  0
  2  3  1  0  0  0
  3  4  2  0  0  0
  4  5  1  0  0  0
  5  6  1  0  0  0
  6  7  1  0  0  0
  7  8  1  0  0  0
  7 21  1  0  0  0
 21 22  1  0  0  0
  7  9  1  0  0  0
  9 10  1  0  0  0
 10 11  1  0  0  0
 11 12  2  0  0  0
 12 13  1  0  0  0
 13 14  1  0  0  0
 14 15  2  0  0  0
 11 16  1  0  0  0
 16 17  1  0  0  0
 16 18  2  0  0  0
 30 32  1  0  0  0
 32 33  2  0  0  0
 32 27  1  0  0  0
 15  1  1  0  0  0
 14  4  1  0  0  0
 13  9  2  0  0  0
 31 34  1  0  0  0
 22 23  1  0  0  0
 17 19  1  0  0  0
 17 20  1  0  0  0
M  END
> <minimizedAffinity>
-8.36357

> <CNNscore>
0.4224204123

> <CNNaffinity>
6.2102103233

> <CNN_VS>
2.6233196259

> <CNNaffinity_variance>
0.1158781201

$$$$
[H]OC([H])([H])[C@@]1(F)c2sc(C(=O)N([H])[H])nc2-c2c([H])c(C#C[C@@]3(O[H])C(=O)N(C([H])([H])[H])C([H])([H])C3([H])[H])c([H])c([H])c2OC1([H])[H]


 34 37  0  0  0  0  0  0  0  0999 V2000
   38.6620   14.6325  -13.1039 C   0  0  0  0  0  0  0  0  0  0  0  0
   39.9279   14.9937  -13.5156 C   0  0  0  0  0  0  0  0  0  0  0  0
   40.4708   14.5663  -14.7089 C   0  0  0  0  0  0  0  0  0  0  0  0
   39.6961   13.7381  -15.5172 C   0  0  0  0  0  0  0  0  0  0  0  0
   40.3781   13.3962  -16.6757 O   0  0  0  0  0  0  0  0  0  0  0  0
   39.8415   12.8651  -17.8538 C   0  0  0  0  0  0  0  0  0  0  0  0
   39.1193   11.5647  -17.6749 C   0  0  0  0  0  0  0  0  0  0  0  0
   38.7629   11.1343  -18.9625 F   0  0  0  0  0  0  0  0  0  0  0  0
   37.8147   11.7324  -16.9539 C   0  0  0  0  0  0  0  0  0  0  0  0
   36.3365   10.9676  -17.3449 S   0  0  0  0  0  0  0  0  0  0  0  0
   35.3593   11.6487  -16.1034 C   0  0  0  0  0  0  0  0  0  0  0  0
   36.2278   12.4203  -15.4663 N   0  0  0  0  0  0  0  0  0  0  0  0
   37.4558   12.4841  -15.8640 C   0  0  0  0  0  0  0  0  0  0  0  0
   38.4272   13.3533  -15.1444 C   0  0  0  0  0  0  0  0  0  0  0  0
   37.9397   13.8110  -13.9437 C   0  0  0  0  0  0  0  0  0  0  0  0
   33.9454   11.4077  -15.8574 C   0  0  0  0  0  0  0  0  0  0  0  0
   33.3579   11.8741  -14.6685 N   0  0  0  0  0  0  0  0  0  0  0  0
   33.2728   10.7923  -16.7007 O   0  0  0  0  0  0  0  0  0  0  0  0
   33.8181   11.8154  -13.7205 H   0  0  0  0  0  0  0  0  0  0  0  0
   32.3960   12.3254  -14.6377 H   0  0  0  0  0  0  0  0  0  0  0  0
   39.9649   10.4830  -17.0861 C   0  0  0  0  0  0  0  0  0  0  0  0
   41.3171   10.6991  -17.1548 O   0  0  0  0  0  0  0  0  0  0  0  0
   41.7592    9.9344  -17.5869 H   0  0  0  0  0  0  0  0  0  0  0  0
   37.7231   15.4995  -10.7914 C   0  0  0  0  0  0  0  0  0  0  0  0
   38.1571   15.1138  -11.8478 C   0  0  0  0  0  0  0  0  0  0  0  0
   34.5450   14.5629   -7.2491 C   0  0  0  0  0  0  0  0  0  0  0  0
   35.7107   14.7574   -8.0940 N   0  0  0  0  0  0  0  0  0  0  0  0
   37.0381   14.2729   -7.7794 C   0  0  0  0  0  0  0  0  0  0  0  0
   37.9177   15.3734   -8.3346 C   0  0  0  0  0  0  0  0  0  0  0  0
   37.1890   15.9426   -9.5179 C   0  0  0  0  0  0  0  0  0  0  0  0
   37.1069   17.3370   -9.4394 O   0  0  0  0  0  0  0  0  0  0  0  0
   35.8120   15.4226   -9.3405 C   0  0  0  0  0  0  0  0  0  0  0  0
   34.8598   15.5387  -10.1534 O   0  0  0  0  0  0  0  0  0  0  0  0
   37.6789   17.7549  -10.1076 H   0  0  0  0  0  0  0  0  0  0  0  0
 26 27  1  0  0  0
 27 28  1  0  0  0
 28 29  1  0  0  0
 29 30  1  0  0  0
 30 31  1  0  0  0
 30 24  1  0  0  0
 24 25  3  0  0  0
 25  1  1  0  0  0
  1  2  2  0  0  0
  2  3  1  0  0  0
  3  4  2  0  0  0
  4  5  1  0  0  0
  5  6  1  0  0  0
  6  7  1  0  0  0
  7  8  1  0  0  0
  7 21  1  0  0  0
 21 22  1  0  0  0
  7  9  1  0  0  0
  9 10  1  0  0  0
 10 11  1  0  0  0
 11 12  2  0  0  0
 12 13  1  0  0  0
 13 14  1  0  0  0
 14 15  2  0  0  0
 11 16  1  0  0  0
 16 17  1  0  0  0
 16 18  2  0  0  0
 30 32  1  0  0  0
 32 33  2  0  0  0
 32 27  1  0  0  0
 15  1  1  0  0  0
 14  4  1  0  0  0
 13  9  2  0  0  0
 31 34  1  0  0  0
 22 23  1  0  0  0
 17 19  1  0  0  0
 17 20  1  0  0  0
M  END
> <minimizedAffinity>
-6.26608

> <CNNscore>
0.3326097429

> <CNNaffinity>
6.5926346779

> <CNN_VS>
2.1927745342

> <CNNaffinity_variance>
0.2499043941

$$$$
[H]OC([H])([H])[C@@]1(F)c2sc(C(=O)N([H])[H])nc2-c2c([H])c(C#C[C@@]3(O[H])C(=O)N(C([H])([H])[H])C([H])([H])C3([H])[H])c([H])c([H])c2OC1([H])[H]


 34 37  0  0  0  0  0  0  0  0999 V2000
   36.3237   13.3519  -14.2372 C   0  0  0  0  0  0  0  0  0  0  0  0
   35.1765   12.7037  -14.6452 C   0  0  0  0  0  0  0  0  0  0  0  0
   35.1648   11.8000  -15.6866 C   0  0  0  0  0  0  0  0  0  0  0  0
   36.3676   11.5441  -16.3404 C   0  0  0  0  0  0  0  0  0  0  0  0
   36.1920   10.6184  -17.3585 O   0  0  0  0  0  0  0  0  0  0  0  0
   37.1810    9.8768  -18.0142 C   0  0  0  0  0  0  0  0  0  0  0  0
   38.2265   10.7048  -18.6967 C   0  0  0  0  0  0  0  0  0  0  0  0
   39.0492    9.8032  -19.3898 F   0  0  0  0  0  0  0  0  0  0  0  0
   39.1415   11.3838  -17.7212 C   0  0  0  0  0  0  0  0  0  0  0  0
   40.8391   11.5319  -17.8600 S   0  0  0  0  0  0  0  0  0  0  0  0
   41.1403   12.4008  -16.4060 C   0  0  0  0  0  0  0  0  0  0  0  0
   39.9200   12.5234  -15.9046 N   0  0  0  0  0  0  0  0  0  0  0  0
   38.9052   12.0289  -16.5339 C   0  0  0  0  0  0  0  0  0  0  0  0
   37.5362   12.1693  -15.9653 C   0  0  0  0  0  0  0  0  0  0  0  0
   37.4858   13.0603  -14.9202 C   0  0  0  0  0  0  0  0  0  0  0  0
   42.4247   12.8611  -15.8998 C   0  0  0  0  0  0  0  0  0  0  0  0
   42.4632   13.7908  -14.8460 N   0  0  0  0  0  0  0  0  0  0  0  0
   43.4733   12.4276  -16.4046 O   0  0  0  0  0  0  0  0  0  0  0  0
   41.8209   14.6249  -14.7714 H   0  0  0  0  0  0  0  0  0  0  0  0
   43.1503   13.7200  -14.0380 H   0  0  0  0  0  0  0  0  0  0  0  0
   37.6763   11.6464  -19.7177 C   0  0  0  0  0  0  0  0  0  0  0  0
   38.2829   11.5922  -20.9461 O   0  0  0  0  0  0  0  0  0  0  0  0
   38.5882   12.4886  -21.2112 H   0  0  0  0  0  0  0  0  0  0  0  0
   36.2364   15.0689  -12.2309 C   0  0  0  0  0  0  0  0  0  0  0  0
   36.2655   14.2825  -13.1440 C   0  0  0  0  0  0  0  0  0  0  0  0
   34.5619   16.0189   -7.7790 C   0  0  0  0  0  0  0  0  0  0  0  0
   35.3390   15.6952   -8.9631 N   0  0  0  0  0  0  0  0  0  0  0  0
   36.6727   15.1329   -8.9367 C   0  0  0  0  0  0  0  0  0  0  0  0
   37.3199   15.7939  -10.1356 C   0  0  0  0  0  0  0  0  0  0  0  0
   36.2243   16.0214  -11.1374 C   0  0  0  0  0  0  0  0  0  0  0  0
   36.2214   17.3441  -11.5930 O   0  0  0  0  0  0  0  0  0  0  0  0
   34.9942   15.8450  -10.3288 C   0  0  0  0  0  0  0  0  0  0  0  0
   33.8135   15.8268  -10.7605 O   0  0  0  0  0  0  0  0  0  0  0  0
   36.5193   17.3912  -12.5189 H   0  0  0  0  0  0  0  0  0  0  0  0
 26 27  1  0  0  0
 27 28  1  0  0  0
 28 29  1  0  0  0
 29 30  1  0  0  0
 30 31  1  0  0  0
 30 24  1  0  0  0
 24 25  3  0  0  0
 25  1  1  0  0  0
  1  2  2  0  0  0
  2  3  1  0  0  0
  3  4  2  0  0  0
  4  5  1  0  0  0
  5  6  1  0  0  0
  6  7  1  0  0  0
  7  8  1  0  0  0
  7 21  1  0  0  0
 21 22  1  0  0  0
  7  9  1  0  0  0
  9 10  1  0  0  0
 10 11  1  0  0  0
 11 12  2  0  0  0
 12 13  1  0  0  0
 13 14  1  0  0  0
 14 15  2  0  0  0
 11 16  1  0  0  0
 16 17  1  0  0  0
 16 18  2  0  0  0
 30 32  1  0  0  0
 32 33  2  0  0  0
 32 27  1  0  0  0
 15  1  1  0  0  0
 14  4  1  0  0  0
 13  9  2  0  0  0
 31 34  1  0  0  0
 22 23  1  0  0  0
 17 19  1  0  0  0
 17 20  1  0  0  0
M  END
> <minimizedAffinity>
-7.34399

> <CNNscore>
0.2986087203

> <CNNaffinity>
6.6506958008

> <CNN_VS>
1.9859557152

> <CNNaffinity_variance>
0.3582323492

$$$$
[H]OC([H])([H])[C@@]1(F)c2sc(C(=O)N([H])[H])nc2-c2c([H])c(C#C[C@@]3(O[H])C(=O)N(C([H])([H])[H])C([H])([H])C3([H])[H])c([H])c([H])c2OC1([H])[H]


 34 37  0  0  0  0  0  0  0  0999 V2000
   38.0903   14.7007  -12.2255 C   0  0  0  0  0  0  0  0  0  0  0  0
   39.2835   15.3730  -12.3898 C   0  0  0  0  0  0  0  0  0  0  0  0
   40.0496   15.2580  -13.5304 C   0  0  0  0  0  0  0  0  0  0  0  0
   39.5848   14.4260  -14.5459 C   0  0  0  0  0  0  0  0  0  0  0  0
   40.4621   14.4166  -15.6204 O   0  0  0  0  0  0  0  0  0  0  0  0
   40.2060   13.9783  -16.9244 C   0  0  0  0  0  0  0  0  0  0  0  0
   39.7776   12.5461  -17.0240 C   0  0  0  0  0  0  0  0  0  0  0  0
   39.6864   12.2591  -18.3949 F   0  0  0  0  0  0  0  0  0  0  0  0
   38.3907   12.3284  -16.4956 C   0  0  0  0  0  0  0  0  0  0  0  0
   37.1807   11.3485  -17.2015 S   0  0  0  0  0  0  0  0  0  0  0  0
   35.9319   11.6123  -16.0479 C   0  0  0  0  0  0  0  0  0  0  0  0
   36.5209   12.4356  -15.1931 N   0  0  0  0  0  0  0  0  0  0  0  0
   37.7423   12.8106  -15.3871 C   0  0  0  0  0  0  0  0  0  0  0  0
   38.3988   13.7364  -14.4232 C   0  0  0  0  0  0  0  0  0  0  0  0
   37.6786   13.8908  -13.2630 C   0  0  0  0  0  0  0  0  0  0  0  0
   34.5889   11.0518  -16.0535 C   0  0  0  0  0  0  0  0  0  0  0  0
   33.6403   11.5123  -15.1238 N   0  0  0  0  0  0  0  0  0  0  0  0
   34.2954   10.1724  -16.8797 O   0  0  0  0  0  0  0  0  0  0  0  0
   33.8551   11.7070  -14.1090 H   0  0  0  0  0  0  0  0  0  0  0  0
   32.6256   11.7001  -15.3786 H   0  0  0  0  0  0  0  0  0  0  0  0
   40.7662   11.5815  -16.4546 C   0  0  0  0  0  0  0  0  0  0  0  0
   42.0634   12.0247  -16.4293 O   0  0  0  0  0  0  0  0  0  0  0  0
   42.6497   11.3774  -16.8811 H   0  0  0  0  0  0  0  0  0  0  0  0
   36.7221   15.0225   -9.9882 C   0  0  0  0  0  0  0  0  0  0  0  0
   37.3412   14.8657  -11.0106 C   0  0  0  0  0  0  0  0  0  0  0  0
   36.5950   17.4220   -5.7749 C   0  0  0  0  0  0  0  0  0  0  0  0
   36.3924   16.8932   -7.1128 N   0  0  0  0  0  0  0  0  0  0  0  0
   35.5799   17.5289   -8.1284 C   0  0  0  0  0  0  0  0  0  0  0  0
   34.9763   16.3384   -8.8435 C   0  0  0  0  0  0  0  0  0  0  0  0
   35.9886   15.2325   -8.7549 C   0  0  0  0  0  0  0  0  0  0  0  0
   35.4078   14.0510   -8.2816 O   0  0  0  0  0  0  0  0  0  0  0  0
   36.9094   15.7103   -7.6958 C   0  0  0  0  0  0  0  0  0  0  0  0
   37.9898   15.1701   -7.3466 O   0  0  0  0  0  0  0  0  0  0  0  0
   35.3486   13.3868   -8.9913 H   0  0  0  0  0  0  0  0  0  0  0  0
 26 27  1  0  0  0
 27 28  1  0  0  0
 28 29  1  0  0  0
 29 30  1  0  0  0
 30 31  1  0  0  0
 30 24  1  0  0  0
 24 25  3  0  0  0
 25  1  1  0  0  0
  1  2  2  0  0  0
  2  3  1  0  0  0
  3  4  2  0  0  0
  4  5  1  0  0  0
  5  6  1  0  0  0
  6  7  1  0  0  0
  7  8  1  0  0  0
  7 21  1  0  0  0
 21 22  1  0  0  0
  7  9  1  0  0  0
  9 10  1  0  0  0
 10 11  1  0  0  0
 11 12  2  0  0  0
 12 13  1  0  0  0
 13 14  1  0  0  0
 14 15  2  0  0  0
 11 16  1  0  0  0
 16 17  1  0  0  0
 16 18  2  0  0  0
 30 32  1  0  0  0
 32 33  2  0  0  0
 32 27  1  0  0  0
 15  1  1  0  0  0
 14  4  1  0  0  0
 13  9  2  0  0  0
 31 34  1  0  0  0
 22 23  1  0  0  0
 17 19  1  0  0  0
 17 20  1  0  0  0
M  END
> <minimizedAffinity>
-7.37810

> <CNNscore>
0.2611779273

> <CNNaffinity>
6.3252635002

> <CNN_VS>
1.6520192623

> <CNNaffinity_variance>
0.2046186924

$$$$
[H]OC([H])([H])[C@@]1(F)c2sc(C(=O)N([H])[H])nc2-c2c([H])c(C#C[C@@]3(O[H])C(=O)N(C([H])([H])[H])C([H])([H])C3([H])[H])c([H])c([H])c2OC1([H])[H]


 34 37  0  0  0  0  0  0  0  0999 V2000
   34.9869   15.2759  -11.7032 C   0  0  0  0  0  0  0  0  0  0  0  0
   36.1057   16.0455  -11.4611 C   0  0  0  0  0  0  0  0  0  0  0  0
   37.2547   15.9436  -12.2167 C   0  0  0  0  0  0  0  0  0  0  0  0
   37.2678   15.0222  -13.2609 C   0  0  0  0  0  0  0  0  0  0  0  0
   38.4871   15.0388  -13.9222 O   0  0  0  0  0  0  0  0  0  0  0  0
   38.7768   14.5135  -15.1864 C   0  0  0  0  0  0  0  0  0  0  0  0
   38.5136   13.0449  -15.3226 C   0  0  0  0  0  0  0  0  0  0  0  0
   38.9710   12.6818  -16.5989 F   0  0  0  0  0  0  0  0  0  0  0  0
   37.0475   12.7282  -15.3384 C   0  0  0  0  0  0  0  0  0  0  0  0
   36.2651   11.6071  -16.3649 S   0  0  0  0  0  0  0  0  0  0  0  0
   34.6563   11.8135  -15.7910 C   0  0  0  0  0  0  0  0  0  0  0  0
   34.8196   12.7294  -14.8476 N   0  0  0  0  0  0  0  0  0  0  0  0
   35.9953   13.2044  -14.5982 C   0  0  0  0  0  0  0  0  0  0  0  0
   36.1726   14.2339  -13.5372 C   0  0  0  0  0  0  0  0  0  0  0  0
   35.0559   14.3803  -12.7496 C   0  0  0  0  0  0  0  0  0  0  0  0
   33.4568   11.1328  -16.2552 C   0  0  0  0  0  0  0  0  0  0  0  0
   32.6007   10.5210  -15.3230 N   0  0  0  0  0  0  0  0  0  0  0  0
   33.2024   11.0997  -17.4703 O   0  0  0  0  0  0  0  0  0  0  0  0
   32.9354    9.9588  -14.4949 H   0  0  0  0  0  0  0  0  0  0  0  0
   31.5412   10.5811  -15.3854 H   0  0  0  0  0  0  0  0  0  0  0  0
   39.2712   12.2049  -14.3467 C   0  0  0  0  0  0  0  0  0  0  0  0
   38.5320   11.7215  -13.2981 O   0  0  0  0  0  0  0  0  0  0  0  0
   38.9556   11.9673  -12.4454 H   0  0  0  0  0  0  0  0  0  0  0  0
   32.8359   15.5481  -10.1932 C   0  0  0  0  0  0  0  0  0  0  0  0
   33.8221   15.4328  -10.8768 C   0  0  0  0  0  0  0  0  0  0  0  0
   29.0707   13.1835   -8.2548 C   0  0  0  0  0  0  0  0  0  0  0  0
   30.2998   13.9050   -8.5365 N   0  0  0  0  0  0  0  0  0  0  0  0
   31.3898   14.0607   -7.5966 C   0  0  0  0  0  0  0  0  0  0  0  0
   31.8884   15.4543   -7.9165 C   0  0  0  0  0  0  0  0  0  0  0  0
   31.6396   15.6678   -9.3821 C   0  0  0  0  0  0  0  0  0  0  0  0
   30.9681   16.8735   -9.6114 O   0  0  0  0  0  0  0  0  0  0  0  0
   30.6912   14.5793   -9.7191 C   0  0  0  0  0  0  0  0  0  0  0  0
   30.2792   14.2774  -10.8681 O   0  0  0  0  0  0  0  0  0  0  0  0
   31.5581   17.5225  -10.0345 H   0  0  0  0  0  0  0  0  0  0  0  0
 26 27  1  0  0  0
 27 28  1  0  0  0
 28 29  1  0  0  0
 29 30  1  0  0  0
 30 31  1  0  0  0
 30 24  1  0  0  0
 24 25  3  0  0  0
 25  1  1  0  0  0
  1  2  2  0  0  0
  2  3  1  0  0  0
  3  4  2  0  0  0
  4  5  1  0  0  0
  5  6  1  0  0  0
  6  7  1  0  0  0
  7  8  1  0  0  0
  7 21  1  0  0  0
 21 22  1  0  0  0
  7  9  1  0  0  0
  9 10  1  0  0  0
 10 11  1  0  0  0
 11 12  2  0  0  0
 12 13  1  0  0  0
 13 14  1  0  0  0
 14 15  2  0  0  0
 11 16  1  0  0  0
 16 17  1  0  0  0
 16 18  2  0  0  0
 30 32  1  0  0  0
 32 33  2  0  0  0
 32 27  1  0  0  0
 15  1  1  0  0  0
 14  4  1  0  0  0
 13  9  2  0  0  0
 31 34  1  0  0  0
 22 23  1  0  0  0
 17 19  1  0  0  0
 17 20  1  0  0  0
M  END
> <minimizedAffinity>
-6.34023

> <CNNscore>
0.1890489757

> <CNNaffinity>
6.2520761490

> <CNN_VS>
1.1819485426

> <CNNaffinity_variance>
0.1945615709

$$$$
[H]OC([H])([H])[C@@]1(F)c2sc(C(=O)N([H])[H])nc2-c2c([H])c(C#C[C@@]3(O[H])C(=O)N(C([H])([H])[H])C([H])([H])C3([H])[H])c([H])c([H])c2OC1([H])[H]


 34 37  0  0  0  0  0  0  0  0999 V2000
   37.4744   13.9137  -13.9207 C   0  0  0  0  0  0  0  0  0  0  0  0
   36.4362   13.2139  -14.4993 C   0  0  0  0  0  0  0  0  0  0  0  0
   36.6266   12.3257  -15.5367 C   0  0  0  0  0  0  0  0  0  0  0  0
   37.9249   12.1407  -16.0056 C   0  0  0  0  0  0  0  0  0  0  0  0
   37.9512   11.2219  -17.0445 O   0  0  0  0  0  0  0  0  0  0  0  0
   39.0640   10.5409  -17.5503 C   0  0  0  0  0  0  0  0  0  0  0  0
   40.1545   11.4307  -18.0640 C   0  0  0  0  0  0  0  0  0  0  0  0
   41.1171   10.5822  -18.6326 F   0  0  0  0  0  0  0  0  0  0  0  0
   40.8776   12.1415  -16.9586 C   0  0  0  0  0  0  0  0  0  0  0  0
   42.5668   12.3777  -16.8419 S   0  0  0  0  0  0  0  0  0  0  0  0
   42.6029   13.2400  -15.3536 C   0  0  0  0  0  0  0  0  0  0  0  0
   41.3169   13.2931  -15.0389 N   0  0  0  0  0  0  0  0  0  0  0  0
   40.4342   12.7567  -15.8156 C   0  0  0  0  0  0  0  0  0  0  0  0
   38.9905   12.8191  -15.4564 C   0  0  0  0  0  0  0  0  0  0  0  0
   38.7387   13.6914  -14.4248 C   0  0  0  0  0  0  0  0  0  0  0  0
   43.7719   13.7578  -14.6587 C   0  0  0  0  0  0  0  0  0  0  0  0
   44.8566   14.2567  -15.4008 N   0  0  0  0  0  0  0  0  0  0  0  0
   43.7987   13.7533  -13.4171 O   0  0  0  0  0  0  0  0  0  0  0  0
   45.2333   13.8002  -16.2746 H   0  0  0  0  0  0  0  0  0  0  0  0
   45.3824   15.1407  -15.1324 H   0  0  0  0  0  0  0  0  0  0  0  0
   39.7133   12.3575  -19.1495 C   0  0  0  0  0  0  0  0  0  0  0  0
   39.4807   11.7635  -20.3630 O   0  0  0  0  0  0  0  0  0  0  0  0
   40.0037   12.2127  -21.0641 H   0  0  0  0  0  0  0  0  0  0  0  0
   36.9928   15.5772  -11.9252 C   0  0  0  0  0  0  0  0  0  0  0  0
   37.2058   14.8245  -12.8423 C   0  0  0  0  0  0  0  0  0  0  0  0
   34.7788   16.1057   -7.6421 C   0  0  0  0  0  0  0  0  0  0  0  0
   35.7041   15.9358   -8.7492 N   0  0  0  0  0  0  0  0  0  0  0  0
   37.0896   15.5422   -8.6032 C   0  0  0  0  0  0  0  0  0  0  0  0
   37.7623   16.3330   -9.7056 C   0  0  0  0  0  0  0  0  0  0  0  0
   36.7511   16.4693  -10.8076 C   0  0  0  0  0  0  0  0  0  0  0  0
   36.6242   17.8011  -11.2166 O   0  0  0  0  0  0  0  0  0  0  0  0
   35.4798   16.1048  -10.1375 C   0  0  0  0  0  0  0  0  0  0  0  0
   34.3595   15.9606  -10.6900 O   0  0  0  0  0  0  0  0  0  0  0  0
   37.0038   17.9275  -12.1045 H   0  0  0  0  0  0  0  0  0  0  0  0
 26 27  1  0  0  0
 27 28  1  0  0  0
 28 29  1  0  0  0
 29 30  1  0  0  0
 30 31  1  0  0  0
 30 24  1  0  0  0
 24 25  3  0  0  0
 25  1  1  0  0  0
  1  2  2  0  0  0
  2  3  1  0  0  0
  3  4  2  0  0  0
  4  5  1  0  0  0
  5  6  1  0  0  0
  6  7  1  0  0  0
  7  8  1  0  0  0
  7 21  1  0  0  0
 21 22  1  0  0  0
  7  9  1  0  0  0
  9 10  1  0  0  0
 10 11  1  0  0  0
 11 12  2  0  0  0
 12 13  1  0  0  0
 13 14  1  0  0  0
 14 15  2  0  0  0
 11 16  1  0  0  0
 16 17  1  0  0  0
 16 18  2  0  0  0
 30 32  1  0  0  0
 32 33  2  0  0  0
 32 27  1  0  0  0
 15  1  1  0  0  0
 14  4  1  0  0  0
 13  9  2  0  0  0
 31 34  1  0  0  0
 22 23  1  0  0  0
 17 19  1  0  0  0
 17 20  1  0  0  0
M  END
> <minimizedAffinity>
-8.54650

> <CNNscore>
0.1600562483

> <CNNaffinity>
6.1467628479

> <CNN_VS>
0.9838278294

> <CNNaffinity_variance>
0.1006057039

$$$$
[H]OC([H])([H])[C@@]1(F)c2sc(C(=O)N([H])[H])nc2-c2c([H])c(C#C[C@@]3(O[H])C(=O)N(C([H])([H])[H])C([H])([H])C3([H])[H])c([H])c([H])c2OC1([H])[H]


 34 37  0  0  0  0  0  0  0  0999 V2000
   40.5210   15.8929   -8.1038 C   0  0  0  0  0  0  0  0  0  0  0  0
   40.7040   16.0622   -6.7472 C   0  0  0  0  0  0  0  0  0  0  0  0
   41.8306   15.6167   -6.0887 C   0  0  0  0  0  0  0  0  0  0  0  0
   42.8115   14.9728   -6.8388 C   0  0  0  0  0  0  0  0  0  0  0  0
   43.8758   14.5866   -6.0372 O   0  0  0  0  0  0  0  0  0  0  0  0
   45.1608   14.2162   -6.4490 C   0  0  0  0  0  0  0  0  0  0  0  0
   45.1990   13.0449   -7.3825 C   0  0  0  0  0  0  0  0  0  0  0  0
   46.5562   12.7499   -7.5852 F   0  0  0  0  0  0  0  0  0  0  0  0
   44.6749   13.3860   -8.7459 C   0  0  0  0  0  0  0  0  0  0  0  0
   45.3471   12.8978  -10.2401 S   0  0  0  0  0  0  0  0  0  0  0  0
   44.2192   13.6622  -11.2906 C   0  0  0  0  0  0  0  0  0  0  0  0
   43.3971   14.2442  -10.4297 N   0  0  0  0  0  0  0  0  0  0  0  0
   43.5961   14.1261   -9.1582 C   0  0  0  0  0  0  0  0  0  0  0  0
   42.6691   14.7828   -8.1956 C   0  0  0  0  0  0  0  0  0  0  0  0
   41.5244   15.2486   -8.7967 C   0  0  0  0  0  0  0  0  0  0  0  0
   44.2123   13.6446  -12.7457 C   0  0  0  0  0  0  0  0  0  0  0  0
   43.0281   13.3215  -13.4307 N   0  0  0  0  0  0  0  0  0  0  0  0
   45.2532   13.9152  -13.3667 O   0  0  0  0  0  0  0  0  0  0  0  0
   42.3713   12.5477  -13.1412 H   0  0  0  0  0  0  0  0  0  0  0  0
   42.7042   13.8395  -14.3006 H   0  0  0  0  0  0  0  0  0  0  0  0
   44.5763   11.8082   -6.8216 C   0  0  0  0  0  0  0  0  0  0  0  0
   44.8640   10.6524   -7.5007 O   0  0  0  0  0  0  0  0  0  0  0  0
   44.0317   10.1924   -7.7511 H   0  0  0  0  0  0  0  0  0  0  0  0
   38.3087   16.7958   -9.2315 C   0  0  0  0  0  0  0  0  0  0  0  0
   39.3223   16.3817   -8.7273 C   0  0  0  0  0  0  0  0  0  0  0  0
   34.2934   15.6428  -11.6958 C   0  0  0  0  0  0  0  0  0  0  0  0
   35.2959   16.0242  -10.7160 N   0  0  0  0  0  0  0  0  0  0  0  0
   35.0641   16.0777   -9.2880 C   0  0  0  0  0  0  0  0  0  0  0  0
   35.9120   17.2616   -8.8728 C   0  0  0  0  0  0  0  0  0  0  0  0
   37.0802   17.2984   -9.8159 C   0  0  0  0  0  0  0  0  0  0  0  0
   37.2447   18.5728  -10.3689 O   0  0  0  0  0  0  0  0  0  0  0  0
   36.6447   16.4071  -10.9176 C   0  0  0  0  0  0  0  0  0  0  0  0
   37.3423   16.0315  -11.8939 O   0  0  0  0  0  0  0  0  0  0  0  0
   38.0423   19.0036  -10.0129 H   0  0  0  0  0  0  0  0  0  0  0  0
 26 27  1  0  0  0
 27 28  1  0  0  0
 28 29  1  0  0  0
 29 30  1  0  0  0
 30 31  1  0  0  0
 30 24  1  0  0  0
 24 25  3  0  0  0
 25  1  1  0  0  0
  1  2  2  0  0  0
  2  3  1  0  0  0
  3  4  2  0  0  0
  4  5  1  0  0  0
  5  6  1  0  0  0
  6  7  1  0  0  0
  7  8  1  0  0  0
  7 21  1  0  0  0
 21 22  1  0  0  0
  7  9  1  0  0  0
  9 10  1  0  0  0
 10 11  1  0  0  0
 11 12  2  0  0  0
 12 13  1  0  0  0
 13 14  1  0  0  0
 14 15  2  0  0  0
 11 16  1  0  0  0
 16 17  1  0  0  0
 16 18  2  0  0  0
 30 32  1  0  0  0
 32 33  2  0  0  0
 32 27  1  0  0  0
 15  1  1  0  0  0
 14  4  1  0  0  0
 13  9  2  0  0  0
 31 34  1  0  0  0
 22 23  1  0  0  0
 17 19  1  0  0  0
 17 20  1  0  0  0
M  END
> <minimizedAffinity>
-5.77447

> <CNNscore>
0.1568117142

> <CNNaffinity>
5.0626754761

> <CNN_VS>
0.7938868403

> <CNNaffinity_variance>
0.1990990937

$$$$
[H]OC([H])([H])[C@@]1(F)c2sc(C(=O)N([H])[H])nc2-c2c([H])c(C#C[C@@]3(O[H])C(=O)N(C([H])([H])[H])C([H])([H])C3([H])[H])c([H])c([H])c2OC1([H])[H]


 34 37  0  0  0  0  0  0  0  0999 V2000
   42.5387   15.4333  -10.3379 C   0  0  0  0  0  0  0  0  0  0  0  0
   42.1673   16.1773  -11.4383 C   0  0  0  0  0  0  0  0  0  0  0  0
   42.6670   15.9362  -12.7006 C   0  0  0  0  0  0  0  0  0  0  0  0
   43.5815   14.8967  -12.8514 C   0  0  0  0  0  0  0  0  0  0  0  0
   43.9886   14.7814  -14.1725 O   0  0  0  0  0  0  0  0  0  0  0  0
   44.6276   13.6916  -14.7740 C   0  0  0  0  0  0  0  0  0  0  0  0
   45.9342   13.3146  -14.1453 C   0  0  0  0  0  0  0  0  0  0  0  0
   46.4751   12.2969  -14.9463 F   0  0  0  0  0  0  0  0  0  0  0  0
   45.7560   12.6841  -12.7960 C   0  0  0  0  0  0  0  0  0  0  0  0
   46.5991   11.3236  -12.1951 S   0  0  0  0  0  0  0  0  0  0  0  0
   45.8577   11.2264  -10.6456 C   0  0  0  0  0  0  0  0  0  0  0  0
   45.0097   12.2437  -10.6856 N   0  0  0  0  0  0  0  0  0  0  0  0
   44.9349   12.9875  -11.7399 C   0  0  0  0  0  0  0  0  0  0  0  0
   43.9796   14.1290  -11.7793 C   0  0  0  0  0  0  0  0  0  0  0  0
   43.4472   14.4167  -10.5454 C   0  0  0  0  0  0  0  0  0  0  0  0
   46.1273   10.2567   -9.5946 C   0  0  0  0  0  0  0  0  0  0  0  0
   45.5241   10.4126   -8.3344 N   0  0  0  0  0  0  0  0  0  0  0  0
   46.8877    9.3016   -9.8224 O   0  0  0  0  0  0  0  0  0  0  0  0
   45.4252   11.3387   -7.8381 H   0  0  0  0  0  0  0  0  0  0  0  0
   45.1187    9.5989   -7.7833 H   0  0  0  0  0  0  0  0  0  0  0  0
   46.9374   14.4216  -14.1329 C   0  0  0  0  0  0  0  0  0  0  0  0
   47.5032   14.7078  -15.3486 O   0  0  0  0  0  0  0  0  0  0  0  0
   48.4836   14.6738  -15.2805 H   0  0  0  0  0  0  0  0  0  0  0  0
   41.4976   15.9769   -7.9710 C   0  0  0  0  0  0  0  0  0  0  0  0
   41.9791   15.7382   -9.0501 C   0  0  0  0  0  0  0  0  0  0  0  0
   37.7811   15.0210   -5.0048 C   0  0  0  0  0  0  0  0  0  0  0  0
   39.0586   15.1329   -5.6874 N   0  0  0  0  0  0  0  0  0  0  0  0
   40.2170   14.3163   -5.3926 C   0  0  0  0  0  0  0  0  0  0  0  0
   41.3556   15.2919   -5.6045 C   0  0  0  0  0  0  0  0  0  0  0  0
   40.9046   16.2441   -6.6748 C   0  0  0  0  0  0  0  0  0  0  0  0
   41.0852   17.5736   -6.2787 O   0  0  0  0  0  0  0  0  0  0  0  0
   39.4418   16.0098   -6.7317 C   0  0  0  0  0  0  0  0  0  0  0  0
   38.6394   16.5000   -7.5664 O   0  0  0  0  0  0  0  0  0  0  0  0
   41.8063   17.9897   -6.7839 H   0  0  0  0  0  0  0  0  0  0  0  0
 26 27  1  0  0  0
 27 28  1  0  0  0
 28 29  1  0  0  0
 29 30  1  0  0  0
 30 31  1  0  0  0
 30 24  1  0  0  0
 24 25  3  0  0  0
 25  1  1  0  0  0
  1  2  2  0  0  0
  2  3  1  0  0  0
  3  4  2  0  0  0
  4  5  1  0  0  0
  5  6  1  0  0  0
  6  7  1  0  0  0
  7  8  1  0  0  0
  7 21  1  0  0  0
 21 22  1  0  0  0
  7  9  1  0  0  0
  9 10  1  0  0  0
 10 11  1  0  0  0
 11 12  2  0  0  0
 12 13  1  0  0  0
 13 14  1  0  0  0
 14 15  2  0  0  0
 11 16  1  0  0  0
 16 17  1  0  0  0
 16 18  2  0  0  0
 30 32  1  0  0  0
 32 33  2  0  0  0
 32 27  1  0  0  0
 15  1  1  0  0  0
 14  4  1  0  0  0
 13  9  2  0  0  0
 31 34  1  0  0  0
 22 23  1  0  0  0
 17 19  1  0  0  0
 17 20  1  0  0  0
M  END
> <minimizedAffinity>
-5.93899

> <CNNscore>
0.1507496089

> <CNNaffinity>
4.6273293495

> <CNN_VS>
0.6975681186

> <CNNaffinity_variance>
0.3124917150

$$$$
[H]OC([H])([H])[C@@]1(F)c2sc(C(=O)N([H])[H])nc2-c2c([H])c(C#C[C@@]3(O[H])C(=O)N(C([H])([H])[H])C([H])([H])C3([H])[H])c([H])c([H])c2OC1([H])[H]


 34 37  0  0  0  0  0  0  0  0999 V2000
   36.3179   15.3609   -9.8799 C   0  0  0  0  0  0  0  0  0  0  0  0
   35.5256   16.4712   -9.6751 C   0  0  0  0  0  0  0  0  0  0  0  0
   35.4968   17.1519   -8.4764 C   0  0  0  0  0  0  0  0  0  0  0  0
   36.3059   16.6857   -7.4431 C   0  0  0  0  0  0  0  0  0  0  0  0
   36.1655   17.4723   -6.3092 O   0  0  0  0  0  0  0  0  0  0  0  0
   37.0196   17.5298   -5.2023 C   0  0  0  0  0  0  0  0  0  0  0  0
   37.2087   16.2218   -4.4965 C   0  0  0  0  0  0  0  0  0  0  0  0
   37.9861   16.4983   -3.3612 F   0  0  0  0  0  0  0  0  0  0  0  0
   38.0319   15.2567   -5.2970 C   0  0  0  0  0  0  0  0  0  0  0  0
   39.2648   14.2363   -4.6956 S   0  0  0  0  0  0  0  0  0  0  0  0
   39.7075   13.4716   -6.1718 C   0  0  0  0  0  0  0  0  0  0  0  0
   38.8820   14.0466   -7.0341 N   0  0  0  0  0  0  0  0  0  0  0  0
   38.0372   14.9377   -6.6311 C   0  0  0  0  0  0  0  0  0  0  0  0
   37.1123   15.5808   -7.6049 C   0  0  0  0  0  0  0  0  0  0  0  0
   37.0986   14.9435   -8.8224 C   0  0  0  0  0  0  0  0  0  0  0  0
   40.7328   12.4584   -6.3711 C   0  0  0  0  0  0  0  0  0  0  0  0
   41.8524   12.4268   -5.5215 N   0  0  0  0  0  0  0  0  0  0  0  0
   40.6077   11.6323   -7.2899 O   0  0  0  0  0  0  0  0  0  0  0  0
   42.3717   13.2866   -5.1978 H   0  0  0  0  0  0  0  0  0  0  0  0
   42.2620   11.5236   -5.1389 H   0  0  0  0  0  0  0  0  0  0  0  0
   35.9361   15.6164   -4.0008 C   0  0  0  0  0  0  0  0  0  0  0  0
   34.8595   16.4649   -3.9747 O   0  0  0  0  0  0  0  0  0  0  0  0
   34.4604   16.4757   -3.0760 H   0  0  0  0  0  0  0  0  0  0  0  0
   36.3007   14.1302  -12.2179 C   0  0  0  0  0  0  0  0  0  0  0  0
   36.3000   14.6983  -11.1547 C   0  0  0  0  0  0  0  0  0  0  0  0
   33.7758   11.3510  -15.2882 C   0  0  0  0  0  0  0  0  0  0  0  0
   34.4877   12.4063  -14.5880 N   0  0  0  0  0  0  0  0  0  0  0  0
   34.4304   13.8077  -14.9463 C   0  0  0  0  0  0  0  0  0  0  0  0
   35.8383   14.2722  -14.6378 C   0  0  0  0  0  0  0  0  0  0  0  0
   36.3199   13.4328  -13.4893 C   0  0  0  0  0  0  0  0  0  0  0  0
   37.5723   12.8722  -13.7620 O   0  0  0  0  0  0  0  0  0  0  0  0
   35.3469   12.3145  -13.4656 C   0  0  0  0  0  0  0  0  0  0  0  0
   35.2714   11.4091  -12.5963 O   0  0  0  0  0  0  0  0  0  0  0  0
   38.2631   13.2875  -13.2154 H   0  0  0  0  0  0  0  0  0  0  0  0
 26 27  1  0  0  0
 27 28  1  0  0  0
 28 29  1  0  0  0
 29 30  1  0  0  0
 30 31  1  0  0  0
 30 24  1  0  0  0
 24 25  3  0  0  0
 25  1  1  0  0  0
  1  2  2  0  0  0
  2  3  1  0  0  0
  3  4  2  0  0  0
  4  5  1  0  0  0
  5  6  1  0  0  0
  6  7  1  0  0  0
  7  8  1  0  0  0
  7 21  1  0  0  0
 21 22  1  0  0  0
  7  9  1  0  0  0
  9 10  1  0  0  0
 10 11  1  0  0  0
 11 12  2  0  0  0
 12 13  1  0  0  0
 13 14  1  0  0  0
 14 15  2  0  0  0
 11 16  1  0  0  0
 16 17  1  0  0  0
 16 18  2  0  0  0
 30 32  1  0  0  0
 32 33  2  0  0  0
 32 27  1  0  0  0
 15  1  1  0  0  0
 14  4  1  0  0  0
 13  9  2  0  0  0
 31 34  1  0  0  0
 22 23  1  0  0  0
 17 19  1  0  0  0
 17 20  1  0  0  0
M  END
> <minimizedAffinity>
-6.62941

> <CNNscore>
0.1504582316

> <CNNaffinity>
5.1697878838

> <CNN_VS>
0.7778371572

> <CNNaffinity_variance>
0.2994101942

$$$$
[H]OC(C#Cc1c([H])c2c(c([H])c1F)OC([H])([H])C([H])([H])n1c-2nc(C(=O)N([H])[H])c1C(=O)N([H])C([H])([H])C#N)(C([H])([H])[H])C([H])([H])[H]


 34 36  0  0  0  0  0  0  0  0999 V2000
   43.8664   14.3137  -14.0668 C   0  0  0  0  0  0  0  0  0  0  0  0
   42.8033   13.7403  -14.7423 C   0  0  0  0  0  0  0  0  0  0  0  0
   41.5150   14.0005  -14.3227 C   0  0  0  0  0  0  0  0  0  0  0  0
   40.5436   13.2881  -15.1832 C   0  0  0  0  0  0  0  0  0  0  0  0
   40.8400   12.7849  -16.3861 N   0  0  0  0  0  0  0  0  0  0  0  0
   39.6876   12.1911  -16.8648 C   0  0  0  0  0  0  0  0  0  0  0  0
   38.7137   12.3578  -15.9252 C   0  0  0  0  0  0  0  0  0  0  0  0
   39.2521   13.0467  -14.8677 N   0  0  0  0  0  0  0  0  0  0  0  0
   38.5376   13.4342  -13.6735 C   0  0  0  0  0  0  0  0  0  0  0  0
   38.7649   14.9447  -13.4576 C   0  0  0  0  0  0  0  0  0  0  0  0
   39.9903   15.1479  -12.7380 O   0  0  0  0  0  0  0  0  0  0  0  0
   41.2528   14.8171  -13.2474 C   0  0  0  0  0  0  0  0  0  0  0  0
   42.3054   15.3914  -12.5700 C   0  0  0  0  0  0  0  0  0  0  0  0
   43.6124   15.1269  -12.9962 C   0  0  0  0  0  0  0  0  0  0  0  0
   44.6703   15.6775  -12.3501 F   0  0  0  0  0  0  0  0  0  0  0  0
   39.5963   11.4990  -18.1316 C   0  0  0  0  0  0  0  0  0  0  0  0
   38.4389   10.7279  -18.4882 N   0  0  0  0  0  0  0  0  0  0  0  0
   40.5051   11.5362  -18.9660 O   0  0  0  0  0  0  0  0  0  0  0  0
   37.4618   11.0192  -18.2909 H   0  0  0  0  0  0  0  0  0  0  0  0
   38.5775    9.8182  -18.9753 H   0  0  0  0  0  0  0  0  0  0  0  0
   37.3153   12.0067  -15.9661 C   0  0  0  0  0  0  0  0  0  0  0  0
   36.9638   10.7777  -16.1706 O   0  0  0  0  0  0  0  0  0  0  0  0
   36.2190   12.8812  -15.7946 N   0  0  0  0  0  0  0  0  0  0  0  0
   36.3789   13.8792  -15.5858 H   0  0  0  0  0  0  0  0  0  0  0  0
   34.8504   12.4430  -15.8598 C   0  0  0  0  0  0  0  0  0  0  0  0
   34.0421   12.9934  -14.7630 C   0  0  0  0  0  0  0  0  0  0  0  0
   33.4161   13.4417  -13.8871 N   0  0  0  0  0  0  0  0  0  0  0  0
   46.3611   13.8390  -14.8219 C   0  0  0  0  0  0  0  0  0  0  0  0
   45.2229   14.0546  -14.4894 C   0  0  0  0  0  0  0  0  0  0  0  0
   48.4128   12.5855  -14.2890 C   0  0  0  0  0  0  0  0  0  0  0  0
   47.7662   13.5788  -15.2059 C   0  0  0  0  0  0  0  0  0  0  0  0
   48.4732   14.9104  -15.1418 C   0  0  0  0  0  0  0  0  0  0  0  0
   47.8521   13.1152  -16.5135 O   0  0  0  0  0  0  0  0  0  0  0  0
   47.1087   12.4537  -16.6664 H   0  0  0  0  0  0  0  0  0  0  0  0
 30 31  1  0  0  0
 31 32  1  0  0  0
 31 33  1  0  0  0
 31 28  1  0  0  0
 28 29  3  0  0  0
 29  1  1  0  0  0
  1  2  2  0  0  0
  2  3  1  0  0  0
  3  4  1  0  0  0
  4  5  2  0  0  0
  5  6  1  0  0  0
  6 16  1  0  0  0
 16 17  1  0  0  0
 16 18  2  0  0  0
  6  7  2  0  0  0
  7 21  1  0  0  0
 21 22  2  0  0  0
 21 23  1  0  0  0
 23 25  1  0  0  0
 25 26  1  0  0  0
 26 27  3  0  0  0
  7  8  1  0  0  0
  8  9  1  0  0  0
  9 10  1  0  0  0
 10 11  1  0  0  0
 11 12  1  0  0  0
 12 13  1  0  0  0
 13 14  2  0  0  0
 14 15  1  0  0  0
 14  1  1  0  0  0
 12  3  2  0  0  0
  8  4  1  0  0  0
 33 34  1  0  0  0
 17 19  1  0  0  0
 17 20  1  0  0  0
 23 24  1  0  0  0
M  END
> <minimizedAffinity>
-7.46509

> <CNNscore>
0.6711606979

> <CNNaffinity>
7.0520219803

> <CNN_VS>
4.7330398560

> <CNNaffinity_variance>
0.1467256844

$$$$
[H]OC(C#Cc1c([H])c2c(c([H])c1F)OC([H])([H])C([H])([H])n1c-2nc(C(=O)N([H])[H])c1C(=O)N([H])C([H])([H])C#N)(C([H])([H])[H])C([H])([H])[H]


 34 36  0  0  0  0  0  0  0  0999 V2000
   38.9078   12.3033  -15.9468 C   0  0  0  0  0  0  0  0  0  0  0  0
   38.0957   12.9163  -15.0088 C   0  0  0  0  0  0  0  0  0  0  0  0
   36.7365   12.6811  -15.0328 C   0  0  0  0  0  0  0  0  0  0  0  0
   36.0683   13.4343  -13.9476 C   0  0  0  0  0  0  0  0  0  0  0  0
   36.7086   13.9527  -12.8944 N   0  0  0  0  0  0  0  0  0  0  0  0
   35.7546   14.5848  -12.1194 C   0  0  0  0  0  0  0  0  0  0  0  0
   34.5481   14.4250  -12.7342 C   0  0  0  0  0  0  0  0  0  0  0  0
   34.7455   13.7025  -13.8839 N   0  0  0  0  0  0  0  0  0  0  0  0
   33.7096   13.3105  -14.8114 C   0  0  0  0  0  0  0  0  0  0  0  0
   33.8364   11.7908  -15.0447 C   0  0  0  0  0  0  0  0  0  0  0  0
   34.7982   11.5427  -16.0813 O   0  0  0  0  0  0  0  0  0  0  0  0
   36.1599   11.8510  -15.9657 C   0  0  0  0  0  0  0  0  0  0  0  0
   36.9613   11.2372  -16.9025 C   0  0  0  0  0  0  0  0  0  0  0  0
   38.3405   11.4764  -16.8777 C   0  0  0  0  0  0  0  0  0  0  0  0
   39.1564   10.8868  -17.7867 F   0  0  0  0  0  0  0  0  0  0  0  0
   36.0458   15.3031  -10.8982 C   0  0  0  0  0  0  0  0  0  0  0  0
   35.9804   16.7358  -10.8321 N   0  0  0  0  0  0  0  0  0  0  0  0
   36.3638   14.7230   -9.8563 O   0  0  0  0  0  0  0  0  0  0  0  0
   35.2429   17.3068  -11.2888 H   0  0  0  0  0  0  0  0  0  0  0  0
   36.7139   17.2433  -10.2949 H   0  0  0  0  0  0  0  0  0  0  0  0
   33.2278   14.8123  -12.3014 C   0  0  0  0  0  0  0  0  0  0  0  0
   33.0270   15.9985  -11.8233 O   0  0  0  0  0  0  0  0  0  0  0  0
   32.0589   14.0199  -12.3417 N   0  0  0  0  0  0  0  0  0  0  0  0
   32.0902   13.0686  -12.7405 H   0  0  0  0  0  0  0  0  0  0  0  0
   30.7797   14.4878  -11.8788 C   0  0  0  0  0  0  0  0  0  0  0  0
   30.6068   14.2819  -10.4342 C   0  0  0  0  0  0  0  0  0  0  0  0
   30.4806   14.1019   -9.2890 N   0  0  0  0  0  0  0  0  0  0  0  0
   41.5191   12.7505  -15.9326 C   0  0  0  0  0  0  0  0  0  0  0  0
   40.3332   12.5358  -15.9396 C   0  0  0  0  0  0  0  0  0  0  0  0
   43.7601   11.9050  -16.5051 C   0  0  0  0  0  0  0  0  0  0  0  0
   42.9703   13.0394  -15.9264 C   0  0  0  0  0  0  0  0  0  0  0  0
   43.3458   13.2764  -14.4842 C   0  0  0  0  0  0  0  0  0  0  0  0
   43.2543   14.2008  -16.6353 O   0  0  0  0  0  0  0  0  0  0  0  0
   42.6958   14.2073  -17.4730 H   0  0  0  0  0  0  0  0  0  0  0  0
 30 31  1  0  0  0
 31 32  1  0  0  0
 31 33  1  0  0  0
 31 28  1  0  0  0
 28 29  3  0  0  0
 29  1  1  0  0  0
  1  2  2  0  0  0
  2  3  1  0  0  0
  3  4  1  0  0  0
  4  5  2  0  0  0
  5  6  1  0  0  0
  6 16  1  0  0  0
 16 17  1  0  0  0
 16 18  2  0  0  0
  6  7  2  0  0  0
  7 21  1  0  0  0
 21 22  2  0  0  0
 21 23  1  0  0  0
 23 25  1  0  0  0
 25 26  1  0  0  0
 26 27  3  0  0  0
  7  8  1  0  0  0
  8  9  1  0  0  0
  9 10  1  0  0  0
 10 11  1  0  0  0
 11 12  1  0  0  0
 12 13  1  0  0  0
 13 14  2  0  0  0
 14 15  1  0  0  0
 14  1  1  0  0  0
 12  3  2  0  0  0
  8  4  1  0  0  0
 33 34  1  0  0  0
 17 19  1  0  0  0
 17 20  1  0  0  0
 23 24  1  0  0  0
M  END
> <minimizedAffinity>
-9.51604

> <CNNscore>
0.5811005235

> <CNNaffinity>
6.9143152237

> <CNN_VS>
4.0179123878

> <CNNaffinity_variance>
0.0614527985

$$$$
[H]OC(C#Cc1c([H])c2c(c([H])c1F)OC([H])([H])C([H])([H])n1c-2nc(C(=O)N([H])[H])c1C(=O)N([H])C([H])([H])C#N)(C([H])([H])[H])C([H])([H])[H]


 34 36  0  0  0  0  0  0  0  0999 V2000
   39.6538   12.5326  -15.7657 C   0  0  0  0  0  0  0  0  0  0  0  0
   38.9890   13.1883  -14.7443 C   0  0  0  0  0  0  0  0  0  0  0  0
   37.6253   13.0276  -14.6113 C   0  0  0  0  0  0  0  0  0  0  0  0
   37.1276   13.8153  -13.4609 C   0  0  0  0  0  0  0  0  0  0  0  0
   37.9116   14.2973  -12.4908 N   0  0  0  0  0  0  0  0  0  0  0  0
   37.0884   14.9798  -11.6153 C   0  0  0  0  0  0  0  0  0  0  0  0
   35.8125   14.8865  -12.0870 C   0  0  0  0  0  0  0  0  0  0  0  0
   35.8373   14.1551  -13.2477 N   0  0  0  0  0  0  0  0  0  0  0  0
   34.6823   13.8208  -14.0483 C   0  0  0  0  0  0  0  0  0  0  0  0
   34.6989   12.2967  -14.2862 C   0  0  0  0  0  0  0  0  0  0  0  0
   35.5206   11.9973  -15.4247 O   0  0  0  0  0  0  0  0  0  0  0  0
   36.9013   12.2308  -15.4675 C   0  0  0  0  0  0  0  0  0  0  0  0
   37.5556   11.5748  -16.4864 C   0  0  0  0  0  0  0  0  0  0  0  0
   38.9395   11.7385  -16.6210 C   0  0  0  0  0  0  0  0  0  0  0  0
   39.6127   11.1060  -17.6141 F   0  0  0  0  0  0  0  0  0  0  0  0
   37.5561   15.6804  -10.4394 C   0  0  0  0  0  0  0  0  0  0  0  0
   37.6080   17.1142  -10.3865 N   0  0  0  0  0  0  0  0  0  0  0  0
   37.9326   15.0833   -9.4270 O   0  0  0  0  0  0  0  0  0  0  0  0
   36.8741   17.7381  -10.7745 H   0  0  0  0  0  0  0  0  0  0  0  0
   38.4290   17.5662   -9.9328 H   0  0  0  0  0  0  0  0  0  0  0  0
   34.5735   15.3449  -11.5080 C   0  0  0  0  0  0  0  0  0  0  0  0
   34.5932   16.1547  -10.4982 O   0  0  0  0  0  0  0  0  0  0  0  0
   33.2679   15.0096  -11.9311 N   0  0  0  0  0  0  0  0  0  0  0  0
   33.1289   14.4016  -12.7533 H   0  0  0  0  0  0  0  0  0  0  0  0
   32.0833   15.5098  -11.2861 C   0  0  0  0  0  0  0  0  0  0  0  0
   30.8823   14.7609  -11.6809 C   0  0  0  0  0  0  0  0  0  0  0  0
   29.9209   14.1835  -12.0007 N   0  0  0  0  0  0  0  0  0  0  0  0
   42.2748   12.8107  -16.0341 C   0  0  0  0  0  0  0  0  0  0  0  0
   41.0811   12.6870  -15.9230 C   0  0  0  0  0  0  0  0  0  0  0  0
   44.3670   11.7769  -16.8206 C   0  0  0  0  0  0  0  0  0  0  0  0
   43.7428   12.9598  -16.1449 C   0  0  0  0  0  0  0  0  0  0  0  0
   44.2581   13.1081  -14.7344 C   0  0  0  0  0  0  0  0  0  0  0  0
   44.0793   14.1136  -16.8432 O   0  0  0  0  0  0  0  0  0  0  0  0
   43.4565   14.2033  -17.6292 H   0  0  0  0  0  0  0  0  0  0  0  0
 30 31  1  0  0  0
 31 32  1  0  0  0
 31 33  1  0  0  0
 31 28  1  0  0  0
 28 29  3  0  0  0
 29  1  1  0  0  0
  1  2  2  0  0  0
  2  3  1  0  0  0
  3  4  1  0  0  0
  4  5  2  0  0  0
  5  6  1  0  0  0
  6 16  1  0  0  0
 16 17  1  0  0  0
 16 18  2  0  0  0
  6  7  2  0  0  0
  7 21  1  0  0  0
 21 22  2  0  0  0
 21 23  1  0  0  0
 23 25  1  0  0  0
 25 26  1  0  0  0
 26 27  3  0  0  0
  7  8  1  0  0  0
  8  9  1  0  0  0
  9 10  1  0  0  0
 10 11  1  0  0  0
 11 12  1  0  0  0
 12 13  1  0  0  0
 13 14  2  0  0  0
 14 15  1  0  0  0
 14  1  1  0  0  0
 12  3  2  0  0  0
  8  4  1  0  0  0
 33 34  1  0  0  0
 17 19  1  0  0  0
 17 20  1  0  0  0
 23 24  1  0  0  0
M  END
> <minimizedAffinity>
-9.89193

> <CNNscore>
0.5232656598

> <CNNaffinity>
6.7933816910

> <CNN_VS>
3.5547432899

> <CNNaffinity_variance>
0.1692816764

$$$$
[H]OC(C#Cc1c([H])c2c(c([H])c1F)OC([H])([H])C([H])([H])n1c-2nc(C(=O)N([H])[H])c1C(=O)N([H])C([H])([H])C#N)(C([H])([H])[H])C([H])([H])[H]


 34 36  0  0  0  0  0  0  0  0999 V2000
   39.7159   12.2678  -16.1546 C   0  0  0  0  0  0  0  0  0  0  0  0
   38.8533   12.7836  -15.2032 C   0  0  0  0  0  0  0  0  0  0  0  0
   37.5044   12.5079  -15.2920 C   0  0  0  0  0  0  0  0  0  0  0  0
   36.7758   13.1570  -14.1786 C   0  0  0  0  0  0  0  0  0  0  0  0
   37.3634   13.6157  -13.0686 N   0  0  0  0  0  0  0  0  0  0  0  0
   36.3637   14.1579  -12.2833 C   0  0  0  0  0  0  0  0  0  0  0  0
   35.1841   14.0062  -12.9500 C   0  0  0  0  0  0  0  0  0  0  0  0
   35.4433   13.3777  -14.1419 N   0  0  0  0  0  0  0  0  0  0  0  0
   34.4522   13.0232  -15.1313 C   0  0  0  0  0  0  0  0  0  0  0  0
   34.6383   11.5298  -15.4706 C   0  0  0  0  0  0  0  0  0  0  0  0
   35.6412   11.3899  -16.4883 O   0  0  0  0  0  0  0  0  0  0  0  0
   36.9871   11.7316  -16.3028 C   0  0  0  0  0  0  0  0  0  0  0  0
   37.8391   11.2147  -17.2533 C   0  0  0  0  0  0  0  0  0  0  0  0
   39.2078   11.4949  -17.1628 C   0  0  0  0  0  0  0  0  0  0  0  0
   40.0726   11.0005  -18.0833 F   0  0  0  0  0  0  0  0  0  0  0  0
   36.5903   14.7925  -11.0034 C   0  0  0  0  0  0  0  0  0  0  0  0
   37.3337   16.0153  -10.8888 N   0  0  0  0  0  0  0  0  0  0  0  0
   36.1578   14.3164   -9.9500 O   0  0  0  0  0  0  0  0  0  0  0  0
   37.2522   16.8106  -11.5518 H   0  0  0  0  0  0  0  0  0  0  0  0
   37.9988   16.1211  -10.0948 H   0  0  0  0  0  0  0  0  0  0  0  0
   33.8379   14.3184  -12.5365 C   0  0  0  0  0  0  0  0  0  0  0  0
   32.8398   13.6663  -13.0407 O   0  0  0  0  0  0  0  0  0  0  0  0
   33.4489   15.2953  -11.5929 N   0  0  0  0  0  0  0  0  0  0  0  0
   34.1630   15.8504  -11.0960 H   0  0  0  0  0  0  0  0  0  0  0  0
   32.0753   15.5453  -11.2460 C   0  0  0  0  0  0  0  0  0  0  0  0
   31.9216   15.9115   -9.8313 C   0  0  0  0  0  0  0  0  0  0  0  0
   31.8090   16.2194   -8.7121 N   0  0  0  0  0  0  0  0  0  0  0  0
   42.3157   12.7646  -16.0369 C   0  0  0  0  0  0  0  0  0  0  0  0
   41.1316   12.5441  -16.0805 C   0  0  0  0  0  0  0  0  0  0  0  0
   44.5468   11.8672  -16.5677 C   0  0  0  0  0  0  0  0  0  0  0  0
   43.7728   13.0199  -16.0039 C   0  0  0  0  0  0  0  0  0  0  0  0
   44.1269   13.2491  -14.5551 C   0  0  0  0  0  0  0  0  0  0  0  0
   44.0966   14.1740  -16.7076 O   0  0  0  0  0  0  0  0  0  0  0  0
   43.5540   14.1930  -17.5555 H   0  0  0  0  0  0  0  0  0  0  0  0
 30 31  1  0  0  0
 31 32  1  0  0  0
 31 33  1  0  0  0
 31 28  1  0  0  0
 28 29  3  0  0  0
 29  1  1  0  0  0
  1  2  2  0  0  0
  2  3  1  0  0  0
  3  4  1  0  0  0
  4  5  2  0  0  0
  5  6  1  0  0  0
  6 16  1  0  0  0
 16 17  1  0  0  0
 16 18  2  0  0  0
  6  7  2  0  0  0
  7 21  1  0  0  0
 21 22  2  0  0  0
 21 23  1  0  0  0
 23 25  1  0  0  0
 25 26  1  0  0  0
 26 27  3  0  0  0
  7  8  1  0  0  0
  8  9  1  0  0  0
  9 10  1  0  0  0
 10 11  1  0  0  0
 11 12  1  0  0  0
 12 13  1  0  0  0
 13 14  2  0  0  0
 14 15  1  0  0  0
 14  1  1  0  0  0
 12  3  2  0  0  0
  8  4  1  0  0  0
 33 34  1  0  0  0
 17 19  1  0  0  0
 17 20  1  0  0  0
 23 24  1  0  0  0
M  END
> <minimizedAffinity>
-9.66929

> <CNNscore>
0.4632135928

> <CNNaffinity>
6.8398833275

> <CNN_VS>
3.1683268547

> <CNNaffinity_variance>
0.1345129907

$$$$
[H]OC(C#Cc1c([H])c2c(c([H])c1F)OC([H])([H])C([H])([H])n1c-2nc(C(=O)N([H])[H])c1C(=O)N([H])C([H])([H])C#N)(C([H])([H])[H])C([H])([H])[H]


 34 36  0  0  0  0  0  0  0  0999 V2000
   39.2223   13.1258  -14.6753 C   0  0  0  0  0  0  0  0  0  0  0  0
   38.2018   13.6354  -13.8917 C   0  0  0  0  0  0  0  0  0  0  0  0
   36.8948   13.3015  -14.1811 C   0  0  0  0  0  0  0  0  0  0  0  0
   35.9761   13.9550  -13.2216 C   0  0  0  0  0  0  0  0  0  0  0  0
   36.3633   14.4726  -12.0511 N   0  0  0  0  0  0  0  0  0  0  0  0
   35.2329   14.9977  -11.4540 C   0  0  0  0  0  0  0  0  0  0  0  0
   34.1802   14.7763  -12.2917 C   0  0  0  0  0  0  0  0  0  0  0  0
   34.6475   14.1215  -13.4033 N   0  0  0  0  0  0  0  0  0  0  0  0
   33.8393   13.6950  -14.5221 C   0  0  0  0  0  0  0  0  0  0  0  0
   34.1302   12.2006  -14.7711 C   0  0  0  0  0  0  0  0  0  0  0  0
   35.2862   12.0700  -15.6123 O   0  0  0  0  0  0  0  0  0  0  0  0
   36.5725   12.4728  -15.2305 C   0  0  0  0  0  0  0  0  0  0  0  0
   37.5825   11.9616  -16.0149 C   0  0  0  0  0  0  0  0  0  0  0  0
   38.9086   12.3008  -15.7209 C   0  0  0  0  0  0  0  0  0  0  0  0
   39.9256   11.8136  -16.4745 F   0  0  0  0  0  0  0  0  0  0  0  0
   35.2306   15.6814  -10.1794 C   0  0  0  0  0  0  0  0  0  0  0  0
   34.6031   15.1133   -9.0199 N   0  0  0  0  0  0  0  0  0  0  0  0
   35.7657   16.7829  -10.0253 O   0  0  0  0  0  0  0  0  0  0  0  0
   34.6527   14.1078   -8.7647 H   0  0  0  0  0  0  0  0  0  0  0  0
   34.0620   15.7404   -8.3890 H   0  0  0  0  0  0  0  0  0  0  0  0
   32.7752   15.0456  -12.1072 C   0  0  0  0  0  0  0  0  0  0  0  0
   32.3691   16.2612  -11.9248 O   0  0  0  0  0  0  0  0  0  0  0  0
   31.7262   14.0992  -12.1075 N   0  0  0  0  0  0  0  0  0  0  0  0
   31.9265   13.1023  -12.2836 H   0  0  0  0  0  0  0  0  0  0  0  0
   30.3477   14.4585  -11.9068 C   0  0  0  0  0  0  0  0  0  0  0  0
   29.9701   14.4248  -10.4871 C   0  0  0  0  0  0  0  0  0  0  0  0
   29.6829   14.4131   -9.3569 N   0  0  0  0  0  0  0  0  0  0  0  0
   41.7492   13.7232  -14.1489 C   0  0  0  0  0  0  0  0  0  0  0  0
   40.5975   13.4625  -14.3900 C   0  0  0  0  0  0  0  0  0  0  0  0
   44.0628   13.6511  -14.9897 C   0  0  0  0  0  0  0  0  0  0  0  0
   43.1671   14.0186  -13.8459 C   0  0  0  0  0  0  0  0  0  0  0  0
   43.5100   13.2167  -12.6145 C   0  0  0  0  0  0  0  0  0  0  0  0
   43.3460   15.3627  -13.5405 O   0  0  0  0  0  0  0  0  0  0  0  0
   42.7946   15.9109  -14.1801 H   0  0  0  0  0  0  0  0  0  0  0  0
 30 31  1  0  0  0
 31 32  1  0  0  0
 31 33  1  0  0  0
 31 28  1  0  0  0
 28 29  3  0  0  0
 29  1  1  0  0  0
  1  2  2  0  0  0
  2  3  1  0  0  0
  3  4  1  0  0  0
  4  5  2  0  0  0
  5  6  1  0  0  0
  6 16  1  0  0  0
 16 17  1  0  0  0
 16 18  2  0  0  0
  6  7  2  0  0  0
  7 21  1  0  0  0
 21 22  2  0  0  0
 21 23  1  0  0  0
 23 25  1  0  0  0
 25 26  1  0  0  0
 26 27  3  0  0  0
  7  8  1  0  0  0
  8  9  1  0  0  0
  9 10  1  0  0  0
 10 11  1  0  0  0
 11 12  1  0  0  0
 12 13  1  0  0  0
 13 14  2  0  0  0
 14 15  1  0  0  0
 14  1  1  0  0  0
 12  3  2  0  0  0
  8  4  1  0  0  0
 33 34  1  0  0  0
 17 19  1  0  0  0
 17 20  1  0  0  0
 23 24  1  0  0  0
M  END
> <minimizedAffinity>
-8.43932

> <CNNscore>
0.3235362172

> <CNNaffinity>
6.2271609306

> <CNN_VS>
2.0147120953

> <CNNaffinity_variance>
0.1531004161

$$$$
[H]OC(C#Cc1c([H])c2c(c([H])c1F)OC([H])([H])C([H])([H])n1c-2nc(C(=O)N([H])[H])c1C(=O)N([H])C([H])([H])C#N)(C([H])([H])[H])C([H])([H])[H]


 34 36  0  0  0  0  0  0  0  0999 V2000
   42.6941   14.7958  -13.3901 C   0  0  0  0  0  0  0  0  0  0  0  0
   41.6126   14.1189  -13.9261 C   0  0  0  0  0  0  0  0  0  0  0  0
   40.3396   14.4231  -13.4898 C   0  0  0  0  0  0  0  0  0  0  0  0
   39.3440   13.5828  -14.1928 C   0  0  0  0  0  0  0  0  0  0  0  0
   39.5962   12.9136  -15.3227 N   0  0  0  0  0  0  0  0  0  0  0  0
   38.4344   12.2440  -15.6572 C   0  0  0  0  0  0  0  0  0  0  0  0
   37.4999   12.5347  -14.7078 C   0  0  0  0  0  0  0  0  0  0  0  0
   38.0720   13.3756  -13.7868 N   0  0  0  0  0  0  0  0  0  0  0  0
   37.4038   13.9246  -12.6297 C   0  0  0  0  0  0  0  0  0  0  0  0
   37.6140   15.4528  -12.6450 C   0  0  0  0  0  0  0  0  0  0  0  0
   38.8661   15.7717  -12.0193 O   0  0  0  0  0  0  0  0  0  0  0  0
   40.1106   15.3843  -12.5329 C   0  0  0  0  0  0  0  0  0  0  0  0
   41.1816   16.0623  -11.9947 C   0  0  0  0  0  0  0  0  0  0  0  0
   42.4732   15.7530  -12.4377 C   0  0  0  0  0  0  0  0  0  0  0  0
   43.5486   16.4031  -11.9273 F   0  0  0  0  0  0  0  0  0  0  0  0
   38.2999   11.3743  -16.8051 C   0  0  0  0  0  0  0  0  0  0  0  0
   39.4038   11.1089  -17.6838 N   0  0  0  0  0  0  0  0  0  0  0  0
   37.2338   10.8193  -17.0857 O   0  0  0  0  0  0  0  0  0  0  0  0
   40.3787   10.9508  -17.3626 H   0  0  0  0  0  0  0  0  0  0  0  0
   39.2260   11.0705  -18.7090 H   0  0  0  0  0  0  0  0  0  0  0  0
   36.1074   12.1660  -14.6333 C   0  0  0  0  0  0  0  0  0  0  0  0
   35.5946   11.8049  -13.5008 O   0  0  0  0  0  0  0  0  0  0  0  0
   35.1780   12.1553  -15.6973 N   0  0  0  0  0  0  0  0  0  0  0  0
   35.4645   12.4628  -16.6399 H   0  0  0  0  0  0  0  0  0  0  0  0
   33.8037   11.7635  -15.5323 C   0  0  0  0  0  0  0  0  0  0  0  0
   33.3042   11.0041  -16.6869 C   0  0  0  0  0  0  0  0  0  0  0  0
   32.8923   10.4140  -17.6045 N   0  0  0  0  0  0  0  0  0  0  0  0
   45.1525   14.2211  -14.1933 C   0  0  0  0  0  0  0  0  0  0  0  0
   44.0351   14.4930  -13.8326 C   0  0  0  0  0  0  0  0  0  0  0  0
   47.1101   12.7919  -13.7573 C   0  0  0  0  0  0  0  0  0  0  0  0
   46.5232   13.8654  -14.6226 C   0  0  0  0  0  0  0  0  0  0  0  0
   47.3350   15.1341  -14.5316 C   0  0  0  0  0  0  0  0  0  0  0  0
   46.5414   13.4440  -15.9470 O   0  0  0  0  0  0  0  0  0  0  0  0
   45.7443   12.8489  -16.1029 H   0  0  0  0  0  0  0  0  0  0  0  0
 30 31  1  0  0  0
 31 32  1  0  0  0
 31 33  1  0  0  0
 31 28  1  0  0  0
 28 29  3  0  0  0
 29  1  1  0  0  0
  1  2  2  0  0  0
  2  3  1  0  0  0
  3  4  1  0  0  0
  4  5  2  0  0  0
  5  6  1  0  0  0
  6 16  1  0  0  0
 16 17  1  0  0  0
 16 18  2  0  0  0
  6  7  2  0  0  0
  7 21  1  0  0  0
 21 22  2  0  0  0
 21 23  1  0  0  0
 23 25  1  0  0  0
 25 26  1  0  0  0
 26 27  3  0  0  0
  7  8  1  0  0  0
  8  9  1  0  0  0
  9 10  1  0  0  0
 10 11  1  0  0  0
 11 12  1  0  0  0
 12 13  1  0  0  0
 13 14  2  0  0  0
 14 15  1  0  0  0
 14  1  1  0  0  0
 12  3  2  0  0  0
  8  4  1  0  0  0
 33 34  1  0  0  0
 17 19  1  0  0  0
 17 20  1  0  0  0
 23 24  1  0  0  0
M  END
> <minimizedAffinity>
-7.44632

> <CNNscore>
0.3202329576

> <CNNaffinity>
6.5443620682

> <CNN_VS>
2.0957205296

> <CNNaffinity_variance>
0.2118922770

$$$$
[H]OC(C#Cc1c([H])c2c(c([H])c1F)OC([H])([H])C([H])([H])n1c-2nc(C(=O)N([H])[H])c1C(=O)N([H])C([H])([H])C#N)(C([H])([H])[H])C([H])([H])[H]


 34 36  0  0  0  0  0  0  0  0999 V2000
   38.2433   11.6349  -16.7711 C   0  0  0  0  0  0  0  0  0  0  0  0
   38.8555   12.4444  -15.8302 C   0  0  0  0  0  0  0  0  0  0  0  0
   40.2112   12.6831  -15.9218 C   0  0  0  0  0  0  0  0  0  0  0  0
   40.6498   13.5684  -14.8193 C   0  0  0  0  0  0  0  0  0  0  0  0
   39.8179   14.3129  -14.0833 N   0  0  0  0  0  0  0  0  0  0  0  0
   40.5954   14.9827  -13.1578 C   0  0  0  0  0  0  0  0  0  0  0  0
   41.8933   14.6207  -13.3664 C   0  0  0  0  0  0  0  0  0  0  0  0
   41.9273   13.7309  -14.4103 N   0  0  0  0  0  0  0  0  0  0  0  0
   43.1212   13.1214  -14.9488 C   0  0  0  0  0  0  0  0  0  0  0  0
   43.1190   13.3481  -16.4747 C   0  0  0  0  0  0  0  0  0  0  0  0
   42.3553   12.3134  -17.1128 O   0  0  0  0  0  0  0  0  0  0  0  0
   40.9781   12.1383  -16.9253 C   0  0  0  0  0  0  0  0  0  0  0  0
   40.3763   11.3316  -17.8654 C   0  0  0  0  0  0  0  0  0  0  0  0
   39.0005   11.0897  -17.7719 C   0  0  0  0  0  0  0  0  0  0  0  0
   38.3785   10.2998  -18.6823 F   0  0  0  0  0  0  0  0  0  0  0  0
   40.0687   15.8730  -12.1467 C   0  0  0  0  0  0  0  0  0  0  0  0
   39.2816   15.3863  -11.0491 N   0  0  0  0  0  0  0  0  0  0  0  0
   40.2686   17.0906  -12.1769 O   0  0  0  0  0  0  0  0  0  0  0  0
   39.4852   14.5102  -10.5300 H   0  0  0  0  0  0  0  0  0  0  0  0
   38.4526   15.9393  -10.7472 H   0  0  0  0  0  0  0  0  0  0  0  0
   43.1012   15.0941  -12.7361 C   0  0  0  0  0  0  0  0  0  0  0  0
   43.5568   14.4962  -11.6821 O   0  0  0  0  0  0  0  0  0  0  0  0
   43.8992   16.1840  -13.1502 N   0  0  0  0  0  0  0  0  0  0  0  0
   43.6550   16.7117  -14.0028 H   0  0  0  0  0  0  0  0  0  0  0  0
   45.0893   16.5923  -12.4528 C   0  0  0  0  0  0  0  0  0  0  0  0
   45.5244   17.9395  -12.8463 C   0  0  0  0  0  0  0  0  0  0  0  0
   45.8809   19.0007  -13.1731 N   0  0  0  0  0  0  0  0  0  0  0  0
   35.6459   11.1363  -16.6167 C   0  0  0  0  0  0  0  0  0  0  0  0
   36.8253   11.3720  -16.6939 C   0  0  0  0  0  0  0  0  0  0  0  0
   33.6211   11.3466  -15.2307 C   0  0  0  0  0  0  0  0  0  0  0  0
   34.2033   10.8251  -16.5092 C   0  0  0  0  0  0  0  0  0  0  0  0
   34.0910    9.3219  -16.5782 C   0  0  0  0  0  0  0  0  0  0  0  0
   33.4942   11.3534  -17.5817 O   0  0  0  0  0  0  0  0  0  0  0  0
   33.8447   12.2780  -17.7709 H   0  0  0  0  0  0  0  0  0  0  0  0
 30 31  1  0  0  0
 31 32  1  0  0  0
 31 33  1  0  0  0
 31 28  1  0  0  0
 28 29  3  0  0  0
 29  1  1  0  0  0
  1  2  2  0  0  0
  2  3  1  0  0  0
  3  4  1  0  0  0
  4  5  2  0  0  0
  5  6  1  0  0  0
  6 16  1  0  0  0
 16 17  1  0  0  0
 16 18  2  0  0  0
  6  7  2  0  0  0
  7 21  1  0  0  0
 21 22  2  0  0  0
 21 23  1  0  0  0
 23 25  1  0  0  0
 25 26  1  0  0  0
 26 27  3  0  0  0
  7  8  1  0  0  0
  8  9  1  0  0  0
  9 10  1  0  0  0
 10 11  1  0  0  0
 11 12  1  0  0  0
 12 13  1  0  0  0
 13 14  2  0  0  0
 14 15  1  0  0  0
 14  1  1  0  0  0
 12  3  2  0  0  0
  8  4  1  0  0  0
 33 34  1  0  0  0
 17 19  1  0  0  0
 17 20  1  0  0  0
 23 24  1  0  0  0
M  END
> <minimizedAffinity>
-8.38556

> <CNNscore>
0.3065014780

> <CNNaffinity>
6.5054216385

> <CNN_VS>
1.9939213991

> <CNNaffinity_variance>
0.0703528076

$$$$
[H]OC(C#Cc1c([H])c2c(c([H])c1F)OC([H])([H])C([H])([H])n1c-2nc(C(=O)N([H])[H])c1C(=O)N([H])C([H])([H])C#N)(C([H])([H])[H])C([H])([H])[H]


 34 36  0  0  0  0  0  0  0  0999 V2000
   41.2878   14.0324   -7.5846 C   0  0  0  0  0  0  0  0  0  0  0  0
   40.0197   14.2036   -7.0576 C   0  0  0  0  0  0  0  0  0  0  0  0
   39.1996   15.1865   -7.5723 C   0  0  0  0  0  0  0  0  0  0  0  0
   37.9000   15.1907   -6.8634 C   0  0  0  0  0  0  0  0  0  0  0  0
   37.4552   14.1770   -6.1134 N   0  0  0  0  0  0  0  0  0  0  0  0
   36.2243   14.5600   -5.6151 C   0  0  0  0  0  0  0  0  0  0  0  0
   35.9562   15.8105   -6.0877 C   0  0  0  0  0  0  0  0  0  0  0  0
   37.0099   16.2073   -6.8718 N   0  0  0  0  0  0  0  0  0  0  0  0
   37.1033   17.4696   -7.5680 C   0  0  0  0  0  0  0  0  0  0  0  0
   37.4381   17.1702   -9.0438 C   0  0  0  0  0  0  0  0  0  0  0  0
   38.8590   17.0311   -9.1953 O   0  0  0  0  0  0  0  0  0  0  0  0
   39.6057   16.0065   -8.5993 C   0  0  0  0  0  0  0  0  0  0  0  0
   40.8663   15.8424   -9.1290 C   0  0  0  0  0  0  0  0  0  0  0  0
   41.6980   14.8449   -8.6062 C   0  0  0  0  0  0  0  0  0  0  0  0
   42.9449   14.6583   -9.1064 F   0  0  0  0  0  0  0  0  0  0  0  0
   35.4206   13.7508   -4.7254 C   0  0  0  0  0  0  0  0  0  0  0  0
   35.8878   13.3715   -3.4220 N   0  0  0  0  0  0  0  0  0  0  0  0
   34.2977   13.3474   -5.0410 O   0  0  0  0  0  0  0  0  0  0  0  0
   36.4091   14.0035   -2.7836 H   0  0  0  0  0  0  0  0  0  0  0  0
   35.6971   12.4044   -3.0867 H   0  0  0  0  0  0  0  0  0  0  0  0
   34.7745   16.6244   -5.9401 C   0  0  0  0  0  0  0  0  0  0  0  0
   34.7124   17.5076   -4.9957 O   0  0  0  0  0  0  0  0  0  0  0  0
   33.6139   16.5830   -6.7448 N   0  0  0  0  0  0  0  0  0  0  0  0
   33.5658   15.9440   -7.5538 H   0  0  0  0  0  0  0  0  0  0  0  0
   32.4738   17.4305   -6.5185 C   0  0  0  0  0  0  0  0  0  0  0  0
   31.4207   17.2176   -7.5209 C   0  0  0  0  0  0  0  0  0  0  0  0
   30.5884   17.0290   -8.3157 N   0  0  0  0  0  0  0  0  0  0  0  0
   42.8802   12.1414   -6.6320 C   0  0  0  0  0  0  0  0  0  0  0  0
   42.1625   13.0096   -7.0606 C   0  0  0  0  0  0  0  0  0  0  0  0
   43.6095   10.9091   -4.6284 C   0  0  0  0  0  0  0  0  0  0  0  0
   43.7441   11.0577   -6.1135 C   0  0  0  0  0  0  0  0  0  0  0  0
   45.1570   11.4289   -6.4916 C   0  0  0  0  0  0  0  0  0  0  0  0
   43.4469    9.8438   -6.7218 O   0  0  0  0  0  0  0  0  0  0  0  0
   42.4462    9.7614   -6.7963 H   0  0  0  0  0  0  0  0  0  0  0  0
 30 31  1  0  0  0
 31 32  1  0  0  0
 31 33  1  0  0  0
 31 28  1  0  0  0
 28 29  3  0  0  0
 29  1  1  0  0  0
  1  2  2  0  0  0
  2  3  1  0  0  0
  3  4  1  0  0  0
  4  5  2  0  0  0
  5  6  1  0  0  0
  6 16  1  0  0  0
 16 17  1  0  0  0
 16 18  2  0  0  0
  6  7  2  0  0  0
  7 21  1  0  0  0
 21 22  2  0  0  0
 21 23  1  0  0  0
 23 25  1  0  0  0
 25 26  1  0  0  0
 26 27  3  0  0  0
  7  8  1  0  0  0
  8  9  1  0  0  0
  9 10  1  0  0  0
 10 11  1  0  0  0
 11 12  1  0  0  0
 12 13  1  0  0  0
 13 14  2  0  0  0
 14 15  1  0  0  0
 14  1  1  0  0  0
 12  3  2  0  0  0
  8  4  1  0  0  0
 33 34  1  0  0  0
 17 19  1  0  0  0
 17 20  1  0  0  0
 23 24  1  0  0  0
M  END
> <minimizedAffinity>
-5.67362

> <CNNscore>
0.1890590936

> <CNNaffinity>
5.0707564354

> <CNN_VS>
0.9586726427

> <CNNaffinity_variance>
0.1672169864

$$$$
[H]OC(C#Cc1c([H])c2c(c([H])c1F)OC([H])([H])C([H])([H])n1c-2nc(C(=O)N([H])[H])c1C(=O)N([H])C([H])([H])C#N)(C([H])([H])[H])C([H])([H])[H]


 34 36  0  0  0  0  0  0  0  0999 V2000
   36.2673   13.6917  -13.8087 C   0  0  0  0  0  0  0  0  0  0  0  0
   35.1344   14.0179  -13.0838 C   0  0  0  0  0  0  0  0  0  0  0  0
   35.2477   14.8477  -11.9875 C   0  0  0  0  0  0  0  0  0  0  0  0
   33.9201   15.0597  -11.3676 C   0  0  0  0  0  0  0  0  0  0  0  0
   32.7601   14.8014  -11.9803 N   0  0  0  0  0  0  0  0  0  0  0  0
   31.7569   15.1126  -11.0821 C   0  0  0  0  0  0  0  0  0  0  0  0
   32.3484   15.5591   -9.9376 C   0  0  0  0  0  0  0  0  0  0  0  0
   33.7084   15.5250  -10.1168 N   0  0  0  0  0  0  0  0  0  0  0  0
   34.6896   15.9326   -9.1381 C   0  0  0  0  0  0  0  0  0  0  0  0
   35.6479   16.9315   -9.8193 C   0  0  0  0  0  0  0  0  0  0  0  0
   36.6880   16.2120  -10.4986 O   0  0  0  0  0  0  0  0  0  0  0  0
   36.4590   15.3642  -11.5902 C   0  0  0  0  0  0  0  0  0  0  0  0
   37.5910   15.0443  -12.3064 C   0  0  0  0  0  0  0  0  0  0  0  0
   37.4753   14.2021  -13.4187 C   0  0  0  0  0  0  0  0  0  0  0  0
   38.5714   13.8685  -14.1446 F   0  0  0  0  0  0  0  0  0  0  0  0
   30.3456   14.9428  -11.3496 C   0  0  0  0  0  0  0  0  0  0  0  0
   29.8647   14.5576  -12.6463 N   0  0  0  0  0  0  0  0  0  0  0  0
   29.4876   15.1200  -10.4802 O   0  0  0  0  0  0  0  0  0  0  0  0
   30.3213   13.8455  -13.2488 H   0  0  0  0  0  0  0  0  0  0  0  0
   29.0050   15.0152  -13.0146 H   0  0  0  0  0  0  0  0  0  0  0  0
   31.7571   16.0893   -8.7336 C   0  0  0  0  0  0  0  0  0  0  0  0
   31.2953   15.2835   -7.8318 O   0  0  0  0  0  0  0  0  0  0  0  0
   31.6164   17.4527   -8.3907 N   0  0  0  0  0  0  0  0  0  0  0  0
   31.9848   18.1860   -9.0165 H   0  0  0  0  0  0  0  0  0  0  0  0
   31.0034   17.8926   -7.1659 C   0  0  0  0  0  0  0  0  0  0  0  0
   29.7416   18.6063   -7.4060 C   0  0  0  0  0  0  0  0  0  0  0  0
   28.7428   19.1827   -7.5795 N   0  0  0  0  0  0  0  0  0  0  0  0
   36.1095   12.0927  -15.9152 C   0  0  0  0  0  0  0  0  0  0  0  0
   36.1711   12.8246  -14.9596 C   0  0  0  0  0  0  0  0  0  0  0  0
   35.1581   10.0151  -16.8337 C   0  0  0  0  0  0  0  0  0  0  0  0
   36.0582   11.1868  -17.0840 C   0  0  0  0  0  0  0  0  0  0  0  0
   37.4768   10.7336  -17.3274 C   0  0  0  0  0  0  0  0  0  0  0  0
   35.6262   11.8585  -18.2217 O   0  0  0  0  0  0  0  0  0  0  0  0
   34.8664   12.4665  -17.9634 H   0  0  0  0  0  0  0  0  0  0  0  0
 30 31  1  0  0  0
 31 32  1  0  0  0
 31 33  1  0  0  0
 31 28  1  0  0  0
 28 29  3  0  0  0
 29  1  1  0  0  0
  1  2  2  0  0  0
  2  3  1  0  0  0
  3  4  1  0  0  0
  4  5  2  0  0  0
  5  6  1  0  0  0
  6 16  1  0  0  0
 16 17  1  0  0  0
 16 18  2  0  0  0
  6  7  2  0  0  0
  7 21  1  0  0  0
 21 22  2  0  0  0
 21 23  1  0  0  0
 23 25  1  0  0  0
 25 26  1  0  0  0
 26 27  3  0  0  0
  7  8  1  0  0  0
  8  9  1  0  0  0
  9 10  1  0  0  0
 10 11  1  0  0  0
 11 12  1  0  0  0
 12 13  1  0  0  0
 13 14  2  0  0  0
 14 15  1  0  0  0
 14  1  1  0  0  0
 12  3  2  0  0  0
  8  4  1  0  0  0
 33 34  1  0  0  0
 17 19  1  0  0  0
 17 20  1  0  0  0
 23 24  1  0  0  0
M  END
> <minimizedAffinity>
-7.31324

> <CNNscore>
0.1879834235

> <CNNaffinity>
6.0435304642

> <CNN_VS>
1.1360836029

> <CNNaffinity_variance>
0.0850245655

$$$$
[H]O[C@]1(C#Cc2c([H])c3c(c([H])c2F)C2([H])C([H])([H])C([H])(n4c-3nc(C(=O)N([H])[H])c4C([H])([H])[H])C2([H])[H])C(=O)N(C([H])([H])[H])C([H])([H])C1([H])[H]


 33 37  0  0  0  0  0  0  0  0999 V2000
   35.5946   13.5055  -13.4433 C   0  0  0  0  0  0  0  0  0  0  0  0
   36.7282   13.2317  -14.1691 C   0  0  0  0  0  0  0  0  0  0  0  0
   36.6800   12.4661  -15.2919 C   0  0  0  0  0  0  0  0  0  0  0  0
   37.9987   12.2779  -15.9434 C   0  0  0  0  0  0  0  0  0  0  0  0
   39.1467   12.8149  -15.5282 N   0  0  0  0  0  0  0  0  0  0  0  0
   40.1254   12.4252  -16.3635 C   0  0  0  0  0  0  0  0  0  0  0  0
   39.5439   11.6260  -17.3137 C   0  0  0  0  0  0  0  0  0  0  0  0
   40.2239   10.9521  -18.4618 C   0  0  0  0  0  0  0  0  0  0  0  0
   38.2401   11.5352  -17.0566 N   0  0  0  0  0  0  0  0  0  0  0  0
   37.2328   10.7785  -17.8196 C   0  0  0  0  0  0  0  0  0  0  0  0
   36.3202   10.0089  -16.8525 C   0  0  0  0  0  0  0  0  0  0  0  0
   35.2523   11.0902  -16.9311 C   0  0  0  0  0  0  0  0  0  0  0  0
   36.0177   11.6519  -18.1154 C   0  0  0  0  0  0  0  0  0  0  0  0
   35.4522   11.9521  -15.7086 C   0  0  0  0  0  0  0  0  0  0  0  0
   34.3033   12.2005  -15.0161 C   0  0  0  0  0  0  0  0  0  0  0  0
   34.3970   12.9830  -13.8811 C   0  0  0  0  0  0  0  0  0  0  0  0
   33.2368   13.2134  -13.2122 F   0  0  0  0  0  0  0  0  0  0  0  0
   41.5522   12.7718  -16.2963 C   0  0  0  0  0  0  0  0  0  0  0  0
   42.5143   12.1727  -17.1370 N   0  0  0  0  0  0  0  0  0  0  0  0
   41.9605   13.6275  -15.4721 O   0  0  0  0  0  0  0  0  0  0  0  0
   43.1693   11.4693  -16.7604 H   0  0  0  0  0  0  0  0  0  0  0  0
   42.5697   12.4344  -18.1362 H   0  0  0  0  0  0  0  0  0  0  0  0
   35.7305   15.0171  -11.2758 C   0  0  0  0  0  0  0  0  0  0  0  0
   35.6678   14.3172  -12.2593 C   0  0  0  0  0  0  0  0  0  0  0  0
   38.4455   15.4765   -7.4722 C   0  0  0  0  0  0  0  0  0  0  0  0
   37.5604   15.8793   -8.5323 N   0  0  0  0  0  0  0  0  0  0  0  0
   37.6794   17.1372   -9.2436 C   0  0  0  0  0  0  0  0  0  0  0  0
   36.7227   17.0624  -10.4078 C   0  0  0  0  0  0  0  0  0  0  0  0
   35.8192   15.8893  -10.0893 C   0  0  0  0  0  0  0  0  0  0  0  0
   34.5876   16.3910   -9.7178 O   0  0  0  0  0  0  0  0  0  0  0  0
   36.4740   15.1286   -9.0232 C   0  0  0  0  0  0  0  0  0  0  0  0
   36.1355   13.9988   -8.6076 O   0  0  0  0  0  0  0  0  0  0  0  0
   34.0005   16.3183  -10.5360 H   0  0  0  0  0  0  0  0  0  0  0  0
 25 26  1  0  0  0
 26 27  1  0  0  0
 27 28  1  0  0  0
 28 29  1  0  0  0
 29 30  1  0  0  0
 29 23  1  0  0  0
 23 24  3  0  0  0
 24  1  1  0  0  0
  1  2  1  0  0  0
  2  3  2  0  0  0
  3  4  1  0  0  0
  4  5  2  0  0  0
  5  6  1  0  0  0
  6 18  1  0  0  0
 18 19  1  0  0  0
 18 20  2  0  0  0
  6  7  2  0  0  0
  7  8  1  0  0  0
  7  9  1  0  0  0
  9 10  1  0  0  0
 10 11  1  0  0  0
 11 12  1  0  0  0
 12 13  1  0  0  0
 12 14  1  0  0  0
 14 15  2  0  0  0
 15 16  1  0  0  0
 16 17  1  0  0  0
 29 31  1  0  0  0
 31 32  2  0  0  0
 31 26  1  0  0  0
 16  1  2  0  0  0
 14  3  1  0  0  0
  9  4  1  0  0  0
 13 10  1  0  0  0
 30 33  1  0  0  0
 19 21  1  0  0  0
 19 22  1  0  0  0
M  END
> <minimizedAffinity>
-9.34408

> <CNNscore>
0.5574468374

> <CNNaffinity>
7.2252197266

> <CNN_VS>
4.0276761055

> <CNNaffinity_variance>
0.1840536147

$$$$
[H]O[C@]1(C#Cc2c([H])c3c(c([H])c2F)C2([H])C([H])([H])C([H])(n4c-3nc(C(=O)N([H])[H])c4C([H])([H])[H])C2([H])[H])C(=O)N(C([H])([H])[H])C([H])([H])C1([H])[H]


 33 37  0  0  0  0  0  0  0  0999 V2000
   36.8987   16.8773   -4.7326 C   0  0  0  0  0  0  0  0  0  0  0  0
   37.9367   16.0252   -5.0212 C   0  0  0  0  0  0  0  0  0  0  0  0
   39.2303   16.3972   -4.8279 C   0  0  0  0  0  0  0  0  0  0  0  0
   40.2140   15.3496   -5.1937 C   0  0  0  0  0  0  0  0  0  0  0  0
   39.9105   14.1305   -5.6411 N   0  0  0  0  0  0  0  0  0  0  0  0
   41.0554   13.4625   -5.8659 C   0  0  0  0  0  0  0  0  0  0  0  0
   42.0823   14.3111   -5.5417 C   0  0  0  0  0  0  0  0  0  0  0  0
   43.5471   14.0235   -5.6220 C   0  0  0  0  0  0  0  0  0  0  0  0
   41.5671   15.4682   -5.1296 N   0  0  0  0  0  0  0  0  0  0  0  0
   42.3046   16.6633   -4.6854 C   0  0  0  0  0  0  0  0  0  0  0  0
   41.6887   17.9189   -5.3213 C   0  0  0  0  0  0  0  0  0  0  0  0
   40.8839   18.2137   -4.0638 C   0  0  0  0  0  0  0  0  0  0  0  0
   41.7441   17.1778   -3.3634 C   0  0  0  0  0  0  0  0  0  0  0  0
   39.5009   17.6703   -4.3265 C   0  0  0  0  0  0  0  0  0  0  0  0
   38.4988   18.5464   -4.0272 C   0  0  0  0  0  0  0  0  0  0  0  0
   37.1990   18.1282   -4.2386 C   0  0  0  0  0  0  0  0  0  0  0  0
   36.2224   19.0218   -3.9316 F   0  0  0  0  0  0  0  0  0  0  0  0
   41.2084   12.0879   -6.3635 C   0  0  0  0  0  0  0  0  0  0  0  0
   41.0957   11.7644   -7.7324 N   0  0  0  0  0  0  0  0  0  0  0  0
   41.4483   11.1465   -5.5670 O   0  0  0  0  0  0  0  0  0  0  0  0
   40.2565   11.2777   -8.0851 H   0  0  0  0  0  0  0  0  0  0  0  0
   41.8532   12.0127   -8.3915 H   0  0  0  0  0  0  0  0  0  0  0  0
   34.3942   16.1274   -5.1406 C   0  0  0  0  0  0  0  0  0  0  0  0
   35.5384   16.4640   -4.9444 C   0  0  0  0  0  0  0  0  0  0  0  0
   31.5858   15.3953   -8.8320 C   0  0  0  0  0  0  0  0  0  0  0  0
   32.0862   15.2513   -7.4910 N   0  0  0  0  0  0  0  0  0  0  0  0
   32.1196   13.9895   -6.7773 C   0  0  0  0  0  0  0  0  0  0  0  0
   32.9185   14.2302   -5.5203 C   0  0  0  0  0  0  0  0  0  0  0  0
   32.9942   15.7376   -5.3945 C   0  0  0  0  0  0  0  0  0  0  0  0
   32.1523   16.1206   -4.3693 O   0  0  0  0  0  0  0  0  0  0  0  0
   32.6048   16.2903   -6.6933 C   0  0  0  0  0  0  0  0  0  0  0  0
   32.7099   17.4847   -7.0488 O   0  0  0  0  0  0  0  0  0  0  0  0
   32.7433   16.2592   -3.5626 H   0  0  0  0  0  0  0  0  0  0  0  0
 25 26  1  0  0  0
 26 27  1  0  0  0
 27 28  1  0  0  0
 28 29  1  0  0  0
 29 30  1  0  0  0
 29 23  1  0  0  0
 23 24  3  0  0  0
 24  1  1  0  0  0
  1  2  1  0  0  0
  2  3  2  0  0  0
  3  4  1  0  0  0
  4  5  2  0  0  0
  5  6  1  0  0  0
  6 18  1  0  0  0
 18 19  1  0  0  0
 18 20  2  0  0  0
  6  7  2  0  0  0
  7  8  1  0  0  0
  7  9  1  0  0  0
  9 10  1  0  0  0
 10 11  1  0  0  0
 11 12  1  0  0  0
 12 13  1  0  0  0
 12 14  1  0  0  0
 14 15  2  0  0  0
 15 16  1  0  0  0
 16 17  1  0  0  0
 29 31  1  0  0  0
 31 32  2  0  0  0
 31 26  1  0  0  0
 16  1  2  0  0  0
 14  3  1  0  0  0
  9  4  1  0  0  0
 13 10  1  0  0  0
 30 33  1  0  0  0
 19 21  1  0  0  0
 19 22  1  0  0  0
M  END
> <minimizedAffinity>
-5.64229

> <CNNscore>
0.5049721003

> <CNNaffinity>
5.5486669540

> <CNN_VS>
2.8019220829

> <CNNaffinity_variance>
0.2622815669

$$$$
[H]O[C@]1(C#Cc2c([H])c3c(c([H])c2F)C2([H])C([H])([H])C([H])(n4c-3nc(C(=O)N([H])[H])c4C([H])([H])[H])C2([H])[H])C(=O)N(C([H])([H])[H])C([H])([H])C1([H])[H]


 33 37  0  0  0  0  0  0  0  0999 V2000
   41.6222   13.6683   -7.4914 C   0  0  0  0  0  0  0  0  0  0  0  0
   40.7075   14.6702   -7.7064 C   0  0  0  0  0  0  0  0  0  0  0  0
   39.7096   14.9183   -6.8165 C   0  0  0  0  0  0  0  0  0  0  0  0
   38.8191   16.0354   -7.2138 C   0  0  0  0  0  0  0  0  0  0  0  0
   38.9602   16.7801   -8.3111 N   0  0  0  0  0  0  0  0  0  0  0  0
   37.9719   17.6912   -8.3371 C   0  0  0  0  0  0  0  0  0  0  0  0
   37.2108   17.4858   -7.2153 C   0  0  0  0  0  0  0  0  0  0  0  0
   35.9963   18.2515   -6.7990 C   0  0  0  0  0  0  0  0  0  0  0  0
   37.7296   16.4708   -6.5263 N   0  0  0  0  0  0  0  0  0  0  0  0
   37.2330   15.9092   -5.2585 C   0  0  0  0  0  0  0  0  0  0  0  0
   37.2380   14.3748   -5.3338 C   0  0  0  0  0  0  0  0  0  0  0  0
   38.5669   14.2996   -4.5962 C   0  0  0  0  0  0  0  0  0  0  0  0
   38.3719   15.7655   -4.2540 C   0  0  0  0  0  0  0  0  0  0  0  0
   39.6194   14.1362   -5.6652 C   0  0  0  0  0  0  0  0  0  0  0  0
   40.5078   13.1316   -5.4143 C   0  0  0  0  0  0  0  0  0  0  0  0
   41.5060   12.9133   -6.3444 C   0  0  0  0  0  0  0  0  0  0  0  0
   42.3758   11.9065   -6.0680 F   0  0  0  0  0  0  0  0  0  0  0  0
   37.7281   18.7205   -9.3576 C   0  0  0  0  0  0  0  0  0  0  0  0
   37.2241   18.4085  -10.6382 N   0  0  0  0  0  0  0  0  0  0  0  0
   37.9668   19.9291   -9.1114 O   0  0  0  0  0  0  0  0  0  0  0  0
   37.8449   18.4339  -11.4626 H   0  0  0  0  0  0  0  0  0  0  0  0
   36.2293   18.1523  -10.7595 H   0  0  0  0  0  0  0  0  0  0  0  0
   43.5613   13.2320   -9.2380 C   0  0  0  0  0  0  0  0  0  0  0  0
   42.6693   13.4229   -8.4450 C   0  0  0  0  0  0  0  0  0  0  0  0
   47.8424   14.9632  -10.0895 C   0  0  0  0  0  0  0  0  0  0  0  0
   46.7772   13.9966  -10.0701 N   0  0  0  0  0  0  0  0  0  0  0  0
   46.9786   12.5846   -9.8089 C   0  0  0  0  0  0  0  0  0  0  0  0
   45.6060   11.9788   -9.6507 C   0  0  0  0  0  0  0  0  0  0  0  0
   44.6580   13.0232  -10.2025 C   0  0  0  0  0  0  0  0  0  0  0  0
   44.1986   12.5755  -11.4253 O   0  0  0  0  0  0  0  0  0  0  0  0
   45.4145   14.2733  -10.2967 C   0  0  0  0  0  0  0  0  0  0  0  0
   44.9420   15.4058  -10.5375 O   0  0  0  0  0  0  0  0  0  0  0  0
   43.2864   12.1797  -11.2505 H   0  0  0  0  0  0  0  0  0  0  0  0
 25 26  1  0  0  0
 26 27  1  0  0  0
 27 28  1  0  0  0
 28 29  1  0  0  0
 29 30  1  0  0  0
 29 23  1  0  0  0
 23 24  3  0  0  0
 24  1  1  0  0  0
  1  2  1  0  0  0
  2  3  2  0  0  0
  3  4  1  0  0  0
  4  5  2  0  0  0
  5  6  1  0  0  0
  6 18  1  0  0  0
 18 19  1  0  0  0
 18 20  2  0  0  0
  6  7  2  0  0  0
  7  8  1  0  0  0
  7  9  1  0  0  0
  9 10  1  0  0  0
 10 11  1  0  0  0
 11 12  1  0  0  0
 12 13  1  0  0  0
 12 14  1  0  0  0
 14 15  2  0  0  0
 15 16  1  0  0  0
 16 17  1  0  0  0
 29 31  1  0  0  0
 31 32  2  0  0  0
 31 26  1  0  0  0
 16  1  2  0  0  0
 14  3  1  0  0  0
  9  4  1  0  0  0
 13 10  1  0  0  0
 30 33  1  0  0  0
 19 21  1  0  0  0
 19 22  1  0  0  0
M  END
> <minimizedAffinity>
-5.75413

> <CNNscore>
0.4123657346

> <CNNaffinity>
5.4798111916

> <CNN_VS>
2.2596864700

> <CNNaffinity_variance>
0.6699330807

$$$$
[H]O[C@]1(C#Cc2c([H])c3c(c([H])c2F)C2([H])C([H])([H])C([H])(n4c-3nc(C(=O)N([H])[H])c4C([H])([H])[H])C2([H])[H])C(=O)N(C([H])([H])[H])C([H])([H])C1([H])[H]


 33 37  0  0  0  0  0  0  0  0999 V2000
   35.5175   14.4844  -12.9082 C   0  0  0  0  0  0  0  0  0  0  0  0
   36.2886   13.8546  -13.8545 C   0  0  0  0  0  0  0  0  0  0  0  0
   35.7521   12.9449  -14.7112 C   0  0  0  0  0  0  0  0  0  0  0  0
   36.7334   12.3690  -15.6622 C   0  0  0  0  0  0  0  0  0  0  0  0
   38.0226   12.7026  -15.7351 N   0  0  0  0  0  0  0  0  0  0  0  0
   38.5953   11.9772  -16.7114 C   0  0  0  0  0  0  0  0  0  0  0  0
   37.6147   11.1800  -17.2432 C   0  0  0  0  0  0  0  0  0  0  0  0
   37.7615   10.1954  -18.3584 C   0  0  0  0  0  0  0  0  0  0  0  0
   36.4731   11.4197  -16.6004 N   0  0  0  0  0  0  0  0  0  0  0  0
   35.1651   10.7873  -16.8426 C   0  0  0  0  0  0  0  0  0  0  0  0
   34.5181   10.4045  -15.5028 C   0  0  0  0  0  0  0  0  0  0  0  0
   33.6660   11.6654  -15.5045 C   0  0  0  0  0  0  0  0  0  0  0  0
   34.0717   11.8447  -16.9561 C   0  0  0  0  0  0  0  0  0  0  0  0
   34.3917   12.6507  -14.6215 C   0  0  0  0  0  0  0  0  0  0  0  0
   33.5914   13.2541  -13.6959 C   0  0  0  0  0  0  0  0  0  0  0  0
   34.1768   14.1720  -12.8451 C   0  0  0  0  0  0  0  0  0  0  0  0
   33.3553   14.7566  -11.9340 F   0  0  0  0  0  0  0  0  0  0  0  0
   39.9988   12.0096  -17.1468 C   0  0  0  0  0  0  0  0  0  0  0  0
   41.0415   12.4409  -16.2994 N   0  0  0  0  0  0  0  0  0  0  0  0
   40.3128   11.6472  -18.3079 O   0  0  0  0  0  0  0  0  0  0  0  0
   41.4849   13.3615  -16.4461 H   0  0  0  0  0  0  0  0  0  0  0  0
   41.3687   11.8374  -15.5256 H   0  0  0  0  0  0  0  0  0  0  0  0
   36.5936   16.2363  -11.2427 C   0  0  0  0  0  0  0  0  0  0  0  0
   36.1047   15.4429  -12.0124 C   0  0  0  0  0  0  0  0  0  0  0  0
   37.1445   16.6353   -6.5965 C   0  0  0  0  0  0  0  0  0  0  0  0
   37.4337   16.8275   -7.9925 N   0  0  0  0  0  0  0  0  0  0  0  0
   38.7760   16.8365   -8.5408 C   0  0  0  0  0  0  0  0  0  0  0  0
   38.6249   16.8309  -10.0419 C   0  0  0  0  0  0  0  0  0  0  0  0
   37.1751   17.1957  -10.2846 C   0  0  0  0  0  0  0  0  0  0  0  0
   37.1373   18.4925  -10.7575 O   0  0  0  0  0  0  0  0  0  0  0  0
   36.4780   17.0303   -9.0076 C   0  0  0  0  0  0  0  0  0  0  0  0
   35.2401   17.0615   -8.8328 O   0  0  0  0  0  0  0  0  0  0  0  0
   37.0417   18.4192  -11.7599 H   0  0  0  0  0  0  0  0  0  0  0  0
 25 26  1  0  0  0
 26 27  1  0  0  0
 27 28  1  0  0  0
 28 29  1  0  0  0
 29 30  1  0  0  0
 29 23  1  0  0  0
 23 24  3  0  0  0
 24  1  1  0  0  0
  1  2  1  0  0  0
  2  3  2  0  0  0
  3  4  1  0  0  0
  4  5  2  0  0  0
  5  6  1  0  0  0
  6 18  1  0  0  0
 18 19  1  0  0  0
 18 20  2  0  0  0
  6  7  2  0  0  0
  7  8  1  0  0  0
  7  9  1  0  0  0
  9 10  1  0  0  0
 10 11  1  0  0  0
 11 12  1  0  0  0
 12 13  1  0  0  0
 12 14  1  0  0  0
 14 15  2  0  0  0
 15 16  1  0  0  0
 16 17  1  0  0  0
 29 31  1  0  0  0
 31 32  2  0  0  0
 31 26  1  0  0  0
 16  1  2  0  0  0
 14  3  1  0  0  0
  9  4  1  0  0  0
 13 10  1  0  0  0
 30 33  1  0  0  0
 19 21  1  0  0  0
 19 22  1  0  0  0
M  END
> <minimizedAffinity>
-8.73073

> <CNNscore>
0.3815572560

> <CNNaffinity>
6.8993287086

> <CNN_VS>
2.6324889660

> <CNNaffinity_variance>
0.2552149892

$$$$
[H]O[C@]1(C#Cc2c([H])c3c(c([H])c2F)C2([H])C([H])([H])C([H])(n4c-3nc(C(=O)N([H])[H])c4C([H])([H])[H])C2([H])[H])C(=O)N(C([H])([H])[H])C([H])([H])C1([H])[H]


 33 37  0  0  0  0  0  0  0  0999 V2000
   42.3124   13.7712  -14.1965 C   0  0  0  0  0  0  0  0  0  0  0  0
   40.9738   13.5293  -14.3871 C   0  0  0  0  0  0  0  0  0  0  0  0
   40.5236   12.8851  -15.4968 C   0  0  0  0  0  0  0  0  0  0  0  0
   39.0512   12.7130  -15.5315 C   0  0  0  0  0  0  0  0  0  0  0  0
   38.2073   13.1032  -14.5754 N   0  0  0  0  0  0  0  0  0  0  0  0
   36.9579   12.7817  -14.9534 C   0  0  0  0  0  0  0  0  0  0  0  0
   37.0556   12.1770  -16.1800 C   0  0  0  0  0  0  0  0  0  0  0  0
   35.9347   11.6405  -17.0110 C   0  0  0  0  0  0  0  0  0  0  0  0
   38.3387   12.1346  -16.5350 N   0  0  0  0  0  0  0  0  0  0  0  0
   38.9013   11.5734  -17.7751 C   0  0  0  0  0  0  0  0  0  0  0  0
   39.9490   12.5377  -18.3520 C   0  0  0  0  0  0  0  0  0  0  0  0
   41.0874   11.7412  -17.7311 C   0  0  0  0  0  0  0  0  0  0  0  0
   40.0713   10.6465  -17.4609 C   0  0  0  0  0  0  0  0  0  0  0  0
   41.4449   12.4646  -16.4559 C   0  0  0  0  0  0  0  0  0  0  0  0
   42.7827   12.6853  -16.3045 C   0  0  0  0  0  0  0  0  0  0  0  0
   43.1972   13.3432  -15.1624 C   0  0  0  0  0  0  0  0  0  0  0  0
   44.5348   13.5489  -15.0389 F   0  0  0  0  0  0  0  0  0  0  0  0
   35.7088   13.0203  -14.2163 C   0  0  0  0  0  0  0  0  0  0  0  0
   34.9559   14.2037  -14.3711 N   0  0  0  0  0  0  0  0  0  0  0  0
   35.2703   12.1597  -13.4130 O   0  0  0  0  0  0  0  0  0  0  0  0
   34.9572   14.9225  -13.6302 H   0  0  0  0  0  0  0  0  0  0  0  0
   34.3976   14.3588  -15.2280 H   0  0  0  0  0  0  0  0  0  0  0  0
   43.1293   15.0282  -12.0161 C   0  0  0  0  0  0  0  0  0  0  0  0
   42.7669   14.4539  -13.0160 C   0  0  0  0  0  0  0  0  0  0  0  0
   41.6324   15.5556   -7.5967 C   0  0  0  0  0  0  0  0  0  0  0  0
   42.5701   15.4920   -8.6857 N   0  0  0  0  0  0  0  0  0  0  0  0
   43.8888   14.8988   -8.5767 C   0  0  0  0  0  0  0  0  0  0  0  0
   44.4437   14.8292   -9.9779 C   0  0  0  0  0  0  0  0  0  0  0  0
   43.5478   15.7387  -10.7928 C   0  0  0  0  0  0  0  0  0  0  0  0
   44.2560   16.8899  -11.0750 O   0  0  0  0  0  0  0  0  0  0  0  0
   42.3502   15.9850   -9.9870 C   0  0  0  0  0  0  0  0  0  0  0  0
   41.2994   16.5398  -10.3769 O   0  0  0  0  0  0  0  0  0  0  0  0
   44.6026   16.7781  -12.0167 H   0  0  0  0  0  0  0  0  0  0  0  0
 25 26  1  0  0  0
 26 27  1  0  0  0
 27 28  1  0  0  0
 28 29  1  0  0  0
 29 30  1  0  0  0
 29 23  1  0  0  0
 23 24  3  0  0  0
 24  1  1  0  0  0
  1  2  1  0  0  0
  2  3  2  0  0  0
  3  4  1  0  0  0
  4  5  2  0  0  0
  5  6  1  0  0  0
  6 18  1  0  0  0
 18 19  1  0  0  0
 18 20  2  0  0  0
  6  7  2  0  0  0
  7  8  1  0  0  0
  7  9  1  0  0  0
  9 10  1  0  0  0
 10 11  1  0  0  0
 11 12  1  0  0  0
 12 13  1  0  0  0
 12 14  1  0  0  0
 14 15  2  0  0  0
 15 16  1  0  0  0
 16 17  1  0  0  0
 29 31  1  0  0  0
 31 32  2  0  0  0
 31 26  1  0  0  0
 16  1  2  0  0  0
 14  3  1  0  0  0
  9  4  1  0  0  0
 13 10  1  0  0  0
 30 33  1  0  0  0
 19 21  1  0  0  0
 19 22  1  0  0  0
M  END
> <minimizedAffinity>
-8.76637

> <CNNscore>
0.3201146126

> <CNNaffinity>
6.6907577515

> <CNN_VS>
2.1418092251

> <CNNaffinity_variance>
0.3282850385

$$$$
[H]O[C@]1(C#Cc2c([H])c3c(c([H])c2F)C2([H])C([H])([H])C([H])(n4c-3nc(C(=O)N([H])[H])c4C([H])([H])[H])C2([H])[H])C(=O)N(C([H])([H])[H])C([H])([H])C1([H])[H]


 33 37  0  0  0  0  0  0  0  0999 V2000
   40.7154   13.7162   -6.9130 C   0  0  0  0  0  0  0  0  0  0  0  0
   41.8325   13.5737   -7.6995 C   0  0  0  0  0  0  0  0  0  0  0  0
   42.8936   12.8282   -7.2905 C   0  0  0  0  0  0  0  0  0  0  0  0
   44.0076   12.7880   -8.2684 C   0  0  0  0  0  0  0  0  0  0  0  0
   44.0054   13.3802   -9.4633 N   0  0  0  0  0  0  0  0  0  0  0  0
   45.1796   13.1256  -10.0666 C   0  0  0  0  0  0  0  0  0  0  0  0
   45.9123   12.3530   -9.2028 C   0  0  0  0  0  0  0  0  0  0  0  0
   47.2885   11.8129   -9.4245 C   0  0  0  0  0  0  0  0  0  0  0  0
   45.1944   12.1458   -8.1002 N   0  0  0  0  0  0  0  0  0  0  0  0
   45.5915   11.3721   -6.9115 C   0  0  0  0  0  0  0  0  0  0  0  0
   45.2206   12.1492   -5.6391 C   0  0  0  0  0  0  0  0  0  0  0  0
   43.9405   11.3441   -5.4685 C   0  0  0  0  0  0  0  0  0  0  0  0
   44.4899   10.3937   -6.5167 C   0  0  0  0  0  0  0  0  0  0  0  0
   42.8396   12.1988   -6.0470 C   0  0  0  0  0  0  0  0  0  0  0  0
   41.7487   12.3150   -5.2359 C   0  0  0  0  0  0  0  0  0  0  0  0
   40.6928   13.0818   -5.6899 C   0  0  0  0  0  0  0  0  0  0  0  0
   39.6205   13.1795   -4.8609 F   0  0  0  0  0  0  0  0  0  0  0  0
   45.6214   13.5752  -11.3944 C   0  0  0  0  0  0  0  0  0  0  0  0
   45.5512   12.7455  -12.5336 N   0  0  0  0  0  0  0  0  0  0  0  0
   46.0823   14.7331  -11.5527 O   0  0  0  0  0  0  0  0  0  0  0  0
   46.4094   12.3291  -12.9284 H   0  0  0  0  0  0  0  0  0  0  0  0
   44.6395   12.5489  -12.9809 H   0  0  0  0  0  0  0  0  0  0  0  0
   38.6662   15.1607   -7.7588 C   0  0  0  0  0  0  0  0  0  0  0  0
   39.6046   14.5089   -7.3646 C   0  0  0  0  0  0  0  0  0  0  0  0
   37.7424   19.5982   -8.9860 C   0  0  0  0  0  0  0  0  0  0  0  0
   37.6197   18.1649   -8.9832 N   0  0  0  0  0  0  0  0  0  0  0  0
   37.3748   17.3774  -10.1759 C   0  0  0  0  0  0  0  0  0  0  0  0
   37.5476   15.9326   -9.7774 C   0  0  0  0  0  0  0  0  0  0  0  0
   37.5228   15.9449   -8.2631 C   0  0  0  0  0  0  0  0  0  0  0  0
   36.3117   15.4226   -7.8543 O   0  0  0  0  0  0  0  0  0  0  0  0
   37.7169   17.3357   -7.8484 C   0  0  0  0  0  0  0  0  0  0  0  0
   37.9341   17.7352   -6.6834 O   0  0  0  0  0  0  0  0  0  0  0  0
   36.4936   14.4603   -7.6090 H   0  0  0  0  0  0  0  0  0  0  0  0
 25 26  1  0  0  0
 26 27  1  0  0  0
 27 28  1  0  0  0
 28 29  1  0  0  0
 29 30  1  0  0  0
 29 23  1  0  0  0
 23 24  3  0  0  0
 24  1  1  0  0  0
  1  2  1  0  0  0
  2  3  2  0  0  0
  3  4  1  0  0  0
  4  5  2  0  0  0
  5  6  1  0  0  0
  6 18  1  0  0  0
 18 19  1  0  0  0
 18 20  2  0  0  0
  6  7  2  0  0  0
  7  8  1  0  0  0
  7  9  1  0  0  0
  9 10  1  0  0  0
 10 11  1  0  0  0
 11 12  1  0  0  0
 12 13  1  0  0  0
 12 14  1  0  0  0
 14 15  2  0  0  0
 15 16  1  0  0  0
 16 17  1  0  0  0
 29 31  1  0  0  0
 31 32  2  0  0  0
 31 26  1  0  0  0
 16  1  2  0  0  0
 14  3  1  0  0  0
  9  4  1  0  0  0
 13 10  1  0  0  0
 30 33  1  0  0  0
 19 21  1  0  0  0
 19 22  1  0  0  0
M  END
> <minimizedAffinity>
-5.13848

> <CNNscore>
0.3186732233

> <CNNaffinity>
5.3247900009

> <CNN_VS>
1.6968679428

> <CNNaffinity_variance>
0.3507286012

$$$$
[H]O[C@]1(C#Cc2c([H])c3c(c([H])c2F)C2([H])C([H])([H])C([H])(n4c-3nc(C(=O)N([H])[H])c4C([H])([H])[H])C2([H])[H])C(=O)N(C([H])([H])[H])C([H])([H])C1([H])[H]


 33 37  0  0  0  0  0  0  0  0999 V2000
   40.8618   12.3272  -16.5018 C   0  0  0  0  0  0  0  0  0  0  0  0
   39.6731   12.5439  -15.8485 C   0  0  0  0  0  0  0  0  0  0  0  0
   38.5043   12.0347  -16.3216 C   0  0  0  0  0  0  0  0  0  0  0  0
   37.3254   12.3702  -15.4870 C   0  0  0  0  0  0  0  0  0  0  0  0
   37.3588   13.0714  -14.3531 N   0  0  0  0  0  0  0  0  0  0  0  0
   36.1050   13.1735  -13.8788 C   0  0  0  0  0  0  0  0  0  0  0  0
   35.2903   12.5098  -14.7595 C   0  0  0  0  0  0  0  0  0  0  0  0
   33.8078   12.3433  -14.6641 C   0  0  0  0  0  0  0  0  0  0  0  0
   36.0379   12.0171  -15.7457 N   0  0  0  0  0  0  0  0  0  0  0  0
   35.5781   11.2362  -16.9068 C   0  0  0  0  0  0  0  0  0  0  0  0
   36.2550   11.7577  -18.1835 C   0  0  0  0  0  0  0  0  0  0  0  0
   37.3026   10.6553  -18.1303 C   0  0  0  0  0  0  0  0  0  0  0  0
   36.4325    9.9849  -17.0829 C   0  0  0  0  0  0  0  0  0  0  0  0
   38.5205   11.2787  -17.4936 C   0  0  0  0  0  0  0  0  0  0  0  0
   39.6798   11.0404  -18.1723 C   0  0  0  0  0  0  0  0  0  0  0  0
   40.8444   11.5762  -17.6570 C   0  0  0  0  0  0  0  0  0  0  0  0
   41.9830   11.3225  -18.3542 F   0  0  0  0  0  0  0  0  0  0  0  0
   35.6620   13.8584  -12.6561 C   0  0  0  0  0  0  0  0  0  0  0  0
   34.9291   15.0638  -12.6902 N   0  0  0  0  0  0  0  0  0  0  0  0
   35.9298   13.3790  -11.5262 O   0  0  0  0  0  0  0  0  0  0  0  0
   35.3829   15.9566  -12.4402 H   0  0  0  0  0  0  0  0  0  0  0  0
   33.9320   15.0608  -12.9658 H   0  0  0  0  0  0  0  0  0  0  0  0
   43.1199   13.3163  -15.5404 C   0  0  0  0  0  0  0  0  0  0  0  0
   42.0860   12.8747  -15.9843 C   0  0  0  0  0  0  0  0  0  0  0  0
   45.2541   13.5513  -11.3643 C   0  0  0  0  0  0  0  0  0  0  0  0
   45.1349   13.4899  -12.7965 N   0  0  0  0  0  0  0  0  0  0  0  0
   46.0341   12.7329  -13.6457 C   0  0  0  0  0  0  0  0  0  0  0  0
   45.4290   12.7450  -15.0277 C   0  0  0  0  0  0  0  0  0  0  0  0
   44.3811   13.8375  -14.9800 C   0  0  0  0  0  0  0  0  0  0  0  0
   44.8616   14.9176  -15.6935 O   0  0  0  0  0  0  0  0  0  0  0  0
   44.1505   14.1407  -13.5662 C   0  0  0  0  0  0  0  0  0  0  0  0
   43.2352   14.8570  -13.1046 O   0  0  0  0  0  0  0  0  0  0  0  0
   44.4263   14.8647  -16.6029 H   0  0  0  0  0  0  0  0  0  0  0  0
 25 26  1  0  0  0
 26 27  1  0  0  0
 27 28  1  0  0  0
 28 29  1  0  0  0
 29 30  1  0  0  0
 29 23  1  0  0  0
 23 24  3  0  0  0
 24  1  1  0  0  0
  1  2  1  0  0  0
  2  3  2  0  0  0
  3  4  1  0  0  0
  4  5  2  0  0  0
  5  6  1  0  0  0
  6 18  1  0  0  0
 18 19  1  0  0  0
 18 20  2  0  0  0
  6  7  2  0  0  0
  7  8  1  0  0  0
  7  9  1  0  0  0
  9 10  1  0  0  0
 10 11  1  0  0  0
 11 12  1  0  0  0
 12 13  1  0  0  0
 12 14  1  0  0  0
 14 15  2  0  0  0
 15 16  1  0  0  0
 16 17  1  0  0  0
 29 31  1  0  0  0
 31 32  2  0  0  0
 31 26  1  0  0  0
 16  1  2  0  0  0
 14  3  1  0  0  0
  9  4  1  0  0  0
 13 10  1  0  0  0
 30 33  1  0  0  0
 19 21  1  0  0  0
 19 22  1  0  0  0
M  END
> <minimizedAffinity>
-10.04981

> <CNNscore>
0.3040071428

> <CNNaffinity>
6.7865638733

> <CNN_VS>
2.0631639957

> <CNNaffinity_variance>
0.1487627327

$$$$
[H]O[C@]1(C#Cc2c([H])c3c(c([H])c2F)C2([H])C([H])([H])C([H])(n4c-3nc(C(=O)N([H])[H])c4C([H])([H])[H])C2([H])[H])C(=O)N(C([H])([H])[H])C([H])([H])C1([H])[H]


 33 37  0  0  0  0  0  0  0  0999 V2000
   40.7241   12.7874  -15.6357 C   0  0  0  0  0  0  0  0  0  0  0  0
   39.3692   12.7147  -15.4222 C   0  0  0  0  0  0  0  0  0  0  0  0
   38.5540   12.0452  -16.2803 C   0  0  0  0  0  0  0  0  0  0  0  0
   37.1237   12.0730  -15.8897 C   0  0  0  0  0  0  0  0  0  0  0  0
   36.6358   12.6550  -14.7935 N   0  0  0  0  0  0  0  0  0  0  0  0
   35.3035   12.4755  -14.7736 C   0  0  0  0  0  0  0  0  0  0  0  0
   34.9808   11.7603  -15.8979 C   0  0  0  0  0  0  0  0  0  0  0  0
   33.6183   11.3124  -16.3195 C   0  0  0  0  0  0  0  0  0  0  0  0
   36.0962   11.5133  -16.5827 N   0  0  0  0  0  0  0  0  0  0  0  0
   36.2169   10.7766  -17.8524 C   0  0  0  0  0  0  0  0  0  0  0  0
   37.1519   11.5362  -18.8058 C   0  0  0  0  0  0  0  0  0  0  0  0
   38.3287   10.6482  -18.4288 C   0  0  0  0  0  0  0  0  0  0  0  0
   37.3220    9.7293  -17.7610 C   0  0  0  0  0  0  0  0  0  0  0  0
   39.1116   11.4226  -17.3969 C   0  0  0  0  0  0  0  0  0  0  0  0
   40.4522   11.4711  -17.6451 C   0  0  0  0  0  0  0  0  0  0  0  0
   41.2442   12.1618  -16.7480 C   0  0  0  0  0  0  0  0  0  0  0  0
   42.5751   12.1932  -17.0209 F   0  0  0  0  0  0  0  0  0  0  0  0
   34.3509   12.9442  -13.7571 C   0  0  0  0  0  0  0  0  0  0  0  0
   33.1061   13.5157  -14.0967 N   0  0  0  0  0  0  0  0  0  0  0  0
   34.6256   12.8464  -12.5352 O   0  0  0  0  0  0  0  0  0  0  0  0
   32.9565   14.5326  -14.0013 H   0  0  0  0  0  0  0  0  0  0  0  0
   32.3352   12.9194  -14.4433 H   0  0  0  0  0  0  0  0  0  0  0  0
   42.2940   14.0952  -13.9545 C   0  0  0  0  0  0  0  0  0  0  0  0
   41.5678   13.5004  -14.7159 C   0  0  0  0  0  0  0  0  0  0  0  0
   42.0626   16.2193   -9.7731 C   0  0  0  0  0  0  0  0  0  0  0  0
   42.6546   15.5030  -10.8711 N   0  0  0  0  0  0  0  0  0  0  0  0
   43.6179   14.4319  -10.7053 C   0  0  0  0  0  0  0  0  0  0  0  0
   43.8020   13.8078  -12.0665 C   0  0  0  0  0  0  0  0  0  0  0  0
   43.2002   14.8065  -13.0330 C   0  0  0  0  0  0  0  0  0  0  0  0
   44.2368   15.4300  -13.6989 O   0  0  0  0  0  0  0  0  0  0  0  0
   42.3917   15.7315  -12.2362 C   0  0  0  0  0  0  0  0  0  0  0  0
   41.5956   16.5873  -12.6809 O   0  0  0  0  0  0  0  0  0  0  0  0
   44.3111   14.9657  -14.5924 H   0  0  0  0  0  0  0  0  0  0  0  0
 25 26  1  0  0  0
 26 27  1  0  0  0
 27 28  1  0  0  0
 28 29  1  0  0  0
 29 30  1  0  0  0
 29 23  1  0  0  0
 23 24  3  0  0  0
 24  1  1  0  0  0
  1  2  1  0  0  0
  2  3  2  0  0  0
  3  4  1  0  0  0
  4  5  2  0  0  0
  5  6  1  0  0  0
  6 18  1  0  0  0
 18 19  1  0  0  0
 18 20  2  0  0  0
  6  7  2  0  0  0
  7  8  1  0  0  0
  7  9  1  0  0  0
  9 10  1  0  0  0
 10 11  1  0  0  0
 11 12  1  0  0  0
 12 13  1  0  0  0
 12 14  1  0  0  0
 14 15  2  0  0  0
 15 16  1  0  0  0
 16 17  1  0  0  0
 29 31  1  0  0  0
 31 32  2  0  0  0
 31 26  1  0  0  0
 16  1  2  0  0  0
 14  3  1  0  0  0
  9  4  1  0  0  0
 13 10  1  0  0  0
 30 33  1  0  0  0
 19 21  1  0  0  0
 19 22  1  0  0  0
M  END
> <minimizedAffinity>
-9.39174

> <CNNscore>
0.3037213385

> <CNNaffinity>
6.9081192017

> <CNN_VS>
2.0981431007

> <CNNaffinity_variance>
0.1199100167

$$$$
[H]O[C@]1(C#Cc2c([H])c3c(c([H])c2F)C2([H])C([H])([H])C([H])(n4c-3nc(C(=O)N([H])[H])c4C([H])([H])[H])C2([H])[H])C(=O)N(C([H])([H])[H])C([H])([H])C1([H])[H]


 33 37  0  0  0  0  0  0  0  0999 V2000
   42.0754   14.2022   -8.2641 C   0  0  0  0  0  0  0  0  0  0  0  0
   42.7580   14.0296   -9.4435 C   0  0  0  0  0  0  0  0  0  0  0  0
   43.9531   13.3818   -9.4795 C   0  0  0  0  0  0  0  0  0  0  0  0
   44.5423   13.2904  -10.8372 C   0  0  0  0  0  0  0  0  0  0  0  0
   43.9786   13.7521  -11.9542 N   0  0  0  0  0  0  0  0  0  0  0  0
   44.8006   13.4901  -12.9853 C   0  0  0  0  0  0  0  0  0  0  0  0
   45.8964   12.8483  -12.4685 C   0  0  0  0  0  0  0  0  0  0  0  0
   47.0880   12.3526  -13.2229 C   0  0  0  0  0  0  0  0  0  0  0  0
   45.7387   12.7256  -11.1516 N   0  0  0  0  0  0  0  0  0  0  0  0
   46.6711   12.1013  -10.1976 C   0  0  0  0  0  0  0  0  0  0  0  0
   46.8118   12.9904   -8.9526 C   0  0  0  0  0  0  0  0  0  0  0  0
   45.8029   12.1491   -8.1845 C   0  0  0  0  0  0  0  0  0  0  0  0
   45.9336   11.1198   -9.2923 C   0  0  0  0  0  0  0  0  0  0  0  0
   44.4901   12.8855   -8.2917 C   0  0  0  0  0  0  0  0  0  0  0  0
   43.8440   13.0359   -7.0996 C   0  0  0  0  0  0  0  0  0  0  0  0
   42.6325   13.7003   -7.1079 C   0  0  0  0  0  0  0  0  0  0  0  0
   42.0123   13.8350   -5.9063 F   0  0  0  0  0  0  0  0  0  0  0  0
   44.5924   13.8170  -14.4032 C   0  0  0  0  0  0  0  0  0  0  0  0
   45.2594   14.8873  -15.0362 N   0  0  0  0  0  0  0  0  0  0  0  0
   43.7994   13.1384  -15.1023 O   0  0  0  0  0  0  0  0  0  0  0  0
   44.7501   15.7552  -15.2664 H   0  0  0  0  0  0  0  0  0  0  0  0
   46.2631   14.8094  -15.2739 H   0  0  0  0  0  0  0  0  0  0  0  0
   39.7444   15.4534   -8.2226 C   0  0  0  0  0  0  0  0  0  0  0  0
   40.8134   14.8900   -8.2485 C   0  0  0  0  0  0  0  0  0  0  0  0
   37.8464   19.3461   -6.4074 C   0  0  0  0  0  0  0  0  0  0  0  0
   38.0151   18.2500   -7.3235 N   0  0  0  0  0  0  0  0  0  0  0  0
   37.8333   18.3663   -8.7574 C   0  0  0  0  0  0  0  0  0  0  0  0
   38.3262   17.0728   -9.3574 C   0  0  0  0  0  0  0  0  0  0  0  0
   38.4281   16.1186   -8.1856 C   0  0  0  0  0  0  0  0  0  0  0  0
   37.3859   15.2178   -8.2802 O   0  0  0  0  0  0  0  0  0  0  0  0
   38.3731   16.9339   -6.9706 C   0  0  0  0  0  0  0  0  0  0  0  0
   38.6036   16.5400   -5.8063 O   0  0  0  0  0  0  0  0  0  0  0  0
   37.7777   14.3829   -8.6910 H   0  0  0  0  0  0  0  0  0  0  0  0
 25 26  1  0  0  0
 26 27  1  0  0  0
 27 28  1  0  0  0
 28 29  1  0  0  0
 29 30  1  0  0  0
 29 23  1  0  0  0
 23 24  3  0  0  0
 24  1  1  0  0  0
  1  2  1  0  0  0
  2  3  2  0  0  0
  3  4  1  0  0  0
  4  5  2  0  0  0
  5  6  1  0  0  0
  6 18  1  0  0  0
 18 19  1  0  0  0
 18 20  2  0  0  0
  6  7  2  0  0  0
  7  8  1  0  0  0
  7  9  1  0  0  0
  9 10  1  0  0  0
 10 11  1  0  0  0
 11 12  1  0  0  0
 12 13  1  0  0  0
 12 14  1  0  0  0
 14 15  2  0  0  0
 15 16  1  0  0  0
 16 17  1  0  0  0
 29 31  1  0  0  0
 31 32  2  0  0  0
 31 26  1  0  0  0
 16  1  2  0  0  0
 14  3  1  0  0  0
  9  4  1  0  0  0
 13 10  1  0  0  0
 30 33  1  0  0  0
 19 21  1  0  0  0
 19 22  1  0  0  0
M  END
> <minimizedAffinity>
-5.04984

> <CNNscore>
0.2848328948

> <CNNaffinity>
5.4607143402

> <CNN_VS>
1.5553910732

> <CNNaffinity_variance>
0.6133274436

$$$$
[H]OC(C#Cc1c([H])c2c(c([H])c1F)OC([H])([H])C([H])([H])n1c-2nc(C(=O)N([H])[H])c1[C@]([H])(O[H])c1c([H])nn(C([H])([H])[H])c1[H])(C([H])([H])[H])C([H])([H])[H]


 36 39  0  0  0  0  0  0  0  0999 V2000
   39.0809   15.2268   -4.9398 C   0  0  0  0  0  0  0  0  0  0  0  0
   38.8801   14.7392   -6.2094 C   0  0  0  0  0  0  0  0  0  0  0  0
   39.9981   15.1898   -6.9142 N   0  0  0  0  0  0  0  0  0  0  0  0
   40.7865   15.8859   -6.1152 C   0  0  0  0  0  0  0  0  0  0  0  0
   42.0651   16.4892   -6.5580 C   0  0  0  0  0  0  0  0  0  0  0  0
   42.3444   16.2030   -7.8783 C   0  0  0  0  0  0  0  0  0  0  0  0
   43.5021   16.6632   -8.4914 C   0  0  0  0  0  0  0  0  0  0  0  0
   44.3573   17.4224   -7.7067 C   0  0  0  0  0  0  0  0  0  0  0  0
   45.4911   17.8711   -8.3115 F   0  0  0  0  0  0  0  0  0  0  0  0
   44.0973   17.7182   -6.3911 C   0  0  0  0  0  0  0  0  0  0  0  0
   42.9411   17.2485   -5.8099 C   0  0  0  0  0  0  0  0  0  0  0  0
   42.7452   17.5869   -4.4810 O   0  0  0  0  0  0  0  0  0  0  0  0
   41.5185   17.7900   -3.8237 C   0  0  0  0  0  0  0  0  0  0  0  0
   40.6734   16.5524   -3.6628 C   0  0  0  0  0  0  0  0  0  0  0  0
   40.2606   15.9366   -4.8865 N   0  0  0  0  0  0  0  0  0  0  0  0
   37.8393   13.9617   -6.8360 C   0  0  0  0  0  0  0  0  0  0  0  0
   36.9414   14.3821   -7.7870 N   0  0  0  0  0  0  0  0  0  0  0  0
   37.7384   12.7349   -6.4658 O   0  0  0  0  0  0  0  0  0  0  0  0
   37.1815   14.4431   -8.7971 H   0  0  0  0  0  0  0  0  0  0  0  0
   35.9406   14.6575   -7.5515 H   0  0  0  0  0  0  0  0  0  0  0  0
   38.1754   15.0176   -3.7702 C   0  0  0  0  0  0  0  0  0  0  0  0
   37.9904   13.6550   -3.5914 O   0  0  0  0  0  0  0  0  0  0  0  0
   37.9223   13.4123   -2.6374 H   0  0  0  0  0  0  0  0  0  0  0  0
   33.2455   15.7209   -4.2252 C   0  0  0  0  0  0  0  0  0  0  0  0
   34.6898   15.9462   -4.1184 N   0  0  0  0  0  0  0  0  0  0  0  0
   35.6496   15.0246   -3.9825 C   0  0  0  0  0  0  0  0  0  0  0  0
   36.8788   15.6807   -3.9197 C   0  0  0  0  0  0  0  0  0  0  0  0
   36.5952   17.0188   -4.0244 C   0  0  0  0  0  0  0  0  0  0  0  0
   35.2712   17.1441   -4.1424 N   0  0  0  0  0  0  0  0  0  0  0  0
   43.7760   16.3559   -9.8671 C   0  0  0  0  0  0  0  0  0  0  0  0
   43.9892   16.1092  -11.0287 C   0  0  0  0  0  0  0  0  0  0  0  0
   44.2304   15.8205  -12.4623 C   0  0  0  0  0  0  0  0  0  0  0  0
   44.5863   17.1230  -13.1912 C   0  0  0  0  0  0  0  0  0  0  0  0
   45.4431   14.9186  -12.5205 C   0  0  0  0  0  0  0  0  0  0  0  0
   43.1029   15.2280  -12.9934 O   0  0  0  0  0  0  0  0  0  0  0  0
   42.8287   15.7619  -13.7918 H   0  0  0  0  0  0  0  0  0  0  0  0
 24 25  1  0  0  0
 25 26  1  0  0  0
 26 27  2  0  0  0
 27 28  1  0  0  0
 28 29  2  0  0  0
 27 21  1  0  0  0
 21 22  1  0  0  0
 21  1  1  0  0  0
  1  2  2  0  0  0
  2  3  1  0  0  0
  3  4  2  0  0  0
  4  5  1  0  0  0
  5  6  2  0  0  0
  6  7  1  0  0  0
  7 30  1  0  0  0
 30 31  3  0  0  0
 31 32  1  0  0  0
 32 33  1  0  0  0
 32 34  1  0  0  0
 32 35  1  0  0  0
  7  8  2  0  0  0
  8  9  1  0  0  0
  8 10  1  0  0  0
 10 11  2  0  0  0
 11 12  1  0  0  0
 12 13  1  0  0  0
 13 14  1  0  0  0
 14 15  1  0  0  0
  2 16  1  0  0  0
 16 17  1  0  0  0
 16 18  2  0  0  0
 29 25  1  0  0  0
 15  1  1  0  0  0
 15  4  1  0  0  0
 11  5  1  0  0  0
 22 23  1  0  0  0
 35 36  1  0  0  0
 17 19  1  0  0  0
 17 20  1  0  0  0
M  END
> <minimizedAffinity>
-5.47174

> <CNNscore>
0.3689744771

> <CNNaffinity>
5.3764410019

> <CNN_VS>
1.9837695360

> <CNNaffinity_variance>
0.4498244822

$$$$
[H]OC(C#Cc1c([H])c2c(c([H])c1F)OC([H])([H])C([H])([H])n1c-2nc(C(=O)N([H])[H])c1[C@]([H])(O[H])c1c([H])nn(C([H])([H])[H])c1[H])(C([H])([H])[H])C([H])([H])[H]


 36 39  0  0  0  0  0  0  0  0999 V2000
   37.4140   16.5345   -8.4369 C   0  0  0  0  0  0  0  0  0  0  0  0
   37.8757   15.4210   -9.0980 C   0  0  0  0  0  0  0  0  0  0  0  0
   38.9958   15.0404   -8.3562 N   0  0  0  0  0  0  0  0  0  0  0  0
   39.1710   15.8697   -7.3433 C   0  0  0  0  0  0  0  0  0  0  0  0
   40.2677   15.7287   -6.3571 C   0  0  0  0  0  0  0  0  0  0  0  0
   41.0464   14.6168   -6.6022 C   0  0  0  0  0  0  0  0  0  0  0  0
   42.1237   14.2917   -5.7887 C   0  0  0  0  0  0  0  0  0  0  0  0
   42.3715   15.1424   -4.7218 C   0  0  0  0  0  0  0  0  0  0  0  0
   43.4281   14.8199   -3.9267 F   0  0  0  0  0  0  0  0  0  0  0  0
   41.6083   16.2539   -4.4611 C   0  0  0  0  0  0  0  0  0  0  0  0
   40.5465   16.5515   -5.2853 C   0  0  0  0  0  0  0  0  0  0  0  0
   39.8227   17.6875   -4.9618 O   0  0  0  0  0  0  0  0  0  0  0  0
   39.1422   18.5460   -5.8438 C   0  0  0  0  0  0  0  0  0  0  0  0
   37.9399   17.9375   -6.5188 C   0  0  0  0  0  0  0  0  0  0  0  0
   38.2191   16.8092   -7.3531 N   0  0  0  0  0  0  0  0  0  0  0  0
   37.4523   14.7010  -10.2738 C   0  0  0  0  0  0  0  0  0  0  0  0
   38.1444   14.5435  -11.4501 N   0  0  0  0  0  0  0  0  0  0  0  0
   36.2970   14.1403  -10.2179 O   0  0  0  0  0  0  0  0  0  0  0  0
   38.8933   13.8318  -11.5693 H   0  0  0  0  0  0  0  0  0  0  0  0
   37.9475   15.1298  -12.3164 H   0  0  0  0  0  0  0  0  0  0  0  0
   36.2100   17.3359   -8.8107 C   0  0  0  0  0  0  0  0  0  0  0  0
   36.5408   18.6817   -8.7608 O   0  0  0  0  0  0  0  0  0  0  0  0
   36.0853   19.2016   -9.4650 H   0  0  0  0  0  0  0  0  0  0  0  0
   32.5413   18.0141   -5.4810 C   0  0  0  0  0  0  0  0  0  0  0  0
   33.4440   17.4192   -6.4707 N   0  0  0  0  0  0  0  0  0  0  0  0
   34.4719   18.0075   -7.0923 C   0  0  0  0  0  0  0  0  0  0  0  0
   35.0546   17.0750   -7.9503 C   0  0  0  0  0  0  0  0  0  0  0  0
   34.3251   15.9227   -7.8027 C   0  0  0  0  0  0  0  0  0  0  0  0
   33.3650   16.1633   -6.9065 N   0  0  0  0  0  0  0  0  0  0  0  0
   42.9238   13.1304   -6.0595 C   0  0  0  0  0  0  0  0  0  0  0  0
   43.5919   12.1476   -6.2674 C   0  0  0  0  0  0  0  0  0  0  0  0
   44.4073   10.9317   -6.4988 C   0  0  0  0  0  0  0  0  0  0  0  0
   45.4072   11.1971   -7.6320 C   0  0  0  0  0  0  0  0  0  0  0  0
   45.2024   10.7008   -5.2330 C   0  0  0  0  0  0  0  0  0  0  0  0
   43.5648    9.8798   -6.7950 O   0  0  0  0  0  0  0  0  0  0  0  0
   43.8660    9.4866   -7.6624 H   0  0  0  0  0  0  0  0  0  0  0  0
 24 25  1  0  0  0
 25 26  1  0  0  0
 26 27  2  0  0  0
 27 28  1  0  0  0
 28 29  2  0  0  0
 27 21  1  0  0  0
 21 22  1  0  0  0
 21  1  1  0  0  0
  1  2  2  0  0  0
  2  3  1  0  0  0
  3  4  2  0  0  0
  4  5  1  0  0  0
  5  6  2  0  0  0
  6  7  1  0  0  0
  7 30  1  0  0  0
 30 31  3  0  0  0
 31 32  1  0  0  0
 32 33  1  0  0  0
 32 34  1  0  0  0
 32 35  1  0  0  0
  7  8  2  0  0  0
  8  9  1  0  0  0
  8 10  1  0  0  0
 10 11  2  0  0  0
 11 12  1  0  0  0
 12 13  1  0  0  0
 13 14  1  0  0  0
 14 15  1  0  0  0
  2 16  1  0  0  0
 16 17  1  0  0  0
 16 18  2  0  0  0
 29 25  1  0  0  0
 15  1  1  0  0  0
 15  4  1  0  0  0
 11  5  1  0  0  0
 22 23  1  0  0  0
 35 36  1  0  0  0
 17 19  1  0  0  0
 17 20  1  0  0  0
M  END
> <minimizedAffinity>
-5.93317

> <CNNscore>
0.3209024668

> <CNNaffinity>
5.4114751816

> <CNN_VS>
1.7365556955

> <CNNaffinity_variance>
0.3228237033

$$$$
[H]OC(C#Cc1c([H])c2c(c([H])c1F)OC([H])([H])C([H])([H])n1c-2nc(C(=O)N([H])[H])c1[C@]([H])(O[H])c1c([H])nn(C([H])([H])[H])c1[H])(C([H])([H])[H])C([H])([H])[H]


 36 39  0  0  0  0  0  0  0  0999 V2000
   44.3335   14.0704  -13.3106 C   0  0  0  0  0  0  0  0  0  0  0  0
   43.2735   14.4913  -12.5430 C   0  0  0  0  0  0  0  0  0  0  0  0
   42.1565   14.0853  -13.2760 N   0  0  0  0  0  0  0  0  0  0  0  0
   42.5390   13.4765  -14.3839 C   0  0  0  0  0  0  0  0  0  0  0  0
   41.5894   12.9135  -15.3720 C   0  0  0  0  0  0  0  0  0  0  0  0
   40.2769   13.0665  -14.9761 C   0  0  0  0  0  0  0  0  0  0  0  0
   39.2253   12.5982  -15.7526 C   0  0  0  0  0  0  0  0  0  0  0  0
   39.5664   11.9714  -16.9418 C   0  0  0  0  0  0  0  0  0  0  0  0
   38.5327   11.5135  -17.6997 F   0  0  0  0  0  0  0  0  0  0  0  0
   40.8665   11.8093  -17.3534 C   0  0  0  0  0  0  0  0  0  0  0  0
   41.8885   12.2842  -16.5629 C   0  0  0  0  0  0  0  0  0  0  0  0
   43.1731   12.0860  -17.0420 O   0  0  0  0  0  0  0  0  0  0  0  0
   44.2984   12.9028  -16.8309 C   0  0  0  0  0  0  0  0  0  0  0  0
   44.8021   12.9329  -15.4107 C   0  0  0  0  0  0  0  0  0  0  0  0
   43.8745   13.4445  -14.4490 N   0  0  0  0  0  0  0  0  0  0  0  0
   43.1552   15.1960  -11.2902 C   0  0  0  0  0  0  0  0  0  0  0  0
   42.6281   14.7228  -10.1131 N   0  0  0  0  0  0  0  0  0  0  0  0
   43.5930   16.4044  -11.2685 O   0  0  0  0  0  0  0  0  0  0  0  0
   43.1689   14.1236   -9.4571 H   0  0  0  0  0  0  0  0  0  0  0  0
   41.6393   14.9514   -9.7924 H   0  0  0  0  0  0  0  0  0  0  0  0
   45.7787   14.2412  -12.9732 C   0  0  0  0  0  0  0  0  0  0  0  0
   46.3855   14.9738  -13.9822 O   0  0  0  0  0  0  0  0  0  0  0  0
   47.0824   15.5790  -13.6330 H   0  0  0  0  0  0  0  0  0  0  0  0
   46.8466    9.6048  -11.4338 C   0  0  0  0  0  0  0  0  0  0  0  0
   46.9142   10.9164  -12.0846 N   0  0  0  0  0  0  0  0  0  0  0  0
   46.0148   11.9043  -12.0201 C   0  0  0  0  0  0  0  0  0  0  0  0
   46.4814   12.9701  -12.7893 C   0  0  0  0  0  0  0  0  0  0  0  0
   47.6865   12.5625  -13.3027 C   0  0  0  0  0  0  0  0  0  0  0  0
   47.9171   11.3241  -12.8600 N   0  0  0  0  0  0  0  0  0  0  0  0
   37.8650   12.7670  -15.3248 C   0  0  0  0  0  0  0  0  0  0  0  0
   36.7205   12.8878  -14.9628 C   0  0  0  0  0  0  0  0  0  0  0  0
   35.3129   13.0103  -14.5149 C   0  0  0  0  0  0  0  0  0  0  0  0
   34.4385   12.0318  -15.3101 C   0  0  0  0  0  0  0  0  0  0  0  0
   35.2840   12.5752  -13.0666 C   0  0  0  0  0  0  0  0  0  0  0  0
   34.9034   14.3172  -14.6842 O   0  0  0  0  0  0  0  0  0  0  0  0
   34.0703   14.3036  -15.2350 H   0  0  0  0  0  0  0  0  0  0  0  0
 24 25  1  0  0  0
 25 26  1  0  0  0
 26 27  2  0  0  0
 27 28  1  0  0  0
 28 29  2  0  0  0
 27 21  1  0  0  0
 21 22  1  0  0  0
 21  1  1  0  0  0
  1  2  2  0  0  0
  2  3  1  0  0  0
  3  4  2  0  0  0
  4  5  1  0  0  0
  5  6  2  0  0  0
  6  7  1  0  0  0
  7 30  1  0  0  0
 30 31  3  0  0  0
 31 32  1  0  0  0
 32 33  1  0  0  0
 32 34  1  0  0  0
 32 35  1  0  0  0
  7  8  2  0  0  0
  8  9  1  0  0  0
  8 10  1  0  0  0
 10 11  2  0  0  0
 11 12  1  0  0  0
 12 13  1  0  0  0
 13 14  1  0  0  0
 14 15  1  0  0  0
  2 16  1  0  0  0
 16 17  1  0  0  0
 16 18  2  0  0  0
 29 25  1  0  0  0
 15  1  1  0  0  0
 15  4  1  0  0  0
 11  5  1  0  0  0
 22 23  1  0  0  0
 35 36  1  0  0  0
 17 19  1  0  0  0
 17 20  1  0  0  0
M  END
> <minimizedAffinity>
-8.55791

> <CNNscore>
0.2214682400

> <CNNaffinity>
6.4215469360

> <CNN_VS>
1.4221687317

> <CNNaffinity_variance>
0.0090403045

$$$$
[H]OC(C#Cc1c([H])c2c(c([H])c1F)OC([H])([H])C([H])([H])n1c-2nc(C(=O)N([H])[H])c1[C@]([H])(O[H])c1c([H])nn(C([H])([H])[H])c1[H])(C([H])([H])[H])C([H])([H])[H]


 36 39  0  0  0  0  0  0  0  0999 V2000
   38.7058   12.8104  -14.9899 C   0  0  0  0  0  0  0  0  0  0  0  0
   39.7687   12.7350  -15.8587 C   0  0  0  0  0  0  0  0  0  0  0  0
   40.7516   13.5119  -15.2422 N   0  0  0  0  0  0  0  0  0  0  0  0
   40.2939   14.0011  -14.1038 C   0  0  0  0  0  0  0  0  0  0  0  0
   41.1015   14.8562  -13.2029 C   0  0  0  0  0  0  0  0  0  0  0  0
   42.3845   15.0413  -13.6750 C   0  0  0  0  0  0  0  0  0  0  0  0
   43.3120   15.8025  -12.9763 C   0  0  0  0  0  0  0  0  0  0  0  0
   42.8791   16.3631  -11.7839 C   0  0  0  0  0  0  0  0  0  0  0  0
   43.7916   17.1081  -11.1021 F   0  0  0  0  0  0  0  0  0  0  0  0
   41.6066   16.1908  -11.2973 C   0  0  0  0  0  0  0  0  0  0  0  0
   40.7082   15.4311  -12.0120 C   0  0  0  0  0  0  0  0  0  0  0  0
   39.4439   15.3019  -11.4607 O   0  0  0  0  0  0  0  0  0  0  0  0
   38.2260   15.1426  -12.1460 C   0  0  0  0  0  0  0  0  0  0  0  0
   38.0746   13.8306  -12.8722 C   0  0  0  0  0  0  0  0  0  0  0  0
   39.0347   13.5957  -13.9067 N   0  0  0  0  0  0  0  0  0  0  0  0
   39.9872   12.0853  -17.1276 C   0  0  0  0  0  0  0  0  0  0  0  0
   40.4437   12.6573  -18.2903 N   0  0  0  0  0  0  0  0  0  0  0  0
   39.7277   10.8274  -17.1800 O   0  0  0  0  0  0  0  0  0  0  0  0
   41.4528   12.8326  -18.4707 H   0  0  0  0  0  0  0  0  0  0  0  0
   39.7948   12.9432  -19.0842 H   0  0  0  0  0  0  0  0  0  0  0  0
   37.3844   12.1361  -15.1655 C   0  0  0  0  0  0  0  0  0  0  0  0
   37.2750   11.7120  -16.4812 O   0  0  0  0  0  0  0  0  0  0  0  0
   36.7931   10.8541  -16.5552 H   0  0  0  0  0  0  0  0  0  0  0  0
   33.1731   13.7855  -13.0323 C   0  0  0  0  0  0  0  0  0  0  0  0
   34.3825   13.6861  -13.8545 N   0  0  0  0  0  0  0  0  0  0  0  0
   35.2462   12.6665  -13.9118 C   0  0  0  0  0  0  0  0  0  0  0  0
   36.2494   12.9951  -14.8234 C   0  0  0  0  0  0  0  0  0  0  0  0
   35.9344   14.2451  -15.2929 C   0  0  0  0  0  0  0  0  0  0  0  0
   34.8072   14.6315  -14.6907 N   0  0  0  0  0  0  0  0  0  0  0  0
   44.6431   15.9848  -13.4833 C   0  0  0  0  0  0  0  0  0  0  0  0
   45.7612   16.1579  -13.9019 C   0  0  0  0  0  0  0  0  0  0  0  0
   47.1345   16.3950  -14.4067 C   0  0  0  0  0  0  0  0  0  0  0  0
   47.9396   17.1638  -13.3507 C   0  0  0  0  0  0  0  0  0  0  0  0
   47.7740   15.0336  -14.5667 C   0  0  0  0  0  0  0  0  0  0  0  0
   47.0581   17.0882  -15.5975 O   0  0  0  0  0  0  0  0  0  0  0  0
   47.6232   17.9069  -15.5071 H   0  0  0  0  0  0  0  0  0  0  0  0
 24 25  1  0  0  0
 25 26  1  0  0  0
 26 27  2  0  0  0
 27 28  1  0  0  0
 28 29  2  0  0  0
 27 21  1  0  0  0
 21 22  1  0  0  0
 21  1  1  0  0  0
  1  2  2  0  0  0
  2  3  1  0  0  0
  3  4  2  0  0  0
  4  5  1  0  0  0
  5  6  2  0  0  0
  6  7  1  0  0  0
  7 30  1  0  0  0
 30 31  3  0  0  0
 31 32  1  0  0  0
 32 33  1  0  0  0
 32 34  1  0  0  0
 32 35  1  0  0  0
  7  8  2  0  0  0
  8  9  1  0  0  0
  8 10  1  0  0  0
 10 11  2  0  0  0
 11 12  1  0  0  0
 12 13  1  0  0  0
 13 14  1  0  0  0
 14 15  1  0  0  0
  2 16  1  0  0  0
 16 17  1  0  0  0
 16 18  2  0  0  0
 29 25  1  0  0  0
 15  1  1  0  0  0
 15  4  1  0  0  0
 11  5  1  0  0  0
 22 23  1  0  0  0
 35 36  1  0  0  0
 17 19  1  0  0  0
 17 20  1  0  0  0
M  END
> <minimizedAffinity>
-6.88587

> <CNNscore>
0.1838946491

> <CNNaffinity>
6.3122377396

> <CNN_VS>
1.1607867479

> <CNNaffinity_variance>
0.1914772391

$$$$
[H]OC(C#Cc1c([H])c2c(c([H])c1F)OC([H])([H])C([H])([H])n1c-2nc(C(=O)N([H])[H])c1[C@]([H])(O[H])c1c([H])nn(C([H])([H])[H])c1[H])(C([H])([H])[H])C([H])([H])[H]


 36 39  0  0  0  0  0  0  0  0999 V2000
   38.1197   15.3866   -8.4247 C   0  0  0  0  0  0  0  0  0  0  0  0
   39.0636   15.5444   -9.4117 C   0  0  0  0  0  0  0  0  0  0  0  0
   40.1680   14.8427   -8.9242 N   0  0  0  0  0  0  0  0  0  0  0  0
   39.8868   14.3187   -7.7449 C   0  0  0  0  0  0  0  0  0  0  0  0
   40.8474   13.5004   -6.9686 C   0  0  0  0  0  0  0  0  0  0  0  0
   42.0395   13.3231   -7.6397 C   0  0  0  0  0  0  0  0  0  0  0  0
   43.0754   12.5767   -7.0942 C   0  0  0  0  0  0  0  0  0  0  0  0
   42.8459   12.0221   -5.8439 C   0  0  0  0  0  0  0  0  0  0  0  0
   43.8638   11.2909   -5.3130 F   0  0  0  0  0  0  0  0  0  0  0  0
   41.6666   12.1870   -5.1598 C   0  0  0  0  0  0  0  0  0  0  0  0
   40.6572   12.9327   -5.7255 C   0  0  0  0  0  0  0  0  0  0  0  0
   39.4976   13.0566   -4.9779 O   0  0  0  0  0  0  0  0  0  0  0  0
   38.6024   14.1413   -4.9644 C   0  0  0  0  0  0  0  0  0  0  0  0
   37.8327   14.3435   -6.2444 C   0  0  0  0  0  0  0  0  0  0  0  0
   38.6337   14.6290   -7.3950 N   0  0  0  0  0  0  0  0  0  0  0  0
   39.0896   16.2334  -10.6785 C   0  0  0  0  0  0  0  0  0  0  0  0
   39.3395   15.6937  -11.9169 N   0  0  0  0  0  0  0  0  0  0  0  0
   38.8508   17.4961  -10.6495 O   0  0  0  0  0  0  0  0  0  0  0  0
   38.6127   15.1943  -12.4683 H   0  0  0  0  0  0  0  0  0  0  0  0
   40.2878   15.7655  -12.3951 H   0  0  0  0  0  0  0  0  0  0  0  0
   36.7298   15.9333   -8.4496 C   0  0  0  0  0  0  0  0  0  0  0  0
   36.2665   15.9061   -9.7563 O   0  0  0  0  0  0  0  0  0  0  0  0
   35.3026   15.7001   -9.8036 H   0  0  0  0  0  0  0  0  0  0  0  0
   34.8288   20.3191   -6.9808 C   0  0  0  0  0  0  0  0  0  0  0  0
   35.7523   19.2205   -7.2782 N   0  0  0  0  0  0  0  0  0  0  0  0
   35.4557   18.0282   -7.8067 C   0  0  0  0  0  0  0  0  0  0  0  0
   36.6362   17.2936   -7.9164 C   0  0  0  0  0  0  0  0  0  0  0  0
   37.6296   18.1058   -7.4312 C   0  0  0  0  0  0  0  0  0  0  0  0
   37.0649   19.2561   -7.0561 N   0  0  0  0  0  0  0  0  0  0  0  0
   44.3098   12.4034   -7.8072 C   0  0  0  0  0  0  0  0  0  0  0  0
   45.3359   12.2504   -8.4229 C   0  0  0  0  0  0  0  0  0  0  0  0
   46.5829   12.0538   -9.1997 C   0  0  0  0  0  0  0  0  0  0  0  0
   47.2129   10.7075   -8.8192 C   0  0  0  0  0  0  0  0  0  0  0  0
   46.1744   11.9722  -10.6537 C   0  0  0  0  0  0  0  0  0  0  0  0
   47.4363   13.1084   -8.9471 O   0  0  0  0  0  0  0  0  0  0  0  0
   48.3072   12.7258   -8.6423 H   0  0  0  0  0  0  0  0  0  0  0  0
 24 25  1  0  0  0
 25 26  1  0  0  0
 26 27  2  0  0  0
 27 28  1  0  0  0
 28 29  2  0  0  0
 27 21  1  0  0  0
 21 22  1  0  0  0
 21  1  1  0  0  0
  1  2  2  0  0  0
  2  3  1  0  0  0
  3  4  2  0  0  0
  4  5  1  0  0  0
  5  6  2  0  0  0
  6  7  1  0  0  0
  7 30  1  0  0  0
 30 31  3  0  0  0
 31 32  1  0  0  0
 32 33  1  0  0  0
 32 34  1  0  0  0
 32 35  1  0  0  0
  7  8  2  0  0  0
  8  9  1  0  0  0
  8 10  1  0  0  0
 10 11  2  0  0  0
 11 12  1  0  0  0
 12 13  1  0  0  0
 13 14  1  0  0  0
 14 15  1  0  0  0
  2 16  1  0  0  0
 16 17  1  0  0  0
 16 18  2  0  0  0
 29 25  1  0  0  0
 15  1  1  0  0  0
 15  4  1  0  0  0
 11  5  1  0  0  0
 22 23  1  0  0  0
 35 36  1  0  0  0
 17 19  1  0  0  0
 17 20  1  0  0  0
M  END
> <minimizedAffinity>
-5.60942

> <CNNscore>
0.1753790826

> <CNNaffinity>
5.1037483215

> <CNN_VS>
0.8950906992

> <CNNaffinity_variance>
0.1931509674

$$$$
[H]OC(C#Cc1c([H])c2c(c([H])c1F)OC([H])([H])C([H])([H])n1c-2nc(C(=O)N([H])[H])c1[C@]([H])(O[H])c1c([H])nn(C([H])([H])[H])c1[H])(C([H])([H])[H])C([H])([H])[H]


 36 39  0  0  0  0  0  0  0  0999 V2000
   36.9581   15.0724   -8.6361 C   0  0  0  0  0  0  0  0  0  0  0  0
   37.6951   15.6134   -9.6628 C   0  0  0  0  0  0  0  0  0  0  0  0
   39.0147   15.3349   -9.3011 N   0  0  0  0  0  0  0  0  0  0  0  0
   39.0413   14.6832   -8.1526 C   0  0  0  0  0  0  0  0  0  0  0  0
   40.2935   14.2288   -7.5041 C   0  0  0  0  0  0  0  0  0  0  0  0
   41.4081   14.5313   -8.2585 C   0  0  0  0  0  0  0  0  0  0  0  0
   42.6850   14.1833   -7.8384 C   0  0  0  0  0  0  0  0  0  0  0  0
   42.7767   13.5181   -6.6249 C   0  0  0  0  0  0  0  0  0  0  0  0
   44.0301   13.1785   -6.2171 F   0  0  0  0  0  0  0  0  0  0  0  0
   41.6795   13.2080   -5.8595 C   0  0  0  0  0  0  0  0  0  0  0  0
   40.4258   13.5661   -6.3013 C   0  0  0  0  0  0  0  0  0  0  0  0
   39.3670   13.2216   -5.4771 O   0  0  0  0  0  0  0  0  0  0  0  0
   38.1480   13.9058   -5.3224 C   0  0  0  0  0  0  0  0  0  0  0  0
   37.2504   13.8827   -6.5330 C   0  0  0  0  0  0  0  0  0  0  0  0
   37.7950   14.4994   -7.7036 N   0  0  0  0  0  0  0  0  0  0  0  0
   37.3647   16.3308  -10.8696 C   0  0  0  0  0  0  0  0  0  0  0  0
   37.0675   15.7997  -12.1012 N   0  0  0  0  0  0  0  0  0  0  0  0
   37.3438   17.6134  -10.7867 O   0  0  0  0  0  0  0  0  0  0  0  0
   36.1249   15.4310  -12.3404 H   0  0  0  0  0  0  0  0  0  0  0  0
   37.7786   15.7457  -12.8914 H   0  0  0  0  0  0  0  0  0  0  0  0
   35.4679   15.0788   -8.5327 C   0  0  0  0  0  0  0  0  0  0  0  0
   34.9351   14.9084   -9.8016 O   0  0  0  0  0  0  0  0  0  0  0  0
   34.1095   14.3681   -9.7874 H   0  0  0  0  0  0  0  0  0  0  0  0
   32.3098   18.3252   -6.4128 C   0  0  0  0  0  0  0  0  0  0  0  0
   33.5061   17.7082   -6.9930 N   0  0  0  0  0  0  0  0  0  0  0  0
   33.6276   16.4688   -7.4808 C   0  0  0  0  0  0  0  0  0  0  0  0
   34.9375   16.3032   -7.9303 C   0  0  0  0  0  0  0  0  0  0  0  0
   35.5715   17.4947   -7.6846 C   0  0  0  0  0  0  0  0  0  0  0  0
   34.6835   18.3171   -7.1210 N   0  0  0  0  0  0  0  0  0  0  0  0
   43.8340   14.5070   -8.6366 C   0  0  0  0  0  0  0  0  0  0  0  0
   44.8007   14.7977   -9.2973 C   0  0  0  0  0  0  0  0  0  0  0  0
   45.9896   15.1778  -10.0965 C   0  0  0  0  0  0  0  0  0  0  0  0
   45.7914   16.5894  -10.6644 C   0  0  0  0  0  0  0  0  0  0  0  0
   47.1546   15.2325   -9.1334 C   0  0  0  0  0  0  0  0  0  0  0  0
   46.1716   14.2443  -11.0964 O   0  0  0  0  0  0  0  0  0  0  0  0
   46.2079   14.7356  -11.9653 H   0  0  0  0  0  0  0  0  0  0  0  0
 24 25  1  0  0  0
 25 26  1  0  0  0
 26 27  2  0  0  0
 27 28  1  0  0  0
 28 29  2  0  0  0
 27 21  1  0  0  0
 21 22  1  0  0  0
 21  1  1  0  0  0
  1  2  2  0  0  0
  2  3  1  0  0  0
  3  4  2  0  0  0
  4  5  1  0  0  0
  5  6  2  0  0  0
  6  7  1  0  0  0
  7 30  1  0  0  0
 30 31  3  0  0  0
 31 32  1  0  0  0
 32 33  1  0  0  0
 32 34  1  0  0  0
 32 35  1  0  0  0
  7  8  2  0  0  0
  8  9  1  0  0  0
  8 10  1  0  0  0
 10 11  2  0  0  0
 11 12  1  0  0  0
 12 13  1  0  0  0
 13 14  1  0  0  0
 14 15  1  0  0  0
  2 16  1  0  0  0
 16 17  1  0  0  0
 16 18  2  0  0  0
 29 25  1  0  0  0
 15  1  1  0  0  0
 15  4  1  0  0  0
 11  5  1  0  0  0
 22 23  1  0  0  0
 35 36  1  0  0  0
 17 19  1  0  0  0
 17 20  1  0  0  0
M  END
> <minimizedAffinity>
-5.53771

> <CNNscore>
0.1636723280

> <CNNaffinity>
5.3675670624

> <CNN_VS>
0.8785222173

> <CNNaffinity_variance>
0.3768997788

$$$$
[H]OC(C#Cc1c([H])c2c(c([H])c1F)OC([H])([H])C([H])([H])n1c-2nc(C(=O)N([H])[H])c1[C@]([H])(O[H])c1c([H])nn(C([H])([H])[H])c1[H])(C([H])([H])[H])C([H])([H])[H]


 36 39  0  0  0  0  0  0  0  0999 V2000
   44.1393   14.5094  -13.3308 C   0  0  0  0  0  0  0  0  0  0  0  0
   43.0419   14.9312  -12.6181 C   0  0  0  0  0  0  0  0  0  0  0  0
   41.9643   14.4091  -13.3363 N   0  0  0  0  0  0  0  0  0  0  0  0
   42.4026   13.7368  -14.3853 C   0  0  0  0  0  0  0  0  0  0  0  0
   41.5060   13.0474  -15.3423 C   0  0  0  0  0  0  0  0  0  0  0  0
   40.1788   13.1597  -14.9833 C   0  0  0  0  0  0  0  0  0  0  0  0
   39.1707   12.5757  -15.7387 C   0  0  0  0  0  0  0  0  0  0  0  0
   39.5705   11.8769  -16.8680 C   0  0  0  0  0  0  0  0  0  0  0  0
   38.5792   11.3056  -17.6054 F   0  0  0  0  0  0  0  0  0  0  0  0
   40.8860   11.7537  -17.2423 C   0  0  0  0  0  0  0  0  0  0  0  0
   41.8640   12.3438  -16.4738 C   0  0  0  0  0  0  0  0  0  0  0  0
   43.1674   12.1786  -16.9128 O   0  0  0  0  0  0  0  0  0  0  0  0
   44.2433   13.0692  -16.7473 C   0  0  0  0  0  0  0  0  0  0  0  0
   44.7133   13.2378  -15.3252 C   0  0  0  0  0  0  0  0  0  0  0  0
   43.7391   13.7723  -14.4238 N   0  0  0  0  0  0  0  0  0  0  0  0
   42.8591   15.7245  -11.4276 C   0  0  0  0  0  0  0  0  0  0  0  0
   43.7067   15.8208  -10.3507 N   0  0  0  0  0  0  0  0  0  0  0  0
   41.7822   16.4235  -11.3640 O   0  0  0  0  0  0  0  0  0  0  0  0
   44.5452   16.4361  -10.3501 H   0  0  0  0  0  0  0  0  0  0  0  0
   43.5502   15.2833   -9.4454 H   0  0  0  0  0  0  0  0  0  0  0  0
   45.5657   14.7842  -12.9823 C   0  0  0  0  0  0  0  0  0  0  0  0
   45.7705   14.4441  -11.6537 O   0  0  0  0  0  0  0  0  0  0  0  0
   46.6681   14.0631  -11.5027 H   0  0  0  0  0  0  0  0  0  0  0  0
   47.6909   19.2644  -12.3359 C   0  0  0  0  0  0  0  0  0  0  0  0
   46.9155   18.1459  -12.8800 N   0  0  0  0  0  0  0  0  0  0  0  0
   46.7789   16.9211  -12.3602 C   0  0  0  0  0  0  0  0  0  0  0  0
   45.9549   16.1778  -13.2052 C   0  0  0  0  0  0  0  0  0  0  0  0
   45.6185   17.0187  -14.2355 C   0  0  0  0  0  0  0  0  0  0  0  0
   46.2120   18.1932  -14.0097 N   0  0  0  0  0  0  0  0  0  0  0  0
   37.7943   12.7035  -15.3500 C   0  0  0  0  0  0  0  0  0  0  0  0
   36.6441   12.8172  -15.0041 C   0  0  0  0  0  0  0  0  0  0  0  0
   35.2391   12.9646  -14.5555 C   0  0  0  0  0  0  0  0  0  0  0  0
   34.3447   12.0136  -15.3618 C   0  0  0  0  0  0  0  0  0  0  0  0
   35.1999   12.5145  -13.1121 C   0  0  0  0  0  0  0  0  0  0  0  0
   34.8575   14.2816  -14.7108 O   0  0  0  0  0  0  0  0  0  0  0  0
   34.0246   14.2918  -15.2621 H   0  0  0  0  0  0  0  0  0  0  0  0
 24 25  1  0  0  0
 25 26  1  0  0  0
 26 27  2  0  0  0
 27 28  1  0  0  0
 28 29  2  0  0  0
 27 21  1  0  0  0
 21 22  1  0  0  0
 21  1  1  0  0  0
  1  2  2  0  0  0
  2  3  1  0  0  0
  3  4  2  0  0  0
  4  5  1  0  0  0
  5  6  2  0  0  0
  6  7  1  0  0  0
  7 30  1  0  0  0
 30 31  3  0  0  0
 31 32  1  0  0  0
 32 33  1  0  0  0
 32 34  1  0  0  0
 32 35  1  0  0  0
  7  8  2  0  0  0
  8  9  1  0  0  0
  8 10  1  0  0  0
 10 11  2  0  0  0
 11 12  1  0  0  0
 12 13  1  0  0  0
 13 14  1  0  0  0
 14 15  1  0  0  0
  2 16  1  0  0  0
 16 17  1  0  0  0
 16 18  2  0  0  0
 29 25  1  0  0  0
 15  1  1  0  0  0
 15  4  1  0  0  0
 11  5  1  0  0  0
 22 23  1  0  0  0
 35 36  1  0  0  0
 17 19  1  0  0  0
 17 20  1  0  0  0
M  END
> <minimizedAffinity>
-8.35573

> <CNNscore>
0.1615713537

> <CNNaffinity>
6.2027497292

> <CNN_VS>
1.0021866560

> <CNNaffinity_variance>
0.0232393462

$$$$
[H]OC(C#Cc1c([H])c2c(c([H])c1F)OC([H])([H])C([H])([H])n1c-2nc(C(=O)N([H])[H])c1[C@]([H])(O[H])c1c([H])nn(C([H])([H])[H])c1[H])(C([H])([H])[H])C([H])([H])[H]


 36 39  0  0  0  0  0  0  0  0999 V2000
   43.6029   14.6191  -13.2852 C   0  0  0  0  0  0  0  0  0  0  0  0
   42.4888   14.9793  -12.5646 C   0  0  0  0  0  0  0  0  0  0  0  0
   41.4362   14.4034  -13.2789 N   0  0  0  0  0  0  0  0  0  0  0  0
   41.9035   13.7595  -14.3332 C   0  0  0  0  0  0  0  0  0  0  0  0
   41.0391   13.0271  -15.2879 C   0  0  0  0  0  0  0  0  0  0  0  0
   39.7099   13.0674  -14.9208 C   0  0  0  0  0  0  0  0  0  0  0  0
   38.7299   12.4336  -15.6730 C   0  0  0  0  0  0  0  0  0  0  0  0
   39.1595   11.7614  -16.8074 C   0  0  0  0  0  0  0  0  0  0  0  0
   38.1957   11.1411  -17.5416 F   0  0  0  0  0  0  0  0  0  0  0  0
   40.4775   11.7097  -17.1897 C   0  0  0  0  0  0  0  0  0  0  0  0
   41.4272   12.3480  -16.4244 C   0  0  0  0  0  0  0  0  0  0  0  0
   42.7351   12.2538  -16.8713 O   0  0  0  0  0  0  0  0  0  0  0  0
   43.7631   13.1997  -16.7082 C   0  0  0  0  0  0  0  0  0  0  0  0
   44.2318   13.3875  -15.2881 C   0  0  0  0  0  0  0  0  0  0  0  0
   43.2359   13.8660  -14.3791 N   0  0  0  0  0  0  0  0  0  0  0  0
   42.2712   15.7572  -11.3698 C   0  0  0  0  0  0  0  0  0  0  0  0
   43.2180   16.1990  -10.4777 N   0  0  0  0  0  0  0  0  0  0  0  0
   41.0541   16.0765  -11.1072 O   0  0  0  0  0  0  0  0  0  0  0  0
   43.7934   17.0490  -10.6454 H   0  0  0  0  0  0  0  0  0  0  0  0
   43.4114   15.7076   -9.5535 H   0  0  0  0  0  0  0  0  0  0  0  0
   45.0147   14.9680  -12.9437 C   0  0  0  0  0  0  0  0  0  0  0  0
   45.5910   15.6003  -14.0350 O   0  0  0  0  0  0  0  0  0  0  0  0
   46.2197   16.3104  -13.7625 H   0  0  0  0  0  0  0  0  0  0  0  0
   48.8390   11.7640  -12.6041 C   0  0  0  0  0  0  0  0  0  0  0  0
   47.5364   12.4149  -12.4375 N   0  0  0  0  0  0  0  0  0  0  0  0
   47.1230   13.5615  -12.9883 C   0  0  0  0  0  0  0  0  0  0  0  0
   45.8184   13.8061  -12.5599 C   0  0  0  0  0  0  0  0  0  0  0  0
   45.4906   12.7569  -11.7390 C   0  0  0  0  0  0  0  0  0  0  0  0
   46.5447   11.9391  -11.6868 N   0  0  0  0  0  0  0  0  0  0  0  0
   37.3509   12.4867  -15.2760 C   0  0  0  0  0  0  0  0  0  0  0  0
   36.1969   12.5190  -14.9257 C   0  0  0  0  0  0  0  0  0  0  0  0
   34.7852   12.5437  -14.4748 C   0  0  0  0  0  0  0  0  0  0  0  0
   34.2503   13.9797  -14.5542 C   0  0  0  0  0  0  0  0  0  0  0  0
   34.0035   11.7098  -15.4654 C   0  0  0  0  0  0  0  0  0  0  0  0
   34.7185   12.0425  -13.1908 O   0  0  0  0  0  0  0  0  0  0  0  0
   34.2566   12.7234  -12.6244 H   0  0  0  0  0  0  0  0  0  0  0  0
 24 25  1  0  0  0
 25 26  1  0  0  0
 26 27  2  0  0  0
 27 28  1  0  0  0
 28 29  2  0  0  0
 27 21  1  0  0  0
 21 22  1  0  0  0
 21  1  1  0  0  0
  1  2  2  0  0  0
  2  3  1  0  0  0
  3  4  2  0  0  0
  4  5  1  0  0  0
  5  6  2  0  0  0
  6  7  1  0  0  0
  7 30  1  0  0  0
 30 31  3  0  0  0
 31 32  1  0  0  0
 32 33  1  0  0  0
 32 34  1  0  0  0
 32 35  1  0  0  0
  7  8  2  0  0  0
  8  9  1  0  0  0
  8 10  1  0  0  0
 10 11  2  0  0  0
 11 12  1  0  0  0
 12 13  1  0  0  0
 13 14  1  0  0  0
 14 15  1  0  0  0
  2 16  1  0  0  0
 16 17  1  0  0  0
 16 18  2  0  0  0
 29 25  1  0  0  0
 15  1  1  0  0  0
 15  4  1  0  0  0
 11  5  1  0  0  0
 22 23  1  0  0  0
 35 36  1  0  0  0
 17 19  1  0  0  0
 17 20  1  0  0  0
M  END
> <minimizedAffinity>
-8.04568

> <CNNscore>
0.1536105424

> <CNNaffinity>
6.2880158424

> <CNN_VS>
0.9659055471

> <CNNaffinity_variance>
0.0366237275

$$$$
[H]OC(C#Cc1c([H])c2c(c([H])c1F)OC([H])([H])C([H])([H])n1c-2nc(C(=O)N([H])[H])c1[C@]([H])(O[H])c1c([H])nn(C([H])([H])[H])c1[H])(C([H])([H])[H])C([H])([H])[H]


 36 39  0  0  0  0  0  0  0  0999 V2000
   36.3378   14.2313  -14.0805 C   0  0  0  0  0  0  0  0  0  0  0  0
   36.9433   14.8500  -13.0125 C   0  0  0  0  0  0  0  0  0  0  0  0
   38.3022   14.6033  -13.2182 N   0  0  0  0  0  0  0  0  0  0  0  0
   38.4720   13.8954  -14.3202 C   0  0  0  0  0  0  0  0  0  0  0  0
   39.8023   13.4814  -14.8241 C   0  0  0  0  0  0  0  0  0  0  0  0
   40.8278   13.9552  -14.0323 C   0  0  0  0  0  0  0  0  0  0  0  0
   42.1576   13.6916  -14.3325 C   0  0  0  0  0  0  0  0  0  0  0  0
   42.3960   12.9298  -15.4666 C   0  0  0  0  0  0  0  0  0  0  0  0
   43.7008   12.6741  -15.7575 F   0  0  0  0  0  0  0  0  0  0  0  0
   41.3893   12.4489  -16.2675 C   0  0  0  0  0  0  0  0  0  0  0  0
   40.0800   12.7260  -15.9448 C   0  0  0  0  0  0  0  0  0  0  0  0
   39.1187   12.2079  -16.7971 O   0  0  0  0  0  0  0  0  0  0  0  0
   37.8127   11.8043  -16.4662 C   0  0  0  0  0  0  0  0  0  0  0  0
   36.8885   12.9224  -16.0573 C   0  0  0  0  0  0  0  0  0  0  0  0
   37.2870   13.6410  -14.8860 N   0  0  0  0  0  0  0  0  0  0  0  0
   36.4613   15.5920  -11.8735 C   0  0  0  0  0  0  0  0  0  0  0  0
   36.1211   16.9222  -11.8274 N   0  0  0  0  0  0  0  0  0  0  0  0
   36.3329   14.9369  -10.7750 O   0  0  0  0  0  0  0  0  0  0  0  0
   35.1997   17.2772  -12.1540 H   0  0  0  0  0  0  0  0  0  0  0  0
   36.7732   17.6699  -11.4416 H   0  0  0  0  0  0  0  0  0  0  0  0
   34.8700   14.2032  -14.3566 C   0  0  0  0  0  0  0  0  0  0  0  0
   34.1985   14.6492  -13.2283 O   0  0  0  0  0  0  0  0  0  0  0  0
   33.3949   15.1737  -13.4584 H   0  0  0  0  0  0  0  0  0  0  0  0
   33.0797   10.4266  -17.1023 C   0  0  0  0  0  0  0  0  0  0  0  0
   33.5878   11.2321  -15.9881 N   0  0  0  0  0  0  0  0  0  0  0  0
   33.9653   12.5149  -16.0169 C   0  0  0  0  0  0  0  0  0  0  0  0
   34.3804   12.8765  -14.7353 C   0  0  0  0  0  0  0  0  0  0  0  0
   34.2293   11.7537  -13.9617 C   0  0  0  0  0  0  0  0  0  0  0  0
   33.7511   10.7838  -14.7448 N   0  0  0  0  0  0  0  0  0  0  0  0
   43.2120   14.1925  -13.4964 C   0  0  0  0  0  0  0  0  0  0  0  0
   44.1018   14.6286  -12.8082 C   0  0  0  0  0  0  0  0  0  0  0  0
   45.1993   15.1830  -11.9805 C   0  0  0  0  0  0  0  0  0  0  0  0
   46.1596   15.9783  -12.8748 C   0  0  0  0  0  0  0  0  0  0  0  0
   44.5599   16.1577  -11.0168 C   0  0  0  0  0  0  0  0  0  0  0  0
   45.8405   14.1444  -11.3368 O   0  0  0  0  0  0  0  0  0  0  0  0
   46.8134   14.2093  -11.5535 H   0  0  0  0  0  0  0  0  0  0  0  0
 24 25  1  0  0  0
 25 26  1  0  0  0
 26 27  2  0  0  0
 27 28  1  0  0  0
 28 29  2  0  0  0
 27 21  1  0  0  0
 21 22  1  0  0  0
 21  1  1  0  0  0
  1  2  2  0  0  0
  2  3  1  0  0  0
  3  4  2  0  0  0
  4  5  1  0  0  0
  5  6  2  0  0  0
  6  7  1  0  0  0
  7 30  1  0  0  0
 30 31  3  0  0  0
 31 32  1  0  0  0
 32 33  1  0  0  0
 32 34  1  0  0  0
 32 35  1  0  0  0
  7  8  2  0  0  0
  8  9  1  0  0  0
  8 10  1  0  0  0
 10 11  2  0  0  0
 11 12  1  0  0  0
 12 13  1  0  0  0
 13 14  1  0  0  0
 14 15  1  0  0  0
  2 16  1  0  0  0
 16 17  1  0  0  0
 16 18  2  0  0  0
 29 25  1  0  0  0
 15  1  1  0  0  0
 15  4  1  0  0  0
 11  5  1  0  0  0
 22 23  1  0  0  0
 35 36  1  0  0  0
 17 19  1  0  0  0
 17 20  1  0  0  0
M  END
> <minimizedAffinity>
-8.13273

> <CNNscore>
0.1267507970

> <CNNaffinity>
6.4832639694

> <CNN_VS>
0.8217588663

> <CNNaffinity_variance>
0.1881589741

$$$$
[H]OC1(C#Cc2c([H])c3c(c([H])c2F)C2([H])C([H])([H])C([H])(n4c-3nc(C(=O)N([H])[H])c4[C@]([H])(O[H])c3c(OC([H])([H])[H])nc([H])c(F)c3[H])C2([H])[H])C([H])([H])C([H])([H])C([H])([H])C1([H])[H]


 42 47  0  0  0  0  0  0  0  0999 V2000
   36.6973   16.0328   -7.0218 C   0  0  0  0  0  0  0  0  0  0  0  0
   36.8980   15.6087   -8.2958 C   0  0  0  0  0  0  0  0  0  0  0  0
   38.2165   15.1982   -8.3838 N   0  0  0  0  0  0  0  0  0  0  0  0
   38.7821   15.3717   -7.2025 C   0  0  0  0  0  0  0  0  0  0  0  0
   40.1998   15.0474   -6.8834 C   0  0  0  0  0  0  0  0  0  0  0  0
   40.8935   14.5443   -7.9632 C   0  0  0  0  0  0  0  0  0  0  0  0
   42.2200   14.2057   -7.7894 C   0  0  0  0  0  0  0  0  0  0  0  0
   42.8320   14.3743   -6.5429 C   0  0  0  0  0  0  0  0  0  0  0  0
   44.1372   14.0393   -6.3784 F   0  0  0  0  0  0  0  0  0  0  0  0
   42.1431   14.8776   -5.4578 C   0  0  0  0  0  0  0  0  0  0  0  0
   40.8322   15.2047   -5.6564 C   0  0  0  0  0  0  0  0  0  0  0  0
   40.1799   15.7431   -4.4068 C   0  0  0  0  0  0  0  0  0  0  0  0
   39.4312   16.9898   -4.8190 C   0  0  0  0  0  0  0  0  0  0  0  0
   38.1084   16.2182   -4.9471 C   0  0  0  0  0  0  0  0  0  0  0  0
   38.8142   15.0779   -4.2260 C   0  0  0  0  0  0  0  0  0  0  0  0
   37.8752   15.8797   -6.3560 N   0  0  0  0  0  0  0  0  0  0  0  0
   35.9986   15.5391   -9.4488 C   0  0  0  0  0  0  0  0  0  0  0  0
   35.5138   14.4089  -10.0996 N   0  0  0  0  0  0  0  0  0  0  0  0
   35.5946   16.6626   -9.9349 O   0  0  0  0  0  0  0  0  0  0  0  0
   34.7562   13.7811   -9.6945 H   0  0  0  0  0  0  0  0  0  0  0  0
   35.8488   14.0722  -11.0460 H   0  0  0  0  0  0  0  0  0  0  0  0
   35.4999   16.5694   -6.3906 C   0  0  0  0  0  0  0  0  0  0  0  0
   35.6471   17.0993   -5.1229 O   0  0  0  0  0  0  0  0  0  0  0  0
   34.7913   17.0192   -4.6181 H   0  0  0  0  0  0  0  0  0  0  0  0
   34.2850   14.7013   -5.3448 C   0  0  0  0  0  0  0  0  0  0  0  0
   33.2675   13.8471   -5.2320 N   0  0  0  0  0  0  0  0  0  0  0  0
   32.2314   13.8733   -6.1181 C   0  0  0  0  0  0  0  0  0  0  0  0
   32.2560   14.7911   -7.1227 C   0  0  0  0  0  0  0  0  0  0  0  0
   31.2516   14.8658   -8.0358 F   0  0  0  0  0  0  0  0  0  0  0  0
   33.3048   15.7021   -7.2729 C   0  0  0  0  0  0  0  0  0  0  0  0
   34.3252   15.6471   -6.3682 C   0  0  0  0  0  0  0  0  0  0  0  0
   35.6873   13.5260   -3.7021 C   0  0  0  0  0  0  0  0  0  0  0  0
   35.3318   14.6740   -4.4488 O   0  0  0  0  0  0  0  0  0  0  0  0
   43.0141   13.6728   -8.8667 C   0  0  0  0  0  0  0  0  0  0  0  0
   43.6905   13.2420   -9.7849 C   0  0  0  0  0  0  0  0  0  0  0  0
   44.4944   12.7510  -10.8914 C   0  0  0  0  0  0  0  0  0  0  0  0
   44.6538   11.3689  -10.8197 O   0  0  0  0  0  0  0  0  0  0  0  0
   43.9391   13.1710  -12.2190 C   0  0  0  0  0  0  0  0  0  0  0  0
   44.3514   14.6268  -12.2894 C   0  0  0  0  0  0  0  0  0  0  0  0
   45.6421   14.7304  -11.5378 C   0  0  0  0  0  0  0  0  0  0  0  0
   45.8474   13.4490  -10.7988 C   0  0  0  0  0  0  0  0  0  0  0  0
   43.8926   10.9063  -11.2396 H   0  0  0  0  0  0  0  0  0  0  0  0
 32 33  1  0  0  0
 33 25  1  0  0  0
 25 26  2  0  0  0
 26 27  1  0  0  0
 27 28  2  0  0  0
 28 29  1  0  0  0
 28 30  1  0  0  0
 30 31  2  0  0  0
 31 22  1  0  0  0
 22 23  1  0  0  0
 22  1  1  0  0  0
  1  2  2  0  0  0
  2  3  1  0  0  0
  3  4  2  0  0  0
  4  5  1  0  0  0
  5  6  2  0  0  0
  6  7  1  0  0  0
  7 34  1  0  0  0
 34 35  3  0  0  0
 35 36  1  0  0  0
 36 37  1  0  0  0
 36 38  1  0  0  0
 38 39  1  0  0  0
 39 40  1  0  0  0
 40 41  1  0  0  0
  7  8  2  0  0  0
  8  9  1  0  0  0
  8 10  1  0  0  0
 10 11  2  0  0  0
 11 12  1  0  0  0
 12 13  1  0  0  0
 13 14  1  0  0  0
 14 15  1  0  0  0
 14 16  1  0  0  0
  2 17  1  0  0  0
 17 18  1  0  0  0
 17 19  2  0  0  0
 31 25  1  0  0  0
 16  1  1  0  0  0
 16  4  1  0  0  0
 11  5  1  0  0  0
 15 12  1  0  0  0
 41 36  1  0  0  0
 23 24  1  0  0  0
 37 42  1  0  0  0
 18 20  1  0  0  0
 18 21  1  0  0  0
M  END
> <minimizedAffinity>
-6.60479

> <CNNscore>
0.1623693854

> <CNNaffinity>
5.9170136452

> <CNN_VS>
0.9607418776

> <CNNaffinity_variance>
0.4226036072

$$$$
[H]OC1(C#Cc2c([H])c3c(c([H])c2F)C2([H])C([H])([H])C([H])(n4c-3nc(C(=O)N([H])[H])c4[C@]([H])(O[H])c3c(OC([H])([H])[H])nc([H])c(F)c3[H])C2([H])[H])C([H])([H])C([H])([H])C([H])([H])C1([H])[H]


 42 47  0  0  0  0  0  0  0  0999 V2000
   36.6568   15.2053  -10.6981 C   0  0  0  0  0  0  0  0  0  0  0  0
   37.9185   15.6768  -10.5273 C   0  0  0  0  0  0  0  0  0  0  0  0
   38.6896   15.1517  -11.5494 N   0  0  0  0  0  0  0  0  0  0  0  0
   37.9137   14.3934  -12.3034 C   0  0  0  0  0  0  0  0  0  0  0  0
   38.3675   13.6491  -13.5104 C   0  0  0  0  0  0  0  0  0  0  0  0
   39.7098   13.8179  -13.7744 C   0  0  0  0  0  0  0  0  0  0  0  0
   40.2476   13.1756  -14.8711 C   0  0  0  0  0  0  0  0  0  0  0  0
   39.4384   12.3763  -15.6854 C   0  0  0  0  0  0  0  0  0  0  0  0
   39.9734   11.7471  -16.7628 F   0  0  0  0  0  0  0  0  0  0  0  0
   38.0937   12.2030  -15.4266 C   0  0  0  0  0  0  0  0  0  0  0  0
   37.5866   12.8494  -14.3357 C   0  0  0  0  0  0  0  0  0  0  0  0
   36.1120   12.5895  -14.1494 C   0  0  0  0  0  0  0  0  0  0  0  0
   35.9193   12.2500  -12.6892 C   0  0  0  0  0  0  0  0  0  0  0  0
   35.5128   13.6931  -12.3516 C   0  0  0  0  0  0  0  0  0  0  0  0
   35.4018   13.9120  -13.8543 C   0  0  0  0  0  0  0  0  0  0  0  0
   36.6698   14.4107  -11.8037 N   0  0  0  0  0  0  0  0  0  0  0  0
   38.4939   16.5666   -9.5173 C   0  0  0  0  0  0  0  0  0  0  0  0
   38.5764   17.9554   -9.5354 N   0  0  0  0  0  0  0  0  0  0  0  0
   38.9922   16.0051   -8.4693 O   0  0  0  0  0  0  0  0  0  0  0  0
   37.7414   18.5928   -9.3657 H   0  0  0  0  0  0  0  0  0  0  0  0
   39.4656   18.5008   -9.7172 H   0  0  0  0  0  0  0  0  0  0  0  0
   35.4553   15.4369   -9.9089 C   0  0  0  0  0  0  0  0  0  0  0  0
   34.3944   16.0459  -10.5519 O   0  0  0  0  0  0  0  0  0  0  0  0
   33.8415   16.5514   -9.8942 H   0  0  0  0  0  0  0  0  0  0  0  0
   36.0649   15.3657   -7.5250 C   0  0  0  0  0  0  0  0  0  0  0  0
   36.3005   15.9114   -6.3315 N   0  0  0  0  0  0  0  0  0  0  0  0
   36.1646   17.2544   -6.1379 C   0  0  0  0  0  0  0  0  0  0  0  0
   35.7828   18.0292   -7.1896 C   0  0  0  0  0  0  0  0  0  0  0  0
   35.6312   19.3737   -7.0579 F   0  0  0  0  0  0  0  0  0  0  0  0
   35.5273   17.4934   -8.4546 C   0  0  0  0  0  0  0  0  0  0  0  0
   35.6730   16.1456   -8.6122 C   0  0  0  0  0  0  0  0  0  0  0  0
   36.8424   13.1504   -6.7945 C   0  0  0  0  0  0  0  0  0  0  0  0
   36.2024   14.0084   -7.7197 O   0  0  0  0  0  0  0  0  0  0  0  0
   41.6406   13.3012  -15.2160 C   0  0  0  0  0  0  0  0  0  0  0  0
   42.8241   13.4108  -15.4871 C   0  0  0  0  0  0  0  0  0  0  0  0
   44.2386   13.5535  -15.7879 C   0  0  0  0  0  0  0  0  0  0  0  0
   44.6096   14.8958  -15.8248 O   0  0  0  0  0  0  0  0  0  0  0  0
   45.0964   12.7732  -14.8380 C   0  0  0  0  0  0  0  0  0  0  0  0
   44.9168   11.3553  -15.3395 C   0  0  0  0  0  0  0  0  0  0  0  0
   44.7015   11.4609  -16.8173 C   0  0  0  0  0  0  0  0  0  0  0  0
   44.4699   12.8991  -17.1461 C   0  0  0  0  0  0  0  0  0  0  0  0
   44.8249   15.2246  -14.9219 H   0  0  0  0  0  0  0  0  0  0  0  0
 32 33  1  0  0  0
 33 25  1  0  0  0
 25 26  2  0  0  0
 26 27  1  0  0  0
 27 28  2  0  0  0
 28 29  1  0  0  0
 28 30  1  0  0  0
 30 31  2  0  0  0
 31 22  1  0  0  0
 22 23  1  0  0  0
 22  1  1  0  0  0
  1  2  2  0  0  0
  2  3  1  0  0  0
  3  4  2  0  0  0
  4  5  1  0  0  0
  5  6  2  0  0  0
  6  7  1  0  0  0
  7 34  1  0  0  0
 34 35  3  0  0  0
 35 36  1  0  0  0
 36 37  1  0  0  0
 36 38  1  0  0  0
 38 39  1  0  0  0
 39 40  1  0  0  0
 40 41  1  0  0  0
  7  8  2  0  0  0
  8  9  1  0  0  0
  8 10  1  0  0  0
 10 11  2  0  0  0
 11 12  1  0  0  0
 12 13  1  0  0  0
 13 14  1  0  0  0
 14 15  1  0  0  0
 14 16  1  0  0  0
  2 17  1  0  0  0
 17 18  1  0  0  0
 17 19  2  0  0  0
 31 25  1  0  0  0
 16  1  1  0  0  0
 16  4  1  0  0  0
 11  5  1  0  0  0
 15 12  1  0  0  0
 41 36  1  0  0  0
 23 24  1  0  0  0
 37 42  1  0  0  0
 18 20  1  0  0  0
 18 21  1  0  0  0
M  END
> <minimizedAffinity>
-8.26958

> <CNNscore>
0.1118713617

> <CNNaffinity>
6.3591871262

> <CNN_VS>
0.7114109397

> <CNNaffinity_variance>
0.1645991802

$$$$
[H]OC1(C#Cc2c([H])c3c(c([H])c2F)C2([H])C([H])([H])C([H])(n4c-3nc(C(=O)N([H])[H])c4[C@]([H])(O[H])c3c(OC([H])([H])[H])nc([H])c(F)c3[H])C2([H])[H])C([H])([H])C([H])([H])C([H])([H])C1([H])[H]


 42 47  0  0  0  0  0  0  0  0999 V2000
   38.4359   15.8597   -8.5869 C   0  0  0  0  0  0  0  0  0  0  0  0
   38.5596   16.7099   -9.6382 C   0  0  0  0  0  0  0  0  0  0  0  0
   39.8877   16.6852  -10.0259 N   0  0  0  0  0  0  0  0  0  0  0  0
   40.5333   15.8487   -9.2327 C   0  0  0  0  0  0  0  0  0  0  0  0
   41.9871   15.5411   -9.3253 C   0  0  0  0  0  0  0  0  0  0  0  0
   42.6210   16.2332  -10.3348 C   0  0  0  0  0  0  0  0  0  0  0  0
   43.9735   16.0302  -10.5191 C   0  0  0  0  0  0  0  0  0  0  0  0
   44.6706   15.1412   -9.6942 C   0  0  0  0  0  0  0  0  0  0  0  0
   46.0010   14.9458   -9.8806 F   0  0  0  0  0  0  0  0  0  0  0  0
   44.0419   14.4451   -8.6816 C   0  0  0  0  0  0  0  0  0  0  0  0
   42.7036   14.6640   -8.5204 C   0  0  0  0  0  0  0  0  0  0  0  0
   42.1222   13.8535   -7.3883 C   0  0  0  0  0  0  0  0  0  0  0  0
   41.2767   14.8043   -6.5724 C   0  0  0  0  0  0  0  0  0  0  0  0
   39.9921   14.3654   -7.2926 C   0  0  0  0  0  0  0  0  0  0  0  0
   40.8131   13.2109   -7.8506 C   0  0  0  0  0  0  0  0  0  0  0  0
   39.6686   15.3334   -8.3473 N   0  0  0  0  0  0  0  0  0  0  0  0
   37.5783   17.5476  -10.3299 C   0  0  0  0  0  0  0  0  0  0  0  0
   36.4278   17.1523  -11.0052 N   0  0  0  0  0  0  0  0  0  0  0  0
   37.7945   18.8184  -10.3202 O   0  0  0  0  0  0  0  0  0  0  0  0
   35.5419   16.8302  -10.5117 H   0  0  0  0  0  0  0  0  0  0  0  0
   36.3274   17.1353  -12.0592 H   0  0  0  0  0  0  0  0  0  0  0  0
   37.2638   15.5118   -7.7963 C   0  0  0  0  0  0  0  0  0  0  0  0
   36.0598   15.4281   -8.4693 O   0  0  0  0  0  0  0  0  0  0  0  0
   35.3071   15.6351   -7.8492 H   0  0  0  0  0  0  0  0  0  0  0  0
   36.2041   15.8262   -5.5967 C   0  0  0  0  0  0  0  0  0  0  0  0
   35.9663   16.4897   -4.4649 N   0  0  0  0  0  0  0  0  0  0  0  0
   36.5456   17.7016   -4.2304 C   0  0  0  0  0  0  0  0  0  0  0  0
   37.3736   18.2224   -5.1766 C   0  0  0  0  0  0  0  0  0  0  0  0
   37.9802   19.4260   -4.9992 F   0  0  0  0  0  0  0  0  0  0  0  0
   37.6466   17.5566   -6.3744 C   0  0  0  0  0  0  0  0  0  0  0  0
   37.0495   16.3460   -6.5758 C   0  0  0  0  0  0  0  0  0  0  0  0
   35.6281   13.5405   -4.8968 C   0  0  0  0  0  0  0  0  0  0  0  0
   35.6182   14.6013   -5.8329 O   0  0  0  0  0  0  0  0  0  0  0  0
   44.7093   16.7137  -11.5519 C   0  0  0  0  0  0  0  0  0  0  0  0
   45.3335   17.2736  -12.4368 C   0  0  0  0  0  0  0  0  0  0  0  0
   46.0866   17.9183  -13.4993 C   0  0  0  0  0  0  0  0  0  0  0  0
   45.4078   19.0318  -13.9893 O   0  0  0  0  0  0  0  0  0  0  0  0
   47.4783   18.2703  -13.0676 C   0  0  0  0  0  0  0  0  0  0  0  0
   48.1722   16.9245  -13.1048 C   0  0  0  0  0  0  0  0  0  0  0  0
   47.5075   16.1438  -14.1956 C   0  0  0  0  0  0  0  0  0  0  0  0
   46.2734   16.8804  -14.6012 C   0  0  0  0  0  0  0  0  0  0  0  0
   45.6018   19.8284  -13.4438 H   0  0  0  0  0  0  0  0  0  0  0  0
 32 33  1  0  0  0
 33 25  1  0  0  0
 25 26  2  0  0  0
 26 27  1  0  0  0
 27 28  2  0  0  0
 28 29  1  0  0  0
 28 30  1  0  0  0
 30 31  2  0  0  0
 31 22  1  0  0  0
 22 23  1  0  0  0
 22  1  1  0  0  0
  1  2  2  0  0  0
  2  3  1  0  0  0
  3  4  2  0  0  0
  4  5  1  0  0  0
  5  6  2  0  0  0
  6  7  1  0  0  0
  7 34  1  0  0  0
 34 35  3  0  0  0
 35 36  1  0  0  0
 36 37  1  0  0  0
 36 38  1  0  0  0
 38 39  1  0  0  0
 39 40  1  0  0  0
 40 41  1  0  0  0
  7  8  2  0  0  0
  8  9  1  0  0  0
  8 10  1  0  0  0
 10 11  2  0  0  0
 11 12  1  0  0  0
 12 13  1  0  0  0
 13 14  1  0  0  0
 14 15  1  0  0  0
 14 16  1  0  0  0
  2 17  1  0  0  0
 17 18  1  0  0  0
 17 19  2  0  0  0
 31 25  1  0  0  0
 16  1  1  0  0  0
 16  4  1  0  0  0
 11  5  1  0  0  0
 15 12  1  0  0  0
 41 36  1  0  0  0
 23 24  1  0  0  0
 37 42  1  0  0  0
 18 20  1  0  0  0
 18 21  1  0  0  0
M  END
> <minimizedAffinity>
-6.69554

> <CNNscore>
0.1116871461

> <CNNaffinity>
5.6644697189

> <CNN_VS>
0.6326484680

> <CNNaffinity_variance>
0.1592198163

$$$$
[H]OC1(C#Cc2c([H])c3c(c([H])c2F)C2([H])C([H])([H])C([H])(n4c-3nc(C(=O)N([H])[H])c4[C@]([H])(O[H])c3c(OC([H])([H])[H])nc([H])c(F)c3[H])C2([H])[H])C([H])([H])C([H])([H])C([H])([H])C1([H])[H]


 42 47  0  0  0  0  0  0  0  0999 V2000
   37.8028   16.3354   -7.9757 C   0  0  0  0  0  0  0  0  0  0  0  0
   38.2079   16.8000   -9.1854 C   0  0  0  0  0  0  0  0  0  0  0  0
   39.4928   16.3295   -9.3911 N   0  0  0  0  0  0  0  0  0  0  0  0
   39.8414   15.6091   -8.3399 C   0  0  0  0  0  0  0  0  0  0  0  0
   41.1541   14.9260   -8.1755 C   0  0  0  0  0  0  0  0  0  0  0  0
   42.0025   15.1251   -9.2435 C   0  0  0  0  0  0  0  0  0  0  0  0
   43.2515   14.5395   -9.2058 C   0  0  0  0  0  0  0  0  0  0  0  0
   43.6333   13.7660   -8.1047 C   0  0  0  0  0  0  0  0  0  0  0  0
   44.8634   13.1926   -8.0736 F   0  0  0  0  0  0  0  0  0  0  0  0
   42.7887   13.5628   -7.0320 C   0  0  0  0  0  0  0  0  0  0  0  0
   41.5588   14.1531   -7.0942 C   0  0  0  0  0  0  0  0  0  0  0  0
   40.7220   13.8648   -5.8722 C   0  0  0  0  0  0  0  0  0  0  0  0
   40.1385   15.1880   -5.4322 C   0  0  0  0  0  0  0  0  0  0  0  0
   38.8175   14.9112   -6.1670 C   0  0  0  0  0  0  0  0  0  0  0  0
   39.3085   13.4771   -6.3107 C   0  0  0  0  0  0  0  0  0  0  0  0
   38.8269   15.5985   -7.4637 N   0  0  0  0  0  0  0  0  0  0  0  0
   37.5329   17.6357  -10.1800 C   0  0  0  0  0  0  0  0  0  0  0  0
   36.4910   17.2903  -11.0350 N   0  0  0  0  0  0  0  0  0  0  0  0
   37.9464   18.8519  -10.2889 O   0  0  0  0  0  0  0  0  0  0  0  0
   35.4844   17.1713  -10.7114 H   0  0  0  0  0  0  0  0  0  0  0  0
   36.6006   17.1159  -12.0737 H   0  0  0  0  0  0  0  0  0  0  0  0
   36.5446   16.5324   -7.2699 C   0  0  0  0  0  0  0  0  0  0  0  0
   35.3922   16.5152   -8.0325 O   0  0  0  0  0  0  0  0  0  0  0  0
   34.6886   17.0735   -7.6002 H   0  0  0  0  0  0  0  0  0  0  0  0
   36.0527   17.5414   -5.0790 C   0  0  0  0  0  0  0  0  0  0  0  0
   35.9893   18.5528   -4.2125 N   0  0  0  0  0  0  0  0  0  0  0  0
   36.3541   19.8136   -4.5821 C   0  0  0  0  0  0  0  0  0  0  0  0
   36.7854   20.0203   -5.8563 C   0  0  0  0  0  0  0  0  0  0  0  0
   37.1629   21.2547   -6.2825 F   0  0  0  0  0  0  0  0  0  0  0  0
   36.8655   18.9855   -6.7919 C   0  0  0  0  0  0  0  0  0  0  0  0
   36.4922   17.7366   -6.3876 C   0  0  0  0  0  0  0  0  0  0  0  0
   35.3136   15.9209   -3.3838 C   0  0  0  0  0  0  0  0  0  0  0  0
   35.6838   16.2674   -4.7047 O   0  0  0  0  0  0  0  0  0  0  0  0
   44.1962   14.6981  -10.2818 C   0  0  0  0  0  0  0  0  0  0  0  0
   45.0050   14.8137  -11.1866 C   0  0  0  0  0  0  0  0  0  0  0  0
   45.9845   14.9349  -12.2531 C   0  0  0  0  0  0  0  0  0  0  0  0
   47.1055   15.6429  -11.8251 O   0  0  0  0  0  0  0  0  0  0  0  0
   46.3628   13.6010  -12.8228 C   0  0  0  0  0  0  0  0  0  0  0  0
   45.1588   13.2689  -13.6799 C   0  0  0  0  0  0  0  0  0  0  0  0
   44.6225   14.5783  -14.1690 C   0  0  0  0  0  0  0  0  0  0  0  0
   45.2987   15.6669  -13.4021 C   0  0  0  0  0  0  0  0  0  0  0  0
   47.7477   15.0450  -11.3782 H   0  0  0  0  0  0  0  0  0  0  0  0
 32 33  1  0  0  0
 33 25  1  0  0  0
 25 26  2  0  0  0
 26 27  1  0  0  0
 27 28  2  0  0  0
 28 29  1  0  0  0
 28 30  1  0  0  0
 30 31  2  0  0  0
 31 22  1  0  0  0
 22 23  1  0  0  0
 22  1  1  0  0  0
  1  2  2  0  0  0
  2  3  1  0  0  0
  3  4  2  0  0  0
  4  5  1  0  0  0
  5  6  2  0  0  0
  6  7  1  0  0  0
  7 34  1  0  0  0
 34 35  3  0  0  0
 35 36  1  0  0  0
 36 37  1  0  0  0
 36 38  1  0  0  0
 38 39  1  0  0  0
 39 40  1  0  0  0
 40 41  1  0  0  0
  7  8  2  0  0  0
  8  9  1  0  0  0
  8 10  1  0  0  0
 10 11  2  0  0  0
 11 12  1  0  0  0
 12 13  1  0  0  0
 13 14  1  0  0  0
 14 15  1  0  0  0
 14 16  1  0  0  0
  2 17  1  0  0  0
 17 18  1  0  0  0
 17 19  2  0  0  0
 31 25  1  0  0  0
 16  1  1  0  0  0
 16  4  1  0  0  0
 11  5  1  0  0  0
 15 12  1  0  0  0
 41 36  1  0  0  0
 23 24  1  0  0  0
 37 42  1  0  0  0
 18 20  1  0  0  0
 18 21  1  0  0  0
M  END
> <minimizedAffinity>
-6.19711

> <CNNscore>
0.1082896739

> <CNNaffinity>
5.8272562027

> <CNN_VS>
0.6310316920

> <CNNaffinity_variance>
0.0827734470

$$$$
[H]OC1(C#Cc2c([H])c3c(c([H])c2F)C2([H])C([H])([H])C([H])(n4c-3nc(C(=O)N([H])[H])c4[C@]([H])(O[H])c3c(OC([H])([H])[H])nc([H])c(F)c3[H])C2([H])[H])C([H])([H])C([H])([H])C([H])([H])C1([H])[H]


 42 47  0  0  0  0  0  0  0  0999 V2000
   35.6495   15.6907   -8.2570 C   0  0  0  0  0  0  0  0  0  0  0  0
   36.2725   15.8370   -9.4544 C   0  0  0  0  0  0  0  0  0  0  0  0
   37.6068   15.5271   -9.2580 N   0  0  0  0  0  0  0  0  0  0  0  0
   37.7729   15.2070   -7.9869 C   0  0  0  0  0  0  0  0  0  0  0  0
   39.0699   14.8089   -7.3737 C   0  0  0  0  0  0  0  0  0  0  0  0
   40.1147   14.8129   -8.2728 C   0  0  0  0  0  0  0  0  0  0  0  0
   41.3698   14.4601   -7.8201 C   0  0  0  0  0  0  0  0  0  0  0  0
   41.5617   14.1095   -6.4796 C   0  0  0  0  0  0  0  0  0  0  0  0
   42.7987   13.7634   -6.0405 F   0  0  0  0  0  0  0  0  0  0  0  0
   40.5198   14.1035   -5.5742 C   0  0  0  0  0  0  0  0  0  0  0  0
   39.2885   14.4564   -6.0476 C   0  0  0  0  0  0  0  0  0  0  0  0
   38.2282   14.4149   -4.9748 C   0  0  0  0  0  0  0  0  0  0  0  0
   37.4490   15.7047   -5.0942 C   0  0  0  0  0  0  0  0  0  0  0  0
   36.3543   15.0285   -5.9345 C   0  0  0  0  0  0  0  0  0  0  0  0
   36.9873   13.7067   -5.5215 C   0  0  0  0  0  0  0  0  0  0  0  0
   36.5933   15.2997   -7.3569 N   0  0  0  0  0  0  0  0  0  0  0  0
   35.7668   16.2330  -10.7699 C   0  0  0  0  0  0  0  0  0  0  0  0
   36.2577   17.2150  -11.6246 N   0  0  0  0  0  0  0  0  0  0  0  0
   34.7333   15.5982  -11.2065 O   0  0  0  0  0  0  0  0  0  0  0  0
   37.1471   17.1001  -12.1973 H   0  0  0  0  0  0  0  0  0  0  0  0
   35.7986   18.1559  -11.7831 H   0  0  0  0  0  0  0  0  0  0  0  0
   34.2533   15.8927   -7.8966 C   0  0  0  0  0  0  0  0  0  0  0  0
   33.4323   16.4404   -8.8639 O   0  0  0  0  0  0  0  0  0  0  0  0
   32.6840   16.9394   -8.4338 H   0  0  0  0  0  0  0  0  0  0  0  0
   34.4989   17.9538   -6.5732 C   0  0  0  0  0  0  0  0  0  0  0  0
   34.3275   18.7083   -5.4873 N   0  0  0  0  0  0  0  0  0  0  0  0
   33.6828   18.2180   -4.3903 C   0  0  0  0  0  0  0  0  0  0  0  0
   33.2161   16.9401   -4.4254 C   0  0  0  0  0  0  0  0  0  0  0  0
   32.5652   16.3965   -3.3629 F   0  0  0  0  0  0  0  0  0  0  0  0
   33.3767   16.1197   -5.5452 C   0  0  0  0  0  0  0  0  0  0  0  0
   34.0269   16.6430   -6.6250 C   0  0  0  0  0  0  0  0  0  0  0  0
   36.1980   19.3984   -7.6085 C   0  0  0  0  0  0  0  0  0  0  0  0
   35.1506   18.4501   -7.6815 O   0  0  0  0  0  0  0  0  0  0  0  0
   42.5134   14.4382   -8.6958 C   0  0  0  0  0  0  0  0  0  0  0  0
   43.4732   14.4367   -9.4475 C   0  0  0  0  0  0  0  0  0  0  0  0
   44.6037   14.4485  -10.3604 C   0  0  0  0  0  0  0  0  0  0  0  0
   45.4874   15.4797  -10.0494 O   0  0  0  0  0  0  0  0  0  0  0  0
   45.3021   13.1229  -10.4070 C   0  0  0  0  0  0  0  0  0  0  0  0
   44.3569   12.2957  -11.2535 C   0  0  0  0  0  0  0  0  0  0  0  0
   43.7118   13.2499  -12.2099 C   0  0  0  0  0  0  0  0  0  0  0  0
   44.0368   14.6375  -11.7637 C   0  0  0  0  0  0  0  0  0  0  0  0
   46.1236   15.1975   -9.3528 H   0  0  0  0  0  0  0  0  0  0  0  0
 32 33  1  0  0  0
 33 25  1  0  0  0
 25 26  2  0  0  0
 26 27  1  0  0  0
 27 28  2  0  0  0
 28 29  1  0  0  0
 28 30  1  0  0  0
 30 31  2  0  0  0
 31 22  1  0  0  0
 22 23  1  0  0  0
 22  1  1  0  0  0
  1  2  2  0  0  0
  2  3  1  0  0  0
  3  4  2  0  0  0
  4  5  1  0  0  0
  5  6  2  0  0  0
  6  7  1  0  0  0
  7 34  1  0  0  0
 34 35  3  0  0  0
 35 36  1  0  0  0
 36 37  1  0  0  0
 36 38  1  0  0  0
 38 39  1  0  0  0
 39 40  1  0  0  0
 40 41  1  0  0  0
  7  8  2  0  0  0
  8  9  1  0  0  0
  8 10  1  0  0  0
 10 11  2  0  0  0
 11 12  1  0  0  0
 12 13  1  0  0  0
 13 14  1  0  0  0
 14 15  1  0  0  0
 14 16  1  0  0  0
  2 17  1  0  0  0
 17 18  1  0  0  0
 17 19  2  0  0  0
 31 25  1  0  0  0
 16  1  1  0  0  0
 16  4  1  0  0  0
 11  5  1  0  0  0
 15 12  1  0  0  0
 41 36  1  0  0  0
 23 24  1  0  0  0
 37 42  1  0  0  0
 18 20  1  0  0  0
 18 21  1  0  0  0
M  END
> <minimizedAffinity>
-6.50909

> <CNNscore>
0.1062990427

> <CNNaffinity>
5.9181871414

> <CNN_VS>
0.6290976405

> <CNNaffinity_variance>
0.1789806336

$$$$
[H]OC1(C#Cc2c([H])c3c(c([H])c2F)C2([H])C([H])([H])C([H])(n4c-3nc(C(=O)N([H])[H])c4[C@]([H])(O[H])c3c(OC([H])([H])[H])nc([H])c(F)c3[H])C2([H])[H])C([H])([H])C([H])([H])C([H])([H])C1([H])[H]


 42 47  0  0  0  0  0  0  0  0999 V2000
   36.8207   15.6027  -11.0076 C   0  0  0  0  0  0  0  0  0  0  0  0
   38.0962   16.0459  -10.8668 C   0  0  0  0  0  0  0  0  0  0  0  0
   38.8549   15.4131  -11.8357 N   0  0  0  0  0  0  0  0  0  0  0  0
   38.0585   14.6199  -12.5301 C   0  0  0  0  0  0  0  0  0  0  0  0
   38.4939   13.7636  -13.6676 C   0  0  0  0  0  0  0  0  0  0  0  0
   39.8423   13.8666  -13.9343 C   0  0  0  0  0  0  0  0  0  0  0  0
   40.3643   13.1183  -14.9696 C   0  0  0  0  0  0  0  0  0  0  0  0
   39.5337   12.2803  -15.7210 C   0  0  0  0  0  0  0  0  0  0  0  0
   40.0532   11.5468  -16.7382 F   0  0  0  0  0  0  0  0  0  0  0  0
   38.1827   12.1725  -15.4591 C   0  0  0  0  0  0  0  0  0  0  0  0
   37.6915   12.9234  -14.4297 C   0  0  0  0  0  0  0  0  0  0  0  0
   36.2082   12.7275  -14.2339 C   0  0  0  0  0  0  0  0  0  0  0  0
   35.9971   12.5171  -12.7520 C   0  0  0  0  0  0  0  0  0  0  0  0
   35.6363   13.9955  -12.5387 C   0  0  0  0  0  0  0  0  0  0  0  0
   35.5401   14.0921  -14.0552 C   0  0  0  0  0  0  0  0  0  0  0  0
   36.8134   14.7188  -12.0433 N   0  0  0  0  0  0  0  0  0  0  0  0
   38.6953   16.9978   -9.9297 C   0  0  0  0  0  0  0  0  0  0  0  0
   39.6219   16.7512   -8.9216 N   0  0  0  0  0  0  0  0  0  0  0  0
   38.3263   18.2280  -10.0411 O   0  0  0  0  0  0  0  0  0  0  0  0
   40.6516   16.5585   -9.1086 H   0  0  0  0  0  0  0  0  0  0  0  0
   39.3926   16.7325   -7.8880 H   0  0  0  0  0  0  0  0  0  0  0  0
   35.6234   15.9377  -10.2497 C   0  0  0  0  0  0  0  0  0  0  0  0
   35.3596   17.2811  -10.0619 O   0  0  0  0  0  0  0  0  0  0  0  0
   34.8438   17.4130   -9.2191 H   0  0  0  0  0  0  0  0  0  0  0  0
   34.2632   15.3492   -8.2842 C   0  0  0  0  0  0  0  0  0  0  0  0
   34.0495   14.7587   -7.1080 N   0  0  0  0  0  0  0  0  0  0  0  0
   35.0358   14.0434   -6.4956 C   0  0  0  0  0  0  0  0  0  0  0  0
   36.2461   13.9435   -7.1101 C   0  0  0  0  0  0  0  0  0  0  0  0
   37.2674   13.2436   -6.5488 F   0  0  0  0  0  0  0  0  0  0  0  0
   36.5072   14.5483   -8.3424 C   0  0  0  0  0  0  0  0  0  0  0  0
   35.4972   15.2565   -8.9264 C   0  0  0  0  0  0  0  0  0  0  0  0
   31.9096   15.6695   -8.9196 C   0  0  0  0  0  0  0  0  0  0  0  0
   33.2658   16.0720   -8.9023 O   0  0  0  0  0  0  0  0  0  0  0  0
   41.7625   13.1700  -15.3130 C   0  0  0  0  0  0  0  0  0  0  0  0
   42.9506   13.2112  -15.5827 C   0  0  0  0  0  0  0  0  0  0  0  0
   44.3720   13.2662  -15.8797 C   0  0  0  0  0  0  0  0  0  0  0  0
   44.6089   13.0475  -17.2351 O   0  0  0  0  0  0  0  0  0  0  0  0
   44.9942   14.5479  -15.4139 C   0  0  0  0  0  0  0  0  0  0  0  0
   45.1002   14.3247  -13.9196 C   0  0  0  0  0  0  0  0  0  0  0  0
   45.3053   12.8536  -13.7323 C   0  0  0  0  0  0  0  0  0  0  0  0
   45.0413   12.1828  -15.0402 C   0  0  0  0  0  0  0  0  0  0  0  0
   44.5262   13.8860  -17.7448 H   0  0  0  0  0  0  0  0  0  0  0  0
 32 33  1  0  0  0
 33 25  1  0  0  0
 25 26  2  0  0  0
 26 27  1  0  0  0
 27 28  2  0  0  0
 28 29  1  0  0  0
 28 30  1  0  0  0
 30 31  2  0  0  0
 31 22  1  0  0  0
 22 23  1  0  0  0
 22  1  1  0  0  0
  1  2  2  0  0  0
  2  3  1  0  0  0
  3  4  2  0  0  0
  4  5  1  0  0  0
  5  6  2  0  0  0
  6  7  1  0  0  0
  7 34  1  0  0  0
 34 35  3  0  0  0
 35 36  1  0  0  0
 36 37  1  0  0  0
 36 38  1  0  0  0
 38 39  1  0  0  0
 39 40  1  0  0  0
 40 41  1  0  0  0
  7  8  2  0  0  0
  8  9  1  0  0  0
  8 10  1  0  0  0
 10 11  2  0  0  0
 11 12  1  0  0  0
 12 13  1  0  0  0
 13 14  1  0  0  0
 14 15  1  0  0  0
 14 16  1  0  0  0
  2 17  1  0  0  0
 17 18  1  0  0  0
 17 19  2  0  0  0
 31 25  1  0  0  0
 16  1  1  0  0  0
 16  4  1  0  0  0
 11  5  1  0  0  0
 15 12  1  0  0  0
 41 36  1  0  0  0
 23 24  1  0  0  0
 37 42  1  0  0  0
 18 20  1  0  0  0
 18 21  1  0  0  0
M  END
> <minimizedAffinity>
-9.28665

> <CNNscore>
0.1039774492

> <CNNaffinity>
6.2729644775

> <CNN_VS>
0.6522468328

> <CNNaffinity_variance>
0.3142915964

$$$$
[H]OC1(C#Cc2c([H])c3c(c([H])c2F)C2([H])C([H])([H])C([H])(n4c-3nc(C(=O)N([H])[H])c4[C@]([H])(O[H])c3c(OC([H])([H])[H])nc([H])c(F)c3[H])C2([H])[H])C([H])([H])C([H])([H])C([H])([H])C1([H])[H]


 42 47  0  0  0  0  0  0  0  0999 V2000
   44.2818   14.8821  -12.4486 C   0  0  0  0  0  0  0  0  0  0  0  0
   43.1070   15.1078  -11.8064 C   0  0  0  0  0  0  0  0  0  0  0  0
   42.1044   14.5703  -12.5942 N   0  0  0  0  0  0  0  0  0  0  0  0
   42.6627   14.0423  -13.6689 C   0  0  0  0  0  0  0  0  0  0  0  0
   41.9195   13.3621  -14.7652 C   0  0  0  0  0  0  0  0  0  0  0  0
   40.5568   13.3394  -14.5590 C   0  0  0  0  0  0  0  0  0  0  0  0
   39.7605   12.7339  -15.5097 C   0  0  0  0  0  0  0  0  0  0  0  0
   40.3359   12.1618  -16.6491 C   0  0  0  0  0  0  0  0  0  0  0  0
   39.5472   11.5677  -17.5806 F   0  0  0  0  0  0  0  0  0  0  0  0
   41.6997   12.1812  -16.8616 C   0  0  0  0  0  0  0  0  0  0  0  0
   42.4649   12.7863  -15.9060 C   0  0  0  0  0  0  0  0  0  0  0  0
   43.9357   12.7489  -16.2407 C   0  0  0  0  0  0  0  0  0  0  0  0
   44.4625   14.1464  -16.0078 C   0  0  0  0  0  0  0  0  0  0  0  0
   44.9680   13.7800  -14.6036 C   0  0  0  0  0  0  0  0  0  0  0  0
   44.7236   12.3298  -14.9981 C   0  0  0  0  0  0  0  0  0  0  0  0
   43.9897   14.2204  -13.6022 N   0  0  0  0  0  0  0  0  0  0  0  0
   42.8070   15.7689  -10.5352 C   0  0  0  0  0  0  0  0  0  0  0  0
   43.5352   15.7341   -9.3502 N   0  0  0  0  0  0  0  0  0  0  0  0
   41.7321   16.4793  -10.4932 O   0  0  0  0  0  0  0  0  0  0  0  0
   44.4463   16.2651   -9.2082 H   0  0  0  0  0  0  0  0  0  0  0  0
   43.2549   15.1835   -8.4902 H   0  0  0  0  0  0  0  0  0  0  0  0
   45.6410   15.2406  -12.0689 C   0  0  0  0  0  0  0  0  0  0  0  0
   46.0411   14.9026  -10.7901 O   0  0  0  0  0  0  0  0  0  0  0  0
   46.7422   15.5365  -10.4731 H   0  0  0  0  0  0  0  0  0  0  0  0
   47.3625   16.9951  -12.2031 C   0  0  0  0  0  0  0  0  0  0  0  0
   47.7908   18.2403  -12.4124 N   0  0  0  0  0  0  0  0  0  0  0  0
   46.9154   19.2361  -12.7311 C   0  0  0  0  0  0  0  0  0  0  0  0
   45.5923   18.9335  -12.8317 C   0  0  0  0  0  0  0  0  0  0  0  0
   44.6726   19.8836  -13.1469 F   0  0  0  0  0  0  0  0  0  0  0  0
   45.1064   17.6406  -12.6196 C   0  0  0  0  0  0  0  0  0  0  0  0
   46.0107   16.6689  -12.3022 C   0  0  0  0  0  0  0  0  0  0  0  0
   49.3542   15.6378  -12.6900 C   0  0  0  0  0  0  0  0  0  0  0  0
   48.2479   15.9893  -11.8810 O   0  0  0  0  0  0  0  0  0  0  0  0
   38.3284   12.6671  -15.3685 C   0  0  0  0  0  0  0  0  0  0  0  0
   37.1180   12.6213  -15.2304 C   0  0  0  0  0  0  0  0  0  0  0  0
   35.6782   12.5712  -15.0407 C   0  0  0  0  0  0  0  0  0  0  0  0
   35.0466   12.0100  -16.1484 O   0  0  0  0  0  0  0  0  0  0  0  0
   35.3026   11.8594  -13.7761 C   0  0  0  0  0  0  0  0  0  0  0  0
   35.6176   12.8993  -12.7208 C   0  0  0  0  0  0  0  0  0  0  0  0
   35.3788   14.2300  -13.3640 C   0  0  0  0  0  0  0  0  0  0  0  0
   35.2096   14.0074  -14.8309 C   0  0  0  0  0  0  0  0  0  0  0  0
   35.0338   11.0274  -16.0838 H   0  0  0  0  0  0  0  0  0  0  0  0
 32 33  1  0  0  0
 33 25  1  0  0  0
 25 26  2  0  0  0
 26 27  1  0  0  0
 27 28  2  0  0  0
 28 29  1  0  0  0
 28 30  1  0  0  0
 30 31  2  0  0  0
 31 22  1  0  0  0
 22 23  1  0  0  0
 22  1  1  0  0  0
  1  2  2  0  0  0
  2  3  1  0  0  0
  3  4  2  0  0  0
  4  5  1  0  0  0
  5  6  2  0  0  0
  6  7  1  0  0  0
  7 34  1  0  0  0
 34 35  3  0  0  0
 35 36  1  0  0  0
 36 37  1  0  0  0
 36 38  1  0  0  0
 38 39  1  0  0  0
 39 40  1  0  0  0
 40 41  1  0  0  0
  7  8  2  0  0  0
  8  9  1  0  0  0
  8 10  1  0  0  0
 10 11  2  0  0  0
 11 12  1  0  0  0
 12 13  1  0  0  0
 13 14  1  0  0  0
 14 15  1  0  0  0
 14 16  1  0  0  0
  2 17  1  0  0  0
 17 18  1  0  0  0
 17 19  2  0  0  0
 31 25  1  0  0  0
 16  1  1  0  0  0
 16  4  1  0  0  0
 11  5  1  0  0  0
 15 12  1  0  0  0
 41 36  1  0  0  0
 23 24  1  0  0  0
 37 42  1  0  0  0
 18 20  1  0  0  0
 18 21  1  0  0  0
M  END
> <minimizedAffinity>
-8.19139

> <CNNscore>
0.1001954228

> <CNNaffinity>
6.4555153847

> <CNN_VS>
0.6468130946

> <CNNaffinity_variance>
0.0728134066

$$$$
[H]OC1(C#Cc2c([H])c3c(c([H])c2F)C2([H])C([H])([H])C([H])(n4c-3nc(C(=O)N([H])[H])c4[C@]([H])(O[H])c3c(OC([H])([H])[H])nc([H])c(F)c3[H])C2([H])[H])C([H])([H])C([H])([H])C([H])([H])C1([H])[H]


 42 47  0  0  0  0  0  0  0  0999 V2000
   36.1241   16.4072   -7.8792 C   0  0  0  0  0  0  0  0  0  0  0  0
   36.6496   16.2411   -9.1200 C   0  0  0  0  0  0  0  0  0  0  0  0
   37.9004   15.6718   -8.9579 N   0  0  0  0  0  0  0  0  0  0  0  0
   38.1128   15.5044   -7.6647 C   0  0  0  0  0  0  0  0  0  0  0  0
   39.3475   14.9168   -7.0756 C   0  0  0  0  0  0  0  0  0  0  0  0
   40.2810   14.5611   -8.0255 C   0  0  0  0  0  0  0  0  0  0  0  0
   41.4696   14.0041   -7.5993 C   0  0  0  0  0  0  0  0  0  0  0  0
   41.7071   13.8113   -6.2344 C   0  0  0  0  0  0  0  0  0  0  0  0
   42.8783   13.2628   -5.8216 F   0  0  0  0  0  0  0  0  0  0  0  0
   40.7766   14.1653   -5.2782 C   0  0  0  0  0  0  0  0  0  0  0  0
   39.6093   14.7142   -5.7262 C   0  0  0  0  0  0  0  0  0  0  0  0
   38.6690   15.0616   -4.5984 C   0  0  0  0  0  0  0  0  0  0  0  0
   38.1728   16.4629   -4.8722 C   0  0  0  0  0  0  0  0  0  0  0  0
   36.8863   15.9372   -5.5280 C   0  0  0  0  0  0  0  0  0  0  0  0
   37.2608   14.5789   -4.9510 C   0  0  0  0  0  0  0  0  0  0  0  0
   37.0435   15.9457   -6.9872 N   0  0  0  0  0  0  0  0  0  0  0  0
   36.1188   16.5513  -10.4485 C   0  0  0  0  0  0  0  0  0  0  0  0
   36.5738   17.4974  -11.3616 N   0  0  0  0  0  0  0  0  0  0  0  0
   35.0975   15.8670  -10.8367 O   0  0  0  0  0  0  0  0  0  0  0  0
   37.4593   17.3742  -11.9385 H   0  0  0  0  0  0  0  0  0  0  0  0
   36.0881   18.4160  -11.5652 H   0  0  0  0  0  0  0  0  0  0  0  0
   34.8422   16.9645   -7.4716 C   0  0  0  0  0  0  0  0  0  0  0  0
   33.7631   16.7166   -8.2984 O   0  0  0  0  0  0  0  0  0  0  0  0
   33.0941   17.4511   -8.2160 H   0  0  0  0  0  0  0  0  0  0  0  0
   33.7691   18.9257   -6.4409 C   0  0  0  0  0  0  0  0  0  0  0  0
   33.7000   20.2127   -6.0997 N   0  0  0  0  0  0  0  0  0  0  0  0
   34.6928   21.0815   -6.4447 C   0  0  0  0  0  0  0  0  0  0  0  0
   35.7588   20.6080   -7.1459 C   0  0  0  0  0  0  0  0  0  0  0  0
   36.7792   21.4258   -7.5175 F   0  0  0  0  0  0  0  0  0  0  0  0
   35.8662   19.2662   -7.5210 C   0  0  0  0  0  0  0  0  0  0  0  0
   34.8541   18.4251   -7.1592 C   0  0  0  0  0  0  0  0  0  0  0  0
   32.2733   17.9139   -4.7722 C   0  0  0  0  0  0  0  0  0  0  0  0
   32.7653   18.0484   -6.0919 O   0  0  0  0  0  0  0  0  0  0  0  0
   42.4959   13.6046   -8.5279 C   0  0  0  0  0  0  0  0  0  0  0  0
   43.3627   13.2856   -9.3236 C   0  0  0  0  0  0  0  0  0  0  0  0
   44.3878   12.9238  -10.2879 C   0  0  0  0  0  0  0  0  0  0  0  0
   44.8703   11.6391  -10.0473 O   0  0  0  0  0  0  0  0  0  0  0  0
   43.9086   13.0741  -11.7003 C   0  0  0  0  0  0  0  0  0  0  0  0
   43.9581   14.5755  -11.8942 C   0  0  0  0  0  0  0  0  0  0  0  0
   45.0856   15.0681  -11.0413 C   0  0  0  0  0  0  0  0  0  0  0  0
   45.5084   13.9489  -10.1476 C   0  0  0  0  0  0  0  0  0  0  0  0
   44.3006   10.9639  -10.4823 H   0  0  0  0  0  0  0  0  0  0  0  0
 32 33  1  0  0  0
 33 25  1  0  0  0
 25 26  2  0  0  0
 26 27  1  0  0  0
 27 28  2  0  0  0
 28 29  1  0  0  0
 28 30  1  0  0  0
 30 31  2  0  0  0
 31 22  1  0  0  0
 22 23  1  0  0  0
 22  1  1  0  0  0
  1  2  2  0  0  0
  2  3  1  0  0  0
  3  4  2  0  0  0
  4  5  1  0  0  0
  5  6  2  0  0  0
  6  7  1  0  0  0
  7 34  1  0  0  0
 34 35  3  0  0  0
 35 36  1  0  0  0
 36 37  1  0  0  0
 36 38  1  0  0  0
 38 39  1  0  0  0
 39 40  1  0  0  0
 40 41  1  0  0  0
  7  8  2  0  0  0
  8  9  1  0  0  0
  8 10  1  0  0  0
 10 11  2  0  0  0
 11 12  1  0  0  0
 12 13  1  0  0  0
 13 14  1  0  0  0
 14 15  1  0  0  0
 14 16  1  0  0  0
  2 17  1  0  0  0
 17 18  1  0  0  0
 17 19  2  0  0  0
 31 25  1  0  0  0
 16  1  1  0  0  0
 16  4  1  0  0  0
 11  5  1  0  0  0
 15 12  1  0  0  0
 41 36  1  0  0  0
 23 24  1  0  0  0
 37 42  1  0  0  0
 18 20  1  0  0  0
 18 21  1  0  0  0
M  END
> <minimizedAffinity>
-6.63350

> <CNNscore>
0.0942897201

> <CNNaffinity>
5.9952964783

> <CNN_VS>
0.5652948022

> <CNNaffinity_variance>
0.1954086125

$$$$
[H]OC1(C#Cc2c([H])c3c(c([H])c2F)C2([H])C([H])([H])C([H])(n4c-3nc(C(=O)N([H])[H])c4[C@]([H])(O[H])c3c(OC([H])([H])[H])nc([H])c(F)c3[H])C2([H])[H])C([H])([H])C([H])([H])C([H])([H])C1([H])[H]


 42 47  0  0  0  0  0  0  0  0999 V2000
   36.9697   14.7624  -13.2042 C   0  0  0  0  0  0  0  0  0  0  0  0
   35.7916   14.3776  -12.6498 C   0  0  0  0  0  0  0  0  0  0  0  0
   35.9158   14.5384  -11.2810 N   0  0  0  0  0  0  0  0  0  0  0  0
   37.1265   15.0032  -11.0286 C   0  0  0  0  0  0  0  0  0  0  0  0
   37.6520   15.3116   -9.6701 C   0  0  0  0  0  0  0  0  0  0  0  0
   36.7409   15.0530   -8.6685 C   0  0  0  0  0  0  0  0  0  0  0  0
   37.1145   15.3006   -7.3633 C   0  0  0  0  0  0  0  0  0  0  0  0
   38.3892   15.8014   -7.0789 C   0  0  0  0  0  0  0  0  0  0  0  0
   38.7506   16.0429   -5.7929 F   0  0  0  0  0  0  0  0  0  0  0  0
   39.3062   16.0624   -8.0771 C   0  0  0  0  0  0  0  0  0  0  0  0
   38.9117   15.8089   -9.3596 C   0  0  0  0  0  0  0  0  0  0  0  0
   39.9899   16.1297  -10.3652 C   0  0  0  0  0  0  0  0  0  0  0  0
   40.0664   14.9457  -11.3018 C   0  0  0  0  0  0  0  0  0  0  0  0
   39.1631   15.6365  -12.3355 C   0  0  0  0  0  0  0  0  0  0  0  0
   39.3759   16.9102  -11.5289 C   0  0  0  0  0  0  0  0  0  0  0  0
   37.7874   15.1476  -12.1859 N   0  0  0  0  0  0  0  0  0  0  0  0
   34.5544   13.8756  -13.2500 C   0  0  0  0  0  0  0  0  0  0  0  0
   33.6203   14.5696  -14.0126 N   0  0  0  0  0  0  0  0  0  0  0  0
   34.2819   12.6307  -13.0556 O   0  0  0  0  0  0  0  0  0  0  0  0
   33.7871   14.8540  -15.0243 H   0  0  0  0  0  0  0  0  0  0  0  0
   32.6690   14.8756  -13.6626 H   0  0  0  0  0  0  0  0  0  0  0  0
   37.3832   14.7908  -14.6001 C   0  0  0  0  0  0  0  0  0  0  0  0
   36.5849   15.5054  -15.4727 O   0  0  0  0  0  0  0  0  0  0  0  0
   36.6565   15.1239  -16.3910 H   0  0  0  0  0  0  0  0  0  0  0  0
   38.9830   13.0651  -15.3232 C   0  0  0  0  0  0  0  0  0  0  0  0
   39.3177   11.8822  -15.8393 N   0  0  0  0  0  0  0  0  0  0  0  0
   38.3609   11.0140  -16.2754 C   0  0  0  0  0  0  0  0  0  0  0  0
   37.0538   11.3793  -16.1733 C   0  0  0  0  0  0  0  0  0  0  0  0
   36.0558   10.5560  -16.5905 F   0  0  0  0  0  0  0  0  0  0  0  0
   36.6648   12.6101  -15.6381 C   0  0  0  0  0  0  0  0  0  0  0  0
   37.6488   13.4542  -15.2119 C   0  0  0  0  0  0  0  0  0  0  0  0
   41.2723   13.5479  -14.5672 C   0  0  0  0  0  0  0  0  0  0  0  0
   39.9506   13.9420  -14.8828 O   0  0  0  0  0  0  0  0  0  0  0  0
   36.2209   15.0580   -6.2597 C   0  0  0  0  0  0  0  0  0  0  0  0
   35.4797   14.8402   -5.3166 C   0  0  0  0  0  0  0  0  0  0  0  0
   34.6099   14.5597   -4.1868 C   0  0  0  0  0  0  0  0  0  0  0  0
   35.1172   13.5199   -3.4107 O   0  0  0  0  0  0  0  0  0  0  0  0
   34.3490   15.7835   -3.3614 C   0  0  0  0  0  0  0  0  0  0  0  0
   33.3487   16.5350   -4.2152 C   0  0  0  0  0  0  0  0  0  0  0  0
   32.5588   15.4932   -4.9446 C   0  0  0  0  0  0  0  0  0  0  0  0
   33.2482   14.1813   -4.7604 C   0  0  0  0  0  0  0  0  0  0  0  0
   35.7687   13.8583   -2.7544 H   0  0  0  0  0  0  0  0  0  0  0  0
 32 33  1  0  0  0
 33 25  1  0  0  0
 25 26  2  0  0  0
 26 27  1  0  0  0
 27 28  2  0  0  0
 28 29  1  0  0  0
 28 30  1  0  0  0
 30 31  2  0  0  0
 31 22  1  0  0  0
 22 23  1  0  0  0
 22  1  1  0  0  0
  1  2  2  0  0  0
  2  3  1  0  0  0
  3  4  2  0  0  0
  4  5  1  0  0  0
  5  6  2  0  0  0
  6  7  1  0  0  0
  7 34  1  0  0  0
 34 35  3  0  0  0
 35 36  1  0  0  0
 36 37  1  0  0  0
 36 38  1  0  0  0
 38 39  1  0  0  0
 39 40  1  0  0  0
 40 41  1  0  0  0
  7  8  2  0  0  0
  8  9  1  0  0  0
  8 10  1  0  0  0
 10 11  2  0  0  0
 11 12  1  0  0  0
 12 13  1  0  0  0
 13 14  1  0  0  0
 14 15  1  0  0  0
 14 16  1  0  0  0
  2 17  1  0  0  0
 17 18  1  0  0  0
 17 19  2  0  0  0
 31 25  1  0  0  0
 16  1  1  0  0  0
 16  4  1  0  0  0
 11  5  1  0  0  0
 15 12  1  0  0  0
 41 36  1  0  0  0
 23 24  1  0  0  0
 37 42  1  0  0  0
 18 20  1  0  0  0
 18 21  1  0  0  0
M  END
> <minimizedAffinity>
-6.16722

> <CNNscore>
0.0890838727

> <CNNaffinity>
6.5370225906

> <CNN_VS>
0.5823432803

> <CNNaffinity_variance>
0.0805076063

$$$$
[H]O[C@]1(C#Cc2c([H])c3c(c([H])c2F)OC([H])([H])C([H])([H])c2c-3sc(C(=O)N([H])[H])c2[H])C(=O)N(C([H])([H])[H])C([H])([H])C1([H])[H]


 31 34  0  0  0  0  0  0  0  0999 V2000
   39.7578   12.0669  -16.4685 C   0  0  0  0  0  0  0  0  0  0  0  0
   38.7996   12.4920  -15.5613 C   0  0  0  0  0  0  0  0  0  0  0  0
   37.4959   12.0876  -15.7540 C   0  0  0  0  0  0  0  0  0  0  0  0
   36.6286   12.6408  -14.6891 C   0  0  0  0  0  0  0  0  0  0  0  0
   37.1647   13.3761  -13.2481 S   0  0  0  0  0  0  0  0  0  0  0  0
   35.6520   13.7476  -12.5494 C   0  0  0  0  0  0  0  0  0  0  0  0
   34.7610   13.2787  -13.4773 C   0  0  0  0  0  0  0  0  0  0  0  0
   35.2714   12.7040  -14.5882 C   0  0  0  0  0  0  0  0  0  0  0  0
   34.3482   12.1635  -15.6583 C   0  0  0  0  0  0  0  0  0  0  0  0
   34.7405   10.8079  -16.1342 C   0  0  0  0  0  0  0  0  0  0  0  0
   35.8330   10.8358  -17.0685 O   0  0  0  0  0  0  0  0  0  0  0  0
   37.1237   11.2711  -16.8269 C   0  0  0  0  0  0  0  0  0  0  0  0
   38.0768   10.8514  -17.7248 C   0  0  0  0  0  0  0  0  0  0  0  0
   39.3799   11.2573  -17.5297 C   0  0  0  0  0  0  0  0  0  0  0  0
   40.3131   10.8419  -18.4152 F   0  0  0  0  0  0  0  0  0  0  0  0
   35.3484   14.4122  -11.2604 C   0  0  0  0  0  0  0  0  0  0  0  0
   34.2243   15.2336  -11.1332 N   0  0  0  0  0  0  0  0  0  0  0  0
   36.1370   14.1987  -10.3211 O   0  0  0  0  0  0  0  0  0  0  0  0
   34.0950   16.1160  -11.6849 H   0  0  0  0  0  0  0  0  0  0  0  0
   33.4647   14.9770  -10.4638 H   0  0  0  0  0  0  0  0  0  0  0  0
   42.2791   12.8028  -16.1559 C   0  0  0  0  0  0  0  0  0  0  0  0
   41.1305   12.4631  -16.3084 C   0  0  0  0  0  0  0  0  0  0  0  0
   46.2156   13.5023  -13.2738 C   0  0  0  0  0  0  0  0  0  0  0  0
   45.4015   13.1561  -14.4463 N   0  0  0  0  0  0  0  0  0  0  0  0
   45.8576   12.5011  -15.6584 C   0  0  0  0  0  0  0  0  0  0  0  0
   44.5623   12.0329  -16.3044 C   0  0  0  0  0  0  0  0  0  0  0  0
   43.6444   13.2061  -15.9496 C   0  0  0  0  0  0  0  0  0  0  0  0
   44.0398   14.2718  -16.7535 O   0  0  0  0  0  0  0  0  0  0  0  0
   44.0061   13.4338  -14.5389 C   0  0  0  0  0  0  0  0  0  0  0  0
   43.2391   13.7944  -13.6283 O   0  0  0  0  0  0  0  0  0  0  0  0
   43.2480   14.4977  -17.3203 H   0  0  0  0  0  0  0  0  0  0  0  0
 23 24  1  0  0  0
 24 25  1  0  0  0
 25 26  1  0  0  0
 26 27  1  0  0  0
 27 28  1  0  0  0
 27 21  1  0  0  0
 21 22  3  0  0  0
 22  1  1  0  0  0
  1  2  2  0  0  0
  2  3  1  0  0  0
  3  4  1  0  0  0
  4  5  1  0  0  0
  5  6  1  0  0  0
  6  7  2  0  0  0
  7  8  1  0  0  0
  8  9  1  0  0  0
  9 10  1  0  0  0
 10 11  1  0  0  0
 11 12  1  0  0  0
 12 13  1  0  0  0
 13 14  2  0  0  0
 14 15  1  0  0  0
  6 16  1  0  0  0
 16 17  1  0  0  0
 16 18  2  0  0  0
 27 29  1  0  0  0
 29 30  2  0  0  0
 29 24  1  0  0  0
 14  1  1  0  0  0
 12  3  2  0  0  0
  8  4  2  0  0  0
 28 31  1  0  0  0
 17 19  1  0  0  0
 17 20  1  0  0  0
M  END
> <minimizedAffinity>
-10.27498

> <CNNscore>
0.7172201276

> <CNNaffinity>
6.9629302025

> <CNN_VS>
4.9939537048

> <CNNaffinity_variance>
0.0279223230

$$$$
[H]O[C@]1(C#Cc2c([H])c3c(c([H])c2F)OC([H])([H])C([H])([H])c2c-3sc(C(=O)N([H])[H])c2[H])C(=O)N(C([H])([H])[H])C([H])([H])C1([H])[H]


 31 34  0  0  0  0  0  0  0  0999 V2000
   35.6006   14.2970  -13.1674 C   0  0  0  0  0  0  0  0  0  0  0  0
   36.4938   13.7272  -14.0615 C   0  0  0  0  0  0  0  0  0  0  0  0
   36.0067   12.8238  -14.9818 C   0  0  0  0  0  0  0  0  0  0  0  0
   37.1063   12.3296  -15.8414 C   0  0  0  0  0  0  0  0  0  0  0  0
   38.6712   12.9971  -15.9408 S   0  0  0  0  0  0  0  0  0  0  0  0
   39.3511   11.9347  -17.0912 C   0  0  0  0  0  0  0  0  0  0  0  0
   38.3191   11.0780  -17.3665 C   0  0  0  0  0  0  0  0  0  0  0  0
   37.1538   11.2856  -16.7155 C   0  0  0  0  0  0  0  0  0  0  0  0
   35.9690   10.3787  -16.9675 C   0  0  0  0  0  0  0  0  0  0  0  0
   34.6966   11.1264  -17.1674 C   0  0  0  0  0  0  0  0  0  0  0  0
   34.1103   11.5757  -15.9338 O   0  0  0  0  0  0  0  0  0  0  0  0
   34.6533   12.4746  -15.0333 C   0  0  0  0  0  0  0  0  0  0  0  0
   33.7702   13.0419  -14.1449 C   0  0  0  0  0  0  0  0  0  0  0  0
   34.2601   13.9451  -13.2256 C   0  0  0  0  0  0  0  0  0  0  0  0
   33.3879   14.4999  -12.3544 F   0  0  0  0  0  0  0  0  0  0  0  0
   40.7162   11.9195  -17.6670 C   0  0  0  0  0  0  0  0  0  0  0  0
   41.8000   12.4150  -16.9360 N   0  0  0  0  0  0  0  0  0  0  0  0
   40.8351   11.4494  -18.8135 O   0  0  0  0  0  0  0  0  0  0  0  0
   41.8763   13.4161  -16.6332 H   0  0  0  0  0  0  0  0  0  0  0  0
   42.5823   11.7772  -16.6672 H   0  0  0  0  0  0  0  0  0  0  0  0
   36.4381   16.0321  -11.3551 C   0  0  0  0  0  0  0  0  0  0  0  0
   36.0625   15.2444  -12.1896 C   0  0  0  0  0  0  0  0  0  0  0  0
   36.4834   17.6994   -6.7173 C   0  0  0  0  0  0  0  0  0  0  0  0
   36.9465   17.3357   -8.0629 N   0  0  0  0  0  0  0  0  0  0  0  0
   38.3194   17.3130   -8.5330 C   0  0  0  0  0  0  0  0  0  0  0  0
   38.2333   16.4838   -9.8055 C   0  0  0  0  0  0  0  0  0  0  0  0
   36.8790   16.9545  -10.3432 C   0  0  0  0  0  0  0  0  0  0  0  0
   37.0718   18.2505  -10.8142 O   0  0  0  0  0  0  0  0  0  0  0  0
   36.0659   16.9449   -9.1138 C   0  0  0  0  0  0  0  0  0  0  0  0
   34.8596   16.6531   -9.0279 O   0  0  0  0  0  0  0  0  0  0  0  0
   36.8661   18.2214  -11.7920 H   0  0  0  0  0  0  0  0  0  0  0  0
 23 24  1  0  0  0
 24 25  1  0  0  0
 25 26  1  0  0  0
 26 27  1  0  0  0
 27 28  1  0  0  0
 27 21  1  0  0  0
 21 22  3  0  0  0
 22  1  1  0  0  0
  1  2  2  0  0  0
  2  3  1  0  0  0
  3  4  1  0  0  0
  4  5  1  0  0  0
  5  6  1  0  0  0
  6  7  2  0  0  0
  7  8  1  0  0  0
  8  9  1  0  0  0
  9 10  1  0  0  0
 10 11  1  0  0  0
 11 12  1  0  0  0
 12 13  1  0  0  0
 13 14  2  0  0  0
 14 15  1  0  0  0
  6 16  1  0  0  0
 16 17  1  0  0  0
 16 18  2  0  0  0
 27 29  1  0  0  0
 29 30  2  0  0  0
 29 24  1  0  0  0
 14  1  1  0  0  0
 12  3  2  0  0  0
  8  4  2  0  0  0
 28 31  1  0  0  0
 17 19  1  0  0  0
 17 20  1  0  0  0
M  END
> <minimizedAffinity>
-9.77764

> <CNNscore>
0.6947290897

> <CNNaffinity>
6.9379606247

> <CNN_VS>
4.8200030327

> <CNNaffinity_variance>
0.1941444427

$$$$
[H]O[C@]1(C#Cc2c([H])c3c(c([H])c2F)OC([H])([H])C([H])([H])c2c-3sc(C(=O)N([H])[H])c2[H])C(=O)N(C([H])([H])[H])C([H])([H])C1([H])[H]


 31 34  0  0  0  0  0  0  0  0999 V2000
   35.8510   13.2612  -13.2539 C   0  0  0  0  0  0  0  0  0  0  0  0
   37.0416   13.0576  -13.9342 C   0  0  0  0  0  0  0  0  0  0  0  0
   36.9929   12.4186  -15.1547 C   0  0  0  0  0  0  0  0  0  0  0  0
   38.3559   12.2958  -15.7199 C   0  0  0  0  0  0  0  0  0  0  0  0
   39.7464   13.1025  -15.1539 S   0  0  0  0  0  0  0  0  0  0  0  0
   40.8920   12.4842  -16.2584 C   0  0  0  0  0  0  0  0  0  0  0  0
   40.1417   11.6539  -17.0474 C   0  0  0  0  0  0  0  0  0  0  0  0
   38.8242   11.5580  -16.7652 C   0  0  0  0  0  0  0  0  0  0  0  0
   37.9318   10.6592  -17.5932 C   0  0  0  0  0  0  0  0  0  0  0  0
   36.6547   11.3143  -17.9903 C   0  0  0  0  0  0  0  0  0  0  0  0
   35.6811   11.3327  -16.9324 O   0  0  0  0  0  0  0  0  0  0  0  0
   35.7888   11.9781  -15.7136 C   0  0  0  0  0  0  0  0  0  0  0  0
   34.6097   12.1818  -15.0359 C   0  0  0  0  0  0  0  0  0  0  0  0
   34.6613   12.8211  -13.8154 C   0  0  0  0  0  0  0  0  0  0  0  0
   33.4995   13.0190  -13.1533 F   0  0  0  0  0  0  0  0  0  0  0  0
   42.3442   12.7598  -16.3612 C   0  0  0  0  0  0  0  0  0  0  0  0
   43.1245   12.1048  -17.3185 N   0  0  0  0  0  0  0  0  0  0  0  0
   42.8143   13.5904  -15.5620 O   0  0  0  0  0  0  0  0  0  0  0  0
   43.2620   11.0653  -17.3309 H   0  0  0  0  0  0  0  0  0  0  0  0
   43.6026   12.6556  -18.0663 H   0  0  0  0  0  0  0  0  0  0  0  0
   35.8625   14.4945  -10.9140 C   0  0  0  0  0  0  0  0  0  0  0  0
   35.8522   13.9231  -11.9776 C   0  0  0  0  0  0  0  0  0  0  0  0
   36.8839   18.4519   -8.1596 C   0  0  0  0  0  0  0  0  0  0  0  0
   36.1847   17.2697   -8.6799 N   0  0  0  0  0  0  0  0  0  0  0  0
   34.8467   16.8280   -8.3319 C   0  0  0  0  0  0  0  0  0  0  0  0
   34.5070   15.8496   -9.4462 C   0  0  0  0  0  0  0  0  0  0  0  0
   35.8758   15.1970   -9.6588 C   0  0  0  0  0  0  0  0  0  0  0  0
   36.0930   14.3715   -8.5588 O   0  0  0  0  0  0  0  0  0  0  0  0
   36.7606   16.3755   -9.6293 C   0  0  0  0  0  0  0  0  0  0  0  0
   37.7943   16.5406  -10.3015 O   0  0  0  0  0  0  0  0  0  0  0  0
   36.1718   13.4437   -8.9222 H   0  0  0  0  0  0  0  0  0  0  0  0
 23 24  1  0  0  0
 24 25  1  0  0  0
 25 26  1  0  0  0
 26 27  1  0  0  0
 27 28  1  0  0  0
 27 21  1  0  0  0
 21 22  3  0  0  0
 22  1  1  0  0  0
  1  2  2  0  0  0
  2  3  1  0  0  0
  3  4  1  0  0  0
  4  5  1  0  0  0
  5  6  1  0  0  0
  6  7  2  0  0  0
  7  8  1  0  0  0
  8  9  1  0  0  0
  9 10  1  0  0  0
 10 11  1  0  0  0
 11 12  1  0  0  0
 12 13  1  0  0  0
 13 14  2  0  0  0
 14 15  1  0  0  0
  6 16  1  0  0  0
 16 17  1  0  0  0
 16 18  2  0  0  0
 27 29  1  0  0  0
 29 30  2  0  0  0
 29 24  1  0  0  0
 14  1  1  0  0  0
 12  3  2  0  0  0
  8  4  2  0  0  0
 28 31  1  0  0  0
 17 19  1  0  0  0
 17 20  1  0  0  0
M  END
> <minimizedAffinity>
-9.14714

> <CNNscore>
0.6746671796

> <CNNaffinity>
6.9054017067

> <CNN_VS>
4.6588478088

> <CNNaffinity_variance>
0.1747239828

$$$$
[H]O[C@]1(C#Cc2c([H])c3c(c([H])c2F)OC([H])([H])C([H])([H])c2c-3sc(C(=O)N([H])[H])c2[H])C(=O)N(C([H])([H])[H])C([H])([H])C1([H])[H]


 31 34  0  0  0  0  0  0  0  0999 V2000
   36.6826   11.6833  -16.3502 C   0  0  0  0  0  0  0  0  0  0  0  0
   35.8116   11.4450  -17.4021 C   0  0  0  0  0  0  0  0  0  0  0  0
   34.5333   11.0225  -17.1059 C   0  0  0  0  0  0  0  0  0  0  0  0
   33.7610   10.8231  -18.3533 C   0  0  0  0  0  0  0  0  0  0  0  0
   34.2241   11.3477  -19.9073 S   0  0  0  0  0  0  0  0  0  0  0  0
   32.8857   10.7776  -20.8005 C   0  0  0  0  0  0  0  0  0  0  0  0
   32.1062   10.1858  -19.8429 C   0  0  0  0  0  0  0  0  0  0  0  0
   32.5637   10.2110  -18.5721 C   0  0  0  0  0  0  0  0  0  0  0  0
   31.7574    9.5763  -17.4601 C   0  0  0  0  0  0  0  0  0  0  0  0
   31.6509   10.4413  -16.2524 C   0  0  0  0  0  0  0  0  0  0  0  0
   32.8329   10.4103  -15.4343 O   0  0  0  0  0  0  0  0  0  0  0  0
   34.1017   10.8320  -15.7891 C   0  0  0  0  0  0  0  0  0  0  0  0
   34.9684   11.0694  -14.7483 C   0  0  0  0  0  0  0  0  0  0  0  0
   36.2463   11.4919  -15.0474 C   0  0  0  0  0  0  0  0  0  0  0  0
   37.0944   11.7239  -14.0205 F   0  0  0  0  0  0  0  0  0  0  0  0
   32.6095   10.8825  -22.2524 C   0  0  0  0  0  0  0  0  0  0  0  0
   33.2032    9.9936  -23.1535 N   0  0  0  0  0  0  0  0  0  0  0  0
   31.8351   11.7888  -22.6110 O   0  0  0  0  0  0  0  0  0  0  0  0
   34.2402    9.9309  -23.2964 H   0  0  0  0  0  0  0  0  0  0  0  0
   32.6063    9.3520  -23.7220 H   0  0  0  0  0  0  0  0  0  0  0  0
   39.1607   12.4806  -16.8191 C   0  0  0  0  0  0  0  0  0  0  0  0
   38.0258   12.1253  -16.6103 C   0  0  0  0  0  0  0  0  0  0  0  0
   43.7910   13.2848  -15.3342 C   0  0  0  0  0  0  0  0  0  0  0  0
   42.6564   12.8885  -16.1786 N   0  0  0  0  0  0  0  0  0  0  0  0
   42.7194   12.1694  -17.4377 C   0  0  0  0  0  0  0  0  0  0  0  0
   41.2908   11.6821  -17.6271 C   0  0  0  0  0  0  0  0  0  0  0  0
   40.5203   12.8804  -17.0656 C   0  0  0  0  0  0  0  0  0  0  0  0
   40.6410   13.9008  -18.0050 O   0  0  0  0  0  0  0  0  0  0  0  0
   41.2991   13.1747  -15.8492 C   0  0  0  0  0  0  0  0  0  0  0  0
   40.8490   13.5876  -14.7655 O   0  0  0  0  0  0  0  0  0  0  0  0
   39.7114   14.1057  -18.3099 H   0  0  0  0  0  0  0  0  0  0  0  0
 23 24  1  0  0  0
 24 25  1  0  0  0
 25 26  1  0  0  0
 26 27  1  0  0  0
 27 28  1  0  0  0
 27 21  1  0  0  0
 21 22  3  0  0  0
 22  1  1  0  0  0
  1  2  2  0  0  0
  2  3  1  0  0  0
  3  4  1  0  0  0
  4  5  1  0  0  0
  5  6  1  0  0  0
  6  7  2  0  0  0
  7  8  1  0  0  0
  8  9  1  0  0  0
  9 10  1  0  0  0
 10 11  1  0  0  0
 11 12  1  0  0  0
 12 13  1  0  0  0
 13 14  2  0  0  0
 14 15  1  0  0  0
  6 16  1  0  0  0
 16 17  1  0  0  0
 16 18  2  0  0  0
 27 29  1  0  0  0
 29 30  2  0  0  0
 29 24  1  0  0  0
 14  1  1  0  0  0
 12  3  2  0  0  0
  8  4  2  0  0  0
 28 31  1  0  0  0
 17 19  1  0  0  0
 17 20  1  0  0  0
M  END
> <minimizedAffinity>
15.20903

> <CNNscore>
0.5841585994

> <CNNaffinity>
6.5546760559

> <CNN_VS>
3.8289704323

> <CNNaffinity_variance>
0.5451669693

$$$$
[H]O[C@]1(C#Cc2c([H])c3c(c([H])c2F)OC([H])([H])C([H])([H])c2c-3sc(C(=O)N([H])[H])c2[H])C(=O)N(C([H])([H])[H])C([H])([H])C1([H])[H]


 31 34  0  0  0  0  0  0  0  0999 V2000
   35.3033   13.8017  -13.0479 C   0  0  0  0  0  0  0  0  0  0  0  0
   36.4689   13.4875  -13.7295 C   0  0  0  0  0  0  0  0  0  0  0  0
   36.3675   12.7359  -14.8806 C   0  0  0  0  0  0  0  0  0  0  0  0
   37.7111   12.5066  -15.4590 C   0  0  0  0  0  0  0  0  0  0  0  0
   39.1432   13.3100  -15.0030 S   0  0  0  0  0  0  0  0  0  0  0  0
   40.2386   12.5442  -16.0652 C   0  0  0  0  0  0  0  0  0  0  0  0
   39.4398   11.6711  -16.7540 C   0  0  0  0  0  0  0  0  0  0  0  0
   38.1268   11.6538  -16.4368 C   0  0  0  0  0  0  0  0  0  0  0  0
   37.1826   10.7143  -17.1547 C   0  0  0  0  0  0  0  0  0  0  0  0
   35.9209   11.3767  -17.5875 C   0  0  0  0  0  0  0  0  0  0  0  0
   34.9744   11.5348  -16.5167 O   0  0  0  0  0  0  0  0  0  0  0  0
   35.1350   12.2903  -15.3691 C   0  0  0  0  0  0  0  0  0  0  0  0
   33.9809   12.6039  -14.6904 C   0  0  0  0  0  0  0  0  0  0  0  0
   34.0852   13.3557  -13.5394 C   0  0  0  0  0  0  0  0  0  0  0  0
   32.9476   13.6612  -12.8760 F   0  0  0  0  0  0  0  0  0  0  0  0
   41.6969   12.7524  -16.2242 C   0  0  0  0  0  0  0  0  0  0  0  0
   42.3768   12.2047  -17.3161 N   0  0  0  0  0  0  0  0  0  0  0  0
   42.2648   13.4287  -15.3468 O   0  0  0  0  0  0  0  0  0  0  0  0
   42.4469   11.1725  -17.4874 H   0  0  0  0  0  0  0  0  0  0  0  0
   42.8447   12.8332  -18.0069 H   0  0  0  0  0  0  0  0  0  0  0  0
   35.4252   15.2335  -10.8273 C   0  0  0  0  0  0  0  0  0  0  0  0
   35.3595   14.5834  -11.8426 C   0  0  0  0  0  0  0  0  0  0  0  0
   37.2468   16.0325   -6.3179 C   0  0  0  0  0  0  0  0  0  0  0  0
   36.7504   16.2882   -7.6764 N   0  0  0  0  0  0  0  0  0  0  0  0
   36.8032   17.5459   -8.3987 C   0  0  0  0  0  0  0  0  0  0  0  0
   36.5524   17.1259   -9.8392 C   0  0  0  0  0  0  0  0  0  0  0  0
   35.5281   16.0089   -9.6200 C   0  0  0  0  0  0  0  0  0  0  0  0
   34.3386   16.6325   -9.2533 O   0  0  0  0  0  0  0  0  0  0  0  0
   36.1305   15.2895   -8.4832 C   0  0  0  0  0  0  0  0  0  0  0  0
   36.0960   14.0621   -8.2834 O   0  0  0  0  0  0  0  0  0  0  0  0
   33.6738   16.3953   -9.9612 H   0  0  0  0  0  0  0  0  0  0  0  0
 23 24  1  0  0  0
 24 25  1  0  0  0
 25 26  1  0  0  0
 26 27  1  0  0  0
 27 28  1  0  0  0
 27 21  1  0  0  0
 21 22  3  0  0  0
 22  1  1  0  0  0
  1  2  2  0  0  0
  2  3  1  0  0  0
  3  4  1  0  0  0
  4  5  1  0  0  0
  5  6  1  0  0  0
  6  7  2  0  0  0
  7  8  1  0  0  0
  8  9  1  0  0  0
  9 10  1  0  0  0
 10 11  1  0  0  0
 11 12  1  0  0  0
 12 13  1  0  0  0
 13 14  2  0  0  0
 14 15  1  0  0  0
  6 16  1  0  0  0
 16 17  1  0  0  0
 16 18  2  0  0  0
 27 29  1  0  0  0
 29 30  2  0  0  0
 29 24  1  0  0  0
 14  1  1  0  0  0
 12  3  2  0  0  0
  8  4  2  0  0  0
 28 31  1  0  0  0
 17 19  1  0  0  0
 17 20  1  0  0  0
M  END
> <minimizedAffinity>
-9.51647

> <CNNscore>
0.5571053624

> <CNNaffinity>
6.7897424698

> <CNN_VS>
3.7826018333

> <CNNaffinity_variance>
0.1258907616

$$$$
[H]O[C@]1(C#Cc2c([H])c3c(c([H])c2F)OC([H])([H])C([H])([H])c2c-3sc(C(=O)N([H])[H])c2[H])C(=O)N(C([H])([H])[H])C([H])([H])C1([H])[H]


 31 34  0  0  0  0  0  0  0  0999 V2000
   41.2667   12.4963  -16.3885 C   0  0  0  0  0  0  0  0  0  0  0  0
   40.0375   12.6537  -15.7670 C   0  0  0  0  0  0  0  0  0  0  0  0
   38.9336   12.0695  -16.3504 C   0  0  0  0  0  0  0  0  0  0  0  0
   37.7237   12.3489  -15.5438 C   0  0  0  0  0  0  0  0  0  0  0  0
   37.7042   12.9897  -13.9647 S   0  0  0  0  0  0  0  0  0  0  0  0
   36.0174   13.0293  -13.7046 C   0  0  0  0  0  0  0  0  0  0  0  0
   35.5135   12.5332  -14.8771 C   0  0  0  0  0  0  0  0  0  0  0  0
   36.4026   12.1805  -15.8310 C   0  0  0  0  0  0  0  0  0  0  0  0
   35.9201   11.6255  -17.1534 C   0  0  0  0  0  0  0  0  0  0  0  0
   36.6726   10.4150  -17.5852 C   0  0  0  0  0  0  0  0  0  0  0  0
   37.9512   10.7263  -18.1645 O   0  0  0  0  0  0  0  0  0  0  0  0
   39.0238   11.3331  -17.5361 C   0  0  0  0  0  0  0  0  0  0  0  0
   40.2447   11.1790  -18.1497 C   0  0  0  0  0  0  0  0  0  0  0  0
   41.3472   11.7644  -17.5641 C   0  0  0  0  0  0  0  0  0  0  0  0
   42.5451   11.6099  -18.1713 F   0  0  0  0  0  0  0  0  0  0  0  0
   35.2590   13.4829  -12.5153 C   0  0  0  0  0  0  0  0  0  0  0  0
   33.9012   13.7997  -12.6184 N   0  0  0  0  0  0  0  0  0  0  0  0
   35.8903   13.5622  -11.4454 O   0  0  0  0  0  0  0  0  0  0  0  0
   33.5395   14.5798  -13.2185 H   0  0  0  0  0  0  0  0  0  0  0  0
   33.1953   13.2474  -12.0818 H   0  0  0  0  0  0  0  0  0  0  0  0
   43.4292   13.5809  -15.3191 C   0  0  0  0  0  0  0  0  0  0  0  0
   42.4462   13.0874  -15.8171 C   0  0  0  0  0  0  0  0  0  0  0  0
   45.9913   15.0330  -11.3672 C   0  0  0  0  0  0  0  0  0  0  0  0
   45.6845   14.4702  -12.6887 N   0  0  0  0  0  0  0  0  0  0  0  0
   46.5925   13.7414  -13.5551 C   0  0  0  0  0  0  0  0  0  0  0  0
   45.6550   13.0617  -14.5417 C   0  0  0  0  0  0  0  0  0  0  0  0
   44.5961   14.1558  -14.7052 C   0  0  0  0  0  0  0  0  0  0  0  0
   45.1863   15.1643  -15.4622 O   0  0  0  0  0  0  0  0  0  0  0  0
   44.4037   14.5769  -13.3058 C   0  0  0  0  0  0  0  0  0  0  0  0
   43.3359   14.9467  -12.7855 O   0  0  0  0  0  0  0  0  0  0  0  0
   44.6423   15.2356  -16.2977 H   0  0  0  0  0  0  0  0  0  0  0  0
 23 24  1  0  0  0
 24 25  1  0  0  0
 25 26  1  0  0  0
 26 27  1  0  0  0
 27 28  1  0  0  0
 27 21  1  0  0  0
 21 22  3  0  0  0
 22  1  1  0  0  0
  1  2  2  0  0  0
  2  3  1  0  0  0
  3  4  1  0  0  0
  4  5  1  0  0  0
  5  6  1  0  0  0
  6  7  2  0  0  0
  7  8  1  0  0  0
  8  9  1  0  0  0
  9 10  1  0  0  0
 10 11  1  0  0  0
 11 12  1  0  0  0
 12 13  1  0  0  0
 13 14  2  0  0  0
 14 15  1  0  0  0
  6 16  1  0  0  0
 16 17  1  0  0  0
 16 18  2  0  0  0
 27 29  1  0  0  0
 29 30  2  0  0  0
 29 24  1  0  0  0
 14  1  1  0  0  0
 12  3  2  0  0  0
  8  4  2  0  0  0
 28 31  1  0  0  0
 17 19  1  0  0  0
 17 20  1  0  0  0
M  END
> <minimizedAffinity>
-9.95440

> <CNNscore>
0.4669891000

> <CNNaffinity>
6.5873222351

> <CNN_VS>
3.0762076378

> <CNNaffinity_variance>
0.1082988605

$$$$
[H]O[C@]1(C#Cc2c([H])c3c(c([H])c2F)OC([H])([H])C([H])([H])c2c-3sc(C(=O)N([H])[H])c2[H])C(=O)N(C([H])([H])[H])C([H])([H])C1([H])[H]


 31 34  0  0  0  0  0  0  0  0999 V2000
   35.3268   13.7861  -13.0543 C   0  0  0  0  0  0  0  0  0  0  0  0
   36.4895   13.4712  -13.7404 C   0  0  0  0  0  0  0  0  0  0  0  0
   36.3827   12.7233  -14.8934 C   0  0  0  0  0  0  0  0  0  0  0  0
   37.7239   12.4925  -15.4767 C   0  0  0  0  0  0  0  0  0  0  0  0
   39.1594   13.2911  -15.0228 S   0  0  0  0  0  0  0  0  0  0  0  0
   40.2496   12.5258  -16.0907 C   0  0  0  0  0  0  0  0  0  0  0  0
   39.4466   11.6567  -16.7795 C   0  0  0  0  0  0  0  0  0  0  0  0
   38.1346   11.6415  -16.4582 C   0  0  0  0  0  0  0  0  0  0  0  0
   37.1859   10.7064  -17.1760 C   0  0  0  0  0  0  0  0  0  0  0  0
   35.9244   11.3730  -17.6029 C   0  0  0  0  0  0  0  0  0  0  0  0
   34.9817   11.5302  -16.5287 O   0  0  0  0  0  0  0  0  0  0  0  0
   35.1476   12.2820  -15.3793 C   0  0  0  0  0  0  0  0  0  0  0  0
   33.9964   12.5963  -14.6961 C   0  0  0  0  0  0  0  0  0  0  0  0
   34.1061   13.3444  -13.5432 C   0  0  0  0  0  0  0  0  0  0  0  0
   32.9713   13.6508  -12.8753 F   0  0  0  0  0  0  0  0  0  0  0  0
   41.7079   12.7310  -16.2536 C   0  0  0  0  0  0  0  0  0  0  0  0
   42.3848   12.1766  -17.3439 N   0  0  0  0  0  0  0  0  0  0  0  0
   42.2786   13.4111  -15.3809 O   0  0  0  0  0  0  0  0  0  0  0  0
   42.4531   11.1434  -17.5100 H   0  0  0  0  0  0  0  0  0  0  0  0
   42.8523   12.8007  -18.0390 H   0  0  0  0  0  0  0  0  0  0  0  0
   35.4481   15.2325  -10.8431 C   0  0  0  0  0  0  0  0  0  0  0  0
   35.3886   14.5641  -11.8468 C   0  0  0  0  0  0  0  0  0  0  0  0
   33.6385   16.8129   -6.5397 C   0  0  0  0  0  0  0  0  0  0  0  0
   34.5999   16.3869   -7.5652 N   0  0  0  0  0  0  0  0  0  0  0  0
   36.0142   16.1231   -7.3745 C   0  0  0  0  0  0  0  0  0  0  0  0
   36.3885   15.3371   -8.6221 C   0  0  0  0  0  0  0  0  0  0  0  0
   35.5179   16.0494   -9.6611 C   0  0  0  0  0  0  0  0  0  0  0  0
   36.1021   17.2948   -9.8763 O   0  0  0  0  0  0  0  0  0  0  0  0
   34.2445   16.1724   -8.9291 C   0  0  0  0  0  0  0  0  0  0  0  0
   33.1021   16.1012   -9.4165 O   0  0  0  0  0  0  0  0  0  0  0  0
   36.3615   17.3140  -10.8414 H   0  0  0  0  0  0  0  0  0  0  0  0
 23 24  1  0  0  0
 24 25  1  0  0  0
 25 26  1  0  0  0
 26 27  1  0  0  0
 27 28  1  0  0  0
 27 21  1  0  0  0
 21 22  3  0  0  0
 22  1  1  0  0  0
  1  2  2  0  0  0
  2  3  1  0  0  0
  3  4  1  0  0  0
  4  5  1  0  0  0
  5  6  1  0  0  0
  6  7  2  0  0  0
  7  8  1  0  0  0
  8  9  1  0  0  0
  9 10  1  0  0  0
 10 11  1  0  0  0
 11 12  1  0  0  0
 12 13  1  0  0  0
 13 14  2  0  0  0
 14 15  1  0  0  0
  6 16  1  0  0  0
 16 17  1  0  0  0
 16 18  2  0  0  0
 27 29  1  0  0  0
 29 30  2  0  0  0
 29 24  1  0  0  0
 14  1  1  0  0  0
 12  3  2  0  0  0
  8  4  2  0  0  0
 28 31  1  0  0  0
 17 19  1  0  0  0
 17 20  1  0  0  0
M  END
> <minimizedAffinity>
-9.32260

> <CNNscore>
0.4554959834

> <CNNaffinity>
6.6513381004

> <CNN_VS>
3.0296578407

> <CNNaffinity_variance>
0.1731510162

$$$$
[H]O[C@]1(C#Cc2c([H])c3c(c([H])c2F)OC([H])([H])C([H])([H])c2c-3sc(C(=O)N([H])[H])c2[H])C(=O)N(C([H])([H])[H])C([H])([H])C1([H])[H]


 31 34  0  0  0  0  0  0  0  0999 V2000
   41.1208   12.8649  -15.6107 C   0  0  0  0  0  0  0  0  0  0  0  0
   39.7613   12.9230  -15.3456 C   0  0  0  0  0  0  0  0  0  0  0  0
   38.9043   12.2483  -16.1885 C   0  0  0  0  0  0  0  0  0  0  0  0
   37.5040   12.4300  -15.7430 C   0  0  0  0  0  0  0  0  0  0  0  0
   37.0102   13.0722  -14.2436 S   0  0  0  0  0  0  0  0  0  0  0  0
   35.3179   12.9741  -14.4461 C   0  0  0  0  0  0  0  0  0  0  0  0
   35.1886   12.4345  -15.6978 C   0  0  0  0  0  0  0  0  0  0  0  0
   36.3263   12.1528  -16.3694 C   0  0  0  0  0  0  0  0  0  0  0  0
   36.2625   11.5558  -17.7583 C   0  0  0  0  0  0  0  0  0  0  0  0
   37.1956   10.4097  -17.9419 C   0  0  0  0  0  0  0  0  0  0  0  0
   38.5546   10.8230  -18.1650 O   0  0  0  0  0  0  0  0  0  0  0  0
   39.3676   11.5179  -17.2877 C   0  0  0  0  0  0  0  0  0  0  0  0
   40.7168   11.4625  -17.5476 C   0  0  0  0  0  0  0  0  0  0  0  0
   41.5717   12.1383  -16.7029 C   0  0  0  0  0  0  0  0  0  0  0  0
   42.8971   12.0806  -16.9628 F   0  0  0  0  0  0  0  0  0  0  0  0
   34.2342   13.3678  -13.5154 C   0  0  0  0  0  0  0  0  0  0  0  0
   32.9144   13.4680  -13.9653 N   0  0  0  0  0  0  0  0  0  0  0  0
   34.5641   13.5978  -12.3373 O   0  0  0  0  0  0  0  0  0  0  0  0
   32.6106   14.1517  -14.7001 H   0  0  0  0  0  0  0  0  0  0  0  0
   32.1789   12.8432  -13.5656 H   0  0  0  0  0  0  0  0  0  0  0  0
   42.8280   14.1212  -14.0285 C   0  0  0  0  0  0  0  0  0  0  0  0
   42.0530   13.5527  -14.7592 C   0  0  0  0  0  0  0  0  0  0  0  0
   46.2317   17.5529  -13.0644 C   0  0  0  0  0  0  0  0  0  0  0  0
   45.0871   16.6495  -12.8880 N   0  0  0  0  0  0  0  0  0  0  0  0
   44.1448   16.6458  -11.7842 C   0  0  0  0  0  0  0  0  0  0  0  0
   42.9836   15.8261  -12.3264 C   0  0  0  0  0  0  0  0  0  0  0  0
   43.7491   14.7799  -13.1415 C   0  0  0  0  0  0  0  0  0  0  0  0
   44.3468   13.9240  -12.2202 O   0  0  0  0  0  0  0  0  0  0  0  0
   44.7499   15.6237  -13.8190 C   0  0  0  0  0  0  0  0  0  0  0  0
   45.1979   15.4606  -14.9680 O   0  0  0  0  0  0  0  0  0  0  0  0
   43.9589   13.0192  -12.3933 H   0  0  0  0  0  0  0  0  0  0  0  0
 23 24  1  0  0  0
 24 25  1  0  0  0
 25 26  1  0  0  0
 26 27  1  0  0  0
 27 28  1  0  0  0
 27 21  1  0  0  0
 21 22  3  0  0  0
 22  1  1  0  0  0
  1  2  2  0  0  0
  2  3  1  0  0  0
  3  4  1  0  0  0
  4  5  1  0  0  0
  5  6  1  0  0  0
  6  7  2  0  0  0
  7  8  1  0  0  0
  8  9  1  0  0  0
  9 10  1  0  0  0
 10 11  1  0  0  0
 11 12  1  0  0  0
 12 13  1  0  0  0
 13 14  2  0  0  0
 14 15  1  0  0  0
  6 16  1  0  0  0
 16 17  1  0  0  0
 16 18  2  0  0  0
 27 29  1  0  0  0
 29 30  2  0  0  0
 29 24  1  0  0  0
 14  1  1  0  0  0
 12  3  2  0  0  0
  8  4  2  0  0  0
 28 31  1  0  0  0
 17 19  1  0  0  0
 17 20  1  0  0  0
M  END
> <minimizedAffinity>
-9.31250

> <CNNscore>
0.4290306568

> <CNNaffinity>
6.5410280228

> <CNN_VS>
2.8063015938

> <CNNaffinity_variance>
0.1062233299

$$$$
[H]O[C@]1(C#Cc2c([H])c3c(c([H])c2F)OC([H])([H])C([H])([H])c2c-3sc(C(=O)N([H])[H])c2[H])C(=O)N(C([H])([H])[H])C([H])([H])C1([H])[H]


 31 34  0  0  0  0  0  0  0  0999 V2000
   40.8728   15.5626  -12.8295 C   0  0  0  0  0  0  0  0  0  0  0  0
   40.5682   14.6934  -13.8657 C   0  0  0  0  0  0  0  0  0  0  0  0
   39.2914   14.1774  -13.9285 C   0  0  0  0  0  0  0  0  0  0  0  0
   39.1632   13.2764  -15.0964 C   0  0  0  0  0  0  0  0  0  0  0  0
   40.2796   13.1387  -16.3767 S   0  0  0  0  0  0  0  0  0  0  0  0
   39.4845   11.9496  -17.3085 C   0  0  0  0  0  0  0  0  0  0  0  0
   38.3540   11.6928  -16.5798 C   0  0  0  0  0  0  0  0  0  0  0  0
   38.1898   12.3837  -15.4308 C   0  0  0  0  0  0  0  0  0  0  0  0
   36.9657   12.1527  -14.5719 C   0  0  0  0  0  0  0  0  0  0  0  0
   36.3308   13.4189  -14.1119 C   0  0  0  0  0  0  0  0  0  0  0  0
   37.0170   14.0187  -12.9999 O   0  0  0  0  0  0  0  0  0  0  0  0
   38.3118   14.5057  -12.9857 C   0  0  0  0  0  0  0  0  0  0  0  0
   38.6176   15.3682  -11.9593 C   0  0  0  0  0  0  0  0  0  0  0  0
   39.8953   15.8827  -11.8988 C   0  0  0  0  0  0  0  0  0  0  0  0
   40.1908   16.7302  -10.8879 F   0  0  0  0  0  0  0  0  0  0  0  0
   39.8928   11.3305  -18.5912 C   0  0  0  0  0  0  0  0  0  0  0  0
   38.9355   10.7873  -19.4532 N   0  0  0  0  0  0  0  0  0  0  0  0
   41.1111   11.3245  -18.8472 O   0  0  0  0  0  0  0  0  0  0  0  0
   38.3229    9.9777  -19.1908 H   0  0  0  0  0  0  0  0  0  0  0  0
   38.8063   11.1901  -20.4083 H   0  0  0  0  0  0  0  0  0  0  0  0
   43.2998   16.5995  -12.6534 C   0  0  0  0  0  0  0  0  0  0  0  0
   42.1913   16.1258  -12.7230 C   0  0  0  0  0  0  0  0  0  0  0  0
   47.6620   17.6901  -14.6715 C   0  0  0  0  0  0  0  0  0  0  0  0
   46.4389   17.8114  -13.8674 N   0  0  0  0  0  0  0  0  0  0  0  0
   45.9735   18.9938  -13.1661 C   0  0  0  0  0  0  0  0  0  0  0  0
   44.5133   18.6737  -12.8840 C   0  0  0  0  0  0  0  0  0  0  0  0
   44.6172   17.1739  -12.5928 C   0  0  0  0  0  0  0  0  0  0  0  0
   45.2209   17.0568  -11.3437 O   0  0  0  0  0  0  0  0  0  0  0  0
   45.5228   16.7369  -13.6705 C   0  0  0  0  0  0  0  0  0  0  0  0
   45.4826   15.6499  -14.2742 O   0  0  0  0  0  0  0  0  0  0  0  0
   44.5541   16.5973  -10.7577 H   0  0  0  0  0  0  0  0  0  0  0  0
 23 24  1  0  0  0
 24 25  1  0  0  0
 25 26  1  0  0  0
 26 27  1  0  0  0
 27 28  1  0  0  0
 27 21  1  0  0  0
 21 22  3  0  0  0
 22  1  1  0  0  0
  1  2  2  0  0  0
  2  3  1  0  0  0
  3  4  1  0  0  0
  4  5  1  0  0  0
  5  6  1  0  0  0
  6  7  2  0  0  0
  7  8  1  0  0  0
  8  9  1  0  0  0
  9 10  1  0  0  0
 10 11  1  0  0  0
 11 12  1  0  0  0
 12 13  1  0  0  0
 13 14  2  0  0  0
 14 15  1  0  0  0
  6 16  1  0  0  0
 16 17  1  0  0  0
 16 18  2  0  0  0
 27 29  1  0  0  0
 29 30  2  0  0  0
 29 24  1  0  0  0
 14  1  1  0  0  0
 12  3  2  0  0  0
  8  4  2  0  0  0
 28 31  1  0  0  0
 17 19  1  0  0  0
 17 20  1  0  0  0
M  END
> <minimizedAffinity>
-8.82317

> <CNNscore>
0.4124434888

> <CNNaffinity>
6.2632761002

> <CNN_VS>
2.5832474232

> <CNNaffinity_variance>
0.1798337102

$$$$
[H]O[C@](C#Cc1c([H])c2c(c([H])c1F)C1([H])C([H])([H])C([H])(c3c-2nc(C(=O)N([H])[H])n3[H])C1([H])[H])(c1noc(C([H])([H])[H])c1[H])C([H])([H])[H]


 34 38  0  0  0  0  0  0  0  0999 V2000
   36.2728   13.6245  -12.9666 C   0  0  0  0  0  0  0  0  0  0  0  0
   37.0469   13.1569  -13.9474 C   0  0  0  0  0  0  0  0  0  0  0  0
   36.4997   12.4552  -15.0053 C   0  0  0  0  0  0  0  0  0  0  0  0
   37.4695   12.0165  -16.0218 C   0  0  0  0  0  0  0  0  0  0  0  0
   38.7470   12.3341  -16.1732 N   0  0  0  0  0  0  0  0  0  0  0  0
   39.2831   11.7520  -17.2674 C   0  0  0  0  0  0  0  0  0  0  0  0
   38.2487   11.0330  -17.8098 N   0  0  0  0  0  0  0  0  0  0  0  0
   37.1452   11.1689  -17.0840 C   0  0  0  0  0  0  0  0  0  0  0  0
   35.8175   10.5510  -17.3786 C   0  0  0  0  0  0  0  0  0  0  0  0
   35.1178   10.0772  -16.1475 C   0  0  0  0  0  0  0  0  0  0  0  0
   34.3738   11.4333  -16.0166 C   0  0  0  0  0  0  0  0  0  0  0  0
   34.7517   11.6695  -17.4419 C   0  0  0  0  0  0  0  0  0  0  0  0
   35.1257   12.2494  -15.0246 C   0  0  0  0  0  0  0  0  0  0  0  0
   34.2837   12.7147  -14.0414 C   0  0  0  0  0  0  0  0  0  0  0  0
   34.8711   13.4037  -13.0153 C   0  0  0  0  0  0  0  0  0  0  0  0
   34.1570   13.9241  -11.9772 F   0  0  0  0  0  0  0  0  0  0  0  0
   38.3396   10.4756  -18.6833 H   0  0  0  0  0  0  0  0  0  0  0  0
   40.6354   11.8063  -17.8180 C   0  0  0  0  0  0  0  0  0  0  0  0
   41.6974   12.3748  -17.0503 N   0  0  0  0  0  0  0  0  0  0  0  0
   40.8813   11.3617  -18.9495 O   0  0  0  0  0  0  0  0  0  0  0  0
   41.5570   13.0892  -16.2918 H   0  0  0  0  0  0  0  0  0  0  0  0
   42.7035   12.0795  -17.2038 H   0  0  0  0  0  0  0  0  0  0  0  0
   37.2581   14.7761  -10.7769 C   0  0  0  0  0  0  0  0  0  0  0  0
   36.7948   14.2864  -11.8030 C   0  0  0  0  0  0  0  0  0  0  0  0
   37.8237   15.2539   -9.4903 C   0  0  0  0  0  0  0  0  0  0  0  0
   37.0681   14.7102   -8.3701 C   0  0  0  0  0  0  0  0  0  0  0  0
   39.1832   14.8708   -9.3643 O   0  0  0  0  0  0  0  0  0  0  0  0
   39.6014   15.0131  -10.2742 H   0  0  0  0  0  0  0  0  0  0  0  0
   37.7709   20.2706   -8.4181 C   0  0  0  0  0  0  0  0  0  0  0  0
   37.8055   18.9571   -9.1253 C   0  0  0  0  0  0  0  0  0  0  0  0
   37.7391   17.6947   -8.5676 C   0  0  0  0  0  0  0  0  0  0  0  0
   37.8062   16.7691   -9.5751 C   0  0  0  0  0  0  0  0  0  0  0  0
   37.9103   17.4897  -10.7186 N   0  0  0  0  0  0  0  0  0  0  0  0
   37.9100   18.7718  -10.4368 O   0  0  0  0  0  0  0  0  0  0  0  0
 29 30  1  0  0  0
 30 31  2  0  0  0
 31 32  1  0  0  0
 32 33  2  0  0  0
 33 34  1  0  0  0
 32 25  1  0  0  0
 25 26  1  0  0  0
 25 27  1  0  0  0
 25 23  1  0  0  0
 23 24  3  0  0  0
 24  1  1  0  0  0
  1  2  1  0  0  0
  2  3  2  0  0  0
  3  4  1  0  0  0
  4  5  1  0  0  0
  5  6  2  0  0  0
  6  7  1  0  0  0
  7  8  1  0  0  0
  8  9  1  0  0  0
  9 10  1  0  0  0
 10 11  1  0  0  0
 11 12  1  0  0  0
 11 13  1  0  0  0
 13 14  2  0  0  0
 14 15  1  0  0  0
 15 16  1  0  0  0
  6 18  1  0  0  0
 18 19  1  0  0  0
 18 20  2  0  0  0
 34 30  1  0  0  0
 15  1  2  0  0  0
 13  3  1  0  0  0
  8  4  2  0  0  0
 12  9  1  0  0  0
 27 28  1  0  0  0
  7 17  1  0  0  0
 19 21  1  0  0  0
 19 22  1  0  0  0
M  END
> <minimizedAffinity>
-9.16271

> <CNNscore>
0.5283342600

> <CNNaffinity>
7.2268447876

> <CNN_VS>
3.8181896210

> <CNNaffinity_variance>
0.2484143674

$$$$
[H]O[C@](C#Cc1c([H])c2c(c([H])c1F)C1([H])C([H])([H])C([H])(c3c-2nc(C(=O)N([H])[H])n3[H])C1([H])[H])(c1noc(C([H])([H])[H])c1[H])C([H])([H])[H]


 34 38  0  0  0  0  0  0  0  0999 V2000
   36.3609   13.8675  -13.0734 C   0  0  0  0  0  0  0  0  0  0  0  0
   36.8834   13.2254  -14.1197 C   0  0  0  0  0  0  0  0  0  0  0  0
   36.0816   12.4774  -14.9615 C   0  0  0  0  0  0  0  0  0  0  0  0
   36.7903   11.8406  -16.0833 C   0  0  0  0  0  0  0  0  0  0  0  0
   38.0326   12.0101  -16.5122 N   0  0  0  0  0  0  0  0  0  0  0  0
   38.2909   11.2672  -17.6098 C   0  0  0  0  0  0  0  0  0  0  0  0
   37.1152   10.6044  -17.8547 N   0  0  0  0  0  0  0  0  0  0  0  0
   36.1938   10.9252  -16.9541 C   0  0  0  0  0  0  0  0  0  0  0  0
   34.7895   10.4178  -16.9140 C   0  0  0  0  0  0  0  0  0  0  0  0
   34.3155   10.1464  -15.5242 C   0  0  0  0  0  0  0  0  0  0  0  0
   33.7223   11.5772  -15.4191 C   0  0  0  0  0  0  0  0  0  0  0  0
   33.8244   11.6258  -16.9081 C   0  0  0  0  0  0  0  0  0  0  0  0
   34.7198   12.4108  -14.6942 C   0  0  0  0  0  0  0  0  0  0  0  0
   34.1313   13.0577  -13.6324 C   0  0  0  0  0  0  0  0  0  0  0  0
   34.9649   13.7857  -12.8276 C   0  0  0  0  0  0  0  0  0  0  0  0
   34.5167   14.4798  -11.7433 F   0  0  0  0  0  0  0  0  0  0  0  0
   36.9850    9.9537  -18.6556 H   0  0  0  0  0  0  0  0  0  0  0  0
   39.5054   11.1274  -18.4100 C   0  0  0  0  0  0  0  0  0  0  0  0
   39.4119   10.8727  -19.8124 N   0  0  0  0  0  0  0  0  0  0  0  0
   40.6267   11.2289  -17.8898 O   0  0  0  0  0  0  0  0  0  0  0  0
   38.5875   10.4091  -20.2718 H   0  0  0  0  0  0  0  0  0  0  0  0
   40.1855   11.1647  -20.4752 H   0  0  0  0  0  0  0  0  0  0  0  0
   37.9038   15.1808  -11.3453 C   0  0  0  0  0  0  0  0  0  0  0  0
   37.1561   14.5895  -12.1190 C   0  0  0  0  0  0  0  0  0  0  0  0
   38.9022   15.8398  -10.4665 C   0  0  0  0  0  0  0  0  0  0  0  0
   38.3445   17.0532   -9.8847 C   0  0  0  0  0  0  0  0  0  0  0  0
   39.3092   14.9687   -9.4243 O   0  0  0  0  0  0  0  0  0  0  0  0
   39.4157   14.0555   -9.8461 H   0  0  0  0  0  0  0  0  0  0  0  0
   43.6833   16.3907  -12.2435 C   0  0  0  0  0  0  0  0  0  0  0  0
   42.1983   16.2936  -12.1329 C   0  0  0  0  0  0  0  0  0  0  0  0
   41.4466   16.1020  -10.9895 C   0  0  0  0  0  0  0  0  0  0  0  0
   40.1224   16.0724  -11.3386 C   0  0  0  0  0  0  0  0  0  0  0  0
   40.1011   16.2477  -12.6826 N   0  0  0  0  0  0  0  0  0  0  0  0
   41.3276   16.3744  -13.1331 O   0  0  0  0  0  0  0  0  0  0  0  0
 29 30  1  0  0  0
 30 31  2  0  0  0
 31 32  1  0  0  0
 32 33  2  0  0  0
 33 34  1  0  0  0
 32 25  1  0  0  0
 25 26  1  0  0  0
 25 27  1  0  0  0
 25 23  1  0  0  0
 23 24  3  0  0  0
 24  1  1  0  0  0
  1  2  1  0  0  0
  2  3  2  0  0  0
  3  4  1  0  0  0
  4  5  1  0  0  0
  5  6  2  0  0  0
  6  7  1  0  0  0
  7  8  1  0  0  0
  8  9  1  0  0  0
  9 10  1  0  0  0
 10 11  1  0  0  0
 11 12  1  0  0  0
 11 13  1  0  0  0
 13 14  2  0  0  0
 14 15  1  0  0  0
 15 16  1  0  0  0
  6 18  1  0  0  0
 18 19  1  0  0  0
 18 20  2  0  0  0
 34 30  1  0  0  0
 15  1  2  0  0  0
 13  3  1  0  0  0
  8  4  2  0  0  0
 12  9  1  0  0  0
 27 28  1  0  0  0
  7 17  1  0  0  0
 19 21  1  0  0  0
 19 22  1  0  0  0
M  END
> <minimizedAffinity>
-9.42489

> <CNNscore>
0.4249735475

> <CNNaffinity>
7.2158441544

> <CNN_VS>
3.0665428638

> <CNNaffinity_variance>
0.1490771323

$$$$
[H]O[C@](C#Cc1c([H])c2c(c([H])c1F)C1([H])C([H])([H])C([H])(c3c-2nc(C(=O)N([H])[H])n3[H])C1([H])[H])(c1noc(C([H])([H])[H])c1[H])C([H])([H])[H]


 34 38  0  0  0  0  0  0  0  0999 V2000
   35.9411   13.1889  -13.7465 C   0  0  0  0  0  0  0  0  0  0  0  0
   37.1104   12.9657  -14.3490 C   0  0  0  0  0  0  0  0  0  0  0  0
   37.1659   12.2943  -15.5562 C   0  0  0  0  0  0  0  0  0  0  0  0
   38.5194   12.1367  -16.1125 C   0  0  0  0  0  0  0  0  0  0  0  0
   39.6654   12.6829  -15.7324 N   0  0  0  0  0  0  0  0  0  0  0  0
   40.6868   12.3184  -16.5369 C   0  0  0  0  0  0  0  0  0  0  0  0
   40.1078   11.4929  -17.4667 N   0  0  0  0  0  0  0  0  0  0  0  0
   38.8064   11.3612  -17.2385 C   0  0  0  0  0  0  0  0  0  0  0  0
   37.8474   10.5587  -18.0555 C   0  0  0  0  0  0  0  0  0  0  0  0
   36.8356    9.8464  -17.2197 C   0  0  0  0  0  0  0  0  0  0  0  0
   35.8453   11.0337  -17.3598 C   0  0  0  0  0  0  0  0  0  0  0  0
   36.6896   11.4781  -18.5085 C   0  0  0  0  0  0  0  0  0  0  0  0
   35.9769   11.8590  -16.1281 C   0  0  0  0  0  0  0  0  0  0  0  0
   34.7461   12.0681  -15.5506 C   0  0  0  0  0  0  0  0  0  0  0  0
   34.7415   12.7371  -14.3569 C   0  0  0  0  0  0  0  0  0  0  0  0
   33.5937   13.0165  -13.6765 F   0  0  0  0  0  0  0  0  0  0  0  0
   40.6380   11.0533  -18.2461 H   0  0  0  0  0  0  0  0  0  0  0  0
   42.1067   12.6609  -16.5000 C   0  0  0  0  0  0  0  0  0  0  0  0
   43.0167   12.0348  -17.4058 N   0  0  0  0  0  0  0  0  0  0  0  0
   42.5406   13.4947  -15.6908 O   0  0  0  0  0  0  0  0  0  0  0  0
   42.8547   11.0930  -17.8442 H   0  0  0  0  0  0  0  0  0  0  0  0
   43.9151   12.5143  -17.6989 H   0  0  0  0  0  0  0  0  0  0  0  0
   35.8085   14.3711  -11.3639 C   0  0  0  0  0  0  0  0  0  0  0  0
   35.8300   13.8059  -12.4536 C   0  0  0  0  0  0  0  0  0  0  0  0
   35.8979   15.0916  -10.0692 C   0  0  0  0  0  0  0  0  0  0  0  0
   34.7753   16.0075   -9.9189 C   0  0  0  0  0  0  0  0  0  0  0  0
   35.9024   14.1791   -8.9838 O   0  0  0  0  0  0  0  0  0  0  0  0
   36.4954   13.4095   -9.2655 H   0  0  0  0  0  0  0  0  0  0  0  0
   40.8777   16.1977   -9.5228 C   0  0  0  0  0  0  0  0  0  0  0  0
   39.4257   16.2573   -9.8618 C   0  0  0  0  0  0  0  0  0  0  0  0
   38.4532   15.3161   -9.5833 C   0  0  0  0  0  0  0  0  0  0  0  0
   37.2564   15.7684  -10.0724 C   0  0  0  0  0  0  0  0  0  0  0  0
   37.5293   16.9716  -10.6340 N   0  0  0  0  0  0  0  0  0  0  0  0
   38.8070   17.2429  -10.5031 O   0  0  0  0  0  0  0  0  0  0  0  0
 29 30  1  0  0  0
 30 31  2  0  0  0
 31 32  1  0  0  0
 32 33  2  0  0  0
 33 34  1  0  0  0
 32 25  1  0  0  0
 25 26  1  0  0  0
 25 27  1  0  0  0
 25 23  1  0  0  0
 23 24  3  0  0  0
 24  1  1  0  0  0
  1  2  1  0  0  0
  2  3  2  0  0  0
  3  4  1  0  0  0
  4  5  1  0  0  0
  5  6  2  0  0  0
  6  7  1  0  0  0
  7  8  1  0  0  0
  8  9  1  0  0  0
  9 10  1  0  0  0
 10 11  1  0  0  0
 11 12  1  0  0  0
 11 13  1  0  0  0
 13 14  2  0  0  0
 14 15  1  0  0  0
 15 16  1  0  0  0
  6 18  1  0  0  0
 18 19  1  0  0  0
 18 20  2  0  0  0
 34 30  1  0  0  0
 15  1  2  0  0  0
 13  3  1  0  0  0
  8  4  2  0  0  0
 12  9  1  0  0  0
 27 28  1  0  0  0
  7 17  1  0  0  0
 19 21  1  0  0  0
 19 22  1  0  0  0
M  END
> <minimizedAffinity>
-9.41185

> <CNNscore>
0.3998817503

> <CNNaffinity>
7.2606720924

> <CNN_VS>
2.9034101963

> <CNNaffinity_variance>
0.1948278397

$$$$
[H]O[C@](C#Cc1c([H])c2c(c([H])c1F)C1([H])C([H])([H])C([H])(c3c-2nc(C(=O)N([H])[H])n3[H])C1([H])[H])(c1noc(C([H])([H])[H])c1[H])C([H])([H])[H]


 34 38  0  0  0  0  0  0  0  0999 V2000
   36.4459   13.8984  -13.1020 C   0  0  0  0  0  0  0  0  0  0  0  0
   36.9241   13.2363  -14.1569 C   0  0  0  0  0  0  0  0  0  0  0  0
   36.0844   12.4891  -14.9617 C   0  0  0  0  0  0  0  0  0  0  0  0
   36.7462   11.8286  -16.0984 C   0  0  0  0  0  0  0  0  0  0  0  0
   37.9755   11.9756  -16.5708 N   0  0  0  0  0  0  0  0  0  0  0  0
   38.1866   11.2156  -17.6669 C   0  0  0  0  0  0  0  0  0  0  0  0
   36.9946   10.5662  -17.8636 N   0  0  0  0  0  0  0  0  0  0  0  0
   36.1085   10.9109  -16.9368 C   0  0  0  0  0  0  0  0  0  0  0  0
   34.6997   10.4235  -16.8430 C   0  0  0  0  0  0  0  0  0  0  0  0
   34.2692   10.1760  -15.4348 C   0  0  0  0  0  0  0  0  0  0  0  0
   33.6991   11.6160  -15.3282 C   0  0  0  0  0  0  0  0  0  0  0  0
   33.7515   11.6448  -16.8203 C   0  0  0  0  0  0  0  0  0  0  0  0
   34.7316   12.4446  -14.6480 C   0  0  0  0  0  0  0  0  0  0  0  0
   34.1880   13.1127  -13.5754 C   0  0  0  0  0  0  0  0  0  0  0  0
   35.0580   13.8390  -12.8085 C   0  0  0  0  0  0  0  0  0  0  0  0
   34.6560   14.5527  -11.7188 F   0  0  0  0  0  0  0  0  0  0  0  0
   36.8286    9.9075  -18.6513 H   0  0  0  0  0  0  0  0  0  0  0  0
   39.3714   11.0491  -18.5055 C   0  0  0  0  0  0  0  0  0  0  0  0
   39.2314   10.9037  -19.9196 N   0  0  0  0  0  0  0  0  0  0  0  0
   40.5075   11.0337  -18.0081 O   0  0  0  0  0  0  0  0  0  0  0  0
   38.3667   10.5336  -20.3895 H   0  0  0  0  0  0  0  0  0  0  0  0
   40.0105   11.1878  -20.5795 H   0  0  0  0  0  0  0  0  0  0  0  0
   37.9611   15.3094  -11.4272 C   0  0  0  0  0  0  0  0  0  0  0  0
   37.2825   14.6211  -12.1842 C   0  0  0  0  0  0  0  0  0  0  0  0
   38.7362   16.2407  -10.5697 C   0  0  0  0  0  0  0  0  0  0  0  0
   40.1128   16.3344  -11.0364 C   0  0  0  0  0  0  0  0  0  0  0  0
   38.1540   17.5337  -10.5753 O   0  0  0  0  0  0  0  0  0  0  0  0
   37.1536   17.3923  -10.5274 H   0  0  0  0  0  0  0  0  0  0  0  0
   39.4864   13.9175   -6.0575 C   0  0  0  0  0  0  0  0  0  0  0  0
   38.9146   14.7199   -7.1782 C   0  0  0  0  0  0  0  0  0  0  0  0
   39.4373   14.8950   -8.4452 C   0  0  0  0  0  0  0  0  0  0  0  0
   38.5939   15.7071   -9.1560 C   0  0  0  0  0  0  0  0  0  0  0  0
   37.5803   16.0044   -8.3063 N   0  0  0  0  0  0  0  0  0  0  0  0
   37.7847   15.4184   -7.1495 O   0  0  0  0  0  0  0  0  0  0  0  0
 29 30  1  0  0  0
 30 31  2  0  0  0
 31 32  1  0  0  0
 32 33  2  0  0  0
 33 34  1  0  0  0
 32 25  1  0  0  0
 25 26  1  0  0  0
 25 27  1  0  0  0
 25 23  1  0  0  0
 23 24  3  0  0  0
 24  1  1  0  0  0
  1  2  1  0  0  0
  2  3  2  0  0  0
  3  4  1  0  0  0
  4  5  1  0  0  0
  5  6  2  0  0  0
  6  7  1  0  0  0
  7  8  1  0  0  0
  8  9  1  0  0  0
  9 10  1  0  0  0
 10 11  1  0  0  0
 11 12  1  0  0  0
 11 13  1  0  0  0
 13 14  2  0  0  0
 14 15  1  0  0  0
 15 16  1  0  0  0
  6 18  1  0  0  0
 18 19  1  0  0  0
 18 20  2  0  0  0
 34 30  1  0  0  0
 15  1  2  0  0  0
 13  3  1  0  0  0
  8  4  2  0  0  0
 12  9  1  0  0  0
 27 28  1  0  0  0
  7 17  1  0  0  0
 19 21  1  0  0  0
 19 22  1  0  0  0
M  END
> <minimizedAffinity>
-8.58471

> <CNNscore>
0.3852813542

> <CNNaffinity>
6.9639725685

> <CNN_VS>
2.6830887794

> <CNNaffinity_variance>
0.1693934649

$$$$
[H]O[C@](C#Cc1c([H])c2c(c([H])c1F)C1([H])C([H])([H])C([H])(c3c-2nc(C(=O)N([H])[H])n3[H])C1([H])[H])(c1noc(C([H])([H])[H])c1[H])C([H])([H])[H]


 34 38  0  0  0  0  0  0  0  0999 V2000
   36.1235   13.4489  -12.9472 C   0  0  0  0  0  0  0  0  0  0  0  0
   37.2124   13.1732  -13.6671 C   0  0  0  0  0  0  0  0  0  0  0  0
   37.1055   12.5723  -14.9075 C   0  0  0  0  0  0  0  0  0  0  0  0
   38.3867   12.3452  -15.5953 C   0  0  0  0  0  0  0  0  0  0  0  0
   39.6026   12.7790  -15.2960 N   0  0  0  0  0  0  0  0  0  0  0  0
   40.5153   12.3860  -16.2103 C   0  0  0  0  0  0  0  0  0  0  0  0
   39.7906   11.6635  -17.1236 N   0  0  0  0  0  0  0  0  0  0  0  0
   38.5083   11.6180  -16.7819 C   0  0  0  0  0  0  0  0  0  0  0  0
   37.4183   10.9408  -17.5464 C   0  0  0  0  0  0  0  0  0  0  0  0
   36.4304   10.2594  -16.6579 C   0  0  0  0  0  0  0  0  0  0  0  0
   35.5314   11.5249  -16.6429 C   0  0  0  0  0  0  0  0  0  0  0  0
   36.3034   11.9709  -17.8409 C   0  0  0  0  0  0  0  0  0  0  0  0
   35.8388   12.2634  -15.3877 C   0  0  0  0  0  0  0  0  0  0  0  0
   34.6854   12.5312  -14.6876 C   0  0  0  0  0  0  0  0  0  0  0  0
   34.8415   13.1268  -13.4656 C   0  0  0  0  0  0  0  0  0  0  0  0
   33.7853   13.4520  -12.6673 F   0  0  0  0  0  0  0  0  0  0  0  0
   40.2118   11.2317  -17.9709 H   0  0  0  0  0  0  0  0  0  0  0  0
   41.9560   12.6165  -16.2885 C   0  0  0  0  0  0  0  0  0  0  0  0
   42.5936   13.4808  -15.3468 N   0  0  0  0  0  0  0  0  0  0  0  0
   42.6426   12.0688  -17.1642 O   0  0  0  0  0  0  0  0  0  0  0  0
   42.1024   14.2570  -14.8352 H   0  0  0  0  0  0  0  0  0  0  0  0
   43.6178   13.3631  -15.1011 H   0  0  0  0  0  0  0  0  0  0  0  0
   36.1597   14.4128  -10.4651 C   0  0  0  0  0  0  0  0  0  0  0  0
   36.1784   13.9950  -11.6193 C   0  0  0  0  0  0  0  0  0  0  0  0
   36.0310   14.8569   -9.0545 C   0  0  0  0  0  0  0  0  0  0  0  0
   34.6321   15.0870   -8.7200 C   0  0  0  0  0  0  0  0  0  0  0  0
   36.5676   13.8873   -8.1698 O   0  0  0  0  0  0  0  0  0  0  0  0
   37.4196   13.5536   -8.6011 H   0  0  0  0  0  0  0  0  0  0  0  0
   37.8218   19.6611   -8.8735 C   0  0  0  0  0  0  0  0  0  0  0  0
   37.7016   18.1744   -8.8293 C   0  0  0  0  0  0  0  0  0  0  0  0
   36.5817   17.4087   -9.0913 C   0  0  0  0  0  0  0  0  0  0  0  0
   36.9099   16.0883   -8.9332 C   0  0  0  0  0  0  0  0  0  0  0  0
   38.2190   16.0832   -8.5809 N   0  0  0  0  0  0  0  0  0  0  0  0
   38.6678   17.3154   -8.5230 O   0  0  0  0  0  0  0  0  0  0  0  0
 29 30  1  0  0  0
 30 31  2  0  0  0
 31 32  1  0  0  0
 32 33  2  0  0  0
 33 34  1  0  0  0
 32 25  1  0  0  0
 25 26  1  0  0  0
 25 27  1  0  0  0
 25 23  1  0  0  0
 23 24  3  0  0  0
 24  1  1  0  0  0
  1  2  1  0  0  0
  2  3  2  0  0  0
  3  4  1  0  0  0
  4  5  1  0  0  0
  5  6  2  0  0  0
  6  7  1  0  0  0
  7  8  1  0  0  0
  8  9  1  0  0  0
  9 10  1  0  0  0
 10 11  1  0  0  0
 11 12  1  0  0  0
 11 13  1  0  0  0
 13 14  2  0  0  0
 14 15  1  0  0  0
 15 16  1  0  0  0
  6 18  1  0  0  0
 18 19  1  0  0  0
 18 20  2  0  0  0
 34 30  1  0  0  0
 15  1  2  0  0  0
 13  3  1  0  0  0
  8  4  2  0  0  0
 12  9  1  0  0  0
 27 28  1  0  0  0
  7 17  1  0  0  0
 19 21  1  0  0  0
 19 22  1  0  0  0
M  END
> <minimizedAffinity>
-7.90681

> <CNNscore>
0.3589908779

> <CNNaffinity>
6.9290285110

> <CNN_VS>
2.4874579906

> <CNNaffinity_variance>
0.3988544047

$$$$
[H]O[C@](C#Cc1c([H])c2c(c([H])c1F)C1([H])C([H])([H])C([H])(c3c-2nc(C(=O)N([H])[H])n3[H])C1([H])[H])(c1noc(C([H])([H])[H])c1[H])C([H])([H])[H]


 34 38  0  0  0  0  0  0  0  0999 V2000
   35.7617   14.2396  -13.4503 C   0  0  0  0  0  0  0  0  0  0  0  0
   36.4957   13.5879  -14.3540 C   0  0  0  0  0  0  0  0  0  0  0  0
   35.9164   12.6566  -15.1954 C   0  0  0  0  0  0  0  0  0  0  0  0
   36.8423   12.0304  -16.1530 C   0  0  0  0  0  0  0  0  0  0  0  0
   38.0952   12.3401  -16.4530 N   0  0  0  0  0  0  0  0  0  0  0  0
   38.5897   11.5457  -17.4266 C   0  0  0  0  0  0  0  0  0  0  0  0
   37.5550   10.6982  -17.7305 N   0  0  0  0  0  0  0  0  0  0  0  0
   36.4909   10.9616  -16.9813 C   0  0  0  0  0  0  0  0  0  0  0  0
   35.1740   10.2597  -17.0468 C   0  0  0  0  0  0  0  0  0  0  0  0
   34.5663   10.0503  -15.6990 C   0  0  0  0  0  0  0  0  0  0  0  0
   33.7777   11.3822  -15.8187 C   0  0  0  0  0  0  0  0  0  0  0  0
   34.0627   11.3086  -17.2827 C   0  0  0  0  0  0  0  0  0  0  0  0
   34.5529   12.4158  -15.0797 C   0  0  0  0  0  0  0  0  0  0  0  0
   33.7515   13.0640  -14.1688 C   0  0  0  0  0  0  0  0  0  0  0  0
   34.3695   13.9770  -13.3582 C   0  0  0  0  0  0  0  0  0  0  0  0
   33.6966   14.6943  -12.4141 F   0  0  0  0  0  0  0  0  0  0  0  0
   37.6172    9.9648  -18.4654 H   0  0  0  0  0  0  0  0  0  0  0  0
   39.9046   11.5126  -18.0628 C   0  0  0  0  0  0  0  0  0  0  0  0
   41.0017   12.2120  -17.4731 N   0  0  0  0  0  0  0  0  0  0  0  0
   40.0883   10.8809  -19.1143 O   0  0  0  0  0  0  0  0  0  0  0  0
   40.8958   13.0458  -16.8414 H   0  0  0  0  0  0  0  0  0  0  0  0
   42.0015   11.9011  -17.6370 H   0  0  0  0  0  0  0  0  0  0  0  0
   36.7654   15.8925  -11.6195 C   0  0  0  0  0  0  0  0  0  0  0  0
   36.3236   15.1547  -12.4957 C   0  0  0  0  0  0  0  0  0  0  0  0
   37.2265   16.7252  -10.4804 C   0  0  0  0  0  0  0  0  0  0  0  0
   38.6338   16.4720  -10.2029 C   0  0  0  0  0  0  0  0  0  0  0  0
   37.0481   18.1041  -10.7593 O   0  0  0  0  0  0  0  0  0  0  0  0
   36.1485   18.1850  -11.2148 H   0  0  0  0  0  0  0  0  0  0  0  0
   34.6194   14.3566   -6.7504 C   0  0  0  0  0  0  0  0  0  0  0  0
   35.1690   15.3805   -7.6866 C   0  0  0  0  0  0  0  0  0  0  0  0
   36.0544   15.1842   -8.7290 C   0  0  0  0  0  0  0  0  0  0  0  0
   36.2959   16.3917   -9.3288 C   0  0  0  0  0  0  0  0  0  0  0  0
   35.5522   17.2908   -8.6387 N   0  0  0  0  0  0  0  0  0  0  0  0
   34.8982   16.6813   -7.6775 O   0  0  0  0  0  0  0  0  0  0  0  0
 29 30  1  0  0  0
 30 31  2  0  0  0
 31 32  1  0  0  0
 32 33  2  0  0  0
 33 34  1  0  0  0
 32 25  1  0  0  0
 25 26  1  0  0  0
 25 27  1  0  0  0
 25 23  1  0  0  0
 23 24  3  0  0  0
 24  1  1  0  0  0
  1  2  1  0  0  0
  2  3  2  0  0  0
  3  4  1  0  0  0
  4  5  1  0  0  0
  5  6  2  0  0  0
  6  7  1  0  0  0
  7  8  1  0  0  0
  8  9  1  0  0  0
  9 10  1  0  0  0
 10 11  1  0  0  0
 11 12  1  0  0  0
 11 13  1  0  0  0
 13 14  2  0  0  0
 14 15  1  0  0  0
 15 16  1  0  0  0
  6 18  1  0  0  0
 18 19  1  0  0  0
 18 20  2  0  0  0
 34 30  1  0  0  0
 15  1  2  0  0  0
 13  3  1  0  0  0
  8  4  2  0  0  0
 12  9  1  0  0  0
 27 28  1  0  0  0
  7 17  1  0  0  0
 19 21  1  0  0  0
 19 22  1  0  0  0
M  END
> <minimizedAffinity>
-8.97505

> <CNNscore>
0.3325704634

> <CNNaffinity>
6.9580473900

> <CNN_VS>
2.3140411377

> <CNNaffinity_variance>
0.1385067999

$$$$
[H]O[C@](C#Cc1c([H])c2c(c([H])c1F)C1([H])C([H])([H])C([H])(c3c-2nc(C(=O)N([H])[H])n3[H])C1([H])[H])(c1noc(C([H])([H])[H])c1[H])C([H])([H])[H]


 34 38  0  0  0  0  0  0  0  0999 V2000
   39.4125   12.7345  -15.4409 C   0  0  0  0  0  0  0  0  0  0  0  0
   38.7781   13.1884  -14.3585 C   0  0  0  0  0  0  0  0  0  0  0  0
   37.4103   13.0378  -14.2267 C   0  0  0  0  0  0  0  0  0  0  0  0
   36.8492   13.5692  -12.9740 C   0  0  0  0  0  0  0  0  0  0  0  0
   37.4629   14.0078  -11.8846 N   0  0  0  0  0  0  0  0  0  0  0  0
   36.5848   14.3726  -10.9258 C   0  0  0  0  0  0  0  0  0  0  0  0
   35.3549   14.1342  -11.4843 N   0  0  0  0  0  0  0  0  0  0  0  0
   35.4788   13.6531  -12.7157 C   0  0  0  0  0  0  0  0  0  0  0  0
   34.3592   13.2571  -13.6216 C   0  0  0  0  0  0  0  0  0  0  0  0
   34.6096   13.6347  -15.0444 C   0  0  0  0  0  0  0  0  0  0  0  0
   35.2344   12.2429  -15.3313 C   0  0  0  0  0  0  0  0  0  0  0  0
   34.5757   11.7929  -14.0689 C   0  0  0  0  0  0  0  0  0  0  0  0
   36.7118   12.4021  -15.2458 C   0  0  0  0  0  0  0  0  0  0  0  0
   37.3189   11.9122  -16.3788 C   0  0  0  0  0  0  0  0  0  0  0  0
   38.6737   12.0842  -16.4642 C   0  0  0  0  0  0  0  0  0  0  0  0
   39.4037   11.6448  -17.5284 F   0  0  0  0  0  0  0  0  0  0  0  0
   34.4597   14.3026  -10.9824 H   0  0  0  0  0  0  0  0  0  0  0  0
   36.7974   14.9136   -9.5853 C   0  0  0  0  0  0  0  0  0  0  0  0
   37.5603   16.1084   -9.4095 N   0  0  0  0  0  0  0  0  0  0  0  0
   36.3215   14.3507   -8.5878 O   0  0  0  0  0  0  0  0  0  0  0  0
   38.2941   16.4418  -10.0847 H   0  0  0  0  0  0  0  0  0  0  0  0
   37.4034   16.7407   -8.5737 H   0  0  0  0  0  0  0  0  0  0  0  0
   42.0297   13.0338  -15.8315 C   0  0  0  0  0  0  0  0  0  0  0  0
   40.8165   12.9368  -15.6698 C   0  0  0  0  0  0  0  0  0  0  0  0
   43.5084   13.0477  -15.9608 C   0  0  0  0  0  0  0  0  0  0  0  0
   43.9682   11.8573  -16.6630 C   0  0  0  0  0  0  0  0  0  0  0  0
   43.9420   14.1998  -16.6647 O   0  0  0  0  0  0  0  0  0  0  0  0
   43.3789   14.9673  -16.3226 H   0  0  0  0  0  0  0  0  0  0  0  0
   43.9854   13.6736  -10.8912 C   0  0  0  0  0  0  0  0  0  0  0  0
   44.2625   13.4271  -12.3366 C   0  0  0  0  0  0  0  0  0  0  0  0
   43.3670   13.4687  -13.3881 C   0  0  0  0  0  0  0  0  0  0  0  0
   44.0400   13.1788  -14.5453 C   0  0  0  0  0  0  0  0  0  0  0  0
   45.3259   12.9698  -14.1703 N   0  0  0  0  0  0  0  0  0  0  0  0
   45.4390   13.1179  -12.8710 O   0  0  0  0  0  0  0  0  0  0  0  0
 29 30  1  0  0  0
 30 31  2  0  0  0
 31 32  1  0  0  0
 32 33  2  0  0  0
 33 34  1  0  0  0
 32 25  1  0  0  0
 25 26  1  0  0  0
 25 27  1  0  0  0
 25 23  1  0  0  0
 23 24  3  0  0  0
 24  1  1  0  0  0
  1  2  1  0  0  0
  2  3  2  0  0  0
  3  4  1  0  0  0
  4  5  1  0  0  0
  5  6  2  0  0  0
  6  7  1  0  0  0
  7  8  1  0  0  0
  8  9  1  0  0  0
  9 10  1  0  0  0
 10 11  1  0  0  0
 11 12  1  0  0  0
 11 13  1  0  0  0
 13 14  2  0  0  0
 14 15  1  0  0  0
 15 16  1  0  0  0
  6 18  1  0  0  0
 18 19  1  0  0  0
 18 20  2  0  0  0
 34 30  1  0  0  0
 15  1  2  0  0  0
 13  3  1  0  0  0
  8  4  2  0  0  0
 12  9  1  0  0  0
 27 28  1  0  0  0
  7 17  1  0  0  0
 19 21  1  0  0  0
 19 22  1  0  0  0
M  END
> <minimizedAffinity>
-10.04818

> <CNNscore>
0.2883917391

> <CNNaffinity>
6.8288254738

> <CNN_VS>
1.9693768024

> <CNNaffinity_variance>
0.0821437389

$$$$
[H]O[C@](C#Cc1c([H])c2c(c([H])c1F)C1([H])C([H])([H])C([H])(c3c-2nc(C(=O)N([H])[H])n3[H])C1([H])[H])(c1noc(C([H])([H])[H])c1[H])C([H])([H])[H]


 34 38  0  0  0  0  0  0  0  0999 V2000
   39.2951   14.1740  -13.6873 C   0  0  0  0  0  0  0  0  0  0  0  0
   38.3027   13.5675  -14.3411 C   0  0  0  0  0  0  0  0  0  0  0  0
   38.5645   12.7698  -15.4394 C   0  0  0  0  0  0  0  0  0  0  0  0
   37.3765   12.1504  -16.0489 C   0  0  0  0  0  0  0  0  0  0  0  0
   36.1266   12.0945  -15.6125 N   0  0  0  0  0  0  0  0  0  0  0  0
   35.3340   11.3890  -16.4476 C   0  0  0  0  0  0  0  0  0  0  0  0
   36.1732   10.9941  -17.4582 N   0  0  0  0  0  0  0  0  0  0  0  0
   37.4073   11.4373  -17.2498 C   0  0  0  0  0  0  0  0  0  0  0  0
   38.5910   11.1866  -18.1257 C   0  0  0  0  0  0  0  0  0  0  0  0
   39.4803   12.3801  -18.2462 C   0  0  0  0  0  0  0  0  0  0  0  0
   40.3488   11.8857  -17.0583 C   0  0  0  0  0  0  0  0  0  0  0  0
   39.7142   10.5512  -17.2739 C   0  0  0  0  0  0  0  0  0  0  0  0
   39.8839   12.6130  -15.8457 C   0  0  0  0  0  0  0  0  0  0  0  0
   40.9427   13.2119  -15.2036 C   0  0  0  0  0  0  0  0  0  0  0  0
   40.6343   13.9914  -14.1220 C   0  0  0  0  0  0  0  0  0  0  0  0
   41.5841   14.6404  -13.3904 F   0  0  0  0  0  0  0  0  0  0  0  0
   35.8615   10.4122  -18.2620 H   0  0  0  0  0  0  0  0  0  0  0  0
   33.9085   11.0755  -16.3816 C   0  0  0  0  0  0  0  0  0  0  0  0
   33.2433   11.0351  -15.1181 N   0  0  0  0  0  0  0  0  0  0  0  0
   33.2583   10.8438  -17.4121 O   0  0  0  0  0  0  0  0  0  0  0  0
   33.7274   10.8407  -14.2051 H   0  0  0  0  0  0  0  0  0  0  0  0
   32.2032   11.2226  -15.0401 H   0  0  0  0  0  0  0  0  0  0  0  0
   38.8721   15.7860  -11.6102 C   0  0  0  0  0  0  0  0  0  0  0  0
   39.0757   15.0793  -12.5933 C   0  0  0  0  0  0  0  0  0  0  0  0
   38.5868   16.5389  -10.3632 C   0  0  0  0  0  0  0  0  0  0  0  0
   39.6906   16.4013   -9.4228 C   0  0  0  0  0  0  0  0  0  0  0  0
   38.3808   17.9142  -10.6407 O   0  0  0  0  0  0  0  0  0  0  0  0
   37.8244   17.9508  -11.4847 H   0  0  0  0  0  0  0  0  0  0  0  0
   33.6786   15.9472   -8.9921 C   0  0  0  0  0  0  0  0  0  0  0  0
   35.1260   15.7152   -9.2716 C   0  0  0  0  0  0  0  0  0  0  0  0
   36.0544   16.6279   -9.7346 C   0  0  0  0  0  0  0  0  0  0  0  0
   37.2642   15.9966   -9.8531 C   0  0  0  0  0  0  0  0  0  0  0  0
   37.0428   14.7186   -9.4588 N   0  0  0  0  0  0  0  0  0  0  0  0
   35.7827   14.5700   -9.1224 O   0  0  0  0  0  0  0  0  0  0  0  0
 29 30  1  0  0  0
 30 31  2  0  0  0
 31 32  1  0  0  0
 32 33  2  0  0  0
 33 34  1  0  0  0
 32 25  1  0  0  0
 25 26  1  0  0  0
 25 27  1  0  0  0
 25 23  1  0  0  0
 23 24  3  0  0  0
 24  1  1  0  0  0
  1  2  1  0  0  0
  2  3  2  0  0  0
  3  4  1  0  0  0
  4  5  1  0  0  0
  5  6  2  0  0  0
  6  7  1  0  0  0
  7  8  1  0  0  0
  8  9  1  0  0  0
  9 10  1  0  0  0
 10 11  1  0  0  0
 11 12  1  0  0  0
 11 13  1  0  0  0
 13 14  2  0  0  0
 14 15  1  0  0  0
 15 16  1  0  0  0
  6 18  1  0  0  0
 18 19  1  0  0  0
 18 20  2  0  0  0
 34 30  1  0  0  0
 15  1  2  0  0  0
 13  3  1  0  0  0
  8  4  2  0  0  0
 12  9  1  0  0  0
 27 28  1  0  0  0
  7 17  1  0  0  0
 19 21  1  0  0  0
 19 22  1  0  0  0
M  END
> <minimizedAffinity>
-9.45336

> <CNNscore>
0.2502554059

> <CNNaffinity>
7.0494270325

> <CNN_VS>
1.7641571760

> <CNNaffinity_variance>
0.0980294719

$$$$
[H]O[C@](C#Cc1c([H])c2c(c([H])c1F)C1([H])C([H])([H])C([H])(c3c-2nc(C(=O)N([H])[H])n3[H])C1([H])[H])(c1noc(C([H])([H])[H])c1[H])C([H])([H])[H]


 34 38  0  0  0  0  0  0  0  0999 V2000
   39.7714   11.9623  -16.4651 C   0  0  0  0  0  0  0  0  0  0  0  0
   38.8205   12.3778  -15.6265 C   0  0  0  0  0  0  0  0  0  0  0  0
   37.5054   11.9897  -15.8020 C   0  0  0  0  0  0  0  0  0  0  0  0
   36.5693   12.5084  -14.7915 C   0  0  0  0  0  0  0  0  0  0  0  0
   36.8104   13.1387  -13.6511 N   0  0  0  0  0  0  0  0  0  0  0  0
   35.6723   13.4123  -12.9780 C   0  0  0  0  0  0  0  0  0  0  0  0
   34.6772   12.9078  -13.7758 N   0  0  0  0  0  0  0  0  0  0  0  0
   35.1826   12.3599  -14.8746 C   0  0  0  0  0  0  0  0  0  0  0  0
   34.4054   11.6932  -15.9620 C   0  0  0  0  0  0  0  0  0  0  0  0
   34.9443   11.9943  -17.3217 C   0  0  0  0  0  0  0  0  0  0  0  0
   35.8332   10.7223  -17.2797 C   0  0  0  0  0  0  0  0  0  0  0  0
   34.9566   10.2624  -16.1617 C   0  0  0  0  0  0  0  0  0  0  0  0
   37.1967   11.1564  -16.8701 C   0  0  0  0  0  0  0  0  0  0  0  0
   38.1399   10.6965  -17.7594 C   0  0  0  0  0  0  0  0  0  0  0  0
   39.4276   11.1069  -17.5449 C   0  0  0  0  0  0  0  0  0  0  0  0
   40.4628   10.7245  -18.3453 F   0  0  0  0  0  0  0  0  0  0  0  0
   33.6691   12.9490  -13.5229 H   0  0  0  0  0  0  0  0  0  0  0  0
   35.4510   14.0896  -11.7024 C   0  0  0  0  0  0  0  0  0  0  0  0
   34.2784   14.8818  -11.5078 N   0  0  0  0  0  0  0  0  0  0  0  0
   36.2689   13.9867  -10.7756 O   0  0  0  0  0  0  0  0  0  0  0  0
   33.7400   15.3362  -12.2883 H   0  0  0  0  0  0  0  0  0  0  0  0
   33.8764   15.0371  -10.5396 H   0  0  0  0  0  0  0  0  0  0  0  0
   42.3169   12.7146  -16.2505 C   0  0  0  0  0  0  0  0  0  0  0  0
   41.1375   12.3997  -16.3811 C   0  0  0  0  0  0  0  0  0  0  0  0
   43.7472   13.0190  -15.9958 C   0  0  0  0  0  0  0  0  0  0  0  0
   44.5913   11.9347  -16.4791 C   0  0  0  0  0  0  0  0  0  0  0  0
   44.1276   14.2256  -16.6363 O   0  0  0  0  0  0  0  0  0  0  0  0
   43.3605   14.8707  -16.5000 H   0  0  0  0  0  0  0  0  0  0  0  0
   45.4298   13.7249  -11.2010 C   0  0  0  0  0  0  0  0  0  0  0  0
   44.5688   13.6008  -12.4134 C   0  0  0  0  0  0  0  0  0  0  0  0
   44.9584   13.2667  -13.6963 C   0  0  0  0  0  0  0  0  0  0  0  0
   43.8510   13.2694  -14.5025 C   0  0  0  0  0  0  0  0  0  0  0  0
   42.8171   13.6029  -13.6917 N   0  0  0  0  0  0  0  0  0  0  0  0
   43.2557   13.7955  -12.4695 O   0  0  0  0  0  0  0  0  0  0  0  0
 29 30  1  0  0  0
 30 31  2  0  0  0
 31 32  1  0  0  0
 32 33  2  0  0  0
 33 34  1  0  0  0
 32 25  1  0  0  0
 25 26  1  0  0  0
 25 27  1  0  0  0
 25 23  1  0  0  0
 23 24  3  0  0  0
 24  1  1  0  0  0
  1  2  1  0  0  0
  2  3  2  0  0  0
  3  4  1  0  0  0
  4  5  1  0  0  0
  5  6  2  0  0  0
  6  7  1  0  0  0
  7  8  1  0  0  0
  8  9  1  0  0  0
  9 10  1  0  0  0
 10 11  1  0  0  0
 11 12  1  0  0  0
 11 13  1  0  0  0
 13 14  2  0  0  0
 14 15  1  0  0  0
 15 16  1  0  0  0
  6 18  1  0  0  0
 18 19  1  0  0  0
 18 20  2  0  0  0
 34 30  1  0  0  0
 15  1  2  0  0  0
 13  3  1  0  0  0
  8  4  2  0  0  0
 12  9  1  0  0  0
 27 28  1  0  0  0
  7 17  1  0  0  0
 19 21  1  0  0  0
 19 22  1  0  0  0
M  END
> <minimizedAffinity>
-9.71850

> <CNNscore>
0.2493442446

> <CNNaffinity>
6.9276304245

> <CNN_VS>
1.7273647785

> <CNNaffinity_variance>
0.0986393467

$$$$
[H]OC(C#Cc1c([H])c2c(c([H])c1F)OC([H])([H])C([H])([H])n1c-2nc(C(=O)N([H])[H])c1-c1c([H])nn(C([H])([H])C(O[H])(C([H])([H])[H])C([H])([H])[H])c1[H])(C([H])([H])[H])C([H])([H])[H]


 38 41  0  0  0  0  0  0  0  0999 V2000
   39.4678   12.4358  -15.8408 C   0  0  0  0  0  0  0  0  0  0  0  0
   40.6698   12.6841  -16.4464 C   0  0  0  0  0  0  0  0  0  0  0  0
   41.3564   13.5400  -15.5987 N   0  0  0  0  0  0  0  0  0  0  0  0
   40.5866   13.7641  -14.5551 C   0  0  0  0  0  0  0  0  0  0  0  0
   40.9569   14.6412  -13.4258 C   0  0  0  0  0  0  0  0  0  0  0  0
   42.3516   14.6997  -13.2883 C   0  0  0  0  0  0  0  0  0  0  0  0
   42.8365   15.4833  -12.2811 C   0  0  0  0  0  0  0  0  0  0  0  0
   41.9966   16.1816  -11.4421 C   0  0  0  0  0  0  0  0  0  0  0  0
   42.5575   16.9527  -10.4471 F   0  0  0  0  0  0  0  0  0  0  0  0
   40.6240   16.1180  -11.5853 C   0  0  0  0  0  0  0  0  0  0  0  0
   40.1042   15.3351  -12.5934 C   0  0  0  0  0  0  0  0  0  0  0  0
   38.6949   15.3488  -12.6425 O   0  0  0  0  0  0  0  0  0  0  0  0
   37.8843   14.6381  -13.5962 C   0  0  0  0  0  0  0  0  0  0  0  0
   38.3744   13.1688  -13.6654 C   0  0  0  0  0  0  0  0  0  0  0  0
   39.3978   13.0871  -14.6716 N   0  0  0  0  0  0  0  0  0  0  0  0
   36.2664   11.3502  -17.3131 N   0  0  0  0  0  0  0  0  0  0  0  0
   36.9880   12.1471  -16.4801 C   0  0  0  0  0  0  0  0  0  0  0  0
   38.3296   11.7684  -16.5029 C   0  0  0  0  0  0  0  0  0  0  0  0
   38.3613   10.7193  -17.3786 C   0  0  0  0  0  0  0  0  0  0  0  0
   37.0939   10.5151  -17.8322 N   0  0  0  0  0  0  0  0  0  0  0  0
   34.8324   11.5129  -17.4963 C   0  0  0  0  0  0  0  0  0  0  0  0
   33.6228   11.1108  -15.4130 C   0  0  0  0  0  0  0  0  0  0  0  0
   34.0397   10.4829  -16.7475 C   0  0  0  0  0  0  0  0  0  0  0  0
   32.7710   10.1845  -17.5175 C   0  0  0  0  0  0  0  0  0  0  0  0
   34.7283    9.3081  -16.5592 O   0  0  0  0  0  0  0  0  0  0  0  0
   35.4276    9.4646  -15.8819 H   0  0  0  0  0  0  0  0  0  0  0  0
   41.3477   12.1141  -17.6111 C   0  0  0  0  0  0  0  0  0  0  0  0
   42.7466   11.8208  -17.5708 N   0  0  0  0  0  0  0  0  0  0  0  0
   40.7538   11.8654  -18.6608 O   0  0  0  0  0  0  0  0  0  0  0  0
   43.4213   12.5521  -17.8247 H   0  0  0  0  0  0  0  0  0  0  0  0
   43.0830   10.8848  -17.2899 H   0  0  0  0  0  0  0  0  0  0  0  0
   44.2809   15.5603  -12.1182 C   0  0  0  0  0  0  0  0  0  0  0  0
   45.4756   15.6428  -11.9796 C   0  0  0  0  0  0  0  0  0  0  0  0
   46.9254   15.7540  -11.8039 C   0  0  0  0  0  0  0  0  0  0  0  0
   47.2219   15.9354  -10.3282 C   0  0  0  0  0  0  0  0  0  0  0  0
   47.4287   16.9203  -12.6261 C   0  0  0  0  0  0  0  0  0  0  0  0
   47.5099   14.5845  -12.2825 O   0  0  0  0  0  0  0  0  0  0  0  0
   47.0637   14.3500  -13.1521 H   0  0  0  0  0  0  0  0  0  0  0  0
 22 23  1  0  0  0
 23 24  1  0  0  0
 23 25  1  0  0  0
 23 21  1  0  0  0
 21 16  1  0  0  0
 16 17  1  0  0  0
 17 18  2  0  0  0
 18 19  1  0  0  0
 19 20  2  0  0  0
 18  1  1  0  0  0
  1  2  2  0  0  0
  2  3  1  0  0  0
  3  4  2  0  0  0
  4  5  1  0  0  0
  5  6  2  0  0  0
  6  7  1  0  0  0
  7 32  1  0  0  0
 32 33  3  0  0  0
 33 34  1  0  0  0
 34 35  1  0  0  0
 34 36  1  0  0  0
 34 37  1  0  0  0
  7  8  2  0  0  0
  8  9  1  0  0  0
  8 10  1  0  0  0
 10 11  2  0  0  0
 11 12  1  0  0  0
 12 13  1  0  0  0
 13 14  1  0  0  0
 14 15  1  0  0  0
  2 27  1  0  0  0
 27 28  1  0  0  0
 27 29  2  0  0  0
 20 16  1  0  0  0
 15  1  1  0  0  0
 15  4  1  0  0  0
 11  5  1  0  0  0
 25 26  1  0  0  0
 37 38  1  0  0  0
 28 30  1  0  0  0
 28 31  1  0  0  0
M  END
> <minimizedAffinity>
-7.72246

> <CNNscore>
0.4225088656

> <CNNaffinity>
6.9702844620

> <CNN_VS>
2.9450070858

> <CNNaffinity_variance>
0.0975622237

$$$$
[H]OC(C#Cc1c([H])c2c(c([H])c1F)OC([H])([H])C([H])([H])n1c-2nc(C(=O)N([H])[H])c1-c1c([H])nn(C([H])([H])C(O[H])(C([H])([H])[H])C([H])([H])[H])c1[H])(C([H])([H])[H])C([H])([H])[H]


 38 41  0  0  0  0  0  0  0  0999 V2000
   35.4385   14.2803  -12.6691 C   0  0  0  0  0  0  0  0  0  0  0  0
   36.6013   14.2557  -11.9476 C   0  0  0  0  0  0  0  0  0  0  0  0
   37.5450   13.6488  -12.7622 N   0  0  0  0  0  0  0  0  0  0  0  0
   36.9518   13.3478  -13.8978 C   0  0  0  0  0  0  0  0  0  0  0  0
   37.6213   12.6736  -15.0287 C   0  0  0  0  0  0  0  0  0  0  0  0
   38.9985   12.9390  -15.0110 C   0  0  0  0  0  0  0  0  0  0  0  0
   39.7456   12.3708  -16.0023 C   0  0  0  0  0  0  0  0  0  0  0  0
   39.1741   11.5763  -16.9713 C   0  0  0  0  0  0  0  0  0  0  0  0
   39.9907   11.0363  -17.9413 F   0  0  0  0  0  0  0  0  0  0  0  0
   37.8164   11.3204  -16.9806 C   0  0  0  0  0  0  0  0  0  0  0  0
   37.0357   11.8801  -15.9925 C   0  0  0  0  0  0  0  0  0  0  0  0
   35.6695   11.5487  -16.1038 O   0  0  0  0  0  0  0  0  0  0  0  0
   34.6289   11.9781  -15.2068 C   0  0  0  0  0  0  0  0  0  0  0  0
   34.7583   13.5084  -14.9944 C   0  0  0  0  0  0  0  0  0  0  0  0
   35.6334   13.7308  -13.8758 N   0  0  0  0  0  0  0  0  0  0  0  0
   32.5121   15.5460  -10.8174 N   0  0  0  0  0  0  0  0  0  0  0  0
   33.8506   15.3360  -10.9355 C   0  0  0  0  0  0  0  0  0  0  0  0
   34.1189   14.6192  -12.1009 C   0  0  0  0  0  0  0  0  0  0  0  0
   32.8858   14.4176  -12.6553 C   0  0  0  0  0  0  0  0  0  0  0  0
   31.9614   14.9964  -11.8402 N   0  0  0  0  0  0  0  0  0  0  0  0
   31.9347   16.2716   -9.6965 C   0  0  0  0  0  0  0  0  0  0  0  0
   32.4555   15.2566   -7.5370 C   0  0  0  0  0  0  0  0  0  0  0  0
   31.3949   15.3549   -8.6389 C   0  0  0  0  0  0  0  0  0  0  0  0
   30.1656   15.9873   -8.0219 C   0  0  0  0  0  0  0  0  0  0  0  0
   31.0560   14.1147   -9.1255 O   0  0  0  0  0  0  0  0  0  0  0  0
   31.8872   13.6229   -9.3246 H   0  0  0  0  0  0  0  0  0  0  0  0
   37.0142   14.8620  -10.6816 C   0  0  0  0  0  0  0  0  0  0  0  0
   37.7369   16.0956  -10.6640 N   0  0  0  0  0  0  0  0  0  0  0  0
   36.7618   14.3457   -9.5924 O   0  0  0  0  0  0  0  0  0  0  0  0
   38.7620   16.0788  -10.7246 H   0  0  0  0  0  0  0  0  0  0  0  0
   37.2401   16.9989  -10.5914 H   0  0  0  0  0  0  0  0  0  0  0  0
   41.1777   12.6315  -16.0053 C   0  0  0  0  0  0  0  0  0  0  0  0
   42.3663   12.8327  -15.9954 C   0  0  0  0  0  0  0  0  0  0  0  0
   43.8123   13.0648  -15.9797 C   0  0  0  0  0  0  0  0  0  0  0  0
   44.5034   11.8553  -16.5780 C   0  0  0  0  0  0  0  0  0  0  0  0
   44.2511   13.3146  -14.5532 C   0  0  0  0  0  0  0  0  0  0  0  0
   44.0756   14.2047  -16.7344 O   0  0  0  0  0  0  0  0  0  0  0  0
   43.3905   14.8995  -16.4933 H   0  0  0  0  0  0  0  0  0  0  0  0
 22 23  1  0  0  0
 23 24  1  0  0  0
 23 25  1  0  0  0
 23 21  1  0  0  0
 21 16  1  0  0  0
 16 17  1  0  0  0
 17 18  2  0  0  0
 18 19  1  0  0  0
 19 20  2  0  0  0
 18  1  1  0  0  0
  1  2  2  0  0  0
  2  3  1  0  0  0
  3  4  2  0  0  0
  4  5  1  0  0  0
  5  6  2  0  0  0
  6  7  1  0  0  0
  7 32  1  0  0  0
 32 33  3  0  0  0
 33 34  1  0  0  0
 34 35  1  0  0  0
 34 36  1  0  0  0
 34 37  1  0  0  0
  7  8  2  0  0  0
  8  9  1  0  0  0
  8 10  1  0  0  0
 10 11  2  0  0  0
 11 12  1  0  0  0
 12 13  1  0  0  0
 13 14  1  0  0  0
 14 15  1  0  0  0
  2 27  1  0  0  0
 27 28  1  0  0  0
 27 29  2  0  0  0
 20 16  1  0  0  0
 15  1  1  0  0  0
 15  4  1  0  0  0
 11  5  1  0  0  0
 25 26  1  0  0  0
 37 38  1  0  0  0
 28 30  1  0  0  0
 28 31  1  0  0  0
M  END
> <minimizedAffinity>
-10.01452

> <CNNscore>
0.3582848310

> <CNNaffinity>
7.1290054321

> <CNN_VS>
2.5542144775

> <CNNaffinity_variance>
0.0923421383

$$$$
[H]OC(C#Cc1c([H])c2c(c([H])c1F)OC([H])([H])C([H])([H])n1c-2nc(C(=O)N([H])[H])c1-c1c([H])nn(C([H])([H])C(O[H])(C([H])([H])[H])C([H])([H])[H])c1[H])(C([H])([H])[H])C([H])([H])[H]


 38 41  0  0  0  0  0  0  0  0999 V2000
   38.8602   12.7401  -15.0823 C   0  0  0  0  0  0  0  0  0  0  0  0
   39.7484   12.5097  -16.0978 C   0  0  0  0  0  0  0  0  0  0  0  0
   40.9396   13.1018  -15.7067 N   0  0  0  0  0  0  0  0  0  0  0  0
   40.7436   13.6385  -14.5212 C   0  0  0  0  0  0  0  0  0  0  0  0
   41.7754   14.3780  -13.7660 C   0  0  0  0  0  0  0  0  0  0  0  0
   43.0569   13.9377  -14.1282 C   0  0  0  0  0  0  0  0  0  0  0  0
   44.1117   14.5429  -13.5079 C   0  0  0  0  0  0  0  0  0  0  0  0
   43.9254   15.5367  -12.5727 C   0  0  0  0  0  0  0  0  0  0  0  0
   45.0375   16.1022  -11.9874 F   0  0  0  0  0  0  0  0  0  0  0  0
   42.6592   15.9639  -12.2223 C   0  0  0  0  0  0  0  0  0  0  0  0
   41.5740   15.3719  -12.8316 C   0  0  0  0  0  0  0  0  0  0  0  0
   40.3365   15.8891  -12.3959 O   0  0  0  0  0  0  0  0  0  0  0  0
   39.0426   15.4716  -12.8683 C   0  0  0  0  0  0  0  0  0  0  0  0
   38.9790   13.9228  -12.8345 C   0  0  0  0  0  0  0  0  0  0  0  0
   39.4542   13.4294  -14.0983 N   0  0  0  0  0  0  0  0  0  0  0  0
   35.2074   12.4273  -14.6901 N   0  0  0  0  0  0  0  0  0  0  0  0
   36.4512   12.6193  -14.1748 C   0  0  0  0  0  0  0  0  0  0  0  0
   37.4079   12.4951  -15.1814 C   0  0  0  0  0  0  0  0  0  0  0  0
   36.6741   12.2210  -16.3016 C   0  0  0  0  0  0  0  0  0  0  0  0
   35.3606   12.1932  -15.9444 N   0  0  0  0  0  0  0  0  0  0  0  0
   34.0068   12.4993  -13.8717 C   0  0  0  0  0  0  0  0  0  0  0  0
   32.2626   13.8673  -12.8466 C   0  0  0  0  0  0  0  0  0  0  0  0
   33.6396   13.9100  -13.5180 C   0  0  0  0  0  0  0  0  0  0  0  0
   34.6225   14.4305  -12.4909 C   0  0  0  0  0  0  0  0  0  0  0  0
   33.6462   14.7545  -14.6027 O   0  0  0  0  0  0  0  0  0  0  0  0
   32.8632   14.5436  -15.1636 H   0  0  0  0  0  0  0  0  0  0  0  0
   39.7093   11.6778  -17.3008 C   0  0  0  0  0  0  0  0  0  0  0  0
   40.3559   12.1021  -18.5035 N   0  0  0  0  0  0  0  0  0  0  0  0
   39.1276   10.5928  -17.3310 O   0  0  0  0  0  0  0  0  0  0  0  0
   39.8410   12.6880  -19.1715 H   0  0  0  0  0  0  0  0  0  0  0  0
   41.3311   11.8261  -18.7055 H   0  0  0  0  0  0  0  0  0  0  0  0
   45.4520   14.1032  -13.8672 C   0  0  0  0  0  0  0  0  0  0  0  0
   46.5550   13.7217  -14.1693 C   0  0  0  0  0  0  0  0  0  0  0  0
   47.8896   13.2488  -14.5439 C   0  0  0  0  0  0  0  0  0  0  0  0
   48.4343   12.3935  -13.4170 C   0  0  0  0  0  0  0  0  0  0  0  0
   48.7727   14.4467  -14.8180 C   0  0  0  0  0  0  0  0  0  0  0  0
   47.7717   12.5035  -15.7140 O   0  0  0  0  0  0  0  0  0  0  0  0
   47.1541   12.9980  -16.3339 H   0  0  0  0  0  0  0  0  0  0  0  0
 22 23  1  0  0  0
 23 24  1  0  0  0
 23 25  1  0  0  0
 23 21  1  0  0  0
 21 16  1  0  0  0
 16 17  1  0  0  0
 17 18  2  0  0  0
 18 19  1  0  0  0
 19 20  2  0  0  0
 18  1  1  0  0  0
  1  2  2  0  0  0
  2  3  1  0  0  0
  3  4  2  0  0  0
  4  5  1  0  0  0
  5  6  2  0  0  0
  6  7  1  0  0  0
  7 32  1  0  0  0
 32 33  3  0  0  0
 33 34  1  0  0  0
 34 35  1  0  0  0
 34 36  1  0  0  0
 34 37  1  0  0  0
  7  8  2  0  0  0
  8  9  1  0  0  0
  8 10  1  0  0  0
 10 11  2  0  0  0
 11 12  1  0  0  0
 12 13  1  0  0  0
 13 14  1  0  0  0
 14 15  1  0  0  0
  2 27  1  0  0  0
 27 28  1  0  0  0
 27 29  2  0  0  0
 20 16  1  0  0  0
 15  1  1  0  0  0
 15  4  1  0  0  0
 11  5  1  0  0  0
 25 26  1  0  0  0
 37 38  1  0  0  0
 28 30  1  0  0  0
 28 31  1  0  0  0
M  END
> <minimizedAffinity>
-7.98184

> <CNNscore>
0.3213877976

> <CNNaffinity>
6.9913358688

> <CNN_VS>
2.2469301224

> <CNNaffinity_variance>
0.2468222827

$$$$
[H]OC(C#Cc1c([H])c2c(c([H])c1F)OC([H])([H])C([H])([H])n1c-2nc(C(=O)N([H])[H])c1-c1c([H])nn(C([H])([H])C(O[H])(C([H])([H])[H])C([H])([H])[H])c1[H])(C([H])([H])[H])C([H])([H])[H]


 38 41  0  0  0  0  0  0  0  0999 V2000
   42.4744   14.4875  -13.3792 C   0  0  0  0  0  0  0  0  0  0  0  0
   41.2957   15.1233  -13.0969 C   0  0  0  0  0  0  0  0  0  0  0  0
   40.3464   14.5612  -13.9367 N   0  0  0  0  0  0  0  0  0  0  0  0
   40.9521   13.6430  -14.6592 C   0  0  0  0  0  0  0  0  0  0  0  0
   40.2811   12.8229  -15.6882 C   0  0  0  0  0  0  0  0  0  0  0  0
   38.9159   12.6902  -15.3949 C   0  0  0  0  0  0  0  0  0  0  0  0
   38.1686   11.9571  -16.2711 C   0  0  0  0  0  0  0  0  0  0  0  0
   38.7286   11.3769  -17.3876 C   0  0  0  0  0  0  0  0  0  0  0  0
   37.9125   10.6505  -18.2276 F   0  0  0  0  0  0  0  0  0  0  0  0
   40.0745   11.5131  -17.6684 C   0  0  0  0  0  0  0  0  0  0  0  0
   40.8552   12.2478  -16.8023 C   0  0  0  0  0  0  0  0  0  0  0  0
   42.2088   12.3180  -17.1916 O   0  0  0  0  0  0  0  0  0  0  0  0
   43.2457   13.0263  -16.4881 C   0  0  0  0  0  0  0  0  0  0  0  0
   43.1744   12.6461  -14.9867 C   0  0  0  0  0  0  0  0  0  0  0  0
   42.2843   13.5678  -14.3352 N   0  0  0  0  0  0  0  0  0  0  0  0
   45.6883   16.1303  -12.6263 N   0  0  0  0  0  0  0  0  0  0  0  0
   44.6129   15.9247  -13.4330 C   0  0  0  0  0  0  0  0  0  0  0  0
   43.7938   14.9351  -12.8911 C   0  0  0  0  0  0  0  0  0  0  0  0
   44.4344   14.5706  -11.7399 C   0  0  0  0  0  0  0  0  0  0  0  0
   45.5648   15.3222  -11.6348 N   0  0  0  0  0  0  0  0  0  0  0  0
   46.7176   17.1104  -12.9371 C   0  0  0  0  0  0  0  0  0  0  0  0
   47.7996   19.2134  -12.3277 C   0  0  0  0  0  0  0  0  0  0  0  0
   46.4933   18.4172  -12.2356 C   0  0  0  0  0  0  0  0  0  0  0  0
   45.4372   19.2016  -12.9847 C   0  0  0  0  0  0  0  0  0  0  0  0
   46.0867   18.2635  -10.9315 O   0  0  0  0  0  0  0  0  0  0  0  0
   46.8579   17.9521  -10.4018 H   0  0  0  0  0  0  0  0  0  0  0  0
   40.8797   16.0548  -12.0480 C   0  0  0  0  0  0  0  0  0  0  0  0
   41.0286   15.7139  -10.6673 N   0  0  0  0  0  0  0  0  0  0  0  0
   40.3911   17.1560  -12.3029 O   0  0  0  0  0  0  0  0  0  0  0  0
   40.2755   15.2028  -10.1915 H   0  0  0  0  0  0  0  0  0  0  0  0
   41.8822   15.9754  -10.1469 H   0  0  0  0  0  0  0  0  0  0  0  0
   36.7488   11.8050  -15.9882 C   0  0  0  0  0  0  0  0  0  0  0  0
   35.5689   11.6902  -15.7692 C   0  0  0  0  0  0  0  0  0  0  0  0
   34.1328   11.5537  -15.5156 C   0  0  0  0  0  0  0  0  0  0  0  0
   33.4601   11.0746  -16.7869 C   0  0  0  0  0  0  0  0  0  0  0  0
   33.5883   12.8902  -15.0606 C   0  0  0  0  0  0  0  0  0  0  0  0
   33.9609   10.6284  -14.4896 O   0  0  0  0  0  0  0  0  0  0  0  0
   34.6427   10.8263  -13.7782 H   0  0  0  0  0  0  0  0  0  0  0  0
 22 23  1  0  0  0
 23 24  1  0  0  0
 23 25  1  0  0  0
 23 21  1  0  0  0
 21 16  1  0  0  0
 16 17  1  0  0  0
 17 18  2  0  0  0
 18 19  1  0  0  0
 19 20  2  0  0  0
 18  1  1  0  0  0
  1  2  2  0  0  0
  2  3  1  0  0  0
  3  4  2  0  0  0
  4  5  1  0  0  0
  5  6  2  0  0  0
  6  7  1  0  0  0
  7 32  1  0  0  0
 32 33  3  0  0  0
 33 34  1  0  0  0
 34 35  1  0  0  0
 34 36  1  0  0  0
 34 37  1  0  0  0
  7  8  2  0  0  0
  8  9  1  0  0  0
  8 10  1  0  0  0
 10 11  2  0  0  0
 11 12  1  0  0  0
 12 13  1  0  0  0
 13 14  1  0  0  0
 14 15  1  0  0  0
  2 27  1  0  0  0
 27 28  1  0  0  0
 27 29  2  0  0  0
 20 16  1  0  0  0
 15  1  1  0  0  0
 15  4  1  0  0  0
 11  5  1  0  0  0
 25 26  1  0  0  0
 37 38  1  0  0  0
 28 30  1  0  0  0
 28 31  1  0  0  0
M  END
> <minimizedAffinity>
-8.54926

> <CNNscore>
0.2663466036

> <CNNaffinity>
6.7467870712

> <CNN_VS>
1.7969838381

> <CNNaffinity_variance>
0.1034385562

$$$$
[H]OC(C#Cc1c([H])c2c(c([H])c1F)OC([H])([H])C([H])([H])n1c-2nc(C(=O)N([H])[H])c1-c1c([H])nn(C([H])([H])C(O[H])(C([H])([H])[H])C([H])([H])[H])c1[H])(C([H])([H])[H])C([H])([H])[H]


 38 41  0  0  0  0  0  0  0  0999 V2000
   35.6896   14.2212  -12.7323 C   0  0  0  0  0  0  0  0  0  0  0  0
   36.6680   14.2724  -11.7767 C   0  0  0  0  0  0  0  0  0  0  0  0
   37.8359   13.8626  -12.4016 N   0  0  0  0  0  0  0  0  0  0  0  0
   37.5404   13.5971  -13.6563 C   0  0  0  0  0  0  0  0  0  0  0  0
   38.5182   13.1164  -14.6536 C   0  0  0  0  0  0  0  0  0  0  0  0
   39.8109   13.5449  -14.3178 C   0  0  0  0  0  0  0  0  0  0  0  0
   40.8199   13.1656  -15.1555 C   0  0  0  0  0  0  0  0  0  0  0  0
   40.5792   12.3998  -16.2746 C   0  0  0  0  0  0  0  0  0  0  0  0
   41.6472   12.0548  -17.0744 F   0  0  0  0  0  0  0  0  0  0  0  0
   39.3024   11.9822  -16.5973 C   0  0  0  0  0  0  0  0  0  0  0  0
   38.2626   12.3493  -15.7707 C   0  0  0  0  0  0  0  0  0  0  0  0
   37.0093   11.8655  -16.1994 O   0  0  0  0  0  0  0  0  0  0  0  0
   35.7551   12.0805  -15.5267 C   0  0  0  0  0  0  0  0  0  0  0  0
   35.6236   13.5892  -15.1943 C   0  0  0  0  0  0  0  0  0  0  0  0
   36.2064   13.8128  -13.8994 N   0  0  0  0  0  0  0  0  0  0  0  0
   32.2812   15.0661  -11.6079 N   0  0  0  0  0  0  0  0  0  0  0  0
   33.6330   15.1315  -11.4739 C   0  0  0  0  0  0  0  0  0  0  0  0
   34.2464   14.3431  -12.4466 C   0  0  0  0  0  0  0  0  0  0  0  0
   33.2005   13.8143  -13.1501 C   0  0  0  0  0  0  0  0  0  0  0  0
   32.0469   14.2843  -12.6006 N   0  0  0  0  0  0  0  0  0  0  0  0
   31.3766   15.7916  -10.7294 C   0  0  0  0  0  0  0  0  0  0  0  0
   30.1092   15.5346   -8.6576 C   0  0  0  0  0  0  0  0  0  0  0  0
   30.4286   14.8811  -10.0066 C   0  0  0  0  0  0  0  0  0  0  0  0
   29.1324   14.8040  -10.7848 C   0  0  0  0  0  0  0  0  0  0  0  0
   30.9235   13.6087   -9.8464 O   0  0  0  0  0  0  0  0  0  0  0  0
   31.6355   13.6372   -9.1649 H   0  0  0  0  0  0  0  0  0  0  0  0
   36.7193   14.8055  -10.4150 C   0  0  0  0  0  0  0  0  0  0  0  0
   37.2833   16.0937  -10.1559 N   0  0  0  0  0  0  0  0  0  0  0  0
   36.2860   14.1794   -9.4472 O   0  0  0  0  0  0  0  0  0  0  0  0
   38.2916   16.1747   -9.9786 H   0  0  0  0  0  0  0  0  0  0  0  0
   36.6890   16.9391  -10.1455 H   0  0  0  0  0  0  0  0  0  0  0  0
   42.1708   13.5981  -14.8281 C   0  0  0  0  0  0  0  0  0  0  0  0
   43.2899   13.9667  -14.5731 C   0  0  0  0  0  0  0  0  0  0  0  0
   44.6477   14.4251  -14.2711 C   0  0  0  0  0  0  0  0  0  0  0  0
   45.4807   13.2294  -13.8532 C   0  0  0  0  0  0  0  0  0  0  0  0
   44.5784   15.4710  -13.1798 C   0  0  0  0  0  0  0  0  0  0  0  0
   45.1716   15.0119  -15.4198 O   0  0  0  0  0  0  0  0  0  0  0  0
   44.4572   15.5925  -15.8231 H   0  0  0  0  0  0  0  0  0  0  0  0
 22 23  1  0  0  0
 23 24  1  0  0  0
 23 25  1  0  0  0
 23 21  1  0  0  0
 21 16  1  0  0  0
 16 17  1  0  0  0
 17 18  2  0  0  0
 18 19  1  0  0  0
 19 20  2  0  0  0
 18  1  1  0  0  0
  1  2  2  0  0  0
  2  3  1  0  0  0
  3  4  2  0  0  0
  4  5  1  0  0  0
  5  6  2  0  0  0
  6  7  1  0  0  0
  7 32  1  0  0  0
 32 33  3  0  0  0
 33 34  1  0  0  0
 34 35  1  0  0  0
 34 36  1  0  0  0
 34 37  1  0  0  0
  7  8  2  0  0  0
  8  9  1  0  0  0
  8 10  1  0  0  0
 10 11  2  0  0  0
 11 12  1  0  0  0
 12 13  1  0  0  0
 13 14  1  0  0  0
 14 15  1  0  0  0
  2 27  1  0  0  0
 27 28  1  0  0  0
 27 29  2  0  0  0
 20 16  1  0  0  0
 15  1  1  0  0  0
 15  4  1  0  0  0
 11  5  1  0  0  0
 25 26  1  0  0  0
 37 38  1  0  0  0
 28 30  1  0  0  0
 28 31  1  0  0  0
M  END
> <minimizedAffinity>
-9.20729

> <CNNscore>
0.1900908798

> <CNNaffinity>
6.5695800781

> <CNN_VS>
1.2488172054

> <CNNaffinity_variance>
0.1499411017

$$$$
[H]OC(C#Cc1c([H])c2c(c([H])c1F)OC([H])([H])C([H])([H])n1c-2nc(C(=O)N([H])[H])c1-c1c([H])nn(C([H])([H])C(O[H])(C([H])([H])[H])C([H])([H])[H])c1[H])(C([H])([H])[H])C([H])([H])[H]


 38 41  0  0  0  0  0  0  0  0999 V2000
   39.8329   15.2431   -8.8397 C   0  0  0  0  0  0  0  0  0  0  0  0
   38.9727   15.2393   -9.9042 C   0  0  0  0  0  0  0  0  0  0  0  0
   37.7195   14.9553   -9.3833 N   0  0  0  0  0  0  0  0  0  0  0  0
   37.8558   14.8110   -8.0823 C   0  0  0  0  0  0  0  0  0  0  0  0
   36.7451   14.4869   -7.1641 C   0  0  0  0  0  0  0  0  0  0  0  0
   35.5264   14.9392   -7.6911 C   0  0  0  0  0  0  0  0  0  0  0  0
   34.4088   14.7005   -6.9445 C   0  0  0  0  0  0  0  0  0  0  0  0
   34.4758   14.0474   -5.7338 C   0  0  0  0  0  0  0  0  0  0  0  0
   33.3060   13.8415   -5.0349 F   0  0  0  0  0  0  0  0  0  0  0  0
   35.6808   13.6054   -5.2226 C   0  0  0  0  0  0  0  0  0  0  0  0
   36.8270   13.8317   -5.9536 C   0  0  0  0  0  0  0  0  0  0  0  0
   37.9929   13.3364   -5.3338 O   0  0  0  0  0  0  0  0  0  0  0  0
   39.3253   13.4177   -5.8721 C   0  0  0  0  0  0  0  0  0  0  0  0
   39.5840   14.8743   -6.3362 C   0  0  0  0  0  0  0  0  0  0  0  0
   39.1647   14.9867   -7.7066 N   0  0  0  0  0  0  0  0  0  0  0  0
   43.4208   15.9906   -9.2428 N   0  0  0  0  0  0  0  0  0  0  0  0
   42.1093   16.3218   -9.3835 C   0  0  0  0  0  0  0  0  0  0  0  0
   41.3037   15.2639   -8.9640 C   0  0  0  0  0  0  0  0  0  0  0  0
   42.1958   14.3036   -8.5764 C   0  0  0  0  0  0  0  0  0  0  0  0
   43.4503   14.7973   -8.7666 N   0  0  0  0  0  0  0  0  0  0  0  0
   44.4960   16.9032   -9.5999 C   0  0  0  0  0  0  0  0  0  0  0  0
   44.5813   17.1280  -12.0303 C   0  0  0  0  0  0  0  0  0  0  0  0
   45.2429   16.4568  -10.8218 C   0  0  0  0  0  0  0  0  0  0  0  0
   46.6637   16.9736  -10.7449 C   0  0  0  0  0  0  0  0  0  0  0  0
   45.2775   15.0895  -10.9601 O   0  0  0  0  0  0  0  0  0  0  0  0
   44.3791   14.7828  -11.2267 H   0  0  0  0  0  0  0  0  0  0  0  0
   39.1068   15.6264  -11.3089 C   0  0  0  0  0  0  0  0  0  0  0  0
   38.7573   14.7152  -12.3540 N   0  0  0  0  0  0  0  0  0  0  0  0
   39.5195   16.7358  -11.6485 O   0  0  0  0  0  0  0  0  0  0  0  0
   39.4645   14.0593  -12.7067 H   0  0  0  0  0  0  0  0  0  0  0  0
   37.8050   14.7106  -12.7555 H   0  0  0  0  0  0  0  0  0  0  0  0
   33.1317   15.1604   -7.4705 C   0  0  0  0  0  0  0  0  0  0  0  0
   32.0745   15.5270   -7.9191 C   0  0  0  0  0  0  0  0  0  0  0  0
   30.7880   15.9603   -8.4688 C   0  0  0  0  0  0  0  0  0  0  0  0
   29.7755   16.0204   -7.3421 C   0  0  0  0  0  0  0  0  0  0  0  0
   30.3680   14.9898   -9.5512 C   0  0  0  0  0  0  0  0  0  0  0  0
   30.9634   17.2180   -9.0398 O   0  0  0  0  0  0  0  0  0  0  0  0
   31.8229   17.2034   -9.5606 H   0  0  0  0  0  0  0  0  0  0  0  0
 22 23  1  0  0  0
 23 24  1  0  0  0
 23 25  1  0  0  0
 23 21  1  0  0  0
 21 16  1  0  0  0
 16 17  1  0  0  0
 17 18  2  0  0  0
 18 19  1  0  0  0
 19 20  2  0  0  0
 18  1  1  0  0  0
  1  2  2  0  0  0
  2  3  1  0  0  0
  3  4  2  0  0  0
  4  5  1  0  0  0
  5  6  2  0  0  0
  6  7  1  0  0  0
  7 32  1  0  0  0
 32 33  3  0  0  0
 33 34  1  0  0  0
 34 35  1  0  0  0
 34 36  1  0  0  0
 34 37  1  0  0  0
  7  8  2  0  0  0
  8  9  1  0  0  0
  8 10  1  0  0  0
 10 11  2  0  0  0
 11 12  1  0  0  0
 12 13  1  0  0  0
 13 14  1  0  0  0
 14 15  1  0  0  0
  2 27  1  0  0  0
 27 28  1  0  0  0
 27 29  2  0  0  0
 20 16  1  0  0  0
 15  1  1  0  0  0
 15  4  1  0  0  0
 11  5  1  0  0  0
 25 26  1  0  0  0
 37 38  1  0  0  0
 28 30  1  0  0  0
 28 31  1  0  0  0
M  END
> <minimizedAffinity>
-6.74093

> <CNNscore>
0.1770512760

> <CNNaffinity>
5.6331110001

> <CNN_VS>
0.9973495007

> <CNNaffinity_variance>
0.3551531732

$$$$
[H]OC(C#Cc1c([H])c2c(c([H])c1F)OC([H])([H])C([H])([H])n1c-2nc(C(=O)N([H])[H])c1-c1c([H])nn(C([H])([H])C(O[H])(C([H])([H])[H])C([H])([H])[H])c1[H])(C([H])([H])[H])C([H])([H])[H]


 38 41  0  0  0  0  0  0  0  0999 V2000
   38.5957   14.9703   -8.3327 C   0  0  0  0  0  0  0  0  0  0  0  0
   39.2780   15.7813   -9.1987 C   0  0  0  0  0  0  0  0  0  0  0  0
   40.6152   15.4370   -9.0732 N   0  0  0  0  0  0  0  0  0  0  0  0
   40.6926   14.4704   -8.1834 C   0  0  0  0  0  0  0  0  0  0  0  0
   41.9566   13.8354   -7.7581 C   0  0  0  0  0  0  0  0  0  0  0  0
   42.9153   13.9216   -8.7784 C   0  0  0  0  0  0  0  0  0  0  0  0
   44.1394   13.3766   -8.5176 C   0  0  0  0  0  0  0  0  0  0  0  0
   44.4182   12.7723   -7.3118 C   0  0  0  0  0  0  0  0  0  0  0  0
   45.6763   12.2436   -7.1193 F   0  0  0  0  0  0  0  0  0  0  0  0
   43.4674   12.6921   -6.3126 C   0  0  0  0  0  0  0  0  0  0  0  0
   42.2218   13.2335   -6.5461 C   0  0  0  0  0  0  0  0  0  0  0  0
   41.3374   13.0931   -5.4567 O   0  0  0  0  0  0  0  0  0  0  0  0
   39.9814   13.5738   -5.4129 C   0  0  0  0  0  0  0  0  0  0  0  0
   39.2558   13.1286   -6.7087 C   0  0  0  0  0  0  0  0  0  0  0  0
   39.4475   14.1510   -7.7007 N   0  0  0  0  0  0  0  0  0  0  0  0
   35.3113   15.8832   -6.9278 N   0  0  0  0  0  0  0  0  0  0  0  0
   36.6671   15.8139   -6.8461 C   0  0  0  0  0  0  0  0  0  0  0  0
   37.1784   15.1583   -7.9653 C   0  0  0  0  0  0  0  0  0  0  0  0
   36.0688   14.8463   -8.7002 C   0  0  0  0  0  0  0  0  0  0  0  0
   34.9786   15.3068   -8.0271 N   0  0  0  0  0  0  0  0  0  0  0  0
   34.5016   16.5172   -5.8988 C   0  0  0  0  0  0  0  0  0  0  0  0
   33.1226   16.2468   -3.9013 C   0  0  0  0  0  0  0  0  0  0  0  0
   34.2342   15.6049   -4.7385 C   0  0  0  0  0  0  0  0  0  0  0  0
   33.6977   14.2895   -5.2617 C   0  0  0  0  0  0  0  0  0  0  0  0
   35.3550   15.3550   -3.9828 O   0  0  0  0  0  0  0  0  0  0  0  0
   35.5714   16.1699   -3.4716 H   0  0  0  0  0  0  0  0  0  0  0  0
   38.8608   16.7104  -10.2493 C   0  0  0  0  0  0  0  0  0  0  0  0
   38.5561   18.0729   -9.9404 N   0  0  0  0  0  0  0  0  0  0  0  0
   38.7554   16.3665  -11.4270 O   0  0  0  0  0  0  0  0  0  0  0  0
   37.6005   18.3233   -9.6597 H   0  0  0  0  0  0  0  0  0  0  0  0
   39.2845   18.8038   -9.9968 H   0  0  0  0  0  0  0  0  0  0  0  0
   45.1514   13.4536   -9.5611 C   0  0  0  0  0  0  0  0  0  0  0  0
   45.9800   13.5322  -10.4332 C   0  0  0  0  0  0  0  0  0  0  0  0
   46.9832   13.6401  -11.4949 C   0  0  0  0  0  0  0  0  0  0  0  0
   46.4272   13.0027  -12.7530 C   0  0  0  0  0  0  0  0  0  0  0  0
   48.2551   12.9612  -11.0355 C   0  0  0  0  0  0  0  0  0  0  0  0
   47.2480   14.9909  -11.7038 O   0  0  0  0  0  0  0  0  0  0  0  0
   47.3291   15.4322  -10.8045 H   0  0  0  0  0  0  0  0  0  0  0  0
 22 23  1  0  0  0
 23 24  1  0  0  0
 23 25  1  0  0  0
 23 21  1  0  0  0
 21 16  1  0  0  0
 16 17  1  0  0  0
 17 18  2  0  0  0
 18 19  1  0  0  0
 19 20  2  0  0  0
 18  1  1  0  0  0
  1  2  2  0  0  0
  2  3  1  0  0  0
  3  4  2  0  0  0
  4  5  1  0  0  0
  5  6  2  0  0  0
  6  7  1  0  0  0
  7 32  1  0  0  0
 32 33  3  0  0  0
 33 34  1  0  0  0
 34 35  1  0  0  0
 34 36  1  0  0  0
 34 37  1  0  0  0
  7  8  2  0  0  0
  8  9  1  0  0  0
  8 10  1  0  0  0
 10 11  2  0  0  0
 11 12  1  0  0  0
 12 13  1  0  0  0
 13 14  1  0  0  0
 14 15  1  0  0  0
  2 27  1  0  0  0
 27 28  1  0  0  0
 27 29  2  0  0  0
 20 16  1  0  0  0
 15  1  1  0  0  0
 15  4  1  0  0  0
 11  5  1  0  0  0
 25 26  1  0  0  0
 37 38  1  0  0  0
 28 30  1  0  0  0
 28 31  1  0  0  0
M  END
> <minimizedAffinity>
-5.63109

> <CNNscore>
0.1720847338

> <CNNaffinity>
5.3808159828

> <CNN_VS>
0.9259563088

> <CNNaffinity_variance>
0.1389252096

$$$$
[H]OC(C#Cc1c([H])c2c(c([H])c1F)OC([H])([H])C([H])([H])n1c-2nc(C(=O)N([H])[H])c1-c1c([H])nn(C([H])([H])C(O[H])(C([H])([H])[H])C([H])([H])[H])c1[H])(C([H])([H])[H])C([H])([H])[H]


 38 41  0  0  0  0  0  0  0  0999 V2000
   40.1653   13.8350  -14.0235 C   0  0  0  0  0  0  0  0  0  0  0  0
   39.6142   14.9501  -13.4527 C   0  0  0  0  0  0  0  0  0  0  0  0
   38.2433   14.8292  -13.6212 N   0  0  0  0  0  0  0  0  0  0  0  0
   38.0211   13.6954  -14.2515 C   0  0  0  0  0  0  0  0  0  0  0  0
   36.6795   13.2079  -14.6311 C   0  0  0  0  0  0  0  0  0  0  0  0
   35.7071   13.7240  -13.7619 C   0  0  0  0  0  0  0  0  0  0  0  0
   34.4140   13.3573  -14.0008 C   0  0  0  0  0  0  0  0  0  0  0  0
   34.0819   12.5219  -15.0442 C   0  0  0  0  0  0  0  0  0  0  0  0
   32.7554   12.1945  -15.2246 F   0  0  0  0  0  0  0  0  0  0  0  0
   35.0466   12.0185  -15.8954 C   0  0  0  0  0  0  0  0  0  0  0  0
   36.3614   12.3708  -15.6798 C   0  0  0  0  0  0  0  0  0  0  0  0
   37.2539   11.7987  -16.6098 O   0  0  0  0  0  0  0  0  0  0  0  0
   38.6785   12.0022  -16.6361 C   0  0  0  0  0  0  0  0  0  0  0  0
   39.2365   11.7846  -15.2061 C   0  0  0  0  0  0  0  0  0  0  0  0
   39.2012   13.0457  -14.5171 N   0  0  0  0  0  0  0  0  0  0  0  0
   43.8233   13.3752  -13.9720 N   0  0  0  0  0  0  0  0  0  0  0  0
   42.6517   13.6952  -13.3601 C   0  0  0  0  0  0  0  0  0  0  0  0
   41.6084   13.6660  -14.2846 C   0  0  0  0  0  0  0  0  0  0  0  0
   42.2175   13.3195  -15.4582 C   0  0  0  0  0  0  0  0  0  0  0  0
   43.5460   13.1582  -15.2079 N   0  0  0  0  0  0  0  0  0  0  0  0
   45.0870   13.3224  -13.2532 C   0  0  0  0  0  0  0  0  0  0  0  0
   46.8249   14.9707  -12.7764 C   0  0  0  0  0  0  0  0  0  0  0  0
   46.1450   14.1714  -13.8934 C   0  0  0  0  0  0  0  0  0  0  0  0
   47.1970   13.2690  -14.5022 C   0  0  0  0  0  0  0  0  0  0  0  0
   45.6498   14.9967  -14.8750 O   0  0  0  0  0  0  0  0  0  0  0  0
   45.1357   15.7182  -14.4422 H   0  0  0  0  0  0  0  0  0  0  0  0
   40.1537   16.0292  -12.6247 C   0  0  0  0  0  0  0  0  0  0  0  0
   39.5275   16.3846  -11.3893 N   0  0  0  0  0  0  0  0  0  0  0  0
   41.1546   16.6690  -12.9491 O   0  0  0  0  0  0  0  0  0  0  0  0
   38.7689   17.0767  -11.3909 H   0  0  0  0  0  0  0  0  0  0  0  0
   39.8297   15.9537  -10.4999 H   0  0  0  0  0  0  0  0  0  0  0  0
   33.3864   13.8802  -13.1122 C   0  0  0  0  0  0  0  0  0  0  0  0
   32.5294   14.2953  -12.3728 C   0  0  0  0  0  0  0  0  0  0  0  0
   31.4878   14.7878  -11.4686 C   0  0  0  0  0  0  0  0  0  0  0  0
   30.1538   14.7234  -12.1860 C   0  0  0  0  0  0  0  0  0  0  0  0
   31.8332   16.2001  -11.0494 C   0  0  0  0  0  0  0  0  0  0  0  0
   31.4775   13.9757  -10.3377 O   0  0  0  0  0  0  0  0  0  0  0  0
   32.4313   13.8149  -10.0646 H   0  0  0  0  0  0  0  0  0  0  0  0
 22 23  1  0  0  0
 23 24  1  0  0  0
 23 25  1  0  0  0
 23 21  1  0  0  0
 21 16  1  0  0  0
 16 17  1  0  0  0
 17 18  2  0  0  0
 18 19  1  0  0  0
 19 20  2  0  0  0
 18  1  1  0  0  0
  1  2  2  0  0  0
  2  3  1  0  0  0
  3  4  2  0  0  0
  4  5  1  0  0  0
  5  6  2  0  0  0
  6  7  1  0  0  0
  7 32  1  0  0  0
 32 33  3  0  0  0
 33 34  1  0  0  0
 34 35  1  0  0  0
 34 36  1  0  0  0
 34 37  1  0  0  0
  7  8  2  0  0  0
  8  9  1  0  0  0
  8 10  1  0  0  0
 10 11  2  0  0  0
 11 12  1  0  0  0
 12 13  1  0  0  0
 13 14  1  0  0  0
 14 15  1  0  0  0
  2 27  1  0  0  0
 27 28  1  0  0  0
 27 29  2  0  0  0
 20 16  1  0  0  0
 15  1  1  0  0  0
 15  4  1  0  0  0
 11  5  1  0  0  0
 25 26  1  0  0  0
 37 38  1  0  0  0
 28 30  1  0  0  0
 28 31  1  0  0  0
M  END
> <minimizedAffinity>
-7.90695

> <CNNscore>
0.1408230811

> <CNNaffinity>
6.5468778610

> <CNN_VS>
0.9219515324

> <CNNaffinity_variance>
0.1683372557

$$$$
[H]OC(C#Cc1c([H])c2c(c([H])c1F)OC([H])([H])C([H])([H])n1c-2nc(C(=O)N([H])[H])c1-c1c([H])nn(C([H])([H])C(O[H])(C([H])([H])[H])C([H])([H])[H])c1[H])(C([H])([H])[H])C([H])([H])[H]


 38 41  0  0  0  0  0  0  0  0999 V2000
   42.6769   14.6605  -12.9795 C   0  0  0  0  0  0  0  0  0  0  0  0
   41.5244   15.3195  -12.6469 C   0  0  0  0  0  0  0  0  0  0  0  0
   40.5386   14.8113  -13.4790 N   0  0  0  0  0  0  0  0  0  0  0  0
   41.0993   13.9002  -14.2454 C   0  0  0  0  0  0  0  0  0  0  0  0
   40.3794   13.1326  -15.2818 C   0  0  0  0  0  0  0  0  0  0  0  0
   39.0188   13.0286  -14.9575 C   0  0  0  0  0  0  0  0  0  0  0  0
   38.2290   12.3451  -15.8364 C   0  0  0  0  0  0  0  0  0  0  0  0
   38.7440   11.7857  -16.9848 C   0  0  0  0  0  0  0  0  0  0  0  0
   37.8865   11.1096  -17.8257 F   0  0  0  0  0  0  0  0  0  0  0  0
   40.0857   11.8933  -17.2961 C   0  0  0  0  0  0  0  0  0  0  0  0
   40.9086   12.5777  -16.4280 C   0  0  0  0  0  0  0  0  0  0  0  0
   42.2535   12.6226  -16.8499 O   0  0  0  0  0  0  0  0  0  0  0  0
   43.3276   13.2788  -16.1517 C   0  0  0  0  0  0  0  0  0  0  0  0
   43.2832   12.8528  -14.6617 C   0  0  0  0  0  0  0  0  0  0  0  0
   42.4365   13.7775  -13.9586 N   0  0  0  0  0  0  0  0  0  0  0  0
   46.0380   15.0101  -11.5046 N   0  0  0  0  0  0  0  0  0  0  0  0
   44.8200   14.4086  -11.5707 C   0  0  0  0  0  0  0  0  0  0  0  0
   44.0204   15.0552  -12.5121 C   0  0  0  0  0  0  0  0  0  0  0  0
   44.8179   16.0574  -12.9896 C   0  0  0  0  0  0  0  0  0  0  0  0
   46.0161   15.9797  -12.3477 N   0  0  0  0  0  0  0  0  0  0  0  0
   47.0856   14.5485  -10.6069 C   0  0  0  0  0  0  0  0  0  0  0  0
   49.3618   15.2941  -11.0839 C   0  0  0  0  0  0  0  0  0  0  0  0
   48.3424   14.1782  -11.3372 C   0  0  0  0  0  0  0  0  0  0  0  0
   48.9067   12.9105  -10.7319 C   0  0  0  0  0  0  0  0  0  0  0  0
   48.1415   13.9736  -12.6817 O   0  0  0  0  0  0  0  0  0  0  0  0
   47.9861   14.8491  -13.1079 H   0  0  0  0  0  0  0  0  0  0  0  0
   41.1617   16.2281  -11.5588 C   0  0  0  0  0  0  0  0  0  0  0  0
   39.8411   16.7689  -11.4685 N   0  0  0  0  0  0  0  0  0  0  0  0
   41.9641   16.5621  -10.6864 O   0  0  0  0  0  0  0  0  0  0  0  0
   39.6205   17.6421  -11.9621 H   0  0  0  0  0  0  0  0  0  0  0  0
   39.1108   16.2919  -10.9143 H   0  0  0  0  0  0  0  0  0  0  0  0
   36.8129   12.2236  -15.5217 C   0  0  0  0  0  0  0  0  0  0  0  0
   35.6413   12.1041  -15.2644 C   0  0  0  0  0  0  0  0  0  0  0  0
   34.2197   11.9462  -14.9491 C   0  0  0  0  0  0  0  0  0  0  0  0
   33.5579   11.1716  -16.0717 C   0  0  0  0  0  0  0  0  0  0  0  0
   33.6037   13.3170  -14.7725 C   0  0  0  0  0  0  0  0  0  0  0  0
   34.1181   11.2522  -13.7464 O   0  0  0  0  0  0  0  0  0  0  0  0
   34.7974   11.6339  -13.1115 H   0  0  0  0  0  0  0  0  0  0  0  0
 22 23  1  0  0  0
 23 24  1  0  0  0
 23 25  1  0  0  0
 23 21  1  0  0  0
 21 16  1  0  0  0
 16 17  1  0  0  0
 17 18  2  0  0  0
 18 19  1  0  0  0
 19 20  2  0  0  0
 18  1  1  0  0  0
  1  2  2  0  0  0
  2  3  1  0  0  0
  3  4  2  0  0  0
  4  5  1  0  0  0
  5  6  2  0  0  0
  6  7  1  0  0  0
  7 32  1  0  0  0
 32 33  3  0  0  0
 33 34  1  0  0  0
 34 35  1  0  0  0
 34 36  1  0  0  0
 34 37  1  0  0  0
  7  8  2  0  0  0
  8  9  1  0  0  0
  8 10  1  0  0  0
 10 11  2  0  0  0
 11 12  1  0  0  0
 12 13  1  0  0  0
 13 14  1  0  0  0
 14 15  1  0  0  0
  2 27  1  0  0  0
 27 28  1  0  0  0
 27 29  2  0  0  0
 20 16  1  0  0  0
 15  1  1  0  0  0
 15  4  1  0  0  0
 11  5  1  0  0  0
 25 26  1  0  0  0
 37 38  1  0  0  0
 28 30  1  0  0  0
 28 31  1  0  0  0
M  END
> <minimizedAffinity>
-7.87129

> <CNNscore>
0.1373337656

> <CNNaffinity>
6.4012069702

> <CNN_VS>
0.8791018724

> <CNNaffinity_variance>
0.0606359243

$$$$
[H]c1nc(N([H])[H])nc(-n2c([H])c([H])c3c([H])c([H])c(Br)c([H])c32)c1[H]


 19 21  0  0  0  0  0  0  0  0999 V2000
   38.2211   12.3189  -15.3043 N   0  0  0  0  0  0  0  0  0  0  0  0
   38.5645   12.8296  -14.1062 C   0  0  0  0  0  0  0  0  0  0  0  0
   37.4621   12.9318  -13.2844 C   0  0  0  0  0  0  0  0  0  0  0  0
   36.3987   12.4608  -14.0185 C   0  0  0  0  0  0  0  0  0  0  0  0
   35.0661   12.3388  -13.6831 C   0  0  0  0  0  0  0  0  0  0  0  0
   34.1987   11.8298  -14.6166 C   0  0  0  0  0  0  0  0  0  0  0  0
   34.6585   11.4528  -15.8554 C   0  0  0  0  0  0  0  0  0  0  0  0
   33.3901   10.7547  -17.0963 Br  0  0  0  0  0  0  0  0  0  0  0  0
   35.9914   11.5850  -16.1634 C   0  0  0  0  0  0  0  0  0  0  0  0
   36.9056   12.0970  -15.2452 C   0  0  0  0  0  0  0  0  0  0  0  0
   38.9601   10.6635  -19.7601 N   0  0  0  0  0  0  0  0  0  0  0  0
   39.5220   11.2682  -18.6026 C   0  0  0  0  0  0  0  0  0  0  0  0
   40.8268   11.5954  -18.5414 N   0  0  0  0  0  0  0  0  0  0  0  0
   41.2851   12.1626  -17.4165 C   0  0  0  0  0  0  0  0  0  0  0  0
   40.4455   12.4071  -16.3455 C   0  0  0  0  0  0  0  0  0  0  0  0
   39.0939   12.0712  -16.4017 C   0  0  0  0  0  0  0  0  0  0  0  0
   38.6865   11.5065  -17.5493 N   0  0  0  0  0  0  0  0  0  0  0  0
   39.1547    9.6677  -19.9626 H   0  0  0  0  0  0  0  0  0  0  0  0
   38.3705   11.2135  -20.3818 H   0  0  0  0  0  0  0  0  0  0  0  0
 11 12  1  0  0  0
 12 13  2  0  0  0
 13 14  1  0  0  0
 14 15  2  0  0  0
 15 16  1  0  0  0
 16 17  2  0  0  0
 16  1  1  0  0  0
  1  2  1  0  0  0
  2  3  2  0  0  0
  3  4  1  0  0  0
  4  5  2  0  0  0
  5  6  1  0  0  0
  6  7  2  0  0  0
  7  8  1  0  0  0
  7  9  1  0  0  0
  9 10  2  0  0  0
 17 12  1  0  0  0
 10  1  1  0  0  0
 10  4  1  0  0  0
 11 18  1  0  0  0
 11 19  1  0  0  0
M  END
> <minimizedAffinity>
-7.71275

> <CNNscore>
0.9896755815

> <CNNaffinity>
6.7454109192

> <CNN_VS>
6.6757683754

> <CNNaffinity_variance>
0.0733229220

$$$$
[H]c1nc(N([H])[H])nc(-n2c([H])c([H])c3c([H])c([H])c(Br)c([H])c32)c1[H]


 19 21  0  0  0  0  0  0  0  0999 V2000
   38.0785   12.5761  -14.8429 N   0  0  0  0  0  0  0  0  0  0  0  0
   38.2759   13.1446  -13.6379 C   0  0  0  0  0  0  0  0  0  0  0  0
   37.0902   13.2352  -12.9401 C   0  0  0  0  0  0  0  0  0  0  0  0
   36.1270   12.6960  -13.7605 C   0  0  0  0  0  0  0  0  0  0  0  0
   34.7714   12.5355  -13.5605 C   0  0  0  0  0  0  0  0  0  0  0  0
   34.0253   11.9584  -14.5571 C   0  0  0  0  0  0  0  0  0  0  0  0
   34.6257   11.5528  -15.7246 C   0  0  0  0  0  0  0  0  0  0  0  0
   33.5200   10.7598  -17.0604 Br  0  0  0  0  0  0  0  0  0  0  0  0
   35.9783   11.7246  -15.8976 C   0  0  0  0  0  0  0  0  0  0  0  0
   36.7725   12.3060  -14.9116 C   0  0  0  0  0  0  0  0  0  0  0  0
   42.5535   13.1458  -16.5133 N   0  0  0  0  0  0  0  0  0  0  0  0
   41.2703   12.5662  -16.7103 C   0  0  0  0  0  0  0  0  0  0  0  0
   40.9985   11.8058  -17.7878 N   0  0  0  0  0  0  0  0  0  0  0  0
   39.7655   11.2929  -17.9057 C   0  0  0  0  0  0  0  0  0  0  0  0
   38.7958   11.5349  -16.9503 C   0  0  0  0  0  0  0  0  0  0  0  0
   39.0700   12.3210  -15.8323 C   0  0  0  0  0  0  0  0  0  0  0  0
   40.3183   12.8098  -15.7624 N   0  0  0  0  0  0  0  0  0  0  0  0
   42.8393   13.9611  -17.0825 H   0  0  0  0  0  0  0  0  0  0  0  0
   43.1824   12.7554  -15.8142 H   0  0  0  0  0  0  0  0  0  0  0  0
 11 12  1  0  0  0
 12 13  2  0  0  0
 13 14  1  0  0  0
 14 15  2  0  0  0
 15 16  1  0  0  0
 16 17  2  0  0  0
 16  1  1  0  0  0
  1  2  1  0  0  0
  2  3  2  0  0  0
  3  4  1  0  0  0
  4  5  2  0  0  0
  5  6  1  0  0  0
  6  7  2  0  0  0
  7  8  1  0  0  0
  7  9  1  0  0  0
  9 10  2  0  0  0
 17 12  1  0  0  0
 10  1  1  0  0  0
 10  4  1  0  0  0
 11 18  1  0  0  0
 11 19  1  0  0  0
M  END
> <minimizedAffinity>
-7.68764

> <CNNscore>
0.9381409287

> <CNNaffinity>
6.3317613602

> <CNN_VS>
5.9400844574

> <CNNaffinity_variance>
0.0769309178

$$$$
[H]c1nc(N([H])[H])nc(-n2c([H])c([H])c3c([H])c([H])c(Br)c([H])c32)c1[H]


 19 21  0  0  0  0  0  0  0  0999 V2000
   36.4598   11.7152  -16.2322 N   0  0  0  0  0  0  0  0  0  0  0  0
   35.4689   10.9375  -16.7089 C   0  0  0  0  0  0  0  0  0  0  0  0
   34.2886   11.1855  -16.0405 C   0  0  0  0  0  0  0  0  0  0  0  0
   34.5768   12.1601  -15.1139 C   0  0  0  0  0  0  0  0  0  0  0  0
   33.7649   12.7768  -14.1846 C   0  0  0  0  0  0  0  0  0  0  0  0
   34.3127   13.7330  -13.3669 C   0  0  0  0  0  0  0  0  0  0  0  0
   35.6422   14.0613  -13.4802 C   0  0  0  0  0  0  0  0  0  0  0  0
   36.3272   15.3998  -12.3075 Br  0  0  0  0  0  0  0  0  0  0  0  0
   36.4285   13.4313  -14.4149 C   0  0  0  0  0  0  0  0  0  0  0  0
   35.9126   12.4551  -15.2645 C   0  0  0  0  0  0  0  0  0  0  0  0
   39.7632   10.7246  -19.5859 N   0  0  0  0  0  0  0  0  0  0  0  0
   39.4925   11.2689  -18.3007 C   0  0  0  0  0  0  0  0  0  0  0  0
   40.4719   11.7830  -17.5327 N   0  0  0  0  0  0  0  0  0  0  0  0
   40.1404   12.2785  -16.3320 C   0  0  0  0  0  0  0  0  0  0  0  0
   38.8306   12.2646  -15.8893 C   0  0  0  0  0  0  0  0  0  0  0  0
   37.8117   11.7342  -16.6789 C   0  0  0  0  0  0  0  0  0  0  0  0
   38.1967   11.2516  -17.8708 N   0  0  0  0  0  0  0  0  0  0  0  0
   40.2229    9.8009  -19.6637 H   0  0  0  0  0  0  0  0  0  0  0  0
   39.5033   11.2464  -20.4206 H   0  0  0  0  0  0  0  0  0  0  0  0
 11 12  1  0  0  0
 12 13  2  0  0  0
 13 14  1  0  0  0
 14 15  2  0  0  0
 15 16  1  0  0  0
 16 17  2  0  0  0
 16  1  1  0  0  0
  1  2  1  0  0  0
  2  3  2  0  0  0
  3  4  1  0  0  0
  4  5  2  0  0  0
  5  6  1  0  0  0
  6  7  2  0  0  0
  7  8  1  0  0  0
  7  9  1  0  0  0
  9 10  2  0  0  0
 17 12  1  0  0  0
 10  1  1  0  0  0
 10  4  1  0  0  0
 11 18  1  0  0  0
 11 19  1  0  0  0
M  END
> <minimizedAffinity>
-7.32248

> <CNNscore>
0.6078670025

> <CNNaffinity>
6.1259469986

> <CNN_VS>
3.7237610817

> <CNNaffinity_variance>
0.3564333618

$$$$
[H]c1nc(N([H])[H])nc(-n2c([H])c([H])c3c([H])c([H])c(Br)c([H])c32)c1[H]


 19 21  0  0  0  0  0  0  0  0999 V2000
   37.5057   13.4504  -14.3972 N   0  0  0  0  0  0  0  0  0  0  0  0
   37.9092   14.2312  -13.3766 C   0  0  0  0  0  0  0  0  0  0  0  0
   39.2696   14.4484  -13.4356 C   0  0  0  0  0  0  0  0  0  0  0  0
   39.7131   13.7669  -14.5449 C   0  0  0  0  0  0  0  0  0  0  0  0
   40.9831   13.6455  -15.0697 C   0  0  0  0  0  0  0  0  0  0  0  0
   41.1545   12.8943  -16.2051 C   0  0  0  0  0  0  0  0  0  0  0  0
   40.0774   12.2809  -16.7982 C   0  0  0  0  0  0  0  0  0  0  0  0
   40.3986   11.2549  -18.3731 Br  0  0  0  0  0  0  0  0  0  0  0  0
   38.8227   12.4185  -16.2543 C   0  0  0  0  0  0  0  0  0  0  0  0
   38.6047   13.1718  -15.1028 C   0  0  0  0  0  0  0  0  0  0  0  0
   32.7688   13.8348  -13.6526 N   0  0  0  0  0  0  0  0  0  0  0  0
   33.8198   13.1595  -14.3313 C   0  0  0  0  0  0  0  0  0  0  0  0
   33.5716   12.1506  -15.1879 N   0  0  0  0  0  0  0  0  0  0  0  0
   34.6139   11.5614  -15.7909 C   0  0  0  0  0  0  0  0  0  0  0  0
   35.9101   11.9742  -15.5438 C   0  0  0  0  0  0  0  0  0  0  0  0
   36.1746   13.0179  -14.6585 C   0  0  0  0  0  0  0  0  0  0  0  0
   35.0969   13.5731  -14.0820 N   0  0  0  0  0  0  0  0  0  0  0  0
   32.2859   13.3687  -12.8652 H   0  0  0  0  0  0  0  0  0  0  0  0
   32.4982   14.7717  -13.9453 H   0  0  0  0  0  0  0  0  0  0  0  0
 11 12  1  0  0  0
 12 13  2  0  0  0
 13 14  1  0  0  0
 14 15  2  0  0  0
 15 16  1  0  0  0
 16 17  2  0  0  0
 16  1  1  0  0  0
  1  2  1  0  0  0
  2  3  2  0  0  0
  3  4  1  0  0  0
  4  5  2  0  0  0
  5  6  1  0  0  0
  6  7  2  0  0  0
  7  8  1  0  0  0
  7  9  1  0  0  0
  9 10  2  0  0  0
 17 12  1  0  0  0
 10  1  1  0  0  0
 10  4  1  0  0  0
 11 18  1  0  0  0
 11 19  1  0  0  0
M  END
> <minimizedAffinity>
-7.71754

> <CNNscore>
0.4696222246

> <CNNaffinity>
5.8410744667

> <CNN_VS>
2.7430984974

> <CNNaffinity_variance>
0.1287424713

$$$$
[H]c1nc(N([H])[H])nc(-n2c([H])c([H])c3c([H])c([H])c(Br)c([H])c32)c1[H]


 19 21  0  0  0  0  0  0  0  0999 V2000
   39.2492   13.5369  -15.0142 N   0  0  0  0  0  0  0  0  0  0  0  0
   40.2258   14.2141  -14.3803 C   0  0  0  0  0  0  0  0  0  0  0  0
   39.7111   14.9468  -13.3317 C   0  0  0  0  0  0  0  0  0  0  0  0
   38.3576   14.7027  -13.3289 C   0  0  0  0  0  0  0  0  0  0  0  0
   37.3661   15.1785  -12.4959 C   0  0  0  0  0  0  0  0  0  0  0  0
   36.0742   14.7711  -12.7147 C   0  0  0  0  0  0  0  0  0  0  0  0
   35.7858   13.9075  -13.7439 C   0  0  0  0  0  0  0  0  0  0  0  0
   33.9664   13.3890  -13.9818 Br  0  0  0  0  0  0  0  0  0  0  0  0
   36.7930   13.4487  -14.5588 C   0  0  0  0  0  0  0  0  0  0  0  0
   38.1178   13.8372  -14.3717 C   0  0  0  0  0  0  0  0  0  0  0  0
   37.4563   10.2668  -18.0527 N   0  0  0  0  0  0  0  0  0  0  0  0
   38.5750   11.0586  -17.6748 C   0  0  0  0  0  0  0  0  0  0  0  0
   39.7384   11.0028  -18.3505 N   0  0  0  0  0  0  0  0  0  0  0  0
   40.7494   11.7789  -17.9353 C   0  0  0  0  0  0  0  0  0  0  0  0
   40.6071   12.6156  -16.8438 C   0  0  0  0  0  0  0  0  0  0  0  0
   39.4059   12.6787  -16.1395 C   0  0  0  0  0  0  0  0  0  0  0  0
   38.4265   11.8822  -16.5959 N   0  0  0  0  0  0  0  0  0  0  0  0
   37.4545    9.2528  -17.8471 H   0  0  0  0  0  0  0  0  0  0  0  0
   36.6649   10.7020  -18.5227 H   0  0  0  0  0  0  0  0  0  0  0  0
 11 12  1  0  0  0
 12 13  2  0  0  0
 13 14  1  0  0  0
 14 15  2  0  0  0
 15 16  1  0  0  0
 16 17  2  0  0  0
 16  1  1  0  0  0
  1  2  1  0  0  0
  2  3  2  0  0  0
  3  4  1  0  0  0
  4  5  2  0  0  0
  5  6  1  0  0  0
  6  7  2  0  0  0
  7  8  1  0  0  0
  7  9  1  0  0  0
  9 10  2  0  0  0
 17 12  1  0  0  0
 10  1  1  0  0  0
 10  4  1  0  0  0
 11 18  1  0  0  0
 11 19  1  0  0  0
M  END
> <minimizedAffinity>
-7.01505

> <CNNscore>
0.4560835361

> <CNNaffinity>
5.6481423378

> <CNN_VS>
2.5760247707

> <CNNaffinity_variance>
0.2416931093

$$$$
[H]c1nc(N([H])[H])nc(-n2c([H])c([H])c3c([H])c([H])c(Br)c([H])c32)c1[H]


 19 21  0  0  0  0  0  0  0  0999 V2000
   38.4244   11.7522  -16.6111 N   0  0  0  0  0  0  0  0  0  0  0  0
   38.4980   10.9344  -17.6787 C   0  0  0  0  0  0  0  0  0  0  0  0
   37.2497   10.4533  -18.0128 C   0  0  0  0  0  0  0  0  0  0  0  0
   36.3767   11.0053  -17.1045 C   0  0  0  0  0  0  0  0  0  0  0  0
   35.0105   10.8616  -16.9781 C   0  0  0  0  0  0  0  0  0  0  0  0
   34.3710   11.5345  -15.9676 C   0  0  0  0  0  0  0  0  0  0  0  0
   35.0859   12.3315  -15.1062 C   0  0  0  0  0  0  0  0  0  0  0  0
   34.1238   13.2329  -13.7286 Br  0  0  0  0  0  0  0  0  0  0  0  0
   36.4464   12.4569  -15.2549 C   0  0  0  0  0  0  0  0  0  0  0  0
   37.1348   11.7914  -16.2670 C   0  0  0  0  0  0  0  0  0  0  0  0
   43.0828   12.9452  -16.4818 N   0  0  0  0  0  0  0  0  0  0  0  0
   41.8048   13.0548  -15.8686 C   0  0  0  0  0  0  0  0  0  0  0  0
   41.6226   13.7701  -14.7424 N   0  0  0  0  0  0  0  0  0  0  0  0
   40.3885   13.8277  -14.2218 C   0  0  0  0  0  0  0  0  0  0  0  0
   39.3284   13.1726  -14.8207 C   0  0  0  0  0  0  0  0  0  0  0  0
   39.5095   12.4304  -15.9867 C   0  0  0  0  0  0  0  0  0  0  0  0
   40.7631   12.4051  -16.4661 N   0  0  0  0  0  0  0  0  0  0  0  0
   43.8046   12.3391  -16.0549 H   0  0  0  0  0  0  0  0  0  0  0  0
   43.2796   13.4631  -17.3359 H   0  0  0  0  0  0  0  0  0  0  0  0
 11 12  1  0  0  0
 12 13  2  0  0  0
 13 14  1  0  0  0
 14 15  2  0  0  0
 15 16  1  0  0  0
 16 17  2  0  0  0
 16  1  1  0  0  0
  1  2  1  0  0  0
  2  3  2  0  0  0
  3  4  1  0  0  0
  4  5  2  0  0  0
  5  6  1  0  0  0
  6  7  2  0  0  0
  7  8  1  0  0  0
  7  9  1  0  0  0
  9 10  2  0  0  0
 17 12  1  0  0  0
 10  1  1  0  0  0
 10  4  1  0  0  0
 11 18  1  0  0  0
 11 19  1  0  0  0
M  END
> <minimizedAffinity>
-7.99273

> <CNNscore>
0.4497913420

> <CNNaffinity>
5.6783018112

> <CNN_VS>
2.5540509224

> <CNNaffinity_variance>
0.1539545655

$$$$
[H]c1nc(N([H])[H])nc(-n2c([H])c([H])c3c([H])c([H])c(Br)c([H])c32)c1[H]


 19 21  0  0  0  0  0  0  0  0999 V2000
   37.0446   11.5512  -16.5771 N   0  0  0  0  0  0  0  0  0  0  0  0
   36.3021   10.7288  -17.3429 C   0  0  0  0  0  0  0  0  0  0  0  0
   34.9890   10.7223  -16.9224 C   0  0  0  0  0  0  0  0  0  0  0  0
   34.9315   11.5817  -15.8502 C   0  0  0  0  0  0  0  0  0  0  0  0
   33.8653   11.9470  -15.0546 C   0  0  0  0  0  0  0  0  0  0  0  0
   34.0834   12.8377  -14.0338 C   0  0  0  0  0  0  0  0  0  0  0  0
   35.3407   13.3485  -13.8180 C   0  0  0  0  0  0  0  0  0  0  0  0
   35.5614   14.5807  -12.3796 Br  0  0  0  0  0  0  0  0  0  0  0  0
   36.3853   12.9676  -14.6258 C   0  0  0  0  0  0  0  0  0  0  0  0
   36.2075   12.0660  -15.6729 C   0  0  0  0  0  0  0  0  0  0  0  0
   41.1018   13.5517  -14.9408 N   0  0  0  0  0  0  0  0  0  0  0  0
   40.4780   12.7764  -15.9562 C   0  0  0  0  0  0  0  0  0  0  0  0
   41.1726   12.3032  -17.0083 N   0  0  0  0  0  0  0  0  0  0  0  0
   40.5162   11.5796  -17.9263 C   0  0  0  0  0  0  0  0  0  0  0  0
   39.1634   11.3232  -17.8013 C   0  0  0  0  0  0  0  0  0  0  0  0
   38.4379   11.8097  -16.7150 C   0  0  0  0  0  0  0  0  0  0  0  0
   39.1419   12.5275  -15.8255 N   0  0  0  0  0  0  0  0  0  0  0  0
   41.3587   14.5353  -15.1335 H   0  0  0  0  0  0  0  0  0  0  0  0
   41.2917   13.1347  -14.0316 H   0  0  0  0  0  0  0  0  0  0  0  0
 11 12  1  0  0  0
 12 13  2  0  0  0
 13 14  1  0  0  0
 14 15  2  0  0  0
 15 16  1  0  0  0
 16 17  2  0  0  0
 16  1  1  0  0  0
  1  2  1  0  0  0
  2  3  2  0  0  0
  3  4  1  0  0  0
  4  5  2  0  0  0
  5  6  1  0  0  0
  6  7  2  0  0  0
  7  8  1  0  0  0
  7  9  1  0  0  0
  9 10  2  0  0  0
 17 12  1  0  0  0
 10  1  1  0  0  0
 10  4  1  0  0  0
 11 18  1  0  0  0
 11 19  1  0  0  0
M  END
> <minimizedAffinity>
-7.66005

> <CNNscore>
0.4268876910

> <CNNaffinity>
5.8439621925

> <CNN_VS>
2.4947154522

> <CNNaffinity_variance>
0.2094792873

$$$$
[H]c1nc(N([H])[H])nc(-n2c([H])c([H])c3c([H])c([H])c(Br)c([H])c32)c1[H]


 19 21  0  0  0  0  0  0  0  0999 V2000
   37.1299   11.7080  -16.2443 N   0  0  0  0  0  0  0  0  0  0  0  0
   36.5532   10.9489  -17.1958 C   0  0  0  0  0  0  0  0  0  0  0  0
   37.4772   10.5731  -18.1478 C   0  0  0  0  0  0  0  0  0  0  0  0
   38.6717   11.1306  -17.7555 C   0  0  0  0  0  0  0  0  0  0  0  0
   39.9193   11.0727  -18.3415 C   0  0  0  0  0  0  0  0  0  0  0  0
   40.9602   11.7291  -17.7344 C   0  0  0  0  0  0  0  0  0  0  0  0
   40.7529   12.4257  -16.5682 C   0  0  0  0  0  0  0  0  0  0  0  0
   42.2503   13.3107  -15.7868 Br  0  0  0  0  0  0  0  0  0  0  0  0
   39.4996   12.4669  -16.0057 C   0  0  0  0  0  0  0  0  0  0  0  0
   38.4155   11.8148  -16.5892 C   0  0  0  0  0  0  0  0  0  0  0  0
   33.6733   14.4596  -14.3413 N   0  0  0  0  0  0  0  0  0  0  0  0
   34.7990   13.6236  -14.1061 C   0  0  0  0  0  0  0  0  0  0  0  0
   35.2435   13.3746  -12.8596 N   0  0  0  0  0  0  0  0  0  0  0  0
   36.3109   12.5763  -12.7160 C   0  0  0  0  0  0  0  0  0  0  0  0
   36.9418   12.0214  -13.8140 C   0  0  0  0  0  0  0  0  0  0  0  0
   36.4873   12.2746  -15.1071 C   0  0  0  0  0  0  0  0  0  0  0  0
   35.4165   13.0793  -15.1954 N   0  0  0  0  0  0  0  0  0  0  0  0
   33.7670   15.4848  -14.2376 H   0  0  0  0  0  0  0  0  0  0  0  0
   32.7832   14.0448  -14.6101 H   0  0  0  0  0  0  0  0  0  0  0  0
 11 12  1  0  0  0
 12 13  2  0  0  0
 13 14  1  0  0  0
 14 15  2  0  0  0
 15 16  1  0  0  0
 16 17  2  0  0  0
 16  1  1  0  0  0
  1  2  1  0  0  0
  2  3  2  0  0  0
  3  4  1  0  0  0
  4  5  2  0  0  0
  5  6  1  0  0  0
  6  7  2  0  0  0
  7  8  1  0  0  0
  7  9  1  0  0  0
  9 10  2  0  0  0
 17 12  1  0  0  0
 10  1  1  0  0  0
 10  4  1  0  0  0
 11 18  1  0  0  0
 11 19  1  0  0  0
M  END
> <minimizedAffinity>
-8.61005

> <CNNscore>
0.3969405293

> <CNNaffinity>
5.7050371170

> <CNN_VS>
2.2645604610

> <CNNaffinity_variance>
0.2458762676

$$$$
[H]c1nc(N([H])[H])nc(-n2c([H])c([H])c3c([H])c([H])c(Br)c([H])c32)c1[H]


 19 21  0  0  0  0  0  0  0  0999 V2000
   37.2829   11.2945  -17.0550 N   0  0  0  0  0  0  0  0  0  0  0  0
   37.4516   10.6149  -18.2055 C   0  0  0  0  0  0  0  0  0  0  0  0
   38.7593   10.6977  -18.6348 C   0  0  0  0  0  0  0  0  0  0  0  0
   39.4158   11.4641  -17.7004 C   0  0  0  0  0  0  0  0  0  0  0  0
   40.7359   11.8601  -17.6382 C   0  0  0  0  0  0  0  0  0  0  0  0
   41.1388   12.6357  -16.5804 C   0  0  0  0  0  0  0  0  0  0  0  0
   40.2385   13.0041  -15.6099 C   0  0  0  0  0  0  0  0  0  0  0  0
   40.8768   14.0825  -14.1727 Br  0  0  0  0  0  0  0  0  0  0  0  0
   38.9290   12.5957  -15.6964 C   0  0  0  0  0  0  0  0  0  0  0  0
   38.4783   11.8077  -16.7532 C   0  0  0  0  0  0  0  0  0  0  0  0
   34.9201   12.7684  -13.1325 N   0  0  0  0  0  0  0  0  0  0  0  0
   34.8460   12.1370  -14.4042 C   0  0  0  0  0  0  0  0  0  0  0  0
   33.6786   11.6833  -14.8986 N   0  0  0  0  0  0  0  0  0  0  0  0
   33.6867   11.0985  -16.1050 C   0  0  0  0  0  0  0  0  0  0  0  0
   34.8586   10.9625  -16.8259 C   0  0  0  0  0  0  0  0  0  0  0  0
   36.0707   11.4298  -16.3205 C   0  0  0  0  0  0  0  0  0  0  0  0
   36.0075   12.0065  -15.1099 N   0  0  0  0  0  0  0  0  0  0  0  0
   34.8504   12.1969  -12.2729 H   0  0  0  0  0  0  0  0  0  0  0  0
   35.0412   13.7777  -13.0758 H   0  0  0  0  0  0  0  0  0  0  0  0
 11 12  1  0  0  0
 12 13  2  0  0  0
 13 14  1  0  0  0
 14 15  2  0  0  0
 15 16  1  0  0  0
 16 17  2  0  0  0
 16  1  1  0  0  0
  1  2  1  0  0  0
  2  3  2  0  0  0
  3  4  1  0  0  0
  4  5  2  0  0  0
  5  6  1  0  0  0
  6  7  2  0  0  0
  7  8  1  0  0  0
  7  9  1  0  0  0
  9 10  2  0  0  0
 17 12  1  0  0  0
 10  1  1  0  0  0
 10  4  1  0  0  0
 11 18  1  0  0  0
 11 19  1  0  0  0
M  END
> <minimizedAffinity>
-8.16000

> <CNNscore>
0.3952153027

> <CNNaffinity>
5.8653826714

> <CNN_VS>
2.3180890083

> <CNNaffinity_variance>
0.2112359256

$$$$
[H]O[C@]1(C#Cc2c([H])c([H])nc(-n3nc(C(=O)N([H])[H])c4c([H])c([H])c([H])c([H])c43)c2[H])C(=O)N(C([H])([H])[H])C([H])([H])C1([H])[H]


 31 34  0  0  0  0  0  0  0  0999 V2000
   35.5781   13.3920  -13.1012 C   0  0  0  0  0  0  0  0  0  0  0  0
   34.3875   12.8170  -13.5215 C   0  0  0  0  0  0  0  0  0  0  0  0
   34.2831   12.0796  -14.6826 C   0  0  0  0  0  0  0  0  0  0  0  0
   35.3974   11.9276  -15.4187 N   0  0  0  0  0  0  0  0  0  0  0  0
   36.5843   12.4584  -15.0696 C   0  0  0  0  0  0  0  0  0  0  0  0
   36.6808   13.1947  -13.9066 C   0  0  0  0  0  0  0  0  0  0  0  0
   37.7570   12.2846  -15.8668 N   0  0  0  0  0  0  0  0  0  0  0  0
   37.8967   11.7037  -17.0332 N   0  0  0  0  0  0  0  0  0  0  0  0
   39.1666   11.7362  -17.4750 C   0  0  0  0  0  0  0  0  0  0  0  0
   39.8851   12.3941  -16.5018 C   0  0  0  0  0  0  0  0  0  0  0  0
   41.2084   12.7500  -16.3459 C   0  0  0  0  0  0  0  0  0  0  0  0
   41.6361   13.4321  -15.2113 C   0  0  0  0  0  0  0  0  0  0  0  0
   40.7532   13.7728  -14.2095 C   0  0  0  0  0  0  0  0  0  0  0  0
   39.4344   13.4103  -14.3798 C   0  0  0  0  0  0  0  0  0  0  0  0
   38.9774   12.7306  -15.4982 C   0  0  0  0  0  0  0  0  0  0  0  0
   39.6821   11.1895  -18.7248 C   0  0  0  0  0  0  0  0  0  0  0  0
   38.8983   10.6962  -19.7649 N   0  0  0  0  0  0  0  0  0  0  0  0
   40.9473   11.1474  -18.9066 O   0  0  0  0  0  0  0  0  0  0  0  0
   38.4676   11.3105  -20.5131 H   0  0  0  0  0  0  0  0  0  0  0  0
   38.6758    9.6681  -19.8829 H   0  0  0  0  0  0  0  0  0  0  0  0
   35.7391   14.8201  -10.8746 C   0  0  0  0  0  0  0  0  0  0  0  0
   35.6682   14.1604  -11.8831 C   0  0  0  0  0  0  0  0  0  0  0  0
   38.5920   15.0552   -7.1147 C   0  0  0  0  0  0  0  0  0  0  0  0
   37.7596   15.3319   -8.2809 N   0  0  0  0  0  0  0  0  0  0  0  0
   38.1460   16.1415   -9.4441 C   0  0  0  0  0  0  0  0  0  0  0  0
   36.8443   16.7645   -9.8384 C   0  0  0  0  0  0  0  0  0  0  0  0
   35.8398   15.6451   -9.6515 C   0  0  0  0  0  0  0  0  0  0  0  0
   34.6019   16.1790   -9.3726 O   0  0  0  0  0  0  0  0  0  0  0  0
   36.4361   14.8914   -8.5354 C   0  0  0  0  0  0  0  0  0  0  0  0
   35.8623   13.9860   -7.8944 O   0  0  0  0  0  0  0  0  0  0  0  0
   34.5732   17.0905   -9.7500 H   0  0  0  0  0  0  0  0  0  0  0  0
 23 24  1  0  0  0
 24 25  1  0  0  0
 25 26  1  0  0  0
 26 27  1  0  0  0
 27 28  1  0  0  0
 27 21  1  0  0  0
 21 22  3  0  0  0
 22  1  1  0  0  0
  1  2  2  0  0  0
  2  3  1  0  0  0
  3  4  2  0  0  0
  4  5  1  0  0  0
  5  6  2  0  0  0
  5  7  1  0  0  0
  7  8  1  0  0  0
  8  9  2  0  0  0
  9 16  1  0  0  0
 16 17  1  0  0  0
 16 18  2  0  0  0
  9 10  1  0  0  0
 10 11  2  0  0  0
 11 12  1  0  0  0
 12 13  2  0  0  0
 13 14  1  0  0  0
 14 15  2  0  0  0
 27 29  1  0  0  0
 29 30  2  0  0  0
 29 24  1  0  0  0
  6  1  1  0  0  0
 15  7  1  0  0  0
 15 10  1  0  0  0
 28 31  1  0  0  0
 17 19  1  0  0  0
 17 20  1  0  0  0
M  END
> <minimizedAffinity>
-9.09152

> <CNNscore>
0.8921219707

> <CNNaffinity>
7.0874457359

> <CNN_VS>
6.3228659630

> <CNNaffinity_variance>
0.2248763144

$$$$
[H]O[C@]1(C#Cc2c([H])c([H])nc(-n3nc(C(=O)N([H])[H])c4c([H])c([H])c([H])c([H])c43)c2[H])C(=O)N(C([H])([H])[H])C([H])([H])C1([H])[H]


 31 34  0  0  0  0  0  0  0  0999 V2000
   39.1232   12.1313  -16.4493 C   0  0  0  0  0  0  0  0  0  0  0  0
   39.1750   11.5717  -17.7177 C   0  0  0  0  0  0  0  0  0  0  0  0
   40.3584   11.3689  -18.3969 C   0  0  0  0  0  0  0  0  0  0  0  0
   41.4942   11.7385  -17.7804 N   0  0  0  0  0  0  0  0  0  0  0  0
   41.5156   12.2870  -16.5511 C   0  0  0  0  0  0  0  0  0  0  0  0
   40.3277   12.4865  -15.8780 C   0  0  0  0  0  0  0  0  0  0  0  0
   42.7346   12.6728  -15.9137 N   0  0  0  0  0  0  0  0  0  0  0  0
   43.9723   12.3800  -16.2292 N   0  0  0  0  0  0  0  0  0  0  0  0
   44.8624   12.9312  -15.3850 C   0  0  0  0  0  0  0  0  0  0  0  0
   44.1187   13.6299  -14.4604 C   0  0  0  0  0  0  0  0  0  0  0  0
   44.4178   14.3991  -13.3554 C   0  0  0  0  0  0  0  0  0  0  0  0
   43.4088   14.9908  -12.6021 C   0  0  0  0  0  0  0  0  0  0  0  0
   42.0816   14.8273  -12.9353 C   0  0  0  0  0  0  0  0  0  0  0  0
   41.7987   14.0559  -14.0419 C   0  0  0  0  0  0  0  0  0  0  0  0
   42.7811   13.4535  -14.8125 C   0  0  0  0  0  0  0  0  0  0  0  0
   46.3154   12.8163  -15.4334 C   0  0  0  0  0  0  0  0  0  0  0  0
   47.1174   13.2562  -16.4835 N   0  0  0  0  0  0  0  0  0  0  0  0
   46.9263   12.2739  -14.4494 O   0  0  0  0  0  0  0  0  0  0  0  0
   47.4529   14.2564  -16.5822 H   0  0  0  0  0  0  0  0  0  0  0  0
   47.4506   12.6203  -17.2613 H   0  0  0  0  0  0  0  0  0  0  0  0
   36.8310   12.5259  -15.1791 C   0  0  0  0  0  0  0  0  0  0  0  0
   37.8753   12.3357  -15.7539 C   0  0  0  0  0  0  0  0  0  0  0  0
   35.5348   14.3258  -11.0063 C   0  0  0  0  0  0  0  0  0  0  0  0
   35.6836   13.9848  -12.4175 N   0  0  0  0  0  0  0  0  0  0  0  0
   35.8160   14.9392  -13.5263 C   0  0  0  0  0  0  0  0  0  0  0  0
   35.1243   14.2213  -14.6416 C   0  0  0  0  0  0  0  0  0  0  0  0
   35.5608   12.7806  -14.4660 C   0  0  0  0  0  0  0  0  0  0  0  0
   34.5926   11.9414  -14.9698 O   0  0  0  0  0  0  0  0  0  0  0  0
   35.7311   12.6956  -13.0056 C   0  0  0  0  0  0  0  0  0  0  0  0
   35.8956   11.6369  -12.3636 O   0  0  0  0  0  0  0  0  0  0  0  0
   34.0836   12.4413  -15.6519 H   0  0  0  0  0  0  0  0  0  0  0  0
 23 24  1  0  0  0
 24 25  1  0  0  0
 25 26  1  0  0  0
 26 27  1  0  0  0
 27 28  1  0  0  0
 27 21  1  0  0  0
 21 22  3  0  0  0
 22  1  1  0  0  0
  1  2  2  0  0  0
  2  3  1  0  0  0
  3  4  2  0  0  0
  4  5  1  0  0  0
  5  6  2  0  0  0
  5  7  1  0  0  0
  7  8  1  0  0  0
  8  9  2  0  0  0
  9 16  1  0  0  0
 16 17  1  0  0  0
 16 18  2  0  0  0
  9 10  1  0  0  0
 10 11  2  0  0  0
 11 12  1  0  0  0
 12 13  2  0  0  0
 13 14  1  0  0  0
 14 15  2  0  0  0
 27 29  1  0  0  0
 29 30  2  0  0  0
 29 24  1  0  0  0
  6  1  1  0  0  0
 15  7  1  0  0  0
 15 10  1  0  0  0
 28 31  1  0  0  0
 17 19  1  0  0  0
 17 20  1  0  0  0
M  END
> <minimizedAffinity>
-8.64195

> <CNNscore>
0.5759437680

> <CNNaffinity>
6.5616636276

> <CNN_VS>
3.7791492939

> <CNNaffinity_variance>
0.2868390083

$$$$
[H]O[C@]1(C#Cc2c([H])c([H])nc(-n3nc(C(=O)N([H])[H])c4c([H])c([H])c([H])c([H])c43)c2[H])C(=O)N(C([H])([H])[H])C([H])([H])C1([H])[H]


 31 34  0  0  0  0  0  0  0  0999 V2000
   41.3493   12.5963  -16.0374 C   0  0  0  0  0  0  0  0  0  0  0  0
   41.6157   12.1980  -17.3394 C   0  0  0  0  0  0  0  0  0  0  0  0
   40.6249   11.8266  -18.2244 C   0  0  0  0  0  0  0  0  0  0  0  0
   39.3568   11.8613  -17.7802 N   0  0  0  0  0  0  0  0  0  0  0  0
   39.0283   12.2375  -16.5300 C   0  0  0  0  0  0  0  0  0  0  0  0
   40.0251   12.6077  -15.6505 C   0  0  0  0  0  0  0  0  0  0  0  0
   37.6734   12.2673  -16.0780 N   0  0  0  0  0  0  0  0  0  0  0  0
   36.6390   11.5761  -16.4900 N   0  0  0  0  0  0  0  0  0  0  0  0
   35.5153   11.8817  -15.8171 C   0  0  0  0  0  0  0  0  0  0  0  0
   35.8762   12.8477  -14.9045 C   0  0  0  0  0  0  0  0  0  0  0  0
   35.2073   13.5658  -13.9355 C   0  0  0  0  0  0  0  0  0  0  0  0
   35.8746   14.5010  -13.1507 C   0  0  0  0  0  0  0  0  0  0  0  0
   37.2218   14.7389  -13.3165 C   0  0  0  0  0  0  0  0  0  0  0  0
   37.8763   14.0136  -14.2887 C   0  0  0  0  0  0  0  0  0  0  0  0
   37.2398   13.0753  -15.0863 C   0  0  0  0  0  0  0  0  0  0  0  0
   34.1869   11.3117  -16.0095 C   0  0  0  0  0  0  0  0  0  0  0  0
   33.2536   11.1003  -14.9977 N   0  0  0  0  0  0  0  0  0  0  0  0
   33.8247   10.9706  -17.1877 O   0  0  0  0  0  0  0  0  0  0  0  0
   32.5959   11.8519  -14.6441 H   0  0  0  0  0  0  0  0  0  0  0  0
   33.1341   10.1698  -14.5075 H   0  0  0  0  0  0  0  0  0  0  0  0
   43.2813   13.3205  -14.3742 C   0  0  0  0  0  0  0  0  0  0  0  0
   42.3993   12.9815  -15.1256 C   0  0  0  0  0  0  0  0  0  0  0  0
   47.8181   14.5623  -14.8290 C   0  0  0  0  0  0  0  0  0  0  0  0
   46.4025   14.4680  -14.4872 N   0  0  0  0  0  0  0  0  0  0  0  0
   45.4166   15.5522  -14.5882 C   0  0  0  0  0  0  0  0  0  0  0  0
   44.5009   15.2502  -13.4444 C   0  0  0  0  0  0  0  0  0  0  0  0
   44.3765   13.7401  -13.4736 C   0  0  0  0  0  0  0  0  0  0  0  0
   44.1112   13.2753  -12.2052 O   0  0  0  0  0  0  0  0  0  0  0  0
   45.6939   13.3416  -13.9979 C   0  0  0  0  0  0  0  0  0  0  0  0
   46.1356   12.1734  -14.0137 O   0  0  0  0  0  0  0  0  0  0  0  0
   43.6787   14.0044  -11.6997 H   0  0  0  0  0  0  0  0  0  0  0  0
 23 24  1  0  0  0
 24 25  1  0  0  0
 25 26  1  0  0  0
 26 27  1  0  0  0
 27 28  1  0  0  0
 27 21  1  0  0  0
 21 22  3  0  0  0
 22  1  1  0  0  0
  1  2  2  0  0  0
  2  3  1  0  0  0
  3  4  2  0  0  0
  4  5  1  0  0  0
  5  6  2  0  0  0
  5  7  1  0  0  0
  7  8  1  0  0  0
  8  9  2  0  0  0
  9 16  1  0  0  0
 16 17  1  0  0  0
 16 18  2  0  0  0
  9 10  1  0  0  0
 10 11  2  0  0  0
 11 12  1  0  0  0
 12 13  2  0  0  0
 13 14  1  0  0  0
 14 15  2  0  0  0
 27 29  1  0  0  0
 29 30  2  0  0  0
 29 24  1  0  0  0
  6  1  1  0  0  0
 15  7  1  0  0  0
 15 10  1  0  0  0
 28 31  1  0  0  0
 17 19  1  0  0  0
 17 20  1  0  0  0
M  END
> <minimizedAffinity>
-8.87638

> <CNNscore>
0.5602715611

> <CNNaffinity>
6.6937994957

> <CNN_VS>
3.7503454685

> <CNNaffinity_variance>
0.2565599084

$$$$
[H]O[C@]1(C#Cc2c([H])c([H])nc(-n3nc(C(=O)N([H])[H])c4c([H])c([H])c([H])c([H])c43)c2[H])C(=O)N(C([H])([H])[H])C([H])([H])C1([H])[H]


 31 34  0  0  0  0  0  0  0  0999 V2000
   41.2047   13.2363  -15.0450 C   0  0  0  0  0  0  0  0  0  0  0  0
   41.4638   12.7806  -16.3295 C   0  0  0  0  0  0  0  0  0  0  0  0
   40.4660   12.3978  -17.2018 C   0  0  0  0  0  0  0  0  0  0  0  0
   39.1983   12.4798  -16.7627 N   0  0  0  0  0  0  0  0  0  0  0  0
   38.8767   12.9129  -15.5292 C   0  0  0  0  0  0  0  0  0  0  0  0
   39.8803   13.2942  -14.6624 C   0  0  0  0  0  0  0  0  0  0  0  0
   37.5221   12.9924  -15.0823 N   0  0  0  0  0  0  0  0  0  0  0  0
   36.9914   13.7476  -14.1519 N   0  0  0  0  0  0  0  0  0  0  0  0
   35.6698   13.5404  -14.0132 C   0  0  0  0  0  0  0  0  0  0  0  0
   35.3436   12.5719  -14.9361 C   0  0  0  0  0  0  0  0  0  0  0  0
   34.1788   11.9270  -15.2960 C   0  0  0  0  0  0  0  0  0  0  0  0
   34.1760   10.9640  -16.3001 C   0  0  0  0  0  0  0  0  0  0  0  0
   35.3342   10.6247  -16.9652 C   0  0  0  0  0  0  0  0  0  0  0  0
   36.4899   11.2776  -16.5943 C   0  0  0  0  0  0  0  0  0  0  0  0
   36.5253   12.2413  -15.5984 C   0  0  0  0  0  0  0  0  0  0  0  0
   34.7644   14.2013  -13.0804 C   0  0  0  0  0  0  0  0  0  0  0  0
   33.5136   14.7172  -13.4104 N   0  0  0  0  0  0  0  0  0  0  0  0
   35.1208   14.3310  -11.8590 O   0  0  0  0  0  0  0  0  0  0  0  0
   32.6317   14.1311  -13.4468 H   0  0  0  0  0  0  0  0  0  0  0  0
   33.3539   15.7359  -13.6495 H   0  0  0  0  0  0  0  0  0  0  0  0
   43.1560   13.9466  -13.3986 C   0  0  0  0  0  0  0  0  0  0  0  0
   42.2619   13.6327  -14.1464 C   0  0  0  0  0  0  0  0  0  0  0  0
   43.6009   14.7903   -8.7702 C   0  0  0  0  0  0  0  0  0  0  0  0
   43.7475   14.3274  -10.1464 N   0  0  0  0  0  0  0  0  0  0  0  0
   43.9166   12.9323  -10.5740 C   0  0  0  0  0  0  0  0  0  0  0  0
   44.7953   13.0774  -11.7759 C   0  0  0  0  0  0  0  0  0  0  0  0
   44.2503   14.3084  -12.4721 C   0  0  0  0  0  0  0  0  0  0  0  0
   45.2567   14.9156  -13.1889 O   0  0  0  0  0  0  0  0  0  0  0  0
   43.7580   15.1025  -11.3336 C   0  0  0  0  0  0  0  0  0  0  0  0
   43.3968   16.2966  -11.3955 O   0  0  0  0  0  0  0  0  0  0  0  0
   45.9308   14.2282  -13.4064 H   0  0  0  0  0  0  0  0  0  0  0  0
 23 24  1  0  0  0
 24 25  1  0  0  0
 25 26  1  0  0  0
 26 27  1  0  0  0
 27 28  1  0  0  0
 27 21  1  0  0  0
 21 22  3  0  0  0
 22  1  1  0  0  0
  1  2  2  0  0  0
  2  3  1  0  0  0
  3  4  2  0  0  0
  4  5  1  0  0  0
  5  6  2  0  0  0
  5  7  1  0  0  0
  7  8  1  0  0  0
  8  9  2  0  0  0
  9 16  1  0  0  0
 16 17  1  0  0  0
 16 18  2  0  0  0
  9 10  1  0  0  0
 10 11  2  0  0  0
 11 12  1  0  0  0
 12 13  2  0  0  0
 13 14  1  0  0  0
 14 15  2  0  0  0
 27 29  1  0  0  0
 29 30  2  0  0  0
 29 24  1  0  0  0
  6  1  1  0  0  0
 15  7  1  0  0  0
 15 10  1  0  0  0
 28 31  1  0  0  0
 17 19  1  0  0  0
 17 20  1  0  0  0
M  END
> <minimizedAffinity>
-8.93774

> <CNNscore>
0.5398054719

> <CNNaffinity>
6.6176366806

> <CNN_VS>
3.5722365379

> <CNNaffinity_variance>
0.1895750314

$$$$
[H]O[C@]1(C#Cc2c([H])c([H])nc(-n3nc(C(=O)N([H])[H])c4c([H])c([H])c([H])c([H])c43)c2[H])C(=O)N(C([H])([H])[H])C([H])([H])C1([H])[H]


 31 34  0  0  0  0  0  0  0  0999 V2000
   41.2028   12.5732  -16.1824 C   0  0  0  0  0  0  0  0  0  0  0  0
   41.4692   12.0149  -17.4242 C   0  0  0  0  0  0  0  0  0  0  0  0
   40.4819   11.5035  -18.2406 C   0  0  0  0  0  0  0  0  0  0  0  0
   39.2172   11.5613  -17.7891 N   0  0  0  0  0  0  0  0  0  0  0  0
   38.8889   12.0892  -16.5949 C   0  0  0  0  0  0  0  0  0  0  0  0
   39.8821   12.5989  -15.7840 C   0  0  0  0  0  0  0  0  0  0  0  0
   37.5377   12.1408  -16.1340 N   0  0  0  0  0  0  0  0  0  0  0  0
   36.4902   11.4641  -16.5369 N   0  0  0  0  0  0  0  0  0  0  0  0
   35.3758   11.7886  -15.8574 C   0  0  0  0  0  0  0  0  0  0  0  0
   35.7574   12.7519  -14.9503 C   0  0  0  0  0  0  0  0  0  0  0  0
   35.1059   13.4829  -13.9791 C   0  0  0  0  0  0  0  0  0  0  0  0
   35.7925   14.4103  -13.2018 C   0  0  0  0  0  0  0  0  0  0  0  0
   37.1420   14.6273  -13.3773 C   0  0  0  0  0  0  0  0  0  0  0  0
   37.7789   13.8893  -14.3516 C   0  0  0  0  0  0  0  0  0  0  0  0
   37.1230   12.9583  -15.1420 C   0  0  0  0  0  0  0  0  0  0  0  0
   34.0377   11.2381  -16.0392 C   0  0  0  0  0  0  0  0  0  0  0  0
   33.1382   10.9677  -15.0109 N   0  0  0  0  0  0  0  0  0  0  0  0
   33.6330   10.9737  -17.2232 O   0  0  0  0  0  0  0  0  0  0  0  0
   32.4982   11.6987  -14.5882 H   0  0  0  0  0  0  0  0  0  0  0  0
   33.0292   10.0087  -14.5763 H   0  0  0  0  0  0  0  0  0  0  0  0
   43.1352   13.5520  -14.6557 C   0  0  0  0  0  0  0  0  0  0  0  0
   42.2491   13.1036  -15.3420 C   0  0  0  0  0  0  0  0  0  0  0  0
   46.7656   11.7816  -12.2026 C   0  0  0  0  0  0  0  0  0  0  0  0
   45.8910   12.5479  -13.0844 N   0  0  0  0  0  0  0  0  0  0  0  0
   46.1488   12.8603  -14.4964 C   0  0  0  0  0  0  0  0  0  0  0  0
   45.5117   14.2061  -14.6408 C   0  0  0  0  0  0  0  0  0  0  0  0
   44.2375   14.0886  -13.8287 C   0  0  0  0  0  0  0  0  0  0  0  0
   43.8754   15.3305  -13.3578 O   0  0  0  0  0  0  0  0  0  0  0  0
   44.6395   13.1392  -12.7770 C   0  0  0  0  0  0  0  0  0  0  0  0
   43.9754   12.8830  -11.7507 O   0  0  0  0  0  0  0  0  0  0  0  0
   44.2606   16.0082  -13.9632 H   0  0  0  0  0  0  0  0  0  0  0  0
 23 24  1  0  0  0
 24 25  1  0  0  0
 25 26  1  0  0  0
 26 27  1  0  0  0
 27 28  1  0  0  0
 27 21  1  0  0  0
 21 22  3  0  0  0
 22  1  1  0  0  0
  1  2  2  0  0  0
  2  3  1  0  0  0
  3  4  2  0  0  0
  4  5  1  0  0  0
  5  6  2  0  0  0
  5  7  1  0  0  0
  7  8  1  0  0  0
  8  9  2  0  0  0
  9 16  1  0  0  0
 16 17  1  0  0  0
 16 18  2  0  0  0
  9 10  1  0  0  0
 10 11  2  0  0  0
 11 12  1  0  0  0
 12 13  2  0  0  0
 13 14  1  0  0  0
 14 15  2  0  0  0
 27 29  1  0  0  0
 29 30  2  0  0  0
 29 24  1  0  0  0
  6  1  1  0  0  0
 15  7  1  0  0  0
 15 10  1  0  0  0
 28 31  1  0  0  0
 17 19  1  0  0  0
 17 20  1  0  0  0
M  END
> <minimizedAffinity>
-9.12075

> <CNNscore>
0.5360862017

> <CNNaffinity>
6.6662011147

> <CNN_VS>
3.5736584663

> <CNNaffinity_variance>
0.1846295893

$$$$
[H]O[C@]1(C#Cc2c([H])c([H])nc(-n3nc(C(=O)N([H])[H])c4c([H])c([H])c([H])c([H])c43)c2[H])C(=O)N(C([H])([H])[H])C([H])([H])C1([H])[H]


 31 34  0  0  0  0  0  0  0  0999 V2000
   41.2848   12.4872  -16.4756 C   0  0  0  0  0  0  0  0  0  0  0  0
   41.4871   11.8343  -17.6829 C   0  0  0  0  0  0  0  0  0  0  0  0
   40.4587   11.2687  -18.4077 C   0  0  0  0  0  0  0  0  0  0  0  0
   39.2184   11.3689  -17.8994 N   0  0  0  0  0  0  0  0  0  0  0  0
   38.9519   11.9882  -16.7341 C   0  0  0  0  0  0  0  0  0  0  0  0
   39.9859   12.5517  -16.0150 C   0  0  0  0  0  0  0  0  0  0  0  0
   37.6257   12.0835  -16.2116 N   0  0  0  0  0  0  0  0  0  0  0  0
   36.5366   11.4511  -16.5741 N   0  0  0  0  0  0  0  0  0  0  0  0
   35.4668   11.8076  -15.8411 C   0  0  0  0  0  0  0  0  0  0  0  0
   35.9245   12.7443  -14.9414 C   0  0  0  0  0  0  0  0  0  0  0  0
   35.3452   13.4861  -13.9334 C   0  0  0  0  0  0  0  0  0  0  0  0
   36.1002   14.3774  -13.1776 C   0  0  0  0  0  0  0  0  0  0  0  0
   37.4476   14.5468  -13.4118 C   0  0  0  0  0  0  0  0  0  0  0  0
   38.0120   13.7986  -14.4224 C   0  0  0  0  0  0  0  0  0  0  0  0
   37.2869   12.9027  -15.1926 C   0  0  0  0  0  0  0  0  0  0  0  0
   34.1022   11.3091  -15.9681 C   0  0  0  0  0  0  0  0  0  0  0  0
   33.2357   11.0717  -14.9039 N   0  0  0  0  0  0  0  0  0  0  0  0
   33.6396   11.0624  -17.1346 O   0  0  0  0  0  0  0  0  0  0  0  0
   32.6421   11.8260  -14.4553 H   0  0  0  0  0  0  0  0  0  0  0  0
   33.1078   10.1169  -14.4653 H   0  0  0  0  0  0  0  0  0  0  0  0
   43.2752   13.5818  -15.1104 C   0  0  0  0  0  0  0  0  0  0  0  0
   42.3735   13.0732  -15.7313 C   0  0  0  0  0  0  0  0  0  0  0  0
   44.2812   14.5307  -10.5917 C   0  0  0  0  0  0  0  0  0  0  0  0
   44.3022   14.1176  -11.9912 N   0  0  0  0  0  0  0  0  0  0  0  0
   44.7518   12.8148  -12.4995 C   0  0  0  0  0  0  0  0  0  0  0  0
   45.3400   13.1820  -13.8250 C   0  0  0  0  0  0  0  0  0  0  0  0
   44.3811   14.2229  -14.3670 C   0  0  0  0  0  0  0  0  0  0  0  0
   45.0544   15.0712  -15.2169 O   0  0  0  0  0  0  0  0  0  0  0  0
   43.9043   14.8635  -13.1295 C   0  0  0  0  0  0  0  0  0  0  0  0
   43.2395   15.9197  -13.0793 O   0  0  0  0  0  0  0  0  0  0  0  0
   45.8359   14.5852  -15.5735 H   0  0  0  0  0  0  0  0  0  0  0  0
 23 24  1  0  0  0
 24 25  1  0  0  0
 25 26  1  0  0  0
 26 27  1  0  0  0
 27 28  1  0  0  0
 27 21  1  0  0  0
 21 22  3  0  0  0
 22  1  1  0  0  0
  1  2  2  0  0  0
  2  3  1  0  0  0
  3  4  2  0  0  0
  4  5  1  0  0  0
  5  6  2  0  0  0
  5  7  1  0  0  0
  7  8  1  0  0  0
  8  9  2  0  0  0
  9 16  1  0  0  0
 16 17  1  0  0  0
 16 18  2  0  0  0
  9 10  1  0  0  0
 10 11  2  0  0  0
 11 12  1  0  0  0
 12 13  2  0  0  0
 13 14  1  0  0  0
 14 15  2  0  0  0
 27 29  1  0  0  0
 29 30  2  0  0  0
 29 24  1  0  0  0
  6  1  1  0  0  0
 15  7  1  0  0  0
 15 10  1  0  0  0
 28 31  1  0  0  0
 17 19  1  0  0  0
 17 20  1  0  0  0
M  END
> <minimizedAffinity>
-9.22657

> <CNNscore>
0.5349261165

> <CNNaffinity>
6.8091521263

> <CNN_VS>
3.6423933506

> <CNNaffinity_variance>
0.1855688244

$$$$
[H]O[C@]1(C#Cc2c([H])c([H])nc(-n3nc(C(=O)N([H])[H])c4c([H])c([H])c([H])c([H])c43)c2[H])C(=O)N(C([H])([H])[H])C([H])([H])C1([H])[H]


 31 34  0  0  0  0  0  0  0  0999 V2000
   35.9773   13.5440  -12.9533 C   0  0  0  0  0  0  0  0  0  0  0  0
   34.9250   12.8754  -13.5618 C   0  0  0  0  0  0  0  0  0  0  0  0
   35.0758   12.1430  -14.7210 C   0  0  0  0  0  0  0  0  0  0  0  0
   36.3050   12.0920  -15.2625 N   0  0  0  0  0  0  0  0  0  0  0  0
   37.3692   12.7169  -14.7244 C   0  0  0  0  0  0  0  0  0  0  0  0
   37.2103   13.4475  -13.5647 C   0  0  0  0  0  0  0  0  0  0  0  0
   38.6677   12.6497  -15.3164 N   0  0  0  0  0  0  0  0  0  0  0  0
   39.8137   13.1045  -14.8723 N   0  0  0  0  0  0  0  0  0  0  0  0
   40.8298   12.8495  -15.7157 C   0  0  0  0  0  0  0  0  0  0  0  0
   40.2729   12.1768  -16.7804 C   0  0  0  0  0  0  0  0  0  0  0  0
   40.7616   11.6449  -17.9553 C   0  0  0  0  0  0  0  0  0  0  0  0
   39.9163   11.0046  -18.8559 C   0  0  0  0  0  0  0  0  0  0  0  0
   38.5672   10.8817  -18.6031 C   0  0  0  0  0  0  0  0  0  0  0  0
   38.0940   11.4182  -17.4250 C   0  0  0  0  0  0  0  0  0  0  0  0
   38.9103   12.0619  -16.5079 C   0  0  0  0  0  0  0  0  0  0  0  0
   42.2327   13.2085  -15.5439 C   0  0  0  0  0  0  0  0  0  0  0  0
   43.1273   13.4561  -16.5822 N   0  0  0  0  0  0  0  0  0  0  0  0
   42.7047   13.3110  -14.3597 O   0  0  0  0  0  0  0  0  0  0  0  0
   43.2151   14.3949  -17.0655 H   0  0  0  0  0  0  0  0  0  0  0  0
   43.7863   12.7211  -16.9643 H   0  0  0  0  0  0  0  0  0  0  0  0
   35.6722   14.9402  -10.7215 C   0  0  0  0  0  0  0  0  0  0  0  0
   35.8003   14.3054  -11.7403 C   0  0  0  0  0  0  0  0  0  0  0  0
   38.0965   15.3997   -6.6912 C   0  0  0  0  0  0  0  0  0  0  0  0
   37.3405   15.6102   -7.9216 N   0  0  0  0  0  0  0  0  0  0  0  0
   37.6977   16.5342   -9.0062 C   0  0  0  0  0  0  0  0  0  0  0  0
   36.3550   16.9700   -9.5012 C   0  0  0  0  0  0  0  0  0  0  0  0
   35.5285   15.7003   -9.4612 C   0  0  0  0  0  0  0  0  0  0  0  0
   34.2012   16.0201   -9.2843 O   0  0  0  0  0  0  0  0  0  0  0  0
   36.1328   14.9858   -8.3239 C   0  0  0  0  0  0  0  0  0  0  0  0
   35.6542   13.9679   -7.7809 O   0  0  0  0  0  0  0  0  0  0  0  0
   34.0625   16.9362   -9.6245 H   0  0  0  0  0  0  0  0  0  0  0  0
 23 24  1  0  0  0
 24 25  1  0  0  0
 25 26  1  0  0  0
 26 27  1  0  0  0
 27 28  1  0  0  0
 27 21  1  0  0  0
 21 22  3  0  0  0
 22  1  1  0  0  0
  1  2  2  0  0  0
  2  3  1  0  0  0
  3  4  2  0  0  0
  4  5  1  0  0  0
  5  6  2  0  0  0
  5  7  1  0  0  0
  7  8  1  0  0  0
  8  9  2  0  0  0
  9 16  1  0  0  0
 16 17  1  0  0  0
 16 18  2  0  0  0
  9 10  1  0  0  0
 10 11  2  0  0  0
 11 12  1  0  0  0
 12 13  2  0  0  0
 13 14  1  0  0  0
 14 15  2  0  0  0
 27 29  1  0  0  0
 29 30  2  0  0  0
 29 24  1  0  0  0
  6  1  1  0  0  0
 15  7  1  0  0  0
 15 10  1  0  0  0
 28 31  1  0  0  0
 17 19  1  0  0  0
 17 20  1  0  0  0
M  END
> <minimizedAffinity>
-8.81451

> <CNNscore>
0.5106737614

> <CNNaffinity>
6.4057817459

> <CNN_VS>
3.2712645531

> <CNNaffinity_variance>
0.1257234514

$$$$
[H]O[C@]1(C#Cc2c([H])c([H])nc(-n3nc(C(=O)N([H])[H])c4c([H])c([H])c([H])c([H])c43)c2[H])C(=O)N(C([H])([H])[H])C([H])([H])C1([H])[H]


 31 34  0  0  0  0  0  0  0  0999 V2000
   41.0999   12.8973  -15.5722 C   0  0  0  0  0  0  0  0  0  0  0  0
   41.2149   12.4202  -16.8698 C   0  0  0  0  0  0  0  0  0  0  0  0
   40.1220   12.0876  -17.6430 C   0  0  0  0  0  0  0  0  0  0  0  0
   38.9062   12.2420  -17.0908 N   0  0  0  0  0  0  0  0  0  0  0  0
   38.7232   12.6996  -15.8380 C   0  0  0  0  0  0  0  0  0  0  0  0
   39.8215   13.0303  -15.0709 C   0  0  0  0  0  0  0  0  0  0  0  0
   37.4217   12.8563  -15.2701 N   0  0  0  0  0  0  0  0  0  0  0  0
   37.0199   13.6473  -14.3056 N   0  0  0  0  0  0  0  0  0  0  0  0
   35.7075   13.5132  -14.0437 C   0  0  0  0  0  0  0  0  0  0  0  0
   35.2468   12.5555  -14.9193 C   0  0  0  0  0  0  0  0  0  0  0  0
   34.0212   11.9714  -15.1621 C   0  0  0  0  0  0  0  0  0  0  0  0
   33.8748   11.0009  -16.1482 C   0  0  0  0  0  0  0  0  0  0  0  0
   34.9472   10.5935  -16.9118 C   0  0  0  0  0  0  0  0  0  0  0  0
   36.1651   11.1863  -16.6574 C   0  0  0  0  0  0  0  0  0  0  0  0
   36.3432   12.1555  -15.6824 C   0  0  0  0  0  0  0  0  0  0  0  0
   34.9283   14.2304  -13.0412 C   0  0  0  0  0  0  0  0  0  0  0  0
   33.6804   14.8081  -13.2617 N   0  0  0  0  0  0  0  0  0  0  0  0
   35.4032   14.3536  -11.8601 O   0  0  0  0  0  0  0  0  0  0  0  0
   32.7699   14.2689  -13.2074 H   0  0  0  0  0  0  0  0  0  0  0  0
   33.5518   15.8313  -13.5003 H   0  0  0  0  0  0  0  0  0  0  0  0
   43.2310   13.5104  -14.1210 C   0  0  0  0  0  0  0  0  0  0  0  0
   42.2552   13.2404  -14.7784 C   0  0  0  0  0  0  0  0  0  0  0  0
   47.7789   14.5019  -14.9365 C   0  0  0  0  0  0  0  0  0  0  0  0
   46.3964   14.4745  -14.4699 N   0  0  0  0  0  0  0  0  0  0  0  0
   45.4767   15.6192  -14.4298 C   0  0  0  0  0  0  0  0  0  0  0  0
   44.6496   15.3141  -13.2212 C   0  0  0  0  0  0  0  0  0  0  0  0
   44.4270   13.8175  -13.3074 C   0  0  0  0  0  0  0  0  0  0  0  0
   44.2471   13.3050  -12.0423 O   0  0  0  0  0  0  0  0  0  0  0  0
   45.6640   13.3687  -13.9689 C   0  0  0  0  0  0  0  0  0  0  0  0
   46.0270   12.1786  -14.0786 O   0  0  0  0  0  0  0  0  0  0  0  0
   43.9091   14.0318  -11.4663 H   0  0  0  0  0  0  0  0  0  0  0  0
 23 24  1  0  0  0
 24 25  1  0  0  0
 25 26  1  0  0  0
 26 27  1  0  0  0
 27 28  1  0  0  0
 27 21  1  0  0  0
 21 22  3  0  0  0
 22  1  1  0  0  0
  1  2  2  0  0  0
  2  3  1  0  0  0
  3  4  2  0  0  0
  4  5  1  0  0  0
  5  6  2  0  0  0
  5  7  1  0  0  0
  7  8  1  0  0  0
  8  9  2  0  0  0
  9 16  1  0  0  0
 16 17  1  0  0  0
 16 18  2  0  0  0
  9 10  1  0  0  0
 10 11  2  0  0  0
 11 12  1  0  0  0
 12 13  2  0  0  0
 13 14  1  0  0  0
 14 15  2  0  0  0
 27 29  1  0  0  0
 29 30  2  0  0  0
 29 24  1  0  0  0
  6  1  1  0  0  0
 15  7  1  0  0  0
 15 10  1  0  0  0
 28 31  1  0  0  0
 17 19  1  0  0  0
 17 20  1  0  0  0
M  END
> <minimizedAffinity>
-9.27413

> <CNNscore>
0.5086775422

> <CNNaffinity>
6.5688490868

> <CNN_VS>
3.3414258957

> <CNNaffinity_variance>
0.1558056772

$$$$
[H]O[C@]1(C#Cc2c([H])c([H])nc(-n3nc(C(=O)N([H])[H])c4c([H])c([H])c([H])c([H])c43)c2[H])C(=O)N(C([H])([H])[H])C([H])([H])C1([H])[H]


 31 34  0  0  0  0  0  0  0  0999 V2000
   35.8623   14.1412  -12.1250 C   0  0  0  0  0  0  0  0  0  0  0  0
   34.6216   14.2571  -12.7348 C   0  0  0  0  0  0  0  0  0  0  0  0
   34.4143   13.9678  -14.0676 C   0  0  0  0  0  0  0  0  0  0  0  0
   35.4768   13.5585  -14.7820 N   0  0  0  0  0  0  0  0  0  0  0  0
   36.7076   13.4245  -14.2534 C   0  0  0  0  0  0  0  0  0  0  0  0
   36.9070   13.7157  -12.9195 C   0  0  0  0  0  0  0  0  0  0  0  0
   37.8238   12.9877  -15.0310 N   0  0  0  0  0  0  0  0  0  0  0  0
   39.0921   13.2987  -14.9214 N   0  0  0  0  0  0  0  0  0  0  0  0
   39.8540   12.6827  -15.8429 C   0  0  0  0  0  0  0  0  0  0  0  0
   38.9888   11.9198  -16.5950 C   0  0  0  0  0  0  0  0  0  0  0  0
   39.1297   11.0693  -17.6715 C   0  0  0  0  0  0  0  0  0  0  0  0
   38.0261   10.4270  -18.2240 C   0  0  0  0  0  0  0  0  0  0  0  0
   36.7604   10.6198  -17.7144 C   0  0  0  0  0  0  0  0  0  0  0  0
   36.6358   11.4725  -16.6388 C   0  0  0  0  0  0  0  0  0  0  0  0
   37.7153   12.1270  -16.0661 C   0  0  0  0  0  0  0  0  0  0  0  0
   41.2977   12.7955  -16.0150 C   0  0  0  0  0  0  0  0  0  0  0  0
   42.0050   12.3667  -17.1355 N   0  0  0  0  0  0  0  0  0  0  0  0
   41.9927   13.3248  -15.0810 O   0  0  0  0  0  0  0  0  0  0  0  0
   42.1160   12.9492  -18.0136 H   0  0  0  0  0  0  0  0  0  0  0  0
   42.4841   11.4245  -17.1902 H   0  0  0  0  0  0  0  0  0  0  0  0
   36.2206   14.6858   -9.5563 C   0  0  0  0  0  0  0  0  0  0  0  0
   36.0600   14.4483  -10.7289 C   0  0  0  0  0  0  0  0  0  0  0  0
   37.5920   18.3525   -6.9093 C   0  0  0  0  0  0  0  0  0  0  0  0
   36.9049   17.2048   -7.4928 N   0  0  0  0  0  0  0  0  0  0  0  0
   35.4707   17.1221   -7.7991 C   0  0  0  0  0  0  0  0  0  0  0  0
   35.1807   15.6754   -7.5526 C   0  0  0  0  0  0  0  0  0  0  0  0
   36.3958   14.9652   -8.1148 C   0  0  0  0  0  0  0  0  0  0  0  0
   36.5808   13.7735   -7.4507 O   0  0  0  0  0  0  0  0  0  0  0  0
   37.4581   15.9576   -7.8788 C   0  0  0  0  0  0  0  0  0  0  0  0
   38.6820   15.7399   -7.9997 O   0  0  0  0  0  0  0  0  0  0  0  0
   35.7073   13.4889   -7.0899 H   0  0  0  0  0  0  0  0  0  0  0  0
 23 24  1  0  0  0
 24 25  1  0  0  0
 25 26  1  0  0  0
 26 27  1  0  0  0
 27 28  1  0  0  0
 27 21  1  0  0  0
 21 22  3  0  0  0
 22  1  1  0  0  0
  1  2  2  0  0  0
  2  3  1  0  0  0
  3  4  2  0  0  0
  4  5  1  0  0  0
  5  6  2  0  0  0
  5  7  1  0  0  0
  7  8  1  0  0  0
  8  9  2  0  0  0
  9 16  1  0  0  0
 16 17  1  0  0  0
 16 18  2  0  0  0
  9 10  1  0  0  0
 10 11  2  0  0  0
 11 12  1  0  0  0
 12 13  2  0  0  0
 13 14  1  0  0  0
 14 15  2  0  0  0
 27 29  1  0  0  0
 29 30  2  0  0  0
 29 24  1  0  0  0
  6  1  1  0  0  0
 15  7  1  0  0  0
 15 10  1  0  0  0
 28 31  1  0  0  0
 17 19  1  0  0  0
 17 20  1  0  0  0
M  END
> <minimizedAffinity>
-8.83827

> <CNNscore>
0.5005377531

> <CNNaffinity>
6.4758720398

> <CNN_VS>
3.2414183617

> <CNNaffinity_variance>
0.3112786710

$$$$
[H]OC(C#Cc1c([H])c([H])c2c(c1[H])-c1nc(C(=O)N([H])[H])c(-c3nn([H])c([H])c3[H])n1C([H])([H])C([H])([H])O2)(C([H])([H])[H])C([H])([H])[H]


 32 35  0  0  0  0  0  0  0  0999 V2000
   42.0030   16.0944  -11.2209 C   0  0  0  0  0  0  0  0  0  0  0  0
   40.7703   16.4760  -10.7352 C   0  0  0  0  0  0  0  0  0  0  0  0
   39.5713   16.0989  -11.3172 C   0  0  0  0  0  0  0  0  0  0  0  0
   39.6370   15.2989  -12.4413 C   0  0  0  0  0  0  0  0  0  0  0  0
   38.3708   14.9581  -12.9726 O   0  0  0  0  0  0  0  0  0  0  0  0
   38.1437   13.7474  -13.6568 C   0  0  0  0  0  0  0  0  0  0  0  0
   38.7543   13.7464  -15.0717 C   0  0  0  0  0  0  0  0  0  0  0  0
   40.1958   13.6188  -15.0509 N   0  0  0  0  0  0  0  0  0  0  0  0
   41.0842   14.0725  -14.1431 C   0  0  0  0  0  0  0  0  0  0  0  0
   42.3208   13.6910  -14.4717 N   0  0  0  0  0  0  0  0  0  0  0  0
   42.2669   12.9603  -15.6392 C   0  0  0  0  0  0  0  0  0  0  0  0
   40.9458   12.9253  -15.9848 C   0  0  0  0  0  0  0  0  0  0  0  0
   40.8591   14.9074  -12.9422 C   0  0  0  0  0  0  0  0  0  0  0  0
   42.0491   15.2964  -12.3435 C   0  0  0  0  0  0  0  0  0  0  0  0
   40.3300   12.2016  -17.1171 C   0  0  0  0  0  0  0  0  0  0  0  0
   39.3006   11.2701  -17.1043 C   0  0  0  0  0  0  0  0  0  0  0  0
   38.9685   10.9041  -18.4167 C   0  0  0  0  0  0  0  0  0  0  0  0
   39.8028   11.6229  -19.1836 N   0  0  0  0  0  0  0  0  0  0  0  0
   40.5798   12.3642  -18.4336 N   0  0  0  0  0  0  0  0  0  0  0  0
   39.7722   11.5437  -20.2361 H   0  0  0  0  0  0  0  0  0  0  0  0
   43.4433   12.4077  -16.2775 C   0  0  0  0  0  0  0  0  0  0  0  0
   43.5764   11.8368  -17.5500 N   0  0  0  0  0  0  0  0  0  0  0  0
   44.5497   12.4294  -15.6139 O   0  0  0  0  0  0  0  0  0  0  0  0
   43.8095   10.8219  -17.6407 H   0  0  0  0  0  0  0  0  0  0  0  0
   43.4630   12.3614  -18.4629 H   0  0  0  0  0  0  0  0  0  0  0  0
   44.2527   16.8835  -10.0344 C   0  0  0  0  0  0  0  0  0  0  0  0
   43.2305   16.5249  -10.5622 C   0  0  0  0  0  0  0  0  0  0  0  0
   45.9778   16.3134   -8.3821 C   0  0  0  0  0  0  0  0  0  0  0  0
   45.4886   17.3285   -9.3946 C   0  0  0  0  0  0  0  0  0  0  0  0
   46.5491   17.4563  -10.4632 C   0  0  0  0  0  0  0  0  0  0  0  0
   45.3364   18.5532   -8.7442 O   0  0  0  0  0  0  0  0  0  0  0  0
   44.4261   18.6305   -8.3613 H   0  0  0  0  0  0  0  0  0  0  0  0
 28 29  1  0  0  0
 29 30  1  0  0  0
 29 31  1  0  0  0
 29 26  1  0  0  0
 26 27  3  0  0  0
 27  1  1  0  0  0
  1  2  2  0  0  0
  2  3  1  0  0  0
  3  4  2  0  0  0
  4  5  1  0  0  0
  5  6  1  0  0  0
  6  7  1  0  0  0
  7  8  1  0  0  0
  8  9  1  0  0  0
  9 10  2  0  0  0
 10 11  1  0  0  0
 11 21  1  0  0  0
 21 22  1  0  0  0
 21 23  2  0  0  0
 11 12  2  0  0  0
 12 15  1  0  0  0
 15 16  1  0  0  0
 16 17  2  0  0  0
 17 18  1  0  0  0
 18 19  1  0  0  0
  9 13  1  0  0  0
 13 14  2  0  0  0
 14  1  1  0  0  0
 13  4  1  0  0  0
 12  8  1  0  0  0
 19 15  2  0  0  0
 31 32  1  0  0  0
 22 24  1  0  0  0
 22 25  1  0  0  0
 18 20  1  0  0  0
M  END
> <minimizedAffinity>
-7.26848

> <CNNscore>
0.5265178680

> <CNNaffinity>
6.2932310104

> <CNN_VS>
3.3134984970

> <CNNaffinity_variance>
0.1567414552

$$$$
[H]OC(C#Cc1c([H])c([H])c2c(c1[H])-c1nc(C(=O)N([H])[H])c(-c3nn([H])c([H])c3[H])n1C([H])([H])C([H])([H])O2)(C([H])([H])[H])C([H])([H])[H]


 32 35  0  0  0  0  0  0  0  0999 V2000
   41.5606   13.4681   -7.5858 C   0  0  0  0  0  0  0  0  0  0  0  0
   41.5341   12.8035   -6.3781 C   0  0  0  0  0  0  0  0  0  0  0  0
   40.5353   12.9768   -5.4342 C   0  0  0  0  0  0  0  0  0  0  0  0
   39.5232   13.8660   -5.7390 C   0  0  0  0  0  0  0  0  0  0  0  0
   38.5439   13.9838   -4.7247 O   0  0  0  0  0  0  0  0  0  0  0  0
   37.1991   14.2925   -5.0103 C   0  0  0  0  0  0  0  0  0  0  0  0
   37.0024   15.7723   -5.3928 C   0  0  0  0  0  0  0  0  0  0  0  0
   37.4918   16.0686   -6.7222 N   0  0  0  0  0  0  0  0  0  0  0  0
   38.5313   15.5316   -7.3932 C   0  0  0  0  0  0  0  0  0  0  0  0
   38.6091   16.0491   -8.6215 N   0  0  0  0  0  0  0  0  0  0  0  0
   37.5934   16.9666   -8.7844 C   0  0  0  0  0  0  0  0  0  0  0  0
   36.9119   16.9674   -7.6006 C   0  0  0  0  0  0  0  0  0  0  0  0
   39.5321   14.5400   -6.9403 C   0  0  0  0  0  0  0  0  0  0  0  0
   40.5426   14.3516   -7.8727 C   0  0  0  0  0  0  0  0  0  0  0  0
   35.6825   17.7185   -7.2698 C   0  0  0  0  0  0  0  0  0  0  0  0
   35.5510   19.0170   -6.7965 C   0  0  0  0  0  0  0  0  0  0  0  0
   34.1941   19.3595   -6.7056 C   0  0  0  0  0  0  0  0  0  0  0  0
   33.5455   18.2624   -7.1261 N   0  0  0  0  0  0  0  0  0  0  0  0
   34.4033   17.3263   -7.4480 N   0  0  0  0  0  0  0  0  0  0  0  0
   32.4904   18.2395   -7.1622 H   0  0  0  0  0  0  0  0  0  0  0  0
   37.4025   17.7216  -10.0050 C   0  0  0  0  0  0  0  0  0  0  0  0
   36.6432   17.3994  -11.1376 N   0  0  0  0  0  0  0  0  0  0  0  0
   37.9960   18.8632  -10.1013 O   0  0  0  0  0  0  0  0  0  0  0  0
   37.1223   17.2273  -12.0506 H   0  0  0  0  0  0  0  0  0  0  0  0
   35.5876   17.3164  -11.1543 H   0  0  0  0  0  0  0  0  0  0  0  0
   43.5388   13.0725   -9.3242 C   0  0  0  0  0  0  0  0  0  0  0  0
   42.6409   13.2418   -8.5386 C   0  0  0  0  0  0  0  0  0  0  0  0
   44.3194   13.4797  -11.6167 C   0  0  0  0  0  0  0  0  0  0  0  0
   44.6341   12.8647  -10.2686 C   0  0  0  0  0  0  0  0  0  0  0  0
   45.8601   13.5596   -9.7237 C   0  0  0  0  0  0  0  0  0  0  0  0
   44.9160   11.5122  -10.4625 O   0  0  0  0  0  0  0  0  0  0  0  0
   44.0852   10.9753  -10.4126 H   0  0  0  0  0  0  0  0  0  0  0  0
 28 29  1  0  0  0
 29 30  1  0  0  0
 29 31  1  0  0  0
 29 26  1  0  0  0
 26 27  3  0  0  0
 27  1  1  0  0  0
  1  2  2  0  0  0
  2  3  1  0  0  0
  3  4  2  0  0  0
  4  5  1  0  0  0
  5  6  1  0  0  0
  6  7  1  0  0  0
  7  8  1  0  0  0
  8  9  1  0  0  0
  9 10  2  0  0  0
 10 11  1  0  0  0
 11 21  1  0  0  0
 21 22  1  0  0  0
 21 23  2  0  0  0
 11 12  2  0  0  0
 12 15  1  0  0  0
 15 16  1  0  0  0
 16 17  2  0  0  0
 17 18  1  0  0  0
 18 19  1  0  0  0
  9 13  1  0  0  0
 13 14  2  0  0  0
 14  1  1  0  0  0
 13  4  1  0  0  0
 12  8  1  0  0  0
 19 15  2  0  0  0
 31 32  1  0  0  0
 22 24  1  0  0  0
 22 25  1  0  0  0
 18 20  1  0  0  0
M  END
> <minimizedAffinity>
-6.06703

> <CNNscore>
0.4124653637

> <CNNaffinity>
5.4240832329

> <CNN_VS>
2.2372465134

> <CNNaffinity_variance>
0.6528790593

$$$$
[H]OC(C#Cc1c([H])c([H])c2c(c1[H])-c1nc(C(=O)N([H])[H])c(-c3nn([H])c([H])c3[H])n1C([H])([H])C([H])([H])O2)(C([H])([H])[H])C([H])([H])[H]


 32 35  0  0  0  0  0  0  0  0999 V2000
   39.7102   12.2268  -16.2197 C   0  0  0  0  0  0  0  0  0  0  0  0
   39.2154   11.2991  -17.1117 C   0  0  0  0  0  0  0  0  0  0  0  0
   37.8721   10.9758  -17.2089 C   0  0  0  0  0  0  0  0  0  0  0  0
   37.0005   11.6285  -16.3590 C   0  0  0  0  0  0  0  0  0  0  0  0
   35.6491   11.2428  -16.5229 O   0  0  0  0  0  0  0  0  0  0  0  0
   34.5796   12.1245  -16.2700 C   0  0  0  0  0  0  0  0  0  0  0  0
   34.3474   12.3527  -14.7637 C   0  0  0  0  0  0  0  0  0  0  0  0
   35.3605   13.1993  -14.1709 N   0  0  0  0  0  0  0  0  0  0  0  0
   36.6680   13.3179  -14.4802 C   0  0  0  0  0  0  0  0  0  0  0  0
   37.2414   14.2568  -13.7237 N   0  0  0  0  0  0  0  0  0  0  0  0
   36.2935   14.7864  -12.8748 C   0  0  0  0  0  0  0  0  0  0  0  0
   35.1358   14.1214  -13.1634 C   0  0  0  0  0  0  0  0  0  0  0  0
   37.4755   12.5583  -15.4605 C   0  0  0  0  0  0  0  0  0  0  0  0
   38.8258   12.8679  -15.3795 C   0  0  0  0  0  0  0  0  0  0  0  0
   33.7935   14.3603  -12.5921 C   0  0  0  0  0  0  0  0  0  0  0  0
   33.3923   15.3187  -11.6713 C   0  0  0  0  0  0  0  0  0  0  0  0
   32.0054   15.2457  -11.4764 C   0  0  0  0  0  0  0  0  0  0  0  0
   31.6083   14.2493  -12.2828 N   0  0  0  0  0  0  0  0  0  0  0  0
   32.6367   13.7464  -12.9193 N   0  0  0  0  0  0  0  0  0  0  0  0
   30.5909   13.9721  -12.3379 H   0  0  0  0  0  0  0  0  0  0  0  0
   36.5924   15.8230  -11.9090 C   0  0  0  0  0  0  0  0  0  0  0  0
   36.2530   17.1821  -11.9329 N   0  0  0  0  0  0  0  0  0  0  0  0
   37.2618   15.4866  -10.8585 O   0  0  0  0  0  0  0  0  0  0  0  0
   37.0059   17.9026  -12.0147 H   0  0  0  0  0  0  0  0  0  0  0  0
   35.2659   17.5601  -11.8681 H   0  0  0  0  0  0  0  0  0  0  0  0
   42.3187   12.7523  -16.1140 C   0  0  0  0  0  0  0  0  0  0  0  0
   41.1367   12.5235  -16.1661 C   0  0  0  0  0  0  0  0  0  0  0  0
   44.2325   13.1582  -14.6296 C   0  0  0  0  0  0  0  0  0  0  0  0
   43.7531   13.0249  -16.0604 C   0  0  0  0  0  0  0  0  0  0  0  0
   44.4762   11.8506  -16.6777 C   0  0  0  0  0  0  0  0  0  0  0  0
   44.0958   14.1915  -16.7446 O   0  0  0  0  0  0  0  0  0  0  0  0
   43.3750   14.8657  -16.6609 H   0  0  0  0  0  0  0  0  0  0  0  0
 28 29  1  0  0  0
 29 30  1  0  0  0
 29 31  1  0  0  0
 29 26  1  0  0  0
 26 27  3  0  0  0
 27  1  1  0  0  0
  1  2  2  0  0  0
  2  3  1  0  0  0
  3  4  2  0  0  0
  4  5  1  0  0  0
  5  6  1  0  0  0
  6  7  1  0  0  0
  7  8  1  0  0  0
  8  9  1  0  0  0
  9 10  2  0  0  0
 10 11  1  0  0  0
 11 21  1  0  0  0
 21 22  1  0  0  0
 21 23  2  0  0  0
 11 12  2  0  0  0
 12 15  1  0  0  0
 15 16  1  0  0  0
 16 17  2  0  0  0
 17 18  1  0  0  0
 18 19  1  0  0  0
  9 13  1  0  0  0
 13 14  2  0  0  0
 14  1  1  0  0  0
 13  4  1  0  0  0
 12  8  1  0  0  0
 19 15  2  0  0  0
 31 32  1  0  0  0
 22 24  1  0  0  0
 22 25  1  0  0  0
 18 20  1  0  0  0
M  END
> <minimizedAffinity>
-10.25066

> <CNNscore>
0.3701772094

> <CNNaffinity>
6.7347960472

> <CNN_VS>
2.4930679798

> <CNNaffinity_variance>
0.0273968130

$$$$
[H]OC(C#Cc1c([H])c([H])c2c(c1[H])-c1nc(C(=O)N([H])[H])c(-c3nn([H])c([H])c3[H])n1C([H])([H])C([H])([H])O2)(C([H])([H])[H])C([H])([H])[H]


 32 35  0  0  0  0  0  0  0  0999 V2000
   43.3730   13.6804   -7.5156 C   0  0  0  0  0  0  0  0  0  0  0  0
   43.6464   13.7785   -6.1678 C   0  0  0  0  0  0  0  0  0  0  0  0
   42.7744   14.3437   -5.2520 C   0  0  0  0  0  0  0  0  0  0  0  0
   41.5745   14.8277   -5.7355 C   0  0  0  0  0  0  0  0  0  0  0  0
   40.7420   15.3866   -4.7373 O   0  0  0  0  0  0  0  0  0  0  0  0
   39.3363   15.3659   -4.8323 C   0  0  0  0  0  0  0  0  0  0  0  0
   38.8005   16.3757   -5.8656 C   0  0  0  0  0  0  0  0  0  0  0  0
   39.0320   15.9467   -7.2283 N   0  0  0  0  0  0  0  0  0  0  0  0
   40.0532   15.2296   -7.7402 C   0  0  0  0  0  0  0  0  0  0  0  0
   39.8557   15.0023   -9.0409 N   0  0  0  0  0  0  0  0  0  0  0  0
   38.6665   15.5867   -9.4206 C   0  0  0  0  0  0  0  0  0  0  0  0
   38.1697   16.1671   -8.2883 C   0  0  0  0  0  0  0  0  0  0  0  0
   41.2830   14.7394   -7.0789 C   0  0  0  0  0  0  0  0  0  0  0  0
   42.1710   14.1689   -7.9800 C   0  0  0  0  0  0  0  0  0  0  0  0
   36.8746   16.8609   -8.1258 C   0  0  0  0  0  0  0  0  0  0  0  0
   35.6406   16.3373   -7.7644 C   0  0  0  0  0  0  0  0  0  0  0  0
   34.6990   17.3693   -7.6413 C   0  0  0  0  0  0  0  0  0  0  0  0
   35.3880   18.4841   -7.9298 N   0  0  0  0  0  0  0  0  0  0  0  0
   36.6333   18.1866   -8.2061 N   0  0  0  0  0  0  0  0  0  0  0  0
   34.9174   19.4293   -7.9134 H   0  0  0  0  0  0  0  0  0  0  0  0
   38.1624   15.5371  -10.7771 C   0  0  0  0  0  0  0  0  0  0  0  0
   38.0553   14.4417  -11.6440 N   0  0  0  0  0  0  0  0  0  0  0  0
   37.7363   16.6383  -11.2974 O   0  0  0  0  0  0  0  0  0  0  0  0
   38.6318   14.4124  -12.5154 H   0  0  0  0  0  0  0  0  0  0  0  0
   37.4152   13.6116  -11.4932 H   0  0  0  0  0  0  0  0  0  0  0  0
   45.1336   12.5890   -9.1892 C   0  0  0  0  0  0  0  0  0  0  0  0
   44.3334   13.0736   -8.4296 C   0  0  0  0  0  0  0  0  0  0  0  0
   47.5249   12.3711   -9.7037 C   0  0  0  0  0  0  0  0  0  0  0  0
   46.1110   12.0008  -10.1020 C   0  0  0  0  0  0  0  0  0  0  0  0
   45.9895   10.4974  -10.0126 C   0  0  0  0  0  0  0  0  0  0  0  0
   45.9112   12.4039  -11.4225 O   0  0  0  0  0  0  0  0  0  0  0  0
   45.5793   13.3366  -11.4527 H   0  0  0  0  0  0  0  0  0  0  0  0
 28 29  1  0  0  0
 29 30  1  0  0  0
 29 31  1  0  0  0
 29 26  1  0  0  0
 26 27  3  0  0  0
 27  1  1  0  0  0
  1  2  2  0  0  0
  2  3  1  0  0  0
  3  4  2  0  0  0
  4  5  1  0  0  0
  5  6  1  0  0  0
  6  7  1  0  0  0
  7  8  1  0  0  0
  8  9  1  0  0  0
  9 10  2  0  0  0
 10 11  1  0  0  0
 11 21  1  0  0  0
 21 22  1  0  0  0
 21 23  2  0  0  0
 11 12  2  0  0  0
 12 15  1  0  0  0
 15 16  1  0  0  0
 16 17  2  0  0  0
 17 18  1  0  0  0
 18 19  1  0  0  0
  9 13  1  0  0  0
 13 14  2  0  0  0
 14  1  1  0  0  0
 13  4  1  0  0  0
 12  8  1  0  0  0
 19 15  2  0  0  0
 31 32  1  0  0  0
 22 24  1  0  0  0
 22 25  1  0  0  0
 18 20  1  0  0  0
M  END
> <minimizedAffinity>
-5.18151

> <CNNscore>
0.3489938676

> <CNNaffinity>
5.2736406326

> <CNN_VS>
1.8404682875

> <CNNaffinity_variance>
0.9112149477

$$$$
[H]OC(C#Cc1c([H])c([H])c2c(c1[H])-c1nc(C(=O)N([H])[H])c(-c3nn([H])c([H])c3[H])n1C([H])([H])C([H])([H])O2)(C([H])([H])[H])C([H])([H])[H]


 32 35  0  0  0  0  0  0  0  0999 V2000
   39.5284   14.8544   -7.3085 C   0  0  0  0  0  0  0  0  0  0  0  0
   39.1443   14.3565   -6.0814 C   0  0  0  0  0  0  0  0  0  0  0  0
   39.9164   13.4780   -5.3394 C   0  0  0  0  0  0  0  0  0  0  0  0
   41.1303   13.0940   -5.8750 C   0  0  0  0  0  0  0  0  0  0  0  0
   41.8566   12.1981   -5.0555 O   0  0  0  0  0  0  0  0  0  0  0  0
   43.2651   12.1574   -5.0504 C   0  0  0  0  0  0  0  0  0  0  0  0
   43.8400   11.4902   -6.3149 C   0  0  0  0  0  0  0  0  0  0  0  0
   43.7360   12.3387   -7.4827 N   0  0  0  0  0  0  0  0  0  0  0  0
   42.7892   13.2441   -7.8038 C   0  0  0  0  0  0  0  0  0  0  0  0
   43.0992   13.8545   -8.9500 N   0  0  0  0  0  0  0  0  0  0  0  0
   44.2901   13.3436   -9.4199 C   0  0  0  0  0  0  0  0  0  0  0  0
   44.6705   12.4068   -8.5014 C   0  0  0  0  0  0  0  0  0  0  0  0
   41.5316   13.5801   -7.0998 C   0  0  0  0  0  0  0  0  0  0  0  0
   40.7426   14.4601   -7.8272 C   0  0  0  0  0  0  0  0  0  0  0  0
   45.9190   11.6155   -8.4864 C   0  0  0  0  0  0  0  0  0  0  0  0
   46.1704   10.3669   -9.0389 C   0  0  0  0  0  0  0  0  0  0  0  0
   47.5207   10.0295   -8.8675 C   0  0  0  0  0  0  0  0  0  0  0  0
   48.0463   11.0805   -8.2194 N   0  0  0  0  0  0  0  0  0  0  0  0
   47.1242   11.9855   -8.0042 N   0  0  0  0  0  0  0  0  0  0  0  0
   49.0689   11.0965   -7.9565 H   0  0  0  0  0  0  0  0  0  0  0  0
   44.9026   13.7834  -10.6559 C   0  0  0  0  0  0  0  0  0  0  0  0
   44.5574   13.4705  -11.9773 N   0  0  0  0  0  0  0  0  0  0  0  0
   45.9115   14.5834  -10.5720 O   0  0  0  0  0  0  0  0  0  0  0  0
   45.2190   12.9178  -12.5685 H   0  0  0  0  0  0  0  0  0  0  0  0
   43.6551   13.7585  -12.4509 H   0  0  0  0  0  0  0  0  0  0  0  0
   37.9730   16.5535   -8.6447 C   0  0  0  0  0  0  0  0  0  0  0  0
   38.6699   15.7774   -8.0412 C   0  0  0  0  0  0  0  0  0  0  0  0
   37.9019   18.7445   -9.7516 C   0  0  0  0  0  0  0  0  0  0  0  0
   37.1330   17.4916   -9.3856 C   0  0  0  0  0  0  0  0  0  0  0  0
   36.7079   16.8236  -10.6724 C   0  0  0  0  0  0  0  0  0  0  0  0
   36.0006   17.8711   -8.6646 O   0  0  0  0  0  0  0  0  0  0  0  0
   36.2068   17.9187   -7.6970 H   0  0  0  0  0  0  0  0  0  0  0  0
 28 29  1  0  0  0
 29 30  1  0  0  0
 29 31  1  0  0  0
 29 26  1  0  0  0
 26 27  3  0  0  0
 27  1  1  0  0  0
  1  2  2  0  0  0
  2  3  1  0  0  0
  3  4  2  0  0  0
  4  5  1  0  0  0
  5  6  1  0  0  0
  6  7  1  0  0  0
  7  8  1  0  0  0
  8  9  1  0  0  0
  9 10  2  0  0  0
 10 11  1  0  0  0
 11 21  1  0  0  0
 21 22  1  0  0  0
 21 23  2  0  0  0
 11 12  2  0  0  0
 12 15  1  0  0  0
 15 16  1  0  0  0
 16 17  2  0  0  0
 17 18  1  0  0  0
 18 19  1  0  0  0
  9 13  1  0  0  0
 13 14  2  0  0  0
 14  1  1  0  0  0
 13  4  1  0  0  0
 12  8  1  0  0  0
 19 15  2  0  0  0
 31 32  1  0  0  0
 22 24  1  0  0  0
 22 25  1  0  0  0
 18 20  1  0  0  0
M  END
> <minimizedAffinity>
-4.94839

> <CNNscore>
0.3429936171

> <CNNaffinity>
5.1088328362

> <CNN_VS>
1.7522970438

> <CNNaffinity_variance>
0.5562294722

$$$$
[H]OC(C#Cc1c([H])c([H])c2c(c1[H])-c1nc(C(=O)N([H])[H])c(-c3nn([H])c([H])c3[H])n1C([H])([H])C([H])([H])O2)(C([H])([H])[H])C([H])([H])[H]


 32 35  0  0  0  0  0  0  0  0999 V2000
   39.3251   14.8641   -6.3372 C   0  0  0  0  0  0  0  0  0  0  0  0
   39.8485   14.1083   -5.3096 C   0  0  0  0  0  0  0  0  0  0  0  0
   41.0927   13.5023   -5.3660 C   0  0  0  0  0  0  0  0  0  0  0  0
   41.8305   13.6771   -6.5205 C   0  0  0  0  0  0  0  0  0  0  0  0
   43.0876   13.0282   -6.4970 O   0  0  0  0  0  0  0  0  0  0  0  0
   44.2028   13.5237   -7.2012 C   0  0  0  0  0  0  0  0  0  0  0  0
   44.0930   13.2882   -8.7202 C   0  0  0  0  0  0  0  0  0  0  0  0
   43.1354   14.1731   -9.3483 N   0  0  0  0  0  0  0  0  0  0  0  0
   41.9887   14.6849   -8.8559 C   0  0  0  0  0  0  0  0  0  0  0  0
   41.4260   15.5056   -9.7460 N   0  0  0  0  0  0  0  0  0  0  0  0
   42.2145   15.5472  -10.8758 C   0  0  0  0  0  0  0  0  0  0  0  0
   43.2673   14.7172  -10.6141 C   0  0  0  0  0  0  0  0  0  0  0  0
   41.3248   14.4284   -7.5585 C   0  0  0  0  0  0  0  0  0  0  0  0
   40.0754   15.0275   -7.4815 C   0  0  0  0  0  0  0  0  0  0  0  0
   44.4471   14.4627  -11.4676 C   0  0  0  0  0  0  0  0  0  0  0  0
   44.6031   13.5388  -12.4921 C   0  0  0  0  0  0  0  0  0  0  0  0
   45.8576   13.7012  -13.0977 C   0  0  0  0  0  0  0  0  0  0  0  0
   46.4224   14.7160  -12.4253 N   0  0  0  0  0  0  0  0  0  0  0  0
   45.6098   15.1480  -11.4933 N   0  0  0  0  0  0  0  0  0  0  0  0
   47.3898   15.0576  -12.6756 H   0  0  0  0  0  0  0  0  0  0  0  0
   41.8789   16.3374  -12.0418 C   0  0  0  0  0  0  0  0  0  0  0  0
   40.6299   16.5491  -12.6402 N   0  0  0  0  0  0  0  0  0  0  0  0
   42.8394   16.9554  -12.6421 O   0  0  0  0  0  0  0  0  0  0  0  0
   40.4476   16.1826  -13.6020 H   0  0  0  0  0  0  0  0  0  0  0  0
   39.8251   17.0711  -12.1915 H   0  0  0  0  0  0  0  0  0  0  0  0
   36.9122   15.9678   -6.1099 C   0  0  0  0  0  0  0  0  0  0  0  0
   38.0076   15.4770   -6.2165 C   0  0  0  0  0  0  0  0  0  0  0  0
   35.3065   16.9489   -4.5320 C   0  0  0  0  0  0  0  0  0  0  0  0
   35.5865   16.5658   -5.9706 C   0  0  0  0  0  0  0  0  0  0  0  0
   35.5549   17.8314   -6.7954 C   0  0  0  0  0  0  0  0  0  0  0  0
   34.5719   15.7090   -6.3981 O   0  0  0  0  0  0  0  0  0  0  0  0
   34.8064   14.7680   -6.1964 H   0  0  0  0  0  0  0  0  0  0  0  0
 28 29  1  0  0  0
 29 30  1  0  0  0
 29 31  1  0  0  0
 29 26  1  0  0  0
 26 27  3  0  0  0
 27  1  1  0  0  0
  1  2  2  0  0  0
  2  3  1  0  0  0
  3  4  2  0  0  0
  4  5  1  0  0  0
  5  6  1  0  0  0
  6  7  1  0  0  0
  7  8  1  0  0  0
  8  9  1  0  0  0
  9 10  2  0  0  0
 10 11  1  0  0  0
 11 21  1  0  0  0
 21 22  1  0  0  0
 21 23  2  0  0  0
 11 12  2  0  0  0
 12 15  1  0  0  0
 15 16  1  0  0  0
 16 17  2  0  0  0
 17 18  1  0  0  0
 18 19  1  0  0  0
  9 13  1  0  0  0
 13 14  2  0  0  0
 14  1  1  0  0  0
 13  4  1  0  0  0
 12  8  1  0  0  0
 19 15  2  0  0  0
 31 32  1  0  0  0
 22 24  1  0  0  0
 22 25  1  0  0  0
 18 20  1  0  0  0
M  END
> <minimizedAffinity>
-4.47443

> <CNNscore>
0.3401666284

> <CNNaffinity>
5.4563856125

> <CNN_VS>
1.8560802937

> <CNNaffinity_variance>
0.9697083235

$$$$
[H]OC(C#Cc1c([H])c([H])c2c(c1[H])-c1nc(C(=O)N([H])[H])c(-c3nn([H])c([H])c3[H])n1C([H])([H])C([H])([H])O2)(C([H])([H])[H])C([H])([H])[H]


 32 35  0  0  0  0  0  0  0  0999 V2000
   42.7509   13.9158  -14.1392 C   0  0  0  0  0  0  0  0  0  0  0  0
   43.4953   13.3757  -15.1665 C   0  0  0  0  0  0  0  0  0  0  0  0
   42.9397   12.6740  -16.2236 C   0  0  0  0  0  0  0  0  0  0  0  0
   41.5672   12.5192  -16.2292 C   0  0  0  0  0  0  0  0  0  0  0  0
   41.0805   11.7931  -17.3417 O   0  0  0  0  0  0  0  0  0  0  0  0
   39.8018   12.0218  -17.8878 C   0  0  0  0  0  0  0  0  0  0  0  0
   38.6736   11.4542  -17.0048 C   0  0  0  0  0  0  0  0  0  0  0  0
   38.4530   12.2463  -15.8138 N   0  0  0  0  0  0  0  0  0  0  0  0
   39.3362   12.9486  -15.0747 C   0  0  0  0  0  0  0  0  0  0  0  0
   38.7095   13.5864  -14.0833 N   0  0  0  0  0  0  0  0  0  0  0  0
   37.3621   13.3038  -14.1521 C   0  0  0  0  0  0  0  0  0  0  0  0
   37.2201   12.4733  -15.2273 C   0  0  0  0  0  0  0  0  0  0  0  0
   40.8061   13.0510  -15.2117 C   0  0  0  0  0  0  0  0  0  0  0  0
   41.3829   13.7512  -14.1614 C   0  0  0  0  0  0  0  0  0  0  0  0
   35.9634   11.9351  -15.7896 C   0  0  0  0  0  0  0  0  0  0  0  0
   35.7865   11.0164  -16.8154 C   0  0  0  0  0  0  0  0  0  0  0  0
   34.4240   10.7189  -16.9633 C   0  0  0  0  0  0  0  0  0  0  0  0
   33.8176   11.4628  -16.0253 N   0  0  0  0  0  0  0  0  0  0  0  0
   34.7044   12.1568  -15.3563 N   0  0  0  0  0  0  0  0  0  0  0  0
   32.7685   11.4346  -15.9087 H   0  0  0  0  0  0  0  0  0  0  0  0
   36.3978   13.8303  -13.2091 C   0  0  0  0  0  0  0  0  0  0  0  0
   35.4863   13.1438  -12.3960 N   0  0  0  0  0  0  0  0  0  0  0  0
   36.3414   15.1111  -13.0634 O   0  0  0  0  0  0  0  0  0  0  0  0
   34.4600   13.2545  -12.5605 H   0  0  0  0  0  0  0  0  0  0  0  0
   35.7530   12.5026  -11.5965 H   0  0  0  0  0  0  0  0  0  0  0  0
   43.9407   15.2548  -12.1687 C   0  0  0  0  0  0  0  0  0  0  0  0
   43.3959   14.6449  -13.0537 C   0  0  0  0  0  0  0  0  0  0  0  0
   45.0297   17.3737  -11.5726 C   0  0  0  0  0  0  0  0  0  0  0  0
   44.5947   16.0026  -11.0973 C   0  0  0  0  0  0  0  0  0  0  0  0
   43.5914   16.2012   -9.9851 C   0  0  0  0  0  0  0  0  0  0  0  0
   45.7156   15.3396  -10.5972 O   0  0  0  0  0  0  0  0  0  0  0  0
   46.1754   14.8436  -11.3209 H   0  0  0  0  0  0  0  0  0  0  0  0
 28 29  1  0  0  0
 29 30  1  0  0  0
 29 31  1  0  0  0
 29 26  1  0  0  0
 26 27  3  0  0  0
 27  1  1  0  0  0
  1  2  2  0  0  0
  2  3  1  0  0  0
  3  4  2  0  0  0
  4  5  1  0  0  0
  5  6  1  0  0  0
  6  7  1  0  0  0
  7  8  1  0  0  0
  8  9  1  0  0  0
  9 10  2  0  0  0
 10 11  1  0  0  0
 11 21  1  0  0  0
 21 22  1  0  0  0
 21 23  2  0  0  0
 11 12  2  0  0  0
 12 15  1  0  0  0
 15 16  1  0  0  0
 16 17  2  0  0  0
 17 18  1  0  0  0
 18 19  1  0  0  0
  9 13  1  0  0  0
 13 14  2  0  0  0
 14  1  1  0  0  0
 13  4  1  0  0  0
 12  8  1  0  0  0
 19 15  2  0  0  0
 31 32  1  0  0  0
 22 24  1  0  0  0
 22 25  1  0  0  0
 18 20  1  0  0  0
M  END
> <minimizedAffinity>
-8.70149

> <CNNscore>
0.2784689963

> <CNNaffinity>
6.4772934914

> <CNN_VS>
1.8037253618

> <CNNaffinity_variance>
0.2663114667

$$$$
[H]OC(C#Cc1c([H])c([H])c2c(c1[H])-c1nc(C(=O)N([H])[H])c(-c3nn([H])c([H])c3[H])n1C([H])([H])C([H])([H])O2)(C([H])([H])[H])C([H])([H])[H]


 32 35  0  0  0  0  0  0  0  0999 V2000
   40.7402   15.9921  -12.2403 C   0  0  0  0  0  0  0  0  0  0  0  0
   40.0205   16.4862  -11.1731 C   0  0  0  0  0  0  0  0  0  0  0  0
   38.6927   16.1703  -10.9371 C   0  0  0  0  0  0  0  0  0  0  0  0
   38.0772   15.3142  -11.8294 C   0  0  0  0  0  0  0  0  0  0  0  0
   36.7245   15.0418  -11.5167 O   0  0  0  0  0  0  0  0  0  0  0  0
   36.1075   13.8193  -11.8488 C   0  0  0  0  0  0  0  0  0  0  0  0
   35.7981   13.7050  -13.3541 C   0  0  0  0  0  0  0  0  0  0  0  0
   36.9871   13.4731  -14.1461 N   0  0  0  0  0  0  0  0  0  0  0  0
   38.2493   13.9038  -13.9450 C   0  0  0  0  0  0  0  0  0  0  0  0
   39.0621   13.4172  -14.8858 N   0  0  0  0  0  0  0  0  0  0  0  0
   38.3261   12.6367  -15.7513 C   0  0  0  0  0  0  0  0  0  0  0  0
   37.0447   12.6820  -15.2803 C   0  0  0  0  0  0  0  0  0  0  0  0
   38.7792   14.8103  -12.9021 C   0  0  0  0  0  0  0  0  0  0  0  0
   40.1096   15.1394  -13.1203 C   0  0  0  0  0  0  0  0  0  0  0  0
   35.8686   11.9514  -15.7981 C   0  0  0  0  0  0  0  0  0  0  0  0
   34.6401   11.7282  -15.1910 C   0  0  0  0  0  0  0  0  0  0  0  0
   33.7800   11.0649  -16.0782 C   0  0  0  0  0  0  0  0  0  0  0  0
   34.5098   10.9072  -17.1933 N   0  0  0  0  0  0  0  0  0  0  0  0
   35.7048   11.4171  -17.0268 N   0  0  0  0  0  0  0  0  0  0  0  0
   34.1028   10.4283  -18.0418 H   0  0  0  0  0  0  0  0  0  0  0  0
   38.9069   11.9689  -16.8974 C   0  0  0  0  0  0  0  0  0  0  0  0
   38.5689   10.7361  -17.4709 N   0  0  0  0  0  0  0  0  0  0  0  0
   39.8742   12.5641  -17.5096 O   0  0  0  0  0  0  0  0  0  0  0  0
   39.2537    9.9468  -17.4432 H   0  0  0  0  0  0  0  0  0  0  0  0
   37.6498   10.5250  -17.9527 H   0  0  0  0  0  0  0  0  0  0  0  0
   43.2882   16.6708  -12.6123 C   0  0  0  0  0  0  0  0  0  0  0  0
   42.1370   16.3628  -12.4340 C   0  0  0  0  0  0  0  0  0  0  0  0
   45.2867   17.6471  -11.5712 C   0  0  0  0  0  0  0  0  0  0  0  0
   44.6815   17.0547  -12.8272 C   0  0  0  0  0  0  0  0  0  0  0  0
   45.4635   15.8075  -13.1675 C   0  0  0  0  0  0  0  0  0  0  0  0
   44.8211   17.9846  -13.8578 O   0  0  0  0  0  0  0  0  0  0  0  0
   44.0423   18.5962  -13.8793 H   0  0  0  0  0  0  0  0  0  0  0  0
 28 29  1  0  0  0
 29 30  1  0  0  0
 29 31  1  0  0  0
 29 26  1  0  0  0
 26 27  3  0  0  0
 27  1  1  0  0  0
  1  2  2  0  0  0
  2  3  1  0  0  0
  3  4  2  0  0  0
  4  5  1  0  0  0
  5  6  1  0  0  0
  6  7  1  0  0  0
  7  8  1  0  0  0
  8  9  1  0  0  0
  9 10  2  0  0  0
 10 11  1  0  0  0
 11 21  1  0  0  0
 21 22  1  0  0  0
 21 23  2  0  0  0
 11 12  2  0  0  0
 12 15  1  0  0  0
 15 16  1  0  0  0
 16 17  2  0  0  0
 17 18  1  0  0  0
 18 19  1  0  0  0
  9 13  1  0  0  0
 13 14  2  0  0  0
 14  1  1  0  0  0
 13  4  1  0  0  0
 12  8  1  0  0  0
 19 15  2  0  0  0
 31 32  1  0  0  0
 22 24  1  0  0  0
 22 25  1  0  0  0
 18 20  1  0  0  0
M  END
> <minimizedAffinity>
-8.53409

> <CNNscore>
0.2285709232

> <CNNaffinity>
6.4137868881

> <CNN_VS>
1.4660052061

> <CNNaffinity_variance>
0.3003063798

$$$$
[H]OC(C#Cc1c([H])c([H])c2c(c1[H])-c1nc(C(=O)N([H])[H])c(-c3nn([H])c([H])c3[H])n1C([H])([H])C([H])([H])O2)(C([H])([H])[H])C([H])([H])[H]


 32 35  0  0  0  0  0  0  0  0999 V2000
   40.1026   15.9027   -7.9151 C   0  0  0  0  0  0  0  0  0  0  0  0
   40.6768   15.9552   -6.6626 C   0  0  0  0  0  0  0  0  0  0  0  0
   39.9431   16.0118   -5.4892 C   0  0  0  0  0  0  0  0  0  0  0  0
   38.5665   16.0144   -5.6025 C   0  0  0  0  0  0  0  0  0  0  0  0
   37.8927   16.0723   -4.3597 O   0  0  0  0  0  0  0  0  0  0  0  0
   36.6241   15.4910   -4.1645 C   0  0  0  0  0  0  0  0  0  0  0  0
   35.4955   16.3014   -4.8310 C   0  0  0  0  0  0  0  0  0  0  0  0
   35.4878   16.1562   -6.2709 N   0  0  0  0  0  0  0  0  0  0  0  0
   36.5200   15.9786   -7.1208 C   0  0  0  0  0  0  0  0  0  0  0  0
   36.0736   15.8347   -8.3708 N   0  0  0  0  0  0  0  0  0  0  0  0
   34.6979   15.9213   -8.3662 C   0  0  0  0  0  0  0  0  0  0  0  0
   34.3514   16.1208   -7.0602 C   0  0  0  0  0  0  0  0  0  0  0  0
   37.9738   15.9629   -6.8449 C   0  0  0  0  0  0  0  0  0  0  0  0
   38.7277   15.9065   -8.0087 C   0  0  0  0  0  0  0  0  0  0  0  0
   32.9890   16.2041   -6.4926 C   0  0  0  0  0  0  0  0  0  0  0  0
   32.2901   17.3209   -6.0547 C   0  0  0  0  0  0  0  0  0  0  0  0
   30.9903   16.9553   -5.6756 C   0  0  0  0  0  0  0  0  0  0  0  0
   30.9397   15.6324   -5.8953 N   0  0  0  0  0  0  0  0  0  0  0  0
   32.0871   15.2081   -6.3633 N   0  0  0  0  0  0  0  0  0  0  0  0
   30.0599   15.0847   -5.6928 H   0  0  0  0  0  0  0  0  0  0  0  0
   33.8984   15.8197   -9.5691 C   0  0  0  0  0  0  0  0  0  0  0  0
   32.5189   15.6142   -9.7024 N   0  0  0  0  0  0  0  0  0  0  0  0
   34.5051   15.9342  -10.7021 O   0  0  0  0  0  0  0  0  0  0  0  0
   32.1662   14.7307  -10.1357 H   0  0  0  0  0  0  0  0  0  0  0  0
   31.7730   16.3012   -9.3971 H   0  0  0  0  0  0  0  0  0  0  0  0
   41.6270   15.7853  -10.0954 C   0  0  0  0  0  0  0  0  0  0  0  0
   40.9306   15.8443   -9.1137 C   0  0  0  0  0  0  0  0  0  0  0  0
   41.8452   16.4583  -12.4470 C   0  0  0  0  0  0  0  0  0  0  0  0
   42.4661   15.7048  -11.2888 C   0  0  0  0  0  0  0  0  0  0  0  0
   43.7909   16.3599  -10.9745 C   0  0  0  0  0  0  0  0  0  0  0  0
   42.6851   14.3879  -11.6938 O   0  0  0  0  0  0  0  0  0  0  0  0
   41.8861   13.8322  -11.5095 H   0  0  0  0  0  0  0  0  0  0  0  0
 28 29  1  0  0  0
 29 30  1  0  0  0
 29 31  1  0  0  0
 29 26  1  0  0  0
 26 27  3  0  0  0
 27  1  1  0  0  0
  1  2  2  0  0  0
  2  3  1  0  0  0
  3  4  2  0  0  0
  4  5  1  0  0  0
  5  6  1  0  0  0
  6  7  1  0  0  0
  7  8  1  0  0  0
  8  9  1  0  0  0
  9 10  2  0  0  0
 10 11  1  0  0  0
 11 21  1  0  0  0
 21 22  1  0  0  0
 21 23  2  0  0  0
 11 12  2  0  0  0
 12 15  1  0  0  0
 15 16  1  0  0  0
 16 17  2  0  0  0
 17 18  1  0  0  0
 18 19  1  0  0  0
  9 13  1  0  0  0
 13 14  2  0  0  0
 14  1  1  0  0  0
 13  4  1  0  0  0
 12  8  1  0  0  0
 19 15  2  0  0  0
 31 32  1  0  0  0
 22 24  1  0  0  0
 22 25  1  0  0  0
 18 20  1  0  0  0
M  END
> <minimizedAffinity>
-5.67891

> <CNNscore>
0.2222793847

> <CNNaffinity>
5.2256212234

> <CNN_VS>
1.1615478992

> <CNNaffinity_variance>
0.7557565570

$$$$
[H]O[C@]1(C#Cc2c([H])c([H])c([H])c(-c3nc(C(=O)N([H])[H])nc([H])c3[H])c2[H])C(=O)N(C([H])([H])[H])C([H])([H])C1([H])[H]


 28 30  0  0  0  0  0  0  0  0999 V2000
   36.7703   13.9688  -13.0359 C   0  0  0  0  0  0  0  0  0  0  0  0
   35.3884   13.9006  -12.8411 C   0  0  0  0  0  0  0  0  0  0  0  0
   34.6135   13.1963  -13.7354 C   0  0  0  0  0  0  0  0  0  0  0  0
   35.2167   12.5765  -14.7989 C   0  0  0  0  0  0  0  0  0  0  0  0
   36.5928   12.6178  -15.0330 C   0  0  0  0  0  0  0  0  0  0  0  0
   37.3430   13.3303  -14.1212 C   0  0  0  0  0  0  0  0  0  0  0  0
   37.1766   11.9394  -16.1807 C   0  0  0  0  0  0  0  0  0  0  0  0
   36.4817   11.0601  -16.9764 C   0  0  0  0  0  0  0  0  0  0  0  0
   37.1005   10.4373  -18.0697 C   0  0  0  0  0  0  0  0  0  0  0  0
   38.3868   10.7089  -18.3345 N   0  0  0  0  0  0  0  0  0  0  0  0
   39.0658   11.5597  -17.5678 C   0  0  0  0  0  0  0  0  0  0  0  0
   38.4599   12.1664  -16.5014 N   0  0  0  0  0  0  0  0  0  0  0  0
   40.4589   11.8357  -17.8780 C   0  0  0  0  0  0  0  0  0  0  0  0
   41.3239   12.5190  -16.9840 N   0  0  0  0  0  0  0  0  0  0  0  0
   40.9227   11.4586  -18.9770 O   0  0  0  0  0  0  0  0  0  0  0  0
   41.6107   13.4909  -17.1878 H   0  0  0  0  0  0  0  0  0  0  0  0
   41.6893   12.0753  -16.1153 H   0  0  0  0  0  0  0  0  0  0  0  0
   38.3266   15.3165  -11.3745 C   0  0  0  0  0  0  0  0  0  0  0  0
   37.6189   14.6900  -12.1321 C   0  0  0  0  0  0  0  0  0  0  0  0
   40.9880   15.0631   -7.3614 C   0  0  0  0  0  0  0  0  0  0  0  0
   40.4814   15.5742   -8.6233 N   0  0  0  0  0  0  0  0  0  0  0  0
   41.3345   16.2918   -9.5631 C   0  0  0  0  0  0  0  0  0  0  0  0
   40.6265   16.0710  -10.8815 C   0  0  0  0  0  0  0  0  0  0  0  0
   39.1705   16.0920  -10.4722 C   0  0  0  0  0  0  0  0  0  0  0  0
   38.7851   17.4409  -10.4313 O   0  0  0  0  0  0  0  0  0  0  0  0
   39.1658   15.4827   -9.1453 C   0  0  0  0  0  0  0  0  0  0  0  0
   38.1977   14.9656   -8.5480 O   0  0  0  0  0  0  0  0  0  0  0  0
   38.1876   17.5693  -11.2282 H   0  0  0  0  0  0  0  0  0  0  0  0
 20 21  1  0  0  0
 21 22  1  0  0  0
 22 23  1  0  0  0
 23 24  1  0  0  0
 24 25  1  0  0  0
 24 18  1  0  0  0
 18 19  3  0  0  0
 19  1  1  0  0  0
  1  2  2  0  0  0
  2  3  1  0  0  0
  3  4  2  0  0  0
  4  5  1  0  0  0
  5  6  2  0  0  0
  5  7  1  0  0  0
  7  8  2  0  0  0
  8  9  1  0  0  0
  9 10  2  0  0  0
 10 11  1  0  0  0
 11 12  2  0  0  0
 11 13  1  0  0  0
 13 14  1  0  0  0
 13 15  2  0  0  0
 24 26  1  0  0  0
 26 27  2  0  0  0
 26 21  1  0  0  0
  6  1  1  0  0  0
 12  7  1  0  0  0
 25 28  1  0  0  0
 14 16  1  0  0  0
 14 17  1  0  0  0
M  END
> <minimizedAffinity>
-8.14943

> <CNNscore>
0.8347425461

> <CNNaffinity>
6.4549093246

> <CNN_VS>
5.3881874084

> <CNNaffinity_variance>
0.1663134396

$$$$
[H]O[C@]1(C#Cc2c([H])c([H])c([H])c(-c3nc(C(=O)N([H])[H])nc([H])c3[H])c2[H])C(=O)N(C([H])([H])[H])C([H])([H])C1([H])[H]


 28 30  0  0  0  0  0  0  0  0999 V2000
   35.7057   13.6391  -12.7999 C   0  0  0  0  0  0  0  0  0  0  0  0
   34.5730   12.9758  -13.2790 C   0  0  0  0  0  0  0  0  0  0  0  0
   34.6652   12.2252  -14.4297 C   0  0  0  0  0  0  0  0  0  0  0  0
   35.8688   12.1452  -15.0808 C   0  0  0  0  0  0  0  0  0  0  0  0
   37.0257   12.7906  -14.6392 C   0  0  0  0  0  0  0  0  0  0  0  0
   36.9032   13.5347  -13.4846 C   0  0  0  0  0  0  0  0  0  0  0  0
   38.2765   12.6686  -15.3735 C   0  0  0  0  0  0  0  0  0  0  0  0
   39.4727   13.1737  -14.9233 C   0  0  0  0  0  0  0  0  0  0  0  0
   40.6454   13.0239  -15.6775 C   0  0  0  0  0  0  0  0  0  0  0  0
   40.5891   12.3782  -16.8516 N   0  0  0  0  0  0  0  0  0  0  0  0
   39.4335   11.8864  -17.2936 C   0  0  0  0  0  0  0  0  0  0  0  0
   38.2905   12.0338  -16.5560 N   0  0  0  0  0  0  0  0  0  0  0  0
   39.4016   11.1910  -18.5697 C   0  0  0  0  0  0  0  0  0  0  0  0
   38.2233   10.5956  -19.0906 N   0  0  0  0  0  0  0  0  0  0  0  0
   40.4527   11.1094  -19.2434 O   0  0  0  0  0  0  0  0  0  0  0  0
   38.1281    9.5664  -19.1002 H   0  0  0  0  0  0  0  0  0  0  0  0
   37.4356   11.1613  -19.4709 H   0  0  0  0  0  0  0  0  0  0  0  0
   35.6078   15.1158  -10.6072 C   0  0  0  0  0  0  0  0  0  0  0  0
   35.6595   14.4327  -11.6062 C   0  0  0  0  0  0  0  0  0  0  0  0
   37.4364   15.7761   -6.1945 C   0  0  0  0  0  0  0  0  0  0  0  0
   36.7390   16.0764   -7.4329 N   0  0  0  0  0  0  0  0  0  0  0  0
   36.7431   17.4129   -8.0159 C   0  0  0  0  0  0  0  0  0  0  0  0
   36.4827   17.1318   -9.4793 C   0  0  0  0  0  0  0  0  0  0  0  0
   35.5333   15.9558   -9.4171 C   0  0  0  0  0  0  0  0  0  0  0  0
   34.2473   16.4881   -9.2365 O   0  0  0  0  0  0  0  0  0  0  0  0
   35.9799   15.2003   -8.2502 C   0  0  0  0  0  0  0  0  0  0  0  0
   35.7533   13.9999   -7.9876 O   0  0  0  0  0  0  0  0  0  0  0  0
   33.7801   16.3541  -10.1153 H   0  0  0  0  0  0  0  0  0  0  0  0
 20 21  1  0  0  0
 21 22  1  0  0  0
 22 23  1  0  0  0
 23 24  1  0  0  0
 24 25  1  0  0  0
 24 18  1  0  0  0
 18 19  3  0  0  0
 19  1  1  0  0  0
  1  2  2  0  0  0
  2  3  1  0  0  0
  3  4  2  0  0  0
  4  5  1  0  0  0
  5  6  2  0  0  0
  5  7  1  0  0  0
  7  8  2  0  0  0
  8  9  1  0  0  0
  9 10  2  0  0  0
 10 11  1  0  0  0
 11 12  2  0  0  0
 11 13  1  0  0  0
 13 14  1  0  0  0
 13 15  2  0  0  0
 24 26  1  0  0  0
 26 27  2  0  0  0
 26 21  1  0  0  0
  6  1  1  0  0  0
 12  7  1  0  0  0
 25 28  1  0  0  0
 14 16  1  0  0  0
 14 17  1  0  0  0
M  END
> <minimizedAffinity>
-7.73905

> <CNNscore>
0.8250502348

> <CNNaffinity>
6.4059319496

> <CNN_VS>
5.2852158546

> <CNNaffinity_variance>
0.2917221189

$$$$
[H]O[C@]1(C#Cc2c([H])c([H])c([H])c(-c3nc(C(=O)N([H])[H])nc([H])c3[H])c2[H])C(=O)N(C([H])([H])[H])C([H])([H])C1([H])[H]


 28 30  0  0  0  0  0  0  0  0999 V2000
   36.3330   13.0116  -13.7628 C   0  0  0  0  0  0  0  0  0  0  0  0
   35.1727   12.4937  -14.3441 C   0  0  0  0  0  0  0  0  0  0  0  0
   35.2529   11.8581  -15.5630 C   0  0  0  0  0  0  0  0  0  0  0  0
   36.4719   11.7474  -16.1801 C   0  0  0  0  0  0  0  0  0  0  0  0
   37.6564   12.2493  -15.6370 C   0  0  0  0  0  0  0  0  0  0  0  0
   37.5453   12.8806  -14.4160 C   0  0  0  0  0  0  0  0  0  0  0  0
   38.9225   12.1015  -16.3397 C   0  0  0  0  0  0  0  0  0  0  0  0
   39.0540   11.4331  -17.5333 C   0  0  0  0  0  0  0  0  0  0  0  0
   40.3025   11.3246  -18.1624 C   0  0  0  0  0  0  0  0  0  0  0  0
   41.3761   11.8831  -17.5844 N   0  0  0  0  0  0  0  0  0  0  0  0
   41.2558   12.5321  -16.4281 C   0  0  0  0  0  0  0  0  0  0  0  0
   40.0364   12.6367  -15.8161 N   0  0  0  0  0  0  0  0  0  0  0  0
   42.4361   13.1279  -15.8242 C   0  0  0  0  0  0  0  0  0  0  0  0
   43.6022   13.4457  -16.5683 N   0  0  0  0  0  0  0  0  0  0  0  0
   42.4322   13.3742  -14.5976 O   0  0  0  0  0  0  0  0  0  0  0  0
   44.4548   12.8718  -16.4582 H   0  0  0  0  0  0  0  0  0  0  0  0
   43.6368   14.2471  -17.2328 H   0  0  0  0  0  0  0  0  0  0  0  0
   36.2523   14.2457  -11.4242 C   0  0  0  0  0  0  0  0  0  0  0  0
   36.3002   13.6818  -12.4952 C   0  0  0  0  0  0  0  0  0  0  0  0
   38.0736   17.8713   -8.8187 C   0  0  0  0  0  0  0  0  0  0  0  0
   37.1468   16.8348   -9.2391 N   0  0  0  0  0  0  0  0  0  0  0  0
   35.7051   16.9755   -9.0729 C   0  0  0  0  0  0  0  0  0  0  0  0
   35.1614   16.0528  -10.1412 C   0  0  0  0  0  0  0  0  0  0  0  0
   36.1699   14.9254  -10.1363 C   0  0  0  0  0  0  0  0  0  0  0  0
   35.7859   14.0487   -9.1098 O   0  0  0  0  0  0  0  0  0  0  0  0
   37.4390   15.5855   -9.8438 C   0  0  0  0  0  0  0  0  0  0  0  0
   38.5905   15.1572  -10.0712 O   0  0  0  0  0  0  0  0  0  0  0  0
   35.4230   13.2373   -9.5772 H   0  0  0  0  0  0  0  0  0  0  0  0
 20 21  1  0  0  0
 21 22  1  0  0  0
 22 23  1  0  0  0
 23 24  1  0  0  0
 24 25  1  0  0  0
 24 18  1  0  0  0
 18 19  3  0  0  0
 19  1  1  0  0  0
  1  2  2  0  0  0
  2  3  1  0  0  0
  3  4  2  0  0  0
  4  5  1  0  0  0
  5  6  2  0  0  0
  5  7  1  0  0  0
  7  8  2  0  0  0
  8  9  1  0  0  0
  9 10  2  0  0  0
 10 11  1  0  0  0
 11 12  2  0  0  0
 11 13  1  0  0  0
 13 14  1  0  0  0
 13 15  2  0  0  0
 24 26  1  0  0  0
 26 27  2  0  0  0
 26 21  1  0  0  0
  6  1  1  0  0  0
 12  7  1  0  0  0
 25 28  1  0  0  0
 14 16  1  0  0  0
 14 17  1  0  0  0
M  END
> <minimizedAffinity>
-8.74730

> <CNNscore>
0.7598633766

> <CNNaffinity>
6.3063416481

> <CNN_VS>
4.7919578552

> <CNNaffinity_variance>
0.1688121110

$$$$
[H]O[C@]1(C#Cc2c([H])c([H])c([H])c(-c3nc(C(=O)N([H])[H])nc([H])c3[H])c2[H])C(=O)N(C([H])([H])[H])C([H])([H])C1([H])[H]


 28 30  0  0  0  0  0  0  0  0999 V2000
   36.2314   13.1411  -14.5227 C   0  0  0  0  0  0  0  0  0  0  0  0
   35.1500   12.3833  -14.9795 C   0  0  0  0  0  0  0  0  0  0  0  0
   35.3339   11.5022  -16.0216 C   0  0  0  0  0  0  0  0  0  0  0  0
   36.5767   11.3879  -16.5886 C   0  0  0  0  0  0  0  0  0  0  0  0
   37.6851   12.1242  -16.1653 C   0  0  0  0  0  0  0  0  0  0  0  0
   37.4708   12.9983  -15.1204 C   0  0  0  0  0  0  0  0  0  0  0  0
   38.9812   11.9599  -16.8070 C   0  0  0  0  0  0  0  0  0  0  0  0
   39.1556   11.3226  -18.0121 C   0  0  0  0  0  0  0  0  0  0  0  0
   40.4314   11.1960  -18.5800 C   0  0  0  0  0  0  0  0  0  0  0  0
   41.4888   11.7060  -17.9316 N   0  0  0  0  0  0  0  0  0  0  0  0
   41.3270   12.3246  -16.7638 C   0  0  0  0  0  0  0  0  0  0  0  0
   40.0810   12.4471  -16.2116 N   0  0  0  0  0  0  0  0  0  0  0  0
   42.4906   12.8681  -16.0830 C   0  0  0  0  0  0  0  0  0  0  0  0
   43.7361   13.0697  -16.7329 N   0  0  0  0  0  0  0  0  0  0  0  0
   42.3988   13.1736  -14.8732 O   0  0  0  0  0  0  0  0  0  0  0  0
   44.5328   12.4456  -16.5228 H   0  0  0  0  0  0  0  0  0  0  0  0
   43.8850   13.8336  -17.4253 H   0  0  0  0  0  0  0  0  0  0  0  0
   35.9539   14.8663  -12.5365 C   0  0  0  0  0  0  0  0  0  0  0  0
   36.0894   14.0717  -13.4407 C   0  0  0  0  0  0  0  0  0  0  0  0
   33.4045   15.8328   -8.5593 C   0  0  0  0  0  0  0  0  0  0  0  0
   34.4847   15.9008   -9.5283 N   0  0  0  0  0  0  0  0  0  0  0  0
   35.8637   16.1560   -9.1294 C   0  0  0  0  0  0  0  0  0  0  0  0
   36.6515   15.5411  -10.2650 C   0  0  0  0  0  0  0  0  0  0  0  0
   35.7743   15.8357  -11.4615 C   0  0  0  0  0  0  0  0  0  0  0  0
   36.0896   17.1382  -11.8786 O   0  0  0  0  0  0  0  0  0  0  0  0
   34.4150   15.7450  -10.9363 C   0  0  0  0  0  0  0  0  0  0  0  0
   33.3599   15.5636  -11.5807 O   0  0  0  0  0  0  0  0  0  0  0  0
   36.5990   17.0249  -12.7366 H   0  0  0  0  0  0  0  0  0  0  0  0
 20 21  1  0  0  0
 21 22  1  0  0  0
 22 23  1  0  0  0
 23 24  1  0  0  0
 24 25  1  0  0  0
 24 18  1  0  0  0
 18 19  3  0  0  0
 19  1  1  0  0  0
  1  2  2  0  0  0
  2  3  1  0  0  0
  3  4  2  0  0  0
  4  5  1  0  0  0
  5  6  2  0  0  0
  5  7  1  0  0  0
  7  8  2  0  0  0
  8  9  1  0  0  0
  9 10  2  0  0  0
 10 11  1  0  0  0
 11 12  2  0  0  0
 11 13  1  0  0  0
 13 14  1  0  0  0
 13 15  2  0  0  0
 24 26  1  0  0  0
 26 27  2  0  0  0
 26 21  1  0  0  0
  6  1  1  0  0  0
 12  7  1  0  0  0
 25 28  1  0  0  0
 14 16  1  0  0  0
 14 17  1  0  0  0
M  END
> <minimizedAffinity>
-8.91697

> <CNNscore>
0.7241792679

> <CNNaffinity>
6.4140005112

> <CNN_VS>
4.6448860168

> <CNNaffinity_variance>
0.1471157521

$$$$
[H]O[C@]1(C#Cc2c([H])c([H])c([H])c(-c3nc(C(=O)N([H])[H])nc([H])c3[H])c2[H])C(=O)N(C([H])([H])[H])C([H])([H])C1([H])[H]


 28 30  0  0  0  0  0  0  0  0999 V2000
   37.3246   14.2205  -12.0154 C   0  0  0  0  0  0  0  0  0  0  0  0
   36.0804   13.5932  -11.9103 C   0  0  0  0  0  0  0  0  0  0  0  0
   35.7002   12.6806  -12.8688 C   0  0  0  0  0  0  0  0  0  0  0  0
   36.5527   12.4073  -13.9068 C   0  0  0  0  0  0  0  0  0  0  0  0
   37.8042   13.0094  -14.0523 C   0  0  0  0  0  0  0  0  0  0  0  0
   38.1578   13.9188  -13.0777 C   0  0  0  0  0  0  0  0  0  0  0  0
   38.6668   12.6787  -15.1770 C   0  0  0  0  0  0  0  0  0  0  0  0
   39.9787   13.0778  -15.2698 C   0  0  0  0  0  0  0  0  0  0  0  0
   40.7596   12.7269  -16.3803 C   0  0  0  0  0  0  0  0  0  0  0  0
   40.2109   11.9927  -17.3593 N   0  0  0  0  0  0  0  0  0  0  0  0
   38.9406   11.6028  -17.2758 C   0  0  0  0  0  0  0  0  0  0  0  0
   38.1804   11.9464  -16.1911 N   0  0  0  0  0  0  0  0  0  0  0  0
   38.3716   10.8078  -18.3515 C   0  0  0  0  0  0  0  0  0  0  0  0
   38.8938   10.8153  -19.6712 N   0  0  0  0  0  0  0  0  0  0  0  0
   37.3798   10.0836  -18.1124 O   0  0  0  0  0  0  0  0  0  0  0  0
   38.3740   11.2910  -20.4273 H   0  0  0  0  0  0  0  0  0  0  0  0
   39.7951   10.3535  -19.9154 H   0  0  0  0  0  0  0  0  0  0  0  0
   38.1559   15.9813  -10.2247 C   0  0  0  0  0  0  0  0  0  0  0  0
   37.7648   15.1777  -11.0424 C   0  0  0  0  0  0  0  0  0  0  0  0
   37.1175   20.1083   -7.9573 C   0  0  0  0  0  0  0  0  0  0  0  0
   37.7630   18.8361   -8.2311 N   0  0  0  0  0  0  0  0  0  0  0  0
   38.2148   17.9543   -7.1614 C   0  0  0  0  0  0  0  0  0  0  0  0
   38.2170   16.5993   -7.8338 C   0  0  0  0  0  0  0  0  0  0  0  0
   38.6499   16.9399   -9.2426 C   0  0  0  0  0  0  0  0  0  0  0  0
   40.0524   16.9937   -9.2289 O   0  0  0  0  0  0  0  0  0  0  0  0
   38.0560   18.2507   -9.4894 C   0  0  0  0  0  0  0  0  0  0  0  0
   37.8322   18.7897  -10.5942 O   0  0  0  0  0  0  0  0  0  0  0  0
   40.3531   16.1727   -9.7229 H   0  0  0  0  0  0  0  0  0  0  0  0
 20 21  1  0  0  0
 21 22  1  0  0  0
 22 23  1  0  0  0
 23 24  1  0  0  0
 24 25  1  0  0  0
 24 18  1  0  0  0
 18 19  3  0  0  0
 19  1  1  0  0  0
  1  2  2  0  0  0
  2  3  1  0  0  0
  3  4  2  0  0  0
  4  5  1  0  0  0
  5  6  2  0  0  0
  5  7  1  0  0  0
  7  8  2  0  0  0
  8  9  1  0  0  0
  9 10  2  0  0  0
 10 11  1  0  0  0
 11 12  2  0  0  0
 11 13  1  0  0  0
 13 14  1  0  0  0
 13 15  2  0  0  0
 24 26  1  0  0  0
 26 27  2  0  0  0
 26 21  1  0  0  0
  6  1  1  0  0  0
 12  7  1  0  0  0
 25 28  1  0  0  0
 14 16  1  0  0  0
 14 17  1  0  0  0
M  END
> <minimizedAffinity>
-7.98366

> <CNNscore>
0.7101700902

> <CNNaffinity>
5.9621210098

> <CNN_VS>
4.2341198921

> <CNNaffinity_variance>
0.0608272851

$$$$
[H]O[C@]1(C#Cc2c([H])c([H])c([H])c(-c3nc(C(=O)N([H])[H])nc([H])c3[H])c2[H])C(=O)N(C([H])([H])[H])C([H])([H])C1([H])[H]


 28 30  0  0  0  0  0  0  0  0999 V2000
   40.4072   12.5390  -16.0615 C   0  0  0  0  0  0  0  0  0  0  0  0
   40.9293   12.0121  -17.2456 C   0  0  0  0  0  0  0  0  0  0  0  0
   40.0923   11.3569  -18.1210 C   0  0  0  0  0  0  0  0  0  0  0  0
   38.7627   11.2360  -17.8103 C   0  0  0  0  0  0  0  0  0  0  0  0
   38.1976   11.7462  -16.6397 C   0  0  0  0  0  0  0  0  0  0  0  0
   39.0598   12.3970  -15.7825 C   0  0  0  0  0  0  0  0  0  0  0  0
   36.7774   11.5867  -16.3639 C   0  0  0  0  0  0  0  0  0  0  0  0
   35.9487   10.7732  -17.0990 C   0  0  0  0  0  0  0  0  0  0  0  0
   34.5870   10.6613  -16.7835 C   0  0  0  0  0  0  0  0  0  0  0  0
   34.0961   11.3608  -15.7499 N   0  0  0  0  0  0  0  0  0  0  0  0
   34.8933   12.1508  -15.0336 C   0  0  0  0  0  0  0  0  0  0  0  0
   36.2218   12.2583  -15.3433 N   0  0  0  0  0  0  0  0  0  0  0  0
   34.3346   12.8974  -13.9186 C   0  0  0  0  0  0  0  0  0  0  0  0
   33.0868   13.5697  -13.9929 N   0  0  0  0  0  0  0  0  0  0  0  0
   34.9739   12.9548  -12.8448 O   0  0  0  0  0  0  0  0  0  0  0  0
   33.0608   14.6018  -14.0415 H   0  0  0  0  0  0  0  0  0  0  0  0
   32.1792   13.0586  -14.0005 H   0  0  0  0  0  0  0  0  0  0  0  0
   41.9452   13.7948  -14.3134 C   0  0  0  0  0  0  0  0  0  0  0  0
   41.2388   13.2294  -15.1188 C   0  0  0  0  0  0  0  0  0  0  0  0
   41.9339   16.0668  -10.0602 C   0  0  0  0  0  0  0  0  0  0  0  0
   42.4480   15.3457  -11.2117 N   0  0  0  0  0  0  0  0  0  0  0  0
   43.5533   14.4014  -11.0999 C   0  0  0  0  0  0  0  0  0  0  0  0
   43.3301   13.4947  -12.2900 C   0  0  0  0  0  0  0  0  0  0  0  0
   42.7973   14.4547  -13.3304 C   0  0  0  0  0  0  0  0  0  0  0  0
   43.9146   15.0552  -13.9312 O   0  0  0  0  0  0  0  0  0  0  0  0
   42.0111   15.4136  -12.5594 C   0  0  0  0  0  0  0  0  0  0  0  0
   41.1102   16.1714  -12.9780 O   0  0  0  0  0  0  0  0  0  0  0  0
   43.9663   14.6560  -14.8512 H   0  0  0  0  0  0  0  0  0  0  0  0
 20 21  1  0  0  0
 21 22  1  0  0  0
 22 23  1  0  0  0
 23 24  1  0  0  0
 24 25  1  0  0  0
 24 18  1  0  0  0
 18 19  3  0  0  0
 19  1  1  0  0  0
  1  2  2  0  0  0
  2  3  1  0  0  0
  3  4  2  0  0  0
  4  5  1  0  0  0
  5  6  2  0  0  0
  5  7  1  0  0  0
  7  8  2  0  0  0
  8  9  1  0  0  0
  9 10  2  0  0  0
 10 11  1  0  0  0
 11 12  2  0  0  0
 11 13  1  0  0  0
 13 14  1  0  0  0
 13 15  2  0  0  0
 24 26  1  0  0  0
 26 27  2  0  0  0
 26 21  1  0  0  0
  6  1  1  0  0  0
 12  7  1  0  0  0
 25 28  1  0  0  0
 14 16  1  0  0  0
 14 17  1  0  0  0
M  END
> <minimizedAffinity>
-9.49541

> <CNNscore>
0.6586069465

> <CNNaffinity>
6.4138588905

> <CNN_VS>
4.2242121696

> <CNNaffinity_variance>
0.0877869725

$$$$
[H]O[C@]1(C#Cc2c([H])c([H])c([H])c(-c3nc(C(=O)N([H])[H])nc([H])c3[H])c2[H])C(=O)N(C([H])([H])[H])C([H])([H])C1([H])[H]


 28 30  0  0  0  0  0  0  0  0999 V2000
   38.2478   14.9961  -11.8822 C   0  0  0  0  0  0  0  0  0  0  0  0
   39.4271   15.7450  -11.8525 C   0  0  0  0  0  0  0  0  0  0  0  0
   40.3422   15.6060  -12.8720 C   0  0  0  0  0  0  0  0  0  0  0  0
   40.0751   14.7342  -13.8955 C   0  0  0  0  0  0  0  0  0  0  0  0
   38.9110   13.9661  -13.9666 C   0  0  0  0  0  0  0  0  0  0  0  0
   38.0134   14.1263  -12.9320 C   0  0  0  0  0  0  0  0  0  0  0  0
   38.6824   13.0564  -15.0795 C   0  0  0  0  0  0  0  0  0  0  0  0
   37.5042   12.3756  -15.2730 C   0  0  0  0  0  0  0  0  0  0  0  0
   37.3446   11.5119  -16.3661 C   0  0  0  0  0  0  0  0  0  0  0  0
   38.3599   11.3544  -17.2281 N   0  0  0  0  0  0  0  0  0  0  0  0
   39.5039   12.0107  -17.0466 C   0  0  0  0  0  0  0  0  0  0  0  0
   39.6574   12.8531  -15.9792 N   0  0  0  0  0  0  0  0  0  0  0  0
   40.5877   11.8211  -17.9965 C   0  0  0  0  0  0  0  0  0  0  0  0
   41.9483   12.0531  -17.6657 N   0  0  0  0  0  0  0  0  0  0  0  0
   40.3185   11.4374  -19.1564 O   0  0  0  0  0  0  0  0  0  0  0  0
   42.4356   12.8821  -18.0447 H   0  0  0  0  0  0  0  0  0  0  0  0
   42.4872   11.4122  -17.0461 H   0  0  0  0  0  0  0  0  0  0  0  0
   36.4445   15.2153   -9.9591 C   0  0  0  0  0  0  0  0  0  0  0  0
   37.2648   15.1063  -10.8437 C   0  0  0  0  0  0  0  0  0  0  0  0
   34.6959   18.3067   -6.6977 C   0  0  0  0  0  0  0  0  0  0  0  0
   34.7640   17.1415   -7.5624 N   0  0  0  0  0  0  0  0  0  0  0  0
   33.5713   16.5553   -8.1622 C   0  0  0  0  0  0  0  0  0  0  0  0
   34.1293   15.8533   -9.3804 C   0  0  0  0  0  0  0  0  0  0  0  0
   35.4712   15.3635   -8.8828 C   0  0  0  0  0  0  0  0  0  0  0  0
   35.2348   14.1464   -8.2250 O   0  0  0  0  0  0  0  0  0  0  0  0
   35.9100   16.4064   -7.9599 C   0  0  0  0  0  0  0  0  0  0  0  0
   37.0742   16.6377   -7.5698 O   0  0  0  0  0  0  0  0  0  0  0  0
   35.6097   13.4403   -8.8328 H   0  0  0  0  0  0  0  0  0  0  0  0
 20 21  1  0  0  0
 21 22  1  0  0  0
 22 23  1  0  0  0
 23 24  1  0  0  0
 24 25  1  0  0  0
 24 18  1  0  0  0
 18 19  3  0  0  0
 19  1  1  0  0  0
  1  2  2  0  0  0
  2  3  1  0  0  0
  3  4  2  0  0  0
  4  5  1  0  0  0
  5  6  2  0  0  0
  5  7  1  0  0  0
  7  8  2  0  0  0
  8  9  1  0  0  0
  9 10  2  0  0  0
 10 11  1  0  0  0
 11 12  2  0  0  0
 11 13  1  0  0  0
 13 14  1  0  0  0
 13 15  2  0  0  0
 24 26  1  0  0  0
 26 27  2  0  0  0
 26 21  1  0  0  0
  6  1  1  0  0  0
 12  7  1  0  0  0
 25 28  1  0  0  0
 14 16  1  0  0  0
 14 17  1  0  0  0
M  END
> <minimizedAffinity>
-7.91823

> <CNNscore>
0.6584068537

> <CNNaffinity>
5.8002610207

> <CNN_VS>
3.8189315796

> <CNNaffinity_variance>
0.1503169239

$$$$
[H]O[C@]1(C#Cc2c([H])c([H])c([H])c(-c3nc(C(=O)N([H])[H])nc([H])c3[H])c2[H])C(=O)N(C([H])([H])[H])C([H])([H])C1([H])[H]


 28 30  0  0  0  0  0  0  0  0999 V2000
   35.4151   14.0551  -13.3435 C   0  0  0  0  0  0  0  0  0  0  0  0
   34.0694   13.6863  -13.4162 C   0  0  0  0  0  0  0  0  0  0  0  0
   33.6672   12.7801  -14.3718 C   0  0  0  0  0  0  0  0  0  0  0  0
   34.5983   12.2589  -15.2322 C   0  0  0  0  0  0  0  0  0  0  0  0
   35.9525   12.5980  -15.1965 C   0  0  0  0  0  0  0  0  0  0  0  0
   36.3257   13.5075  -14.2294 C   0  0  0  0  0  0  0  0  0  0  0  0
   36.8953   12.0111  -16.1373 C   0  0  0  0  0  0  0  0  0  0  0  0
   36.5374   11.0968  -17.0991 C   0  0  0  0  0  0  0  0  0  0  0  0
   37.4931   10.5666  -17.9776 C   0  0  0  0  0  0  0  0  0  0  0  0
   38.7699   10.9625  -17.8703 N   0  0  0  0  0  0  0  0  0  0  0  0
   39.1235   11.8479  -16.9410 C   0  0  0  0  0  0  0  0  0  0  0  0
   38.1891   12.3639  -16.0848 N   0  0  0  0  0  0  0  0  0  0  0  0
   40.5145   12.2592  -16.8474 C   0  0  0  0  0  0  0  0  0  0  0  0
   41.4572   12.0204  -17.8812 N   0  0  0  0  0  0  0  0  0  0  0  0
   40.9054   12.8490  -15.8156 O   0  0  0  0  0  0  0  0  0  0  0  0
   42.1873   11.2997  -17.7551 H   0  0  0  0  0  0  0  0  0  0  0  0
   41.4451   12.5500  -18.7781 H   0  0  0  0  0  0  0  0  0  0  0  0
   36.2941   15.7897  -11.5500 C   0  0  0  0  0  0  0  0  0  0  0  0
   35.8820   14.9949  -12.3659 C   0  0  0  0  0  0  0  0  0  0  0  0
   36.7270   16.6871   -6.8320 C   0  0  0  0  0  0  0  0  0  0  0  0
   36.9837   16.7760   -8.2591 N   0  0  0  0  0  0  0  0  0  0  0  0
   38.3167   17.0390   -8.7881 C   0  0  0  0  0  0  0  0  0  0  0  0
   38.2404   16.4445  -10.1769 C   0  0  0  0  0  0  0  0  0  0  0  0
   36.8130   16.7450  -10.5774 C   0  0  0  0  0  0  0  0  0  0  0  0
   36.8054   18.0550  -11.0810 O   0  0  0  0  0  0  0  0  0  0  0  0
   36.0635   16.6358   -9.3292 C   0  0  0  0  0  0  0  0  0  0  0  0
   34.8351   16.4524   -9.1918 O   0  0  0  0  0  0  0  0  0  0  0  0
   36.6799   17.9563  -12.0725 H   0  0  0  0  0  0  0  0  0  0  0  0
 20 21  1  0  0  0
 21 22  1  0  0  0
 22 23  1  0  0  0
 23 24  1  0  0  0
 24 25  1  0  0  0
 24 18  1  0  0  0
 18 19  3  0  0  0
 19  1  1  0  0  0
  1  2  2  0  0  0
  2  3  1  0  0  0
  3  4  2  0  0  0
  4  5  1  0  0  0
  5  6  2  0  0  0
  5  7  1  0  0  0
  7  8  2  0  0  0
  8  9  1  0  0  0
  9 10  2  0  0  0
 10 11  1  0  0  0
 11 12  2  0  0  0
 11 13  1  0  0  0
 13 14  1  0  0  0
 13 15  2  0  0  0
 24 26  1  0  0  0
 26 27  2  0  0  0
 26 21  1  0  0  0
  6  1  1  0  0  0
 12  7  1  0  0  0
 25 28  1  0  0  0
 14 16  1  0  0  0
 14 17  1  0  0  0
M  END
> <minimizedAffinity>
-8.52623

> <CNNscore>
0.6419300437

> <CNNaffinity>
6.3573427200

> <CNN_VS>
4.0809693336

> <CNNaffinity_variance>
0.1748646051

$$$$
[H]O[C@]1(C#Cc2c([H])c([H])c([H])c(-c3nc(C(=O)N([H])[H])nc([H])c3[H])c2[H])C(=O)N(C([H])([H])[H])C([H])([H])C1([H])[H]


 28 30  0  0  0  0  0  0  0  0999 V2000
   40.6968   15.5019  -12.7064 C   0  0  0  0  0  0  0  0  0  0  0  0
   39.6892   15.8340  -11.7972 C   0  0  0  0  0  0  0  0  0  0  0  0
   38.4314   15.2961  -11.9555 C   0  0  0  0  0  0  0  0  0  0  0  0
   38.1958   14.4450  -13.0038 C   0  0  0  0  0  0  0  0  0  0  0  0
   39.1713   14.0853  -13.9359 C   0  0  0  0  0  0  0  0  0  0  0  0
   40.4208   14.6393  -13.7521 C   0  0  0  0  0  0  0  0  0  0  0  0
   38.8615   13.1761  -15.0294 C   0  0  0  0  0  0  0  0  0  0  0  0
   37.6284   12.5957  -15.2070 C   0  0  0  0  0  0  0  0  0  0  0  0
   37.3913   11.7268  -16.2818 C   0  0  0  0  0  0  0  0  0  0  0  0
   38.3863   11.4648  -17.1419 N   0  0  0  0  0  0  0  0  0  0  0  0
   39.5832   12.0236  -16.9758 C   0  0  0  0  0  0  0  0  0  0  0  0
   39.8123   12.8712  -15.9263 N   0  0  0  0  0  0  0  0  0  0  0  0
   40.6434   11.7219  -17.9234 C   0  0  0  0  0  0  0  0  0  0  0  0
   42.0071   12.0248  -17.6722 N   0  0  0  0  0  0  0  0  0  0  0  0
   40.3501   11.1722  -19.0083 O   0  0  0  0  0  0  0  0  0  0  0  0
   42.4636   12.8008  -18.1800 H   0  0  0  0  0  0  0  0  0  0  0  0
   42.5786   11.4889  -16.9857 H   0  0  0  0  0  0  0  0  0  0  0  0
   43.1415   16.4912  -12.4994 C   0  0  0  0  0  0  0  0  0  0  0  0
   42.0220   16.0364  -12.5834 C   0  0  0  0  0  0  0  0  0  0  0  0
   47.4632   16.4919  -14.6383 C   0  0  0  0  0  0  0  0  0  0  0  0
   46.3704   16.9306  -13.7877 N   0  0  0  0  0  0  0  0  0  0  0  0
   46.1010   18.3428  -13.5450 C   0  0  0  0  0  0  0  0  0  0  0  0
   44.6317   18.3381  -13.1853 C   0  0  0  0  0  0  0  0  0  0  0  0
   44.4912   17.0390  -12.4232 C   0  0  0  0  0  0  0  0  0  0  0  0
   44.8683   17.3088  -11.0985 O   0  0  0  0  0  0  0  0  0  0  0  0
   45.4291   16.1362  -13.0845 C   0  0  0  0  0  0  0  0  0  0  0  0
   45.4315   14.8870  -13.0573 O   0  0  0  0  0  0  0  0  0  0  0  0
   44.0137   17.2898  -10.5714 H   0  0  0  0  0  0  0  0  0  0  0  0
 20 21  1  0  0  0
 21 22  1  0  0  0
 22 23  1  0  0  0
 23 24  1  0  0  0
 24 25  1  0  0  0
 24 18  1  0  0  0
 18 19  3  0  0  0
 19  1  1  0  0  0
  1  2  2  0  0  0
  2  3  1  0  0  0
  3  4  2  0  0  0
  4  5  1  0  0  0
  5  6  2  0  0  0
  5  7  1  0  0  0
  7  8  2  0  0  0
  8  9  1  0  0  0
  9 10  2  0  0  0
 10 11  1  0  0  0
 11 12  2  0  0  0
 11 13  1  0  0  0
 13 14  1  0  0  0
 13 15  2  0  0  0
 24 26  1  0  0  0
 26 27  2  0  0  0
 26 21  1  0  0  0
  6  1  1  0  0  0
 12  7  1  0  0  0
 25 28  1  0  0  0
 14 16  1  0  0  0
 14 17  1  0  0  0
M  END
> <minimizedAffinity>
-7.61192

> <CNNscore>
0.5351862907

> <CNNaffinity>
5.6193561554

> <CNN_VS>
3.0074024200

> <CNNaffinity_variance>
0.0731029212

$$$$
[H]O[C@](C#Cc1c([H])c([H])c2c(c1[H])-n1nc(C(=O)N([H])[H])c(C(=O)N([H])C([H])([H])[H])c1[C@]([H])(C([H])([H])[H])C([H])([H])O2)(c1noc(C([H])([H])[H])c1[H])C([H])([H])[H]


 37 40  0  0  0  0  0  0  0  0999 V2000
   37.0005   12.4197  -15.8445 C   0  0  0  0  0  0  0  0  0  0  0  0
   37.1805   13.1766  -14.7433 C   0  0  0  0  0  0  0  0  0  0  0  0
   38.5020   13.3466  -14.5559 N   0  0  0  0  0  0  0  0  0  0  0  0
   39.1434   12.7100  -15.5251 N   0  0  0  0  0  0  0  0  0  0  0  0
   38.2868   12.1161  -16.3520 C   0  0  0  0  0  0  0  0  0  0  0  0
   38.4967   11.2875  -17.5121 C   0  0  0  0  0  0  0  0  0  0  0  0
   37.8306    9.9110  -17.3541 C   0  0  0  0  0  0  0  0  0  0  0  0
   39.8482   11.0240  -18.0318 C   0  0  0  0  0  0  0  0  0  0  0  0
   40.7862   12.0424  -17.8943 O   0  0  0  0  0  0  0  0  0  0  0  0
   41.3105   12.5307  -16.6826 C   0  0  0  0  0  0  0  0  0  0  0  0
   42.6646   12.7330  -16.6360 C   0  0  0  0  0  0  0  0  0  0  0  0
   43.2360   13.2028  -15.4734 C   0  0  0  0  0  0  0  0  0  0  0  0
   42.5036   13.4899  -14.3192 C   0  0  0  0  0  0  0  0  0  0  0  0
   41.1399   13.2882  -14.3729 C   0  0  0  0  0  0  0  0  0  0  0  0
   40.5797   12.8220  -15.5319 C   0  0  0  0  0  0  0  0  0  0  0  0
   33.5207   10.7831  -16.3054 C   0  0  0  0  0  0  0  0  0  0  0  0
   34.7310   11.3242  -15.7447 N   0  0  0  0  0  0  0  0  0  0  0  0
   35.8080   11.8812  -16.4543 C   0  0  0  0  0  0  0  0  0  0  0  0
   35.7134   11.8962  -17.7045 O   0  0  0  0  0  0  0  0  0  0  0  0
   34.8247   11.2678  -14.6834 H   0  0  0  0  0  0  0  0  0  0  0  0
   36.1272   13.7970  -13.9266 C   0  0  0  0  0  0  0  0  0  0  0  0
   35.9629   15.1654  -13.7526 N   0  0  0  0  0  0  0  0  0  0  0  0
   35.2981   13.0318  -13.3239 O   0  0  0  0  0  0  0  0  0  0  0  0
   36.7608   15.7435  -13.4018 H   0  0  0  0  0  0  0  0  0  0  0  0
   35.0207   15.5889  -13.9854 H   0  0  0  0  0  0  0  0  0  0  0  0
   43.1739   13.9537  -13.1302 C   0  0  0  0  0  0  0  0  0  0  0  0
   43.7134   14.3152  -12.1161 C   0  0  0  0  0  0  0  0  0  0  0  0
   44.3505   14.7194  -10.8661 C   0  0  0  0  0  0  0  0  0  0  0  0
   43.3308   14.8937   -9.7522 C   0  0  0  0  0  0  0  0  0  0  0  0
   45.2675   13.7227  -10.4366 O   0  0  0  0  0  0  0  0  0  0  0  0
   45.1529   12.9357  -11.0226 H   0  0  0  0  0  0  0  0  0  0  0  0
   45.0366   15.9970  -11.0742 C   0  0  0  0  0  0  0  0  0  0  0  0
   44.6069   16.9092  -12.0553 C   0  0  0  0  0  0  0  0  0  0  0  0
   45.4294   18.0102  -12.0129 C   0  0  0  0  0  0  0  0  0  0  0  0
   45.4032   19.2615  -12.8453 C   0  0  0  0  0  0  0  0  0  0  0  0
   46.3063   17.7558  -11.0475 O   0  0  0  0  0  0  0  0  0  0  0  0
   46.0795   16.5916  -10.5040 N   0  0  0  0  0  0  0  0  0  0  0  0
 16 17  1  0  0  0
 17 18  1  0  0  0
 18 19  2  0  0  0
 18  1  1  0  0  0
  1  2  1  0  0  0
  2  3  2  0  0  0
  3  4  1  0  0  0
  4  5  1  0  0  0
  5  6  1  0  0  0
  6  7  1  0  0  0
  6  8  1  0  0  0
  8  9  1  0  0  0
  9 10  1  0  0  0
 10 11  2  0  0  0
 11 12  1  0  0  0
 12 13  2  0  0  0
 13 14  1  0  0  0
 14 15  2  0  0  0
 13 26  1  0  0  0
 26 27  3  0  0  0
 28 27  1  0  0  0
 28 29  1  0  0  0
 28 30  1  0  0  0
 28 32  1  0  0  0
 32 33  1  0  0  0
 33 34  2  0  0  0
 34 35  1  0  0  0
 34 36  1  0  0  0
 36 37  1  0  0  0
  2 21  1  0  0  0
 21 22  1  0  0  0
 21 23  2  0  0  0
  5  1  2  0  0  0
 15 10  1  0  0  0
 37 32  2  0  0  0
  4 15  1  0  0  0
 17 20  1  0  0  0
 30 31  1  0  0  0
 22 24  1  0  0  0
 22 25  1  0  0  0
M  END
> <minimizedAffinity>
-8.29591

> <CNNscore>
0.3854421377

> <CNNaffinity>
7.0628633499

> <CNN_VS>
2.7223250866

> <CNNaffinity_variance>
0.1860821694

$$$$
[H]O[C@](C#Cc1c([H])c([H])c2c(c1[H])-n1nc(C(=O)N([H])[H])c(C(=O)N([H])C([H])([H])[H])c1[C@]([H])(C([H])([H])[H])C([H])([H])O2)(c1noc(C([H])([H])[H])c1[H])C([H])([H])[H]


 37 40  0  0  0  0  0  0  0  0999 V2000
   36.9947   12.2590  -16.0654 C   0  0  0  0  0  0  0  0  0  0  0  0
   37.0580   12.9845  -14.9306 C   0  0  0  0  0  0  0  0  0  0  0  0
   38.3523   13.2203  -14.6488 N   0  0  0  0  0  0  0  0  0  0  0  0
   39.0917   12.6556  -15.5924 N   0  0  0  0  0  0  0  0  0  0  0  0
   38.3268   12.0455  -16.4942 C   0  0  0  0  0  0  0  0  0  0  0  0
   38.6599   11.2722  -17.6635 C   0  0  0  0  0  0  0  0  0  0  0  0
   38.0652    9.8561  -17.5955 C   0  0  0  0  0  0  0  0  0  0  0  0
   40.0556   11.1027  -18.0988 C   0  0  0  0  0  0  0  0  0  0  0  0
   40.9224   12.1657  -17.8653 O   0  0  0  0  0  0  0  0  0  0  0  0
   41.3369   12.6382  -16.6057 C   0  0  0  0  0  0  0  0  0  0  0  0
   42.6711   12.9131  -16.4611 C   0  0  0  0  0  0  0  0  0  0  0  0
   43.1369   13.3716  -15.2479 C   0  0  0  0  0  0  0  0  0  0  0  0
   42.3148   13.5759  -14.1373 C   0  0  0  0  0  0  0  0  0  0  0  0
   40.9715   13.3013  -14.2896 C   0  0  0  0  0  0  0  0  0  0  0  0
   40.5165   12.8469  -15.4984 C   0  0  0  0  0  0  0  0  0  0  0  0
   33.7062   10.3581  -16.8222 C   0  0  0  0  0  0  0  0  0  0  0  0
   34.8419   10.9488  -16.1640 N   0  0  0  0  0  0  0  0  0  0  0  0
   35.8778   11.6778  -16.7715 C   0  0  0  0  0  0  0  0  0  0  0  0
   35.8161   11.8168  -18.0162 O   0  0  0  0  0  0  0  0  0  0  0  0
   34.9119   10.7889  -15.1114 H   0  0  0  0  0  0  0  0  0  0  0  0
   35.9193   13.5158  -14.1675 C   0  0  0  0  0  0  0  0  0  0  0  0
   35.6021   14.8635  -14.0537 N   0  0  0  0  0  0  0  0  0  0  0  0
   35.1605   12.6875  -13.5557 O   0  0  0  0  0  0  0  0  0  0  0  0
   36.3215   15.5386  -13.7062 H   0  0  0  0  0  0  0  0  0  0  0  0
   34.6269   15.1720  -14.3279 H   0  0  0  0  0  0  0  0  0  0  0  0
   42.8777   14.0329  -12.8912 C   0  0  0  0  0  0  0  0  0  0  0  0
   43.3596   14.3780  -11.8429 C   0  0  0  0  0  0  0  0  0  0  0  0
   43.9628   14.7578  -10.5688 C   0  0  0  0  0  0  0  0  0  0  0  0
   45.2610   14.0064  -10.3213 C   0  0  0  0  0  0  0  0  0  0  0  0
   44.2787   16.1430  -10.5676 O   0  0  0  0  0  0  0  0  0  0  0  0
   44.1330   16.4857  -11.4826 H   0  0  0  0  0  0  0  0  0  0  0  0
   43.0271   14.4406   -9.4870 C   0  0  0  0  0  0  0  0  0  0  0  0
   43.1690   13.2747   -8.7126 C   0  0  0  0  0  0  0  0  0  0  0  0
   42.1603   13.2497   -7.7786 C   0  0  0  0  0  0  0  0  0  0  0  0
   41.8593   12.2291   -6.7169 C   0  0  0  0  0  0  0  0  0  0  0  0
   41.4546   14.3546   -7.9950 O   0  0  0  0  0  0  0  0  0  0  0  0
   41.9555   15.0440   -8.9830 N   0  0  0  0  0  0  0  0  0  0  0  0
 16 17  1  0  0  0
 17 18  1  0  0  0
 18 19  2  0  0  0
 18  1  1  0  0  0
  1  2  1  0  0  0
  2  3  2  0  0  0
  3  4  1  0  0  0
  4  5  1  0  0  0
  5  6  1  0  0  0
  6  7  1  0  0  0
  6  8  1  0  0  0
  8  9  1  0  0  0
  9 10  1  0  0  0
 10 11  2  0  0  0
 11 12  1  0  0  0
 12 13  2  0  0  0
 13 14  1  0  0  0
 14 15  2  0  0  0
 13 26  1  0  0  0
 26 27  3  0  0  0
 28 27  1  0  0  0
 28 29  1  0  0  0
 28 30  1  0  0  0
 28 32  1  0  0  0
 32 33  1  0  0  0
 33 34  2  0  0  0
 34 35  1  0  0  0
 34 36  1  0  0  0
 36 37  1  0  0  0
  2 21  1  0  0  0
 21 22  1  0  0  0
 21 23  2  0  0  0
  5  1  2  0  0  0
 15 10  1  0  0  0
 37 32  2  0  0  0
  4 15  1  0  0  0
 17 20  1  0  0  0
 30 31  1  0  0  0
 22 24  1  0  0  0
 22 25  1  0  0  0
M  END
> <minimizedAffinity>
-8.11775

> <CNNscore>
0.3174057603

> <CNNaffinity>
6.9763631821

> <CNN_VS>
2.2143378258

> <CNNaffinity_variance>
0.1141345948

$$$$
[H]O[C@](C#Cc1c([H])c([H])c2c(c1[H])-n1nc(C(=O)N([H])[H])c(C(=O)N([H])C([H])([H])[H])c1[C@]([H])(C([H])([H])[H])C([H])([H])O2)(c1noc(C([H])([H])[H])c1[H])C([H])([H])[H]


 37 40  0  0  0  0  0  0  0  0999 V2000
   44.8244   13.3699  -14.7983 C   0  0  0  0  0  0  0  0  0  0  0  0
   43.8521   12.9461  -15.6307 C   0  0  0  0  0  0  0  0  0  0  0  0
   42.6686   13.3733  -15.1539 N   0  0  0  0  0  0  0  0  0  0  0  0
   42.8923   14.0575  -14.0414 N   0  0  0  0  0  0  0  0  0  0  0  0
   44.1923   14.0954  -13.7599 C   0  0  0  0  0  0  0  0  0  0  0  0
   44.9144   14.6744  -12.6556 C   0  0  0  0  0  0  0  0  0  0  0  0
   45.7511   13.6217  -11.9105 C   0  0  0  0  0  0  0  0  0  0  0  0
   44.2264   15.4536  -11.6136 C   0  0  0  0  0  0  0  0  0  0  0  0
   43.1197   16.1977  -12.0103 O   0  0  0  0  0  0  0  0  0  0  0  0
   41.8969   15.6820  -12.4799 C   0  0  0  0  0  0  0  0  0  0  0  0
   40.7565   16.2478  -11.9740 C   0  0  0  0  0  0  0  0  0  0  0  0
   39.5296   15.7790  -12.3911 C   0  0  0  0  0  0  0  0  0  0  0  0
   39.3772   14.7426  -13.3151 C   0  0  0  0  0  0  0  0  0  0  0  0
   40.5289   14.1791  -13.8243 C   0  0  0  0  0  0  0  0  0  0  0  0
   41.7440   14.6511  -13.4055 C   0  0  0  0  0  0  0  0  0  0  0  0
   48.6287   13.8302  -15.3602 C   0  0  0  0  0  0  0  0  0  0  0  0
   47.2007   14.0111  -15.3485 N   0  0  0  0  0  0  0  0  0  0  0  0
   46.2495   13.1399  -14.7918 C   0  0  0  0  0  0  0  0  0  0  0  0
   46.6861   12.0899  -14.2636 O   0  0  0  0  0  0  0  0  0  0  0  0
   46.8326   14.8844  -15.8388 H   0  0  0  0  0  0  0  0  0  0  0  0
   44.0383   12.2209  -16.8959 C   0  0  0  0  0  0  0  0  0  0  0  0
   43.0067   11.7776  -17.7138 N   0  0  0  0  0  0  0  0  0  0  0  0
   45.2322   11.9699  -17.2803 O   0  0  0  0  0  0  0  0  0  0  0  0
   42.2575   11.1642  -17.3181 H   0  0  0  0  0  0  0  0  0  0  0  0
   43.0088   12.0800  -18.7286 H   0  0  0  0  0  0  0  0  0  0  0  0
   38.0604   14.2867  -13.6845 C   0  0  0  0  0  0  0  0  0  0  0  0
   36.9647   13.8758  -13.9686 C   0  0  0  0  0  0  0  0  0  0  0  0
   35.6389   13.3497  -14.2800 C   0  0  0  0  0  0  0  0  0  0  0  0
   35.0387   12.6137  -13.0929 C   0  0  0  0  0  0  0  0  0  0  0  0
   34.7513   14.4116  -14.6013 O   0  0  0  0  0  0  0  0  0  0  0  0
   35.2158   15.2615  -14.4066 H   0  0  0  0  0  0  0  0  0  0  0  0
   35.7508   12.4132  -15.4010 C   0  0  0  0  0  0  0  0  0  0  0  0
   36.9907   12.1380  -16.0062 C   0  0  0  0  0  0  0  0  0  0  0  0
   36.7876   11.2255  -17.0144 C   0  0  0  0  0  0  0  0  0  0  0  0
   37.7758   10.6052  -17.9621 C   0  0  0  0  0  0  0  0  0  0  0  0
   35.4827   10.9749  -17.0028 O   0  0  0  0  0  0  0  0  0  0  0  0
   34.8824   11.6614  -16.0698 N   0  0  0  0  0  0  0  0  0  0  0  0
 16 17  1  0  0  0
 17 18  1  0  0  0
 18 19  2  0  0  0
 18  1  1  0  0  0
  1  2  1  0  0  0
  2  3  2  0  0  0
  3  4  1  0  0  0
  4  5  1  0  0  0
  5  6  1  0  0  0
  6  7  1  0  0  0
  6  8  1  0  0  0
  8  9  1  0  0  0
  9 10  1  0  0  0
 10 11  2  0  0  0
 11 12  1  0  0  0
 12 13  2  0  0  0
 13 14  1  0  0  0
 14 15  2  0  0  0
 13 26  1  0  0  0
 26 27  3  0  0  0
 28 27  1  0  0  0
 28 29  1  0  0  0
 28 30  1  0  0  0
 28 32  1  0  0  0
 32 33  1  0  0  0
 33 34  2  0  0  0
 34 35  1  0  0  0
 34 36  1  0  0  0
 36 37  1  0  0  0
  2 21  1  0  0  0
 21 22  1  0  0  0
 21 23  2  0  0  0
  5  1  2  0  0  0
 15 10  1  0  0  0
 37 32  2  0  0  0
  4 15  1  0  0  0
 17 20  1  0  0  0
 30 31  1  0  0  0
 22 24  1  0  0  0
 22 25  1  0  0  0
M  END
> <minimizedAffinity>
-9.41649

> <CNNscore>
0.3036925197

> <CNNaffinity>
6.8075470924

> <CNN_VS>
2.0674011707

> <CNNaffinity_variance>
0.1055359468

$$$$
[H]O[C@](C#Cc1c([H])c([H])c2c(c1[H])-n1nc(C(=O)N([H])[H])c(C(=O)N([H])C([H])([H])[H])c1[C@]([H])(C([H])([H])[H])C([H])([H])O2)(c1noc(C([H])([H])[H])c1[H])C([H])([H])[H]


 37 40  0  0  0  0  0  0  0  0999 V2000
   35.4557   11.8913  -15.7699 C   0  0  0  0  0  0  0  0  0  0  0  0
   35.7949   12.7599  -14.7961 C   0  0  0  0  0  0  0  0  0  0  0  0
   37.1250   12.9565  -14.8465 N   0  0  0  0  0  0  0  0  0  0  0  0
   37.6147   12.2263  -15.8379 N   0  0  0  0  0  0  0  0  0  0  0  0
   36.6489   11.5443  -16.4481 C   0  0  0  0  0  0  0  0  0  0  0  0
   36.6863   10.6006  -17.5364 C   0  0  0  0  0  0  0  0  0  0  0  0
   36.0868    9.2440  -17.1318 C   0  0  0  0  0  0  0  0  0  0  0  0
   37.9411   10.2925  -18.2414 C   0  0  0  0  0  0  0  0  0  0  0  0
   38.8652   11.3253  -18.3642 O   0  0  0  0  0  0  0  0  0  0  0  0
   39.5682   11.9405  -17.3112 C   0  0  0  0  0  0  0  0  0  0  0  0
   40.9068   12.1547  -17.5084 C   0  0  0  0  0  0  0  0  0  0  0  0
   41.6488   12.7466  -16.5094 C   0  0  0  0  0  0  0  0  0  0  0  0
   41.1074   13.1481  -15.2860 C   0  0  0  0  0  0  0  0  0  0  0  0
   39.7582   12.9336  -15.0941 C   0  0  0  0  0  0  0  0  0  0  0  0
   39.0278   12.3457  -16.0919 C   0  0  0  0  0  0  0  0  0  0  0  0
   32.5426   10.3762  -17.8238 C   0  0  0  0  0  0  0  0  0  0  0  0
   33.7851   10.9859  -17.4282 N   0  0  0  0  0  0  0  0  0  0  0  0
   34.1926   11.2850  -16.1175 C   0  0  0  0  0  0  0  0  0  0  0  0
   33.3868   11.0064  -15.1980 O   0  0  0  0  0  0  0  0  0  0  0  0
   34.4470   11.2613  -18.2184 H   0  0  0  0  0  0  0  0  0  0  0  0
   34.8745   13.4557  -13.8850 C   0  0  0  0  0  0  0  0  0  0  0  0
   33.8429   14.2937  -14.2893 N   0  0  0  0  0  0  0  0  0  0  0  0
   35.0268   13.2889  -12.6260 O   0  0  0  0  0  0  0  0  0  0  0  0
   34.0490   15.1057  -14.9156 H   0  0  0  0  0  0  0  0  0  0  0  0
   32.8635   14.0810  -13.9474 H   0  0  0  0  0  0  0  0  0  0  0  0
   41.9514   13.7374  -14.2766 C   0  0  0  0  0  0  0  0  0  0  0  0
   42.6837   14.2028  -13.4416 C   0  0  0  0  0  0  0  0  0  0  0  0
   43.6035   14.7424  -12.4444 C   0  0  0  0  0  0  0  0  0  0  0  0
   42.8655   15.2040  -11.1981 C   0  0  0  0  0  0  0  0  0  0  0  0
   44.5257   13.7427  -12.0338 O   0  0  0  0  0  0  0  0  0  0  0  0
   44.2351   12.8848  -12.4283 H   0  0  0  0  0  0  0  0  0  0  0  0
   44.3086   15.8901  -13.0205 C   0  0  0  0  0  0  0  0  0  0  0  0
   44.1347   17.1896  -12.5102 C   0  0  0  0  0  0  0  0  0  0  0  0
   44.9221   18.0499  -13.2385 C   0  0  0  0  0  0  0  0  0  0  0  0
   45.1010   19.5362  -13.1029 C   0  0  0  0  0  0  0  0  0  0  0  0
   45.5332   17.2881  -14.1396 O   0  0  0  0  0  0  0  0  0  0  0  0
   45.1790   16.0387  -14.0139 N   0  0  0  0  0  0  0  0  0  0  0  0
 16 17  1  0  0  0
 17 18  1  0  0  0
 18 19  2  0  0  0
 18  1  1  0  0  0
  1  2  1  0  0  0
  2  3  2  0  0  0
  3  4  1  0  0  0
  4  5  1  0  0  0
  5  6  1  0  0  0
  6  7  1  0  0  0
  6  8  1  0  0  0
  8  9  1  0  0  0
  9 10  1  0  0  0
 10 11  2  0  0  0
 11 12  1  0  0  0
 12 13  2  0  0  0
 13 14  1  0  0  0
 14 15  2  0  0  0
 13 26  1  0  0  0
 26 27  3  0  0  0
 28 27  1  0  0  0
 28 29  1  0  0  0
 28 30  1  0  0  0
 28 32  1  0  0  0
 32 33  1  0  0  0
 33 34  2  0  0  0
 34 35  1  0  0  0
 34 36  1  0  0  0
 36 37  1  0  0  0
  2 21  1  0  0  0
 21 22  1  0  0  0
 21 23  2  0  0  0
  5  1  2  0  0  0
 15 10  1  0  0  0
 37 32  2  0  0  0
  4 15  1  0  0  0
 17 20  1  0  0  0
 30 31  1  0  0  0
 22 24  1  0  0  0
 22 25  1  0  0  0
M  END
> <minimizedAffinity>
-8.90582

> <CNNscore>
0.2756855190

> <CNNaffinity>
7.0737814903

> <CNN_VS>
1.9501391649

> <CNNaffinity_variance>
0.1367688626

$$$$
[H]O[C@](C#Cc1c([H])c([H])c2c(c1[H])-n1nc(C(=O)N([H])[H])c(C(=O)N([H])C([H])([H])[H])c1[C@]([H])(C([H])([H])[H])C([H])([H])O2)(c1noc(C([H])([H])[H])c1[H])C([H])([H])[H]


 37 40  0  0  0  0  0  0  0  0999 V2000
   35.2545   11.7867  -15.7743 C   0  0  0  0  0  0  0  0  0  0  0  0
   35.5185   12.6570  -14.7789 C   0  0  0  0  0  0  0  0  0  0  0  0
   36.8385   12.9175  -14.7812 N   0  0  0  0  0  0  0  0  0  0  0  0
   37.3960   12.2253  -15.7641 N   0  0  0  0  0  0  0  0  0  0  0  0
   36.4852   11.5064  -16.4153 C   0  0  0  0  0  0  0  0  0  0  0  0
   36.6047   10.5807  -17.5131 C   0  0  0  0  0  0  0  0  0  0  0  0
   36.0580    9.1916  -17.1459 C   0  0  0  0  0  0  0  0  0  0  0  0
   37.8959   10.3427  -18.1784 C   0  0  0  0  0  0  0  0  0  0  0  0
   38.7727   11.4201  -18.2568 O   0  0  0  0  0  0  0  0  0  0  0  0
   39.4094   12.0535  -17.1729 C   0  0  0  0  0  0  0  0  0  0  0  0
   40.7420   12.3341  -17.3215 C   0  0  0  0  0  0  0  0  0  0  0  0
   41.4206   12.9469  -16.2905 C   0  0  0  0  0  0  0  0  0  0  0  0
   40.8196   13.3051  -15.0815 C   0  0  0  0  0  0  0  0  0  0  0  0
   39.4766   13.0238  -14.9387 C   0  0  0  0  0  0  0  0  0  0  0  0
   38.8094   12.4155  -15.9680 C   0  0  0  0  0  0  0  0  0  0  0  0
   32.4078   10.3139  -17.9485 C   0  0  0  0  0  0  0  0  0  0  0  0
   33.6086   10.9702  -17.5020 N   0  0  0  0  0  0  0  0  0  0  0  0
   34.0345   11.1256  -16.1723 C   0  0  0  0  0  0  0  0  0  0  0  0
   33.2863   10.6583  -15.2812 O   0  0  0  0  0  0  0  0  0  0  0  0
   34.2183   11.4046  -18.2622 H   0  0  0  0  0  0  0  0  0  0  0  0
   34.5355   13.2953  -13.8914 C   0  0  0  0  0  0  0  0  0  0  0  0
   33.2358   13.6239  -14.2557 N   0  0  0  0  0  0  0  0  0  0  0  0
   34.8919   13.5775  -12.6959 O   0  0  0  0  0  0  0  0  0  0  0  0
   33.0683   14.2260  -15.0944 H   0  0  0  0  0  0  0  0  0  0  0  0
   32.4413   13.2479  -13.6652 H   0  0  0  0  0  0  0  0  0  0  0  0
   41.5998   13.9200  -14.0367 C   0  0  0  0  0  0  0  0  0  0  0  0
   42.2799   14.4401  -13.1900 C   0  0  0  0  0  0  0  0  0  0  0  0
   43.1315   15.0843  -12.1943 C   0  0  0  0  0  0  0  0  0  0  0  0
   44.2792   15.8380  -12.8468 C   0  0  0  0  0  0  0  0  0  0  0  0
   42.3835   16.0338  -11.4475 O   0  0  0  0  0  0  0  0  0  0  0  0
   41.4968   16.1213  -11.8743 H   0  0  0  0  0  0  0  0  0  0  0  0
   43.6903   14.0575  -11.3114 C   0  0  0  0  0  0  0  0  0  0  0  0
   44.4304   12.9751  -11.8213 C   0  0  0  0  0  0  0  0  0  0  0  0
   44.8290   12.1879  -10.7668 C   0  0  0  0  0  0  0  0  0  0  0  0
   45.6361   10.9199  -10.7660 C   0  0  0  0  0  0  0  0  0  0  0  0
   44.3431   12.7823   -9.6822 O   0  0  0  0  0  0  0  0  0  0  0  0
   43.6845   13.8638   -9.9965 N   0  0  0  0  0  0  0  0  0  0  0  0
 16 17  1  0  0  0
 17 18  1  0  0  0
 18 19  2  0  0  0
 18  1  1  0  0  0
  1  2  1  0  0  0
  2  3  2  0  0  0
  3  4  1  0  0  0
  4  5  1  0  0  0
  5  6  1  0  0  0
  6  7  1  0  0  0
  6  8  1  0  0  0
  8  9  1  0  0  0
  9 10  1  0  0  0
 10 11  2  0  0  0
 11 12  1  0  0  0
 12 13  2  0  0  0
 13 14  1  0  0  0
 14 15  2  0  0  0
 13 26  1  0  0  0
 26 27  3  0  0  0
 28 27  1  0  0  0
 28 29  1  0  0  0
 28 30  1  0  0  0
 28 32  1  0  0  0
 32 33  1  0  0  0
 33 34  2  0  0  0
 34 35  1  0  0  0
 34 36  1  0  0  0
 36 37  1  0  0  0
  2 21  1  0  0  0
 21 22  1  0  0  0
 21 23  2  0  0  0
  5  1  2  0  0  0
 15 10  1  0  0  0
 37 32  2  0  0  0
  4 15  1  0  0  0
 17 20  1  0  0  0
 30 31  1  0  0  0
 22 24  1  0  0  0
 22 25  1  0  0  0
M  END
> <minimizedAffinity>
-8.28000

> <CNNscore>
0.2300140411

> <CNNaffinity>
7.0492048264

> <CNN_VS>
1.6214160919

> <CNNaffinity_variance>
0.1783597171

$$$$
[H]O[C@](C#Cc1c([H])c([H])c2c(c1[H])-n1nc(C(=O)N([H])[H])c(C(=O)N([H])C([H])([H])[H])c1[C@]([H])(C([H])([H])[H])C([H])([H])O2)(c1noc(C([H])([H])[H])c1[H])C([H])([H])[H]


 37 40  0  0  0  0  0  0  0  0999 V2000
   37.2999   12.6500  -15.4925 C   0  0  0  0  0  0  0  0  0  0  0  0
   38.5389   12.3269  -15.9147 C   0  0  0  0  0  0  0  0  0  0  0  0
   39.4293   13.0533  -15.2147 N   0  0  0  0  0  0  0  0  0  0  0  0
   38.7620   13.8187  -14.3634 N   0  0  0  0  0  0  0  0  0  0  0  0
   37.4504   13.6265  -14.4786 C   0  0  0  0  0  0  0  0  0  0  0  0
   36.3320   14.2424  -13.8107 C   0  0  0  0  0  0  0  0  0  0  0  0
   35.3650   14.8977  -14.8102 C   0  0  0  0  0  0  0  0  0  0  0  0
   36.5289   15.2278  -12.7353 C   0  0  0  0  0  0  0  0  0  0  0  0
   37.6428   15.0564  -11.9194 O   0  0  0  0  0  0  0  0  0  0  0  0
   38.9885   15.1702  -12.3163 C   0  0  0  0  0  0  0  0  0  0  0  0
   39.8175   15.8741  -11.4834 C   0  0  0  0  0  0  0  0  0  0  0  0
   41.1443   16.0254  -11.8237 C   0  0  0  0  0  0  0  0  0  0  0  0
   41.7038   15.4943  -12.9882 C   0  0  0  0  0  0  0  0  0  0  0  0
   40.8654   14.7830  -13.8215 C   0  0  0  0  0  0  0  0  0  0  0  0
   39.5486   14.6366  -13.4758 C   0  0  0  0  0  0  0  0  0  0  0  0
   33.6657   11.3110  -15.5032 C   0  0  0  0  0  0  0  0  0  0  0  0
   34.9831   11.7322  -15.1042 N   0  0  0  0  0  0  0  0  0  0  0  0
   35.9935   12.2321  -15.9425 C   0  0  0  0  0  0  0  0  0  0  0  0
   35.7275   12.3060  -17.1656 O   0  0  0  0  0  0  0  0  0  0  0  0
   35.2184   11.6248  -14.0691 H   0  0  0  0  0  0  0  0  0  0  0  0
   38.8849   11.2947  -16.9028 C   0  0  0  0  0  0  0  0  0  0  0  0
   37.9723   10.4383  -17.5058 N   0  0  0  0  0  0  0  0  0  0  0  0
   40.1126   11.1626  -17.2365 O   0  0  0  0  0  0  0  0  0  0  0  0
   37.3431    9.8493  -16.9132 H   0  0  0  0  0  0  0  0  0  0  0  0
   37.9395   10.4082  -18.5638 H   0  0  0  0  0  0  0  0  0  0  0  0
   43.0956   15.7159  -13.2918 C   0  0  0  0  0  0  0  0  0  0  0  0
   44.2500   15.9387  -13.5520 C   0  0  0  0  0  0  0  0  0  0  0  0
   45.6411   16.2511  -13.8666 C   0  0  0  0  0  0  0  0  0  0  0  0
   46.6000   15.3469  -13.1088 C   0  0  0  0  0  0  0  0  0  0  0  0
   45.8893   16.0511  -15.2511 O   0  0  0  0  0  0  0  0  0  0  0  0
   45.0899   15.6210  -15.6411 H   0  0  0  0  0  0  0  0  0  0  0  0
   45.9131   17.6401  -13.4887 C   0  0  0  0  0  0  0  0  0  0  0  0
   47.1970   18.0536  -13.0886 C   0  0  0  0  0  0  0  0  0  0  0  0
   47.1504   19.3983  -12.8055 C   0  0  0  0  0  0  0  0  0  0  0  0
   48.2422   20.3202  -12.3393 C   0  0  0  0  0  0  0  0  0  0  0  0
   45.8916   19.7603  -13.0294 O   0  0  0  0  0  0  0  0  0  0  0  0
   45.1755   18.7438  -13.4247 N   0  0  0  0  0  0  0  0  0  0  0  0
 16 17  1  0  0  0
 17 18  1  0  0  0
 18 19  2  0  0  0
 18  1  1  0  0  0
  1  2  1  0  0  0
  2  3  2  0  0  0
  3  4  1  0  0  0
  4  5  1  0  0  0
  5  6  1  0  0  0
  6  7  1  0  0  0
  6  8  1  0  0  0
  8  9  1  0  0  0
  9 10  1  0  0  0
 10 11  2  0  0  0
 11 12  1  0  0  0
 12 13  2  0  0  0
 13 14  1  0  0  0
 14 15  2  0  0  0
 13 26  1  0  0  0
 26 27  3  0  0  0
 28 27  1  0  0  0
 28 29  1  0  0  0
 28 30  1  0  0  0
 28 32  1  0  0  0
 32 33  1  0  0  0
 33 34  2  0  0  0
 34 35  1  0  0  0
 34 36  1  0  0  0
 36 37  1  0  0  0
  2 21  1  0  0  0
 21 22  1  0  0  0
 21 23  2  0  0  0
  5  1  2  0  0  0
 15 10  1  0  0  0
 37 32  2  0  0  0
  4 15  1  0  0  0
 17 20  1  0  0  0
 30 31  1  0  0  0
 22 24  1  0  0  0
 22 25  1  0  0  0
M  END
> <minimizedAffinity>
-7.75532

> <CNNscore>
0.2294189185

> <CNNaffinity>
6.3465967178

> <CNN_VS>
1.4560292959

> <CNNaffinity_variance>
0.2355239093

$$$$
[H]O[C@](C#Cc1c([H])c([H])c2c(c1[H])-n1nc(C(=O)N([H])[H])c(C(=O)N([H])C([H])([H])[H])c1[C@]([H])(C([H])([H])[H])C([H])([H])O2)(c1noc(C([H])([H])[H])c1[H])C([H])([H])[H]


 37 40  0  0  0  0  0  0  0  0999 V2000
   37.0660   12.4799  -15.5913 C   0  0  0  0  0  0  0  0  0  0  0  0
   38.3782   12.3377  -15.8666 C   0  0  0  0  0  0  0  0  0  0  0  0
   39.0784   13.0915  -14.9994 N   0  0  0  0  0  0  0  0  0  0  0  0
   38.2213   13.6956  -14.1892 N   0  0  0  0  0  0  0  0  0  0  0  0
   36.9679   13.3695  -14.4944 C   0  0  0  0  0  0  0  0  0  0  0  0
   35.7079   13.7922  -13.9377 C   0  0  0  0  0  0  0  0  0  0  0  0
   34.7998   14.4246  -15.0049 C   0  0  0  0  0  0  0  0  0  0  0  0
   35.6468   14.6900  -12.7730 C   0  0  0  0  0  0  0  0  0  0  0  0
   36.6629   14.5698  -11.8303 O   0  0  0  0  0  0  0  0  0  0  0  0
   38.0234   14.8694  -12.0325 C   0  0  0  0  0  0  0  0  0  0  0  0
   38.6494   15.5818  -11.0440 C   0  0  0  0  0  0  0  0  0  0  0  0
   39.9795   15.9112  -11.1900 C   0  0  0  0  0  0  0  0  0  0  0  0
   40.7406   15.5557  -12.3060 C   0  0  0  0  0  0  0  0  0  0  0  0
   40.1063   14.8350  -13.2967 C   0  0  0  0  0  0  0  0  0  0  0  0
   38.7848   14.5110  -13.1437 C   0  0  0  0  0  0  0  0  0  0  0  0
   33.6183   10.8179  -16.1839 C   0  0  0  0  0  0  0  0  0  0  0  0
   34.8153   11.3421  -15.5801 N   0  0  0  0  0  0  0  0  0  0  0  0
   35.8872   11.9619  -16.2438 C   0  0  0  0  0  0  0  0  0  0  0  0
   35.8008   12.0559  -17.4912 O   0  0  0  0  0  0  0  0  0  0  0  0
   34.9027   11.2188  -14.5239 H   0  0  0  0  0  0  0  0  0  0  0  0
   38.9688   11.4462  -16.8755 C   0  0  0  0  0  0  0  0  0  0  0  0
   38.2648   10.4896  -17.5960 N   0  0  0  0  0  0  0  0  0  0  0  0
   40.2216   11.5459  -17.1131 O   0  0  0  0  0  0  0  0  0  0  0  0
   37.7063    9.7650  -17.0890 H   0  0  0  0  0  0  0  0  0  0  0  0
   38.3144   10.5241  -18.6532 H   0  0  0  0  0  0  0  0  0  0  0  0
   42.1215   15.9585  -12.4016 C   0  0  0  0  0  0  0  0  0  0  0  0
   43.2849   16.2575  -12.4862 C   0  0  0  0  0  0  0  0  0  0  0  0
   44.7042   16.5798  -12.6017 C   0  0  0  0  0  0  0  0  0  0  0  0
   45.4480   16.2908  -11.3077 C   0  0  0  0  0  0  0  0  0  0  0  0
   45.3082   15.7858  -13.6134 O   0  0  0  0  0  0  0  0  0  0  0  0
   44.6459   15.1126  -13.9032 H   0  0  0  0  0  0  0  0  0  0  0  0
   44.8440   18.0048  -12.9116 C   0  0  0  0  0  0  0  0  0  0  0  0
   43.8067   18.7263  -13.5303 C   0  0  0  0  0  0  0  0  0  0  0  0
   44.2182   20.0290  -13.6861 C   0  0  0  0  0  0  0  0  0  0  0  0
   43.4932   21.1999  -14.2882 C   0  0  0  0  0  0  0  0  0  0  0  0
   45.4463   20.0715  -13.1805 O   0  0  0  0  0  0  0  0  0  0  0  0
   45.8088   18.9011  -12.7321 N   0  0  0  0  0  0  0  0  0  0  0  0
 16 17  1  0  0  0
 17 18  1  0  0  0
 18 19  2  0  0  0
 18  1  1  0  0  0
  1  2  1  0  0  0
  2  3  2  0  0  0
  3  4  1  0  0  0
  4  5  1  0  0  0
  5  6  1  0  0  0
  6  7  1  0  0  0
  6  8  1  0  0  0
  8  9  1  0  0  0
  9 10  1  0  0  0
 10 11  2  0  0  0
 11 12  1  0  0  0
 12 13  2  0  0  0
 13 14  1  0  0  0
 14 15  2  0  0  0
 13 26  1  0  0  0
 26 27  3  0  0  0
 28 27  1  0  0  0
 28 29  1  0  0  0
 28 30  1  0  0  0
 28 32  1  0  0  0
 32 33  1  0  0  0
 33 34  2  0  0  0
 34 35  1  0  0  0
 34 36  1  0  0  0
 36 37  1  0  0  0
  2 21  1  0  0  0
 21 22  1  0  0  0
 21 23  2  0  0  0
  5  1  2  0  0  0
 15 10  1  0  0  0
 37 32  2  0  0  0
  4 15  1  0  0  0
 17 20  1  0  0  0
 30 31  1  0  0  0
 22 24  1  0  0  0
 22 25  1  0  0  0
M  END
> <minimizedAffinity>
-8.05679

> <CNNscore>
0.1997191757

> <CNNaffinity>
6.5646924973

> <CNN_VS>
1.3110949993

> <CNNaffinity_variance>
0.0936437249

$$$$
[H]O[C@](C#Cc1c([H])c([H])c2c(c1[H])-n1nc(C(=O)N([H])[H])c(C(=O)N([H])C([H])([H])[H])c1[C@]([H])(C([H])([H])[H])C([H])([H])O2)(c1noc(C([H])([H])[H])c1[H])C([H])([H])[H]


 37 40  0  0  0  0  0  0  0  0999 V2000
   35.4151   11.8257  -15.8055 C   0  0  0  0  0  0  0  0  0  0  0  0
   35.6854   12.7137  -14.8276 C   0  0  0  0  0  0  0  0  0  0  0  0
   37.0071   12.9656  -14.8358 N   0  0  0  0  0  0  0  0  0  0  0  0
   37.5594   12.2505  -15.8052 N   0  0  0  0  0  0  0  0  0  0  0  0
   36.6435   11.5248  -16.4416 C   0  0  0  0  0  0  0  0  0  0  0  0
   36.7563   10.5769  -17.5209 C   0  0  0  0  0  0  0  0  0  0  0  0
   36.2007    9.1989  -17.1261 C   0  0  0  0  0  0  0  0  0  0  0  0
   38.0454   10.3174  -18.1821 C   0  0  0  0  0  0  0  0  0  0  0  0
   38.9292   11.3873  -18.2823 O   0  0  0  0  0  0  0  0  0  0  0  0
   39.5708   12.0378  -17.2114 C   0  0  0  0  0  0  0  0  0  0  0  0
   40.9050   12.3067  -17.3662 C   0  0  0  0  0  0  0  0  0  0  0  0
   41.5883   12.9353  -16.3479 C   0  0  0  0  0  0  0  0  0  0  0  0
   40.9905   13.3212  -15.1459 C   0  0  0  0  0  0  0  0  0  0  0  0
   39.6457   13.0515  -14.9968 C   0  0  0  0  0  0  0  0  0  0  0  0
   38.9739   12.4274  -16.0135 C   0  0  0  0  0  0  0  0  0  0  0  0
   32.5453   10.3508  -17.9476 C   0  0  0  0  0  0  0  0  0  0  0  0
   33.7512   11.0069  -17.5147 N   0  0  0  0  0  0  0  0  0  0  0  0
   34.1906   11.1649  -16.1898 C   0  0  0  0  0  0  0  0  0  0  0  0
   33.4509   10.7003  -15.2901 O   0  0  0  0  0  0  0  0  0  0  0  0
   34.3536   11.4390  -18.2820 H   0  0  0  0  0  0  0  0  0  0  0  0
   34.7072   13.3759  -13.9524 C   0  0  0  0  0  0  0  0  0  0  0  0
   33.9051   14.4460  -14.3284 N   0  0  0  0  0  0  0  0  0  0  0  0
   34.5788   12.9475  -12.7540 O   0  0  0  0  0  0  0  0  0  0  0  0
   34.3441   15.3125  -14.7165 H   0  0  0  0  0  0  0  0  0  0  0  0
   32.8572   14.3503  -14.2105 H   0  0  0  0  0  0  0  0  0  0  0  0
   41.7753   13.9515  -14.1138 C   0  0  0  0  0  0  0  0  0  0  0  0
   42.3977   14.4874  -13.2333 C   0  0  0  0  0  0  0  0  0  0  0  0
   43.1161   15.1400  -12.1425 C   0  0  0  0  0  0  0  0  0  0  0  0
   44.0579   14.1752  -11.4401 C   0  0  0  0  0  0  0  0  0  0  0  0
   43.9119   16.2044  -12.6449 O   0  0  0  0  0  0  0  0  0  0  0  0
   43.8867   16.1593  -13.6315 H   0  0  0  0  0  0  0  0  0  0  0  0
   42.1450   15.6381  -11.1652 C   0  0  0  0  0  0  0  0  0  0  0  0
   40.8628   16.0647  -11.5569 C   0  0  0  0  0  0  0  0  0  0  0  0
   40.1783   16.4666  -10.4342 C   0  0  0  0  0  0  0  0  0  0  0  0
   38.7814   17.0056  -10.3025 C   0  0  0  0  0  0  0  0  0  0  0  0
   41.0228   16.2842   -9.4246 O   0  0  0  0  0  0  0  0  0  0  0  0
   42.1605   15.8049   -9.8467 N   0  0  0  0  0  0  0  0  0  0  0  0
 16 17  1  0  0  0
 17 18  1  0  0  0
 18 19  2  0  0  0
 18  1  1  0  0  0
  1  2  1  0  0  0
  2  3  2  0  0  0
  3  4  1  0  0  0
  4  5  1  0  0  0
  5  6  1  0  0  0
  6  7  1  0  0  0
  6  8  1  0  0  0
  8  9  1  0  0  0
  9 10  1  0  0  0
 10 11  2  0  0  0
 11 12  1  0  0  0
 12 13  2  0  0  0
 13 14  1  0  0  0
 14 15  2  0  0  0
 13 26  1  0  0  0
 26 27  3  0  0  0
 28 27  1  0  0  0
 28 29  1  0  0  0
 28 30  1  0  0  0
 28 32  1  0  0  0
 32 33  1  0  0  0
 33 34  2  0  0  0
 34 35  1  0  0  0
 34 36  1  0  0  0
 36 37  1  0  0  0
  2 21  1  0  0  0
 21 22  1  0  0  0
 21 23  2  0  0  0
  5  1  2  0  0  0
 15 10  1  0  0  0
 37 32  2  0  0  0
  4 15  1  0  0  0
 17 20  1  0  0  0
 30 31  1  0  0  0
 22 24  1  0  0  0
 22 25  1  0  0  0
M  END
> <minimizedAffinity>
-8.48842

> <CNNscore>
0.1864466518

> <CNNaffinity>
7.1772623062

> <CNN_VS>
1.3381764889

> <CNNaffinity_variance>
0.1990672052

$$$$
[H]O[C@](C#Cc1c([H])c([H])c2c(c1[H])-n1nc(C(=O)N([H])[H])c(C(=O)N([H])C([H])([H])[H])c1[C@]([H])(C([H])([H])[H])C([H])([H])O2)(c1noc(C([H])([H])[H])c1[H])C([H])([H])[H]


 37 40  0  0  0  0  0  0  0  0999 V2000
   35.9222   11.9073  -15.7106 C   0  0  0  0  0  0  0  0  0  0  0  0
   36.4328   12.6927  -14.7410 C   0  0  0  0  0  0  0  0  0  0  0  0
   37.7584   12.8072  -14.9410 N   0  0  0  0  0  0  0  0  0  0  0  0
   38.0767   12.1081  -16.0208 N   0  0  0  0  0  0  0  0  0  0  0  0
   37.0008   11.5265  -16.5448 C   0  0  0  0  0  0  0  0  0  0  0  0
   36.8446   10.6492  -17.6772 C   0  0  0  0  0  0  0  0  0  0  0  0
   36.2028    9.3116  -17.2743 C   0  0  0  0  0  0  0  0  0  0  0  0
   37.9838   10.3050  -18.5433 C   0  0  0  0  0  0  0  0  0  0  0  0
   38.9574   11.2826  -18.7227 O   0  0  0  0  0  0  0  0  0  0  0  0
   39.8199   11.7877  -17.7315 C   0  0  0  0  0  0  0  0  0  0  0  0
   41.1380   11.9279  -18.0772 C   0  0  0  0  0  0  0  0  0  0  0  0
   42.0312   12.4107  -17.1455 C   0  0  0  0  0  0  0  0  0  0  0  0
   41.6659   12.7716  -15.8465 C   0  0  0  0  0  0  0  0  0  0  0  0
   40.3366   12.6321  -15.5049 C   0  0  0  0  0  0  0  0  0  0  0  0
   39.4553   12.1525  -16.4366 C   0  0  0  0  0  0  0  0  0  0  0  0
   32.7449   10.5570  -17.4663 C   0  0  0  0  0  0  0  0  0  0  0  0
   34.0626   11.0682  -17.1935 N   0  0  0  0  0  0  0  0  0  0  0  0
   34.5878   11.4042  -15.9346 C   0  0  0  0  0  0  0  0  0  0  0  0
   33.8275   11.2584  -14.9482 O   0  0  0  0  0  0  0  0  0  0  0  0
   34.6890   11.2322  -18.0415 H   0  0  0  0  0  0  0  0  0  0  0  0
   35.6761   13.3896  -13.6907 C   0  0  0  0  0  0  0  0  0  0  0  0
   35.0464   14.6175  -13.8508 N   0  0  0  0  0  0  0  0  0  0  0  0
   35.5874   12.8376  -12.5403 O   0  0  0  0  0  0  0  0  0  0  0  0
   35.5944   15.4418  -14.1888 H   0  0  0  0  0  0  0  0  0  0  0  0
   34.0141   14.6828  -13.6237 H   0  0  0  0  0  0  0  0  0  0  0  0
   42.6611   13.2446  -14.9170 C   0  0  0  0  0  0  0  0  0  0  0  0
   43.5057   13.6642  -14.1681 C   0  0  0  0  0  0  0  0  0  0  0  0
   44.5379   14.2045  -13.2882 C   0  0  0  0  0  0  0  0  0  0  0  0
   44.8299   15.6630  -13.6023 C   0  0  0  0  0  0  0  0  0  0  0  0
   44.1088   14.1497  -11.9348 O   0  0  0  0  0  0  0  0  0  0  0  0
   43.1586   13.8792  -11.9311 H   0  0  0  0  0  0  0  0  0  0  0  0
   45.7695   13.4326  -13.4710 C   0  0  0  0  0  0  0  0  0  0  0  0
   46.7427   13.8158  -14.4120 C   0  0  0  0  0  0  0  0  0  0  0  0
   47.7802   12.9154  -14.3533 C   0  0  0  0  0  0  0  0  0  0  0  0
   49.0575   12.8689  -15.1443 C   0  0  0  0  0  0  0  0  0  0  0  0
   47.4314   12.0392  -13.4172 O   0  0  0  0  0  0  0  0  0  0  0  0
   46.2687   12.3379  -12.9063 N   0  0  0  0  0  0  0  0  0  0  0  0
 16 17  1  0  0  0
 17 18  1  0  0  0
 18 19  2  0  0  0
 18  1  1  0  0  0
  1  2  1  0  0  0
  2  3  2  0  0  0
  3  4  1  0  0  0
  4  5  1  0  0  0
  5  6  1  0  0  0
  6  7  1  0  0  0
  6  8  1  0  0  0
  8  9  1  0  0  0
  9 10  1  0  0  0
 10 11  2  0  0  0
 11 12  1  0  0  0
 12 13  2  0  0  0
 13 14  1  0  0  0
 14 15  2  0  0  0
 13 26  1  0  0  0
 26 27  3  0  0  0
 28 27  1  0  0  0
 28 29  1  0  0  0
 28 30  1  0  0  0
 28 32  1  0  0  0
 32 33  1  0  0  0
 33 34  2  0  0  0
 34 35  1  0  0  0
 34 36  1  0  0  0
 36 37  1  0  0  0
  2 21  1  0  0  0
 21 22  1  0  0  0
 21 23  2  0  0  0
  5  1  2  0  0  0
 15 10  1  0  0  0
 37 32  2  0  0  0
  4 15  1  0  0  0
 17 20  1  0  0  0
 30 31  1  0  0  0
 22 24  1  0  0  0
 22 25  1  0  0  0
M  END
> <minimizedAffinity>
-8.37385

> <CNNscore>
0.1842965484

> <CNNaffinity>
6.8351111412

> <CNN_VS>
1.2596874237

> <CNNaffinity_variance>
0.1415237635

$$$$
[H]OC([H])([H])[C@]1(F)c2sc(C(=O)N([H])[H])nc2-c2c([H])c(C#C[C@@]3(O[H])C(=O)N(C([H])([H])[H])C([H])([H])C3([H])[H])c([H])c([H])c2OC1([H])[H]


 34 37  0  0  0  0  0  0  0  0999 V2000
   41.4762   14.3772  -13.7771 C   0  0  0  0  0  0  0  0  0  0  0  0
   40.8613   15.2198  -12.8571 C   0  0  0  0  0  0  0  0  0  0  0  0
   39.4954   15.3471  -12.7597 C   0  0  0  0  0  0  0  0  0  0  0  0
   38.7276   14.5971  -13.6217 C   0  0  0  0  0  0  0  0  0  0  0  0
   37.3670   14.8096  -13.4288 O   0  0  0  0  0  0  0  0  0  0  0  0
   36.2544   14.3243  -14.1667 C   0  0  0  0  0  0  0  0  0  0  0  0
   36.2930   12.8344  -14.3640 C   0  0  0  0  0  0  0  0  0  0  0  0
   35.0611   12.4469  -14.8576 F   0  0  0  0  0  0  0  0  0  0  0  0
   37.3134   12.4995  -15.4237 C   0  0  0  0  0  0  0  0  0  0  0  0
   37.0931   11.5244  -16.8107 S   0  0  0  0  0  0  0  0  0  0  0  0
   38.6689   11.6449  -17.4624 C   0  0  0  0  0  0  0  0  0  0  0  0
   39.2775   12.4250  -16.5826 N   0  0  0  0  0  0  0  0  0  0  0  0
   38.6312   12.8693  -15.5537 C   0  0  0  0  0  0  0  0  0  0  0  0
   39.2951   13.7516  -14.5465 C   0  0  0  0  0  0  0  0  0  0  0  0
   40.6843   13.6445  -14.6206 C   0  0  0  0  0  0  0  0  0  0  0  0
   39.2238   11.0398  -18.6910 C   0  0  0  0  0  0  0  0  0  0  0  0
   38.3259   10.5566  -19.6604 N   0  0  0  0  0  0  0  0  0  0  0  0
   40.4549   10.9729  -18.8369 O   0  0  0  0  0  0  0  0  0  0  0  0
   37.4146   10.0845  -19.4050 H   0  0  0  0  0  0  0  0  0  0  0  0
   38.4937   10.6290  -20.6990 H   0  0  0  0  0  0  0  0  0  0  0  0
   36.5638   12.1036  -13.0880 C   0  0  0  0  0  0  0  0  0  0  0  0
   35.7893   12.6995  -12.0934 O   0  0  0  0  0  0  0  0  0  0  0  0
   36.1727   13.6178  -11.9710 H   0  0  0  0  0  0  0  0  0  0  0  0
   44.1140   14.1867  -13.8919 C   0  0  0  0  0  0  0  0  0  0  0  0
   42.9158   14.2835  -13.8346 C   0  0  0  0  0  0  0  0  0  0  0  0
   48.2432   13.7447  -11.3613 C   0  0  0  0  0  0  0  0  0  0  0  0
   47.0972   13.5407  -12.2274 N   0  0  0  0  0  0  0  0  0  0  0  0
   46.7319   12.2642  -12.8134 C   0  0  0  0  0  0  0  0  0  0  0  0
   46.0173   12.6228  -14.0768 C   0  0  0  0  0  0  0  0  0  0  0  0
   45.5744   14.0434  -13.9672 C   0  0  0  0  0  0  0  0  0  0  0  0
   46.1161   14.8612  -14.9545 O   0  0  0  0  0  0  0  0  0  0  0  0
   46.1317   14.4768  -12.6736 C   0  0  0  0  0  0  0  0  0  0  0  0
   45.8131   15.5149  -12.0450 O   0  0  0  0  0  0  0  0  0  0  0  0
   45.4662   15.5103  -15.3128 H   0  0  0  0  0  0  0  0  0  0  0  0
 26 27  1  0  0  0
 27 28  1  0  0  0
 28 29  1  0  0  0
 29 30  1  0  0  0
 30 31  1  0  0  0
 30 24  1  0  0  0
 24 25  3  0  0  0
 25  1  1  0  0  0
  1  2  2  0  0  0
  2  3  1  0  0  0
  3  4  2  0  0  0
  4  5  1  0  0  0
  5  6  1  0  0  0
  6  7  1  0  0  0
  7  8  1  0  0  0
  7 21  1  0  0  0
 21 22  1  0  0  0
  7  9  1  0  0  0
  9 10  1  0  0  0
 10 11  1  0  0  0
 11 12  2  0  0  0
 12 13  1  0  0  0
 13 14  1  0  0  0
 14 15  2  0  0  0
 11 16  1  0  0  0
 16 17  1  0  0  0
 16 18  2  0  0  0
 30 32  1  0  0  0
 32 33  2  0  0  0
 32 27  1  0  0  0
 15  1  1  0  0  0
 14  4  1  0  0  0
 13  9  2  0  0  0
 31 34  1  0  0  0
 22 23  1  0  0  0
 17 19  1  0  0  0
 17 20  1  0  0  0
M  END
> <minimizedAffinity>
-8.52339

> <CNNscore>
0.6316610575

> <CNNaffinity>
6.9381790161

> <CNN_VS>
4.3825774193

> <CNNaffinity_variance>
0.4893985689

$$$$
[H]OC([H])([H])[C@]1(F)c2sc(C(=O)N([H])[H])nc2-c2c([H])c(C#C[C@@]3(O[H])C(=O)N(C([H])([H])[H])C([H])([H])C3([H])[H])c([H])c([H])c2OC1([H])[H]


 34 37  0  0  0  0  0  0  0  0999 V2000
   41.2610   14.8486  -13.2232 C   0  0  0  0  0  0  0  0  0  0  0  0
   40.4520   15.5758  -12.3565 C   0  0  0  0  0  0  0  0  0  0  0  0
   39.0784   15.5279  -12.4021 C   0  0  0  0  0  0  0  0  0  0  0  0
   38.5055   14.7175  -13.3562 C   0  0  0  0  0  0  0  0  0  0  0  0
   37.1163   14.7514  -13.3045 O   0  0  0  0  0  0  0  0  0  0  0  0
   36.1568   14.1561  -14.1664 C   0  0  0  0  0  0  0  0  0  0  0  0
   36.4058   12.6903  -14.3893 C   0  0  0  0  0  0  0  0  0  0  0  0
   35.2909   12.1688  -15.0189 F   0  0  0  0  0  0  0  0  0  0  0  0
   37.5641   12.5220  -15.3413 C   0  0  0  0  0  0  0  0  0  0  0  0
   37.6141   11.5748  -16.7639 S   0  0  0  0  0  0  0  0  0  0  0  0
   39.2200   11.9136  -17.2418 C   0  0  0  0  0  0  0  0  0  0  0  0
   39.6301   12.7333  -16.2863 N   0  0  0  0  0  0  0  0  0  0  0  0
   38.8301   13.0580  -15.3229 C   0  0  0  0  0  0  0  0  0  0  0  0
   39.2685   13.9816  -14.2328 C   0  0  0  0  0  0  0  0  0  0  0  0
   40.6602   14.0517  -14.1611 C   0  0  0  0  0  0  0  0  0  0  0  0
   39.9712   11.4249  -18.4167 C   0  0  0  0  0  0  0  0  0  0  0  0
   39.2457   10.8821  -19.4931 N   0  0  0  0  0  0  0  0  0  0  0  0
   41.2101   11.5040  -18.4261 O   0  0  0  0  0  0  0  0  0  0  0  0
   38.3738   10.2998  -19.3540 H   0  0  0  0  0  0  0  0  0  0  0  0
   39.5147   11.0144  -20.5041 H   0  0  0  0  0  0  0  0  0  0  0  0
   36.6353   11.9562  -13.1072 C   0  0  0  0  0  0  0  0  0  0  0  0
   35.5984   12.2971  -12.2397 O   0  0  0  0  0  0  0  0  0  0  0  0
   35.7351   13.2678  -12.0290 H   0  0  0  0  0  0  0  0  0  0  0  0
   43.8976   14.9951  -13.0386 C   0  0  0  0  0  0  0  0  0  0  0  0
   42.6989   14.9377  -13.1294 C   0  0  0  0  0  0  0  0  0  0  0  0
   48.0443   12.4621  -13.2324 C   0  0  0  0  0  0  0  0  0  0  0  0
   46.9511   13.3878  -13.4625 N   0  0  0  0  0  0  0  0  0  0  0  0
   46.8168   14.2166  -14.6463 C   0  0  0  0  0  0  0  0  0  0  0  0
   46.0477   15.4116  -14.1816 C   0  0  0  0  0  0  0  0  0  0  0  0
   45.3602   15.0490  -12.9079 C   0  0  0  0  0  0  0  0  0  0  0  0
   45.7465   15.8453  -11.8339 O   0  0  0  0  0  0  0  0  0  0  0  0
   45.8341   13.6794  -12.6410 C   0  0  0  0  0  0  0  0  0  0  0  0
   45.3377   12.8760  -11.8149 O   0  0  0  0  0  0  0  0  0  0  0  0
   44.9911   16.0950  -11.2514 H   0  0  0  0  0  0  0  0  0  0  0  0
 26 27  1  0  0  0
 27 28  1  0  0  0
 28 29  1  0  0  0
 29 30  1  0  0  0
 30 31  1  0  0  0
 30 24  1  0  0  0
 24 25  3  0  0  0
 25  1  1  0  0  0
  1  2  2  0  0  0
  2  3  1  0  0  0
  3  4  2  0  0  0
  4  5  1  0  0  0
  5  6  1  0  0  0
  6  7  1  0  0  0
  7  8  1  0  0  0
  7 21  1  0  0  0
 21 22  1  0  0  0
  7  9  1  0  0  0
  9 10  1  0  0  0
 10 11  1  0  0  0
 11 12  2  0  0  0
 12 13  1  0  0  0
 13 14  1  0  0  0
 14 15  2  0  0  0
 11 16  1  0  0  0
 16 17  1  0  0  0
 16 18  2  0  0  0
 30 32  1  0  0  0
 32 33  2  0  0  0
 32 27  1  0  0  0
 15  1  1  0  0  0
 14  4  1  0  0  0
 13  9  2  0  0  0
 31 34  1  0  0  0
 22 23  1  0  0  0
 17 19  1  0  0  0
 17 20  1  0  0  0
M  END
> <minimizedAffinity>
-8.34062

> <CNNscore>
0.5284885764

> <CNNaffinity>
6.7282729149

> <CNN_VS>
3.5558154583

> <CNNaffinity_variance>
0.4341667295

$$$$
[H]OC([H])([H])[C@]1(F)c2sc(C(=O)N([H])[H])nc2-c2c([H])c(C#C[C@@]3(O[H])C(=O)N(C([H])([H])[H])C([H])([H])C3([H])[H])c([H])c([H])c2OC1([H])[H]


 34 37  0  0  0  0  0  0  0  0999 V2000
   38.9230   14.1590  -13.6280 C   0  0  0  0  0  0  0  0  0  0  0  0
   40.2921   13.9711  -13.7854 C   0  0  0  0  0  0  0  0  0  0  0  0
   40.8248   13.1251  -14.7297 C   0  0  0  0  0  0  0  0  0  0  0  0
   39.9427   12.4475  -15.5408 C   0  0  0  0  0  0  0  0  0  0  0  0
   40.5967   11.6260  -16.4523 O   0  0  0  0  0  0  0  0  0  0  0  0
   40.0668   10.6906  -17.3809 C   0  0  0  0  0  0  0  0  0  0  0  0
   38.9815   11.2763  -18.2407 C   0  0  0  0  0  0  0  0  0  0  0  0
   38.7242   10.3765  -19.2583 F   0  0  0  0  0  0  0  0  0  0  0  0
   37.7142   11.3937  -17.4305 C   0  0  0  0  0  0  0  0  0  0  0  0
   36.1555   10.8276  -17.8466 S   0  0  0  0  0  0  0  0  0  0  0  0
   35.3148   11.3388  -16.4487 C   0  0  0  0  0  0  0  0  0  0  0  0
   36.2733   11.9149  -15.7397 N   0  0  0  0  0  0  0  0  0  0  0  0
   37.4817   11.9601  -16.1994 C   0  0  0  0  0  0  0  0  0  0  0  0
   38.5815   12.6041  -15.4187 C   0  0  0  0  0  0  0  0  0  0  0  0
   38.0719   13.4701  -14.4506 C   0  0  0  0  0  0  0  0  0  0  0  0
   33.8859   11.1845  -16.1054 C   0  0  0  0  0  0  0  0  0  0  0  0
   33.4924   11.4082  -14.7733 N   0  0  0  0  0  0  0  0  0  0  0  0
   33.0760   10.8648  -16.9903 O   0  0  0  0  0  0  0  0  0  0  0  0
   34.0940   11.1298  -13.9491 H   0  0  0  0  0  0  0  0  0  0  0  0
   32.5807   11.8639  -14.5026 H   0  0  0  0  0  0  0  0  0  0  0  0
   39.3795   12.5896  -18.8342 C   0  0  0  0  0  0  0  0  0  0  0  0
   40.7670   12.5822  -18.9715 O   0  0  0  0  0  0  0  0  0  0  0  0
   41.1276   12.5826  -18.0359 H   0  0  0  0  0  0  0  0  0  0  0  0
   37.9972   15.7958  -11.7650 C   0  0  0  0  0  0  0  0  0  0  0  0
   38.4198   15.0606  -12.6189 C   0  0  0  0  0  0  0  0  0  0  0  0
   36.5522   16.0850   -7.1306 C   0  0  0  0  0  0  0  0  0  0  0  0
   37.2448   16.2241   -8.3978 N   0  0  0  0  0  0  0  0  0  0  0  0
   38.5484   16.8429   -8.5537 C   0  0  0  0  0  0  0  0  0  0  0  0
   38.5439   17.3792   -9.9493 C   0  0  0  0  0  0  0  0  0  0  0  0
   37.4718   16.6731  -10.7098 C   0  0  0  0  0  0  0  0  0  0  0  0
   36.4954   17.5338  -11.2024 O   0  0  0  0  0  0  0  0  0  0  0  0
   36.8384   15.8157   -9.6922 C   0  0  0  0  0  0  0  0  0  0  0  0
   36.0542   14.8623   -9.9169 O   0  0  0  0  0  0  0  0  0  0  0  0
   36.2046   17.3004  -12.1152 H   0  0  0  0  0  0  0  0  0  0  0  0
 26 27  1  0  0  0
 27 28  1  0  0  0
 28 29  1  0  0  0
 29 30  1  0  0  0
 30 31  1  0  0  0
 30 24  1  0  0  0
 24 25  3  0  0  0
 25  1  1  0  0  0
  1  2  2  0  0  0
  2  3  1  0  0  0
  3  4  2  0  0  0
  4  5  1  0  0  0
  5  6  1  0  0  0
  6  7  1  0  0  0
  7  8  1  0  0  0
  7 21  1  0  0  0
 21 22  1  0  0  0
  7  9  1  0  0  0
  9 10  1  0  0  0
 10 11  1  0  0  0
 11 12  2  0  0  0
 12 13  1  0  0  0
 13 14  1  0  0  0
 14 15  2  0  0  0
 11 16  1  0  0  0
 16 17  1  0  0  0
 16 18  2  0  0  0
 30 32  1  0  0  0
 32 33  2  0  0  0
 32 27  1  0  0  0
 15  1  1  0  0  0
 14  4  1  0  0  0
 13  9  2  0  0  0
 31 34  1  0  0  0
 22 23  1  0  0  0
 17 19  1  0  0  0
 17 20  1  0  0  0
M  END
> <minimizedAffinity>
-7.26432

> <CNNscore>
0.5047915578

> <CNNaffinity>
6.8610916138

> <CNN_VS>
3.4634211063

> <CNNaffinity_variance>
0.3659281731

$$$$
[H]OC([H])([H])[C@]1(F)c2sc(C(=O)N([H])[H])nc2-c2c([H])c(C#C[C@@]3(O[H])C(=O)N(C([H])([H])[H])C([H])([H])C3([H])[H])c([H])c([H])c2OC1([H])[H]


 34 37  0  0  0  0  0  0  0  0999 V2000
   40.8171   15.2944  -12.9277 C   0  0  0  0  0  0  0  0  0  0  0  0
   39.8635   15.8894  -12.1084 C   0  0  0  0  0  0  0  0  0  0  0  0
   38.5157   15.6481  -12.2364 C   0  0  0  0  0  0  0  0  0  0  0  0
   38.1208   14.7762  -13.2259 C   0  0  0  0  0  0  0  0  0  0  0  0
   36.7403   14.6126  -13.2575 O   0  0  0  0  0  0  0  0  0  0  0  0
   35.9274   13.8978  -14.1774 C   0  0  0  0  0  0  0  0  0  0  0  0
   36.3947   12.4848  -14.3902 C   0  0  0  0  0  0  0  0  0  0  0  0
   35.4042   11.8183  -15.0873 F   0  0  0  0  0  0  0  0  0  0  0  0
   37.6191   12.4936  -15.2717 C   0  0  0  0  0  0  0  0  0  0  0  0
   37.8867   11.5801  -16.6920 S   0  0  0  0  0  0  0  0  0  0  0  0
   39.4536   12.1485  -17.0716 C   0  0  0  0  0  0  0  0  0  0  0  0
   39.6862   13.0066  -16.0904 N   0  0  0  0  0  0  0  0  0  0  0  0
   38.7929   13.2031  -15.1756 C   0  0  0  0  0  0  0  0  0  0  0  0
   39.0309   14.1663  -14.0578 C   0  0  0  0  0  0  0  0  0  0  0  0
   40.3918   14.4318  -13.9027 C   0  0  0  0  0  0  0  0  0  0  0  0
   40.3343   11.7852  -18.2012 C   0  0  0  0  0  0  0  0  0  0  0  0
   41.7263   11.8675  -18.0143 N   0  0  0  0  0  0  0  0  0  0  0  0
   39.8308   11.4201  -19.2756 O   0  0  0  0  0  0  0  0  0  0  0  0
   42.1775   12.6287  -17.4349 H   0  0  0  0  0  0  0  0  0  0  0  0
   42.4128   11.1851  -18.4329 H   0  0  0  0  0  0  0  0  0  0  0  0
   36.6503   11.7752  -13.0993 C   0  0  0  0  0  0  0  0  0  0  0  0
   35.5884   12.0683  -12.2445 O   0  0  0  0  0  0  0  0  0  0  0  0
   35.6715   13.0467  -12.0416 H   0  0  0  0  0  0  0  0  0  0  0  0
   43.3892   15.8370  -12.6160 C   0  0  0  0  0  0  0  0  0  0  0  0
   42.2198   15.5850  -12.7475 C   0  0  0  0  0  0  0  0  0  0  0  0
   47.3191   17.6946  -14.7964 C   0  0  0  0  0  0  0  0  0  0  0  0
   46.1904   17.4266  -13.9253 N   0  0  0  0  0  0  0  0  0  0  0  0
   45.6773   18.3612  -12.9404 C   0  0  0  0  0  0  0  0  0  0  0  0
   45.0675   17.4957  -11.8848 C   0  0  0  0  0  0  0  0  0  0  0  0
   44.8184   16.1505  -12.4804 C   0  0  0  0  0  0  0  0  0  0  0  0
   45.5040   15.1299  -11.8283 O   0  0  0  0  0  0  0  0  0  0  0  0
   45.3792   16.2682  -13.8381 C   0  0  0  0  0  0  0  0  0  0  0  0
   45.1810   15.4732  -14.7884 O   0  0  0  0  0  0  0  0  0  0  0  0
   44.9629   14.3127  -11.7217 H   0  0  0  0  0  0  0  0  0  0  0  0
 26 27  1  0  0  0
 27 28  1  0  0  0
 28 29  1  0  0  0
 29 30  1  0  0  0
 30 31  1  0  0  0
 30 24  1  0  0  0
 24 25  3  0  0  0
 25  1  1  0  0  0
  1  2  2  0  0  0
  2  3  1  0  0  0
  3  4  2  0  0  0
  4  5  1  0  0  0
  5  6  1  0  0  0
  6  7  1  0  0  0
  7  8  1  0  0  0
  7 21  1  0  0  0
 21 22  1  0  0  0
  7  9  1  0  0  0
  9 10  1  0  0  0
 10 11  1  0  0  0
 11 12  2  0  0  0
 12 13  1  0  0  0
 13 14  1  0  0  0
 14 15  2  0  0  0
 11 16  1  0  0  0
 16 17  1  0  0  0
 16 18  2  0  0  0
 30 32  1  0  0  0
 32 33  2  0  0  0
 32 27  1  0  0  0
 15  1  1  0  0  0
 14  4  1  0  0  0
 13  9  2  0  0  0
 31 34  1  0  0  0
 22 23  1  0  0  0
 17 19  1  0  0  0
 17 20  1  0  0  0
M  END
> <minimizedAffinity>
-8.69074

> <CNNscore>
0.4444276392

> <CNNaffinity>
6.3097329140

> <CNN_VS>
2.8042197227

> <CNNaffinity_variance>
0.1743650138

$$$$
[H]OC([H])([H])[C@]1(F)c2sc(C(=O)N([H])[H])nc2-c2c([H])c(C#C[C@@]3(O[H])C(=O)N(C([H])([H])[H])C([H])([H])C3([H])[H])c([H])c([H])c2OC1([H])[H]


 34 37  0  0  0  0  0  0  0  0999 V2000
   35.6537   13.3802  -13.0531 C   0  0  0  0  0  0  0  0  0  0  0  0
   34.3803   13.1810  -13.5759 C   0  0  0  0  0  0  0  0  0  0  0  0
   34.1627   12.6929  -14.8431 C   0  0  0  0  0  0  0  0  0  0  0  0
   35.2702   12.3973  -15.6054 C   0  0  0  0  0  0  0  0  0  0  0  0
   34.9250   11.9132  -16.8624 O   0  0  0  0  0  0  0  0  0  0  0  0
   35.7486   11.5972  -17.9758 C   0  0  0  0  0  0  0  0  0  0  0  0
   36.8898   10.6874  -17.6150 C   0  0  0  0  0  0  0  0  0  0  0  0
   37.4611   10.2469  -18.7944 F   0  0  0  0  0  0  0  0  0  0  0  0
   37.9469   11.4806  -16.8871 C   0  0  0  0  0  0  0  0  0  0  0  0
   39.6194   11.5524  -17.2347 S   0  0  0  0  0  0  0  0  0  0  0  0
   40.0937   12.6287  -15.9942 C   0  0  0  0  0  0  0  0  0  0  0  0
   38.9458   12.8743  -15.3817 N   0  0  0  0  0  0  0  0  0  0  0  0
   37.8554   12.3183  -15.8007 C   0  0  0  0  0  0  0  0  0  0  0  0
   36.5470   12.5794  -15.1271 C   0  0  0  0  0  0  0  0  0  0  0  0
   36.7349   13.0763  -13.8369 C   0  0  0  0  0  0  0  0  0  0  0  0
   41.4359   13.1581  -15.6751 C   0  0  0  0  0  0  0  0  0  0  0  0
   42.4774   12.9315  -16.5934 N   0  0  0  0  0  0  0  0  0  0  0  0
   41.6105   13.7829  -14.6167 O   0  0  0  0  0  0  0  0  0  0  0  0
   42.5651   12.0314  -17.1418 H   0  0  0  0  0  0  0  0  0  0  0  0
   43.2370   13.6335  -16.7995 H   0  0  0  0  0  0  0  0  0  0  0  0
   36.4389    9.5071  -16.8159 C   0  0  0  0  0  0  0  0  0  0  0  0
   35.0817    9.3211  -17.0757 O   0  0  0  0  0  0  0  0  0  0  0  0
   34.6218   10.1167  -16.6745 H   0  0  0  0  0  0  0  0  0  0  0  0
   35.9511   14.3416  -10.6047 C   0  0  0  0  0  0  0  0  0  0  0  0
   35.8225   13.8956  -11.7151 C   0  0  0  0  0  0  0  0  0  0  0  0
   38.4933   17.3759   -7.7799 C   0  0  0  0  0  0  0  0  0  0  0  0
   37.4669   16.7084   -8.5583 N   0  0  0  0  0  0  0  0  0  0  0  0
   36.1821   17.2955   -8.8919 C   0  0  0  0  0  0  0  0  0  0  0  0
   35.2631   16.1256   -9.0405 C   0  0  0  0  0  0  0  0  0  0  0  0
   36.0990   14.9088   -9.2573 C   0  0  0  0  0  0  0  0  0  0  0  0
   35.9176   13.9404   -8.2744 O   0  0  0  0  0  0  0  0  0  0  0  0
   37.4778   15.4147   -9.1360 C   0  0  0  0  0  0  0  0  0  0  0  0
   38.5187   14.8075   -9.4855 O   0  0  0  0  0  0  0  0  0  0  0  0
   35.8908   13.0249   -8.6395 H   0  0  0  0  0  0  0  0  0  0  0  0
 26 27  1  0  0  0
 27 28  1  0  0  0
 28 29  1  0  0  0
 29 30  1  0  0  0
 30 31  1  0  0  0
 30 24  1  0  0  0
 24 25  3  0  0  0
 25  1  1  0  0  0
  1  2  2  0  0  0
  2  3  1  0  0  0
  3  4  2  0  0  0
  4  5  1  0  0  0
  5  6  1  0  0  0
  6  7  1  0  0  0
  7  8  1  0  0  0
  7 21  1  0  0  0
 21 22  1  0  0  0
  7  9  1  0  0  0
  9 10  1  0  0  0
 10 11  1  0  0  0
 11 12  2  0  0  0
 12 13  1  0  0  0
 13 14  1  0  0  0
 14 15  2  0  0  0
 11 16  1  0  0  0
 16 17  1  0  0  0
 16 18  2  0  0  0
 30 32  1  0  0  0
 32 33  2  0  0  0
 32 27  1  0  0  0
 15  1  1  0  0  0
 14  4  1  0  0  0
 13  9  2  0  0  0
 31 34  1  0  0  0
 22 23  1  0  0  0
 17 19  1  0  0  0
 17 20  1  0  0  0
M  END
> <minimizedAffinity>
-6.91700

> <CNNscore>
0.4188679457

> <CNNaffinity>
6.7825074196

> <CNN_VS>
2.8409750462

> <CNNaffinity_variance>
0.4440699518

$$$$
[H]OC([H])([H])[C@]1(F)c2sc(C(=O)N([H])[H])nc2-c2c([H])c(C#C[C@@]3(O[H])C(=O)N(C([H])([H])[H])C([H])([H])C3([H])[H])c([H])c([H])c2OC1([H])[H]


 34 37  0  0  0  0  0  0  0  0999 V2000
   40.7723   15.5024  -12.4332 C   0  0  0  0  0  0  0  0  0  0  0  0
   39.7663   16.0869  -11.6711 C   0  0  0  0  0  0  0  0  0  0  0  0
   38.4294   15.8659  -11.9059 C   0  0  0  0  0  0  0  0  0  0  0  0
   38.1006   15.0260  -12.9460 C   0  0  0  0  0  0  0  0  0  0  0  0
   36.7247   14.8805  -13.0849 O   0  0  0  0  0  0  0  0  0  0  0  0
   35.9756   14.2010  -14.0824 C   0  0  0  0  0  0  0  0  0  0  0  0
   36.4428   12.7885  -14.2989 C   0  0  0  0  0  0  0  0  0  0  0  0
   35.5003   12.1535  -15.0862 F   0  0  0  0  0  0  0  0  0  0  0  0
   37.7298   12.8058  -15.0861 C   0  0  0  0  0  0  0  0  0  0  0  0
   38.0934   11.9277  -16.5074 S   0  0  0  0  0  0  0  0  0  0  0  0
   39.6901   12.4866  -16.7532 C   0  0  0  0  0  0  0  0  0  0  0  0
   39.8575   13.3149  -15.7339 N   0  0  0  0  0  0  0  0  0  0  0  0
   38.9004   13.4978  -14.8831 C   0  0  0  0  0  0  0  0  0  0  0  0
   39.0640   14.4275  -13.7244 C   0  0  0  0  0  0  0  0  0  0  0  0
   40.4122   14.6718  -13.4608 C   0  0  0  0  0  0  0  0  0  0  0  0
   40.6491   12.1429  -17.8237 C   0  0  0  0  0  0  0  0  0  0  0  0
   42.0160   12.0752  -17.4975 N   0  0  0  0  0  0  0  0  0  0  0  0
   40.2307   11.9246  -18.9719 O   0  0  0  0  0  0  0  0  0  0  0  0
   42.4681   12.7353  -16.8058 H   0  0  0  0  0  0  0  0  0  0  0  0
   42.6811   11.3704  -17.9135 H   0  0  0  0  0  0  0  0  0  0  0  0
   36.5937   12.0412  -13.0128 C   0  0  0  0  0  0  0  0  0  0  0  0
   37.7319   11.2438  -13.1246 O   0  0  0  0  0  0  0  0  0  0  0  0
   37.5082   10.5551  -13.8181 H   0  0  0  0  0  0  0  0  0  0  0  0
   43.3204   15.9738  -11.8927 C   0  0  0  0  0  0  0  0  0  0  0  0
   42.1605   15.7705  -12.1410 C   0  0  0  0  0  0  0  0  0  0  0  0
   46.8092   15.5307   -8.5339 C   0  0  0  0  0  0  0  0  0  0  0  0
   45.9749   15.4232   -9.7160 N   0  0  0  0  0  0  0  0  0  0  0  0
   46.1479   14.4203  -10.7507 C   0  0  0  0  0  0  0  0  0  0  0  0
   45.6155   15.0651  -11.9901 C   0  0  0  0  0  0  0  0  0  0  0  0
   44.7378   16.1992  -11.5777 C   0  0  0  0  0  0  0  0  0  0  0  0
   45.1764   17.4301  -12.0564 O   0  0  0  0  0  0  0  0  0  0  0  0
   44.8703   16.2183  -10.1101 C   0  0  0  0  0  0  0  0  0  0  0  0
   44.1277   16.8388   -9.3115 O   0  0  0  0  0  0  0  0  0  0  0  0
   44.4382   18.0046  -12.3682 H   0  0  0  0  0  0  0  0  0  0  0  0
 26 27  1  0  0  0
 27 28  1  0  0  0
 28 29  1  0  0  0
 29 30  1  0  0  0
 30 31  1  0  0  0
 30 24  1  0  0  0
 24 25  3  0  0  0
 25  1  1  0  0  0
  1  2  2  0  0  0
  2  3  1  0  0  0
  3  4  2  0  0  0
  4  5  1  0  0  0
  5  6  1  0  0  0
  6  7  1  0  0  0
  7  8  1  0  0  0
  7 21  1  0  0  0
 21 22  1  0  0  0
  7  9  1  0  0  0
  9 10  1  0  0  0
 10 11  1  0  0  0
 11 12  2  0  0  0
 12 13  1  0  0  0
 13 14  1  0  0  0
 14 15  2  0  0  0
 11 16  1  0  0  0
 16 17  1  0  0  0
 16 18  2  0  0  0
 30 32  1  0  0  0
 32 33  2  0  0  0
 32 27  1  0  0  0
 15  1  1  0  0  0
 14  4  1  0  0  0
 13  9  2  0  0  0
 31 34  1  0  0  0
 22 23  1  0  0  0
 17 19  1  0  0  0
 17 20  1  0  0  0
M  END
> <minimizedAffinity>
-7.58487

> <CNNscore>
0.3182092905

> <CNNaffinity>
6.1999850273

> <CNN_VS>
1.9728928804

> <CNNaffinity_variance>
0.3162441552

$$$$
[H]OC([H])([H])[C@]1(F)c2sc(C(=O)N([H])[H])nc2-c2c([H])c(C#C[C@@]3(O[H])C(=O)N(C([H])([H])[H])C([H])([H])C3([H])[H])c([H])c([H])c2OC1([H])[H]


 34 37  0  0  0  0  0  0  0  0999 V2000
   41.2959   13.4465  -14.9480 C   0  0  0  0  0  0  0  0  0  0  0  0
   42.3517   12.9660  -15.7156 C   0  0  0  0  0  0  0  0  0  0  0  0
   42.1730   12.1073  -16.7747 C   0  0  0  0  0  0  0  0  0  0  0  0
   40.8836   11.7226  -17.0660 C   0  0  0  0  0  0  0  0  0  0  0  0
   40.8298   10.8570  -18.1529 O   0  0  0  0  0  0  0  0  0  0  0  0
   39.7261   10.1525  -18.7039 C   0  0  0  0  0  0  0  0  0  0  0  0
   38.5472   11.0434  -18.9803 C   0  0  0  0  0  0  0  0  0  0  0  0
   37.6452   10.3189  -19.7373 F   0  0  0  0  0  0  0  0  0  0  0  0
   37.8587   11.3749  -17.6794 C   0  0  0  0  0  0  0  0  0  0  0  0
   36.1965   11.2179  -17.3108 S   0  0  0  0  0  0  0  0  0  0  0  0
   36.2366   11.7824  -15.6978 C   0  0  0  0  0  0  0  0  0  0  0  0
   37.5202   12.0602  -15.5295 N   0  0  0  0  0  0  0  0  0  0  0  0
   38.3573   11.8689  -16.4971 C   0  0  0  0  0  0  0  0  0  0  0  0
   39.8111   12.1741  -16.3325 C   0  0  0  0  0  0  0  0  0  0  0  0
   40.0253   13.0449  -15.2635 C   0  0  0  0  0  0  0  0  0  0  0  0
   35.1312   11.9284  -14.7281 C   0  0  0  0  0  0  0  0  0  0  0  0
   33.8118   11.7822  -15.1944 N   0  0  0  0  0  0  0  0  0  0  0  0
   35.3899   12.1736  -13.5389 O   0  0  0  0  0  0  0  0  0  0  0  0
   33.5048   12.1253  -16.1465 H   0  0  0  0  0  0  0  0  0  0  0  0
   33.0425   11.3257  -14.6358 H   0  0  0  0  0  0  0  0  0  0  0  0
   38.9367   12.2783  -19.7277 C   0  0  0  0  0  0  0  0  0  0  0  0
   39.1117   11.9197  -21.0638 O   0  0  0  0  0  0  0  0  0  0  0  0
   39.9184   11.3244  -21.0767 H   0  0  0  0  0  0  0  0  0  0  0  0
   41.7512   15.0808  -12.9160 C   0  0  0  0  0  0  0  0  0  0  0  0
   41.5429   14.3469  -13.8467 C   0  0  0  0  0  0  0  0  0  0  0  0
   40.1035   16.6238   -8.6086 C   0  0  0  0  0  0  0  0  0  0  0  0
   40.8641   16.0266   -9.6902 N   0  0  0  0  0  0  0  0  0  0  0  0
   41.9738   15.1104   -9.5010 C   0  0  0  0  0  0  0  0  0  0  0  0
   42.8340   15.3099  -10.7074 C   0  0  0  0  0  0  0  0  0  0  0  0
   42.0020   15.9572  -11.7635 C   0  0  0  0  0  0  0  0  0  0  0  0
   42.4950   17.1957  -12.1633 O   0  0  0  0  0  0  0  0  0  0  0  0
   40.7117   16.1869  -11.0896 C   0  0  0  0  0  0  0  0  0  0  0  0
   39.6293   16.4813  -11.6518 O   0  0  0  0  0  0  0  0  0  0  0  0
   42.4332   17.3359  -13.1373 H   0  0  0  0  0  0  0  0  0  0  0  0
 26 27  1  0  0  0
 27 28  1  0  0  0
 28 29  1  0  0  0
 29 30  1  0  0  0
 30 31  1  0  0  0
 30 24  1  0  0  0
 24 25  3  0  0  0
 25  1  1  0  0  0
  1  2  2  0  0  0
  2  3  1  0  0  0
  3  4  2  0  0  0
  4  5  1  0  0  0
  5  6  1  0  0  0
  6  7  1  0  0  0
  7  8  1  0  0  0
  7 21  1  0  0  0
 21 22  1  0  0  0
  7  9  1  0  0  0
  9 10  1  0  0  0
 10 11  1  0  0  0
 11 12  2  0  0  0
 12 13  1  0  0  0
 13 14  1  0  0  0
 14 15  2  0  0  0
 11 16  1  0  0  0
 16 17  1  0  0  0
 16 18  2  0  0  0
 30 32  1  0  0  0
 32 33  2  0  0  0
 32 27  1  0  0  0
 15  1  1  0  0  0
 14  4  1  0  0  0
 13  9  2  0  0  0
 31 34  1  0  0  0
 22 23  1  0  0  0
 17 19  1  0  0  0
 17 20  1  0  0  0
M  END
> <minimizedAffinity>
-6.00325

> <CNNscore>
0.2396309525

> <CNNaffinity>
6.4771499634

> <CNN_VS>
1.5521255732

> <CNNaffinity_variance>
0.1835559905

$$$$
[H]OC([H])([H])[C@]1(F)c2sc(C(=O)N([H])[H])nc2-c2c([H])c(C#C[C@@]3(O[H])C(=O)N(C([H])([H])[H])C([H])([H])C3([H])[H])c([H])c([H])c2OC1([H])[H]


 34 37  0  0  0  0  0  0  0  0999 V2000
   40.1461   13.9535   -7.5503 C   0  0  0  0  0  0  0  0  0  0  0  0
   39.8521   13.3268   -6.3439 C   0  0  0  0  0  0  0  0  0  0  0  0
   40.7605   12.5456   -5.6688 C   0  0  0  0  0  0  0  0  0  0  0  0
   42.0068   12.3940   -6.2336 C   0  0  0  0  0  0  0  0  0  0  0  0
   42.8350   11.5860   -5.4625 O   0  0  0  0  0  0  0  0  0  0  0  0
   44.1407   11.0964   -5.7332 C   0  0  0  0  0  0  0  0  0  0  0  0
   45.0944   12.1823   -6.1474 C   0  0  0  0  0  0  0  0  0  0  0  0
   46.3685   11.6459   -6.1348 F   0  0  0  0  0  0  0  0  0  0  0  0
   44.8030   12.5828   -7.5726 C   0  0  0  0  0  0  0  0  0  0  0  0
   45.9109   12.6971   -8.8698 S   0  0  0  0  0  0  0  0  0  0  0  0
   44.8245   13.1937  -10.0926 C   0  0  0  0  0  0  0  0  0  0  0  0
   43.6730   13.2449   -9.4410 N   0  0  0  0  0  0  0  0  0  0  0  0
   43.6260   12.9466   -8.1831 C   0  0  0  0  0  0  0  0  0  0  0  0
   42.3389   12.9962   -7.4250 C   0  0  0  0  0  0  0  0  0  0  0  0
   41.3949   13.7829   -8.0859 C   0  0  0  0  0  0  0  0  0  0  0  0
   45.0879   13.4927  -11.5155 C   0  0  0  0  0  0  0  0  0  0  0  0
   44.0799   13.2067  -12.4545 N   0  0  0  0  0  0  0  0  0  0  0  0
   46.1797   13.9834  -11.8448 O   0  0  0  0  0  0  0  0  0  0  0  0
   43.4525   12.3590  -12.3736 H   0  0  0  0  0  0  0  0  0  0  0  0
   43.8788   13.8087  -13.2966 H   0  0  0  0  0  0  0  0  0  0  0  0
   45.0461   13.3573   -5.2242 C   0  0  0  0  0  0  0  0  0  0  0  0
   44.7761   12.8723   -3.9452 O   0  0  0  0  0  0  0  0  0  0  0  0
   43.8396   12.5167   -3.9869 H   0  0  0  0  0  0  0  0  0  0  0  0
   38.3263   15.4255   -8.7867 C   0  0  0  0  0  0  0  0  0  0  0  0
   39.1523   14.7627   -8.2152 C   0  0  0  0  0  0  0  0  0  0  0  0
   33.6176   15.9103   -9.9012 C   0  0  0  0  0  0  0  0  0  0  0  0
   34.9664   16.0803   -9.3945 N   0  0  0  0  0  0  0  0  0  0  0  0
   35.3491   17.0692   -8.4034 C   0  0  0  0  0  0  0  0  0  0  0  0
   36.7871   17.3556   -8.6960 C   0  0  0  0  0  0  0  0  0  0  0  0
   37.3254   16.2246   -9.5069 C   0  0  0  0  0  0  0  0  0  0  0  0
   37.7942   16.6233  -10.7552 O   0  0  0  0  0  0  0  0  0  0  0  0
   36.1459   15.3687   -9.7259 C   0  0  0  0  0  0  0  0  0  0  0  0
   36.1617   14.1853  -10.1426 O   0  0  0  0  0  0  0  0  0  0  0  0
   38.6318   16.1708  -11.0118 H   0  0  0  0  0  0  0  0  0  0  0  0
 26 27  1  0  0  0
 27 28  1  0  0  0
 28 29  1  0  0  0
 29 30  1  0  0  0
 30 31  1  0  0  0
 30 24  1  0  0  0
 24 25  3  0  0  0
 25  1  1  0  0  0
  1  2  2  0  0  0
  2  3  1  0  0  0
  3  4  2  0  0  0
  4  5  1  0  0  0
  5  6  1  0  0  0
  6  7  1  0  0  0
  7  8  1  0  0  0
  7 21  1  0  0  0
 21 22  1  0  0  0
  7  9  1  0  0  0
  9 10  1  0  0  0
 10 11  1  0  0  0
 11 12  2  0  0  0
 12 13  1  0  0  0
 13 14  1  0  0  0
 14 15  2  0  0  0
 11 16  1  0  0  0
 16 17  1  0  0  0
 16 18  2  0  0  0
 30 32  1  0  0  0
 32 33  2  0  0  0
 32 27  1  0  0  0
 15  1  1  0  0  0
 14  4  1  0  0  0
 13  9  2  0  0  0
 31 34  1  0  0  0
 22 23  1  0  0  0
 17 19  1  0  0  0
 17 20  1  0  0  0
M  END
> <minimizedAffinity>
-5.32586

> <CNNscore>
0.2349444181

> <CNNaffinity>
5.0119175911

> <CNN_VS>
1.1775220633

> <CNNaffinity_variance>
0.3657893836

$$$$
[H]OC([H])([H])[C@]1(F)c2sc(C(=O)N([H])[H])nc2-c2c([H])c(C#C[C@@]3(O[H])C(=O)N(C([H])([H])[H])C([H])([H])C3([H])[H])c([H])c([H])c2OC1([H])[H]


 34 37  0  0  0  0  0  0  0  0999 V2000
   37.3476   14.9732  -11.0750 C   0  0  0  0  0  0  0  0  0  0  0  0
   36.0102   15.3177  -10.9102 C   0  0  0  0  0  0  0  0  0  0  0  0
   35.0488   15.0474  -11.8556 C   0  0  0  0  0  0  0  0  0  0  0  0
   35.4548   14.4076  -13.0050 C   0  0  0  0  0  0  0  0  0  0  0  0
   34.3982   14.1891  -13.8821 O   0  0  0  0  0  0  0  0  0  0  0  0
   34.4026   13.6659  -15.2028 C   0  0  0  0  0  0  0  0  0  0  0  0
   35.1460   12.3635  -15.3097 C   0  0  0  0  0  0  0  0  0  0  0  0
   34.8718   11.8276  -16.5543 F   0  0  0  0  0  0  0  0  0  0  0  0
   36.6298   12.6332  -15.2673 C   0  0  0  0  0  0  0  0  0  0  0  0
   37.8203   12.0837  -16.3647 S   0  0  0  0  0  0  0  0  0  0  0  0
   39.1912   12.7990  -15.6360 C   0  0  0  0  0  0  0  0  0  0  0  0
   38.6627   13.4195  -14.5924 N   0  0  0  0  0  0  0  0  0  0  0  0
   37.3884   13.3577  -14.3784 C   0  0  0  0  0  0  0  0  0  0  0  0
   36.7673   14.0493  -13.2081 C   0  0  0  0  0  0  0  0  0  0  0  0
   37.7193   14.3376  -12.2297 C   0  0  0  0  0  0  0  0  0  0  0  0
   40.6081   12.7473  -16.0521 C   0  0  0  0  0  0  0  0  0  0  0  0
   40.8972   12.4628  -17.3993 N   0  0  0  0  0  0  0  0  0  0  0  0
   41.4994   12.9536  -15.2129 O   0  0  0  0  0  0  0  0  0  0  0  0
   40.3279   11.7780  -17.9699 H   0  0  0  0  0  0  0  0  0  0  0  0
   41.6923   12.9059  -17.9319 H   0  0  0  0  0  0  0  0  0  0  0  0
   34.7326   11.3901  -14.2529 C   0  0  0  0  0  0  0  0  0  0  0  0
   33.3588   11.1906  -14.3836 O   0  0  0  0  0  0  0  0  0  0  0  0
   32.9372   12.0648  -14.1323 H   0  0  0  0  0  0  0  0  0  0  0  0
   39.1215   15.5592   -9.1995 C   0  0  0  0  0  0  0  0  0  0  0  0
   38.3143   15.2821  -10.0481 C   0  0  0  0  0  0  0  0  0  0  0  0
   42.0419   13.9075   -5.6792 C   0  0  0  0  0  0  0  0  0  0  0  0
   41.4867   14.4864   -6.8882 N   0  0  0  0  0  0  0  0  0  0  0  0
   42.2661   14.8285   -8.0638 C   0  0  0  0  0  0  0  0  0  0  0  0
   41.5095   15.9493   -8.7016 C   0  0  0  0  0  0  0  0  0  0  0  0
   40.1131   15.9189   -8.1766 C   0  0  0  0  0  0  0  0  0  0  0  0
   39.7559   17.0867   -7.5093 O   0  0  0  0  0  0  0  0  0  0  0  0
   40.1443   14.8297   -7.1843 C   0  0  0  0  0  0  0  0  0  0  0  0
   39.1444   14.2759   -6.6668 O   0  0  0  0  0  0  0  0  0  0  0  0
   38.8353   17.3764   -7.7111 H   0  0  0  0  0  0  0  0  0  0  0  0
 26 27  1  0  0  0
 27 28  1  0  0  0
 28 29  1  0  0  0
 29 30  1  0  0  0
 30 31  1  0  0  0
 30 24  1  0  0  0
 24 25  3  0  0  0
 25  1  1  0  0  0
  1  2  2  0  0  0
  2  3  1  0  0  0
  3  4  2  0  0  0
  4  5  1  0  0  0
  5  6  1  0  0  0
  6  7  1  0  0  0
  7  8  1  0  0  0
  7 21  1  0  0  0
 21 22  1  0  0  0
  7  9  1  0  0  0
  9 10  1  0  0  0
 10 11  1  0  0  0
 11 12  2  0  0  0
 12 13  1  0  0  0
 13 14  1  0  0  0
 14 15  2  0  0  0
 11 16  1  0  0  0
 16 17  1  0  0  0
 16 18  2  0  0  0
 30 32  1  0  0  0
 32 33  2  0  0  0
 32 27  1  0  0  0
 15  1  1  0  0  0
 14  4  1  0  0  0
 13  9  2  0  0  0
 31 34  1  0  0  0
 22 23  1  0  0  0
 17 19  1  0  0  0
 17 20  1  0  0  0
M  END
> <minimizedAffinity>
-7.02750

> <CNNscore>
0.2007899135

> <CNNaffinity>
6.1964602470

> <CNN_VS>
1.2441867590

> <CNNaffinity_variance>
0.4134978354

$$$$
[H]O[C@]1(C#Cc2c([H])c([H])c3c(c2[H])-n2nc(C(=O)N([H])[H])c([H])c2C2(C([H])([H])O3)C([H])([H])C2([H])[H])C(=O)N(C([H])([H])[H])C([H])([H])C1([H])[H]


 32 36  0  0  0  0  0  0  0  0999 V2000
   36.5285   12.9504  -13.7846 C   0  0  0  0  0  0  0  0  0  0  0  0
   35.4508   12.3558  -14.4078 C   0  0  0  0  0  0  0  0  0  0  0  0
   35.6233   11.7253  -15.6139 C   0  0  0  0  0  0  0  0  0  0  0  0
   36.8875   11.7028  -16.1787 C   0  0  0  0  0  0  0  0  0  0  0  0
   36.8931   11.0296  -17.3924 O   0  0  0  0  0  0  0  0  0  0  0  0
   38.0002   10.3670  -17.9695 C   0  0  0  0  0  0  0  0  0  0  0  0
   39.1153   11.3073  -18.3570 C   0  0  0  0  0  0  0  0  0  0  0  0
   39.9825   10.7905  -19.4740 C   0  0  0  0  0  0  0  0  0  0  0  0
   39.1102   11.9885  -19.6845 C   0  0  0  0  0  0  0  0  0  0  0  0
   39.7694   11.9277  -17.2024 C   0  0  0  0  0  0  0  0  0  0  0  0
   41.1230   12.1873  -17.1899 C   0  0  0  0  0  0  0  0  0  0  0  0
   41.4600   12.7736  -15.9762 C   0  0  0  0  0  0  0  0  0  0  0  0
   40.3068   12.8521  -15.2911 N   0  0  0  0  0  0  0  0  0  0  0  0
   39.3158   12.3545  -16.0138 N   0  0  0  0  0  0  0  0  0  0  0  0
   37.9541   12.3027  -15.5412 C   0  0  0  0  0  0  0  0  0  0  0  0
   37.8063   12.9408  -14.3317 C   0  0  0  0  0  0  0  0  0  0  0  0
   42.7959   13.2091  -15.5476 C   0  0  0  0  0  0  0  0  0  0  0  0
   43.8428   13.4413  -16.4641 N   0  0  0  0  0  0  0  0  0  0  0  0
   42.9991   13.3769  -14.3187 O   0  0  0  0  0  0  0  0  0  0  0  0
   44.8416   13.3210  -16.1998 H   0  0  0  0  0  0  0  0  0  0  0  0
   43.6196   13.7413  -17.4333 H   0  0  0  0  0  0  0  0  0  0  0  0
   36.3122   14.1967  -11.4547 C   0  0  0  0  0  0  0  0  0  0  0  0
   36.3995   13.6275  -12.5124 C   0  0  0  0  0  0  0  0  0  0  0  0
   38.7511   17.6380   -9.6693 C   0  0  0  0  0  0  0  0  0  0  0  0
   37.6344   16.7739   -9.9970 N   0  0  0  0  0  0  0  0  0  0  0  0
   36.4097   17.2222  -10.6501 C   0  0  0  0  0  0  0  0  0  0  0  0
   35.3961   16.1417  -10.4033 C   0  0  0  0  0  0  0  0  0  0  0  0
   36.2302   14.9028  -10.1535 C   0  0  0  0  0  0  0  0  0  0  0  0
   35.6517   14.0629   -9.2072 O   0  0  0  0  0  0  0  0  0  0  0  0
   37.5657   15.3899   -9.7374 C   0  0  0  0  0  0  0  0  0  0  0  0
   38.4655   14.6767   -9.2419 O   0  0  0  0  0  0  0  0  0  0  0  0
   36.0377   13.1678   -9.2727 H   0  0  0  0  0  0  0  0  0  0  0  0
 24 25  1  0  0  0
 25 26  1  0  0  0
 26 27  1  0  0  0
 27 28  1  0  0  0
 28 29  1  0  0  0
 28 22  1  0  0  0
 22 23  3  0  0  0
 23  1  1  0  0  0
  1  2  2  0  0  0
  2  3  1  0  0  0
  3  4  2  0  0  0
  4  5  1  0  0  0
  5  6  1  0  0  0
  6  7  1  0  0  0
  7  8  1  0  0  0
  8  9  1  0  0  0
  7 10  1  0  0  0
 10 11  2  0  0  0
 11 12  1  0  0  0
 12 13  2  0  0  0
 13 14  1  0  0  0
 14 15  1  0  0  0
 15 16  2  0  0  0
 12 17  1  0  0  0
 17 18  1  0  0  0
 17 19  2  0  0  0
 28 30  1  0  0  0
 30 31  2  0  0  0
 30 25  1  0  0  0
 16  1  1  0  0  0
 15  4  1  0  0  0
  9  7  1  0  0  0
 14 10  1  0  0  0
 29 32  1  0  0  0
 18 20  1  0  0  0
 18 21  1  0  0  0
M  END
> <minimizedAffinity>
-9.04684

> <CNNscore>
0.5296319127

> <CNNaffinity>
6.8049888611

> <CNN_VS>
3.6041393280

> <CNNaffinity_variance>
0.2174326479

$$$$
[H]O[C@]1(C#Cc2c([H])c([H])c3c(c2[H])-n2nc(C(=O)N([H])[H])c([H])c2C2(C([H])([H])O3)C([H])([H])C2([H])[H])C(=O)N(C([H])([H])[H])C([H])([H])C1([H])[H]


 32 36  0  0  0  0  0  0  0  0999 V2000
   40.3660   15.0386   -8.0075 C   0  0  0  0  0  0  0  0  0  0  0  0
   40.1131   13.7469   -7.5941 C   0  0  0  0  0  0  0  0  0  0  0  0
   41.1167   13.0041   -7.0257 C   0  0  0  0  0  0  0  0  0  0  0  0
   42.3691   13.5770   -6.8811 C   0  0  0  0  0  0  0  0  0  0  0  0
   43.2679   12.6988   -6.2919 O   0  0  0  0  0  0  0  0  0  0  0  0
   44.4054   13.0589   -5.5341 C   0  0  0  0  0  0  0  0  0  0  0  0
   45.4588   13.7678   -6.3500 C   0  0  0  0  0  0  0  0  0  0  0  0
   46.8527   13.6171   -5.8013 C   0  0  0  0  0  0  0  0  0  0  0  0
   46.4823   12.9927   -7.1104 C   0  0  0  0  0  0  0  0  0  0  0  0
   45.0339   15.0927   -6.8080 C   0  0  0  0  0  0  0  0  0  0  0  0
   45.9176   16.1468   -6.8943 C   0  0  0  0  0  0  0  0  0  0  0  0
   45.2398   17.2690   -7.3545 C   0  0  0  0  0  0  0  0  0  0  0  0
   43.9708   16.8648   -7.5329 N   0  0  0  0  0  0  0  0  0  0  0  0
   43.8530   15.5864   -7.2111 N   0  0  0  0  0  0  0  0  0  0  0  0
   42.6042   14.8705   -7.3003 C   0  0  0  0  0  0  0  0  0  0  0  0
   41.6144   15.6349   -7.8728 C   0  0  0  0  0  0  0  0  0  0  0  0
   45.8032   18.6050   -7.5906 C   0  0  0  0  0  0  0  0  0  0  0  0
   46.8960   18.8196   -8.4564 N   0  0  0  0  0  0  0  0  0  0  0  0
   45.2837   19.5816   -6.9940 O   0  0  0  0  0  0  0  0  0  0  0  0
   47.5601   19.6082   -8.3184 H   0  0  0  0  0  0  0  0  0  0  0  0
   47.0503   18.1766   -9.2577 H   0  0  0  0  0  0  0  0  0  0  0  0
   38.5028   16.5664   -9.1132 C   0  0  0  0  0  0  0  0  0  0  0  0
   39.3425   15.8633   -8.6124 C   0  0  0  0  0  0  0  0  0  0  0  0
   34.3320   15.7349  -10.8139 C   0  0  0  0  0  0  0  0  0  0  0  0
   35.4321   16.3973  -10.1414 N   0  0  0  0  0  0  0  0  0  0  0  0
   35.4034   16.8359   -8.7506 C   0  0  0  0  0  0  0  0  0  0  0  0
   36.5281   17.8213   -8.6098 C   0  0  0  0  0  0  0  0  0  0  0  0
   37.4839   17.4529   -9.7250 C   0  0  0  0  0  0  0  0  0  0  0  0
   38.1096   18.5696  -10.2700 O   0  0  0  0  0  0  0  0  0  0  0  0
   36.6773   16.7125  -10.7226 C   0  0  0  0  0  0  0  0  0  0  0  0
   37.0562   16.4259  -11.8794 O   0  0  0  0  0  0  0  0  0  0  0  0
   38.9067   18.2987  -10.7658 H   0  0  0  0  0  0  0  0  0  0  0  0
 24 25  1  0  0  0
 25 26  1  0  0  0
 26 27  1  0  0  0
 27 28  1  0  0  0
 28 29  1  0  0  0
 28 22  1  0  0  0
 22 23  3  0  0  0
 23  1  1  0  0  0
  1  2  2  0  0  0
  2  3  1  0  0  0
  3  4  2  0  0  0
  4  5  1  0  0  0
  5  6  1  0  0  0
  6  7  1  0  0  0
  7  8  1  0  0  0
  8  9  1  0  0  0
  7 10  1  0  0  0
 10 11  2  0  0  0
 11 12  1  0  0  0
 12 13  2  0  0  0
 13 14  1  0  0  0
 14 15  1  0  0  0
 15 16  2  0  0  0
 12 17  1  0  0  0
 17 18  1  0  0  0
 17 19  2  0  0  0
 28 30  1  0  0  0
 30 31  2  0  0  0
 30 25  1  0  0  0
 16  1  1  0  0  0
 15  4  1  0  0  0
  9  7  1  0  0  0
 14 10  1  0  0  0
 29 32  1  0  0  0
 18 20  1  0  0  0
 18 21  1  0  0  0
M  END
> <minimizedAffinity>
-5.46332

> <CNNscore>
0.4215063155

> <CNNaffinity>
5.2411007881

> <CNN_VS>
2.2091569901

> <CNNaffinity_variance>
0.2812841237

$$$$
[H]O[C@]1(C#Cc2c([H])c([H])c3c(c2[H])-n2nc(C(=O)N([H])[H])c([H])c2C2(C([H])([H])O3)C([H])([H])C2([H])[H])C(=O)N(C([H])([H])[H])C([H])([H])C1([H])[H]


 32 36  0  0  0  0  0  0  0  0999 V2000
   39.6208   14.4173  -13.3451 C   0  0  0  0  0  0  0  0  0  0  0  0
   40.8805   14.4236  -13.9078 C   0  0  0  0  0  0  0  0  0  0  0  0
   41.0987   13.7778  -15.0983 C   0  0  0  0  0  0  0  0  0  0  0  0
   40.0376   13.1304  -15.7089 C   0  0  0  0  0  0  0  0  0  0  0  0
   40.4224   12.5295  -16.8993 O   0  0  0  0  0  0  0  0  0  0  0  0
   39.5817   12.2599  -18.0031 C   0  0  0  0  0  0  0  0  0  0  0  0
   38.5168   11.2347  -17.6983 C   0  0  0  0  0  0  0  0  0  0  0  0
   38.0335   10.4847  -18.9111 C   0  0  0  0  0  0  0  0  0  0  0  0
   38.8011    9.7766  -17.8387 C   0  0  0  0  0  0  0  0  0  0  0  0
   37.5206   11.7115  -16.7361 C   0  0  0  0  0  0  0  0  0  0  0  0
   36.1923   11.3567  -16.8330 C   0  0  0  0  0  0  0  0  0  0  0  0
   35.4880   11.9517  -15.7936 C   0  0  0  0  0  0  0  0  0  0  0  0
   36.4051   12.6468  -15.0998 N   0  0  0  0  0  0  0  0  0  0  0  0
   37.5978   12.5038  -15.6557 N   0  0  0  0  0  0  0  0  0  0  0  0
   38.7843   13.1344  -15.1318 C   0  0  0  0  0  0  0  0  0  0  0  0
   38.5408   13.7747  -13.9390 C   0  0  0  0  0  0  0  0  0  0  0  0
   34.0486   11.8366  -15.5236 C   0  0  0  0  0  0  0  0  0  0  0  0
   33.3982   12.6281  -14.5539 N   0  0  0  0  0  0  0  0  0  0  0  0
   33.3859   10.9997  -16.1869 O   0  0  0  0  0  0  0  0  0  0  0  0
   32.5496   12.2961  -14.0523 H   0  0  0  0  0  0  0  0  0  0  0  0
   33.7703   13.5713  -14.3273 H   0  0  0  0  0  0  0  0  0  0  0  0
   39.1116   15.6551  -11.0567 C   0  0  0  0  0  0  0  0  0  0  0  0
   39.3387   15.0831  -12.0919 C   0  0  0  0  0  0  0  0  0  0  0  0
   35.2140   16.7886   -8.9348 C   0  0  0  0  0  0  0  0  0  0  0  0
   36.5866   16.3779   -9.1549 N   0  0  0  0  0  0  0  0  0  0  0  0
   37.1635   15.1329   -8.6603 C   0  0  0  0  0  0  0  0  0  0  0  0
   38.6525   15.3157   -8.7326 C   0  0  0  0  0  0  0  0  0  0  0  0
   38.8430   16.3808   -9.7919 C   0  0  0  0  0  0  0  0  0  0  0  0
   39.9139   17.2211   -9.5045 O   0  0  0  0  0  0  0  0  0  0  0  0
   37.5561   17.1100   -9.8702 C   0  0  0  0  0  0  0  0  0  0  0  0
   37.3813   18.1909  -10.4742 O   0  0  0  0  0  0  0  0  0  0  0  0
   40.1922   17.6974  -10.3108 H   0  0  0  0  0  0  0  0  0  0  0  0
 24 25  1  0  0  0
 25 26  1  0  0  0
 26 27  1  0  0  0
 27 28  1  0  0  0
 28 29  1  0  0  0
 28 22  1  0  0  0
 22 23  3  0  0  0
 23  1  1  0  0  0
  1  2  2  0  0  0
  2  3  1  0  0  0
  3  4  2  0  0  0
  4  5  1  0  0  0
  5  6  1  0  0  0
  6  7  1  0  0  0
  7  8  1  0  0  0
  8  9  1  0  0  0
  7 10  1  0  0  0
 10 11  2  0  0  0
 11 12  1  0  0  0
 12 13  2  0  0  0
 13 14  1  0  0  0
 14 15  1  0  0  0
 15 16  2  0  0  0
 12 17  1  0  0  0
 17 18  1  0  0  0
 17 19  2  0  0  0
 28 30  1  0  0  0
 30 31  2  0  0  0
 30 25  1  0  0  0
 16  1  1  0  0  0
 15  4  1  0  0  0
  9  7  1  0  0  0
 14 10  1  0  0  0
 29 32  1  0  0  0
 18 20  1  0  0  0
 18 21  1  0  0  0
M  END
> <minimizedAffinity>
-7.95213

> <CNNscore>
0.4168937206

> <CNNaffinity>
6.7700209618

> <CNN_VS>
2.8223791122

> <CNNaffinity_variance>
0.4522829652

$$$$
[H]O[C@]1(C#Cc2c([H])c([H])c3c(c2[H])-n2nc(C(=O)N([H])[H])c([H])c2C2(C([H])([H])O3)C([H])([H])C2([H])[H])C(=O)N(C([H])([H])[H])C([H])([H])C1([H])[H]


 32 36  0  0  0  0  0  0  0  0999 V2000
   39.6635   13.7060   -7.1077 C   0  0  0  0  0  0  0  0  0  0  0  0
   39.6662   13.2529   -5.8046 C   0  0  0  0  0  0  0  0  0  0  0  0
   40.8332   12.8015   -5.2422 C   0  0  0  0  0  0  0  0  0  0  0  0
   41.9885   12.8132   -6.0058 C   0  0  0  0  0  0  0  0  0  0  0  0
   43.0764   12.3273   -5.2940 O   0  0  0  0  0  0  0  0  0  0  0  0
   44.4315   12.6609   -5.5182 C   0  0  0  0  0  0  0  0  0  0  0  0
   44.9456   12.1790   -6.8528 C   0  0  0  0  0  0  0  0  0  0  0  0
   46.4337   11.9516   -6.8822 C   0  0  0  0  0  0  0  0  0  0  0  0
   45.4884   10.7976   -7.0060 C   0  0  0  0  0  0  0  0  0  0  0  0
   44.3275   12.8681   -7.9880 C   0  0  0  0  0  0  0  0  0  0  0  0
   45.0394   13.1636   -9.1307 C   0  0  0  0  0  0  0  0  0  0  0  0
   44.2026   13.8130  -10.0299 C   0  0  0  0  0  0  0  0  0  0  0  0
   43.0133   13.8923   -9.4094 N   0  0  0  0  0  0  0  0  0  0  0  0
   43.0899   13.3365   -8.2106 N   0  0  0  0  0  0  0  0  0  0  0  0
   41.9673   13.2699   -7.3076 C   0  0  0  0  0  0  0  0  0  0  0  0
   40.8099   13.7273   -7.8934 C   0  0  0  0  0  0  0  0  0  0  0  0
   44.5564   14.3026  -11.3689 C   0  0  0  0  0  0  0  0  0  0  0  0
   44.8158   13.4296  -12.4462 N   0  0  0  0  0  0  0  0  0  0  0  0
   44.6269   15.5448  -11.5467 O   0  0  0  0  0  0  0  0  0  0  0  0
   45.4557   13.6906  -13.2235 H   0  0  0  0  0  0  0  0  0  0  0  0
   44.3591   12.4968  -12.4726 H   0  0  0  0  0  0  0  0  0  0  0  0
   37.4684   14.5983   -8.2968 C   0  0  0  0  0  0  0  0  0  0  0  0
   38.4597   14.1921   -7.7468 C   0  0  0  0  0  0  0  0  0  0  0  0
   34.1915   17.5390   -7.0344 C   0  0  0  0  0  0  0  0  0  0  0  0
   35.1478   16.8192   -7.8520 N   0  0  0  0  0  0  0  0  0  0  0  0
   36.2149   17.4504   -8.6204 C   0  0  0  0  0  0  0  0  0  0  0  0
   36.6618   16.4222   -9.6198 C   0  0  0  0  0  0  0  0  0  0  0  0
   36.2616   15.1019   -8.9956 C   0  0  0  0  0  0  0  0  0  0  0  0
   35.8573   14.1723   -9.9485 O   0  0  0  0  0  0  0  0  0  0  0  0
   35.1893   15.4206   -8.0247 C   0  0  0  0  0  0  0  0  0  0  0  0
   34.4566   14.5762   -7.4645 O   0  0  0  0  0  0  0  0  0  0  0  0
   35.8831   13.2718   -9.5705 H   0  0  0  0  0  0  0  0  0  0  0  0
 24 25  1  0  0  0
 25 26  1  0  0  0
 26 27  1  0  0  0
 27 28  1  0  0  0
 28 29  1  0  0  0
 28 22  1  0  0  0
 22 23  3  0  0  0
 23  1  1  0  0  0
  1  2  2  0  0  0
  2  3  1  0  0  0
  3  4  2  0  0  0
  4  5  1  0  0  0
  5  6  1  0  0  0
  6  7  1  0  0  0
  7  8  1  0  0  0
  8  9  1  0  0  0
  7 10  1  0  0  0
 10 11  2  0  0  0
 11 12  1  0  0  0
 12 13  2  0  0  0
 13 14  1  0  0  0
 14 15  1  0  0  0
 15 16  2  0  0  0
 12 17  1  0  0  0
 17 18  1  0  0  0
 17 19  2  0  0  0
 28 30  1  0  0  0
 30 31  2  0  0  0
 30 25  1  0  0  0
 16  1  1  0  0  0
 15  4  1  0  0  0
  9  7  1  0  0  0
 14 10  1  0  0  0
 29 32  1  0  0  0
 18 20  1  0  0  0
 18 21  1  0  0  0
M  END
> <minimizedAffinity>
-5.45453

> <CNNscore>
0.4119811058

> <CNNaffinity>
5.3624300957

> <CNN_VS>
2.2092199326

> <CNNaffinity_variance>
0.5293374062

$$$$
[H]O[C@]1(C#Cc2c([H])c([H])c3c(c2[H])-n2nc(C(=O)N([H])[H])c([H])c2C2(C([H])([H])O3)C([H])([H])C2([H])[H])C(=O)N(C([H])([H])[H])C([H])([H])C1([H])[H]


 32 36  0  0  0  0  0  0  0  0999 V2000
   36.6009   13.4708  -13.2348 C   0  0  0  0  0  0  0  0  0  0  0  0
   35.6294   12.8718  -14.0099 C   0  0  0  0  0  0  0  0  0  0  0  0
   35.9774   12.2618  -15.1883 C   0  0  0  0  0  0  0  0  0  0  0  0
   37.3081   12.2641  -15.5717 C   0  0  0  0  0  0  0  0  0  0  0  0
   37.4925   11.6094  -16.7815 O   0  0  0  0  0  0  0  0  0  0  0  0
   38.6789   10.9698  -17.2073 C   0  0  0  0  0  0  0  0  0  0  0  0
   39.8230   11.9302  -17.4232 C   0  0  0  0  0  0  0  0  0  0  0  0
   40.8448   11.4415  -18.4152 C   0  0  0  0  0  0  0  0  0  0  0  0
   39.9925   12.6312  -18.7295 C   0  0  0  0  0  0  0  0  0  0  0  0
   40.3007   12.5415  -16.1807 C   0  0  0  0  0  0  0  0  0  0  0  0
   41.6353   12.8183  -15.9763 C   0  0  0  0  0  0  0  0  0  0  0  0
   41.7915   13.3906  -14.7199 C   0  0  0  0  0  0  0  0  0  0  0  0
   40.5531   13.4439  -14.2013 N   0  0  0  0  0  0  0  0  0  0  0  0
   39.6798   12.9446  -15.0615 N   0  0  0  0  0  0  0  0  0  0  0  0
   38.2666   12.8680  -14.7840 C   0  0  0  0  0  0  0  0  0  0  0  0
   37.9423   13.4859  -13.5986 C   0  0  0  0  0  0  0  0  0  0  0  0
   43.0481   13.8369  -14.1037 C   0  0  0  0  0  0  0  0  0  0  0  0
   43.1911   13.9878  -12.7084 N   0  0  0  0  0  0  0  0  0  0  0  0
   44.0214   14.0895  -14.8576 O   0  0  0  0  0  0  0  0  0  0  0  0
   43.8550   14.6734  -12.2948 H   0  0  0  0  0  0  0  0  0  0  0  0
   42.6210   13.4017  -12.0674 H   0  0  0  0  0  0  0  0  0  0  0  0
   36.0380   14.6880  -10.9479 C   0  0  0  0  0  0  0  0  0  0  0  0
   36.2860   14.1270  -11.9843 C   0  0  0  0  0  0  0  0  0  0  0  0
   38.6595   15.6760   -7.3243 C   0  0  0  0  0  0  0  0  0  0  0  0
   37.6499   15.7884   -8.3583 N   0  0  0  0  0  0  0  0  0  0  0  0
   37.5768   16.8797   -9.3234 C   0  0  0  0  0  0  0  0  0  0  0  0
   36.1873   16.8302   -9.8915 C   0  0  0  0  0  0  0  0  0  0  0  0
   35.7514   15.3960   -9.6771 C   0  0  0  0  0  0  0  0  0  0  0  0
   34.3939   15.2978   -9.3889 O   0  0  0  0  0  0  0  0  0  0  0  0
   36.6019   14.8726   -8.5831 C   0  0  0  0  0  0  0  0  0  0  0  0
   36.4054   13.7975   -7.9754 O   0  0  0  0  0  0  0  0  0  0  0  0
   34.0847   14.3831   -9.5384 H   0  0  0  0  0  0  0  0  0  0  0  0
 24 25  1  0  0  0
 25 26  1  0  0  0
 26 27  1  0  0  0
 27 28  1  0  0  0
 28 29  1  0  0  0
 28 22  1  0  0  0
 22 23  3  0  0  0
 23  1  1  0  0  0
  1  2  2  0  0  0
  2  3  1  0  0  0
  3  4  2  0  0  0
  4  5  1  0  0  0
  5  6  1  0  0  0
  6  7  1  0  0  0
  7  8  1  0  0  0
  8  9  1  0  0  0
  7 10  1  0  0  0
 10 11  2  0  0  0
 11 12  1  0  0  0
 12 13  2  0  0  0
 13 14  1  0  0  0
 14 15  1  0  0  0
 15 16  2  0  0  0
 12 17  1  0  0  0
 17 18  1  0  0  0
 17 19  2  0  0  0
 28 30  1  0  0  0
 30 31  2  0  0  0
 30 25  1  0  0  0
 16  1  1  0  0  0
 15  4  1  0  0  0
  9  7  1  0  0  0
 14 10  1  0  0  0
 29 32  1  0  0  0
 18 20  1  0  0  0
 18 21  1  0  0  0
M  END
> <minimizedAffinity>
-9.18858

> <CNNscore>
0.3360777199

> <CNNaffinity>
6.4292845726

> <CNN_VS>
2.1607391834

> <CNNaffinity_variance>
0.1634831131

$$$$
[H]O[C@]1(C#Cc2c([H])c([H])c3c(c2[H])-n2nc(C(=O)N([H])[H])c([H])c2C2(C([H])([H])O3)C([H])([H])C2([H])[H])C(=O)N(C([H])([H])[H])C([H])([H])C1([H])[H]


 32 36  0  0  0  0  0  0  0  0999 V2000
   40.6979   15.0763  -12.7147 C   0  0  0  0  0  0  0  0  0  0  0  0
   40.0499   15.6817  -11.6578 C   0  0  0  0  0  0  0  0  0  0  0  0
   38.6941   15.5309  -11.5127 C   0  0  0  0  0  0  0  0  0  0  0  0
   38.0059   14.7674  -12.4407 C   0  0  0  0  0  0  0  0  0  0  0  0
   36.6492   14.7140  -12.1532 O   0  0  0  0  0  0  0  0  0  0  0  0
   35.7636   13.6739  -12.5163 C   0  0  0  0  0  0  0  0  0  0  0  0
   35.5674   13.5589  -14.0083 C   0  0  0  0  0  0  0  0  0  0  0  0
   34.2493   12.9458  -14.4002 C   0  0  0  0  0  0  0  0  0  0  0  0
   34.5375   14.3824  -14.7067 C   0  0  0  0  0  0  0  0  0  0  0  0
   36.7735   13.1176  -14.7129 C   0  0  0  0  0  0  0  0  0  0  0  0
   36.7076   12.2890  -15.8123 C   0  0  0  0  0  0  0  0  0  0  0  0
   37.9960   12.0395  -16.2687 C   0  0  0  0  0  0  0  0  0  0  0  0
   38.8019   12.7206  -15.4368 N   0  0  0  0  0  0  0  0  0  0  0  0
   38.0811   13.3527  -14.5242 N   0  0  0  0  0  0  0  0  0  0  0  0
   38.6703   14.1691  -13.4916 C   0  0  0  0  0  0  0  0  0  0  0  0
   40.0289   14.3056  -13.6583 C   0  0  0  0  0  0  0  0  0  0  0  0
   38.3796   11.2069  -17.4166 C   0  0  0  0  0  0  0  0  0  0  0  0
   37.4278   10.5324  -18.2098 N   0  0  0  0  0  0  0  0  0  0  0  0
   39.6017   11.1007  -17.6901 O   0  0  0  0  0  0  0  0  0  0  0  0
   37.6548    9.6479  -18.7077 H   0  0  0  0  0  0  0  0  0  0  0  0
   36.4698   10.9227  -18.3052 H   0  0  0  0  0  0  0  0  0  0  0  0
   43.3167   15.3081  -13.0560 C   0  0  0  0  0  0  0  0  0  0  0  0
   42.1255   15.2044  -12.9122 C   0  0  0  0  0  0  0  0  0  0  0  0
   46.3681   18.1465  -11.1557 C   0  0  0  0  0  0  0  0  0  0  0  0
   45.7697   16.9499  -11.7137 N   0  0  0  0  0  0  0  0  0  0  0  0
   45.6566   15.6789  -11.0072 C   0  0  0  0  0  0  0  0  0  0  0  0
   45.3919   14.6459  -12.0648 C   0  0  0  0  0  0  0  0  0  0  0  0
   44.7863   15.4337  -13.2074 C   0  0  0  0  0  0  0  0  0  0  0  0
   45.1677   14.9348  -14.4489 O   0  0  0  0  0  0  0  0  0  0  0  0
   45.2152   16.8369  -13.0049 C   0  0  0  0  0  0  0  0  0  0  0  0
   45.0960   17.7510  -13.8499 O   0  0  0  0  0  0  0  0  0  0  0  0
   44.5591   15.2580  -15.1415 H   0  0  0  0  0  0  0  0  0  0  0  0
 24 25  1  0  0  0
 25 26  1  0  0  0
 26 27  1  0  0  0
 27 28  1  0  0  0
 28 29  1  0  0  0
 28 22  1  0  0  0
 22 23  3  0  0  0
 23  1  1  0  0  0
  1  2  2  0  0  0
  2  3  1  0  0  0
  3  4  2  0  0  0
  4  5  1  0  0  0
  5  6  1  0  0  0
  6  7  1  0  0  0
  7  8  1  0  0  0
  8  9  1  0  0  0
  7 10  1  0  0  0
 10 11  2  0  0  0
 11 12  1  0  0  0
 12 13  2  0  0  0
 13 14  1  0  0  0
 14 15  1  0  0  0
 15 16  2  0  0  0
 12 17  1  0  0  0
 17 18  1  0  0  0
 17 19  2  0  0  0
 28 30  1  0  0  0
 30 31  2  0  0  0
 30 25  1  0  0  0
 16  1  1  0  0  0
 15  4  1  0  0  0
  9  7  1  0  0  0
 14 10  1  0  0  0
 29 32  1  0  0  0
 18 20  1  0  0  0
 18 21  1  0  0  0
M  END
> <minimizedAffinity>
-7.40016

> <CNNscore>
0.2950139940

> <CNNaffinity>
6.2423357964

> <CNN_VS>
1.8415764570

> <CNNaffinity_variance>
0.4850407243

$$$$
[H]O[C@]1(C#Cc2c([H])c([H])c3c(c2[H])-n2nc(C(=O)N([H])[H])c([H])c2C2(C([H])([H])O3)C([H])([H])C2([H])[H])C(=O)N(C([H])([H])[H])C([H])([H])C1([H])[H]


 32 36  0  0  0  0  0  0  0  0999 V2000
   40.5148   12.6454  -15.8030 C   0  0  0  0  0  0  0  0  0  0  0  0
   40.7484   11.9016  -16.9412 C   0  0  0  0  0  0  0  0  0  0  0  0
   39.6951   11.3369  -17.6147 C   0  0  0  0  0  0  0  0  0  0  0  0
   38.4130   11.5310  -17.1287 C   0  0  0  0  0  0  0  0  0  0  0  0
   37.4650   10.8977  -17.9203 O   0  0  0  0  0  0  0  0  0  0  0  0
   36.1117   11.2803  -18.0618 C   0  0  0  0  0  0  0  0  0  0  0  0
   35.3173   11.1244  -16.7881 C   0  0  0  0  0  0  0  0  0  0  0  0
   33.8435   10.9166  -17.0153 C   0  0  0  0  0  0  0  0  0  0  0  0
   34.6836    9.8189  -16.4409 C   0  0  0  0  0  0  0  0  0  0  0  0
   35.7317   12.0559  -15.7363 C   0  0  0  0  0  0  0  0  0  0  0  0
   34.8226   12.6123  -14.8624 C   0  0  0  0  0  0  0  0  0  0  0  0
   35.4959   13.4494  -13.9813 C   0  0  0  0  0  0  0  0  0  0  0  0
   36.7875   13.3769  -14.3447 N   0  0  0  0  0  0  0  0  0  0  0  0
   36.9227   12.5578  -15.3756 N   0  0  0  0  0  0  0  0  0  0  0  0
   38.1978   12.2780  -15.9887 C   0  0  0  0  0  0  0  0  0  0  0  0
   39.2374   12.8540  -15.2961 C   0  0  0  0  0  0  0  0  0  0  0  0
   34.9081   14.2386  -12.8906 C   0  0  0  0  0  0  0  0  0  0  0  0
   33.6666   14.8957  -13.0203 N   0  0  0  0  0  0  0  0  0  0  0  0
   35.5442   14.3228  -11.8099 O   0  0  0  0  0  0  0  0  0  0  0  0
   33.4440   15.7605  -12.4870 H   0  0  0  0  0  0  0  0  0  0  0  0
   32.9476   14.5123  -13.6649 H   0  0  0  0  0  0  0  0  0  0  0  0
   42.4941   13.7553  -14.4322 C   0  0  0  0  0  0  0  0  0  0  0  0
   41.5905   13.2615  -15.0567 C   0  0  0  0  0  0  0  0  0  0  0  0
   46.3308   11.9243  -12.7275 C   0  0  0  0  0  0  0  0  0  0  0  0
   45.4129   12.8696  -13.3317 N   0  0  0  0  0  0  0  0  0  0  0  0
   45.6079   13.4869  -14.6387 C   0  0  0  0  0  0  0  0  0  0  0  0
   44.6904   14.6756  -14.6699 C   0  0  0  0  0  0  0  0  0  0  0  0
   43.6155   14.3394  -13.6578 C   0  0  0  0  0  0  0  0  0  0  0  0
   43.1682   15.4653  -12.9738 O   0  0  0  0  0  0  0  0  0  0  0  0
   44.2108   13.3275  -12.7547 C   0  0  0  0  0  0  0  0  0  0  0  0
   43.7142   12.9566  -11.6686 O   0  0  0  0  0  0  0  0  0  0  0  0
   42.3057   15.2816  -12.5533 H   0  0  0  0  0  0  0  0  0  0  0  0
 24 25  1  0  0  0
 25 26  1  0  0  0
 26 27  1  0  0  0
 27 28  1  0  0  0
 28 29  1  0  0  0
 28 22  1  0  0  0
 22 23  3  0  0  0
 23  1  1  0  0  0
  1  2  2  0  0  0
  2  3  1  0  0  0
  3  4  2  0  0  0
  4  5  1  0  0  0
  5  6  1  0  0  0
  6  7  1  0  0  0
  7  8  1  0  0  0
  8  9  1  0  0  0
  7 10  1  0  0  0
 10 11  2  0  0  0
 11 12  1  0  0  0
 12 13  2  0  0  0
 13 14  1  0  0  0
 14 15  1  0  0  0
 15 16  2  0  0  0
 12 17  1  0  0  0
 17 18  1  0  0  0
 17 19  2  0  0  0
 28 30  1  0  0  0
 30 31  2  0  0  0
 30 25  1  0  0  0
 16  1  1  0  0  0
 15  4  1  0  0  0
  9  7  1  0  0  0
 14 10  1  0  0  0
 29 32  1  0  0  0
 18 20  1  0  0  0
 18 21  1  0  0  0
M  END
> <minimizedAffinity>
-9.59373

> <CNNscore>
0.2877427042

> <CNNaffinity>
6.5807390213

> <CNN_VS>
1.8935596943

> <CNNaffinity_variance>
0.1892239749

$$$$
[H]O[C@]1(C#Cc2c([H])c([H])c3c(c2[H])-n2nc(C(=O)N([H])[H])c([H])c2C2(C([H])([H])O3)C([H])([H])C2([H])[H])C(=O)N(C([H])([H])[H])C([H])([H])C1([H])[H]


 32 36  0  0  0  0  0  0  0  0999 V2000
   38.1351   14.9201  -12.4456 C   0  0  0  0  0  0  0  0  0  0  0  0
   39.4490   15.3003  -12.6255 C   0  0  0  0  0  0  0  0  0  0  0  0
   40.1491   14.8409  -13.7120 C   0  0  0  0  0  0  0  0  0  0  0  0
   39.5113   13.9992  -14.6079 C   0  0  0  0  0  0  0  0  0  0  0  0
   40.3529   13.6259  -15.6464 O   0  0  0  0  0  0  0  0  0  0  0  0
   39.9496   13.2483  -16.9474 C   0  0  0  0  0  0  0  0  0  0  0  0
   39.1625   11.9607  -16.9716 C   0  0  0  0  0  0  0  0  0  0  0  0
   39.2494   11.2225  -18.2809 C   0  0  0  0  0  0  0  0  0  0  0  0
   39.8597   10.6433  -17.0429 C   0  0  0  0  0  0  0  0  0  0  0  0
   37.8520   12.0776  -16.3277 C   0  0  0  0  0  0  0  0  0  0  0  0
   36.7485   11.4031  -16.8040 C   0  0  0  0  0  0  0  0  0  0  0  0
   35.6543   11.7019  -16.0014 C   0  0  0  0  0  0  0  0  0  0  0  0
   36.1238   12.5450  -15.0663 N   0  0  0  0  0  0  0  0  0  0  0  0
   37.4147   12.7637  -15.2606 N   0  0  0  0  0  0  0  0  0  0  0  0
   38.1964   13.6292  -14.4122 C   0  0  0  0  0  0  0  0  0  0  0  0
   37.4739   14.0766  -13.3308 C   0  0  0  0  0  0  0  0  0  0  0  0
   34.2835   11.1967  -16.1546 C   0  0  0  0  0  0  0  0  0  0  0  0
   33.3460   11.2302  -15.1011 N   0  0  0  0  0  0  0  0  0  0  0  0
   33.9478   10.7209  -17.2684 O   0  0  0  0  0  0  0  0  0  0  0  0
   32.5766   10.5341  -15.0276 H   0  0  0  0  0  0  0  0  0  0  0  0
   33.4180   11.9677  -14.3729 H   0  0  0  0  0  0  0  0  0  0  0  0
   36.7164   15.7473  -10.3644 C   0  0  0  0  0  0  0  0  0  0  0  0
   37.3535   15.3767  -11.3168 C   0  0  0  0  0  0  0  0  0  0  0  0
   37.4924   15.3179   -5.8708 C   0  0  0  0  0  0  0  0  0  0  0  0
   37.0721   15.8697   -7.1436 N   0  0  0  0  0  0  0  0  0  0  0  0
   37.5357   17.1432   -7.6829 C   0  0  0  0  0  0  0  0  0  0  0  0
   36.5539   17.5134   -8.7575 C   0  0  0  0  0  0  0  0  0  0  0  0
   35.9481   16.1902   -9.1762 C   0  0  0  0  0  0  0  0  0  0  0  0
   34.6039   16.3120   -9.5136 O   0  0  0  0  0  0  0  0  0  0  0  0
   36.1650   15.2666   -8.0386 C   0  0  0  0  0  0  0  0  0  0  0  0
   35.6248   14.1458   -7.9133 O   0  0  0  0  0  0  0  0  0  0  0  0
   34.3191   15.5399  -10.0402 H   0  0  0  0  0  0  0  0  0  0  0  0
 24 25  1  0  0  0
 25 26  1  0  0  0
 26 27  1  0  0  0
 27 28  1  0  0  0
 28 29  1  0  0  0
 28 22  1  0  0  0
 22 23  3  0  0  0
 23  1  1  0  0  0
  1  2  2  0  0  0
  2  3  1  0  0  0
  3  4  2  0  0  0
  4  5  1  0  0  0
  5  6  1  0  0  0
  6  7  1  0  0  0
  7  8  1  0  0  0
  8  9  1  0  0  0
  7 10  1  0  0  0
 10 11  2  0  0  0
 11 12  1  0  0  0
 12 13  2  0  0  0
 13 14  1  0  0  0
 14 15  1  0  0  0
 15 16  2  0  0  0
 12 17  1  0  0  0
 17 18  1  0  0  0
 17 19  2  0  0  0
 28 30  1  0  0  0
 30 31  2  0  0  0
 30 25  1  0  0  0
 16  1  1  0  0  0
 15  4  1  0  0  0
  9  7  1  0  0  0
 14 10  1  0  0  0
 29 32  1  0  0  0
 18 20  1  0  0  0
 18 21  1  0  0  0
M  END
> <minimizedAffinity>
-9.02034

> <CNNscore>
0.2830895483

> <CNNaffinity>
6.4628396034

> <CNN_VS>
1.8295623064

> <CNNaffinity_variance>
0.1503658742

$$$$
[H]O[C@]1(C#Cc2c([H])c([H])c3c(c2[H])-n2nc(C(=O)N([H])[H])c([H])c2C2(C([H])([H])O3)C([H])([H])C2([H])[H])C(=O)N(C([H])([H])[H])C([H])([H])C1([H])[H]


 32 36  0  0  0  0  0  0  0  0999 V2000
   39.6187   15.7425  -10.4020 C   0  0  0  0  0  0  0  0  0  0  0  0
   39.5107   15.7491  -11.7774 C   0  0  0  0  0  0  0  0  0  0  0  0
   40.6272   15.9533  -12.5480 C   0  0  0  0  0  0  0  0  0  0  0  0
   41.8446   16.1493  -11.9177 C   0  0  0  0  0  0  0  0  0  0  0  0
   42.8694   16.3406  -12.8339 O   0  0  0  0  0  0  0  0  0  0  0  0
   44.2367   16.0506  -12.6230 C   0  0  0  0  0  0  0  0  0  0  0  0
   44.8686   16.9204  -11.5638 C   0  0  0  0  0  0  0  0  0  0  0  0
   46.3550   17.0933  -11.7297 C   0  0  0  0  0  0  0  0  0  0  0  0
   45.4319   18.2573  -11.9127 C   0  0  0  0  0  0  0  0  0  0  0  0
   44.3473   16.6578  -10.2203 C   0  0  0  0  0  0  0  0  0  0  0  0
   45.1542   16.7235   -9.1048 C   0  0  0  0  0  0  0  0  0  0  0  0
   44.3948   16.4295   -7.9790 C   0  0  0  0  0  0  0  0  0  0  0  0
   43.1554   16.1950   -8.4422 N   0  0  0  0  0  0  0  0  0  0  0  0
   43.1307   16.3299   -9.7587 N   0  0  0  0  0  0  0  0  0  0  0  0
   41.9341   16.1395  -10.5408 C   0  0  0  0  0  0  0  0  0  0  0  0
   40.8292   15.9369   -9.7470 C   0  0  0  0  0  0  0  0  0  0  0  0
   44.8610   16.3877   -6.5866 C   0  0  0  0  0  0  0  0  0  0  0  0
   44.2894   17.1892   -5.5763 N   0  0  0  0  0  0  0  0  0  0  0  0
   45.8024   15.6060   -6.2995 O   0  0  0  0  0  0  0  0  0  0  0  0
   44.8351   17.5015   -4.7477 H   0  0  0  0  0  0  0  0  0  0  0  0
   43.2953   17.4812   -5.6534 H   0  0  0  0  0  0  0  0  0  0  0  0
   37.5225   15.3357   -8.8307 C   0  0  0  0  0  0  0  0  0  0  0  0
   38.4722   15.5316   -9.5450 C   0  0  0  0  0  0  0  0  0  0  0  0
   35.1170   18.0333   -6.0173 C   0  0  0  0  0  0  0  0  0  0  0  0
   35.4458   16.9939   -6.9727 N   0  0  0  0  0  0  0  0  0  0  0  0
   34.8458   16.8720   -8.2966 C   0  0  0  0  0  0  0  0  0  0  0  0
   35.1345   15.4690   -8.7483 C   0  0  0  0  0  0  0  0  0  0  0  0
   36.3586   15.0689   -7.9518 C   0  0  0  0  0  0  0  0  0  0  0  0
   36.3410   13.7221   -7.6037 O   0  0  0  0  0  0  0  0  0  0  0  0
   36.3816   15.9595   -6.7684 C   0  0  0  0  0  0  0  0  0  0  0  0
   37.1152   15.8020   -5.7680 O   0  0  0  0  0  0  0  0  0  0  0  0
   37.2391   13.4280   -7.3557 H   0  0  0  0  0  0  0  0  0  0  0  0
 24 25  1  0  0  0
 25 26  1  0  0  0
 26 27  1  0  0  0
 27 28  1  0  0  0
 28 29  1  0  0  0
 28 22  1  0  0  0
 22 23  3  0  0  0
 23  1  1  0  0  0
  1  2  2  0  0  0
  2  3  1  0  0  0
  3  4  2  0  0  0
  4  5  1  0  0  0
  5  6  1  0  0  0
  6  7  1  0  0  0
  7  8  1  0  0  0
  8  9  1  0  0  0
  7 10  1  0  0  0
 10 11  2  0  0  0
 11 12  1  0  0  0
 12 13  2  0  0  0
 13 14  1  0  0  0
 14 15  1  0  0  0
 15 16  2  0  0  0
 12 17  1  0  0  0
 17 18  1  0  0  0
 17 19  2  0  0  0
 28 30  1  0  0  0
 30 31  2  0  0  0
 30 25  1  0  0  0
 16  1  1  0  0  0
 15  4  1  0  0  0
  9  7  1  0  0  0
 14 10  1  0  0  0
 29 32  1  0  0  0
 18 20  1  0  0  0
 18 21  1  0  0  0
M  END
> <minimizedAffinity>
-5.56299

> <CNNscore>
0.2803271413

> <CNNaffinity>
5.2785778046

> <CNN_VS>
1.4797285795

> <CNNaffinity_variance>
0.2850320935

$$$$
[H]O[C@@](C#Cc1c([H])c([H])c2c(c1[H])-c1nc(C(=O)N([H])[H])c([H])n1C1([H])C([H])([H])C2([H])C1([H])[H])(c1nc([H])c(C([H])([H])[H])o1)C([H])([H])[H]


 32 36  0  0  0  0  0  0  0  0999 V2000
   40.3310   14.9686  -13.1808 C   0  0  0  0  0  0  0  0  0  0  0  0
   39.3544   15.3228  -12.2888 C   0  0  0  0  0  0  0  0  0  0  0  0
   38.0243   14.9062  -12.4109 C   0  0  0  0  0  0  0  0  0  0  0  0
   37.7098   14.1074  -13.4720 C   0  0  0  0  0  0  0  0  0  0  0  0
   36.2716   13.6909  -13.5479 C   0  0  0  0  0  0  0  0  0  0  0  0
   36.1903   12.1738  -13.7658 C   0  0  0  0  0  0  0  0  0  0  0  0
   36.0557   12.3506  -15.2661 C   0  0  0  0  0  0  0  0  0  0  0  0
   35.6980   13.8035  -14.9281 C   0  0  0  0  0  0  0  0  0  0  0  0
   37.3405   12.2723  -15.9535 N   0  0  0  0  0  0  0  0  0  0  0  0
   37.5879   11.5782  -17.0689 C   0  0  0  0  0  0  0  0  0  0  0  0
   38.9214   11.7286  -17.4507 C   0  0  0  0  0  0  0  0  0  0  0  0
   39.4477   12.5682  -16.4788 N   0  0  0  0  0  0  0  0  0  0  0  0
   38.5056   12.8830  -15.5945 C   0  0  0  0  0  0  0  0  0  0  0  0
   38.6855   13.7264  -14.4022 C   0  0  0  0  0  0  0  0  0  0  0  0
   39.9896   14.1588  -14.2527 C   0  0  0  0  0  0  0  0  0  0  0  0
   39.6404   11.1603  -18.5878 C   0  0  0  0  0  0  0  0  0  0  0  0
   38.9385   10.5452  -19.6445 N   0  0  0  0  0  0  0  0  0  0  0  0
   40.8953   11.2240  -18.6138 O   0  0  0  0  0  0  0  0  0  0  0  0
   39.3075   10.6226  -20.6272 H   0  0  0  0  0  0  0  0  0  0  0  0
   38.0566    9.9821  -19.5315 H   0  0  0  0  0  0  0  0  0  0  0  0
   42.8719   15.7486  -12.8688 C   0  0  0  0  0  0  0  0  0  0  0  0
   41.7117   15.4112  -13.0058 C   0  0  0  0  0  0  0  0  0  0  0  0
   44.2813   16.1118  -12.7238 C   0  0  0  0  0  0  0  0  0  0  0  0
   45.0249   15.2386  -13.7304 C   0  0  0  0  0  0  0  0  0  0  0  0
   44.7453   15.7340  -11.4210 O   0  0  0  0  0  0  0  0  0  0  0  0
   44.1693   16.3042  -10.8124 H   0  0  0  0  0  0  0  0  0  0  0  0
   43.6895   20.8532  -13.9127 C   0  0  0  0  0  0  0  0  0  0  0  0
   44.3242   19.6070  -13.4136 C   0  0  0  0  0  0  0  0  0  0  0  0
   45.5968   19.4615  -12.9012 C   0  0  0  0  0  0  0  0  0  0  0  0
   45.7016   18.1614  -12.5905 N   0  0  0  0  0  0  0  0  0  0  0  0
   44.5487   17.5302  -12.9025 C   0  0  0  0  0  0  0  0  0  0  0  0
   43.7555   18.4366  -13.3888 O   0  0  0  0  0  0  0  0  0  0  0  0
 27 28  1  0  0  0
 28 29  2  0  0  0
 29 30  1  0  0  0
 30 31  2  0  0  0
 31 32  1  0  0  0
 31 23  1  0  0  0
 23 24  1  0  0  0
 23 25  1  0  0  0
 23 21  1  0  0  0
 21 22  3  0  0  0
 22  1  1  0  0  0
  1  2  2  0  0  0
  2  3  1  0  0  0
  3  4  2  0  0  0
  4  5  1  0  0  0
  5  6  1  0  0  0
  6  7  1  0  0  0
  7  8  1  0  0  0
  7  9  1  0  0  0
  9 10  1  0  0  0
 10 11  2  0  0  0
 11 12  1  0  0  0
 12 13  2  0  0  0
 13 14  1  0  0  0
 14 15  2  0  0  0
 11 16  1  0  0  0
 16 17  1  0  0  0
 16 18  2  0  0  0
 32 28  1  0  0  0
 15  1  1  0  0  0
 14  4  1  0  0  0
  8  5  1  0  0  0
 13  9  1  0  0  0
 25 26  1  0  0  0
 17 19  1  0  0  0
 17 20  1  0  0  0
M  END
> <minimizedAffinity>
-8.33933

> <CNNscore>
0.6797517538

> <CNNaffinity>
7.0393495560

> <CNN_VS>
4.7850103378

> <CNNaffinity_variance>
0.2553399801

$$$$
[H]O[C@@](C#Cc1c([H])c([H])c2c(c1[H])-c1nc(C(=O)N([H])[H])c([H])n1C1([H])C([H])([H])C2([H])C1([H])[H])(c1nc([H])c(C([H])([H])[H])o1)C([H])([H])[H]


 32 36  0  0  0  0  0  0  0  0999 V2000
   36.5022   13.6751  -13.1178 C   0  0  0  0  0  0  0  0  0  0  0  0
   35.1807   13.4524  -12.8369 C   0  0  0  0  0  0  0  0  0  0  0  0
   34.3512   12.6703  -13.6481 C   0  0  0  0  0  0  0  0  0  0  0  0
   34.9068   12.1100  -14.7617 C   0  0  0  0  0  0  0  0  0  0  0  0
   33.9707   11.2810  -15.5888 C   0  0  0  0  0  0  0  0  0  0  0  0
   34.6261    9.9285  -15.9001 C   0  0  0  0  0  0  0  0  0  0  0  0
   35.1224   10.4268  -17.2439 C   0  0  0  0  0  0  0  0  0  0  0  0
   34.0910   11.5471  -17.0590 C   0  0  0  0  0  0  0  0  0  0  0  0
   36.4832   10.9491  -17.1761 N   0  0  0  0  0  0  0  0  0  0  0  0
   37.4661   10.6812  -18.0416 C   0  0  0  0  0  0  0  0  0  0  0  0
   38.6342   11.3501  -17.6747 C   0  0  0  0  0  0  0  0  0  0  0  0
   38.2701   12.0394  -16.5263 N   0  0  0  0  0  0  0  0  0  0  0  0
   36.9956   11.7940  -16.2364 C   0  0  0  0  0  0  0  0  0  0  0  0
   36.2558   12.3177  -15.0773 C   0  0  0  0  0  0  0  0  0  0  0  0
   37.0458   13.0987  -14.2552 C   0  0  0  0  0  0  0  0  0  0  0  0
   39.9495   11.3561  -18.3095 C   0  0  0  0  0  0  0  0  0  0  0  0
   41.0525   11.9548  -17.6670 N   0  0  0  0  0  0  0  0  0  0  0  0
   40.0879   10.8219  -19.4386 O   0  0  0  0  0  0  0  0  0  0  0  0
   42.0124   11.5413  -17.7907 H   0  0  0  0  0  0  0  0  0  0  0  0
   41.0016   12.8180  -17.0673 H   0  0  0  0  0  0  0  0  0  0  0  0
   38.0414   15.1292  -11.4812 C   0  0  0  0  0  0  0  0  0  0  0  0
   37.3374   14.4840  -12.2340 C   0  0  0  0  0  0  0  0  0  0  0  0
   38.9057   15.8634  -10.5574 C   0  0  0  0  0  0  0  0  0  0  0  0
   40.1207   16.2717  -11.3853 C   0  0  0  0  0  0  0  0  0  0  0  0
   39.3774   14.9791   -9.5323 O   0  0  0  0  0  0  0  0  0  0  0  0
   38.5179   14.7057   -9.0700 H   0  0  0  0  0  0  0  0  0  0  0  0
   35.9756   18.4907   -7.5982 C   0  0  0  0  0  0  0  0  0  0  0  0
   36.9882   18.1715   -8.6364 C   0  0  0  0  0  0  0  0  0  0  0  0
   37.7010   19.0608   -9.4137 C   0  0  0  0  0  0  0  0  0  0  0  0
   38.4819   18.2969  -10.1912 N   0  0  0  0  0  0  0  0  0  0  0  0
   38.2575   16.9944   -9.9123 C   0  0  0  0  0  0  0  0  0  0  0  0
   37.3587   16.9706   -8.9748 O   0  0  0  0  0  0  0  0  0  0  0  0
 27 28  1  0  0  0
 28 29  2  0  0  0
 29 30  1  0  0  0
 30 31  2  0  0  0
 31 32  1  0  0  0
 31 23  1  0  0  0
 23 24  1  0  0  0
 23 25  1  0  0  0
 23 21  1  0  0  0
 21 22  3  0  0  0
 22  1  1  0  0  0
  1  2  2  0  0  0
  2  3  1  0  0  0
  3  4  2  0  0  0
  4  5  1  0  0  0
  5  6  1  0  0  0
  6  7  1  0  0  0
  7  8  1  0  0  0
  7  9  1  0  0  0
  9 10  1  0  0  0
 10 11  2  0  0  0
 11 12  1  0  0  0
 12 13  2  0  0  0
 13 14  1  0  0  0
 14 15  2  0  0  0
 11 16  1  0  0  0
 16 17  1  0  0  0
 16 18  2  0  0  0
 32 28  1  0  0  0
 15  1  1  0  0  0
 14  4  1  0  0  0
  8  5  1  0  0  0
 13  9  1  0  0  0
 25 26  1  0  0  0
 17 19  1  0  0  0
 17 20  1  0  0  0
M  END
> <minimizedAffinity>
-8.67531

> <CNNscore>
0.5492142439

> <CNNaffinity>
7.0162200928

> <CNN_VS>
3.8534080982

> <CNNaffinity_variance>
0.2890338302

$$$$
[H]O[C@@](C#Cc1c([H])c([H])c2c(c1[H])-c1nc(C(=O)N([H])[H])c([H])n1C1([H])C([H])([H])C2([H])C1([H])[H])(c1nc([H])c(C([H])([H])[H])o1)C([H])([H])[H]


 32 36  0  0  0  0  0  0  0  0999 V2000
   36.1368   13.8391  -13.2175 C   0  0  0  0  0  0  0  0  0  0  0  0
   34.8136   13.5633  -12.9988 C   0  0  0  0  0  0  0  0  0  0  0  0
   34.0689   12.7072  -13.8176 C   0  0  0  0  0  0  0  0  0  0  0  0
   34.7122   12.1284  -14.8730 C   0  0  0  0  0  0  0  0  0  0  0  0
   33.8643   11.2195  -15.7113 C   0  0  0  0  0  0  0  0  0  0  0  0
   34.5993    9.8892  -15.9253 C   0  0  0  0  0  0  0  0  0  0  0  0
   35.1464   10.3539  -17.2613 C   0  0  0  0  0  0  0  0  0  0  0  0
   34.0545   11.4285  -17.1834 C   0  0  0  0  0  0  0  0  0  0  0  0
   36.4750   10.9456  -17.1436 N   0  0  0  0  0  0  0  0  0  0  0  0
   37.5167   10.6903  -17.9416 C   0  0  0  0  0  0  0  0  0  0  0  0
   38.6294   11.4313  -17.5425 C   0  0  0  0  0  0  0  0  0  0  0  0
   38.1691   12.1497  -16.4478 N   0  0  0  0  0  0  0  0  0  0  0  0
   36.8932   11.8540  -16.2166 C   0  0  0  0  0  0  0  0  0  0  0  0
   36.0655   12.3891  -15.1241 C   0  0  0  0  0  0  0  0  0  0  0  0
   36.7703   13.2426  -14.2965 C   0  0  0  0  0  0  0  0  0  0  0  0
   39.9766   11.4755  -18.1047 C   0  0  0  0  0  0  0  0  0  0  0  0
   41.0097   12.1639  -17.4364 N   0  0  0  0  0  0  0  0  0  0  0  0
   40.2057   10.8932  -19.1946 O   0  0  0  0  0  0  0  0  0  0  0  0
   41.9948   11.7966  -17.4859 H   0  0  0  0  0  0  0  0  0  0  0  0
   40.8813   13.0522  -16.8871 H   0  0  0  0  0  0  0  0  0  0  0  0
   37.5028   15.4383  -11.5625 C   0  0  0  0  0  0  0  0  0  0  0  0
   36.8819   14.7253  -12.3272 C   0  0  0  0  0  0  0  0  0  0  0  0
   38.2562   16.2574  -10.6134 C   0  0  0  0  0  0  0  0  0  0  0  0
   37.3039   17.3790  -10.2090 C   0  0  0  0  0  0  0  0  0  0  0  0
   39.3655   16.8726  -11.2815 O   0  0  0  0  0  0  0  0  0  0  0  0
   39.9151   16.0717  -11.5709 H   0  0  0  0  0  0  0  0  0  0  0  0
   38.4384   13.4241   -6.5904 C   0  0  0  0  0  0  0  0  0  0  0  0
   38.8867   14.2876   -7.7123 C   0  0  0  0  0  0  0  0  0  0  0  0
   40.1747   14.6927   -7.9954 C   0  0  0  0  0  0  0  0  0  0  0  0
   40.0681   15.4513   -9.0958 N   0  0  0  0  0  0  0  0  0  0  0  0
   38.7726   15.5178   -9.4724 C   0  0  0  0  0  0  0  0  0  0  0  0
   38.1056   14.8042   -8.6161 O   0  0  0  0  0  0  0  0  0  0  0  0
 27 28  1  0  0  0
 28 29  2  0  0  0
 29 30  1  0  0  0
 30 31  2  0  0  0
 31 32  1  0  0  0
 31 23  1  0  0  0
 23 24  1  0  0  0
 23 25  1  0  0  0
 23 21  1  0  0  0
 21 22  3  0  0  0
 22  1  1  0  0  0
  1  2  2  0  0  0
  2  3  1  0  0  0
  3  4  2  0  0  0
  4  5  1  0  0  0
  5  6  1  0  0  0
  6  7  1  0  0  0
  7  8  1  0  0  0
  7  9  1  0  0  0
  9 10  1  0  0  0
 10 11  2  0  0  0
 11 12  1  0  0  0
 12 13  2  0  0  0
 13 14  1  0  0  0
 14 15  2  0  0  0
 11 16  1  0  0  0
 16 17  1  0  0  0
 16 18  2  0  0  0
 32 28  1  0  0  0
 15  1  1  0  0  0
 14  4  1  0  0  0
  8  5  1  0  0  0
 13  9  1  0  0  0
 25 26  1  0  0  0
 17 19  1  0  0  0
 17 20  1  0  0  0
M  END
> <minimizedAffinity>
-8.34606

> <CNNscore>
0.5006118417

> <CNNaffinity>
7.0290727615

> <CNN_VS>
3.5188369751

> <CNNaffinity_variance>
0.3436390460

$$$$
[H]O[C@@](C#Cc1c([H])c([H])c2c(c1[H])-c1nc(C(=O)N([H])[H])c([H])n1C1([H])C([H])([H])C2([H])C1([H])[H])(c1nc([H])c(C([H])([H])[H])o1)C([H])([H])[H]


 32 36  0  0  0  0  0  0  0  0999 V2000
   36.3927   13.8301  -13.1939 C   0  0  0  0  0  0  0  0  0  0  0  0
   35.0722   13.5970  -12.9171 C   0  0  0  0  0  0  0  0  0  0  0  0
   34.2632   12.7716  -13.7057 C   0  0  0  0  0  0  0  0  0  0  0  0
   34.8387   12.1785  -14.7920 C   0  0  0  0  0  0  0  0  0  0  0  0
   33.9240   11.3039  -15.5958 C   0  0  0  0  0  0  0  0  0  0  0  0
   34.6037    9.9513  -15.8493 C   0  0  0  0  0  0  0  0  0  0  0  0
   35.1054   10.4062  -17.2063 C   0  0  0  0  0  0  0  0  0  0  0  0
   34.0548   11.5160  -17.0739 C   0  0  0  0  0  0  0  0  0  0  0  0
   36.4571   10.9526  -17.1457 N   0  0  0  0  0  0  0  0  0  0  0  0
   37.4527   10.6680  -17.9911 C   0  0  0  0  0  0  0  0  0  0  0  0
   38.6065   11.3690  -17.6389 C   0  0  0  0  0  0  0  0  0  0  0  0
   38.2201   12.0952  -16.5210 N   0  0  0  0  0  0  0  0  0  0  0  0
   36.9467   11.8406  -16.2340 C   0  0  0  0  0  0  0  0  0  0  0  0
   36.1873   12.3958  -15.1026 C   0  0  0  0  0  0  0  0  0  0  0  0
   36.9567   13.2200  -14.3033 C   0  0  0  0  0  0  0  0  0  0  0  0
   39.9277   11.3720  -18.2611 C   0  0  0  0  0  0  0  0  0  0  0  0
   41.0236   11.9777  -17.6129 N   0  0  0  0  0  0  0  0  0  0  0  0
   40.0779   10.8290  -19.3845 O   0  0  0  0  0  0  0  0  0  0  0  0
   41.9853   11.5648  -17.7241 H   0  0  0  0  0  0  0  0  0  0  0  0
   40.9655   12.8456  -17.0206 H   0  0  0  0  0  0  0  0  0  0  0  0
   37.9042   15.3707  -11.6114 C   0  0  0  0  0  0  0  0  0  0  0  0
   37.2063   14.6852  -12.3336 C   0  0  0  0  0  0  0  0  0  0  0  0
   38.7765   16.1589  -10.7413 C   0  0  0  0  0  0  0  0  0  0  0  0
   38.6454   15.5222   -9.3608 C   0  0  0  0  0  0  0  0  0  0  0  0
   38.2702   17.4959  -10.6339 O   0  0  0  0  0  0  0  0  0  0  0  0
   38.3314   17.8279  -11.5895 H   0  0  0  0  0  0  0  0  0  0  0  0
   43.7001   16.0988  -10.7312 C   0  0  0  0  0  0  0  0  0  0  0  0
   42.3057   16.2202  -11.2270 C   0  0  0  0  0  0  0  0  0  0  0  0
   41.8950   16.5090  -12.5120 C   0  0  0  0  0  0  0  0  0  0  0  0
   40.5552   16.5069  -12.4592 N   0  0  0  0  0  0  0  0  0  0  0  0
   40.1554   16.2357  -11.1977 C   0  0  0  0  0  0  0  0  0  0  0  0
   41.2376   16.0694  -10.4988 O   0  0  0  0  0  0  0  0  0  0  0  0
 27 28  1  0  0  0
 28 29  2  0  0  0
 29 30  1  0  0  0
 30 31  2  0  0  0
 31 32  1  0  0  0
 31 23  1  0  0  0
 23 24  1  0  0  0
 23 25  1  0  0  0
 23 21  1  0  0  0
 21 22  3  0  0  0
 22  1  1  0  0  0
  1  2  2  0  0  0
  2  3  1  0  0  0
  3  4  2  0  0  0
  4  5  1  0  0  0
  5  6  1  0  0  0
  6  7  1  0  0  0
  7  8  1  0  0  0
  7  9  1  0  0  0
  9 10  1  0  0  0
 10 11  2  0  0  0
 11 12  1  0  0  0
 12 13  2  0  0  0
 13 14  1  0  0  0
 14 15  2  0  0  0
 11 16  1  0  0  0
 16 17  1  0  0  0
 16 18  2  0  0  0
 32 28  1  0  0  0
 15  1  1  0  0  0
 14  4  1  0  0  0
  8  5  1  0  0  0
 13  9  1  0  0  0
 25 26  1  0  0  0
 17 19  1  0  0  0
 17 20  1  0  0  0
M  END
> <minimizedAffinity>
-8.93177

> <CNNscore>
0.4757018983

> <CNNaffinity>
6.9727568626

> <CNN_VS>
3.3169536591

> <CNNaffinity_variance>
0.1258708239

$$$$
[H]O[C@@](C#Cc1c([H])c([H])c2c(c1[H])-c1nc(C(=O)N([H])[H])c([H])n1C1([H])C([H])([H])C2([H])C1([H])[H])(c1nc([H])c(C([H])([H])[H])o1)C([H])([H])[H]


 32 36  0  0  0  0  0  0  0  0999 V2000
   40.5634   15.2938  -12.9192 C   0  0  0  0  0  0  0  0  0  0  0  0
   39.5785   15.5569  -12.0051 C   0  0  0  0  0  0  0  0  0  0  0  0
   38.2867   15.0286  -12.1045 C   0  0  0  0  0  0  0  0  0  0  0  0
   38.0203   14.2128  -13.1658 C   0  0  0  0  0  0  0  0  0  0  0  0
   36.6218   13.6750  -13.2168 C   0  0  0  0  0  0  0  0  0  0  0  0
   36.6664   12.1580  -13.4458 C   0  0  0  0  0  0  0  0  0  0  0  0
   36.4865   12.3326  -14.9416 C   0  0  0  0  0  0  0  0  0  0  0  0
   36.0126   13.7471  -14.5844 C   0  0  0  0  0  0  0  0  0  0  0  0
   37.7590   12.3694  -15.6549 N   0  0  0  0  0  0  0  0  0  0  0  0
   38.0422   11.7066  -16.7807 C   0  0  0  0  0  0  0  0  0  0  0  0
   39.3498   11.9734  -17.1875 C   0  0  0  0  0  0  0  0  0  0  0  0
   39.8219   12.8486  -16.2192 N   0  0  0  0  0  0  0  0  0  0  0  0
   38.8746   13.0755  -15.3138 C   0  0  0  0  0  0  0  0  0  0  0  0
   39.0058   13.9232  -14.1183 C   0  0  0  0  0  0  0  0  0  0  0  0
   40.2709   14.4649  -13.9909 C   0  0  0  0  0  0  0  0  0  0  0  0
   40.0915   11.4765  -18.3433 C   0  0  0  0  0  0  0  0  0  0  0  0
   39.4106   10.9351  -19.4529 N   0  0  0  0  0  0  0  0  0  0  0  0
   41.3468   11.5352  -18.3378 O   0  0  0  0  0  0  0  0  0  0  0  0
   39.8015   11.0744  -20.4202 H   0  0  0  0  0  0  0  0  0  0  0  0
   38.5244   10.3706  -19.3960 H   0  0  0  0  0  0  0  0  0  0  0  0
   43.0202   16.3266  -12.6743 C   0  0  0  0  0  0  0  0  0  0  0  0
   41.9045   15.8521  -12.7678 C   0  0  0  0  0  0  0  0  0  0  0  0
   44.3565   16.9173  -12.6062 C   0  0  0  0  0  0  0  0  0  0  0  0
   44.6647   17.0388  -11.1167 C   0  0  0  0  0  0  0  0  0  0  0  0
   44.3227   18.2493  -13.1353 O   0  0  0  0  0  0  0  0  0  0  0  0
   44.0548   18.0922  -14.1001 H   0  0  0  0  0  0  0  0  0  0  0  0
   46.6087   13.3021  -15.0768 C   0  0  0  0  0  0  0  0  0  0  0  0
   46.3854   14.6104  -14.4108 C   0  0  0  0  0  0  0  0  0  0  0  0
   47.2834   15.6499  -14.2826 C   0  0  0  0  0  0  0  0  0  0  0  0
   46.6205   16.6032  -13.6120 N   0  0  0  0  0  0  0  0  0  0  0  0
   45.3717   16.1707  -13.3325 C   0  0  0  0  0  0  0  0  0  0  0  0
   45.2781   14.9755  -13.8325 O   0  0  0  0  0  0  0  0  0  0  0  0
 27 28  1  0  0  0
 28 29  2  0  0  0
 29 30  1  0  0  0
 30 31  2  0  0  0
 31 32  1  0  0  0
 31 23  1  0  0  0
 23 24  1  0  0  0
 23 25  1  0  0  0
 23 21  1  0  0  0
 21 22  3  0  0  0
 22  1  1  0  0  0
  1  2  2  0  0  0
  2  3  1  0  0  0
  3  4  2  0  0  0
  4  5  1  0  0  0
  5  6  1  0  0  0
  6  7  1  0  0  0
  7  8  1  0  0  0
  7  9  1  0  0  0
  9 10  1  0  0  0
 10 11  2  0  0  0
 11 12  1  0  0  0
 12 13  2  0  0  0
 13 14  1  0  0  0
 14 15  2  0  0  0
 11 16  1  0  0  0
 16 17  1  0  0  0
 16 18  2  0  0  0
 32 28  1  0  0  0
 15  1  1  0  0  0
 14  4  1  0  0  0
  8  5  1  0  0  0
 13  9  1  0  0  0
 25 26  1  0  0  0
 17 19  1  0  0  0
 17 20  1  0  0  0
M  END
> <minimizedAffinity>
-8.32224

> <CNNscore>
0.4389168024

> <CNNaffinity>
6.7797446251

> <CNN_VS>
2.9757437706

> <CNNaffinity_variance>
0.4589809477

$$$$
[H]O[C@@](C#Cc1c([H])c([H])c2c(c1[H])-c1nc(C(=O)N([H])[H])c([H])n1C1([H])C([H])([H])C2([H])C1([H])[H])(c1nc([H])c(C([H])([H])[H])o1)C([H])([H])[H]


 32 36  0  0  0  0  0  0  0  0999 V2000
   40.5320   15.3345  -12.9288 C   0  0  0  0  0  0  0  0  0  0  0  0
   39.5172   15.6062  -12.0506 C   0  0  0  0  0  0  0  0  0  0  0  0
   38.2293   15.0768  -12.1878 C   0  0  0  0  0  0  0  0  0  0  0  0
   37.9982   14.2510  -13.2497 C   0  0  0  0  0  0  0  0  0  0  0  0
   36.6020   13.7126  -13.3420 C   0  0  0  0  0  0  0  0  0  0  0  0
   36.6539   12.1934  -13.5550 C   0  0  0  0  0  0  0  0  0  0  0  0
   36.5239   12.3538  -15.0575 C   0  0  0  0  0  0  0  0  0  0  0  0
   36.0387   13.7716  -14.7298 C   0  0  0  0  0  0  0  0  0  0  0  0
   37.8194   12.3839  -15.7284 N   0  0  0  0  0  0  0  0  0  0  0  0
   38.1398   11.7105  -16.8378 C   0  0  0  0  0  0  0  0  0  0  0  0
   39.4602   11.9735  -17.2034 C   0  0  0  0  0  0  0  0  0  0  0  0
   39.9001   12.8579  -16.2283 N   0  0  0  0  0  0  0  0  0  0  0  0
   38.9232   13.0933  -15.3571 C   0  0  0  0  0  0  0  0  0  0  0  0
   39.0148   13.9524  -14.1660 C   0  0  0  0  0  0  0  0  0  0  0  0
   40.2751   14.4954  -14.0018 C   0  0  0  0  0  0  0  0  0  0  0  0
   40.2399   11.4657  -18.3291 C   0  0  0  0  0  0  0  0  0  0  0  0
   39.5979   10.8775  -19.4380 N   0  0  0  0  0  0  0  0  0  0  0  0
   41.4929   11.5572  -18.2981 O   0  0  0  0  0  0  0  0  0  0  0  0
   40.0065   11.0012  -20.4001 H   0  0  0  0  0  0  0  0  0  0  0  0
   38.7253   10.2917  -19.3850 H   0  0  0  0  0  0  0  0  0  0  0  0
   42.9853   16.3559  -12.6126 C   0  0  0  0  0  0  0  0  0  0  0  0
   41.8674   15.8942  -12.7382 C   0  0  0  0  0  0  0  0  0  0  0  0
   44.3345   16.9112  -12.5103 C   0  0  0  0  0  0  0  0  0  0  0  0
   44.2861   18.2249  -13.2851 C   0  0  0  0  0  0  0  0  0  0  0  0
   45.2609   16.0573  -13.1945 O   0  0  0  0  0  0  0  0  0  0  0  0
   45.1925   15.1957  -12.6651 H   0  0  0  0  0  0  0  0  0  0  0  0
   44.3790   17.1373   -7.5918 C   0  0  0  0  0  0  0  0  0  0  0  0
   44.8564   17.1903   -8.9969 C   0  0  0  0  0  0  0  0  0  0  0  0
   46.1287   17.4881   -9.4393 C   0  0  0  0  0  0  0  0  0  0  0  0
   46.0615   17.4067  -10.7760 N   0  0  0  0  0  0  0  0  0  0  0  0
   44.8035   17.0799  -11.1439 C   0  0  0  0  0  0  0  0  0  0  0  0
   44.1210   16.9587  -10.0454 O   0  0  0  0  0  0  0  0  0  0  0  0
 27 28  1  0  0  0
 28 29  2  0  0  0
 29 30  1  0  0  0
 30 31  2  0  0  0
 31 32  1  0  0  0
 31 23  1  0  0  0
 23 24  1  0  0  0
 23 25  1  0  0  0
 23 21  1  0  0  0
 21 22  3  0  0  0
 22  1  1  0  0  0
  1  2  2  0  0  0
  2  3  1  0  0  0
  3  4  2  0  0  0
  4  5  1  0  0  0
  5  6  1  0  0  0
  6  7  1  0  0  0
  7  8  1  0  0  0
  7  9  1  0  0  0
  9 10  1  0  0  0
 10 11  2  0  0  0
 11 12  1  0  0  0
 12 13  2  0  0  0
 13 14  1  0  0  0
 14 15  2  0  0  0
 11 16  1  0  0  0
 16 17  1  0  0  0
 16 18  2  0  0  0
 32 28  1  0  0  0
 15  1  1  0  0  0
 14  4  1  0  0  0
  8  5  1  0  0  0
 13  9  1  0  0  0
 25 26  1  0  0  0
 17 19  1  0  0  0
 17 20  1  0  0  0
M  END
> <minimizedAffinity>
-8.23141

> <CNNscore>
0.4208348393

> <CNNaffinity>
6.5011606216

> <CNN_VS>
2.7359149456

> <CNNaffinity_variance>
0.2423665971

$$$$
[H]O[C@@](C#Cc1c([H])c([H])c2c(c1[H])-c1nc(C(=O)N([H])[H])c([H])n1C1([H])C([H])([H])C2([H])C1([H])[H])(c1nc([H])c(C([H])([H])[H])o1)C([H])([H])[H]


 32 36  0  0  0  0  0  0  0  0999 V2000
   35.5484   13.3946  -13.4580 C   0  0  0  0  0  0  0  0  0  0  0  0
   34.3537   12.8866  -13.8933 C   0  0  0  0  0  0  0  0  0  0  0  0
   34.2338   12.1059  -15.0482 C   0  0  0  0  0  0  0  0  0  0  0  0
   35.3729   11.8476  -15.7543 C   0  0  0  0  0  0  0  0  0  0  0  0
   35.1822   11.0041  -16.9790 C   0  0  0  0  0  0  0  0  0  0  0  0
   36.2126    9.8665  -16.9807 C   0  0  0  0  0  0  0  0  0  0  0  0
   37.1550   10.6602  -17.8650 C   0  0  0  0  0  0  0  0  0  0  0  0
   35.9249   11.5232  -18.1731 C   0  0  0  0  0  0  0  0  0  0  0  0
   38.1427   11.4092  -17.0952 N   0  0  0  0  0  0  0  0  0  0  0  0
   39.4518   11.4736  -17.3579 C   0  0  0  0  0  0  0  0  0  0  0  0
   40.0979   12.2800  -16.4205 C   0  0  0  0  0  0  0  0  0  0  0  0
   39.0722   12.6933  -15.5816 N   0  0  0  0  0  0  0  0  0  0  0  0
   37.9183   12.1707  -15.9865 C   0  0  0  0  0  0  0  0  0  0  0  0
   36.6110   12.3518  -15.3358 C   0  0  0  0  0  0  0  0  0  0  0  0
   36.6926   13.1224  -14.1914 C   0  0  0  0  0  0  0  0  0  0  0  0
   41.5099   12.6343  -16.3036 C   0  0  0  0  0  0  0  0  0  0  0  0
   42.4342   12.2289  -17.2881 N   0  0  0  0  0  0  0  0  0  0  0  0
   41.8939   13.3049  -15.3126 O   0  0  0  0  0  0  0  0  0  0  0  0
   43.2449   12.8556  -17.5284 H   0  0  0  0  0  0  0  0  0  0  0  0
   42.3930   11.3161  -17.8102 H   0  0  0  0  0  0  0  0  0  0  0  0
   35.7336   14.8442  -11.2160 C   0  0  0  0  0  0  0  0  0  0  0  0
   35.6317   14.1905  -12.2363 C   0  0  0  0  0  0  0  0  0  0  0  0
   35.9046   15.6228   -9.9897 C   0  0  0  0  0  0  0  0  0  0  0  0
   36.6378   16.8901  -10.4196 C   0  0  0  0  0  0  0  0  0  0  0  0
   36.7745   14.9222   -9.0908 O   0  0  0  0  0  0  0  0  0  0  0  0
   36.2522   14.0746   -8.9010 H   0  0  0  0  0  0  0  0  0  0  0  0
   31.0981   16.0605   -9.0147 C   0  0  0  0  0  0  0  0  0  0  0  0
   32.5708   16.1080   -8.8303 C   0  0  0  0  0  0  0  0  0  0  0  0
   33.2626   16.5300   -7.7138 C   0  0  0  0  0  0  0  0  0  0  0  0
   34.5576   16.3850   -8.0300 N   0  0  0  0  0  0  0  0  0  0  0  0
   34.6620   15.9016   -9.2871 C   0  0  0  0  0  0  0  0  0  0  0  0
   33.4478   15.7500   -9.7228 O   0  0  0  0  0  0  0  0  0  0  0  0
 27 28  1  0  0  0
 28 29  2  0  0  0
 29 30  1  0  0  0
 30 31  2  0  0  0
 31 32  1  0  0  0
 31 23  1  0  0  0
 23 24  1  0  0  0
 23 25  1  0  0  0
 23 21  1  0  0  0
 21 22  3  0  0  0
 22  1  1  0  0  0
  1  2  2  0  0  0
  2  3  1  0  0  0
  3  4  2  0  0  0
  4  5  1  0  0  0
  5  6  1  0  0  0
  6  7  1  0  0  0
  7  8  1  0  0  0
  7  9  1  0  0  0
  9 10  1  0  0  0
 10 11  2  0  0  0
 11 12  1  0  0  0
 12 13  2  0  0  0
 13 14  1  0  0  0
 14 15  2  0  0  0
 11 16  1  0  0  0
 16 17  1  0  0  0
 16 18  2  0  0  0
 32 28  1  0  0  0
 15  1  1  0  0  0
 14  4  1  0  0  0
  8  5  1  0  0  0
 13  9  1  0  0  0
 25 26  1  0  0  0
 17 19  1  0  0  0
 17 20  1  0  0  0
M  END
> <minimizedAffinity>
-8.47745

> <CNNscore>
0.3617615700

> <CNNaffinity>
6.8015213013

> <CNN_VS>
2.4605290890

> <CNNaffinity_variance>
0.2628365159

$$$$
[H]O[C@@](C#Cc1c([H])c([H])c2c(c1[H])-c1nc(C(=O)N([H])[H])c([H])n1C1([H])C([H])([H])C2([H])C1([H])[H])(c1nc([H])c(C([H])([H])[H])o1)C([H])([H])[H]


 32 36  0  0  0  0  0  0  0  0999 V2000
   35.4669   13.4492  -13.3990 C   0  0  0  0  0  0  0  0  0  0  0  0
   34.2719   12.9404  -13.8323 C   0  0  0  0  0  0  0  0  0  0  0  0
   34.1524   12.1502  -14.9808 C   0  0  0  0  0  0  0  0  0  0  0  0
   35.2922   11.8833  -15.6825 C   0  0  0  0  0  0  0  0  0  0  0  0
   35.1019   11.0299  -16.9004 C   0  0  0  0  0  0  0  0  0  0  0  0
   36.1296    9.8900  -16.8905 C   0  0  0  0  0  0  0  0  0  0  0  0
   37.0756   10.6740  -17.7796 C   0  0  0  0  0  0  0  0  0  0  0  0
   35.8481   11.5372  -18.0974 C   0  0  0  0  0  0  0  0  0  0  0  0
   38.0636   11.4271  -17.0142 N   0  0  0  0  0  0  0  0  0  0  0  0
   39.3733   11.4863  -17.2750 C   0  0  0  0  0  0  0  0  0  0  0  0
   40.0195   12.2991  -16.3431 C   0  0  0  0  0  0  0  0  0  0  0  0
   38.9932   12.7218  -15.5097 N   0  0  0  0  0  0  0  0  0  0  0  0
   37.8388   12.1985  -15.9125 C   0  0  0  0  0  0  0  0  0  0  0  0
   36.5308   12.3881  -15.2658 C   0  0  0  0  0  0  0  0  0  0  0  0
   36.6120   13.1681  -14.1278 C   0  0  0  0  0  0  0  0  0  0  0  0
   41.4321   12.6511  -16.2266 C   0  0  0  0  0  0  0  0  0  0  0  0
   42.3502   12.2709  -17.2268 N   0  0  0  0  0  0  0  0  0  0  0  0
   41.8223   13.2969  -15.2215 O   0  0  0  0  0  0  0  0  0  0  0  0
   43.1591   12.9039  -17.4565 H   0  0  0  0  0  0  0  0  0  0  0  0
   42.3060   11.3715  -17.7713 H   0  0  0  0  0  0  0  0  0  0  0  0
   35.5931   14.9455  -11.1838 C   0  0  0  0  0  0  0  0  0  0  0  0
   35.5497   14.2552  -12.1839 C   0  0  0  0  0  0  0  0  0  0  0  0
   35.6039   15.7978   -9.9951 C   0  0  0  0  0  0  0  0  0  0  0  0
   34.1358   15.9843   -9.6234 C   0  0  0  0  0  0  0  0  0  0  0  0
   36.1160   17.0931  -10.3349 O   0  0  0  0  0  0  0  0  0  0  0  0
   37.0634   16.8816  -10.6264 H   0  0  0  0  0  0  0  0  0  0  0  0
   39.1683   15.3300   -6.6304 C   0  0  0  0  0  0  0  0  0  0  0  0
   37.9445   15.0372   -7.4188 C   0  0  0  0  0  0  0  0  0  0  0  0
   37.0941   13.9601   -7.2776 C   0  0  0  0  0  0  0  0  0  0  0  0
   36.1454   14.1399   -8.2079 N   0  0  0  0  0  0  0  0  0  0  0  0
   36.4009   15.2731   -8.8974 C   0  0  0  0  0  0  0  0  0  0  0  0
   37.4848   15.7752   -8.3872 O   0  0  0  0  0  0  0  0  0  0  0  0
 27 28  1  0  0  0
 28 29  2  0  0  0
 29 30  1  0  0  0
 30 31  2  0  0  0
 31 32  1  0  0  0
 31 23  1  0  0  0
 23 24  1  0  0  0
 23 25  1  0  0  0
 23 21  1  0  0  0
 21 22  3  0  0  0
 22  1  1  0  0  0
  1  2  2  0  0  0
  2  3  1  0  0  0
  3  4  2  0  0  0
  4  5  1  0  0  0
  5  6  1  0  0  0
  6  7  1  0  0  0
  7  8  1  0  0  0
  7  9  1  0  0  0
  9 10  1  0  0  0
 10 11  2  0  0  0
 11 12  1  0  0  0
 12 13  2  0  0  0
 13 14  1  0  0  0
 14 15  2  0  0  0
 11 16  1  0  0  0
 16 17  1  0  0  0
 16 18  2  0  0  0
 32 28  1  0  0  0
 15  1  1  0  0  0
 14  4  1  0  0  0
  8  5  1  0  0  0
 13  9  1  0  0  0
 25 26  1  0  0  0
 17 19  1  0  0  0
 17 20  1  0  0  0
M  END
> <minimizedAffinity>
-8.65173

> <CNNscore>
0.2950753868

> <CNNaffinity>
6.8007316589

> <CNN_VS>
2.0067284107

> <CNNaffinity_variance>
0.2071195841

$$$$
[H]O[C@@](C#Cc1c([H])c([H])c2c(c1[H])-c1nc(C(=O)N([H])[H])c([H])n1C1([H])C([H])([H])C2([H])C1([H])[H])(c1nc([H])c(C([H])([H])[H])o1)C([H])([H])[H]


 32 36  0  0  0  0  0  0  0  0999 V2000
   39.1612   14.1622  -13.7564 C   0  0  0  0  0  0  0  0  0  0  0  0
   40.4580   14.1103  -14.1926 C   0  0  0  0  0  0  0  0  0  0  0  0
   40.8570   13.3654  -15.3079 C   0  0  0  0  0  0  0  0  0  0  0  0
   39.8922   12.6712  -15.9788 C   0  0  0  0  0  0  0  0  0  0  0  0
   40.3790   11.8954  -17.1659 C   0  0  0  0  0  0  0  0  0  0  0  0
   39.4815   12.1950  -18.3743 C   0  0  0  0  0  0  0  0  0  0  0  0
   38.6382   10.9621  -18.1114 C   0  0  0  0  0  0  0  0  0  0  0  0
   39.8132   10.5091  -17.2356 C   0  0  0  0  0  0  0  0  0  0  0  0
   37.4611   11.2552  -17.3004 N   0  0  0  0  0  0  0  0  0  0  0  0
   36.2195   10.8223  -17.5416 C   0  0  0  0  0  0  0  0  0  0  0  0
   35.3415   11.2907  -16.5637 C   0  0  0  0  0  0  0  0  0  0  0  0
   36.1564   12.0330  -15.7203 N   0  0  0  0  0  0  0  0  0  0  0  0
   37.4094   12.0092  -16.1654 C   0  0  0  0  0  0  0  0  0  0  0  0
   38.5562   12.7037  -15.5590 C   0  0  0  0  0  0  0  0  0  0  0  0
   38.1976   13.4477  -14.4508 C   0  0  0  0  0  0  0  0  0  0  0  0
   33.9035   11.0818  -16.4177 C   0  0  0  0  0  0  0  0  0  0  0  0
   33.2980   11.1295  -15.1453 N   0  0  0  0  0  0  0  0  0  0  0  0
   33.2095   10.8565  -17.4410 O   0  0  0  0  0  0  0  0  0  0  0  0
   32.3216   11.5103  -15.0492 H   0  0  0  0  0  0  0  0  0  0  0  0
   33.7453   10.7912  -14.2549 H   0  0  0  0  0  0  0  0  0  0  0  0
   38.4422   15.6201  -11.6304 C   0  0  0  0  0  0  0  0  0  0  0  0
   38.7848   14.9672  -12.5973 C   0  0  0  0  0  0  0  0  0  0  0  0
   37.9921   16.3752  -10.4614 C   0  0  0  0  0  0  0  0  0  0  0  0
   36.5367   16.7307  -10.7510 C   0  0  0  0  0  0  0  0  0  0  0  0
   38.7145   17.6107  -10.3776 O   0  0  0  0  0  0  0  0  0  0  0  0
   39.6689   17.2949  -10.2481 H   0  0  0  0  0  0  0  0  0  0  0  0
   37.0878   13.4734   -6.5875 C   0  0  0  0  0  0  0  0  0  0  0  0
   37.7948   14.4137   -7.4936 C   0  0  0  0  0  0  0  0  0  0  0  0
   39.0424   14.9740   -7.3124 C   0  0  0  0  0  0  0  0  0  0  0  0
   39.2391   15.7449   -8.3917 N   0  0  0  0  0  0  0  0  0  0  0  0
   38.1597   15.6699   -9.2005 C   0  0  0  0  0  0  0  0  0  0  0  0
   37.3248   14.8602   -8.6221 O   0  0  0  0  0  0  0  0  0  0  0  0
 27 28  1  0  0  0
 28 29  2  0  0  0
 29 30  1  0  0  0
 30 31  2  0  0  0
 31 32  1  0  0  0
 31 23  1  0  0  0
 23 24  1  0  0  0
 23 25  1  0  0  0
 23 21  1  0  0  0
 21 22  3  0  0  0
 22  1  1  0  0  0
  1  2  2  0  0  0
  2  3  1  0  0  0
  3  4  2  0  0  0
  4  5  1  0  0  0
  5  6  1  0  0  0
  6  7  1  0  0  0
  7  8  1  0  0  0
  7  9  1  0  0  0
  9 10  1  0  0  0
 10 11  2  0  0  0
 11 12  1  0  0  0
 12 13  2  0  0  0
 13 14  1  0  0  0
 14 15  2  0  0  0
 11 16  1  0  0  0
 16 17  1  0  0  0
 16 18  2  0  0  0
 32 28  1  0  0  0
 15  1  1  0  0  0
 14  4  1  0  0  0
  8  5  1  0  0  0
 13  9  1  0  0  0
 25 26  1  0  0  0
 17 19  1  0  0  0
 17 20  1  0  0  0
M  END
> <minimizedAffinity>
-9.37237

> <CNNscore>
0.2827126384

> <CNNaffinity>
6.8212594986

> <CNN_VS>
1.9284563065

> <CNNaffinity_variance>
0.1152124628

$$$$
[H]OC1(C#Cc2c([H])c3c(c([H])c2F)OC([H])([H])C([H])([H])c2sc(C(=O)N([H])[H])nc2-3)C([H])([H])C([H])([H])C([H])([H])C1([H])[H]


 29 32  0  0  0  0  0  0  0  0999 V2000
   40.6355   12.6422  -16.0233 C   0  0  0  0  0  0  0  0  0  0  0  0
   39.4489   12.7380  -15.4662 N   0  0  0  0  0  0  0  0  0  0  0  0
   38.4197   12.1406  -15.9730 C   0  0  0  0  0  0  0  0  0  0  0  0
   38.6137   11.4037  -17.1137 C   0  0  0  0  0  0  0  0  0  0  0  0
   37.7496   10.5861  -17.9998 C   0  0  0  0  0  0  0  0  0  0  0  0
   36.3854   11.2014  -18.1872 C   0  0  0  0  0  0  0  0  0  0  0  0
   35.6126   11.2020  -17.0043 O   0  0  0  0  0  0  0  0  0  0  0  0
   35.8618   11.8515  -15.7830 C   0  0  0  0  0  0  0  0  0  0  0  0
   34.7118   12.0496  -15.0437 C   0  0  0  0  0  0  0  0  0  0  0  0
   34.8332   12.6802  -13.8220 C   0  0  0  0  0  0  0  0  0  0  0  0
   33.7004   12.8773  -13.0895 F   0  0  0  0  0  0  0  0  0  0  0  0
   36.0549   13.1039  -13.3419 C   0  0  0  0  0  0  0  0  0  0  0  0
   37.1914   12.9003  -14.0882 C   0  0  0  0  0  0  0  0  0  0  0  0
   37.0883   12.2687  -15.3177 C   0  0  0  0  0  0  0  0  0  0  0  0
   40.2839   11.6230  -17.3824 S   0  0  0  0  0  0  0  0  0  0  0  0
   42.9843   13.2728  -16.5457 N   0  0  0  0  0  0  0  0  0  0  0  0
   41.9203   13.2235  -15.6299 C   0  0  0  0  0  0  0  0  0  0  0  0
   42.0577   13.6704  -14.4824 O   0  0  0  0  0  0  0  0  0  0  0  0
   43.9367   12.9883  -16.2222 H   0  0  0  0  0  0  0  0  0  0  0  0
   42.8743   13.5818  -17.5438 H   0  0  0  0  0  0  0  0  0  0  0  0
   36.1658   13.7677  -12.0508 C   0  0  0  0  0  0  0  0  0  0  0  0
   36.2365   14.3128  -10.9853 C   0  0  0  0  0  0  0  0  0  0  0  0
   36.3078   14.9663   -9.6631 C   0  0  0  0  0  0  0  0  0  0  0  0
   35.5928   14.2318   -8.7098 O   0  0  0  0  0  0  0  0  0  0  0  0
   37.7188   15.1823   -9.2098 C   0  0  0  0  0  0  0  0  0  0  0  0
   38.0006   16.6125   -9.5591 C   0  0  0  0  0  0  0  0  0  0  0  0
   36.6843   17.2983   -9.2613 C   0  0  0  0  0  0  0  0  0  0  0  0
   35.6509   16.3034   -9.7949 C   0  0  0  0  0  0  0  0  0  0  0  0
   34.7029   14.0169   -9.1298 H   0  0  0  0  0  0  0  0  0  0  0  0
 16 17  1  0  0  0
 17 18  2  0  0  0
 17  1  1  0  0  0
  1  2  2  0  0  0
  2  3  1  0  0  0
  3  4  2  0  0  0
  4  5  1  0  0  0
  5  6  1  0  0  0
  6  7  1  0  0  0
  7  8  1  0  0  0
  8  9  2  0  0  0
  9 10  1  0  0  0
 10 11  1  0  0  0
 10 12  2  0  0  0
 12 13  1  0  0  0
 13 14  2  0  0  0
 12 21  1  0  0  0
 21 22  3  0  0  0
 22 23  1  0  0  0
 23 24  1  0  0  0
 23 25  1  0  0  0
 25 26  1  0  0  0
 26 27  1  0  0  0
 27 28  1  0  0  0
  4 15  1  0  0  0
 15  1  1  0  0  0
  3 14  1  0  0  0
 28 23  1  0  0  0
 14  8  1  0  0  0
 16 19  1  0  0  0
 16 20  1  0  0  0
 24 29  1  0  0  0
M  END
> <minimizedAffinity>
-8.83800

> <CNNscore>
0.7372205257

> <CNNaffinity>
7.0812845230

> <CNN_VS>
5.2204685211

> <CNNaffinity_variance>
0.2082419395

$$$$
[H]OC1(C#Cc2c([H])c3c(c([H])c2F)OC([H])([H])C([H])([H])c2sc(C(=O)N([H])[H])nc2-3)C([H])([H])C([H])([H])C([H])([H])C1([H])[H]


 29 32  0  0  0  0  0  0  0  0999 V2000
   38.7187   11.3180  -17.7963 C   0  0  0  0  0  0  0  0  0  0  0  0
   38.2841   11.9818  -16.7483 N   0  0  0  0  0  0  0  0  0  0  0  0
   37.0971   11.7843  -16.2742 C   0  0  0  0  0  0  0  0  0  0  0  0
   36.3092   10.8562  -16.9066 C   0  0  0  0  0  0  0  0  0  0  0  0
   34.9357   10.3313  -16.7111 C   0  0  0  0  0  0  0  0  0  0  0  0
   33.9691   11.4117  -16.2948 C   0  0  0  0  0  0  0  0  0  0  0  0
   34.2346   11.9231  -15.0047 O   0  0  0  0  0  0  0  0  0  0  0  0
   35.3720   12.6043  -14.5380 C   0  0  0  0  0  0  0  0  0  0  0  0
   35.1078   13.3747  -13.4223 C   0  0  0  0  0  0  0  0  0  0  0  0
   36.1519   14.0914  -12.8735 C   0  0  0  0  0  0  0  0  0  0  0  0
   35.8949   14.8527  -11.7722 F   0  0  0  0  0  0  0  0  0  0  0  0
   37.4221   14.0498  -13.4098 C   0  0  0  0  0  0  0  0  0  0  0  0
   37.6710   13.2788  -14.5205 C   0  0  0  0  0  0  0  0  0  0  0  0
   36.6341   12.5524  -15.0850 C   0  0  0  0  0  0  0  0  0  0  0  0
   37.3426   10.3245  -18.1552 S   0  0  0  0  0  0  0  0  0  0  0  0
   41.1213   11.9580  -17.8686 N   0  0  0  0  0  0  0  0  0  0  0  0
   40.0048   11.3777  -18.4932 C   0  0  0  0  0  0  0  0  0  0  0  0
   40.0967   10.9115  -19.6375 O   0  0  0  0  0  0  0  0  0  0  0  0
   41.7144   12.6202  -18.4184 H   0  0  0  0  0  0  0  0  0  0  0  0
   41.3942   11.7615  -16.8733 H   0  0  0  0  0  0  0  0  0  0  0  0
   38.5127   14.8118  -12.8187 C   0  0  0  0  0  0  0  0  0  0  0  0
   39.4041   15.4564  -12.3420 C   0  0  0  0  0  0  0  0  0  0  0  0
   40.4851   16.2690  -11.7488 C   0  0  0  0  0  0  0  0  0  0  0  0
   40.8153   17.3398  -12.5877 O   0  0  0  0  0  0  0  0  0  0  0  0
   40.1398   16.7627  -10.3777 C   0  0  0  0  0  0  0  0  0  0  0  0
   40.8193   15.7938   -9.4578 C   0  0  0  0  0  0  0  0  0  0  0  0
   42.1214   15.5049  -10.1740 C   0  0  0  0  0  0  0  0  0  0  0  0
   41.6892   15.3890  -11.6377 C   0  0  0  0  0  0  0  0  0  0  0  0
   40.9111   16.9533  -13.5128 H   0  0  0  0  0  0  0  0  0  0  0  0
 16 17  1  0  0  0
 17 18  2  0  0  0
 17  1  1  0  0  0
  1  2  2  0  0  0
  2  3  1  0  0  0
  3  4  2  0  0  0
  4  5  1  0  0  0
  5  6  1  0  0  0
  6  7  1  0  0  0
  7  8  1  0  0  0
  8  9  2  0  0  0
  9 10  1  0  0  0
 10 11  1  0  0  0
 10 12  2  0  0  0
 12 13  1  0  0  0
 13 14  2  0  0  0
 12 21  1  0  0  0
 21 22  3  0  0  0
 22 23  1  0  0  0
 23 24  1  0  0  0
 23 25  1  0  0  0
 25 26  1  0  0  0
 26 27  1  0  0  0
 27 28  1  0  0  0
  4 15  1  0  0  0
 15  1  1  0  0  0
  3 14  1  0  0  0
 28 23  1  0  0  0
 14  8  1  0  0  0
 16 19  1  0  0  0
 16 20  1  0  0  0
 24 29  1  0  0  0
M  END
> <minimizedAffinity>
-8.76005

> <CNNscore>
0.6316467524

> <CNNaffinity>
7.0031394958

> <CNN_VS>
4.4235105515

> <CNNaffinity_variance>
0.1313870549

$$$$
[H]OC1(C#Cc2c([H])c3c(c([H])c2F)OC([H])([H])C([H])([H])c2sc(C(=O)N([H])[H])nc2-3)C([H])([H])C([H])([H])C([H])([H])C1([H])[H]


 29 32  0  0  0  0  0  0  0  0999 V2000
   35.4387   11.4672  -16.2706 C   0  0  0  0  0  0  0  0  0  0  0  0
   36.4216   12.0992  -15.6689 N   0  0  0  0  0  0  0  0  0  0  0  0
   37.6143   12.1152  -16.1691 C   0  0  0  0  0  0  0  0  0  0  0  0
   37.8143   11.4477  -17.3507 C   0  0  0  0  0  0  0  0  0  0  0  0
   38.9739   11.2133  -18.2455 C   0  0  0  0  0  0  0  0  0  0  0  0
   40.2492   10.9844  -17.4736 C   0  0  0  0  0  0  0  0  0  0  0  0
   40.6887   12.1341  -16.7796 O   0  0  0  0  0  0  0  0  0  0  0  0
   40.0548   12.8396  -15.7423 C   0  0  0  0  0  0  0  0  0  0  0  0
   40.9430   13.5744  -14.9811 C   0  0  0  0  0  0  0  0  0  0  0  0
   40.4340   14.3104  -13.9304 C   0  0  0  0  0  0  0  0  0  0  0  0
   41.3076   15.0369  -13.1770 F   0  0  0  0  0  0  0  0  0  0  0  0
   39.0860   14.3220  -13.6378 C   0  0  0  0  0  0  0  0  0  0  0  0
   38.2133   13.5860  -14.4037 C   0  0  0  0  0  0  0  0  0  0  0  0
   38.7069   12.8407  -15.4630 C   0  0  0  0  0  0  0  0  0  0  0  0
   36.2537   10.8352  -17.6655 S   0  0  0  0  0  0  0  0  0  0  0  0
   33.5909   11.7401  -14.6279 N   0  0  0  0  0  0  0  0  0  0  0  0
   34.0320   11.3186  -15.8932 C   0  0  0  0  0  0  0  0  0  0  0  0
   33.2370   10.8178  -16.7010 O   0  0  0  0  0  0  0  0  0  0  0  0
   32.9614   11.1094  -14.0815 H   0  0  0  0  0  0  0  0  0  0  0  0
   33.8609   12.6601  -14.1984 H   0  0  0  0  0  0  0  0  0  0  0  0
   38.5651   15.1039  -12.5256 C   0  0  0  0  0  0  0  0  0  0  0  0
   38.1265   15.7603  -11.6233 C   0  0  0  0  0  0  0  0  0  0  0  0
   37.5630   16.5684  -10.5233 C   0  0  0  0  0  0  0  0  0  0  0  0
   36.6717   17.5264  -11.0205 O   0  0  0  0  0  0  0  0  0  0  0  0
   36.8990   15.7248   -9.4790 C   0  0  0  0  0  0  0  0  0  0  0  0
   37.9342   15.5919   -8.4032 C   0  0  0  0  0  0  0  0  0  0  0  0
   38.5869   16.9578   -8.3922 C   0  0  0  0  0  0  0  0  0  0  0  0
   38.7014   17.2950   -9.8808 C   0  0  0  0  0  0  0  0  0  0  0  0
   37.1376   17.9681  -11.7966 H   0  0  0  0  0  0  0  0  0  0  0  0
 16 17  1  0  0  0
 17 18  2  0  0  0
 17  1  1  0  0  0
  1  2  2  0  0  0
  2  3  1  0  0  0
  3  4  2  0  0  0
  4  5  1  0  0  0
  5  6  1  0  0  0
  6  7  1  0  0  0
  7  8  1  0  0  0
  8  9  2  0  0  0
  9 10  1  0  0  0
 10 11  1  0  0  0
 10 12  2  0  0  0
 12 13  1  0  0  0
 13 14  2  0  0  0
 12 21  1  0  0  0
 21 22  3  0  0  0
 22 23  1  0  0  0
 23 24  1  0  0  0
 23 25  1  0  0  0
 25 26  1  0  0  0
 26 27  1  0  0  0
 27 28  1  0  0  0
  4 15  1  0  0  0
 15  1  1  0  0  0
  3 14  1  0  0  0
 28 23  1  0  0  0
 14  8  1  0  0  0
 16 19  1  0  0  0
 16 20  1  0  0  0
 24 29  1  0  0  0
M  END
> <minimizedAffinity>
-8.56136

> <CNNscore>
0.5789209008

> <CNNaffinity>
7.0035676956

> <CNN_VS>
4.0545115471

> <CNNaffinity_variance>
0.1491725743

$$$$
[H]OC1(C#Cc2c([H])c3c(c([H])c2F)OC([H])([H])C([H])([H])c2sc(C(=O)N([H])[H])nc2-3)C([H])([H])C([H])([H])C([H])([H])C1([H])[H]


 29 32  0  0  0  0  0  0  0  0999 V2000
   32.1180    9.8182  -21.4747 C   0  0  0  0  0  0  0  0  0  0  0  0
   32.8251   10.0564  -20.3927 N   0  0  0  0  0  0  0  0  0  0  0  0
   32.3117    9.9232  -19.2131 C   0  0  0  0  0  0  0  0  0  0  0  0
   31.0015    9.5242  -19.1343 C   0  0  0  0  0  0  0  0  0  0  0  0
   30.0464    9.2548  -18.0319 C   0  0  0  0  0  0  0  0  0  0  0  0
   30.2017   10.2333  -16.8947 C   0  0  0  0  0  0  0  0  0  0  0  0
   31.4299   10.0941  -16.2101 O   0  0  0  0  0  0  0  0  0  0  0  0
   32.7382   10.2731  -16.6915 C   0  0  0  0  0  0  0  0  0  0  0  0
   33.6421   10.5431  -15.6823 C   0  0  0  0  0  0  0  0  0  0  0  0
   34.9618   10.7380  -16.0360 C   0  0  0  0  0  0  0  0  0  0  0  0
   35.8567   11.0046  -15.0426 F   0  0  0  0  0  0  0  0  0  0  0  0
   35.3795   10.6686  -17.3488 C   0  0  0  0  0  0  0  0  0  0  0  0
   34.4693   10.3991  -18.3432 C   0  0  0  0  0  0  0  0  0  0  0  0
   33.1394   10.2007  -18.0062 C   0  0  0  0  0  0  0  0  0  0  0  0
   30.5929    9.3657  -20.7829 S   0  0  0  0  0  0  0  0  0  0  0  0
   32.2587   11.0863  -23.6101 N   0  0  0  0  0  0  0  0  0  0  0  0
   32.4866    9.9024  -22.8891 C   0  0  0  0  0  0  0  0  0  0  0  0
   33.0008    8.9195  -23.4413 O   0  0  0  0  0  0  0  0  0  0  0  0
   31.8344   11.0182  -24.5629 H   0  0  0  0  0  0  0  0  0  0  0  0
   32.4929   12.0418  -23.2416 H   0  0  0  0  0  0  0  0  0  0  0  0
   36.7757   10.8768  -17.7051 C   0  0  0  0  0  0  0  0  0  0  0  0
   37.9252   11.0663  -17.9882 C   0  0  0  0  0  0  0  0  0  0  0  0
   39.3458   11.3062  -18.3123 C   0  0  0  0  0  0  0  0  0  0  0  0
   40.0108   10.0964  -18.5437 O   0  0  0  0  0  0  0  0  0  0  0  0
   39.5158   12.2307  -19.4782 C   0  0  0  0  0  0  0  0  0  0  0  0
   39.7803   13.5661  -18.8510 C   0  0  0  0  0  0  0  0  0  0  0  0
   40.6392   13.2133  -17.6553 C   0  0  0  0  0  0  0  0  0  0  0  0
   39.9701   11.9476  -17.1141 C   0  0  0  0  0  0  0  0  0  0  0  0
   39.7524    9.4840  -17.7869 H   0  0  0  0  0  0  0  0  0  0  0  0
 16 17  1  0  0  0
 17 18  2  0  0  0
 17  1  1  0  0  0
  1  2  2  0  0  0
  2  3  1  0  0  0
  3  4  2  0  0  0
  4  5  1  0  0  0
  5  6  1  0  0  0
  6  7  1  0  0  0
  7  8  1  0  0  0
  8  9  2  0  0  0
  9 10  1  0  0  0
 10 11  1  0  0  0
 10 12  2  0  0  0
 12 13  1  0  0  0
 13 14  2  0  0  0
 12 21  1  0  0  0
 21 22  3  0  0  0
 22 23  1  0  0  0
 23 24  1  0  0  0
 23 25  1  0  0  0
 25 26  1  0  0  0
 26 27  1  0  0  0
 27 28  1  0  0  0
  4 15  1  0  0  0
 15  1  1  0  0  0
  3 14  1  0  0  0
 28 23  1  0  0  0
 14  8  1  0  0  0
 16 19  1  0  0  0
 16 20  1  0  0  0
 24 29  1  0  0  0
M  END
> <minimizedAffinity>
21.79420

> <CNNscore>
0.5522854328

> <CNNaffinity>
6.7333669662

> <CNN_VS>
3.7187404633

> <CNNaffinity_variance>
0.6918778419

$$$$
[H]OC1(C#Cc2c([H])c3c(c([H])c2F)OC([H])([H])C([H])([H])c2sc(C(=O)N([H])[H])nc2-3)C([H])([H])C([H])([H])C([H])([H])C1([H])[H]


 29 32  0  0  0  0  0  0  0  0999 V2000
   39.7121   12.1871  -16.8851 C   0  0  0  0  0  0  0  0  0  0  0  0
   39.7822   13.0084  -15.8613 N   0  0  0  0  0  0  0  0  0  0  0  0
   38.7808   13.1658  -15.0579 C   0  0  0  0  0  0  0  0  0  0  0  0
   37.6433   12.4434  -15.3150 C   0  0  0  0  0  0  0  0  0  0  0  0
   36.3086   12.3178  -14.6801 C   0  0  0  0  0  0  0  0  0  0  0  0
   35.7961   13.6415  -14.1701 C   0  0  0  0  0  0  0  0  0  0  0  0
   36.5497   14.1449  -13.0861 O   0  0  0  0  0  0  0  0  0  0  0  0
   37.9020   14.5261  -13.0479 C   0  0  0  0  0  0  0  0  0  0  0  0
   38.1751   15.4088  -12.0210 C   0  0  0  0  0  0  0  0  0  0  0  0
   39.4742   15.8543  -11.8841 C   0  0  0  0  0  0  0  0  0  0  0  0
   39.7474   16.7255  -10.8717 F   0  0  0  0  0  0  0  0  0  0  0  0
   40.4771   15.4408  -12.7362 C   0  0  0  0  0  0  0  0  0  0  0  0
   40.1912   14.5619  -13.7540 C   0  0  0  0  0  0  0  0  0  0  0  0
   38.8918   14.1042  -13.9064 C   0  0  0  0  0  0  0  0  0  0  0  0
   38.0977   11.5762  -16.7119 S   0  0  0  0  0  0  0  0  0  0  0  0
   42.0749   12.0263  -17.6456 N   0  0  0  0  0  0  0  0  0  0  0  0
   40.7055   11.8565  -17.9084 C   0  0  0  0  0  0  0  0  0  0  0  0
   40.3250   11.4262  -19.0063 O   0  0  0  0  0  0  0  0  0  0  0  0
   42.6713   12.4828  -18.3726 H   0  0  0  0  0  0  0  0  0  0  0  0
   42.5350   11.7176  -16.7529 H   0  0  0  0  0  0  0  0  0  0  0  0
   41.8427   15.9202  -12.5781 C   0  0  0  0  0  0  0  0  0  0  0  0
   42.9742   16.2958  -12.4523 C   0  0  0  0  0  0  0  0  0  0  0  0
   44.3742   16.7463  -12.3193 C   0  0  0  0  0  0  0  0  0  0  0  0
   44.6613   17.0813  -10.9908 O   0  0  0  0  0  0  0  0  0  0  0  0
   45.3503   15.7305  -12.8277 C   0  0  0  0  0  0  0  0  0  0  0  0
   45.6820   16.2020  -14.2113 C   0  0  0  0  0  0  0  0  0  0  0  0
   45.7171   17.7075  -14.0555 C   0  0  0  0  0  0  0  0  0  0  0  0
   44.5198   17.9857  -13.1435 C   0  0  0  0  0  0  0  0  0  0  0  0
   43.9017   17.6637  -10.6771 H   0  0  0  0  0  0  0  0  0  0  0  0
 16 17  1  0  0  0
 17 18  2  0  0  0
 17  1  1  0  0  0
  1  2  2  0  0  0
  2  3  1  0  0  0
  3  4  2  0  0  0
  4  5  1  0  0  0
  5  6  1  0  0  0
  6  7  1  0  0  0
  7  8  1  0  0  0
  8  9  2  0  0  0
  9 10  1  0  0  0
 10 11  1  0  0  0
 10 12  2  0  0  0
 12 13  1  0  0  0
 13 14  2  0  0  0
 12 21  1  0  0  0
 21 22  3  0  0  0
 22 23  1  0  0  0
 23 24  1  0  0  0
 23 25  1  0  0  0
 25 26  1  0  0  0
 26 27  1  0  0  0
 27 28  1  0  0  0
  4 15  1  0  0  0
 15  1  1  0  0  0
  3 14  1  0  0  0
 28 23  1  0  0  0
 14  8  1  0  0  0
 16 19  1  0  0  0
 16 20  1  0  0  0
 24 29  1  0  0  0
M  END
> <minimizedAffinity>
-8.42077

> <CNNscore>
0.5362609029

> <CNNaffinity>
6.4427285194

> <CNN_VS>
3.4549834728

> <CNNaffinity_variance>
0.1174087673

$$$$
[H]OC1(C#Cc2c([H])c3c(c([H])c2F)OC([H])([H])C([H])([H])c2sc(C(=O)N([H])[H])nc2-3)C([H])([H])C([H])([H])C([H])([H])C1([H])[H]


 29 32  0  0  0  0  0  0  0  0999 V2000
   34.8164   13.3041  -14.1378 C   0  0  0  0  0  0  0  0  0  0  0  0
   35.1998   12.8371  -15.3051 N   0  0  0  0  0  0  0  0  0  0  0  0
   36.4046   12.4054  -15.4919 C   0  0  0  0  0  0  0  0  0  0  0  0
   37.2668   12.4537  -14.4260 C   0  0  0  0  0  0  0  0  0  0  0  0
   38.6840   12.0793  -14.1991 C   0  0  0  0  0  0  0  0  0  0  0  0
   39.5531   12.3993  -15.3896 C   0  0  0  0  0  0  0  0  0  0  0  0
   39.2556   11.6052  -16.5198 O   0  0  0  0  0  0  0  0  0  0  0  0
   38.0660   11.5345  -17.2651 C   0  0  0  0  0  0  0  0  0  0  0  0
   38.2708   11.0612  -18.5466 C   0  0  0  0  0  0  0  0  0  0  0  0
   37.1717   10.9481  -19.3738 C   0  0  0  0  0  0  0  0  0  0  0  0
   37.3700   10.4813  -20.6393 F   0  0  0  0  0  0  0  0  0  0  0  0
   35.9052   11.2921  -18.9494 C   0  0  0  0  0  0  0  0  0  0  0  0
   35.7158   11.7618  -17.6713 C   0  0  0  0  0  0  0  0  0  0  0  0
   36.8083   11.8820  -16.8268 C   0  0  0  0  0  0  0  0  0  0  0  0
   36.2730   13.1248  -13.2128 S   0  0  0  0  0  0  0  0  0  0  0  0
   33.4489   15.0921  -13.0794 N   0  0  0  0  0  0  0  0  0  0  0  0
   33.5231   13.8366  -13.7051 C   0  0  0  0  0  0  0  0  0  0  0  0
   32.4974   13.1684  -13.8968 O   0  0  0  0  0  0  0  0  0  0  0  0
   32.8594   15.1898  -12.2217 H   0  0  0  0  0  0  0  0  0  0  0  0
   33.9564   15.9431  -13.4286 H   0  0  0  0  0  0  0  0  0  0  0  0
   34.7561   11.1668  -19.8347 C   0  0  0  0  0  0  0  0  0  0  0  0
   33.7978   11.0723  -20.5489 C   0  0  0  0  0  0  0  0  0  0  0  0
   32.6111   10.9801  -21.4228 C   0  0  0  0  0  0  0  0  0  0  0  0
   32.2766   12.2388  -21.9360 O   0  0  0  0  0  0  0  0  0  0  0  0
   32.7967    9.9924  -22.5333 C   0  0  0  0  0  0  0  0  0  0  0  0
   32.1136    8.7532  -22.0389 C   0  0  0  0  0  0  0  0  0  0  0  0
   30.9047    9.3016  -21.3111 C   0  0  0  0  0  0  0  0  0  0  0  0
   31.4712   10.5168  -20.5728 C   0  0  0  0  0  0  0  0  0  0  0  0
   32.2916   12.8742  -21.1546 H   0  0  0  0  0  0  0  0  0  0  0  0
 16 17  1  0  0  0
 17 18  2  0  0  0
 17  1  1  0  0  0
  1  2  2  0  0  0
  2  3  1  0  0  0
  3  4  2  0  0  0
  4  5  1  0  0  0
  5  6  1  0  0  0
  6  7  1  0  0  0
  7  8  1  0  0  0
  8  9  2  0  0  0
  9 10  1  0  0  0
 10 11  1  0  0  0
 10 12  2  0  0  0
 12 13  1  0  0  0
 13 14  2  0  0  0
 12 21  1  0  0  0
 21 22  3  0  0  0
 22 23  1  0  0  0
 23 24  1  0  0  0
 23 25  1  0  0  0
 25 26  1  0  0  0
 26 27  1  0  0  0
 27 28  1  0  0  0
  4 15  1  0  0  0
 15  1  1  0  0  0
  3 14  1  0  0  0
 28 23  1  0  0  0
 14  8  1  0  0  0
 16 19  1  0  0  0
 16 20  1  0  0  0
 24 29  1  0  0  0
M  END
> <minimizedAffinity>
8.94314

> <CNNscore>
0.5091317892

> <CNNaffinity>
6.6659407616

> <CNN_VS>
3.3938424587

> <CNNaffinity_variance>
0.5370846391

$$$$
[H]OC1(C#Cc2c([H])c3c(c([H])c2F)OC([H])([H])C([H])([H])c2sc(C(=O)N([H])[H])nc2-3)C([H])([H])C([H])([H])C([H])([H])C1([H])[H]


 29 32  0  0  0  0  0  0  0  0999 V2000
   35.7555   12.8017  -13.9966 C   0  0  0  0  0  0  0  0  0  0  0  0
   37.0070   12.7595  -14.3963 N   0  0  0  0  0  0  0  0  0  0  0  0
   37.3219   12.3134  -15.5688 C   0  0  0  0  0  0  0  0  0  0  0  0
   36.3005   11.8861  -16.3788 C   0  0  0  0  0  0  0  0  0  0  0  0
   36.2067   11.3207  -17.7470 C   0  0  0  0  0  0  0  0  0  0  0  0
   37.3364   10.3671  -18.0457 C   0  0  0  0  0  0  0  0  0  0  0  0
   38.5943   11.0064  -18.1178 O   0  0  0  0  0  0  0  0  0  0  0  0
   39.2950   11.6999  -17.1159 C   0  0  0  0  0  0  0  0  0  0  0  0
   40.6529   11.7581  -17.3622 C   0  0  0  0  0  0  0  0  0  0  0  0
   41.4456   12.4163  -16.4438 C   0  0  0  0  0  0  0  0  0  0  0  0
   42.7863   12.4758  -16.6836 F   0  0  0  0  0  0  0  0  0  0  0  0
   40.9142   13.0012  -15.3133 C   0  0  0  0  0  0  0  0  0  0  0  0
   39.5608   12.9357  -15.0806 C   0  0  0  0  0  0  0  0  0  0  0  0
   38.7495   12.2786  -15.9923 C   0  0  0  0  0  0  0  0  0  0  0  0
   34.9403   12.1587  -15.3863 S   0  0  0  0  0  0  0  0  0  0  0  0
   33.8517   13.7254  -12.6892 N   0  0  0  0  0  0  0  0  0  0  0  0
   35.1762   13.2596  -12.7324 C   0  0  0  0  0  0  0  0  0  0  0  0
   35.8663   13.2316  -11.7037 O   0  0  0  0  0  0  0  0  0  0  0  0
   33.6475   14.6057  -12.1638 H   0  0  0  0  0  0  0  0  0  0  0  0
   33.0504   13.2342  -13.1588 H   0  0  0  0  0  0  0  0  0  0  0  0
   41.7643   13.6919  -14.3541 C   0  0  0  0  0  0  0  0  0  0  0  0
   42.4475   14.2649  -13.5527 C   0  0  0  0  0  0  0  0  0  0  0  0
   43.2769   14.9579  -12.5465 C   0  0  0  0  0  0  0  0  0  0  0  0
   43.0730   14.4088  -11.2752 O   0  0  0  0  0  0  0  0  0  0  0  0
   44.7325   14.9411  -12.8988 C   0  0  0  0  0  0  0  0  0  0  0  0
   44.9722   16.2799  -13.5288 C   0  0  0  0  0  0  0  0  0  0  0  0
   44.1012   17.2024  -12.7028 C   0  0  0  0  0  0  0  0  0  0  0  0
   42.8238   16.3826  -12.5058 C   0  0  0  0  0  0  0  0  0  0  0  0
   42.0754   14.3357  -11.1571 H   0  0  0  0  0  0  0  0  0  0  0  0
 16 17  1  0  0  0
 17 18  2  0  0  0
 17  1  1  0  0  0
  1  2  2  0  0  0
  2  3  1  0  0  0
  3  4  2  0  0  0
  4  5  1  0  0  0
  5  6  1  0  0  0
  6  7  1  0  0  0
  7  8  1  0  0  0
  8  9  2  0  0  0
  9 10  1  0  0  0
 10 11  1  0  0  0
 10 12  2  0  0  0
 12 13  1  0  0  0
 13 14  2  0  0  0
 12 21  1  0  0  0
 21 22  3  0  0  0
 22 23  1  0  0  0
 23 24  1  0  0  0
 23 25  1  0  0  0
 25 26  1  0  0  0
 26 27  1  0  0  0
 27 28  1  0  0  0
  4 15  1  0  0  0
 15  1  1  0  0  0
  3 14  1  0  0  0
 28 23  1  0  0  0
 14  8  1  0  0  0
 16 19  1  0  0  0
 16 20  1  0  0  0
 24 29  1  0  0  0
M  END
> <minimizedAffinity>
-9.30007

> <CNNscore>
0.5065705180

> <CNNaffinity>
6.6918802261

> <CNN_VS>
3.3899092674

> <CNNaffinity_variance>
0.1302365214

$$$$
[H]OC1(C#Cc2c([H])c3c(c([H])c2F)OC([H])([H])C([H])([H])c2sc(C(=O)N([H])[H])nc2-3)C([H])([H])C([H])([H])C([H])([H])C1([H])[H]


 29 32  0  0  0  0  0  0  0  0999 V2000
   40.9326   11.7611  -17.9248 C   0  0  0  0  0  0  0  0  0  0  0  0
   40.5909   12.3399  -16.7952 N   0  0  0  0  0  0  0  0  0  0  0  0
   41.4609   12.9691  -16.0740 C   0  0  0  0  0  0  0  0  0  0  0  0
   42.7531   13.0093  -16.5326 C   0  0  0  0  0  0  0  0  0  0  0  0
   44.0259   13.5963  -16.0471 C   0  0  0  0  0  0  0  0  0  0  0  0
   44.1704   13.4790  -14.5504 C   0  0  0  0  0  0  0  0  0  0  0  0
   43.2369   14.2683  -13.8418 O   0  0  0  0  0  0  0  0  0  0  0  0
   41.8341   14.1818  -13.8261 C   0  0  0  0  0  0  0  0  0  0  0  0
   41.2811   14.7433  -12.6917 C   0  0  0  0  0  0  0  0  0  0  0  0
   39.9069   14.7172  -12.5654 C   0  0  0  0  0  0  0  0  0  0  0  0
   39.3576   15.2706  -11.4471 F   0  0  0  0  0  0  0  0  0  0  0  0
   39.0997   14.1529  -13.5311 C   0  0  0  0  0  0  0  0  0  0  0  0
   39.6635   13.5975  -14.6552 C   0  0  0  0  0  0  0  0  0  0  0  0
   41.0420   13.6148  -14.7988 C   0  0  0  0  0  0  0  0  0  0  0  0
   42.6268   12.1285  -17.9880 S   0  0  0  0  0  0  0  0  0  0  0  0
   39.2936   11.6806  -19.7941 N   0  0  0  0  0  0  0  0  0  0  0  0
   40.1284   11.0064  -18.8876 C   0  0  0  0  0  0  0  0  0  0  0  0
   40.1927    9.7690  -18.8935 O   0  0  0  0  0  0  0  0  0  0  0  0
   38.3199   11.3277  -19.9355 H   0  0  0  0  0  0  0  0  0  0  0  0
   39.5963   12.5251  -20.3409 H   0  0  0  0  0  0  0  0  0  0  0  0
   37.6515   14.1335  -13.3826 C   0  0  0  0  0  0  0  0  0  0  0  0
   36.4593   14.0967  -13.2610 C   0  0  0  0  0  0  0  0  0  0  0  0
   34.9936   14.0329  -13.0933 C   0  0  0  0  0  0  0  0  0  0  0  0
   34.5972   14.7270  -11.9441 O   0  0  0  0  0  0  0  0  0  0  0  0
   34.2600   14.5438  -14.2949 C   0  0  0  0  0  0  0  0  0  0  0  0
   33.8910   13.3044  -15.0528 C   0  0  0  0  0  0  0  0  0  0  0  0
   33.5493   12.3241  -13.9509 C   0  0  0  0  0  0  0  0  0  0  0  0
   34.6327   12.5940  -12.9039 C   0  0  0  0  0  0  0  0  0  0  0  0
   35.2128   14.4245  -11.2065 H   0  0  0  0  0  0  0  0  0  0  0  0
 16 17  1  0  0  0
 17 18  2  0  0  0
 17  1  1  0  0  0
  1  2  2  0  0  0
  2  3  1  0  0  0
  3  4  2  0  0  0
  4  5  1  0  0  0
  5  6  1  0  0  0
  6  7  1  0  0  0
  7  8  1  0  0  0
  8  9  2  0  0  0
  9 10  1  0  0  0
 10 11  1  0  0  0
 10 12  2  0  0  0
 12 13  1  0  0  0
 13 14  2  0  0  0
 12 21  1  0  0  0
 21 22  3  0  0  0
 22 23  1  0  0  0
 23 24  1  0  0  0
 23 25  1  0  0  0
 25 26  1  0  0  0
 26 27  1  0  0  0
 27 28  1  0  0  0
  4 15  1  0  0  0
 15  1  1  0  0  0
  3 14  1  0  0  0
 28 23  1  0  0  0
 14  8  1  0  0  0
 16 19  1  0  0  0
 16 20  1  0  0  0
 24 29  1  0  0  0
M  END
> <minimizedAffinity>
-2.78206

> <CNNscore>
0.4635648429

> <CNNaffinity>
6.7938385010

> <CNN_VS>
3.1493847370

> <CNNaffinity_variance>
0.9469044805

$$$$
[H]OC1(C#Cc2c([H])c3c(c([H])c2F)OC([H])([H])C([H])([H])c2sc(C(=O)N([H])[H])nc2-3)C([H])([H])C([H])([H])C([H])([H])C1([H])[H]


 29 32  0  0  0  0  0  0  0  0999 V2000
   38.8266   12.1283  -16.5719 C   0  0  0  0  0  0  0  0  0  0  0  0
   37.9159   12.6495  -15.7803 N   0  0  0  0  0  0  0  0  0  0  0  0
   36.7037   12.1986  -15.7644 C   0  0  0  0  0  0  0  0  0  0  0  0
   36.4049   11.1564  -16.6048 C   0  0  0  0  0  0  0  0  0  0  0  0
   35.1907   10.3583  -16.9036 C   0  0  0  0  0  0  0  0  0  0  0  0
   33.9424   11.2049  -16.9094 C   0  0  0  0  0  0  0  0  0  0  0  0
   33.6107   11.7084  -15.6316 O   0  0  0  0  0  0  0  0  0  0  0  0
   34.3374   12.5860  -14.8086 C   0  0  0  0  0  0  0  0  0  0  0  0
   33.5354   13.2431  -13.8958 C   0  0  0  0  0  0  0  0  0  0  0  0
   34.1403   14.1333  -13.0318 C   0  0  0  0  0  0  0  0  0  0  0  0
   33.3519   14.7837  -12.1295 F   0  0  0  0  0  0  0  0  0  0  0  0
   35.4989   14.3694  -13.0663 C   0  0  0  0  0  0  0  0  0  0  0  0
   36.2852   13.7084  -13.9800 C   0  0  0  0  0  0  0  0  0  0  0  0
   35.6946   12.8107  -14.8556 C   0  0  0  0  0  0  0  0  0  0  0  0
   37.9066   10.8929  -17.3698 S   0  0  0  0  0  0  0  0  0  0  0  0
   40.8879   12.1764  -17.9633 N   0  0  0  0  0  0  0  0  0  0  0  0
   40.2378   12.4730  -16.7539 C   0  0  0  0  0  0  0  0  0  0  0  0
   40.8504   13.0280  -15.8309 O   0  0  0  0  0  0  0  0  0  0  0  0
   41.8384   11.7431  -17.9274 H   0  0  0  0  0  0  0  0  0  0  0  0
   40.4683   12.3675  -18.9073 H   0  0  0  0  0  0  0  0  0  0  0  0
   36.1215   15.3118  -12.1477 C   0  0  0  0  0  0  0  0  0  0  0  0
   36.6224   16.0803  -11.3758 C   0  0  0  0  0  0  0  0  0  0  0  0
   37.2422   17.0075  -10.4080 C   0  0  0  0  0  0  0  0  0  0  0  0
   37.1146   18.3323  -10.8418 O   0  0  0  0  0  0  0  0  0  0  0  0
   36.6811   16.8500   -9.0284 C   0  0  0  0  0  0  0  0  0  0  0  0
   37.6784   15.9802   -8.3246 C   0  0  0  0  0  0  0  0  0  0  0  0
   39.0013   16.4731   -8.8713 C   0  0  0  0  0  0  0  0  0  0  0  0
   38.7013   16.6831  -10.3574 C   0  0  0  0  0  0  0  0  0  0  0  0
   37.3914   18.3391  -11.8102 H   0  0  0  0  0  0  0  0  0  0  0  0
 16 17  1  0  0  0
 17 18  2  0  0  0
 17  1  1  0  0  0
  1  2  2  0  0  0
  2  3  1  0  0  0
  3  4  2  0  0  0
  4  5  1  0  0  0
  5  6  1  0  0  0
  6  7  1  0  0  0
  7  8  1  0  0  0
  8  9  2  0  0  0
  9 10  1  0  0  0
 10 11  1  0  0  0
 10 12  2  0  0  0
 12 13  1  0  0  0
 13 14  2  0  0  0
 12 21  1  0  0  0
 21 22  3  0  0  0
 22 23  1  0  0  0
 23 24  1  0  0  0
 23 25  1  0  0  0
 25 26  1  0  0  0
 26 27  1  0  0  0
 27 28  1  0  0  0
  4 15  1  0  0  0
 15  1  1  0  0  0
  3 14  1  0  0  0
 28 23  1  0  0  0
 14  8  1  0  0  0
 16 19  1  0  0  0
 16 20  1  0  0  0
 24 29  1  0  0  0
M  END
> <minimizedAffinity>
-9.11843

> <CNNscore>
0.4506714046

> <CNNaffinity>
6.7879343033

> <CNN_VS>
3.0591278076

> <CNNaffinity_variance>
0.0670561194

$$$$
[H]OC1(C#Cc2c([H])c3c(c([H])c2F)C2([H])C([H])([H])C([H])(n4c-3nc(C(=O)N([H])[H])c4C(=O)N([H])C([H])([H])[H])C2([H])[H])C([H])([H])C([H])([H])C1([H])[H]


 34 38  0  0  0  0  0  0  0  0999 V2000
   39.4991   12.4456  -16.5728 C   0  0  0  0  0  0  0  0  0  0  0  0
   39.1078   11.9065  -17.7805 C   0  0  0  0  0  0  0  0  0  0  0  0
   37.7773   11.5981  -17.6647 N   0  0  0  0  0  0  0  0  0  0  0  0
   37.3449   11.9176  -16.4605 C   0  0  0  0  0  0  0  0  0  0  0  0
   35.9688   11.7183  -15.9438 C   0  0  0  0  0  0  0  0  0  0  0  0
   35.1204   11.1460  -16.8631 C   0  0  0  0  0  0  0  0  0  0  0  0
   33.8164   10.9013  -16.4991 C   0  0  0  0  0  0  0  0  0  0  0  0
   33.3337   11.2174  -15.2263 C   0  0  0  0  0  0  0  0  0  0  0  0
   32.0460   10.9675  -14.8895 F   0  0  0  0  0  0  0  0  0  0  0  0
   34.2060   11.7999  -14.2986 C   0  0  0  0  0  0  0  0  0  0  0  0
   35.5035   12.0391  -14.6731 C   0  0  0  0  0  0  0  0  0  0  0  0
   36.3305   12.6752  -13.5923 C   0  0  0  0  0  0  0  0  0  0  0  0
   37.0767   13.8430  -14.2563 C   0  0  0  0  0  0  0  0  0  0  0  0
   38.3431   12.9609  -14.4310 C   0  0  0  0  0  0  0  0  0  0  0  0
   37.6867   12.0046  -13.4603 C   0  0  0  0  0  0  0  0  0  0  0  0
   38.4005   12.4427  -15.7807 N   0  0  0  0  0  0  0  0  0  0  0  0
   42.7460   13.3207  -14.6827 C   0  0  0  0  0  0  0  0  0  0  0  0
   41.4477   12.7008  -14.9596 N   0  0  0  0  0  0  0  0  0  0  0  0
   40.7983   13.0028  -16.1871 C   0  0  0  0  0  0  0  0  0  0  0  0
   41.3644   13.7938  -17.0112 O   0  0  0  0  0  0  0  0  0  0  0  0
   41.0891   12.0653  -14.2422 H   0  0  0  0  0  0  0  0  0  0  0  0
   39.9268   11.6510  -18.9368 C   0  0  0  0  0  0  0  0  0  0  0  0
   41.2998   11.3696  -18.9122 N   0  0  0  0  0  0  0  0  0  0  0  0
   39.3493   11.6810  -20.0730 O   0  0  0  0  0  0  0  0  0  0  0  0
   41.7105   10.5842  -18.3728 H   0  0  0  0  0  0  0  0  0  0  0  0
   41.9549   11.9689  -19.4569 H   0  0  0  0  0  0  0  0  0  0  0  0
   32.9410   10.2957  -17.4893 C   0  0  0  0  0  0  0  0  0  0  0  0
   32.1984    9.7942  -18.2974 C   0  0  0  0  0  0  0  0  0  0  0  0
   31.2797    9.1805  -19.2626 C   0  0  0  0  0  0  0  0  0  0  0  0
   29.9390    9.2797  -18.9132 O   0  0  0  0  0  0  0  0  0  0  0  0
   31.6207    7.7595  -19.6430 C   0  0  0  0  0  0  0  0  0  0  0  0
   31.5531    8.1441  -21.0842 C   0  0  0  0  0  0  0  0  0  0  0  0
   31.6320    9.6037  -20.6522 C   0  0  0  0  0  0  0  0  0  0  0  0
   29.7758   10.1200  -18.4233 H   0  0  0  0  0  0  0  0  0  0  0  0
 17 18  1  0  0  0
 18 19  1  0  0  0
 19 20  2  0  0  0
 19  1  1  0  0  0
  1  2  2  0  0  0
  2  3  1  0  0  0
  3  4  2  0  0  0
  4  5  1  0  0  0
  5  6  2  0  0  0
  6  7  1  0  0  0
  7 27  1  0  0  0
 27 28  3  0  0  0
 28 29  1  0  0  0
 29 30  1  0  0  0
 29 31  1  0  0  0
 31 32  1  0  0  0
 32 33  1  0  0  0
  7  8  2  0  0  0
  8  9  1  0  0  0
  8 10  1  0  0  0
 10 11  2  0  0  0
 11 12  1  0  0  0
 12 13  1  0  0  0
 13 14  1  0  0  0
 14 15  1  0  0  0
 14 16  1  0  0  0
  2 22  1  0  0  0
 22 23  1  0  0  0
 22 24  2  0  0  0
 16  1  1  0  0  0
 16  4  1  0  0  0
 11  5  1  0  0  0
 15 12  1  0  0  0
 33 29  1  0  0  0
 18 21  1  0  0  0
 30 34  1  0  0  0
 23 25  1  0  0  0
 23 26  1  0  0  0
M  END
> <minimizedAffinity>
-5.64854

> <CNNscore>
0.7023681998

> <CNNaffinity>
7.6284155846

> <CNN_VS>
5.3579564095

> <CNNaffinity_variance>
0.3949578106

$$$$
[H]OC1(C#Cc2c([H])c3c(c([H])c2F)C2([H])C([H])([H])C([H])(n4c-3nc(C(=O)N([H])[H])c4C(=O)N([H])C([H])([H])[H])C2([H])[H])C([H])([H])C([H])([H])C1([H])[H]


 34 38  0  0  0  0  0  0  0  0999 V2000
   45.7125   15.7354  -11.4324 C   0  0  0  0  0  0  0  0  0  0  0  0
   44.5528   15.3965  -10.7672 C   0  0  0  0  0  0  0  0  0  0  0  0
   44.9018   14.4949   -9.7957 N   0  0  0  0  0  0  0  0  0  0  0  0
   46.2005   14.2697   -9.8369 C   0  0  0  0  0  0  0  0  0  0  0  0
   46.9555   13.3405   -8.9612 C   0  0  0  0  0  0  0  0  0  0  0  0
   46.1615   12.6921   -8.0438 C   0  0  0  0  0  0  0  0  0  0  0  0
   46.7449   11.7952   -7.1789 C   0  0  0  0  0  0  0  0  0  0  0  0
   48.1161   11.5271   -7.2080 C   0  0  0  0  0  0  0  0  0  0  0  0
   48.6692   10.6399   -6.3470 F   0  0  0  0  0  0  0  0  0  0  0  0
   48.9148   12.1930   -8.1457 C   0  0  0  0  0  0  0  0  0  0  0  0
   48.3218   13.0848   -9.0024 C   0  0  0  0  0  0  0  0  0  0  0  0
   49.2882   13.7376   -9.9493 C   0  0  0  0  0  0  0  0  0  0  0  0
   48.9733   15.2412   -9.9125 C   0  0  0  0  0  0  0  0  0  0  0  0
   48.1096   15.1124  -11.1969 C   0  0  0  0  0  0  0  0  0  0  0  0
   48.7518   13.7541  -11.3701 C   0  0  0  0  0  0  0  0  0  0  0  0
   46.7088   15.0324  -10.8430 N   0  0  0  0  0  0  0  0  0  0  0  0
   46.6102   17.4400  -14.7745 C   0  0  0  0  0  0  0  0  0  0  0  0
   46.4595   16.3782  -13.7762 N   0  0  0  0  0  0  0  0  0  0  0  0
   45.9095   16.7101  -12.5086 C   0  0  0  0  0  0  0  0  0  0  0  0
   45.5575   17.9140  -12.2802 O   0  0  0  0  0  0  0  0  0  0  0  0
   46.7535   15.4418  -14.0658 H   0  0  0  0  0  0  0  0  0  0  0  0
   43.2132   15.8415  -11.0514 C   0  0  0  0  0  0  0  0  0  0  0  0
   42.7361   16.2246  -12.3125 N   0  0  0  0  0  0  0  0  0  0  0  0
   42.3981   15.8850  -10.0721 O   0  0  0  0  0  0  0  0  0  0  0  0
   42.7730   15.6085  -13.1465 H   0  0  0  0  0  0  0  0  0  0  0  0
   42.3206   17.1717  -12.4365 H   0  0  0  0  0  0  0  0  0  0  0  0
   45.8833   11.1237   -6.2195 C   0  0  0  0  0  0  0  0  0  0  0  0
   45.1568   10.5842   -5.4213 C   0  0  0  0  0  0  0  0  0  0  0  0
   44.2649    9.9494   -4.4448 C   0  0  0  0  0  0  0  0  0  0  0  0
   44.7709    8.7818   -3.8879 O   0  0  0  0  0  0  0  0  0  0  0  0
   42.8513    9.7318   -4.9292 C   0  0  0  0  0  0  0  0  0  0  0  0
   42.3412   10.4162   -3.7039 C   0  0  0  0  0  0  0  0  0  0  0  0
   43.7447   10.9676   -3.4820 C   0  0  0  0  0  0  0  0  0  0  0  0
   45.7528    8.8375   -3.8136 H   0  0  0  0  0  0  0  0  0  0  0  0
 17 18  1  0  0  0
 18 19  1  0  0  0
 19 20  2  0  0  0
 19  1  1  0  0  0
  1  2  2  0  0  0
  2  3  1  0  0  0
  3  4  2  0  0  0
  4  5  1  0  0  0
  5  6  2  0  0  0
  6  7  1  0  0  0
  7 27  1  0  0  0
 27 28  3  0  0  0
 28 29  1  0  0  0
 29 30  1  0  0  0
 29 31  1  0  0  0
 31 32  1  0  0  0
 32 33  1  0  0  0
  7  8  2  0  0  0
  8  9  1  0  0  0
  8 10  1  0  0  0
 10 11  2  0  0  0
 11 12  1  0  0  0
 12 13  1  0  0  0
 13 14  1  0  0  0
 14 15  1  0  0  0
 14 16  1  0  0  0
  2 22  1  0  0  0
 22 23  1  0  0  0
 22 24  2  0  0  0
 16  1  1  0  0  0
 16  4  1  0  0  0
 11  5  1  0  0  0
 15 12  1  0  0  0
 33 29  1  0  0  0
 18 21  1  0  0  0
 30 34  1  0  0  0
 23 25  1  0  0  0
 23 26  1  0  0  0
M  END
> <minimizedAffinity>
-4.41305

> <CNNscore>
0.5917513967

> <CNNaffinity>
5.4854125977

> <CNN_VS>
3.2460005283

> <CNNaffinity_variance>
0.8343313336

$$$$
[H]OC1(C#Cc2c([H])c3c(c([H])c2F)C2([H])C([H])([H])C([H])(n4c-3nc(C(=O)N([H])[H])c4C(=O)N([H])C([H])([H])[H])C2([H])[H])C([H])([H])C([H])([H])C1([H])[H]


 34 38  0  0  0  0  0  0  0  0999 V2000
   37.2346   12.2039  -16.0409 C   0  0  0  0  0  0  0  0  0  0  0  0
   38.4036   11.7717  -16.6313 C   0  0  0  0  0  0  0  0  0  0  0  0
   39.4342   12.3774  -15.9607 N   0  0  0  0  0  0  0  0  0  0  0  0
   38.9561   13.1487  -15.0038 C   0  0  0  0  0  0  0  0  0  0  0  0
   39.7536   13.9855  -14.0743 C   0  0  0  0  0  0  0  0  0  0  0  0
   41.1096   13.8946  -14.2882 C   0  0  0  0  0  0  0  0  0  0  0  0
   41.9567   14.6326  -13.4942 C   0  0  0  0  0  0  0  0  0  0  0  0
   41.4781   15.4680  -12.4812 C   0  0  0  0  0  0  0  0  0  0  0  0
   42.3306   16.1857  -11.7115 F   0  0  0  0  0  0  0  0  0  0  0  0
   40.0961   15.5526  -12.2721 C   0  0  0  0  0  0  0  0  0  0  0  0
   39.2618   14.8121  -13.0699 C   0  0  0  0  0  0  0  0  0  0  0  0
   37.8071   14.9842  -12.7365 C   0  0  0  0  0  0  0  0  0  0  0  0
   37.2121   13.5686  -12.6757 C   0  0  0  0  0  0  0  0  0  0  0  0
   36.6898   13.7038  -14.1322 C   0  0  0  0  0  0  0  0  0  0  0  0
   36.9682   15.1833  -13.9868 C   0  0  0  0  0  0  0  0  0  0  0  0
   37.5997   13.0463  -15.0452 N   0  0  0  0  0  0  0  0  0  0  0  0
   33.5212   11.2063  -15.7307 C   0  0  0  0  0  0  0  0  0  0  0  0
   34.8712   11.6022  -15.3218 N   0  0  0  0  0  0  0  0  0  0  0  0
   35.8531   11.8087  -16.3282 C   0  0  0  0  0  0  0  0  0  0  0  0
   35.5310   11.6522  -17.5517 O   0  0  0  0  0  0  0  0  0  0  0  0
   35.0215   11.7207  -14.3165 H   0  0  0  0  0  0  0  0  0  0  0  0
   38.5452   10.9000  -17.7686 C   0  0  0  0  0  0  0  0  0  0  0  0
   37.6380    9.8984  -18.1408 N   0  0  0  0  0  0  0  0  0  0  0  0
   39.5809   11.0598  -18.4946 O   0  0  0  0  0  0  0  0  0  0  0  0
   36.6342   10.0808  -18.3294 H   0  0  0  0  0  0  0  0  0  0  0  0
   37.9713    8.9163  -18.2376 H   0  0  0  0  0  0  0  0  0  0  0  0
   43.3848   14.5182  -13.7412 C   0  0  0  0  0  0  0  0  0  0  0  0
   44.5676   14.4334  -13.9647 C   0  0  0  0  0  0  0  0  0  0  0  0
   46.0015   14.3362  -14.2591 C   0  0  0  0  0  0  0  0  0  0  0  0
   46.5210   15.4391  -14.9247 O   0  0  0  0  0  0  0  0  0  0  0  0
   46.4189   13.0599  -14.9497 C   0  0  0  0  0  0  0  0  0  0  0  0
   47.4679   12.8554  -13.9069 C   0  0  0  0  0  0  0  0  0  0  0  0
   46.7487   13.8865  -13.0452 C   0  0  0  0  0  0  0  0  0  0  0  0
   46.0490   16.2589  -14.6457 H   0  0  0  0  0  0  0  0  0  0  0  0
 17 18  1  0  0  0
 18 19  1  0  0  0
 19 20  2  0  0  0
 19  1  1  0  0  0
  1  2  2  0  0  0
  2  3  1  0  0  0
  3  4  2  0  0  0
  4  5  1  0  0  0
  5  6  2  0  0  0
  6  7  1  0  0  0
  7 27  1  0  0  0
 27 28  3  0  0  0
 28 29  1  0  0  0
 29 30  1  0  0  0
 29 31  1  0  0  0
 31 32  1  0  0  0
 32 33  1  0  0  0
  7  8  2  0  0  0
  8  9  1  0  0  0
  8 10  1  0  0  0
 10 11  2  0  0  0
 11 12  1  0  0  0
 12 13  1  0  0  0
 13 14  1  0  0  0
 14 15  1  0  0  0
 14 16  1  0  0  0
  2 22  1  0  0  0
 22 23  1  0  0  0
 22 24  2  0  0  0
 16  1  1  0  0  0
 16  4  1  0  0  0
 11  5  1  0  0  0
 15 12  1  0  0  0
 33 29  1  0  0  0
 18 21  1  0  0  0
 30 34  1  0  0  0
 23 25  1  0  0  0
 23 26  1  0  0  0
M  END
> <minimizedAffinity>
-8.22095

> <CNNscore>
0.5180429816

> <CNNaffinity>
7.1105446815

> <CNN_VS>
3.6835677624

> <CNNaffinity_variance>
0.3047767282

$$$$
[H]OC1(C#Cc2c([H])c3c(c([H])c2F)C2([H])C([H])([H])C([H])(n4c-3nc(C(=O)N([H])[H])c4C(=O)N([H])C([H])([H])[H])C2([H])[H])C([H])([H])C([H])([H])C1([H])[H]


 34 38  0  0  0  0  0  0  0  0999 V2000
   45.6788   16.7403  -10.7947 C   0  0  0  0  0  0  0  0  0  0  0  0
   44.7619   15.7179  -10.9225 C   0  0  0  0  0  0  0  0  0  0  0  0
   44.8521   14.9598   -9.7842 N   0  0  0  0  0  0  0  0  0  0  0  0
   45.7682   15.4631   -8.9802 C   0  0  0  0  0  0  0  0  0  0  0  0
   46.1727   14.9144   -7.6627 C   0  0  0  0  0  0  0  0  0  0  0  0
   45.4826   13.7770   -7.3124 C   0  0  0  0  0  0  0  0  0  0  0  0
   45.7746   13.1672   -6.1142 C   0  0  0  0  0  0  0  0  0  0  0  0
   46.7491   13.6705   -5.2482 C   0  0  0  0  0  0  0  0  0  0  0  0
   47.0203   13.0537   -4.0734 F   0  0  0  0  0  0  0  0  0  0  0  0
   47.4452   14.8290   -5.6147 C   0  0  0  0  0  0  0  0  0  0  0  0
   47.1451   15.4279   -6.8114 C   0  0  0  0  0  0  0  0  0  0  0  0
   47.9535   16.6652   -7.0803 C   0  0  0  0  0  0  0  0  0  0  0  0
   46.9540   17.7365   -7.5438 C   0  0  0  0  0  0  0  0  0  0  0  0
   47.2891   17.4350   -9.0301 C   0  0  0  0  0  0  0  0  0  0  0  0
   48.4900   16.6830   -8.5011 C   0  0  0  0  0  0  0  0  0  0  0  0
   46.2823   16.5629   -9.5953 N   0  0  0  0  0  0  0  0  0  0  0  0
   47.3798   19.4517  -12.9478 C   0  0  0  0  0  0  0  0  0  0  0  0
   47.2443   18.3123  -12.0368 N   0  0  0  0  0  0  0  0  0  0  0  0
   45.9388   17.8664  -11.6956 C   0  0  0  0  0  0  0  0  0  0  0  0
   44.9285   18.4622  -12.1952 O   0  0  0  0  0  0  0  0  0  0  0  0
   48.1172   17.8918  -11.7074 H   0  0  0  0  0  0  0  0  0  0  0  0
   43.9040   15.4405  -12.0450 C   0  0  0  0  0  0  0  0  0  0  0  0
   44.2811   14.7440  -13.2016 N   0  0  0  0  0  0  0  0  0  0  0  0
   42.7031   15.8624  -11.9736 O   0  0  0  0  0  0  0  0  0  0  0  0
   44.6719   13.7830  -13.1855 H   0  0  0  0  0  0  0  0  0  0  0  0
   44.1703   15.1990  -14.1320 H   0  0  0  0  0  0  0  0  0  0  0  0
   45.0309   11.9669   -5.7682 C   0  0  0  0  0  0  0  0  0  0  0  0
   44.3983   10.9765   -5.4945 C   0  0  0  0  0  0  0  0  0  0  0  0
   43.6101    9.7819   -5.1721 C   0  0  0  0  0  0  0  0  0  0  0  0
   43.1465    9.0900   -6.2837 O   0  0  0  0  0  0  0  0  0  0  0  0
   42.4868   10.0131   -4.1899 C   0  0  0  0  0  0  0  0  0  0  0  0
   42.9975    8.8809   -3.3610 C   0  0  0  0  0  0  0  0  0  0  0  0
   44.3092    8.9668   -4.1324 C   0  0  0  0  0  0  0  0  0  0  0  0
   43.7916    9.1661   -7.0259 H   0  0  0  0  0  0  0  0  0  0  0  0
 17 18  1  0  0  0
 18 19  1  0  0  0
 19 20  2  0  0  0
 19  1  1  0  0  0
  1  2  2  0  0  0
  2  3  1  0  0  0
  3  4  2  0  0  0
  4  5  1  0  0  0
  5  6  2  0  0  0
  6  7  1  0  0  0
  7 27  1  0  0  0
 27 28  3  0  0  0
 28 29  1  0  0  0
 29 30  1  0  0  0
 29 31  1  0  0  0
 31 32  1  0  0  0
 32 33  1  0  0  0
  7  8  2  0  0  0
  8  9  1  0  0  0
  8 10  1  0  0  0
 10 11  2  0  0  0
 11 12  1  0  0  0
 12 13  1  0  0  0
 13 14  1  0  0  0
 14 15  1  0  0  0
 14 16  1  0  0  0
  2 22  1  0  0  0
 22 23  1  0  0  0
 22 24  2  0  0  0
 16  1  1  0  0  0
 16  4  1  0  0  0
 11  5  1  0  0  0
 15 12  1  0  0  0
 33 29  1  0  0  0
 18 21  1  0  0  0
 30 34  1  0  0  0
 23 25  1  0  0  0
 23 26  1  0  0  0
M  END
> <minimizedAffinity>
-4.10860

> <CNNscore>
0.5138812661

> <CNNaffinity>
5.1920814514

> <CNN_VS>
2.6681134701

> <CNNaffinity_variance>
0.5052264333

$$$$
[H]OC1(C#Cc2c([H])c3c(c([H])c2F)C2([H])C([H])([H])C([H])(n4c-3nc(C(=O)N([H])[H])c4C(=O)N([H])C([H])([H])[H])C2([H])[H])C([H])([H])C([H])([H])C1([H])[H]


 34 38  0  0  0  0  0  0  0  0999 V2000
   37.8203   12.2660  -16.1416 C   0  0  0  0  0  0  0  0  0  0  0  0
   39.1294   12.4367  -16.5405 C   0  0  0  0  0  0  0  0  0  0  0  0
   39.7243   13.2503  -15.6117 N   0  0  0  0  0  0  0  0  0  0  0  0
   38.8523   13.5806  -14.6791 C   0  0  0  0  0  0  0  0  0  0  0  0
   39.1084   14.4641  -13.5155 C   0  0  0  0  0  0  0  0  0  0  0  0
   40.3974   14.9425  -13.4694 C   0  0  0  0  0  0  0  0  0  0  0  0
   40.7565   15.7818  -12.4401 C   0  0  0  0  0  0  0  0  0  0  0  0
   39.8505   16.1590  -11.4452 C   0  0  0  0  0  0  0  0  0  0  0  0
   40.2258   16.9866  -10.4410 F   0  0  0  0  0  0  0  0  0  0  0  0
   38.5412   15.6659  -11.5018 C   0  0  0  0  0  0  0  0  0  0  0  0
   38.1952   14.8300  -12.5326 C   0  0  0  0  0  0  0  0  0  0  0  0
   36.7683   14.3641  -12.4717 C   0  0  0  0  0  0  0  0  0  0  0  0
   36.8041   12.8455  -12.7037 C   0  0  0  0  0  0  0  0  0  0  0  0
   36.4658   13.0467  -14.2061 C   0  0  0  0  0  0  0  0  0  0  0  0
   36.0913   14.4623  -13.8276 C   0  0  0  0  0  0  0  0  0  0  0  0
   37.6752   12.9762  -14.9974 N   0  0  0  0  0  0  0  0  0  0  0  0
   34.5014   10.4453  -16.8837 C   0  0  0  0  0  0  0  0  0  0  0  0
   35.4655   11.3086  -16.1969 N   0  0  0  0  0  0  0  0  0  0  0  0
   36.7726   11.4347  -16.7402 C   0  0  0  0  0  0  0  0  0  0  0  0
   37.0650   10.8027  -17.8081 O   0  0  0  0  0  0  0  0  0  0  0  0
   35.1253   11.7873  -15.3588 H   0  0  0  0  0  0  0  0  0  0  0  0
   39.7622   11.9213  -17.7268 C   0  0  0  0  0  0  0  0  0  0  0  0
   39.8838   10.5645  -18.0570 N   0  0  0  0  0  0  0  0  0  0  0  0
   40.2463   12.7743  -18.5413 O   0  0  0  0  0  0  0  0  0  0  0  0
   39.0722    9.9233  -18.1384 H   0  0  0  0  0  0  0  0  0  0  0  0
   40.8289   10.1633  -18.2328 H   0  0  0  0  0  0  0  0  0  0  0  0
   42.1246   16.2730  -12.4150 C   0  0  0  0  0  0  0  0  0  0  0  0
   43.2607   16.6797  -12.4154 C   0  0  0  0  0  0  0  0  0  0  0  0
   44.6441   17.1674  -12.4385 C   0  0  0  0  0  0  0  0  0  0  0  0
   45.2383   17.2504  -11.1857 O   0  0  0  0  0  0  0  0  0  0  0  0
   44.8473   18.4532  -13.2036 C   0  0  0  0  0  0  0  0  0  0  0  0
   45.9439   17.8015  -13.9798 C   0  0  0  0  0  0  0  0  0  0  0  0
   45.4261   16.4531  -13.4932 C   0  0  0  0  0  0  0  0  0  0  0  0
   44.8929   16.5385  -10.5969 H   0  0  0  0  0  0  0  0  0  0  0  0
 17 18  1  0  0  0
 18 19  1  0  0  0
 19 20  2  0  0  0
 19  1  1  0  0  0
  1  2  2  0  0  0
  2  3  1  0  0  0
  3  4  2  0  0  0
  4  5  1  0  0  0
  5  6  2  0  0  0
  6  7  1  0  0  0
  7 27  1  0  0  0
 27 28  3  0  0  0
 28 29  1  0  0  0
 29 30  1  0  0  0
 29 31  1  0  0  0
 31 32  1  0  0  0
 32 33  1  0  0  0
  7  8  2  0  0  0
  8  9  1  0  0  0
  8 10  1  0  0  0
 10 11  2  0  0  0
 11 12  1  0  0  0
 12 13  1  0  0  0
 13 14  1  0  0  0
 14 15  1  0  0  0
 14 16  1  0  0  0
  2 22  1  0  0  0
 22 23  1  0  0  0
 22 24  2  0  0  0
 16  1  1  0  0  0
 16  4  1  0  0  0
 11  5  1  0  0  0
 15 12  1  0  0  0
 33 29  1  0  0  0
 18 21  1  0  0  0
 30 34  1  0  0  0
 23 25  1  0  0  0
 23 26  1  0  0  0
M  END
> <minimizedAffinity>
-8.82496

> <CNNscore>
0.4498671591

> <CNNaffinity>
6.8697175980

> <CNN_VS>
3.0904603004

> <CNNaffinity_variance>
0.1214533672

$$$$
[H]OC1(C#Cc2c([H])c3c(c([H])c2F)C2([H])C([H])([H])C([H])(n4c-3nc(C(=O)N([H])[H])c4C(=O)N([H])C([H])([H])[H])C2([H])[H])C([H])([H])C([H])([H])C1([H])[H]


 34 38  0  0  0  0  0  0  0  0999 V2000
   35.7543   15.1310  -11.7904 C   0  0  0  0  0  0  0  0  0  0  0  0
   37.0173   15.6439  -11.5808 C   0  0  0  0  0  0  0  0  0  0  0  0
   37.8456   15.0436  -12.4930 N   0  0  0  0  0  0  0  0  0  0  0  0
   37.1580   14.1999  -13.2376 C   0  0  0  0  0  0  0  0  0  0  0  0
   37.7024   13.3447  -14.3205 C   0  0  0  0  0  0  0  0  0  0  0  0
   39.0557   13.5033  -14.5102 C   0  0  0  0  0  0  0  0  0  0  0  0
   39.6807   12.7565  -15.4820 C   0  0  0  0  0  0  0  0  0  0  0  0
   38.9802   11.8456  -16.2773 C   0  0  0  0  0  0  0  0  0  0  0  0
   39.6161   11.1206  -17.2283 F   0  0  0  0  0  0  0  0  0  0  0  0
   37.6030   11.6924  -16.0758 C   0  0  0  0  0  0  0  0  0  0  0  0
   36.9912   12.4425  -15.1042 C   0  0  0  0  0  0  0  0  0  0  0  0
   35.5138   12.1921  -14.9969 C   0  0  0  0  0  0  0  0  0  0  0  0
   34.8483   13.5762  -14.9446 C   0  0  0  0  0  0  0  0  0  0  0  0
   34.7718   13.5033  -13.3951 C   0  0  0  0  0  0  0  0  0  0  0  0
   35.0792   12.0305  -13.5507 C   0  0  0  0  0  0  0  0  0  0  0  0
   35.8663   14.2487  -12.8119 N   0  0  0  0  0  0  0  0  0  0  0  0
   32.0217   15.6145  -10.9449 C   0  0  0  0  0  0  0  0  0  0  0  0
   33.2148   15.2113  -11.6935 N   0  0  0  0  0  0  0  0  0  0  0  0
   34.4925   15.4850  -11.1348 C   0  0  0  0  0  0  0  0  0  0  0  0
   34.5636   16.0632  -10.0008 O   0  0  0  0  0  0  0  0  0  0  0  0
   33.0491   14.7357  -12.5843 H   0  0  0  0  0  0  0  0  0  0  0  0
   37.4287   16.5843  -10.5710 C   0  0  0  0  0  0  0  0  0  0  0  0
   37.0918   17.9446  -10.5439 N   0  0  0  0  0  0  0  0  0  0  0  0
   38.1561   16.1358   -9.6248 O   0  0  0  0  0  0  0  0  0  0  0  0
   36.1131   18.2891  -10.5516 H   0  0  0  0  0  0  0  0  0  0  0  0
   37.8493   18.6590  -10.5143 H   0  0  0  0  0  0  0  0  0  0  0  0
   41.1112   12.9433  -15.6618 C   0  0  0  0  0  0  0  0  0  0  0  0
   42.3012   13.0967  -15.7901 C   0  0  0  0  0  0  0  0  0  0  0  0
   43.7498   13.2870  -15.9226 C   0  0  0  0  0  0  0  0  0  0  0  0
   44.1138   14.2386  -16.8667 O   0  0  0  0  0  0  0  0  0  0  0  0
   44.5374   12.0149  -16.1268 C   0  0  0  0  0  0  0  0  0  0  0  0
   45.4303   12.4029  -14.9945 C   0  0  0  0  0  0  0  0  0  0  0  0
   44.3786   13.4226  -14.5734 C   0  0  0  0  0  0  0  0  0  0  0  0
   43.4371   14.9549  -16.9069 H   0  0  0  0  0  0  0  0  0  0  0  0
 17 18  1  0  0  0
 18 19  1  0  0  0
 19 20  2  0  0  0
 19  1  1  0  0  0
  1  2  2  0  0  0
  2  3  1  0  0  0
  3  4  2  0  0  0
  4  5  1  0  0  0
  5  6  2  0  0  0
  6  7  1  0  0  0
  7 27  1  0  0  0
 27 28  3  0  0  0
 28 29  1  0  0  0
 29 30  1  0  0  0
 29 31  1  0  0  0
 31 32  1  0  0  0
 32 33  1  0  0  0
  7  8  2  0  0  0
  8  9  1  0  0  0
  8 10  1  0  0  0
 10 11  2  0  0  0
 11 12  1  0  0  0
 12 13  1  0  0  0
 13 14  1  0  0  0
 14 15  1  0  0  0
 14 16  1  0  0  0
  2 22  1  0  0  0
 22 23  1  0  0  0
 22 24  2  0  0  0
 16  1  1  0  0  0
 16  4  1  0  0  0
 11  5  1  0  0  0
 15 12  1  0  0  0
 33 29  1  0  0  0
 18 21  1  0  0  0
 30 34  1  0  0  0
 23 25  1  0  0  0
 23 26  1  0  0  0
M  END
> <minimizedAffinity>
-10.46168

> <CNNscore>
0.4395566285

> <CNNaffinity>
6.6864151955

> <CNN_VS>
2.9390580654

> <CNNaffinity_variance>
0.0710375980

$$$$
[H]OC1(C#Cc2c([H])c3c(c([H])c2F)C2([H])C([H])([H])C([H])(n4c-3nc(C(=O)N([H])[H])c4C(=O)N([H])C([H])([H])[H])C2([H])[H])C([H])([H])C([H])([H])C1([H])[H]


 34 38  0  0  0  0  0  0  0  0999 V2000
   36.9396   12.2302  -15.8463 C   0  0  0  0  0  0  0  0  0  0  0  0
   36.8916   12.9220  -14.6541 C   0  0  0  0  0  0  0  0  0  0  0  0
   38.1800   13.2758  -14.3486 N   0  0  0  0  0  0  0  0  0  0  0  0
   39.0003   12.8379  -15.2838 C   0  0  0  0  0  0  0  0  0  0  0  0
   40.4744   13.0025  -15.3016 C   0  0  0  0  0  0  0  0  0  0  0  0
   40.9580   13.6884  -14.2116 C   0  0  0  0  0  0  0  0  0  0  0  0
   42.3138   13.8979  -14.1085 C   0  0  0  0  0  0  0  0  0  0  0  0
   43.2080   13.4343  -15.0774 C   0  0  0  0  0  0  0  0  0  0  0  0
   44.5391   13.6519  -14.9555 F   0  0  0  0  0  0  0  0  0  0  0  0
   42.7046   12.7376  -16.1828 C   0  0  0  0  0  0  0  0  0  0  0  0
   41.3513   12.5351  -16.2745 C   0  0  0  0  0  0  0  0  0  0  0  0
   40.9410   11.7856  -17.5101 C   0  0  0  0  0  0  0  0  0  0  0  0
   39.7596   12.5642  -18.1098 C   0  0  0  0  0  0  0  0  0  0  0  0
   38.7515   11.5980  -17.4297 C   0  0  0  0  0  0  0  0  0  0  0  0
   39.9379   10.6909  -17.1909 C   0  0  0  0  0  0  0  0  0  0  0  0
   38.2430   12.1929  -16.2126 N   0  0  0  0  0  0  0  0  0  0  0  0
   33.5555   10.7824  -17.0006 C   0  0  0  0  0  0  0  0  0  0  0  0
   34.5829   11.3102  -16.0992 N   0  0  0  0  0  0  0  0  0  0  0  0
   35.8372   11.6920  -16.6475 C   0  0  0  0  0  0  0  0  0  0  0  0
   36.0289   11.5723  -17.9022 O   0  0  0  0  0  0  0  0  0  0  0  0
   34.3220   11.3850  -15.1125 H   0  0  0  0  0  0  0  0  0  0  0  0
   35.7365   13.1870  -13.8363 C   0  0  0  0  0  0  0  0  0  0  0  0
   35.0905   14.4257  -13.7219 N   0  0  0  0  0  0  0  0  0  0  0  0
   35.2653   12.2098  -13.1666 O   0  0  0  0  0  0  0  0  0  0  0  0
   34.7097   14.9465  -14.5344 H   0  0  0  0  0  0  0  0  0  0  0  0
   34.9786   14.8596  -12.7815 H   0  0  0  0  0  0  0  0  0  0  0  0
   42.7986   14.6254  -12.9469 C   0  0  0  0  0  0  0  0  0  0  0  0
   43.1894   15.2167  -11.9703 C   0  0  0  0  0  0  0  0  0  0  0  0
   43.6474   15.9252  -10.7702 C   0  0  0  0  0  0  0  0  0  0  0  0
   44.4939   16.9952  -11.0303 O   0  0  0  0  0  0  0  0  0  0  0  0
   44.2348   15.0377   -9.6990 C   0  0  0  0  0  0  0  0  0  0  0  0
   43.3146   15.6582   -8.7001 C   0  0  0  0  0  0  0  0  0  0  0  0
   42.4930   16.2032   -9.8623 C   0  0  0  0  0  0  0  0  0  0  0  0
   44.2534   17.4194  -11.8876 H   0  0  0  0  0  0  0  0  0  0  0  0
 17 18  1  0  0  0
 18 19  1  0  0  0
 19 20  2  0  0  0
 19  1  1  0  0  0
  1  2  2  0  0  0
  2  3  1  0  0  0
  3  4  2  0  0  0
  4  5  1  0  0  0
  5  6  2  0  0  0
  6  7  1  0  0  0
  7 27  1  0  0  0
 27 28  3  0  0  0
 28 29  1  0  0  0
 29 30  1  0  0  0
 29 31  1  0  0  0
 31 32  1  0  0  0
 32 33  1  0  0  0
  7  8  2  0  0  0
  8  9  1  0  0  0
  8 10  1  0  0  0
 10 11  2  0  0  0
 11 12  1  0  0  0
 12 13  1  0  0  0
 13 14  1  0  0  0
 14 15  1  0  0  0
 14 16  1  0  0  0
  2 22  1  0  0  0
 22 23  1  0  0  0
 22 24  2  0  0  0
 16  1  1  0  0  0
 16  4  1  0  0  0
 11  5  1  0  0  0
 15 12  1  0  0  0
 33 29  1  0  0  0
 18 21  1  0  0  0
 30 34  1  0  0  0
 23 25  1  0  0  0
 23 26  1  0  0  0
M  END
> <minimizedAffinity>
-8.79944

> <CNNscore>
0.3018447161

> <CNNaffinity>
6.8545074463

> <CNN_VS>
2.0689969063

> <CNNaffinity_variance>
0.0918134078

$$$$
[H]OC1(C#Cc2c([H])c3c(c([H])c2F)C2([H])C([H])([H])C([H])(n4c-3nc(C(=O)N([H])[H])c4C(=O)N([H])C([H])([H])[H])C2([H])[H])C([H])([H])C([H])([H])C1([H])[H]


 34 38  0  0  0  0  0  0  0  0999 V2000
   38.4843   15.4719   -8.1792 C   0  0  0  0  0  0  0  0  0  0  0  0
   37.4976   15.7652   -9.0971 C   0  0  0  0  0  0  0  0  0  0  0  0
   36.4768   16.3629   -8.4048 N   0  0  0  0  0  0  0  0  0  0  0  0
   36.7888   16.4457   -7.1262 C   0  0  0  0  0  0  0  0  0  0  0  0
   35.9354   17.0101   -6.0522 C   0  0  0  0  0  0  0  0  0  0  0  0
   34.7230   17.4735   -6.5082 C   0  0  0  0  0  0  0  0  0  0  0  0
   33.8372   18.0130   -5.6043 C   0  0  0  0  0  0  0  0  0  0  0  0
   34.1353   18.1021   -4.2419 C   0  0  0  0  0  0  0  0  0  0  0  0
   33.2480   18.6370   -3.3698 F   0  0  0  0  0  0  0  0  0  0  0  0
   35.3724   17.6276   -3.7889 C   0  0  0  0  0  0  0  0  0  0  0  0
   36.2471   17.0921   -4.6994 C   0  0  0  0  0  0  0  0  0  0  0  0
   37.5393   16.6308   -4.0877 C   0  0  0  0  0  0  0  0  0  0  0  0
   38.6582   17.1862   -4.9826 C   0  0  0  0  0  0  0  0  0  0  0  0
   38.7593   15.8299   -5.7326 C   0  0  0  0  0  0  0  0  0  0  0  0
   37.9390   15.2574   -4.5982 C   0  0  0  0  0  0  0  0  0  0  0  0
   38.0266   15.8997   -6.9784 N   0  0  0  0  0  0  0  0  0  0  0  0
   42.2390   14.6125   -7.9694 C   0  0  0  0  0  0  0  0  0  0  0  0
   40.9628   15.2593   -7.6538 N   0  0  0  0  0  0  0  0  0  0  0  0
   39.8118   14.8932   -8.4026 C   0  0  0  0  0  0  0  0  0  0  0  0
   39.9203   14.0117   -9.3172 O   0  0  0  0  0  0  0  0  0  0  0  0
   40.9785   15.9384   -6.8885 H   0  0  0  0  0  0  0  0  0  0  0  0
   37.4873   15.4629  -10.5049 C   0  0  0  0  0  0  0  0  0  0  0  0
   37.5392   14.1763  -11.0587 N   0  0  0  0  0  0  0  0  0  0  0  0
   37.4219   16.4507  -11.3082 O   0  0  0  0  0  0  0  0  0  0  0  0
   36.8540   13.4308  -10.8321 H   0  0  0  0  0  0  0  0  0  0  0  0
   38.2968   13.9396  -11.7332 H   0  0  0  0  0  0  0  0  0  0  0  0
   32.5632   18.4951   -6.1125 C   0  0  0  0  0  0  0  0  0  0  0  0
   31.5125   18.8916   -6.5539 C   0  0  0  0  0  0  0  0  0  0  0  0
   30.2449   19.3748   -7.1123 C   0  0  0  0  0  0  0  0  0  0  0  0
   29.2730   19.6518   -6.1594 O   0  0  0  0  0  0  0  0  0  0  0  0
   29.6721   18.5152   -8.2138 C   0  0  0  0  0  0  0  0  0  0  0  0
   29.5547   19.7267   -9.0788 C   0  0  0  0  0  0  0  0  0  0  0  0
   30.5006   20.4452   -8.1237 C   0  0  0  0  0  0  0  0  0  0  0  0
   29.6933   19.9784   -5.3291 H   0  0  0  0  0  0  0  0  0  0  0  0
 17 18  1  0  0  0
 18 19  1  0  0  0
 19 20  2  0  0  0
 19  1  1  0  0  0
  1  2  2  0  0  0
  2  3  1  0  0  0
  3  4  2  0  0  0
  4  5  1  0  0  0
  5  6  2  0  0  0
  6  7  1  0  0  0
  7 27  1  0  0  0
 27 28  3  0  0  0
 28 29  1  0  0  0
 29 30  1  0  0  0
 29 31  1  0  0  0
 31 32  1  0  0  0
 32 33  1  0  0  0
  7  8  2  0  0  0
  8  9  1  0  0  0
  8 10  1  0  0  0
 10 11  2  0  0  0
 11 12  1  0  0  0
 12 13  1  0  0  0
 13 14  1  0  0  0
 14 15  1  0  0  0
 14 16  1  0  0  0
  2 22  1  0  0  0
 22 23  1  0  0  0
 22 24  2  0  0  0
 16  1  1  0  0  0
 16  4  1  0  0  0
 11  5  1  0  0  0
 15 12  1  0  0  0
 33 29  1  0  0  0
 18 21  1  0  0  0
 30 34  1  0  0  0
 23 25  1  0  0  0
 23 26  1  0  0  0
M  END
> <minimizedAffinity>
-2.22822

> <CNNscore>
0.2628562450

> <CNNaffinity>
5.4778070450

> <CNN_VS>
1.4398758411

> <CNNaffinity_variance>
0.8685415387

$$$$
[H]OC1(C#Cc2c([H])c3c(c([H])c2F)C2([H])C([H])([H])C([H])(n4c-3nc(C(=O)N([H])[H])c4C(=O)N([H])C([H])([H])[H])C2([H])[H])C([H])([H])C([H])([H])C1([H])[H]


 34 38  0  0  0  0  0  0  0  0999 V2000
   36.3582   14.7680  -12.2323 C   0  0  0  0  0  0  0  0  0  0  0  0
   37.5742   15.2432  -11.7877 C   0  0  0  0  0  0  0  0  0  0  0  0
   38.5278   14.7532  -12.6417 N   0  0  0  0  0  0  0  0  0  0  0  0
   37.9596   14.0112  -13.5720 C   0  0  0  0  0  0  0  0  0  0  0  0
   38.6584   13.2909  -14.6643 C   0  0  0  0  0  0  0  0  0  0  0  0
   40.0232   13.4625  -14.6427 C   0  0  0  0  0  0  0  0  0  0  0  0
   40.7852   12.8357  -15.6014 C   0  0  0  0  0  0  0  0  0  0  0  0
   40.2120   12.0332  -16.5915 C   0  0  0  0  0  0  0  0  0  0  0  0
   40.9817   11.4255  -17.5255 F   0  0  0  0  0  0  0  0  0  0  0  0
   38.8218   11.8658  -16.6042 C   0  0  0  0  0  0  0  0  0  0  0  0
   38.0728   12.4957  -15.6435 C   0  0  0  0  0  0  0  0  0  0  0  0
   36.5976   12.2438  -15.7746 C   0  0  0  0  0  0  0  0  0  0  0  0
   35.9167   13.6156  -15.6476 C   0  0  0  0  0  0  0  0  0  0  0  0
   35.6260   13.3547  -14.1444 C   0  0  0  0  0  0  0  0  0  0  0  0
   35.9675   11.9100  -14.4336 C   0  0  0  0  0  0  0  0  0  0  0  0
   36.6207   14.0163  -13.3279 N   0  0  0  0  0  0  0  0  0  0  0  0
   32.5544   15.3213  -11.9068 C   0  0  0  0  0  0  0  0  0  0  0  0
   33.8460   15.0226  -12.5305 N   0  0  0  0  0  0  0  0  0  0  0  0
   35.0138   15.0477  -11.7210 C   0  0  0  0  0  0  0  0  0  0  0  0
   34.9038   15.3203  -10.4804 O   0  0  0  0  0  0  0  0  0  0  0  0
   33.8236   14.7964  -13.5283 H   0  0  0  0  0  0  0  0  0  0  0  0
   37.8312   16.0507  -10.6235 C   0  0  0  0  0  0  0  0  0  0  0  0
   37.7673   15.6040   -9.2964 N   0  0  0  0  0  0  0  0  0  0  0  0
   38.1454   17.2700  -10.8230 O   0  0  0  0  0  0  0  0  0  0  0  0
   38.3214   14.8034   -8.9378 H   0  0  0  0  0  0  0  0  0  0  0  0
   37.1374   16.0886   -8.6231 H   0  0  0  0  0  0  0  0  0  0  0  0
   42.2248   13.0336  -15.5557 C   0  0  0  0  0  0  0  0  0  0  0  0
   43.4169   13.2135  -15.5040 C   0  0  0  0  0  0  0  0  0  0  0  0
   44.8623   13.4530  -15.4301 C   0  0  0  0  0  0  0  0  0  0  0  0
   45.5517   13.1317  -16.5923 O   0  0  0  0  0  0  0  0  0  0  0  0
   45.5427   12.8418  -14.2285 C   0  0  0  0  0  0  0  0  0  0  0  0
   46.1486   14.1698  -13.9138 C   0  0  0  0  0  0  0  0  0  0  0  0
   45.1330   14.8061  -14.8556 C   0  0  0  0  0  0  0  0  0  0  0  0
   44.9844   13.2976  -17.3818 H   0  0  0  0  0  0  0  0  0  0  0  0
 17 18  1  0  0  0
 18 19  1  0  0  0
 19 20  2  0  0  0
 19  1  1  0  0  0
  1  2  2  0  0  0
  2  3  1  0  0  0
  3  4  2  0  0  0
  4  5  1  0  0  0
  5  6  2  0  0  0
  6  7  1  0  0  0
  7 27  1  0  0  0
 27 28  3  0  0  0
 28 29  1  0  0  0
 29 30  1  0  0  0
 29 31  1  0  0  0
 31 32  1  0  0  0
 32 33  1  0  0  0
  7  8  2  0  0  0
  8  9  1  0  0  0
  8 10  1  0  0  0
 10 11  2  0  0  0
 11 12  1  0  0  0
 12 13  1  0  0  0
 13 14  1  0  0  0
 14 15  1  0  0  0
 14 16  1  0  0  0
  2 22  1  0  0  0
 22 23  1  0  0  0
 22 24  2  0  0  0
 16  1  1  0  0  0
 16  4  1  0  0  0
 11  5  1  0  0  0
 15 12  1  0  0  0
 33 29  1  0  0  0
 18 21  1  0  0  0
 30 34  1  0  0  0
 23 25  1  0  0  0
 23 26  1  0  0  0
M  END
> <minimizedAffinity>
-9.48401

> <CNNscore>
0.2193471938

> <CNNaffinity>
6.4018144608

> <CNN_VS>
1.4042199850

> <CNNaffinity_variance>
0.1147653833

$$$$
[H]OC(C#Cc1c([H])c2c(c([H])c1F)OC([H])([H])C([H])([H])n1c-2nc(C(=O)N([H])[H])c1C(=O)N([H])C([H])([H])C1([H])C([H])([H])OC([H])([H])C1([H])[H])(C([H])([H])[H])C([H])([H])[H]


 37 40  0  0  0  0  0  0  0  0999 V2000
   34.4028   11.0868  -16.7177 C   0  0  0  0  0  0  0  0  0  0  0  0
   34.0564   11.9063  -15.6833 C   0  0  0  0  0  0  0  0  0  0  0  0
   35.0983   12.4990  -14.9592 C   0  0  0  0  0  0  0  0  0  0  0  0
   34.5238   13.3439  -13.8832 C   0  0  0  0  0  0  0  0  0  0  0  0
   33.2217   13.5652  -13.8069 N   0  0  0  0  0  0  0  0  0  0  0  0
   33.0231   14.3601  -12.7087 C   0  0  0  0  0  0  0  0  0  0  0  0
   34.2556   14.5981  -12.1487 C   0  0  0  0  0  0  0  0  0  0  0  0
   35.2137   13.9435  -12.9044 N   0  0  0  0  0  0  0  0  0  0  0  0
   36.6273   13.9752  -12.6160 C   0  0  0  0  0  0  0  0  0  0  0  0
   37.4995   14.0452  -13.8551 C   0  0  0  0  0  0  0  0  0  0  0  0
   37.4901   12.8311  -14.5884 O   0  0  0  0  0  0  0  0  0  0  0  0
   36.4115   12.2670  -15.2750 C   0  0  0  0  0  0  0  0  0  0  0  0
   36.7578   11.4523  -16.3033 C   0  0  0  0  0  0  0  0  0  0  0  0
   35.7403   10.8628  -17.0236 C   0  0  0  0  0  0  0  0  0  0  0  0
   36.0223   10.0377  -18.0637 F   0  0  0  0  0  0  0  0  0  0  0  0
   31.7142   14.8112  -12.2437 C   0  0  0  0  0  0  0  0  0  0  0  0
   30.4643   14.2854  -12.5736 N   0  0  0  0  0  0  0  0  0  0  0  0
   31.6984   15.8110  -11.4418 O   0  0  0  0  0  0  0  0  0  0  0  0
   29.8594   13.9375  -11.7720 H   0  0  0  0  0  0  0  0  0  0  0  0
   30.0602   14.1983  -13.5308 H   0  0  0  0  0  0  0  0  0  0  0  0
   34.6545   15.4441  -11.0354 C   0  0  0  0  0  0  0  0  0  0  0  0
   35.4959   16.3964  -11.2021 O   0  0  0  0  0  0  0  0  0  0  0  0
   34.1328   15.2649   -9.7320 N   0  0  0  0  0  0  0  0  0  0  0  0
   33.4134   14.5542   -9.4844 H   0  0  0  0  0  0  0  0  0  0  0  0
   34.5517   16.1191   -8.6233 C   0  0  0  0  0  0  0  0  0  0  0  0
   33.6283   15.9999   -7.4359 C   0  0  0  0  0  0  0  0  0  0  0  0
   32.2043   16.2035   -7.8543 C   0  0  0  0  0  0  0  0  0  0  0  0
   31.4918   15.1457   -7.0102 C   0  0  0  0  0  0  0  0  0  0  0  0
   32.3792   14.1140   -6.8772 O   0  0  0  0  0  0  0  0  0  0  0  0
   33.6555   14.6087   -6.8870 C   0  0  0  0  0  0  0  0  0  0  0  0
   32.4781    9.9375  -18.1479 C   0  0  0  0  0  0  0  0  0  0  0  0
   33.3455   10.4556  -17.4897 C   0  0  0  0  0  0  0  0  0  0  0  0
   31.5280    9.9204  -20.3489 C   0  0  0  0  0  0  0  0  0  0  0  0
   31.4336    9.3218  -18.9670 C   0  0  0  0  0  0  0  0  0  0  0  0
   31.6035    7.8225  -19.0037 C   0  0  0  0  0  0  0  0  0  0  0  0
   30.1556    9.5998  -18.4302 O   0  0  0  0  0  0  0  0  0  0  0  0
   30.2589   10.1242  -17.5747 H   0  0  0  0  0  0  0  0  0  0  0  0
 33 34  1  0  0  0
 34 35  1  0  0  0
 34 36  1  0  0  0
 34 31  1  0  0  0
 31 32  3  0  0  0
 32  1  1  0  0  0
  1  2  2  0  0  0
  2  3  1  0  0  0
  3  4  1  0  0  0
  4  5  2  0  0  0
  5  6  1  0  0  0
  6 16  1  0  0  0
 16 17  1  0  0  0
 16 18  2  0  0  0
  6  7  2  0  0  0
  7 21  1  0  0  0
 21 22  2  0  0  0
 21 23  1  0  0  0
 23 25  1  0  0  0
 25 26  1  0  0  0
 26 27  1  0  0  0
 27 28  1  0  0  0
 28 29  1  0  0  0
 29 30  1  0  0  0
  7  8  1  0  0  0
  8  9  1  0  0  0
  9 10  1  0  0  0
 10 11  1  0  0  0
 11 12  1  0  0  0
 12 13  1  0  0  0
 13 14  2  0  0  0
 14 15  1  0  0  0
 14  1  1  0  0  0
 12  3  2  0  0  0
  8  4  1  0  0  0
 30 26  1  0  0  0
 36 37  1  0  0  0
 17 19  1  0  0  0
 17 20  1  0  0  0
 23 24  1  0  0  0
M  END
> <minimizedAffinity>
-6.93690

> <CNNscore>
0.6357820034

> <CNNaffinity>
7.0348548889

> <CNN_VS>
4.4726343155

> <CNNaffinity_variance>
0.1244046241

$$$$
[H]OC(C#Cc1c([H])c2c(c([H])c1F)OC([H])([H])C([H])([H])n1c-2nc(C(=O)N([H])[H])c1C(=O)N([H])C([H])([H])C1([H])C([H])([H])OC([H])([H])C1([H])[H])(C([H])([H])[H])C([H])([H])[H]


 37 40  0  0  0  0  0  0  0  0999 V2000
   39.4281   12.5806  -15.7401 C   0  0  0  0  0  0  0  0  0  0  0  0
   38.7645   13.3005  -14.7897 C   0  0  0  0  0  0  0  0  0  0  0  0
   37.3765   13.1319  -14.7117 C   0  0  0  0  0  0  0  0  0  0  0  0
   36.8417   13.9943  -13.6292 C   0  0  0  0  0  0  0  0  0  0  0  0
   37.6501   14.6557  -12.8172 N   0  0  0  0  0  0  0  0  0  0  0  0
   36.8502   15.3573  -11.9539 C   0  0  0  0  0  0  0  0  0  0  0  0
   35.5462   15.0793  -12.2882 C   0  0  0  0  0  0  0  0  0  0  0  0
   35.5464   14.2064  -13.3633 N   0  0  0  0  0  0  0  0  0  0  0  0
   34.3494   13.6896  -13.9817 C   0  0  0  0  0  0  0  0  0  0  0  0
   34.4633   12.2387  -14.4094 C   0  0  0  0  0  0  0  0  0  0  0  0
   35.3291   12.0723  -15.5205 O   0  0  0  0  0  0  0  0  0  0  0  0
   36.7107   12.2799  -15.5537 C   0  0  0  0  0  0  0  0  0  0  0  0
   37.3690   11.5633  -16.4993 C   0  0  0  0  0  0  0  0  0  0  0  0
   38.7362   11.7211  -16.5858 C   0  0  0  0  0  0  0  0  0  0  0  0
   39.4511   11.0321  -17.5111 F   0  0  0  0  0  0  0  0  0  0  0  0
   37.3474   16.2513  -10.9117 C   0  0  0  0  0  0  0  0  0  0  0  0
   36.9657   17.5711  -10.6667 N   0  0  0  0  0  0  0  0  0  0  0  0
   38.2449   15.7814  -10.1264 O   0  0  0  0  0  0  0  0  0  0  0  0
   36.5762   17.7906   -9.7025 H   0  0  0  0  0  0  0  0  0  0  0  0
   37.0235   18.3687  -11.3357 H   0  0  0  0  0  0  0  0  0  0  0  0
   34.2932   15.4658  -11.6601 C   0  0  0  0  0  0  0  0  0  0  0  0
   34.2579   15.8254  -10.4303 O   0  0  0  0  0  0  0  0  0  0  0  0
   33.0685   15.4722  -12.3695 N   0  0  0  0  0  0  0  0  0  0  0  0
   32.9791   15.2413  -13.3808 H   0  0  0  0  0  0  0  0  0  0  0  0
   31.8174   15.8552  -11.7196 C   0  0  0  0  0  0  0  0  0  0  0  0
   31.0241   14.6547  -11.2657 C   0  0  0  0  0  0  0  0  0  0  0  0
   30.8238   14.6867   -9.7814 C   0  0  0  0  0  0  0  0  0  0  0  0
   29.3795   14.1973   -9.6652 C   0  0  0  0  0  0  0  0  0  0  0  0
   28.7429   14.6410  -10.7910 O   0  0  0  0  0  0  0  0  0  0  0  0
   29.6376   14.6992  -11.8255 C   0  0  0  0  0  0  0  0  0  0  0  0
   42.0676   12.8494  -15.9183 C   0  0  0  0  0  0  0  0  0  0  0  0
   40.8694   12.7324  -15.8478 C   0  0  0  0  0  0  0  0  0  0  0  0
   44.0161   13.2185  -14.5715 C   0  0  0  0  0  0  0  0  0  0  0  0
   43.5230   12.9876  -15.9787 C   0  0  0  0  0  0  0  0  0  0  0  0
   44.1478   11.7550  -16.5856 C   0  0  0  0  0  0  0  0  0  0  0  0
   43.8821   14.0950  -16.7808 O   0  0  0  0  0  0  0  0  0  0  0  0
   43.0489   14.5122  -17.1674 H   0  0  0  0  0  0  0  0  0  0  0  0
 33 34  1  0  0  0
 34 35  1  0  0  0
 34 36  1  0  0  0
 34 31  1  0  0  0
 31 32  3  0  0  0
 32  1  1  0  0  0
  1  2  2  0  0  0
  2  3  1  0  0  0
  3  4  1  0  0  0
  4  5  2  0  0  0
  5  6  1  0  0  0
  6 16  1  0  0  0
 16 17  1  0  0  0
 16 18  2  0  0  0
  6  7  2  0  0  0
  7 21  1  0  0  0
 21 22  2  0  0  0
 21 23  1  0  0  0
 23 25  1  0  0  0
 25 26  1  0  0  0
 26 27  1  0  0  0
 27 28  1  0  0  0
 28 29  1  0  0  0
 29 30  1  0  0  0
  7  8  1  0  0  0
  8  9  1  0  0  0
  9 10  1  0  0  0
 10 11  1  0  0  0
 11 12  1  0  0  0
 12 13  1  0  0  0
 13 14  2  0  0  0
 14 15  1  0  0  0
 14  1  1  0  0  0
 12  3  2  0  0  0
  8  4  1  0  0  0
 30 26  1  0  0  0
 36 37  1  0  0  0
 17 19  1  0  0  0
 17 20  1  0  0  0
 23 24  1  0  0  0
M  END
> <minimizedAffinity>
-10.94649

> <CNNscore>
0.4400894344

> <CNNaffinity>
6.7380189896

> <CNN_VS>
2.9653310776

> <CNNaffinity_variance>
0.0882588029

$$$$
[H]OC(C#Cc1c([H])c2c(c([H])c1F)OC([H])([H])C([H])([H])n1c-2nc(C(=O)N([H])[H])c1C(=O)N([H])C([H])([H])C1([H])C([H])([H])OC([H])([H])C1([H])[H])(C([H])([H])[H])C([H])([H])[H]


 37 40  0  0  0  0  0  0  0  0999 V2000
   41.0311   12.8335  -15.7290 C   0  0  0  0  0  0  0  0  0  0  0  0
   40.0063   13.1798  -14.8974 C   0  0  0  0  0  0  0  0  0  0  0  0
   38.7141   12.8000  -15.2809 C   0  0  0  0  0  0  0  0  0  0  0  0
   37.7461   13.2666  -14.2577 C   0  0  0  0  0  0  0  0  0  0  0  0
   38.1564   13.8034  -13.1203 N   0  0  0  0  0  0  0  0  0  0  0  0
   37.0297   14.1354  -12.4148 C   0  0  0  0  0  0  0  0  0  0  0  0
   35.9471   13.7700  -13.1789 C   0  0  0  0  0  0  0  0  0  0  0  0
   36.4117   13.2150  -14.3594 N   0  0  0  0  0  0  0  0  0  0  0  0
   35.5544   12.7104  -15.4048 C   0  0  0  0  0  0  0  0  0  0  0  0
   36.0801   11.4518  -16.0684 C   0  0  0  0  0  0  0  0  0  0  0  0
   37.2201   11.7047  -16.8736 O   0  0  0  0  0  0  0  0  0  0  0  0
   38.4863   12.1092  -16.4423 C   0  0  0  0  0  0  0  0  0  0  0  0
   39.5042   11.7641  -17.2705 C   0  0  0  0  0  0  0  0  0  0  0  0
   40.7812   12.1328  -16.9035 C   0  0  0  0  0  0  0  0  0  0  0  0
   41.8414   11.8168  -17.6898 F   0  0  0  0  0  0  0  0  0  0  0  0
   37.0377   14.7902  -11.1095 C   0  0  0  0  0  0  0  0  0  0  0  0
   37.7105   15.9573  -10.7450 N   0  0  0  0  0  0  0  0  0  0  0  0
   36.3542   14.2335  -10.1789 O   0  0  0  0  0  0  0  0  0  0  0  0
   37.1206   16.7586  -10.3715 H   0  0  0  0  0  0  0  0  0  0  0  0
   38.7379   16.1252  -10.8015 H   0  0  0  0  0  0  0  0  0  0  0  0
   34.5214   13.7971  -12.8948 C   0  0  0  0  0  0  0  0  0  0  0  0
   33.7673   12.8135  -13.2213 O   0  0  0  0  0  0  0  0  0  0  0  0
   33.9064   14.8932  -12.2441 N   0  0  0  0  0  0  0  0  0  0  0  0
   34.4215   15.7279  -11.8948 H   0  0  0  0  0  0  0  0  0  0  0  0
   32.4706   14.9070  -11.9745 C   0  0  0  0  0  0  0  0  0  0  0  0
   32.1176   15.8264  -10.8314 C   0  0  0  0  0  0  0  0  0  0  0  0
   30.9682   15.2726  -10.0463 C   0  0  0  0  0  0  0  0  0  0  0  0
   31.3982   15.6023   -8.6161 C   0  0  0  0  0  0  0  0  0  0  0  0
   32.7639   15.5355   -8.6118 O   0  0  0  0  0  0  0  0  0  0  0  0
   33.2399   15.8924   -9.8446 C   0  0  0  0  0  0  0  0  0  0  0  0
   43.5031   13.5472  -15.0578 C   0  0  0  0  0  0  0  0  0  0  0  0
   42.3849   13.2125  -15.3605 C   0  0  0  0  0  0  0  0  0  0  0  0
   44.8950   14.1572  -13.2036 C   0  0  0  0  0  0  0  0  0  0  0  0
   44.8559   13.9760  -14.7011 C   0  0  0  0  0  0  0  0  0  0  0  0
   45.8725   12.9588  -15.1593 C   0  0  0  0  0  0  0  0  0  0  0  0
   45.1647   15.2075  -15.3229 O   0  0  0  0  0  0  0  0  0  0  0  0
   44.3940   15.4884  -15.9101 H   0  0  0  0  0  0  0  0  0  0  0  0
 33 34  1  0  0  0
 34 35  1  0  0  0
 34 36  1  0  0  0
 34 31  1  0  0  0
 31 32  3  0  0  0
 32  1  1  0  0  0
  1  2  2  0  0  0
  2  3  1  0  0  0
  3  4  1  0  0  0
  4  5  2  0  0  0
  5  6  1  0  0  0
  6 16  1  0  0  0
 16 17  1  0  0  0
 16 18  2  0  0  0
  6  7  2  0  0  0
  7 21  1  0  0  0
 21 22  2  0  0  0
 21 23  1  0  0  0
 23 25  1  0  0  0
 25 26  1  0  0  0
 26 27  1  0  0  0
 27 28  1  0  0  0
 28 29  1  0  0  0
 29 30  1  0  0  0
  7  8  1  0  0  0
  8  9  1  0  0  0
  9 10  1  0  0  0
 10 11  1  0  0  0
 11 12  1  0  0  0
 12 13  1  0  0  0
 13 14  2  0  0  0
 14 15  1  0  0  0
 14  1  1  0  0  0
 12  3  2  0  0  0
  8  4  1  0  0  0
 30 26  1  0  0  0
 36 37  1  0  0  0
 17 19  1  0  0  0
 17 20  1  0  0  0
 23 24  1  0  0  0
M  END
> <minimizedAffinity>
-9.54963

> <CNNscore>
0.4212347567

> <CNNaffinity>
6.7668771744

> <CNN_VS>
2.8504438400

> <CNNaffinity_variance>
0.0756572559

$$$$
[H]OC(C#Cc1c([H])c2c(c([H])c1F)OC([H])([H])C([H])([H])n1c-2nc(C(=O)N([H])[H])c1C(=O)N([H])C([H])([H])C1([H])C([H])([H])OC([H])([H])C1([H])[H])(C([H])([H])[H])C([H])([H])[H]


 37 40  0  0  0  0  0  0  0  0999 V2000
   38.0234   11.6195  -16.5872 C   0  0  0  0  0  0  0  0  0  0  0  0
   38.4574   12.4578  -15.6020 C   0  0  0  0  0  0  0  0  0  0  0  0
   39.8219   12.7723  -15.5837 C   0  0  0  0  0  0  0  0  0  0  0  0
   40.0954   13.6854  -14.4465 C   0  0  0  0  0  0  0  0  0  0  0  0
   39.1111   14.1928  -13.7228 N   0  0  0  0  0  0  0  0  0  0  0  0
   39.6950   14.9714  -12.7583 C   0  0  0  0  0  0  0  0  0  0  0  0
   41.0549   14.9036  -12.9468 C   0  0  0  0  0  0  0  0  0  0  0  0
   41.3062   14.0771  -14.0291 N   0  0  0  0  0  0  0  0  0  0  0  0
   42.6281   13.7774  -14.5242 C   0  0  0  0  0  0  0  0  0  0  0  0
   42.7067   13.6933  -16.0367 C   0  0  0  0  0  0  0  0  0  0  0  0
   42.0556   12.5405  -16.5456 O   0  0  0  0  0  0  0  0  0  0  0  0
   40.6867   12.2607  -16.5155 C   0  0  0  0  0  0  0  0  0  0  0  0
   40.2569   11.4269  -17.4958 C   0  0  0  0  0  0  0  0  0  0  0  0
   38.9152   11.1098  -17.5240 C   0  0  0  0  0  0  0  0  0  0  0  0
   38.4241   10.2809  -18.4800 F   0  0  0  0  0  0  0  0  0  0  0  0
   38.9588   15.6898  -11.7216 C   0  0  0  0  0  0  0  0  0  0  0  0
   39.3293   16.8696  -11.0746 N   0  0  0  0  0  0  0  0  0  0  0  0
   37.8414   15.1838  -11.3496 O   0  0  0  0  0  0  0  0  0  0  0  0
   38.6599   17.6918  -11.1480 H   0  0  0  0  0  0  0  0  0  0  0  0
   40.2000   17.0285  -10.5235 H   0  0  0  0  0  0  0  0  0  0  0  0
   42.1492   15.5960  -12.2856 C   0  0  0  0  0  0  0  0  0  0  0  0
   42.4663   16.7926  -12.6180 O   0  0  0  0  0  0  0  0  0  0  0  0
   42.9021   14.9931  -11.2498 N   0  0  0  0  0  0  0  0  0  0  0  0
   42.7111   14.0442  -10.8664 H   0  0  0  0  0  0  0  0  0  0  0  0
   44.0042   15.7009  -10.6026 C   0  0  0  0  0  0  0  0  0  0  0  0
   43.5447   16.4838   -9.3974 C   0  0  0  0  0  0  0  0  0  0  0  0
   43.0223   15.5617   -8.3386 C   0  0  0  0  0  0  0  0  0  0  0  0
   43.5746   16.2185   -7.0727 C   0  0  0  0  0  0  0  0  0  0  0  0
   44.7642   16.7869   -7.4353 O   0  0  0  0  0  0  0  0  0  0  0  0
   44.7016   17.1736   -8.7469 C   0  0  0  0  0  0  0  0  0  0  0  0
   35.4393   10.9966  -16.6569 C   0  0  0  0  0  0  0  0  0  0  0  0
   36.6129   11.2727  -16.6347 C   0  0  0  0  0  0  0  0  0  0  0  0
   33.8907    9.1742  -16.8243 C   0  0  0  0  0  0  0  0  0  0  0  0
   34.0132   10.6691  -16.6597 C   0  0  0  0  0  0  0  0  0  0  0  0
   33.3593   11.1377  -15.3826 C   0  0  0  0  0  0  0  0  0  0  0  0
   33.3610   11.3070  -17.7397 O   0  0  0  0  0  0  0  0  0  0  0  0
   34.0234   11.8820  -18.2380 H   0  0  0  0  0  0  0  0  0  0  0  0
 33 34  1  0  0  0
 34 35  1  0  0  0
 34 36  1  0  0  0
 34 31  1  0  0  0
 31 32  3  0  0  0
 32  1  1  0  0  0
  1  2  2  0  0  0
  2  3  1  0  0  0
  3  4  1  0  0  0
  4  5  2  0  0  0
  5  6  1  0  0  0
  6 16  1  0  0  0
 16 17  1  0  0  0
 16 18  2  0  0  0
  6  7  2  0  0  0
  7 21  1  0  0  0
 21 22  2  0  0  0
 21 23  1  0  0  0
 23 25  1  0  0  0
 25 26  1  0  0  0
 26 27  1  0  0  0
 27 28  1  0  0  0
 28 29  1  0  0  0
 29 30  1  0  0  0
  7  8  1  0  0  0
  8  9  1  0  0  0
  9 10  1  0  0  0
 10 11  1  0  0  0
 11 12  1  0  0  0
 12 13  1  0  0  0
 13 14  2  0  0  0
 14 15  1  0  0  0
 14  1  1  0  0  0
 12  3  2  0  0  0
  8  4  1  0  0  0
 30 26  1  0  0  0
 36 37  1  0  0  0
 17 19  1  0  0  0
 17 20  1  0  0  0
 23 24  1  0  0  0
M  END
> <minimizedAffinity>
-8.01636

> <CNNscore>
0.2265561223

> <CNNaffinity>
6.3904008865

> <CNN_VS>
1.4477844238

> <CNNaffinity_variance>
0.0716099069

$$$$
[H]OC(C#Cc1c([H])c2c(c([H])c1F)OC([H])([H])C([H])([H])n1c-2nc(C(=O)N([H])[H])c1C(=O)N([H])C([H])([H])C1([H])C([H])([H])OC([H])([H])C1([H])[H])(C([H])([H])[H])C([H])([H])[H]


 37 40  0  0  0  0  0  0  0  0999 V2000
   38.6098   12.4261  -15.6984 C   0  0  0  0  0  0  0  0  0  0  0  0
   39.4765   13.0982  -14.8868 C   0  0  0  0  0  0  0  0  0  0  0  0
   40.8289   13.0930  -15.2501 C   0  0  0  0  0  0  0  0  0  0  0  0
   41.6044   13.8675  -14.2498 C   0  0  0  0  0  0  0  0  0  0  0  0
   40.9987   14.5522  -13.2936 N   0  0  0  0  0  0  0  0  0  0  0  0
   41.9861   15.1330  -12.5419 C   0  0  0  0  0  0  0  0  0  0  0  0
   43.1896   14.7662  -13.0953 C   0  0  0  0  0  0  0  0  0  0  0  0
   42.9394   13.9541  -14.1887 N   0  0  0  0  0  0  0  0  0  0  0  0
   43.9707   13.3843  -15.0219 C   0  0  0  0  0  0  0  0  0  0  0  0
   43.6139   13.3531  -16.4959 C   0  0  0  0  0  0  0  0  0  0  0  0
   42.6009   12.4029  -16.7838 O   0  0  0  0  0  0  0  0  0  0  0  0
   41.2656   12.4408  -16.3734 C   0  0  0  0  0  0  0  0  0  0  0  0
   40.4051   11.7718  -17.1816 C   0  0  0  0  0  0  0  0  0  0  0  0
   39.0707   11.7698  -16.8340 C   0  0  0  0  0  0  0  0  0  0  0  0
   38.1606   11.1185  -17.6019 F   0  0  0  0  0  0  0  0  0  0  0  0
   41.7459   15.9524  -11.3571 C   0  0  0  0  0  0  0  0  0  0  0  0
   42.5637   16.0890  -10.2346 N   0  0  0  0  0  0  0  0  0  0  0  0
   40.6556   16.6260  -11.3311 O   0  0  0  0  0  0  0  0  0  0  0  0
   42.8959   17.0697   -9.9951 H   0  0  0  0  0  0  0  0  0  0  0  0
   42.8842   15.3239   -9.6029 H   0  0  0  0  0  0  0  0  0  0  0  0
   44.5516   15.1609  -12.7738 C   0  0  0  0  0  0  0  0  0  0  0  0
   45.0429   16.2551  -13.2255 O   0  0  0  0  0  0  0  0  0  0  0  0
   45.3874   14.3703  -11.9493 N   0  0  0  0  0  0  0  0  0  0  0  0
   45.0860   13.4852  -11.4914 H   0  0  0  0  0  0  0  0  0  0  0  0
   46.7565   14.7784  -11.6439 C   0  0  0  0  0  0  0  0  0  0  0  0
   47.7513   13.6793  -11.9250 C   0  0  0  0  0  0  0  0  0  0  0  0
   47.3996   12.4420  -11.1570 C   0  0  0  0  0  0  0  0  0  0  0  0
   47.7023   11.3548  -12.1892 C   0  0  0  0  0  0  0  0  0  0  0  0
   47.4312   11.9113  -13.4084 O   0  0  0  0  0  0  0  0  0  0  0  0
   47.6765   13.2570  -13.3580 C   0  0  0  0  0  0  0  0  0  0  0  0
   36.0328   12.4103  -15.0430 C   0  0  0  0  0  0  0  0  0  0  0  0
   37.1989   12.4118  -15.3499 C   0  0  0  0  0  0  0  0  0  0  0  0
   34.1534   13.8474  -14.6559 C   0  0  0  0  0  0  0  0  0  0  0  0
   34.6243   12.4139  -14.6466 C   0  0  0  0  0  0  0  0  0  0  0  0
   33.8072   11.5600  -15.5855 C   0  0  0  0  0  0  0  0  0  0  0  0
   34.4757   11.8881  -13.3427 O   0  0  0  0  0  0  0  0  0  0  0  0
   35.3750   11.5867  -12.9990 H   0  0  0  0  0  0  0  0  0  0  0  0
 33 34  1  0  0  0
 34 35  1  0  0  0
 34 36  1  0  0  0
 34 31  1  0  0  0
 31 32  3  0  0  0
 32  1  1  0  0  0
  1  2  2  0  0  0
  2  3  1  0  0  0
  3  4  1  0  0  0
  4  5  2  0  0  0
  5  6  1  0  0  0
  6 16  1  0  0  0
 16 17  1  0  0  0
 16 18  2  0  0  0
  6  7  2  0  0  0
  7 21  1  0  0  0
 21 22  2  0  0  0
 21 23  1  0  0  0
 23 25  1  0  0  0
 25 26  1  0  0  0
 26 27  1  0  0  0
 27 28  1  0  0  0
 28 29  1  0  0  0
 29 30  1  0  0  0
  7  8  1  0  0  0
  8  9  1  0  0  0
  9 10  1  0  0  0
 10 11  1  0  0  0
 11 12  1  0  0  0
 12 13  1  0  0  0
 13 14  2  0  0  0
 14 15  1  0  0  0
 14  1  1  0  0  0
 12  3  2  0  0  0
  8  4  1  0  0  0
 30 26  1  0  0  0
 36 37  1  0  0  0
 17 19  1  0  0  0
 17 20  1  0  0  0
 23 24  1  0  0  0
M  END
> <minimizedAffinity>
-8.09545

> <CNNscore>
0.1958121806

> <CNNaffinity>
6.3050065041

> <CNN_VS>
1.2345970869

> <CNNaffinity_variance>
0.0924324021

$$$$
[H]OC(C#Cc1c([H])c2c(c([H])c1F)OC([H])([H])C([H])([H])n1c-2nc(C(=O)N([H])[H])c1C(=O)N([H])C([H])([H])C1([H])C([H])([H])OC([H])([H])C1([H])[H])(C([H])([H])[H])C([H])([H])[H]


 37 40  0  0  0  0  0  0  0  0999 V2000
   38.8869   12.5625  -15.5910 C   0  0  0  0  0  0  0  0  0  0  0  0
   39.7640   13.1913  -14.7561 C   0  0  0  0  0  0  0  0  0  0  0  0
   41.1160   13.1793  -15.1208 C   0  0  0  0  0  0  0  0  0  0  0  0
   41.9034   13.9048  -14.0934 C   0  0  0  0  0  0  0  0  0  0  0  0
   41.3084   14.5628  -13.1120 N   0  0  0  0  0  0  0  0  0  0  0  0
   42.3047   15.1008  -12.3405 C   0  0  0  0  0  0  0  0  0  0  0  0
   43.5024   14.7368  -12.9083 C   0  0  0  0  0  0  0  0  0  0  0  0
   43.2396   13.9693  -14.0306 N   0  0  0  0  0  0  0  0  0  0  0  0
   44.2618   13.4153  -14.8853 C   0  0  0  0  0  0  0  0  0  0  0  0
   43.9039   13.4437  -16.3591 C   0  0  0  0  0  0  0  0  0  0  0  0
   42.8767   12.5199  -16.6807 O   0  0  0  0  0  0  0  0  0  0  0  0
   41.5423   12.5625  -16.2678 C   0  0  0  0  0  0  0  0  0  0  0  0
   40.6715   11.9366  -17.0992 C   0  0  0  0  0  0  0  0  0  0  0  0
   39.3374   11.9417  -16.7505 C   0  0  0  0  0  0  0  0  0  0  0  0
   38.4174   11.3327  -17.5410 F   0  0  0  0  0  0  0  0  0  0  0  0
   42.0773   15.8795  -11.1262 C   0  0  0  0  0  0  0  0  0  0  0  0
   42.9509   16.0603  -10.0529 N   0  0  0  0  0  0  0  0  0  0  0  0
   40.9428   16.4663  -11.0193 O   0  0  0  0  0  0  0  0  0  0  0  0
   43.2219   17.0596   -9.8133 H   0  0  0  0  0  0  0  0  0  0  0  0
   43.3675   15.3119   -9.4584 H   0  0  0  0  0  0  0  0  0  0  0  0
   44.8702   15.0991  -12.5739 C   0  0  0  0  0  0  0  0  0  0  0  0
   45.4814   14.5313  -11.6008 O   0  0  0  0  0  0  0  0  0  0  0  0
   45.5873   16.0775  -13.3030 N   0  0  0  0  0  0  0  0  0  0  0  0
   45.2119   16.5745  -14.1373 H   0  0  0  0  0  0  0  0  0  0  0  0
   46.9584   16.4351  -12.9472 C   0  0  0  0  0  0  0  0  0  0  0  0
   47.0235   17.7271  -12.1706 C   0  0  0  0  0  0  0  0  0  0  0  0
   48.3372   18.4110  -12.3962 C   0  0  0  0  0  0  0  0  0  0  0  0
   47.8990   19.8732  -12.4920 C   0  0  0  0  0  0  0  0  0  0  0  0
   46.6498   19.8532  -13.0475 O   0  0  0  0  0  0  0  0  0  0  0  0
   46.0091   18.6997  -12.6831 C   0  0  0  0  0  0  0  0  0  0  0  0
   36.3108   12.5521  -14.9317 C   0  0  0  0  0  0  0  0  0  0  0  0
   37.4762   12.5563  -15.2418 C   0  0  0  0  0  0  0  0  0  0  0  0
   34.4194   13.9697  -14.5319 C   0  0  0  0  0  0  0  0  0  0  0  0
   34.9034   12.5405  -14.5317 C   0  0  0  0  0  0  0  0  0  0  0  0
   34.0918   11.6844  -15.4732 C   0  0  0  0  0  0  0  0  0  0  0  0
   34.7631   12.0062  -13.2304 O   0  0  0  0  0  0  0  0  0  0  0  0
   35.6661   11.7112  -12.8907 H   0  0  0  0  0  0  0  0  0  0  0  0
 33 34  1  0  0  0
 34 35  1  0  0  0
 34 36  1  0  0  0
 34 31  1  0  0  0
 31 32  3  0  0  0
 32  1  1  0  0  0
  1  2  2  0  0  0
  2  3  1  0  0  0
  3  4  1  0  0  0
  4  5  2  0  0  0
  5  6  1  0  0  0
  6 16  1  0  0  0
 16 17  1  0  0  0
 16 18  2  0  0  0
  6  7  2  0  0  0
  7 21  1  0  0  0
 21 22  2  0  0  0
 21 23  1  0  0  0
 23 25  1  0  0  0
 25 26  1  0  0  0
 26 27  1  0  0  0
 27 28  1  0  0  0
 28 29  1  0  0  0
 29 30  1  0  0  0
  7  8  1  0  0  0
  8  9  1  0  0  0
  9 10  1  0  0  0
 10 11  1  0  0  0
 11 12  1  0  0  0
 12 13  1  0  0  0
 13 14  2  0  0  0
 14 15  1  0  0  0
 14  1  1  0  0  0
 12  3  2  0  0  0
  8  4  1  0  0  0
 30 26  1  0  0  0
 36 37  1  0  0  0
 17 19  1  0  0  0
 17 20  1  0  0  0
 23 24  1  0  0  0
M  END
> <minimizedAffinity>
-8.41689

> <CNNscore>
0.1779397875

> <CNNaffinity>
6.1388020515

> <CNN_VS>
1.0923371315

> <CNNaffinity_variance>
0.0716330186

$$$$
[H]OC(C#Cc1c([H])c2c(c([H])c1F)OC([H])([H])C([H])([H])n1c-2nc(C(=O)N([H])[H])c1C(=O)N([H])C([H])([H])C1([H])C([H])([H])OC([H])([H])C1([H])[H])(C([H])([H])[H])C([H])([H])[H]


 37 40  0  0  0  0  0  0  0  0999 V2000
   39.6483   12.5760  -15.7908 C   0  0  0  0  0  0  0  0  0  0  0  0
   38.9433   13.2504  -14.8370 C   0  0  0  0  0  0  0  0  0  0  0  0
   37.5574   13.0521  -14.8050 C   0  0  0  0  0  0  0  0  0  0  0  0
   36.9744   13.8672  -13.7107 C   0  0  0  0  0  0  0  0  0  0  0  0
   37.7456   14.5167  -12.8542 N   0  0  0  0  0  0  0  0  0  0  0  0
   36.9072   15.1732  -11.9920 C   0  0  0  0  0  0  0  0  0  0  0  0
   35.6193   14.8810  -12.3731 C   0  0  0  0  0  0  0  0  0  0  0  0
   35.6680   14.0448  -13.4758 N   0  0  0  0  0  0  0  0  0  0  0  0
   34.4999   13.5256  -14.1454 C   0  0  0  0  0  0  0  0  0  0  0  0
   34.6558   12.0924  -14.6172 C   0  0  0  0  0  0  0  0  0  0  0  0
   35.5561   11.9802  -15.7074 O   0  0  0  0  0  0  0  0  0  0  0  0
   36.9336   12.2159  -15.6935 C   0  0  0  0  0  0  0  0  0  0  0  0
   37.6331   11.5444  -16.6427 C   0  0  0  0  0  0  0  0  0  0  0  0
   38.9986   11.7319  -16.6841 C   0  0  0  0  0  0  0  0  0  0  0  0
   39.7536   11.0883  -17.6103 F   0  0  0  0  0  0  0  0  0  0  0  0
   37.3561   16.0414  -10.9069 C   0  0  0  0  0  0  0  0  0  0  0  0
   38.1463   15.6960   -9.8097 N   0  0  0  0  0  0  0  0  0  0  0  0
   36.9818   17.2664  -10.9538 O   0  0  0  0  0  0  0  0  0  0  0  0
   39.0577   16.2279   -9.6838 H   0  0  0  0  0  0  0  0  0  0  0  0
   37.9335   14.9658   -9.0965 H   0  0  0  0  0  0  0  0  0  0  0  0
   34.3412   15.2216  -11.7693 C   0  0  0  0  0  0  0  0  0  0  0  0
   33.2693   15.2505  -12.4715 O   0  0  0  0  0  0  0  0  0  0  0  0
   34.2187   15.5252  -10.3923 N   0  0  0  0  0  0  0  0  0  0  0  0
   35.0091   15.4930   -9.7155 H   0  0  0  0  0  0  0  0  0  0  0  0
   32.9275   15.8739   -9.8044 C   0  0  0  0  0  0  0  0  0  0  0  0
   32.9838   15.9150   -8.2972 C   0  0  0  0  0  0  0  0  0  0  0  0
   32.0470   14.9053   -7.7078 C   0  0  0  0  0  0  0  0  0  0  0  0
   32.8785   14.3741   -6.5393 C   0  0  0  0  0  0  0  0  0  0  0  0
   34.1819   14.4415   -6.9472 O   0  0  0  0  0  0  0  0  0  0  0  0
   34.3338   15.4931   -7.8103 C   0  0  0  0  0  0  0  0  0  0  0  0
   42.2851   12.8963  -15.9159 C   0  0  0  0  0  0  0  0  0  0  0  0
   41.0887   12.7595  -15.8515 C   0  0  0  0  0  0  0  0  0  0  0  0
   44.2609   13.2511  -14.6054 C   0  0  0  0  0  0  0  0  0  0  0  0
   43.7386   13.0393  -16.0051 C   0  0  0  0  0  0  0  0  0  0  0  0
   44.3533   11.8173  -16.6430 C   0  0  0  0  0  0  0  0  0  0  0  0
   44.0780   14.1592  -16.7984 O   0  0  0  0  0  0  0  0  0  0  0  0
   43.2358   14.5797  -17.1612 H   0  0  0  0  0  0  0  0  0  0  0  0
 33 34  1  0  0  0
 34 35  1  0  0  0
 34 36  1  0  0  0
 34 31  1  0  0  0
 31 32  3  0  0  0
 32  1  1  0  0  0
  1  2  2  0  0  0
  2  3  1  0  0  0
  3  4  1  0  0  0
  4  5  2  0  0  0
  5  6  1  0  0  0
  6 16  1  0  0  0
 16 17  1  0  0  0
 16 18  2  0  0  0
  6  7  2  0  0  0
  7 21  1  0  0  0
 21 22  2  0  0  0
 21 23  1  0  0  0
 23 25  1  0  0  0
 25 26  1  0  0  0
 26 27  1  0  0  0
 27 28  1  0  0  0
 28 29  1  0  0  0
 29 30  1  0  0  0
  7  8  1  0  0  0
  8  9  1  0  0  0
  9 10  1  0  0  0
 10 11  1  0  0  0
 11 12  1  0  0  0
 12 13  1  0  0  0
 13 14  2  0  0  0
 14 15  1  0  0  0
 14  1  1  0  0  0
 12  3  2  0  0  0
  8  4  1  0  0  0
 30 26  1  0  0  0
 36 37  1  0  0  0
 17 19  1  0  0  0
 17 20  1  0  0  0
 23 24  1  0  0  0
M  END
> <minimizedAffinity>
-10.13261

> <CNNscore>
0.1769084185

> <CNNaffinity>
6.3877916336

> <CNN_VS>
1.1300541162

> <CNNaffinity_variance>
0.1634936184

$$$$
[H]OC(C#Cc1c([H])c2c(c([H])c1F)OC([H])([H])C([H])([H])n1c-2nc(C(=O)N([H])[H])c1C(=O)N([H])C([H])([H])C1([H])C([H])([H])OC([H])([H])C1([H])[H])(C([H])([H])[H])C([H])([H])[H]


 37 40  0  0  0  0  0  0  0  0999 V2000
   34.0760   14.5414   -6.7292 C   0  0  0  0  0  0  0  0  0  0  0  0
   35.2184   14.7305   -7.4508 C   0  0  0  0  0  0  0  0  0  0  0  0
   36.4351   14.5132   -6.7924 C   0  0  0  0  0  0  0  0  0  0  0  0
   37.5514   14.7714   -7.7353 C   0  0  0  0  0  0  0  0  0  0  0  0
   37.3253   15.0056   -9.0175 N   0  0  0  0  0  0  0  0  0  0  0  0
   38.5481   15.2153   -9.5990 C   0  0  0  0  0  0  0  0  0  0  0  0
   39.4964   15.0915   -8.6117 C   0  0  0  0  0  0  0  0  0  0  0  0
   38.8522   14.8084   -7.4190 N   0  0  0  0  0  0  0  0  0  0  0  0
   39.5341   14.6049   -6.1636 C   0  0  0  0  0  0  0  0  0  0  0  0
   38.9194   13.5142   -5.3071 C   0  0  0  0  0  0  0  0  0  0  0  0
   37.6621   13.8951   -4.7723 O   0  0  0  0  0  0  0  0  0  0  0  0
   36.4786   14.1265   -5.4784 C   0  0  0  0  0  0  0  0  0  0  0  0
   35.3435   13.9381   -4.7593 C   0  0  0  0  0  0  0  0  0  0  0  0
   34.1392   14.1492   -5.3970 C   0  0  0  0  0  0  0  0  0  0  0  0
   32.9688   13.9772   -4.7315 F   0  0  0  0  0  0  0  0  0  0  0  0
   38.7451   15.5436  -11.0083 C   0  0  0  0  0  0  0  0  0  0  0  0
   38.5248   14.7216  -12.1144 N   0  0  0  0  0  0  0  0  0  0  0  0
   39.1764   16.7213  -11.2730 O   0  0  0  0  0  0  0  0  0  0  0  0
   37.8352   15.0686  -12.8448 H   0  0  0  0  0  0  0  0  0  0  0  0
   38.9695   13.7969  -12.2992 H   0  0  0  0  0  0  0  0  0  0  0  0
   40.9489   15.1185   -8.6700 C   0  0  0  0  0  0  0  0  0  0  0  0
   41.5876   16.2293   -8.6381 O   0  0  0  0  0  0  0  0  0  0  0  0
   41.7189   13.9339   -8.7548 N   0  0  0  0  0  0  0  0  0  0  0  0
   41.3154   12.9742   -8.7452 H   0  0  0  0  0  0  0  0  0  0  0  0
   43.1776   13.9805   -8.8213 C   0  0  0  0  0  0  0  0  0  0  0  0
   43.8189   13.4868   -7.5479 C   0  0  0  0  0  0  0  0  0  0  0  0
   43.9881   14.6118   -6.5733 C   0  0  0  0  0  0  0  0  0  0  0  0
   43.6279   13.9219   -5.2568 C   0  0  0  0  0  0  0  0  0  0  0  0
   42.6908   12.9780   -5.5737 O   0  0  0  0  0  0  0  0  0  0  0  0
   42.9165   12.5230   -6.8448 C   0  0  0  0  0  0  0  0  0  0  0  0
   31.7244   14.9351   -7.9066 C   0  0  0  0  0  0  0  0  0  0  0  0
   32.7961   14.7586   -7.3826 C   0  0  0  0  0  0  0  0  0  0  0  0
   29.8848   13.7818   -8.9228 C   0  0  0  0  0  0  0  0  0  0  0  0
   30.4128   15.1375   -8.5227 C   0  0  0  0  0  0  0  0  0  0  0  0
   29.4774   15.8310   -7.5624 C   0  0  0  0  0  0  0  0  0  0  0  0
   30.5274   15.9467   -9.6763 O   0  0  0  0  0  0  0  0  0  0  0  0
   31.4867   16.2388   -9.7860 H   0  0  0  0  0  0  0  0  0  0  0  0
 33 34  1  0  0  0
 34 35  1  0  0  0
 34 36  1  0  0  0
 34 31  1  0  0  0
 31 32  3  0  0  0
 32  1  1  0  0  0
  1  2  2  0  0  0
  2  3  1  0  0  0
  3  4  1  0  0  0
  4  5  2  0  0  0
  5  6  1  0  0  0
  6 16  1  0  0  0
 16 17  1  0  0  0
 16 18  2  0  0  0
  6  7  2  0  0  0
  7 21  1  0  0  0
 21 22  2  0  0  0
 21 23  1  0  0  0
 23 25  1  0  0  0
 25 26  1  0  0  0
 26 27  1  0  0  0
 27 28  1  0  0  0
 28 29  1  0  0  0
 29 30  1  0  0  0
  7  8  1  0  0  0
  8  9  1  0  0  0
  9 10  1  0  0  0
 10 11  1  0  0  0
 11 12  1  0  0  0
 12 13  1  0  0  0
 13 14  2  0  0  0
 14 15  1  0  0  0
 14  1  1  0  0  0
 12  3  2  0  0  0
  8  4  1  0  0  0
 30 26  1  0  0  0
 36 37  1  0  0  0
 17 19  1  0  0  0
 17 20  1  0  0  0
 23 24  1  0  0  0
M  END
> <minimizedAffinity>
-6.72333

> <CNNscore>
0.1726400554

> <CNNaffinity>
5.3491144180

> <CNN_VS>
0.9234713912

> <CNNaffinity_variance>
0.2927794158

$$$$
[H]OC(C#Cc1c([H])c2c(c([H])c1F)OC([H])([H])C([H])([H])n1c-2nc(C(=O)N([H])[H])c1C(=O)N([H])C([H])([H])C1([H])C([H])([H])OC([H])([H])C1([H])[H])(C([H])([H])[H])C([H])([H])[H]


 37 40  0  0  0  0  0  0  0  0999 V2000
   38.2319   12.3041  -15.7079 C   0  0  0  0  0  0  0  0  0  0  0  0
   38.9832   13.0733  -14.8681 C   0  0  0  0  0  0  0  0  0  0  0  0
   40.3595   13.1386  -15.1186 C   0  0  0  0  0  0  0  0  0  0  0  0
   40.9977   14.0136  -14.1043 C   0  0  0  0  0  0  0  0  0  0  0  0
   40.2716   14.7057  -13.2418 N   0  0  0  0  0  0  0  0  0  0  0  0
   41.1537   15.3889  -12.4465 C   0  0  0  0  0  0  0  0  0  0  0  0
   42.4204   15.0741  -12.8776 C   0  0  0  0  0  0  0  0  0  0  0  0
   42.3148   14.1914  -13.9393 N   0  0  0  0  0  0  0  0  0  0  0  0
   43.4464   13.6483  -14.6513 C   0  0  0  0  0  0  0  0  0  0  0  0
   43.2193   13.5169  -16.1453 C   0  0  0  0  0  0  0  0  0  0  0  0
   42.2949   12.4881  -16.4600 O   0  0  0  0  0  0  0  0  0  0  0  0
   40.9296   12.4590  -16.1631 C   0  0  0  0  0  0  0  0  0  0  0  0
   40.1840   11.6935  -16.9992 C   0  0  0  0  0  0  0  0  0  0  0  0
   38.8274   11.6215  -16.7624 C   0  0  0  0  0  0  0  0  0  0  0  0
   38.0280   10.8723  -17.5636 F   0  0  0  0  0  0  0  0  0  0  0  0
   40.7634   16.2512  -11.3343 C   0  0  0  0  0  0  0  0  0  0  0  0
   39.5589   16.9364  -11.1685 N   0  0  0  0  0  0  0  0  0  0  0  0
   41.6224   16.4097  -10.3962 O   0  0  0  0  0  0  0  0  0  0  0  0
   38.9968   16.7207  -10.2927 H   0  0  0  0  0  0  0  0  0  0  0  0
   39.1514   17.6421  -11.8188 H   0  0  0  0  0  0  0  0  0  0  0  0
   43.7230   15.5741  -12.4689 C   0  0  0  0  0  0  0  0  0  0  0  0
   44.3474   16.4394  -13.1791 O   0  0  0  0  0  0  0  0  0  0  0  0
   44.3530   15.1418  -11.2775 N   0  0  0  0  0  0  0  0  0  0  0  0
   43.9259   14.4761  -10.6004 H   0  0  0  0  0  0  0  0  0  0  0  0
   45.6664   15.6486  -10.8870 C   0  0  0  0  0  0  0  0  0  0  0  0
   45.6961   16.0942   -9.4457 C   0  0  0  0  0  0  0  0  0  0  0  0
   44.8963   17.3481   -9.2660 C   0  0  0  0  0  0  0  0  0  0  0  0
   44.2090   17.0736   -7.9276 C   0  0  0  0  0  0  0  0  0  0  0  0
   44.0121   15.7213   -7.8791 O   0  0  0  0  0  0  0  0  0  0  0  0
   45.0110   15.0919   -8.5719 C   0  0  0  0  0  0  0  0  0  0  0  0
   35.6154   12.1258  -15.2685 C   0  0  0  0  0  0  0  0  0  0  0  0
   36.8000   12.2147  -15.4757 C   0  0  0  0  0  0  0  0  0  0  0  0
   33.6276   13.3855  -14.8112 C   0  0  0  0  0  0  0  0  0  0  0  0
   34.1819   11.9956  -15.0056 C   0  0  0  0  0  0  0  0  0  0  0  0
   33.4962   11.2842  -16.1465 C   0  0  0  0  0  0  0  0  0  0  0  0
   33.9608   11.2423  -13.8299 O   0  0  0  0  0  0  0  0  0  0  0  0
   34.8460   10.9263  -13.4636 H   0  0  0  0  0  0  0  0  0  0  0  0
 33 34  1  0  0  0
 34 35  1  0  0  0
 34 36  1  0  0  0
 34 31  1  0  0  0
 31 32  3  0  0  0
 32  1  1  0  0  0
  1  2  2  0  0  0
  2  3  1  0  0  0
  3  4  1  0  0  0
  4  5  2  0  0  0
  5  6  1  0  0  0
  6 16  1  0  0  0
 16 17  1  0  0  0
 16 18  2  0  0  0
  6  7  2  0  0  0
  7 21  1  0  0  0
 21 22  2  0  0  0
 21 23  1  0  0  0
 23 25  1  0  0  0
 25 26  1  0  0  0
 26 27  1  0  0  0
 27 28  1  0  0  0
 28 29  1  0  0  0
 29 30  1  0  0  0
  7  8  1  0  0  0
  8  9  1  0  0  0
  9 10  1  0  0  0
 10 11  1  0  0  0
 11 12  1  0  0  0
 12 13  1  0  0  0
 13 14  2  0  0  0
 14 15  1  0  0  0
 14  1  1  0  0  0
 12  3  2  0  0  0
  8  4  1  0  0  0
 30 26  1  0  0  0
 36 37  1  0  0  0
 17 19  1  0  0  0
 17 20  1  0  0  0
 23 24  1  0  0  0
M  END
> <minimizedAffinity>
-7.93464

> <CNNscore>
0.1572766006

> <CNNaffinity>
6.1907320023

> <CNN_VS>
0.9736573100

> <CNNaffinity_variance>
0.0564453229

$$$$
[H]OC1(C#Cc2c([H])c([H])c3c(c2[H])-c2nc(C(=O)N([H])[H])c(C(=O)N([H])C([H])([H])[H])n2C([H])([H])C([H])([H])O3)C([H])([H])C([H])([H])C([H])([H])C([H])([H])C1([H])[H]


 34 37  0  0  0  0  0  0  0  0999 V2000
   37.6484   11.7959  -16.4775 C   0  0  0  0  0  0  0  0  0  0  0  0
   38.8759   11.7239  -17.1111 C   0  0  0  0  0  0  0  0  0  0  0  0
   39.7331   12.4910  -16.3541 N   0  0  0  0  0  0  0  0  0  0  0  0
   39.0611   12.9910  -15.3376 C   0  0  0  0  0  0  0  0  0  0  0  0
   39.6953   13.8608  -14.3468 C   0  0  0  0  0  0  0  0  0  0  0  0
   41.0681   13.7577  -14.3486 C   0  0  0  0  0  0  0  0  0  0  0  0
   41.8242   14.5133  -13.4725 C   0  0  0  0  0  0  0  0  0  0  0  0
   41.1373   15.3597  -12.6136 C   0  0  0  0  0  0  0  0  0  0  0  0
   39.7650   15.4624  -12.6122 C   0  0  0  0  0  0  0  0  0  0  0  0
   39.0197   14.7094  -13.4847 C   0  0  0  0  0  0  0  0  0  0  0  0
   37.6347   14.9346  -13.3526 O   0  0  0  0  0  0  0  0  0  0  0  0
   36.6584   14.4458  -14.2550 C   0  0  0  0  0  0  0  0  0  0  0  0
   36.7563   12.9380  -14.4070 C   0  0  0  0  0  0  0  0  0  0  0  0
   37.7586   12.5822  -15.3780 N   0  0  0  0  0  0  0  0  0  0  0  0
   33.9769   10.7155  -17.0491 C   0  0  0  0  0  0  0  0  0  0  0  0
   35.1143   11.5244  -16.6665 N   0  0  0  0  0  0  0  0  0  0  0  0
   36.4340   11.0729  -16.8328 C   0  0  0  0  0  0  0  0  0  0  0  0
   36.5953    9.9109  -17.3557 O   0  0  0  0  0  0  0  0  0  0  0  0
   34.9126   12.4652  -16.2887 H   0  0  0  0  0  0  0  0  0  0  0  0
   39.2800   11.1000  -18.3573 C   0  0  0  0  0  0  0  0  0  0  0  0
   38.3718   10.7528  -19.3721 N   0  0  0  0  0  0  0  0  0  0  0  0
   40.5222   10.8601  -18.5433 O   0  0  0  0  0  0  0  0  0  0  0  0
   38.4037    9.8271  -19.8446 H   0  0  0  0  0  0  0  0  0  0  0  0
   37.6412   11.4304  -19.6704 H   0  0  0  0  0  0  0  0  0  0  0  0
   43.2621   14.4177  -13.4608 C   0  0  0  0  0  0  0  0  0  0  0  0
   44.4697   14.3585  -13.4522 C   0  0  0  0  0  0  0  0  0  0  0  0
   45.9336   14.3042  -13.4302 C   0  0  0  0  0  0  0  0  0  0  0  0
   46.3430   14.5868  -12.1304 O   0  0  0  0  0  0  0  0  0  0  0  0
   46.5066   15.3097  -14.4005 C   0  0  0  0  0  0  0  0  0  0  0  0
   47.9371   15.0448  -14.7455 C   0  0  0  0  0  0  0  0  0  0  0  0
   48.2097   13.6210  -15.1304 C   0  0  0  0  0  0  0  0  0  0  0  0
   47.8217   12.7399  -13.9515 C   0  0  0  0  0  0  0  0  0  0  0  0
   46.3292   12.8892  -13.7705 C   0  0  0  0  0  0  0  0  0  0  0  0
   45.9917   15.4486  -11.8057 H   0  0  0  0  0  0  0  0  0  0  0  0
 15 16  1  0  0  0
 16 17  1  0  0  0
 17 18  2  0  0  0
 17  1  1  0  0  0
  1  2  2  0  0  0
  2  3  1  0  0  0
  3  4  2  0  0  0
  4  5  1  0  0  0
  5  6  2  0  0  0
  6  7  1  0  0  0
  7  8  2  0  0  0
  8  9  1  0  0  0
  9 10  2  0  0  0
 10 11  1  0  0  0
 11 12  1  0  0  0
 12 13  1  0  0  0
 13 14  1  0  0  0
  7 25  1  0  0  0
 25 26  3  0  0  0
 26 27  1  0  0  0
 27 28  1  0  0  0
 27 29  1  0  0  0
 29 30  1  0  0  0
 30 31  1  0  0  0
 31 32  1  0  0  0
 32 33  1  0  0  0
  2 20  1  0  0  0
 20 21  1  0  0  0
 20 22  2  0  0  0
 14  1  1  0  0  0
 33 27  1  0  0  0
 14  4  1  0  0  0
 10  5  1  0  0  0
 16 19  1  0  0  0
 28 34  1  0  0  0
 21 23  1  0  0  0
 21 24  1  0  0  0
M  END
> <minimizedAffinity>
-8.19092

> <CNNscore>
0.7320543528

> <CNNaffinity>
7.1470322609

> <CNN_VS>
5.2320160866

> <CNNaffinity_variance>
0.4272871017

$$$$
[H]OC1(C#Cc2c([H])c([H])c3c(c2[H])-c2nc(C(=O)N([H])[H])c(C(=O)N([H])C([H])([H])[H])n2C([H])([H])C([H])([H])O3)C([H])([H])C([H])([H])C([H])([H])C([H])([H])C1([H])[H]


 34 37  0  0  0  0  0  0  0  0999 V2000
   34.3929   14.1400  -12.7827 C   0  0  0  0  0  0  0  0  0  0  0  0
   35.6041   14.3381  -12.1446 C   0  0  0  0  0  0  0  0  0  0  0  0
   36.5539   13.7599  -12.9570 N   0  0  0  0  0  0  0  0  0  0  0  0
   35.9495   13.2473  -14.0089 C   0  0  0  0  0  0  0  0  0  0  0  0
   36.6907   12.5536  -15.0624 C   0  0  0  0  0  0  0  0  0  0  0  0
   38.0349   12.8506  -15.0518 C   0  0  0  0  0  0  0  0  0  0  0  0
   38.8817   12.2783  -15.9821 C   0  0  0  0  0  0  0  0  0  0  0  0
   38.3134   11.4099  -16.9033 C   0  0  0  0  0  0  0  0  0  0  0  0
   36.9696   11.1133  -16.9136 C   0  0  0  0  0  0  0  0  0  0  0  0
   36.1338   11.6848  -15.9870 C   0  0  0  0  0  0  0  0  0  0  0  0
   34.7934   11.2754  -16.1369 O   0  0  0  0  0  0  0  0  0  0  0  0
   33.7668   11.5510  -15.2007 C   0  0  0  0  0  0  0  0  0  0  0  0
   33.6513   13.0417  -14.9347 C   0  0  0  0  0  0  0  0  0  0  0  0
   34.6026   13.4623  -13.9386 N   0  0  0  0  0  0  0  0  0  0  0  0
   30.6365   14.5640  -11.9560 C   0  0  0  0  0  0  0  0  0  0  0  0
   31.8770   13.9489  -12.3769 N   0  0  0  0  0  0  0  0  0  0  0  0
   33.0919   14.6540  -12.3745 C   0  0  0  0  0  0  0  0  0  0  0  0
   33.0629   15.8717  -11.9669 O   0  0  0  0  0  0  0  0  0  0  0  0
   31.8345   12.9542  -12.6550 H   0  0  0  0  0  0  0  0  0  0  0  0
   35.9281   14.9176  -10.8543 C   0  0  0  0  0  0  0  0  0  0  0  0
   35.9273   16.3021  -10.6123 N   0  0  0  0  0  0  0  0  0  0  0  0
   36.2226   14.1309   -9.8902 O   0  0  0  0  0  0  0  0  0  0  0  0
   36.7037   16.7713  -10.1041 H   0  0  0  0  0  0  0  0  0  0  0  0
   35.1345   16.8877  -10.9447 H   0  0  0  0  0  0  0  0  0  0  0  0
   40.2914   12.5781  -15.9855 C   0  0  0  0  0  0  0  0  0  0  0  0
   41.4706   12.8449  -15.9741 C   0  0  0  0  0  0  0  0  0  0  0  0
   42.8983   13.1717  -15.9397 C   0  0  0  0  0  0  0  0  0  0  0  0
   43.0841   14.3157  -16.7102 O   0  0  0  0  0  0  0  0  0  0  0  0
   43.7091   12.0216  -16.4881 C   0  0  0  0  0  0  0  0  0  0  0  0
   45.1555   12.0919  -16.1162 C   0  0  0  0  0  0  0  0  0  0  0  0
   45.3901   12.3455  -14.6566 C   0  0  0  0  0  0  0  0  0  0  0  0
   44.7318   13.6720  -14.3052 C   0  0  0  0  0  0  0  0  0  0  0  0
   43.2460   13.4862  -14.5063 C   0  0  0  0  0  0  0  0  0  0  0  0
   42.7428   14.2086  -17.6287 H   0  0  0  0  0  0  0  0  0  0  0  0
 15 16  1  0  0  0
 16 17  1  0  0  0
 17 18  2  0  0  0
 17  1  1  0  0  0
  1  2  2  0  0  0
  2  3  1  0  0  0
  3  4  2  0  0  0
  4  5  1  0  0  0
  5  6  2  0  0  0
  6  7  1  0  0  0
  7  8  2  0  0  0
  8  9  1  0  0  0
  9 10  2  0  0  0
 10 11  1  0  0  0
 11 12  1  0  0  0
 12 13  1  0  0  0
 13 14  1  0  0  0
  7 25  1  0  0  0
 25 26  3  0  0  0
 26 27  1  0  0  0
 27 28  1  0  0  0
 27 29  1  0  0  0
 29 30  1  0  0  0
 30 31  1  0  0  0
 31 32  1  0  0  0
 32 33  1  0  0  0
  2 20  1  0  0  0
 20 21  1  0  0  0
 20 22  2  0  0  0
 14  1  1  0  0  0
 33 27  1  0  0  0
 14  4  1  0  0  0
 10  5  1  0  0  0
 16 19  1  0  0  0
 28 34  1  0  0  0
 21 23  1  0  0  0
 21 24  1  0  0  0
M  END
> <minimizedAffinity>
-10.13497

> <CNNscore>
0.4696634710

> <CNNaffinity>
6.8595619202

> <CNN_VS>
3.2216856480

> <CNNaffinity_variance>
0.0668558627

$$$$
[H]OC1(C#Cc2c([H])c([H])c3c(c2[H])-c2nc(C(=O)N([H])[H])c(C(=O)N([H])C([H])([H])[H])n2C([H])([H])C([H])([H])O3)C([H])([H])C([H])([H])C([H])([H])C([H])([H])C1([H])[H]


 34 37  0  0  0  0  0  0  0  0999 V2000
   43.5516   15.9950  -11.1916 C   0  0  0  0  0  0  0  0  0  0  0  0
   42.2006   15.7182  -11.2976 C   0  0  0  0  0  0  0  0  0  0  0  0
   41.8146   15.2583  -10.0583 N   0  0  0  0  0  0  0  0  0  0  0  0
   42.8664   15.2573   -9.2655 C   0  0  0  0  0  0  0  0  0  0  0  0
   42.7831   14.8134   -7.8740 C   0  0  0  0  0  0  0  0  0  0  0  0
   41.4930   14.8073   -7.3933 C   0  0  0  0  0  0  0  0  0  0  0  0
   41.2361   14.4130   -6.0938 C   0  0  0  0  0  0  0  0  0  0  0  0
   42.3251   14.0336   -5.3220 C   0  0  0  0  0  0  0  0  0  0  0  0
   43.6146   14.0398   -5.8029 C   0  0  0  0  0  0  0  0  0  0  0  0
   43.8633   14.4324   -7.0944 C   0  0  0  0  0  0  0  0  0  0  0  0
   45.2323   14.3801   -7.4254 O   0  0  0  0  0  0  0  0  0  0  0  0
   45.7411   14.5361   -8.7381 C   0  0  0  0  0  0  0  0  0  0  0  0
   45.2804   15.8455   -9.3541 C   0  0  0  0  0  0  0  0  0  0  0  0
   43.9689   15.7090   -9.9333 N   0  0  0  0  0  0  0  0  0  0  0  0
   45.7239   16.6861  -14.3185 C   0  0  0  0  0  0  0  0  0  0  0  0
   44.8700   15.9889  -13.3809 N   0  0  0  0  0  0  0  0  0  0  0  0
   44.4051   16.6013  -12.2053 C   0  0  0  0  0  0  0  0  0  0  0  0
   44.7571   17.8192  -11.9993 O   0  0  0  0  0  0  0  0  0  0  0  0
   44.5934   15.0242  -13.6289 H   0  0  0  0  0  0  0  0  0  0  0  0
   41.2962   15.7598  -12.4316 C   0  0  0  0  0  0  0  0  0  0  0  0
   41.0118   14.6376  -13.2286 N   0  0  0  0  0  0  0  0  0  0  0  0
   40.7263   16.8688  -12.7155 O   0  0  0  0  0  0  0  0  0  0  0  0
   41.0126   14.6872  -14.2672 H   0  0  0  0  0  0  0  0  0  0  0  0
   40.7924   13.7244  -12.7816 H   0  0  0  0  0  0  0  0  0  0  0  0
   39.8918   14.4007   -5.5744 C   0  0  0  0  0  0  0  0  0  0  0  0
   38.7682   14.3722   -5.1288 C   0  0  0  0  0  0  0  0  0  0  0  0
   37.4141   14.3297   -4.5711 C   0  0  0  0  0  0  0  0  0  0  0  0
   37.4810   13.6426   -3.3626 O   0  0  0  0  0  0  0  0  0  0  0  0
   36.4778   13.6330   -5.5296 C   0  0  0  0  0  0  0  0  0  0  0  0
   35.0354   13.9040   -5.2440 C   0  0  0  0  0  0  0  0  0  0  0  0
   34.7223   15.3585   -5.0543 C   0  0  0  0  0  0  0  0  0  0  0  0
   35.5538   15.8625   -3.8834 C   0  0  0  0  0  0  0  0  0  0  0  0
   37.0017   15.7549   -4.3007 C   0  0  0  0  0  0  0  0  0  0  0  0
   37.8770   12.7455   -3.4628 H   0  0  0  0  0  0  0  0  0  0  0  0
 15 16  1  0  0  0
 16 17  1  0  0  0
 17 18  2  0  0  0
 17  1  1  0  0  0
  1  2  2  0  0  0
  2  3  1  0  0  0
  3  4  2  0  0  0
  4  5  1  0  0  0
  5  6  2  0  0  0
  6  7  1  0  0  0
  7  8  2  0  0  0
  8  9  1  0  0  0
  9 10  2  0  0  0
 10 11  1  0  0  0
 11 12  1  0  0  0
 12 13  1  0  0  0
 13 14  1  0  0  0
  7 25  1  0  0  0
 25 26  3  0  0  0
 26 27  1  0  0  0
 27 28  1  0  0  0
 27 29  1  0  0  0
 29 30  1  0  0  0
 30 31  1  0  0  0
 31 32  1  0  0  0
 32 33  1  0  0  0
  2 20  1  0  0  0
 20 21  1  0  0  0
 20 22  2  0  0  0
 14  1  1  0  0  0
 33 27  1  0  0  0
 14  4  1  0  0  0
 10  5  1  0  0  0
 16 19  1  0  0  0
 28 34  1  0  0  0
 21 23  1  0  0  0
 21 24  1  0  0  0
M  END
> <minimizedAffinity>
-5.92716

> <CNNscore>
0.4272414446

> <CNNaffinity>
5.3833031654

> <CNN_VS>
2.2999701500

> <CNNaffinity_variance>
0.4624417722

$$$$
[H]OC1(C#Cc2c([H])c([H])c3c(c2[H])-c2nc(C(=O)N([H])[H])c(C(=O)N([H])C([H])([H])[H])n2C([H])([H])C([H])([H])O3)C([H])([H])C([H])([H])C([H])([H])C([H])([H])C1([H])[H]


 34 37  0  0  0  0  0  0  0  0999 V2000
   37.0789   12.1044  -15.8179 C   0  0  0  0  0  0  0  0  0  0  0  0
   38.1510   11.7056  -16.5957 C   0  0  0  0  0  0  0  0  0  0  0  0
   39.2550   12.3298  -16.0592 N   0  0  0  0  0  0  0  0  0  0  0  0
   38.8674   13.0561  -15.0311 C   0  0  0  0  0  0  0  0  0  0  0  0
   39.8135   13.8505  -14.2474 C   0  0  0  0  0  0  0  0  0  0  0  0
   41.1184   13.4468  -14.4195 C   0  0  0  0  0  0  0  0  0  0  0  0
   42.1410   14.0930  -13.7510 C   0  0  0  0  0  0  0  0  0  0  0  0
   41.7855   15.1446  -12.9181 C   0  0  0  0  0  0  0  0  0  0  0  0
   40.4809   15.5478  -12.7465 C   0  0  0  0  0  0  0  0  0  0  0  0
   39.4698   14.9020  -13.4133 C   0  0  0  0  0  0  0  0  0  0  0  0
   38.1986   15.4388  -13.1262 O   0  0  0  0  0  0  0  0  0  0  0  0
   37.0139   15.0979  -13.8239 C   0  0  0  0  0  0  0  0  0  0  0  0
   36.7753   13.5984  -13.8022 C   0  0  0  0  0  0  0  0  0  0  0  0
   37.5187   12.9433  -14.8473 N   0  0  0  0  0  0  0  0  0  0  0  0
   33.6510   10.8229  -17.0753 C   0  0  0  0  0  0  0  0  0  0  0  0
   35.0288   11.2654  -17.0923 N   0  0  0  0  0  0  0  0  0  0  0  0
   35.7017   11.6384  -15.9171 C   0  0  0  0  0  0  0  0  0  0  0  0
   35.0471   11.5570  -14.8150 O   0  0  0  0  0  0  0  0  0  0  0  0
   35.5071   11.2689  -18.0087 H   0  0  0  0  0  0  0  0  0  0  0  0
   38.2185   10.8974  -17.7989 C   0  0  0  0  0  0  0  0  0  0  0  0
   39.1895   11.0863  -18.7974 N   0  0  0  0  0  0  0  0  0  0  0  0
   37.3572    9.9653  -17.9555 O   0  0  0  0  0  0  0  0  0  0  0  0
   38.9418   11.1097  -19.8069 H   0  0  0  0  0  0  0  0  0  0  0  0
   40.1886   11.2075  -18.5348 H   0  0  0  0  0  0  0  0  0  0  0  0
   43.5124   13.6835  -13.9194 C   0  0  0  0  0  0  0  0  0  0  0  0
   44.6649   13.3534  -14.0767 C   0  0  0  0  0  0  0  0  0  0  0  0
   46.0663   12.9733  -14.2720 C   0  0  0  0  0  0  0  0  0  0  0  0
   46.1267   12.1661  -15.4042 O   0  0  0  0  0  0  0  0  0  0  0  0
   46.5783   12.2316  -13.0602 C   0  0  0  0  0  0  0  0  0  0  0  0
   48.0708   12.1731  -12.9939 C   0  0  0  0  0  0  0  0  0  0  0  0
   48.7354   13.5008  -13.2064 C   0  0  0  0  0  0  0  0  0  0  0  0
   48.3284   14.0076  -14.5826 C   0  0  0  0  0  0  0  0  0  0  0  0
   46.8367   14.2427  -14.5352 C   0  0  0  0  0  0  0  0  0  0  0  0
   45.5285   11.3853  -15.3403 H   0  0  0  0  0  0  0  0  0  0  0  0
 15 16  1  0  0  0
 16 17  1  0  0  0
 17 18  2  0  0  0
 17  1  1  0  0  0
  1  2  2  0  0  0
  2  3  1  0  0  0
  3  4  2  0  0  0
  4  5  1  0  0  0
  5  6  2  0  0  0
  6  7  1  0  0  0
  7  8  2  0  0  0
  8  9  1  0  0  0
  9 10  2  0  0  0
 10 11  1  0  0  0
 11 12  1  0  0  0
 12 13  1  0  0  0
 13 14  1  0  0  0
  7 25  1  0  0  0
 25 26  3  0  0  0
 26 27  1  0  0  0
 27 28  1  0  0  0
 27 29  1  0  0  0
 29 30  1  0  0  0
 30 31  1  0  0  0
 31 32  1  0  0  0
 32 33  1  0  0  0
  2 20  1  0  0  0
 20 21  1  0  0  0
 20 22  2  0  0  0
 14  1  1  0  0  0
 33 27  1  0  0  0
 14  4  1  0  0  0
 10  5  1  0  0  0
 16 19  1  0  0  0
 28 34  1  0  0  0
 21 23  1  0  0  0
 21 24  1  0  0  0
M  END
> <minimizedAffinity>
-8.66197

> <CNNscore>
0.3980394900

> <CNNaffinity>
6.5984153748

> <CNN_VS>
2.6264297962

> <CNNaffinity_variance>
0.1662654877

$$$$
[H]OC1(C#Cc2c([H])c([H])c3c(c2[H])-c2nc(C(=O)N([H])[H])c(C(=O)N([H])C([H])([H])[H])n2C([H])([H])C([H])([H])O3)C([H])([H])C([H])([H])C([H])([H])C([H])([H])C1([H])[H]


 34 37  0  0  0  0  0  0  0  0999 V2000
   34.5248   14.4140  -12.3268 C   0  0  0  0  0  0  0  0  0  0  0  0
   35.5830   14.5916  -11.4538 C   0  0  0  0  0  0  0  0  0  0  0  0
   36.6990   14.1394  -12.1220 N   0  0  0  0  0  0  0  0  0  0  0  0
   36.3311   13.7165  -13.3139 C   0  0  0  0  0  0  0  0  0  0  0  0
   37.2939   13.1667  -14.2683 C   0  0  0  0  0  0  0  0  0  0  0  0
   38.5932   13.5134  -13.9737 C   0  0  0  0  0  0  0  0  0  0  0  0
   39.6297   13.0755  -14.7762 C   0  0  0  0  0  0  0  0  0  0  0  0
   39.2937   12.2868  -15.8674 C   0  0  0  0  0  0  0  0  0  0  0  0
   37.9947   11.9403  -16.1615 C   0  0  0  0  0  0  0  0  0  0  0  0
   36.9696   12.3784  -15.3607 C   0  0  0  0  0  0  0  0  0  0  0  0
   35.7066   11.9347  -15.8014 O   0  0  0  0  0  0  0  0  0  0  0  0
   34.5098   12.0701  -15.0558 C   0  0  0  0  0  0  0  0  0  0  0  0
   34.2603   13.5190  -14.6754 C   0  0  0  0  0  0  0  0  0  0  0  0
   34.9843   13.8700  -13.4810 N   0  0  0  0  0  0  0  0  0  0  0  0
   30.6682   14.5478  -12.0397 C   0  0  0  0  0  0  0  0  0  0  0  0
   32.0001   14.0245  -12.2554 N   0  0  0  0  0  0  0  0  0  0  0  0
   33.1429   14.8310  -12.1265 C   0  0  0  0  0  0  0  0  0  0  0  0
   32.9608   16.0577  -11.7924 O   0  0  0  0  0  0  0  0  0  0  0  0
   32.0758   13.0189  -12.4829 H   0  0  0  0  0  0  0  0  0  0  0  0
   35.6278   15.0449  -10.0761 C   0  0  0  0  0  0  0  0  0  0  0  0
   35.2522   16.3405   -9.6814 N   0  0  0  0  0  0  0  0  0  0  0  0
   36.0223   14.2248   -9.1778 O   0  0  0  0  0  0  0  0  0  0  0  0
   35.8330   16.9065   -9.0307 H   0  0  0  0  0  0  0  0  0  0  0  0
   34.3707   16.7589  -10.0419 H   0  0  0  0  0  0  0  0  0  0  0  0
   40.9956   13.4291  -14.4825 C   0  0  0  0  0  0  0  0  0  0  0  0
   42.1414   13.7123  -14.2199 C   0  0  0  0  0  0  0  0  0  0  0  0
   43.5333   14.0354  -13.8967 C   0  0  0  0  0  0  0  0  0  0  0  0
   43.5694   15.3645  -13.4853 O   0  0  0  0  0  0  0  0  0  0  0  0
   44.4108   13.8280  -15.1082 C   0  0  0  0  0  0  0  0  0  0  0  0
   45.8644   13.7314  -14.7718 C   0  0  0  0  0  0  0  0  0  0  0  0
   46.1608   12.7810  -13.6500 C   0  0  0  0  0  0  0  0  0  0  0  0
   45.4073   13.2667  -12.4200 C   0  0  0  0  0  0  0  0  0  0  0  0
   43.9351   13.1548  -12.7402 C   0  0  0  0  0  0  0  0  0  0  0  0
   43.1856   15.9754  -14.1570 H   0  0  0  0  0  0  0  0  0  0  0  0
 15 16  1  0  0  0
 16 17  1  0  0  0
 17 18  2  0  0  0
 17  1  1  0  0  0
  1  2  2  0  0  0
  2  3  1  0  0  0
  3  4  2  0  0  0
  4  5  1  0  0  0
  5  6  2  0  0  0
  6  7  1  0  0  0
  7  8  2  0  0  0
  8  9  1  0  0  0
  9 10  2  0  0  0
 10 11  1  0  0  0
 11 12  1  0  0  0
 12 13  1  0  0  0
 13 14  1  0  0  0
  7 25  1  0  0  0
 25 26  3  0  0  0
 26 27  1  0  0  0
 27 28  1  0  0  0
 27 29  1  0  0  0
 29 30  1  0  0  0
 30 31  1  0  0  0
 31 32  1  0  0  0
 32 33  1  0  0  0
  2 20  1  0  0  0
 20 21  1  0  0  0
 20 22  2  0  0  0
 14  1  1  0  0  0
 33 27  1  0  0  0
 14  4  1  0  0  0
 10  5  1  0  0  0
 16 19  1  0  0  0
 28 34  1  0  0  0
 21 23  1  0  0  0
 21 24  1  0  0  0
M  END
> <minimizedAffinity>
-8.74804

> <CNNscore>
0.3836547434

> <CNNaffinity>
6.3525443077

> <CNN_VS>
2.4371838570

> <CNNaffinity_variance>
0.0363902077

$$$$
[H]OC1(C#Cc2c([H])c([H])c3c(c2[H])-c2nc(C(=O)N([H])[H])c(C(=O)N([H])C([H])([H])[H])n2C([H])([H])C([H])([H])O3)C([H])([H])C([H])([H])C([H])([H])C([H])([H])C1([H])[H]


 34 37  0  0  0  0  0  0  0  0999 V2000
   36.4856   12.1206  -15.1585 C   0  0  0  0  0  0  0  0  0  0  0  0
   36.7971   12.4533  -13.8525 C   0  0  0  0  0  0  0  0  0  0  0  0
   38.1531   12.6934  -13.8409 N   0  0  0  0  0  0  0  0  0  0  0  0
   38.6210   12.5125  -15.0588 C   0  0  0  0  0  0  0  0  0  0  0  0
   40.0390   12.6866  -15.3740 C   0  0  0  0  0  0  0  0  0  0  0  0
   40.7085   13.4260  -14.4252 C   0  0  0  0  0  0  0  0  0  0  0  0
   42.0586   13.6845  -14.5691 C   0  0  0  0  0  0  0  0  0  0  0  0
   42.6836   13.1690  -15.6958 C   0  0  0  0  0  0  0  0  0  0  0  0
   42.0139   12.4298  -16.6439 C   0  0  0  0  0  0  0  0  0  0  0  0
   40.6731   12.1765  -16.4953 C   0  0  0  0  0  0  0  0  0  0  0  0
   40.1438   11.4081  -17.5516 O   0  0  0  0  0  0  0  0  0  0  0  0
   38.8472   10.8378  -17.5499 C   0  0  0  0  0  0  0  0  0  0  0  0
   37.7821   11.8947  -17.3161 C   0  0  0  0  0  0  0  0  0  0  0  0
   37.6143   12.1545  -15.9095 N   0  0  0  0  0  0  0  0  0  0  0  0
   33.4466   10.7024  -17.0890 C   0  0  0  0  0  0  0  0  0  0  0  0
   34.8000   10.8485  -16.5978 N   0  0  0  0  0  0  0  0  0  0  0  0
   35.1587   11.8750  -15.7086 C   0  0  0  0  0  0  0  0  0  0  0  0
   34.2288   12.6773  -15.3326 O   0  0  0  0  0  0  0  0  0  0  0  0
   35.4890   10.1442  -16.9103 H   0  0  0  0  0  0  0  0  0  0  0  0
   35.9891   12.4792  -12.6475 C   0  0  0  0  0  0  0  0  0  0  0  0
   35.8417   13.6244  -11.8462 N   0  0  0  0  0  0  0  0  0  0  0  0
   35.3775   11.4108  -12.3015 O   0  0  0  0  0  0  0  0  0  0  0  0
   35.9256   13.5846  -10.8106 H   0  0  0  0  0  0  0  0  0  0  0  0
   35.6427   14.5453  -12.2869 H   0  0  0  0  0  0  0  0  0  0  0  0
   42.7750   14.4568  -13.5856 C   0  0  0  0  0  0  0  0  0  0  0  0
   43.3942   15.0993  -12.7697 C   0  0  0  0  0  0  0  0  0  0  0  0
   44.1580   15.8836  -11.7961 C   0  0  0  0  0  0  0  0  0  0  0  0
   43.3938   15.9687  -10.6360 O   0  0  0  0  0  0  0  0  0  0  0  0
   44.4461   17.2598  -12.3472 C   0  0  0  0  0  0  0  0  0  0  0  0
   45.5458   17.9657  -11.6207 C   0  0  0  0  0  0  0  0  0  0  0  0
   46.7759   17.1289  -11.4309 C   0  0  0  0  0  0  0  0  0  0  0  0
   46.3785   15.8952  -10.6330 C   0  0  0  0  0  0  0  0  0  0  0  0
   45.4178   15.1109  -11.4958 C   0  0  0  0  0  0  0  0  0  0  0  0
   42.4977   16.3435  -10.8040 H   0  0  0  0  0  0  0  0  0  0  0  0
 15 16  1  0  0  0
 16 17  1  0  0  0
 17 18  2  0  0  0
 17  1  1  0  0  0
  1  2  2  0  0  0
  2  3  1  0  0  0
  3  4  2  0  0  0
  4  5  1  0  0  0
  5  6  2  0  0  0
  6  7  1  0  0  0
  7  8  2  0  0  0
  8  9  1  0  0  0
  9 10  2  0  0  0
 10 11  1  0  0  0
 11 12  1  0  0  0
 12 13  1  0  0  0
 13 14  1  0  0  0
  7 25  1  0  0  0
 25 26  3  0  0  0
 26 27  1  0  0  0
 27 28  1  0  0  0
 27 29  1  0  0  0
 29 30  1  0  0  0
 30 31  1  0  0  0
 31 32  1  0  0  0
 32 33  1  0  0  0
  2 20  1  0  0  0
 20 21  1  0  0  0
 20 22  2  0  0  0
 14  1  1  0  0  0
 33 27  1  0  0  0
 14  4  1  0  0  0
 10  5  1  0  0  0
 16 19  1  0  0  0
 28 34  1  0  0  0
 21 23  1  0  0  0
 21 24  1  0  0  0
M  END
> <minimizedAffinity>
-8.18807

> <CNNscore>
0.3623676598

> <CNNaffinity>
6.4868955612

> <CNN_VS>
2.3506412506

> <CNNaffinity_variance>
0.2124864608

$$$$
[H]OC1(C#Cc2c([H])c([H])c3c(c2[H])-c2nc(C(=O)N([H])[H])c(C(=O)N([H])C([H])([H])[H])n2C([H])([H])C([H])([H])O3)C([H])([H])C([H])([H])C([H])([H])C([H])([H])C1([H])[H]


 34 37  0  0  0  0  0  0  0  0999 V2000
   40.0493   15.2394   -8.3571 C   0  0  0  0  0  0  0  0  0  0  0  0
   38.9510   15.6556   -9.0878 C   0  0  0  0  0  0  0  0  0  0  0  0
   37.9032   15.7004   -8.1955 N   0  0  0  0  0  0  0  0  0  0  0  0
   38.3455   15.3320   -7.0109 C   0  0  0  0  0  0  0  0  0  0  0  0
   37.4654   15.2698   -5.8439 C   0  0  0  0  0  0  0  0  0  0  0  0
   36.3096   15.9992   -6.0092 C   0  0  0  0  0  0  0  0  0  0  0  0
   35.3663   16.0471   -5.0002 C   0  0  0  0  0  0  0  0  0  0  0  0
   35.6444   15.3361   -3.8414 C   0  0  0  0  0  0  0  0  0  0  0  0
   36.8000   14.6070   -3.6767 C   0  0  0  0  0  0  0  0  0  0  0  0
   37.7329   14.5633   -4.6824 C   0  0  0  0  0  0  0  0  0  0  0  0
   38.8532   13.7745   -4.3520 O   0  0  0  0  0  0  0  0  0  0  0  0
   39.8615   13.3974   -5.2727 C   0  0  0  0  0  0  0  0  0  0  0  0
   40.4739   14.6132   -5.9457 C   0  0  0  0  0  0  0  0  0  0  0  0
   39.6776   15.0360   -7.0687 N   0  0  0  0  0  0  0  0  0  0  0  0
   43.5170   13.9515   -9.4928 C   0  0  0  0  0  0  0  0  0  0  0  0
   42.1459   13.9422   -9.0298 N   0  0  0  0  0  0  0  0  0  0  0  0
   41.4248   15.1303   -8.8258 C   0  0  0  0  0  0  0  0  0  0  0  0
   42.0284   16.2346   -9.0823 O   0  0  0  0  0  0  0  0  0  0  0  0
   41.7092   13.0172   -8.8811 H   0  0  0  0  0  0  0  0  0  0  0  0
   38.7820   15.9185  -10.5048 C   0  0  0  0  0  0  0  0  0  0  0  0
   38.4074   14.9290  -11.4301 N   0  0  0  0  0  0  0  0  0  0  0  0
   38.9774   17.1082  -10.9309 O   0  0  0  0  0  0  0  0  0  0  0  0
   38.8952   14.8163  -12.3413 H   0  0  0  0  0  0  0  0  0  0  0  0
   37.6215   14.2835  -11.2116 H   0  0  0  0  0  0  0  0  0  0  0  0
   34.1509   16.8058   -5.1564 C   0  0  0  0  0  0  0  0  0  0  0  0
   33.1384   17.4563   -5.2733 C   0  0  0  0  0  0  0  0  0  0  0  0
   31.9229   18.2620   -5.4132 C   0  0  0  0  0  0  0  0  0  0  0  0
   31.6318   18.8001   -4.1631 O   0  0  0  0  0  0  0  0  0  0  0  0
   30.7818   17.4022   -5.9026 C   0  0  0  0  0  0  0  0  0  0  0  0
   29.6441   18.1965   -6.4596 C   0  0  0  0  0  0  0  0  0  0  0  0
   30.0674   19.2449   -7.4452 C   0  0  0  0  0  0  0  0  0  0  0  0
   31.0205   20.1933   -6.7320 C   0  0  0  0  0  0  0  0  0  0  0  0
   32.2439   19.3858   -6.3663 C   0  0  0  0  0  0  0  0  0  0  0  0
   31.5482   18.1074   -3.4669 H   0  0  0  0  0  0  0  0  0  0  0  0
 15 16  1  0  0  0
 16 17  1  0  0  0
 17 18  2  0  0  0
 17  1  1  0  0  0
  1  2  2  0  0  0
  2  3  1  0  0  0
  3  4  2  0  0  0
  4  5  1  0  0  0
  5  6  2  0  0  0
  6  7  1  0  0  0
  7  8  2  0  0  0
  8  9  1  0  0  0
  9 10  2  0  0  0
 10 11  1  0  0  0
 11 12  1  0  0  0
 12 13  1  0  0  0
 13 14  1  0  0  0
  7 25  1  0  0  0
 25 26  3  0  0  0
 26 27  1  0  0  0
 27 28  1  0  0  0
 27 29  1  0  0  0
 29 30  1  0  0  0
 30 31  1  0  0  0
 31 32  1  0  0  0
 32 33  1  0  0  0
  2 20  1  0  0  0
 20 21  1  0  0  0
 20 22  2  0  0  0
 14  1  1  0  0  0
 33 27  1  0  0  0
 14  4  1  0  0  0
 10  5  1  0  0  0
 16 19  1  0  0  0
 28 34  1  0  0  0
 21 23  1  0  0  0
 21 24  1  0  0  0
M  END
> <minimizedAffinity>
-6.39104

> <CNNscore>
0.3567181528

> <CNNaffinity>
5.2149634361

> <CNN_VS>
1.8602721691

> <CNNaffinity_variance>
0.3775285780

$$$$
[H]OC1(C#Cc2c([H])c([H])c3c(c2[H])-c2nc(C(=O)N([H])[H])c(C(=O)N([H])C([H])([H])[H])n2C([H])([H])C([H])([H])O3)C([H])([H])C([H])([H])C([H])([H])C([H])([H])C1([H])[H]


 34 37  0  0  0  0  0  0  0  0999 V2000
   33.2763   15.9162   -8.9631 C   0  0  0  0  0  0  0  0  0  0  0  0
   34.4720   15.8042   -9.6495 C   0  0  0  0  0  0  0  0  0  0  0  0
   35.4616   15.9391   -8.7014 N   0  0  0  0  0  0  0  0  0  0  0  0
   34.8945   16.1230   -7.5270 C   0  0  0  0  0  0  0  0  0  0  0  0
   35.6843   16.3069   -6.3094 C   0  0  0  0  0  0  0  0  0  0  0  0
   36.9819   15.8674   -6.4449 C   0  0  0  0  0  0  0  0  0  0  0  0
   37.8653   15.9684   -5.3867 C   0  0  0  0  0  0  0  0  0  0  0  0
   37.3811   16.5239   -4.2108 C   0  0  0  0  0  0  0  0  0  0  0  0
   36.0839   16.9632   -4.0758 C   0  0  0  0  0  0  0  0  0  0  0  0
   35.2115   16.8602   -5.1304 C   0  0  0  0  0  0  0  0  0  0  0  0
   33.9275   17.3550   -4.8252 O   0  0  0  0  0  0  0  0  0  0  0  0
   32.9022   17.5539   -5.7820 C   0  0  0  0  0  0  0  0  0  0  0  0
   32.6130   16.2769   -6.5512 C   0  0  0  0  0  0  0  0  0  0  0  0
   33.5340   16.1156   -7.6466 N   0  0  0  0  0  0  0  0  0  0  0  0
   29.9607   14.4689  -10.3365 C   0  0  0  0  0  0  0  0  0  0  0  0
   31.2999   14.5233   -9.7904 N   0  0  0  0  0  0  0  0  0  0  0  0
   31.9345   15.7434   -9.5045 C   0  0  0  0  0  0  0  0  0  0  0  0
   31.2700   16.8184   -9.7339 O   0  0  0  0  0  0  0  0  0  0  0  0
   31.7611   13.6194   -9.5934 H   0  0  0  0  0  0  0  0  0  0  0  0
   34.7597   15.6764  -11.0660 C   0  0  0  0  0  0  0  0  0  0  0  0
   34.1404   14.7230  -11.8924 N   0  0  0  0  0  0  0  0  0  0  0  0
   35.6129   16.4729  -11.5883 O   0  0  0  0  0  0  0  0  0  0  0  0
   34.6830   14.1414  -12.5621 H   0  0  0  0  0  0  0  0  0  0  0  0
   33.1108   14.5835  -11.8444 H   0  0  0  0  0  0  0  0  0  0  0  0
   39.2270   15.5132   -5.5111 C   0  0  0  0  0  0  0  0  0  0  0  0
   40.3641   15.1134   -5.6058 C   0  0  0  0  0  0  0  0  0  0  0  0
   41.7347   14.6096   -5.7240 C   0  0  0  0  0  0  0  0  0  0  0  0
   42.4747   15.1623   -4.6829 O   0  0  0  0  0  0  0  0  0  0  0  0
   42.3197   15.0005   -7.0604 C   0  0  0  0  0  0  0  0  0  0  0  0
   43.5256   14.1984   -7.4316 C   0  0  0  0  0  0  0  0  0  0  0  0
   43.3371   12.7190   -7.2720 C   0  0  0  0  0  0  0  0  0  0  0  0
   43.0033   12.4494   -5.8117 C   0  0  0  0  0  0  0  0  0  0  0  0
   41.6740   13.1140   -5.5401 C   0  0  0  0  0  0  0  0  0  0  0  0
   42.4332   16.1472   -4.6751 H   0  0  0  0  0  0  0  0  0  0  0  0
 15 16  1  0  0  0
 16 17  1  0  0  0
 17 18  2  0  0  0
 17  1  1  0  0  0
  1  2  2  0  0  0
  2  3  1  0  0  0
  3  4  2  0  0  0
  4  5  1  0  0  0
  5  6  2  0  0  0
  6  7  1  0  0  0
  7  8  2  0  0  0
  8  9  1  0  0  0
  9 10  2  0  0  0
 10 11  1  0  0  0
 11 12  1  0  0  0
 12 13  1  0  0  0
 13 14  1  0  0  0
  7 25  1  0  0  0
 25 26  3  0  0  0
 26 27  1  0  0  0
 27 28  1  0  0  0
 27 29  1  0  0  0
 29 30  1  0  0  0
 30 31  1  0  0  0
 31 32  1  0  0  0
 32 33  1  0  0  0
  2 20  1  0  0  0
 20 21  1  0  0  0
 20 22  2  0  0  0
 14  1  1  0  0  0
 33 27  1  0  0  0
 14  4  1  0  0  0
 10  5  1  0  0  0
 16 19  1  0  0  0
 28 34  1  0  0  0
 21 23  1  0  0  0
 21 24  1  0  0  0
M  END
> <minimizedAffinity>
-6.07117

> <CNNscore>
0.3071560264

> <CNNaffinity>
5.4367527962

> <CNN_VS>
1.6699314117

> <CNNaffinity_variance>
0.7050369978

$$$$
[H]OC1(C#Cc2c([H])c([H])c3c(c2[H])-c2nc(C(=O)N([H])[H])c(C(=O)N([H])C([H])([H])[H])n2C([H])([H])C([H])([H])O3)C([H])([H])C([H])([H])C([H])([H])C([H])([H])C1([H])[H]


 34 37  0  0  0  0  0  0  0  0999 V2000
   35.9788   13.7649  -13.2237 C   0  0  0  0  0  0  0  0  0  0  0  0
   37.0573   13.9323  -12.3739 C   0  0  0  0  0  0  0  0  0  0  0  0
   38.1671   13.5628  -13.1007 N   0  0  0  0  0  0  0  0  0  0  0  0
   37.7768   13.1955  -14.3038 C   0  0  0  0  0  0  0  0  0  0  0  0
   38.7279   12.7391  -15.3174 C   0  0  0  0  0  0  0  0  0  0  0  0
   40.0224   13.1180  -15.0420 C   0  0  0  0  0  0  0  0  0  0  0  0
   41.0480   12.7673  -15.8996 C   0  0  0  0  0  0  0  0  0  0  0  0
   40.7061   12.0305  -17.0247 C   0  0  0  0  0  0  0  0  0  0  0  0
   39.4119   11.6519  -17.2996 C   0  0  0  0  0  0  0  0  0  0  0  0
   38.3978   12.0032  -16.4440 C   0  0  0  0  0  0  0  0  0  0  0  0
   37.1383   11.5374  -16.8721 O   0  0  0  0  0  0  0  0  0  0  0  0
   35.9620   11.5835  -16.0842 C   0  0  0  0  0  0  0  0  0  0  0  0
   35.6719   12.9973  -15.6120 C   0  0  0  0  0  0  0  0  0  0  0  0
   36.4206   13.3064  -14.4212 N   0  0  0  0  0  0  0  0  0  0  0  0
   32.7229   15.4936  -12.0472 C   0  0  0  0  0  0  0  0  0  0  0  0
   34.1328   15.2467  -12.2606 N   0  0  0  0  0  0  0  0  0  0  0  0
   34.5897   14.1161  -12.9579 C   0  0  0  0  0  0  0  0  0  0  0  0
   33.7008   13.3102  -13.4160 O   0  0  0  0  0  0  0  0  0  0  0  0
   34.7915   15.9568  -11.8993 H   0  0  0  0  0  0  0  0  0  0  0  0
   37.1298   14.3069  -10.9739 C   0  0  0  0  0  0  0  0  0  0  0  0
   38.2740   14.8769  -10.3897 N   0  0  0  0  0  0  0  0  0  0  0  0
   36.1018   14.1145  -10.2381 O   0  0  0  0  0  0  0  0  0  0  0  0
   38.6485   14.5452   -9.4782 H   0  0  0  0  0  0  0  0  0  0  0  0
   38.7715   15.6535  -10.8707 H   0  0  0  0  0  0  0  0  0  0  0  0
   42.4087   13.1557  -15.6266 C   0  0  0  0  0  0  0  0  0  0  0  0
   43.5448   13.4865  -15.3779 C   0  0  0  0  0  0  0  0  0  0  0  0
   44.9193   13.8794  -15.0574 C   0  0  0  0  0  0  0  0  0  0  0  0
   45.0886   15.1935  -15.4831 O   0  0  0  0  0  0  0  0  0  0  0  0
   45.8982   12.9631  -15.7524 C   0  0  0  0  0  0  0  0  0  0  0  0
   47.2739   13.0220  -15.1699 C   0  0  0  0  0  0  0  0  0  0  0  0
   47.3004   12.9009  -13.6751 C   0  0  0  0  0  0  0  0  0  0  0  0
   46.4796   14.0477  -13.1027 C   0  0  0  0  0  0  0  0  0  0  0  0
   45.0549   13.8307  -13.5561 C   0  0  0  0  0  0  0  0  0  0  0  0
   44.8756   15.3085  -16.4386 H   0  0  0  0  0  0  0  0  0  0  0  0
 15 16  1  0  0  0
 16 17  1  0  0  0
 17 18  2  0  0  0
 17  1  1  0  0  0
  1  2  2  0  0  0
  2  3  1  0  0  0
  3  4  2  0  0  0
  4  5  1  0  0  0
  5  6  2  0  0  0
  6  7  1  0  0  0
  7  8  2  0  0  0
  8  9  1  0  0  0
  9 10  2  0  0  0
 10 11  1  0  0  0
 11 12  1  0  0  0
 12 13  1  0  0  0
 13 14  1  0  0  0
  7 25  1  0  0  0
 25 26  3  0  0  0
 26 27  1  0  0  0
 27 28  1  0  0  0
 27 29  1  0  0  0
 29 30  1  0  0  0
 30 31  1  0  0  0
 31 32  1  0  0  0
 32 33  1  0  0  0
  2 20  1  0  0  0
 20 21  1  0  0  0
 20 22  2  0  0  0
 14  1  1  0  0  0
 33 27  1  0  0  0
 14  4  1  0  0  0
 10  5  1  0  0  0
 16 19  1  0  0  0
 28 34  1  0  0  0
 21 23  1  0  0  0
 21 24  1  0  0  0
M  END
> <minimizedAffinity>
-9.70665

> <CNNscore>
0.3069363832

> <CNNaffinity>
6.3021016121

> <CNN_VS>
1.9343442917

> <CNNaffinity_variance>
0.0563792288

$$$$
[H]OC([H])([H])C1([H])Oc2c([H])c([H])c(C#CC(O[H])(c3noc(C([H])([H])[H])c3[H])C([H])([H])[H])c([H])c2-c2nc(C(=O)N([H])[H])c([H])n2C1([H])[H]


 34 37  0  0  0  0  0  0  0  0999 V2000
   37.1554   13.8563  -12.6168 C   0  0  0  0  0  0  0  0  0  0  0  0
   35.8244   13.5987  -12.2627 C   0  0  0  0  0  0  0  0  0  0  0  0
   35.0100   12.8722  -13.0592 C   0  0  0  0  0  0  0  0  0  0  0  0
   35.5226   12.3882  -14.2357 C   0  0  0  0  0  0  0  0  0  0  0  0
   34.5790   11.6838  -14.9334 O   0  0  0  0  0  0  0  0  0  0  0  0
   34.7052   10.7695  -15.9839 C   0  0  0  0  0  0  0  0  0  0  0  0
   35.4730   11.3001  -17.1778 C   0  0  0  0  0  0  0  0  0  0  0  0
   36.8512   11.5953  -16.9044 N   0  0  0  0  0  0  0  0  0  0  0  0
   37.8131   11.3180  -17.7975 C   0  0  0  0  0  0  0  0  0  0  0  0
   39.0267   11.6976  -17.2909 C   0  0  0  0  0  0  0  0  0  0  0  0
   38.8171   12.2206  -16.0506 N   0  0  0  0  0  0  0  0  0  0  0  0
   37.4939   12.1486  -15.8380 C   0  0  0  0  0  0  0  0  0  0  0  0
   36.8466   12.6193  -14.6277 C   0  0  0  0  0  0  0  0  0  0  0  0
   37.6414   13.3596  -13.7923 C   0  0  0  0  0  0  0  0  0  0  0  0
   40.3070   11.5637  -17.9765 C   0  0  0  0  0  0  0  0  0  0  0  0
   41.4820   12.0858  -17.4269 N   0  0  0  0  0  0  0  0  0  0  0  0
   40.3380   10.9425  -19.1048 O   0  0  0  0  0  0  0  0  0  0  0  0
   42.1664   11.3953  -16.9762 H   0  0  0  0  0  0  0  0  0  0  0  0
   41.6719   13.1009  -17.4514 H   0  0  0  0  0  0  0  0  0  0  0  0
   33.2859   10.4958  -16.4697 C   0  0  0  0  0  0  0  0  0  0  0  0
   33.1865   10.9338  -17.7961 O   0  0  0  0  0  0  0  0  0  0  0  0
   33.9231   11.6004  -17.9331 H   0  0  0  0  0  0  0  0  0  0  0  0
   38.5737   15.3395  -10.9714 C   0  0  0  0  0  0  0  0  0  0  0  0
   37.9528   14.6573  -11.7383 C   0  0  0  0  0  0  0  0  0  0  0  0
   39.2803   16.1990   -9.9718 C   0  0  0  0  0  0  0  0  0  0  0  0
   38.6470   17.5352   -9.9850 C   0  0  0  0  0  0  0  0  0  0  0  0
   39.1471   15.6053   -8.7121 O   0  0  0  0  0  0  0  0  0  0  0  0
   38.9526   14.6497   -8.7387 H   0  0  0  0  0  0  0  0  0  0  0  0
   44.3550   16.1670  -10.1140 C   0  0  0  0  0  0  0  0  0  0  0  0
   42.9094   16.2059  -10.4263 C   0  0  0  0  0  0  0  0  0  0  0  0
   41.8535   16.1126   -9.5535 C   0  0  0  0  0  0  0  0  0  0  0  0
   40.7268   16.2007  -10.3117 C   0  0  0  0  0  0  0  0  0  0  0  0
   41.1287   16.3402  -11.5939 N   0  0  0  0  0  0  0  0  0  0  0  0
   42.4242   16.3381  -11.6122 O   0  0  0  0  0  0  0  0  0  0  0  0
 29 30  1  0  0  0
 30 31  2  0  0  0
 31 32  1  0  0  0
 32 33  2  0  0  0
 33 34  1  0  0  0
 32 25  1  0  0  0
 25 26  1  0  0  0
 25 27  1  0  0  0
 25 23  1  0  0  0
 23 24  3  0  0  0
 24  1  1  0  0  0
  1  2  2  0  0  0
  2  3  1  0  0  0
  3  4  2  0  0  0
  4  5  1  0  0  0
  5  6  1  0  0  0
  6 20  1  0  0  0
 20 21  1  0  0  0
  6  7  1  0  0  0
  7  8  1  0  0  0
  8  9  1  0  0  0
  9 10  2  0  0  0
 10 11  1  0  0  0
 11 12  2  0  0  0
 12 13  1  0  0  0
 13 14  2  0  0  0
 10 15  1  0  0  0
 15 16  1  0  0  0
 15 17  2  0  0  0
 34 30  1  0  0  0
 14  1  1  0  0  0
 13  4  1  0  0  0
 12  8  1  0  0  0
 27 28  1  0  0  0
 21 22  1  0  0  0
 16 18  1  0  0  0
 16 19  1  0  0  0
M  END
> <minimizedAffinity>
-8.56058

> <CNNscore>
0.7608995438

> <CNNaffinity>
7.0870313644

> <CNN_VS>
5.3925189972

> <CNNaffinity_variance>
0.2207096368

$$$$
[H]OC([H])([H])C1([H])Oc2c([H])c([H])c(C#CC(O[H])(c3noc(C([H])([H])[H])c3[H])C([H])([H])[H])c([H])c2-c2nc(C(=O)N([H])[H])c([H])n2C1([H])[H]


 34 37  0  0  0  0  0  0  0  0999 V2000
   37.2094   13.9486  -12.5564 C   0  0  0  0  0  0  0  0  0  0  0  0
   35.8788   13.6922  -12.1997 C   0  0  0  0  0  0  0  0  0  0  0  0
   35.0643   12.9606  -12.9913 C   0  0  0  0  0  0  0  0  0  0  0  0
   35.5763   12.4701  -14.1653 C   0  0  0  0  0  0  0  0  0  0  0  0
   34.6325   11.7610  -14.8581 O   0  0  0  0  0  0  0  0  0  0  0  0
   34.7584   10.8406  -15.9034 C   0  0  0  0  0  0  0  0  0  0  0  0
   35.5249   11.3647  -17.1010 C   0  0  0  0  0  0  0  0  0  0  0  0
   36.9031   11.6624  -16.8304 N   0  0  0  0  0  0  0  0  0  0  0  0
   37.8645   11.3804  -17.7227 C   0  0  0  0  0  0  0  0  0  0  0  0
   39.0783   11.7638  -17.2193 C   0  0  0  0  0  0  0  0  0  0  0  0
   38.8694   12.2939  -15.9819 N   0  0  0  0  0  0  0  0  0  0  0  0
   37.5464   12.2224  -15.7679 C   0  0  0  0  0  0  0  0  0  0  0  0
   36.8997   12.6996  -14.5597 C   0  0  0  0  0  0  0  0  0  0  0  0
   37.6948   13.4453  -13.7294 C   0  0  0  0  0  0  0  0  0  0  0  0
   40.3581   11.6267  -17.9052 C   0  0  0  0  0  0  0  0  0  0  0  0
   41.5347   12.1452  -17.3554 N   0  0  0  0  0  0  0  0  0  0  0  0
   40.3873   11.0060  -19.0338 O   0  0  0  0  0  0  0  0  0  0  0  0
   42.2172   11.4526  -16.9052 H   0  0  0  0  0  0  0  0  0  0  0  0
   41.7274   13.1598  -17.3794 H   0  0  0  0  0  0  0  0  0  0  0  0
   33.3389   10.5632  -16.3864 C   0  0  0  0  0  0  0  0  0  0  0  0
   33.2460   10.9680  -17.7238 O   0  0  0  0  0  0  0  0  0  0  0  0
   33.9870   11.6266  -17.8753 H   0  0  0  0  0  0  0  0  0  0  0  0
   38.6587   15.3979  -10.9077 C   0  0  0  0  0  0  0  0  0  0  0  0
   38.0070   14.7552  -11.6832 C   0  0  0  0  0  0  0  0  0  0  0  0
   39.4497   16.1470   -9.8828 C   0  0  0  0  0  0  0  0  0  0  0  0
   39.7373   15.2272   -8.7613 C   0  0  0  0  0  0  0  0  0  0  0  0
   40.6385   16.5811  -10.4788 O   0  0  0  0  0  0  0  0  0  0  0  0
   40.6012   16.6366  -11.4521 H   0  0  0  0  0  0  0  0  0  0  0  0
   36.7032   19.8039   -7.6789 C   0  0  0  0  0  0  0  0  0  0  0  0
   37.4815   18.9526   -8.6052 C   0  0  0  0  0  0  0  0  0  0  0  0
   38.0866   17.7489   -8.3400 C   0  0  0  0  0  0  0  0  0  0  0  0
   38.6754   17.3570   -9.5027 C   0  0  0  0  0  0  0  0  0  0  0  0
   38.4144   18.3177  -10.4160 N   0  0  0  0  0  0  0  0  0  0  0  0
   37.7071   19.2384   -9.8408 O   0  0  0  0  0  0  0  0  0  0  0  0
 29 30  1  0  0  0
 30 31  2  0  0  0
 31 32  1  0  0  0
 32 33  2  0  0  0
 33 34  1  0  0  0
 32 25  1  0  0  0
 25 26  1  0  0  0
 25 27  1  0  0  0
 25 23  1  0  0  0
 23 24  3  0  0  0
 24  1  1  0  0  0
  1  2  2  0  0  0
  2  3  1  0  0  0
  3  4  2  0  0  0
  4  5  1  0  0  0
  5  6  1  0  0  0
  6 20  1  0  0  0
 20 21  1  0  0  0
  6  7  1  0  0  0
  7  8  1  0  0  0
  8  9  1  0  0  0
  9 10  2  0  0  0
 10 11  1  0  0  0
 11 12  2  0  0  0
 12 13  1  0  0  0
 13 14  2  0  0  0
 10 15  1  0  0  0
 15 16  1  0  0  0
 15 17  2  0  0  0
 34 30  1  0  0  0
 14  1  1  0  0  0
 13  4  1  0  0  0
 12  8  1  0  0  0
 27 28  1  0  0  0
 21 22  1  0  0  0
 16 18  1  0  0  0
 16 19  1  0  0  0
M  END
> <minimizedAffinity>
-8.87802

> <CNNscore>
0.7107087970

> <CNNaffinity>
6.9408454895

> <CNN_VS>
4.9329199791

> <CNNaffinity_variance>
0.1352848411

$$$$
[H]OC([H])([H])C1([H])Oc2c([H])c([H])c(C#CC(O[H])(c3noc(C([H])([H])[H])c3[H])C([H])([H])[H])c([H])c2-c2nc(C(=O)N([H])[H])c([H])n2C1([H])[H]


 34 37  0  0  0  0  0  0  0  0999 V2000
   38.5097   14.5205  -13.1594 C   0  0  0  0  0  0  0  0  0  0  0  0
   39.8350   14.6856  -13.5834 C   0  0  0  0  0  0  0  0  0  0  0  0
   40.3019   14.0750  -14.6945 C   0  0  0  0  0  0  0  0  0  0  0  0
   39.4385   13.2806  -15.4048 C   0  0  0  0  0  0  0  0  0  0  0  0
   40.0576   12.7272  -16.4929 O   0  0  0  0  0  0  0  0  0  0  0  0
   39.5333   12.1332  -17.6452 C   0  0  0  0  0  0  0  0  0  0  0  0
   38.5691   10.9964  -17.3719 C   0  0  0  0  0  0  0  0  0  0  0  0
   37.3661   11.3973  -16.6985 N   0  0  0  0  0  0  0  0  0  0  0  0
   36.1767   10.8693  -17.0248 C   0  0  0  0  0  0  0  0  0  0  0  0
   35.2033   11.4199  -16.2355 C   0  0  0  0  0  0  0  0  0  0  0  0
   35.7993   12.3154  -15.3997 N   0  0  0  0  0  0  0  0  0  0  0  0
   37.1076   12.2847  -15.6976 C   0  0  0  0  0  0  0  0  0  0  0  0
   38.1064   13.0894  -15.0191 C   0  0  0  0  0  0  0  0  0  0  0  0
   37.6702   13.7266  -13.8872 C   0  0  0  0  0  0  0  0  0  0  0  0
   33.7840   11.0881  -16.2902 C   0  0  0  0  0  0  0  0  0  0  0  0
   33.0298   10.9345  -15.1228 N   0  0  0  0  0  0  0  0  0  0  0  0
   33.2301   10.9460  -17.4446 O   0  0  0  0  0  0  0  0  0  0  0  0
   32.3680   11.7329  -14.8530 H   0  0  0  0  0  0  0  0  0  0  0  0
   33.1189   10.0837  -14.5437 H   0  0  0  0  0  0  0  0  0  0  0  0
   40.7239   11.5234  -18.3773 C   0  0  0  0  0  0  0  0  0  0  0  0
   40.2569   10.9448  -19.5640 O   0  0  0  0  0  0  0  0  0  0  0  0
   39.2762   10.7796  -19.4349 H   0  0  0  0  0  0  0  0  0  0  0  0
   37.7796   15.7639  -10.9595 C   0  0  0  0  0  0  0  0  0  0  0  0
   38.0910   15.1749  -11.9571 C   0  0  0  0  0  0  0  0  0  0  0  0
   37.4445   16.5559   -9.7357 C   0  0  0  0  0  0  0  0  0  0  0  0
   38.7049   16.8580   -9.0239 C   0  0  0  0  0  0  0  0  0  0  0  0
   36.8130   17.7375  -10.1384 O   0  0  0  0  0  0  0  0  0  0  0  0
   36.4095   17.6933  -11.0255 H   0  0  0  0  0  0  0  0  0  0  0  0
   33.6016   14.7906   -6.9268 C   0  0  0  0  0  0  0  0  0  0  0  0
   34.8377   14.9690   -7.7198 C   0  0  0  0  0  0  0  0  0  0  0  0
   35.2836   16.1072   -8.3451 C   0  0  0  0  0  0  0  0  0  0  0  0
   36.4613   15.7751   -8.9410 C   0  0  0  0  0  0  0  0  0  0  0  0
   36.6854   14.4719   -8.6640 N   0  0  0  0  0  0  0  0  0  0  0  0
   35.7012   14.0390   -7.9410 O   0  0  0  0  0  0  0  0  0  0  0  0
 29 30  1  0  0  0
 30 31  2  0  0  0
 31 32  1  0  0  0
 32 33  2  0  0  0
 33 34  1  0  0  0
 32 25  1  0  0  0
 25 26  1  0  0  0
 25 27  1  0  0  0
 25 23  1  0  0  0
 23 24  3  0  0  0
 24  1  1  0  0  0
  1  2  2  0  0  0
  2  3  1  0  0  0
  3  4  2  0  0  0
  4  5  1  0  0  0
  5  6  1  0  0  0
  6 20  1  0  0  0
 20 21  1  0  0  0
  6  7  1  0  0  0
  7  8  1  0  0  0
  8  9  1  0  0  0
  9 10  2  0  0  0
 10 11  1  0  0  0
 11 12  2  0  0  0
 12 13  1  0  0  0
 13 14  2  0  0  0
 10 15  1  0  0  0
 15 16  1  0  0  0
 15 17  2  0  0  0
 34 30  1  0  0  0
 14  1  1  0  0  0
 13  4  1  0  0  0
 12  8  1  0  0  0
 27 28  1  0  0  0
 21 22  1  0  0  0
 16 18  1  0  0  0
 16 19  1  0  0  0
M  END
> <minimizedAffinity>
-9.62033

> <CNNscore>
0.5887501836

> <CNNaffinity>
6.8884210587

> <CNN_VS>
4.0555591583

> <CNNaffinity_variance>
0.0659670383

$$$$
[H]OC([H])([H])C1([H])Oc2c([H])c([H])c(C#CC(O[H])(c3noc(C([H])([H])[H])c3[H])C([H])([H])[H])c([H])c2-c2nc(C(=O)N([H])[H])c([H])n2C1([H])[H]


 34 37  0  0  0  0  0  0  0  0999 V2000
   38.3875   14.2702  -13.0005 C   0  0  0  0  0  0  0  0  0  0  0  0
   39.7172   14.4745  -13.3925 C   0  0  0  0  0  0  0  0  0  0  0  0
   40.2077   13.9382  -14.5314 C   0  0  0  0  0  0  0  0  0  0  0  0
   39.3641   13.1804  -15.3029 C   0  0  0  0  0  0  0  0  0  0  0  0
   40.0057   12.7015  -16.4130 O   0  0  0  0  0  0  0  0  0  0  0  0
   39.5056   12.1743  -17.6077 C   0  0  0  0  0  0  0  0  0  0  0  0
   38.5500   11.0132  -17.4202 C   0  0  0  0  0  0  0  0  0  0  0  0
   37.3325   11.3597  -16.7427 N   0  0  0  0  0  0  0  0  0  0  0  0
   36.1541   10.8409  -17.1197 C   0  0  0  0  0  0  0  0  0  0  0  0
   35.1627   11.3320  -16.3137 C   0  0  0  0  0  0  0  0  0  0  0  0
   35.7360   12.1803  -15.4150 N   0  0  0  0  0  0  0  0  0  0  0  0
   37.0490   12.1811  -15.6934 C   0  0  0  0  0  0  0  0  0  0  0  0
   38.0284   12.9525  -14.9509 C   0  0  0  0  0  0  0  0  0  0  0  0
   37.5680   13.5142  -13.7890 C   0  0  0  0  0  0  0  0  0  0  0  0
   33.7483   10.9900  -16.4112 C   0  0  0  0  0  0  0  0  0  0  0  0
   32.9730   10.7775  -15.2670 N   0  0  0  0  0  0  0  0  0  0  0  0
   33.2183   10.8944  -17.5816 O   0  0  0  0  0  0  0  0  0  0  0  0
   32.2981   11.5569  -14.9753 H   0  0  0  0  0  0  0  0  0  0  0  0
   33.0595    9.9025  -14.7247 H   0  0  0  0  0  0  0  0  0  0  0  0
   40.7140   11.6228  -18.3569 C   0  0  0  0  0  0  0  0  0  0  0  0
   41.8704   12.0330  -17.6820 O   0  0  0  0  0  0  0  0  0  0  0  0
   41.6136   12.8335  -17.1351 H   0  0  0  0  0  0  0  0  0  0  0  0
   37.5981   15.2845  -10.7056 C   0  0  0  0  0  0  0  0  0  0  0  0
   37.9433   14.8450  -11.7671 C   0  0  0  0  0  0  0  0  0  0  0  0
   37.2113   15.7743   -9.3463 C   0  0  0  0  0  0  0  0  0  0  0  0
   35.8033   15.3931   -9.1035 C   0  0  0  0  0  0  0  0  0  0  0  0
   38.0526   15.1687   -8.4070 O   0  0  0  0  0  0  0  0  0  0  0  0
   38.8960   14.8449   -8.7752 H   0  0  0  0  0  0  0  0  0  0  0  0
   37.8731   20.6704   -8.1781 C   0  0  0  0  0  0  0  0  0  0  0  0
   37.7505   19.3576   -8.8490 C   0  0  0  0  0  0  0  0  0  0  0  0
   37.4828   18.1382   -8.2773 C   0  0  0  0  0  0  0  0  0  0  0  0
   37.4697   17.2368   -9.2968 C   0  0  0  0  0  0  0  0  0  0  0  0
   37.7264   17.9254  -10.4304 N   0  0  0  0  0  0  0  0  0  0  0  0
   37.8847   19.1726  -10.1167 O   0  0  0  0  0  0  0  0  0  0  0  0
 29 30  1  0  0  0
 30 31  2  0  0  0
 31 32  1  0  0  0
 32 33  2  0  0  0
 33 34  1  0  0  0
 32 25  1  0  0  0
 25 26  1  0  0  0
 25 27  1  0  0  0
 25 23  1  0  0  0
 23 24  3  0  0  0
 24  1  1  0  0  0
  1  2  2  0  0  0
  2  3  1  0  0  0
  3  4  2  0  0  0
  4  5  1  0  0  0
  5  6  1  0  0  0
  6 20  1  0  0  0
 20 21  1  0  0  0
  6  7  1  0  0  0
  7  8  1  0  0  0
  8  9  1  0  0  0
  9 10  2  0  0  0
 10 11  1  0  0  0
 11 12  2  0  0  0
 12 13  1  0  0  0
 13 14  2  0  0  0
 10 15  1  0  0  0
 15 16  1  0  0  0
 15 17  2  0  0  0
 34 30  1  0  0  0
 14  1  1  0  0  0
 13  4  1  0  0  0
 12  8  1  0  0  0
 27 28  1  0  0  0
 21 22  1  0  0  0
 16 18  1  0  0  0
 16 19  1  0  0  0
M  END
> <minimizedAffinity>
-9.55341

> <CNNscore>
0.5316734314

> <CNNaffinity>
6.7654891014

> <CNN_VS>
3.5970308781

> <CNNaffinity_variance>
0.0731786340

$$$$
[H]OC([H])([H])C1([H])Oc2c([H])c([H])c(C#CC(O[H])(c3noc(C([H])([H])[H])c3[H])C([H])([H])[H])c([H])c2-c2nc(C(=O)N([H])[H])c([H])n2C1([H])[H]


 34 37  0  0  0  0  0  0  0  0999 V2000
   37.2648   13.4359  -13.7399 C   0  0  0  0  0  0  0  0  0  0  0  0
   36.3299   12.7743  -14.5472 C   0  0  0  0  0  0  0  0  0  0  0  0
   36.6961   12.1616  -15.6943 C   0  0  0  0  0  0  0  0  0  0  0  0
   38.0190   12.2035  -16.0538 C   0  0  0  0  0  0  0  0  0  0  0  0
   38.2305   11.5497  -17.2376 O   0  0  0  0  0  0  0  0  0  0  0  0
   39.4045   11.0651  -17.8228 C   0  0  0  0  0  0  0  0  0  0  0  0
   40.4942   12.1065  -17.9791 C   0  0  0  0  0  0  0  0  0  0  0  0
   40.9986   12.6182  -16.7362 N   0  0  0  0  0  0  0  0  0  0  0  0
   42.3056   12.8682  -16.5654 C   0  0  0  0  0  0  0  0  0  0  0  0
   42.5152   13.3462  -15.3000 C   0  0  0  0  0  0  0  0  0  0  0  0
   41.3107   13.3918  -14.6652 N   0  0  0  0  0  0  0  0  0  0  0  0
   40.4080   12.9472  -15.5533 C   0  0  0  0  0  0  0  0  0  0  0  0
   38.9869   12.8506  -15.2765 C   0  0  0  0  0  0  0  0  0  0  0  0
   38.5762   13.4594  -14.1196 C   0  0  0  0  0  0  0  0  0  0  0  0
   43.8073   13.7387  -14.7490 C   0  0  0  0  0  0  0  0  0  0  0  0
   44.9734   13.6740  -15.5180 N   0  0  0  0  0  0  0  0  0  0  0  0
   43.8546   14.1581  -13.5317 O   0  0  0  0  0  0  0  0  0  0  0  0
   45.3664   14.5954  -15.8986 H   0  0  0  0  0  0  0  0  0  0  0  0
   45.4283   12.7675  -15.7137 H   0  0  0  0  0  0  0  0  0  0  0  0
   39.0175   10.6295  -19.2320 C   0  0  0  0  0  0  0  0  0  0  0  0
   39.6823   11.4594  -20.1434 O   0  0  0  0  0  0  0  0  0  0  0  0
   39.9264   12.2943  -19.6443 H   0  0  0  0  0  0  0  0  0  0  0  0
   36.3598   14.6309  -11.5785 C   0  0  0  0  0  0  0  0  0  0  0  0
   36.8015   14.0877  -12.5526 C   0  0  0  0  0  0  0  0  0  0  0  0
   35.7348   15.2974  -10.3942 C   0  0  0  0  0  0  0  0  0  0  0  0
   34.3268   15.6018  -10.7278 C   0  0  0  0  0  0  0  0  0  0  0  0
   35.8027   14.4164   -9.3097 O   0  0  0  0  0  0  0  0  0  0  0  0
   36.4936   13.7326   -9.3923 H   0  0  0  0  0  0  0  0  0  0  0  0
   37.8486   19.4984   -8.4818 C   0  0  0  0  0  0  0  0  0  0  0  0
   37.4963   18.3020   -9.2775 C   0  0  0  0  0  0  0  0  0  0  0  0
   36.4747   17.4114   -9.0572 C   0  0  0  0  0  0  0  0  0  0  0  0
   36.5570   16.4871  -10.0527 C   0  0  0  0  0  0  0  0  0  0  0  0
   37.6059   16.8399  -10.8276 N   0  0  0  0  0  0  0  0  0  0  0  0
   38.1288   17.9166  -10.3314 O   0  0  0  0  0  0  0  0  0  0  0  0
 29 30  1  0  0  0
 30 31  2  0  0  0
 31 32  1  0  0  0
 32 33  2  0  0  0
 33 34  1  0  0  0
 32 25  1  0  0  0
 25 26  1  0  0  0
 25 27  1  0  0  0
 25 23  1  0  0  0
 23 24  3  0  0  0
 24  1  1  0  0  0
  1  2  2  0  0  0
  2  3  1  0  0  0
  3  4  2  0  0  0
  4  5  1  0  0  0
  5  6  1  0  0  0
  6 20  1  0  0  0
 20 21  1  0  0  0
  6  7  1  0  0  0
  7  8  1  0  0  0
  8  9  1  0  0  0
  9 10  2  0  0  0
 10 11  1  0  0  0
 11 12  2  0  0  0
 12 13  1  0  0  0
 13 14  2  0  0  0
 10 15  1  0  0  0
 15 16  1  0  0  0
 15 17  2  0  0  0
 34 30  1  0  0  0
 14  1  1  0  0  0
 13  4  1  0  0  0
 12  8  1  0  0  0
 27 28  1  0  0  0
 21 22  1  0  0  0
 16 18  1  0  0  0
 16 19  1  0  0  0
M  END
> <minimizedAffinity>
-9.29503

> <CNNscore>
0.4463964105

> <CNNaffinity>
6.6673889160

> <CNN_VS>
2.9762985706

> <CNNaffinity_variance>
0.1514013261

$$$$
[H]OC([H])([H])C1([H])Oc2c([H])c([H])c(C#CC(O[H])(c3noc(C([H])([H])[H])c3[H])C([H])([H])[H])c([H])c2-c2nc(C(=O)N([H])[H])c([H])n2C1([H])[H]


 34 37  0  0  0  0  0  0  0  0999 V2000
   39.6921   12.3266  -16.1378 C   0  0  0  0  0  0  0  0  0  0  0  0
   39.1250   11.4604  -17.0820 C   0  0  0  0  0  0  0  0  0  0  0  0
   37.8023   11.1849  -17.0822 C   0  0  0  0  0  0  0  0  0  0  0  0
   37.0196   11.7791  -16.1254 C   0  0  0  0  0  0  0  0  0  0  0  0
   35.7113   11.3967  -16.2495 O   0  0  0  0  0  0  0  0  0  0  0  0
   34.5375   11.9566  -15.7357 C   0  0  0  0  0  0  0  0  0  0  0  0
   34.5447   12.1376  -14.2311 C   0  0  0  0  0  0  0  0  0  0  0  0
   35.5248   13.0739  -13.7580 N   0  0  0  0  0  0  0  0  0  0  0  0
   35.2497   13.9238  -12.7571 C   0  0  0  0  0  0  0  0  0  0  0  0
   36.3488   14.6994  -12.5045 C   0  0  0  0  0  0  0  0  0  0  0  0
   37.3317   14.3270  -13.3711 N   0  0  0  0  0  0  0  0  0  0  0  0
   36.8108   13.3422  -14.1195 C   0  0  0  0  0  0  0  0  0  0  0  0
   37.5435   12.6524  -15.1648 C   0  0  0  0  0  0  0  0  0  0  0  0
   38.8894   12.9076  -15.1982 C   0  0  0  0  0  0  0  0  0  0  0  0
   36.4353   15.7329  -11.4789 C   0  0  0  0  0  0  0  0  0  0  0  0
   36.1578   17.0715  -11.7731 N   0  0  0  0  0  0  0  0  0  0  0  0
   36.7669   15.3861  -10.2833 O   0  0  0  0  0  0  0  0  0  0  0  0
   35.2159   17.4645  -11.4467 H   0  0  0  0  0  0  0  0  0  0  0  0
   36.8373   17.6505  -12.2929 H   0  0  0  0  0  0  0  0  0  0  0  0
   33.4292   10.9560  -16.0453 C   0  0  0  0  0  0  0  0  0  0  0  0
   33.2101   10.9616  -17.4285 O   0  0  0  0  0  0  0  0  0  0  0  0
   33.5653   11.8348  -17.7707 H   0  0  0  0  0  0  0  0  0  0  0  0
   42.2901   12.7376  -16.1566 C   0  0  0  0  0  0  0  0  0  0  0  0
   41.1053   12.5509  -16.1793 C   0  0  0  0  0  0  0  0  0  0  0  0
   43.7648   12.9627  -16.0479 C   0  0  0  0  0  0  0  0  0  0  0  0
   44.4527   11.8239  -16.6933 C   0  0  0  0  0  0  0  0  0  0  0  0
   44.0746   14.1588  -16.7040 O   0  0  0  0  0  0  0  0  0  0  0  0
   43.3202   14.7699  -16.7993 H   0  0  0  0  0  0  0  0  0  0  0  0
   43.8924   13.8152  -11.0448 C   0  0  0  0  0  0  0  0  0  0  0  0
   44.2058   13.5181  -12.4598 C   0  0  0  0  0  0  0  0  0  0  0  0
   43.3365   13.4429  -13.5200 C   0  0  0  0  0  0  0  0  0  0  0  0
   44.0945   13.1458  -14.6106 C   0  0  0  0  0  0  0  0  0  0  0  0
   45.3728   13.0512  -14.1839 N   0  0  0  0  0  0  0  0  0  0  0  0
   45.3893   13.2788  -12.9085 O   0  0  0  0  0  0  0  0  0  0  0  0
 29 30  1  0  0  0
 30 31  2  0  0  0
 31 32  1  0  0  0
 32 33  2  0  0  0
 33 34  1  0  0  0
 32 25  1  0  0  0
 25 26  1  0  0  0
 25 27  1  0  0  0
 25 23  1  0  0  0
 23 24  3  0  0  0
 24  1  1  0  0  0
  1  2  2  0  0  0
  2  3  1  0  0  0
  3  4  2  0  0  0
  4  5  1  0  0  0
  5  6  1  0  0  0
  6 20  1  0  0  0
 20 21  1  0  0  0
  6  7  1  0  0  0
  7  8  1  0  0  0
  8  9  1  0  0  0
  9 10  2  0  0  0
 10 11  1  0  0  0
 11 12  2  0  0  0
 12 13  1  0  0  0
 13 14  2  0  0  0
 10 15  1  0  0  0
 15 16  1  0  0  0
 15 17  2  0  0  0
 34 30  1  0  0  0
 14  1  1  0  0  0
 13  4  1  0  0  0
 12  8  1  0  0  0
 27 28  1  0  0  0
 21 22  1  0  0  0
 16 18  1  0  0  0
 16 19  1  0  0  0
M  END
> <minimizedAffinity>
-10.50009

> <CNNscore>
0.4114587605

> <CNNaffinity>
6.6627678871

> <CNN_VS>
2.7414541245

> <CNNaffinity_variance>
0.0678039789

$$$$
[H]OC([H])([H])C1([H])Oc2c([H])c([H])c(C#CC(O[H])(c3noc(C([H])([H])[H])c3[H])C([H])([H])[H])c([H])c2-c2nc(C(=O)N([H])[H])c([H])n2C1([H])[H]


 34 37  0  0  0  0  0  0  0  0999 V2000
   37.3232   13.6348  -13.4191 C   0  0  0  0  0  0  0  0  0  0  0  0
   36.3523   13.0049  -14.2091 C   0  0  0  0  0  0  0  0  0  0  0  0
   36.6789   12.3691  -15.3555 C   0  0  0  0  0  0  0  0  0  0  0  0
   37.9977   12.3552  -15.7321 C   0  0  0  0  0  0  0  0  0  0  0  0
   38.1677   11.6843  -16.9129 O   0  0  0  0  0  0  0  0  0  0  0  0
   39.3137   11.1485  -17.5088 C   0  0  0  0  0  0  0  0  0  0  0  0
   40.4419   12.1443  -17.6875 C   0  0  0  0  0  0  0  0  0  0  0  0
   40.9824   12.6451  -16.4554 N   0  0  0  0  0  0  0  0  0  0  0  0
   42.3004   12.8439  -16.3031 C   0  0  0  0  0  0  0  0  0  0  0  0
   42.5452   13.3230  -15.0444 C   0  0  0  0  0  0  0  0  0  0  0  0
   41.3518   13.4218  -14.3950 N   0  0  0  0  0  0  0  0  0  0  0  0
   40.4207   13.0067  -15.2678 C   0  0  0  0  0  0  0  0  0  0  0  0
   39.0006   12.9692  -14.9724 C   0  0  0  0  0  0  0  0  0  0  0  0
   38.6295   13.6030  -13.8155 C   0  0  0  0  0  0  0  0  0  0  0  0
   43.8590   13.6678  -14.5130 C   0  0  0  0  0  0  0  0  0  0  0  0
   44.0171   14.7006  -13.5837 N   0  0  0  0  0  0  0  0  0  0  0  0
   44.8804   12.9918  -14.9126 O   0  0  0  0  0  0  0  0  0  0  0  0
   44.1778   14.4250  -12.5608 H   0  0  0  0  0  0  0  0  0  0  0  0
   43.9715   15.6895  -13.8791 H   0  0  0  0  0  0  0  0  0  0  0  0
   38.8914   10.7177  -18.9093 C   0  0  0  0  0  0  0  0  0  0  0  0
   39.7608   11.3152  -19.8304 O   0  0  0  0  0  0  0  0  0  0  0  0
   40.1689   12.1057  -19.3673 H   0  0  0  0  0  0  0  0  0  0  0  0
   36.5218   14.8348  -11.2199 C   0  0  0  0  0  0  0  0  0  0  0  0
   36.9016   14.3139  -12.2316 C   0  0  0  0  0  0  0  0  0  0  0  0
   36.0166   15.4132   -9.9363 C   0  0  0  0  0  0  0  0  0  0  0  0
   36.2203   16.8771   -9.9799 C   0  0  0  0  0  0  0  0  0  0  0  0
   34.6554   15.1102   -9.8255 O   0  0  0  0  0  0  0  0  0  0  0  0
   34.3706   14.3460  -10.3610 H   0  0  0  0  0  0  0  0  0  0  0  0
   39.2554   13.4776   -6.5397 C   0  0  0  0  0  0  0  0  0  0  0  0
   38.0714   13.8573   -7.3412 C   0  0  0  0  0  0  0  0  0  0  0  0
   38.0201   14.6941   -8.4287 C   0  0  0  0  0  0  0  0  0  0  0  0
   36.7169   14.7278   -8.8193 C   0  0  0  0  0  0  0  0  0  0  0  0
   36.0342   13.9273   -7.9717 N   0  0  0  0  0  0  0  0  0  0  0  0
   36.8750   13.4356   -7.1172 O   0  0  0  0  0  0  0  0  0  0  0  0
 29 30  1  0  0  0
 30 31  2  0  0  0
 31 32  1  0  0  0
 32 33  2  0  0  0
 33 34  1  0  0  0
 32 25  1  0  0  0
 25 26  1  0  0  0
 25 27  1  0  0  0
 25 23  1  0  0  0
 23 24  3  0  0  0
 24  1  1  0  0  0
  1  2  2  0  0  0
  2  3  1  0  0  0
  3  4  2  0  0  0
  4  5  1  0  0  0
  5  6  1  0  0  0
  6 20  1  0  0  0
 20 21  1  0  0  0
  6  7  1  0  0  0
  7  8  1  0  0  0
  8  9  1  0  0  0
  9 10  2  0  0  0
 10 11  1  0  0  0
 11 12  2  0  0  0
 12 13  1  0  0  0
 13 14  2  0  0  0
 10 15  1  0  0  0
 15 16  1  0  0  0
 15 17  2  0  0  0
 34 30  1  0  0  0
 14  1  1  0  0  0
 13  4  1  0  0  0
 12  8  1  0  0  0
 27 28  1  0  0  0
 21 22  1  0  0  0
 16 18  1  0  0  0
 16 19  1  0  0  0
M  END
> <minimizedAffinity>
-8.86518

> <CNNscore>
0.3461475074

> <CNNaffinity>
6.3878493309

> <CNN_VS>
2.2111380100

> <CNNaffinity_variance>
0.0304609500

$$$$
[H]OC([H])([H])C1([H])Oc2c([H])c([H])c(C#CC(O[H])(c3noc(C([H])([H])[H])c3[H])C([H])([H])[H])c([H])c2-c2nc(C(=O)N([H])[H])c([H])n2C1([H])[H]


 34 37  0  0  0  0  0  0  0  0999 V2000
   36.3022   14.8533  -12.6078 C   0  0  0  0  0  0  0  0  0  0  0  0
   34.9710   14.4162  -12.6261 C   0  0  0  0  0  0  0  0  0  0  0  0
   34.5483   13.4777  -13.5012 C   0  0  0  0  0  0  0  0  0  0  0  0
   35.4630   12.9577  -14.3810 C   0  0  0  0  0  0  0  0  0  0  0  0
   34.8846   12.0300  -15.2046 O   0  0  0  0  0  0  0  0  0  0  0  0
   35.4503   11.0376  -16.0113 C   0  0  0  0  0  0  0  0  0  0  0  0
   36.4829   11.5522  -16.9938 C   0  0  0  0  0  0  0  0  0  0  0  0
   37.6553   12.1047  -16.3763 N   0  0  0  0  0  0  0  0  0  0  0  0
   38.8770   11.8949  -16.8896 C   0  0  0  0  0  0  0  0  0  0  0  0
   39.8104   12.5286  -16.1144 C   0  0  0  0  0  0  0  0  0  0  0  0
   39.1556   13.1451  -15.0912 N   0  0  0  0  0  0  0  0  0  0  0  0
   37.8532   12.8753  -15.2702 C   0  0  0  0  0  0  0  0  0  0  0  0
   36.8028   13.3632  -14.3961 C   0  0  0  0  0  0  0  0  0  0  0  0
   37.1931   14.3164  -13.4925 C   0  0  0  0  0  0  0  0  0  0  0  0
   41.2480   12.5364  -16.3609 C   0  0  0  0  0  0  0  0  0  0  0  0
   41.7738   12.1479  -17.5970 N   0  0  0  0  0  0  0  0  0  0  0  0
   42.0320   12.9194  -15.4131 O   0  0  0  0  0  0  0  0  0  0  0  0
   42.1158   12.9221  -18.2542 H   0  0  0  0  0  0  0  0  0  0  0  0
   41.8201   11.1506  -17.8621 H   0  0  0  0  0  0  0  0  0  0  0  0
   34.3035   10.4752  -16.8444 C   0  0  0  0  0  0  0  0  0  0  0  0
   33.1184   11.0967  -16.4316 O   0  0  0  0  0  0  0  0  0  0  0  0
   33.2873   11.4496  -15.5082 H   0  0  0  0  0  0  0  0  0  0  0  0
   37.0031   16.6829  -10.8528 C   0  0  0  0  0  0  0  0  0  0  0  0
   36.6737   15.8712  -11.6723 C   0  0  0  0  0  0  0  0  0  0  0  0
   37.4428   17.6345   -9.7858 C   0  0  0  0  0  0  0  0  0  0  0  0
   38.7472   17.1714   -9.2656 C   0  0  0  0  0  0  0  0  0  0  0  0
   37.5655   18.9058  -10.3566 O   0  0  0  0  0  0  0  0  0  0  0  0
   37.0516   19.0275  -11.1768 H   0  0  0  0  0  0  0  0  0  0  0  0
   33.4436   17.0009   -6.7233 C   0  0  0  0  0  0  0  0  0  0  0  0
   34.6462   17.4894   -7.4330 C   0  0  0  0  0  0  0  0  0  0  0  0
   35.3428   16.8694   -8.4409 C   0  0  0  0  0  0  0  0  0  0  0  0
   36.3647   17.7074   -8.7658 C   0  0  0  0  0  0  0  0  0  0  0  0
   36.2571   18.7858   -7.9592 N   0  0  0  0  0  0  0  0  0  0  0  0
   35.2286   18.6125   -7.1904 O   0  0  0  0  0  0  0  0  0  0  0  0
 29 30  1  0  0  0
 30 31  2  0  0  0
 31 32  1  0  0  0
 32 33  2  0  0  0
 33 34  1  0  0  0
 32 25  1  0  0  0
 25 26  1  0  0  0
 25 27  1  0  0  0
 25 23  1  0  0  0
 23 24  3  0  0  0
 24  1  1  0  0  0
  1  2  2  0  0  0
  2  3  1  0  0  0
  3  4  2  0  0  0
  4  5  1  0  0  0
  5  6  1  0  0  0
  6 20  1  0  0  0
 20 21  1  0  0  0
  6  7  1  0  0  0
  7  8  1  0  0  0
  8  9  1  0  0  0
  9 10  2  0  0  0
 10 11  1  0  0  0
 11 12  2  0  0  0
 12 13  1  0  0  0
 13 14  2  0  0  0
 10 15  1  0  0  0
 15 16  1  0  0  0
 15 17  2  0  0  0
 34 30  1  0  0  0
 14  1  1  0  0  0
 13  4  1  0  0  0
 12  8  1  0  0  0
 27 28  1  0  0  0
 21 22  1  0  0  0
 16 18  1  0  0  0
 16 19  1  0  0  0
M  END
> <minimizedAffinity>
-8.80315

> <CNNscore>
0.3129491806

> <CNNaffinity>
6.3537635803

> <CNN_VS>
1.9884051085

> <CNNaffinity_variance>
0.2379271984

$$$$
[H]OC([H])([H])C1([H])Oc2c([H])c([H])c(C#CC(O[H])(c3noc(C([H])([H])[H])c3[H])C([H])([H])[H])c([H])c2-c2nc(C(=O)N([H])[H])c([H])n2C1([H])[H]


 34 37  0  0  0  0  0  0  0  0999 V2000
   36.7568   13.7856  -14.1700 C   0  0  0  0  0  0  0  0  0  0  0  0
   35.5650   13.2670  -14.6938 C   0  0  0  0  0  0  0  0  0  0  0  0
   34.3712   13.5159  -14.1123 C   0  0  0  0  0  0  0  0  0  0  0  0
   34.3534   14.2963  -12.9846 C   0  0  0  0  0  0  0  0  0  0  0  0
   33.0790   14.4497  -12.5096 O   0  0  0  0  0  0  0  0  0  0  0  0
   32.5373   15.3775  -11.6145 C   0  0  0  0  0  0  0  0  0  0  0  0
   33.2506   15.4389  -10.2789 C   0  0  0  0  0  0  0  0  0  0  0  0
   34.6087   15.8973  -10.3602 N   0  0  0  0  0  0  0  0  0  0  0  0
   35.1235   16.7174   -9.4316 C   0  0  0  0  0  0  0  0  0  0  0  0
   36.4263   16.9975   -9.7447 C   0  0  0  0  0  0  0  0  0  0  0  0
   36.7301   16.3394  -10.8982 N   0  0  0  0  0  0  0  0  0  0  0  0
   35.6157   15.6803  -11.2520 C   0  0  0  0  0  0  0  0  0  0  0  0
   35.5191   14.8369  -12.4287 C   0  0  0  0  0  0  0  0  0  0  0  0
   36.7102   14.5626  -13.0481 C   0  0  0  0  0  0  0  0  0  0  0  0
   37.3181   17.8477   -8.9644 C   0  0  0  0  0  0  0  0  0  0  0  0
   37.3613   19.2309   -9.1653 N   0  0  0  0  0  0  0  0  0  0  0  0
   38.0669   17.2975   -8.0719 O   0  0  0  0  0  0  0  0  0  0  0  0
   36.8745   19.8513   -8.4398 H   0  0  0  0  0  0  0  0  0  0  0  0
   37.8396   19.6310   -9.9889 H   0  0  0  0  0  0  0  0  0  0  0  0
   31.1191   14.8973  -11.3254 C   0  0  0  0  0  0  0  0  0  0  0  0
   30.6988   14.1050  -12.4009 O   0  0  0  0  0  0  0  0  0  0  0  0
   31.2726   14.3577  -13.1836 H   0  0  0  0  0  0  0  0  0  0  0  0
   39.0050   13.2169  -15.4113 C   0  0  0  0  0  0  0  0  0  0  0  0
   37.9885   13.4578  -14.8216 C   0  0  0  0  0  0  0  0  0  0  0  0
   40.2492   12.9690  -16.2037 C   0  0  0  0  0  0  0  0  0  0  0  0
   40.9012   14.2721  -16.4557 C   0  0  0  0  0  0  0  0  0  0  0  0
   41.0876   12.1377  -15.4534 O   0  0  0  0  0  0  0  0  0  0  0  0
   40.6264   11.6154  -14.7706 H   0  0  0  0  0  0  0  0  0  0  0  0
   38.0798   10.2265  -19.8842 C   0  0  0  0  0  0  0  0  0  0  0  0
   38.9851   11.0373  -19.0406 C   0  0  0  0  0  0  0  0  0  0  0  0
   38.7370   11.5608  -17.7957 C   0  0  0  0  0  0  0  0  0  0  0  0
   39.8682   12.2243  -17.4318 C   0  0  0  0  0  0  0  0  0  0  0  0
   40.7469   12.0851  -18.4484 N   0  0  0  0  0  0  0  0  0  0  0  0
   40.1817   11.3772  -19.3749 O   0  0  0  0  0  0  0  0  0  0  0  0
 29 30  1  0  0  0
 30 31  2  0  0  0
 31 32  1  0  0  0
 32 33  2  0  0  0
 33 34  1  0  0  0
 32 25  1  0  0  0
 25 26  1  0  0  0
 25 27  1  0  0  0
 25 23  1  0  0  0
 23 24  3  0  0  0
 24  1  1  0  0  0
  1  2  2  0  0  0
  2  3  1  0  0  0
  3  4  2  0  0  0
  4  5  1  0  0  0
  5  6  1  0  0  0
  6 20  1  0  0  0
 20 21  1  0  0  0
  6  7  1  0  0  0
  7  8  1  0  0  0
  8  9  1  0  0  0
  9 10  2  0  0  0
 10 11  1  0  0  0
 11 12  2  0  0  0
 12 13  1  0  0  0
 13 14  2  0  0  0
 10 15  1  0  0  0
 15 16  1  0  0  0
 15 17  2  0  0  0
 34 30  1  0  0  0
 14  1  1  0  0  0
 13  4  1  0  0  0
 12  8  1  0  0  0
 27 28  1  0  0  0
 21 22  1  0  0  0
 16 18  1  0  0  0
 16 19  1  0  0  0
M  END
> <minimizedAffinity>
-7.53340

> <CNNscore>
0.3092012405

> <CNNaffinity>
6.4142012596

> <CNN_VS>
1.9832789898

> <CNNaffinity_variance>
0.2914068103

$$$$
[H]OC(C#Cc1c([H])c([H])c2c(c1[H])-c1nc(C(=O)N([H])[H])c([H])n1C1([H])C([H])([H])C2([H])C1([H])[H])(c1nc([H])n([H])n1)C([H])([H])[H]


 32 36  0  0  0  0  0  0  0  0999 V2000
   40.5741   15.1343  -13.0463 C   0  0  0  0  0  0  0  0  0  0  0  0
   39.5590   15.4774  -12.1649 C   0  0  0  0  0  0  0  0  0  0  0  0
   38.2567   15.0525  -12.3291 C   0  0  0  0  0  0  0  0  0  0  0  0
   37.9664   14.2623  -13.4077 C   0  0  0  0  0  0  0  0  0  0  0  0
   36.5229   13.8378  -13.4682 C   0  0  0  0  0  0  0  0  0  0  0  0
   36.0109   13.9442  -14.8827 C   0  0  0  0  0  0  0  0  0  0  0  0
   36.3485   12.4673  -15.1754 C   0  0  0  0  0  0  0  0  0  0  0  0
   36.4617   12.3131  -13.6835 C   0  0  0  0  0  0  0  0  0  0  0  0
   37.6271   12.3976  -15.8604 N   0  0  0  0  0  0  0  0  0  0  0  0
   37.8892   11.7110  -16.9735 C   0  0  0  0  0  0  0  0  0  0  0  0
   39.2252   11.9258  -17.3244 C   0  0  0  0  0  0  0  0  0  0  0  0
   39.7306   12.7447  -16.4003 N   0  0  0  0  0  0  0  0  0  0  0  0
   38.7875   13.0404  -15.5098 C   0  0  0  0  0  0  0  0  0  0  0  0
   38.9327   13.8901  -14.3170 C   0  0  0  0  0  0  0  0  0  0  0  0
   40.2207   14.3285  -14.1268 C   0  0  0  0  0  0  0  0  0  0  0  0
   39.9592   11.3555  -18.4566 C   0  0  0  0  0  0  0  0  0  0  0  0
   39.2493   10.8615  -19.5701 N   0  0  0  0  0  0  0  0  0  0  0  0
   41.1951   11.3135  -18.4205 O   0  0  0  0  0  0  0  0  0  0  0  0
   38.2205   10.7100  -19.5049 H   0  0  0  0  0  0  0  0  0  0  0  0
   39.7750   10.6464  -20.4607 H   0  0  0  0  0  0  0  0  0  0  0  0
   43.0632   15.9143  -12.6676 C   0  0  0  0  0  0  0  0  0  0  0  0
   41.9303   15.5560  -12.8580 C   0  0  0  0  0  0  0  0  0  0  0  0
   44.7878   16.1338  -10.9323 C   0  0  0  0  0  0  0  0  0  0  0  0
   44.4533   16.3679  -12.4051 C   0  0  0  0  0  0  0  0  0  0  0  0
   45.2664   15.5393  -13.1897 O   0  0  0  0  0  0  0  0  0  0  0  0
   45.8221   15.0114  -12.5817 H   0  0  0  0  0  0  0  0  0  0  0  0
   44.6314   17.8041  -12.6935 C   0  0  0  0  0  0  0  0  0  0  0  0
   43.8262   18.5413  -13.4701 N   0  0  0  0  0  0  0  0  0  0  0  0
   44.3058   19.8072  -13.4961 C   0  0  0  0  0  0  0  0  0  0  0  0
   45.4106   19.8443  -12.7333 N   0  0  0  0  0  0  0  0  0  0  0  0
   45.5920   18.6249  -12.2565 N   0  0  0  0  0  0  0  0  0  0  0  0
   46.0257   20.6512  -12.5348 H   0  0  0  0  0  0  0  0  0  0  0  0
 23 24  1  0  0  0
 24 25  1  0  0  0
 24 21  1  0  0  0
 21 22  3  0  0  0
 22  1  1  0  0  0
  1  2  2  0  0  0
  2  3  1  0  0  0
  3  4  2  0  0  0
  4  5  1  0  0  0
  5  6  1  0  0  0
  6  7  1  0  0  0
  7  8  1  0  0  0
  7  9  1  0  0  0
  9 10  1  0  0  0
 10 11  2  0  0  0
 11 12  1  0  0  0
 12 13  2  0  0  0
 13 14  1  0  0  0
 14 15  2  0  0  0
 11 16  1  0  0  0
 16 17  1  0  0  0
 16 18  2  0  0  0
 24 27  1  0  0  0
 27 28  1  0  0  0
 28 29  2  0  0  0
 29 30  1  0  0  0
 30 31  1  0  0  0
 15  1  1  0  0  0
 31 27  2  0  0  0
 14  4  1  0  0  0
  8  5  1  0  0  0
 13  9  1  0  0  0
 25 26  1  0  0  0
 17 19  1  0  0  0
 17 20  1  0  0  0
 30 32  1  0  0  0
M  END
> <minimizedAffinity>
-8.33684

> <CNNscore>
0.4652562737

> <CNNaffinity>
6.7218828201

> <CNN_VS>
3.1273982525

> <CNNaffinity_variance>
0.2825147510

$$$$
[H]OC(C#Cc1c([H])c([H])c2c(c1[H])-c1nc(C(=O)N([H])[H])c([H])n1C1([H])C([H])([H])C2([H])C1([H])[H])(c1nc([H])n([H])n1)C([H])([H])[H]


 32 36  0  0  0  0  0  0  0  0999 V2000
   36.2838   13.9493  -13.0629 C   0  0  0  0  0  0  0  0  0  0  0  0
   34.9481   13.7458  -12.7475 C   0  0  0  0  0  0  0  0  0  0  0  0
   34.1227   12.9333  -13.4972 C   0  0  0  0  0  0  0  0  0  0  0  0
   34.6530   12.3091  -14.5931 C   0  0  0  0  0  0  0  0  0  0  0  0
   33.6685   11.4284  -15.3159 C   0  0  0  0  0  0  0  0  0  0  0  0
   33.8053   11.6137  -16.8063 C   0  0  0  0  0  0  0  0  0  0  0  0
   34.7880   10.4294  -16.9197 C   0  0  0  0  0  0  0  0  0  0  0  0
   34.3120   10.0470  -15.5450 C   0  0  0  0  0  0  0  0  0  0  0  0
   36.1479   10.9389  -16.9375 N   0  0  0  0  0  0  0  0  0  0  0  0
   37.1026   10.6084  -17.8083 C   0  0  0  0  0  0  0  0  0  0  0  0
   38.2559   11.3363  -17.5014 C   0  0  0  0  0  0  0  0  0  0  0  0
   37.9548   12.0908  -16.4430 N   0  0  0  0  0  0  0  0  0  0  0  0
   36.6927   11.8672  -16.0866 C   0  0  0  0  0  0  0  0  0  0  0  0
   35.9722   12.4741  -14.9560 C   0  0  0  0  0  0  0  0  0  0  0  0
   36.7698   13.2892  -14.1897 C   0  0  0  0  0  0  0  0  0  0  0  0
   39.5578   11.2804  -18.1705 C   0  0  0  0  0  0  0  0  0  0  0  0
   39.6295   10.8978  -19.5256 N   0  0  0  0  0  0  0  0  0  0  0  0
   40.5799   11.5693  -17.5362 O   0  0  0  0  0  0  0  0  0  0  0  0
   38.8035   10.4605  -19.9863 H   0  0  0  0  0  0  0  0  0  0  0  0
   40.5277   11.0571  -20.0579 H   0  0  0  0  0  0  0  0  0  0  0  0
   37.8849   15.4380  -11.5905 C   0  0  0  0  0  0  0  0  0  0  0  0
   37.1444   14.7731  -12.2670 C   0  0  0  0  0  0  0  0  0  0  0  0
   39.4749   15.3092   -9.7227 C   0  0  0  0  0  0  0  0  0  0  0  0
   38.8095   16.2332  -10.7421 C   0  0  0  0  0  0  0  0  0  0  0  0
   39.7892   16.7187  -11.6182 O   0  0  0  0  0  0  0  0  0  0  0  0
   40.6426   16.3182  -11.3563 H   0  0  0  0  0  0  0  0  0  0  0  0
   38.1054   17.2996  -10.0039 C   0  0  0  0  0  0  0  0  0  0  0  0
   37.3942   17.1222   -8.8825 N   0  0  0  0  0  0  0  0  0  0  0  0
   36.9014   18.3237   -8.4992 C   0  0  0  0  0  0  0  0  0  0  0  0
   37.3117   19.2401   -9.3912 N   0  0  0  0  0  0  0  0  0  0  0  0
   38.0380   18.6031  -10.2933 N   0  0  0  0  0  0  0  0  0  0  0  0
   37.1166   20.2553   -9.4031 H   0  0  0  0  0  0  0  0  0  0  0  0
 23 24  1  0  0  0
 24 25  1  0  0  0
 24 21  1  0  0  0
 21 22  3  0  0  0
 22  1  1  0  0  0
  1  2  2  0  0  0
  2  3  1  0  0  0
  3  4  2  0  0  0
  4  5  1  0  0  0
  5  6  1  0  0  0
  6  7  1  0  0  0
  7  8  1  0  0  0
  7  9  1  0  0  0
  9 10  1  0  0  0
 10 11  2  0  0  0
 11 12  1  0  0  0
 12 13  2  0  0  0
 13 14  1  0  0  0
 14 15  2  0  0  0
 11 16  1  0  0  0
 16 17  1  0  0  0
 16 18  2  0  0  0
 24 27  1  0  0  0
 27 28  1  0  0  0
 28 29  2  0  0  0
 29 30  1  0  0  0
 30 31  1  0  0  0
 15  1  1  0  0  0
 31 27  2  0  0  0
 14  4  1  0  0  0
  8  5  1  0  0  0
 13  9  1  0  0  0
 25 26  1  0  0  0
 17 19  1  0  0  0
 17 20  1  0  0  0
 30 32  1  0  0  0
M  END
> <minimizedAffinity>
-8.61874

> <CNNscore>
0.2840432525

> <CNNaffinity>
6.7214827538

> <CNN_VS>
1.9091918468

> <CNNaffinity_variance>
0.0872619897

$$$$
[H]OC(C#Cc1c([H])c([H])c2c(c1[H])-c1nc(C(=O)N([H])[H])c([H])n1C1([H])C([H])([H])C2([H])C1([H])[H])(c1nc([H])n([H])n1)C([H])([H])[H]


 32 36  0  0  0  0  0  0  0  0999 V2000
   35.6633   13.1104  -13.5232 C   0  0  0  0  0  0  0  0  0  0  0  0
   34.4939   12.5713  -14.0396 C   0  0  0  0  0  0  0  0  0  0  0  0
   34.4596   11.8702  -15.2273 C   0  0  0  0  0  0  0  0  0  0  0  0
   35.6312   11.7068  -15.9149 C   0  0  0  0  0  0  0  0  0  0  0  0
   35.4770   10.9034  -17.1790 C   0  0  0  0  0  0  0  0  0  0  0  0
   36.2678   11.5381  -18.2954 C   0  0  0  0  0  0  0  0  0  0  0  0
   37.4960   10.6502  -18.0054 C   0  0  0  0  0  0  0  0  0  0  0  0
   36.5520    9.7994  -17.2008 C   0  0  0  0  0  0  0  0  0  0  0  0
   38.4394   11.3940  -17.1893 N   0  0  0  0  0  0  0  0  0  0  0  0
   39.7478   11.5217  -17.4147 C   0  0  0  0  0  0  0  0  0  0  0  0
   40.2935   12.3357  -16.4177 C   0  0  0  0  0  0  0  0  0  0  0  0
   39.2839   12.6760  -15.6147 N   0  0  0  0  0  0  0  0  0  0  0  0
   38.1600   12.1201  -16.0592 C   0  0  0  0  0  0  0  0  0  0  0  0
   36.8232   12.2206  -15.4519 C   0  0  0  0  0  0  0  0  0  0  0  0
   36.8259   12.9139  -14.2658 C   0  0  0  0  0  0  0  0  0  0  0  0
   41.6941   12.7285  -16.2458 C   0  0  0  0  0  0  0  0  0  0  0  0
   42.6677   12.2516  -17.1472 N   0  0  0  0  0  0  0  0  0  0  0  0
   42.0055   13.4743  -15.3092 O   0  0  0  0  0  0  0  0  0  0  0  0
   42.4365   11.4697  -17.7959 H   0  0  0  0  0  0  0  0  0  0  0  0
   43.6267   12.6943  -17.1497 H   0  0  0  0  0  0  0  0  0  0  0  0
   35.7061   14.4280  -11.2407 C   0  0  0  0  0  0  0  0  0  0  0  0
   35.6994   13.8154  -12.2765 C   0  0  0  0  0  0  0  0  0  0  0  0
   34.3524   15.9148   -9.8299 C   0  0  0  0  0  0  0  0  0  0  0  0
   35.6990   15.2070   -9.9757 C   0  0  0  0  0  0  0  0  0  0  0  0
   35.8212   14.2548   -8.9551 O   0  0  0  0  0  0  0  0  0  0  0  0
   34.9972   14.2810   -8.4282 H   0  0  0  0  0  0  0  0  0  0  0  0
   36.7611   16.2312   -9.9496 C   0  0  0  0  0  0  0  0  0  0  0  0
   37.6752   16.3710   -8.9802 N   0  0  0  0  0  0  0  0  0  0  0  0
   38.4789   17.4117   -9.3031 C   0  0  0  0  0  0  0  0  0  0  0  0
   38.0536   17.9120  -10.4746 N   0  0  0  0  0  0  0  0  0  0  0  0
   37.0147   17.1861  -10.8503 N   0  0  0  0  0  0  0  0  0  0  0  0
   38.4381   18.7092  -11.0087 H   0  0  0  0  0  0  0  0  0  0  0  0
 23 24  1  0  0  0
 24 25  1  0  0  0
 24 21  1  0  0  0
 21 22  3  0  0  0
 22  1  1  0  0  0
  1  2  2  0  0  0
  2  3  1  0  0  0
  3  4  2  0  0  0
  4  5  1  0  0  0
  5  6  1  0  0  0
  6  7  1  0  0  0
  7  8  1  0  0  0
  7  9  1  0  0  0
  9 10  1  0  0  0
 10 11  2  0  0  0
 11 12  1  0  0  0
 12 13  2  0  0  0
 13 14  1  0  0  0
 14 15  2  0  0  0
 11 16  1  0  0  0
 16 17  1  0  0  0
 16 18  2  0  0  0
 24 27  1  0  0  0
 27 28  1  0  0  0
 28 29  2  0  0  0
 29 30  1  0  0  0
 30 31  1  0  0  0
 15  1  1  0  0  0
 31 27  2  0  0  0
 14  4  1  0  0  0
  8  5  1  0  0  0
 13  9  1  0  0  0
 25 26  1  0  0  0
 17 19  1  0  0  0
 17 20  1  0  0  0
 30 32  1  0  0  0
M  END
> <minimizedAffinity>
-9.06473

> <CNNscore>
0.2828330398

> <CNNaffinity>
6.8496580124

> <CNN_VS>
1.9373096228

> <CNNaffinity_variance>
0.1156288832

$$$$
[H]OC(C#Cc1c([H])c([H])c2c(c1[H])-c1nc(C(=O)N([H])[H])c([H])n1C1([H])C([H])([H])C2([H])C1([H])[H])(c1nc([H])n([H])n1)C([H])([H])[H]


 32 36  0  0  0  0  0  0  0  0999 V2000
   40.4145   15.3365  -12.9509 C   0  0  0  0  0  0  0  0  0  0  0  0
   39.3973   15.5540  -12.0328 C   0  0  0  0  0  0  0  0  0  0  0  0
   38.1526   14.9708  -12.1503 C   0  0  0  0  0  0  0  0  0  0  0  0
   37.9233   14.1476  -13.2188 C   0  0  0  0  0  0  0  0  0  0  0  0
   36.5422   13.5477  -13.2275 C   0  0  0  0  0  0  0  0  0  0  0  0
   35.9700   13.5858  -14.6224 C   0  0  0  0  0  0  0  0  0  0  0  0
   36.4769   12.1611  -14.9294 C   0  0  0  0  0  0  0  0  0  0  0  0
   36.6623   12.0265  -13.4429 C   0  0  0  0  0  0  0  0  0  0  0  0
   37.7287   12.2482  -15.6606 N   0  0  0  0  0  0  0  0  0  0  0  0
   38.0331   11.5960  -16.7836 C   0  0  0  0  0  0  0  0  0  0  0  0
   39.3187   11.9733  -17.1824 C   0  0  0  0  0  0  0  0  0  0  0  0
   39.7521   12.8511  -16.2760 N   0  0  0  0  0  0  0  0  0  0  0  0
   38.8125   13.0306  -15.3514 C   0  0  0  0  0  0  0  0  0  0  0  0
   38.8946   13.8952  -14.1632 C   0  0  0  0  0  0  0  0  0  0  0  0
   40.1246   14.4900  -14.0192 C   0  0  0  0  0  0  0  0  0  0  0  0
   40.0761   11.4949  -18.3414 C   0  0  0  0  0  0  0  0  0  0  0  0
   39.3905   10.9439  -19.4433 N   0  0  0  0  0  0  0  0  0  0  0  0
   41.3103   11.5796  -18.3379 O   0  0  0  0  0  0  0  0  0  0  0  0
   38.3847   10.6868  -19.3537 H   0  0  0  0  0  0  0  0  0  0  0  0
   39.9109   10.7945  -20.3502 H   0  0  0  0  0  0  0  0  0  0  0  0
   42.8160   16.3981  -12.7203 C   0  0  0  0  0  0  0  0  0  0  0  0
   41.7141   15.9232  -12.8114 C   0  0  0  0  0  0  0  0  0  0  0  0
   44.1910   18.3725  -13.2152 C   0  0  0  0  0  0  0  0  0  0  0  0
   44.1871   16.9623  -12.6261 C   0  0  0  0  0  0  0  0  0  0  0  0
   44.4586   17.0456  -11.2541 O   0  0  0  0  0  0  0  0  0  0  0  0
   44.5588   17.9929  -11.0310 H   0  0  0  0  0  0  0  0  0  0  0  0
   45.1719   16.1520  -13.3686 C   0  0  0  0  0  0  0  0  0  0  0  0
   45.8783   15.1353  -12.8565 N   0  0  0  0  0  0  0  0  0  0  0  0
   46.6724   14.6370  -13.8335 C   0  0  0  0  0  0  0  0  0  0  0  0
   46.4520   15.3533  -14.9480 N   0  0  0  0  0  0  0  0  0  0  0  0
   45.5424   16.2643  -14.6482 N   0  0  0  0  0  0  0  0  0  0  0  0
   46.8903   15.2433  -15.8779 H   0  0  0  0  0  0  0  0  0  0  0  0
 23 24  1  0  0  0
 24 25  1  0  0  0
 24 21  1  0  0  0
 21 22  3  0  0  0
 22  1  1  0  0  0
  1  2  2  0  0  0
  2  3  1  0  0  0
  3  4  2  0  0  0
  4  5  1  0  0  0
  5  6  1  0  0  0
  6  7  1  0  0  0
  7  8  1  0  0  0
  7  9  1  0  0  0
  9 10  1  0  0  0
 10 11  2  0  0  0
 11 12  1  0  0  0
 12 13  2  0  0  0
 13 14  1  0  0  0
 14 15  2  0  0  0
 11 16  1  0  0  0
 16 17  1  0  0  0
 16 18  2  0  0  0
 24 27  1  0  0  0
 27 28  1  0  0  0
 28 29  2  0  0  0
 29 30  1  0  0  0
 30 31  1  0  0  0
 15  1  1  0  0  0
 31 27  2  0  0  0
 14  4  1  0  0  0
  8  5  1  0  0  0
 13  9  1  0  0  0
 25 26  1  0  0  0
 17 19  1  0  0  0
 17 20  1  0  0  0
 30 32  1  0  0  0
M  END
> <minimizedAffinity>
-8.54008

> <CNNscore>
0.2797587216

> <CNNaffinity>
6.6269059181

> <CNN_VS>
1.8539347649

> <CNNaffinity_variance>
0.3840149939

$$$$
[H]OC(C#Cc1c([H])c([H])c2c(c1[H])-c1nc(C(=O)N([H])[H])c([H])n1C1([H])C([H])([H])C2([H])C1([H])[H])(c1nc([H])n([H])n1)C([H])([H])[H]


 32 36  0  0  0  0  0  0  0  0999 V2000
   35.4775   13.5084  -13.5249 C   0  0  0  0  0  0  0  0  0  0  0  0
   34.2814   12.9704  -13.9774 C   0  0  0  0  0  0  0  0  0  0  0  0
   34.2024   12.1737  -15.1010 C   0  0  0  0  0  0  0  0  0  0  0  0
   35.3557   11.9109  -15.7887 C   0  0  0  0  0  0  0  0  0  0  0  0
   35.1520   11.0102  -16.9781 C   0  0  0  0  0  0  0  0  0  0  0  0
   35.9453   11.5200  -18.1551 C   0  0  0  0  0  0  0  0  0  0  0  0
   37.1466   10.6157  -17.8085 C   0  0  0  0  0  0  0  0  0  0  0  0
   36.1873    9.8702  -16.9216 C   0  0  0  0  0  0  0  0  0  0  0  0
   38.1291   11.3907  -17.0715 N   0  0  0  0  0  0  0  0  0  0  0  0
   39.4371   11.4516  -17.3252 C   0  0  0  0  0  0  0  0  0  0  0  0
   40.0278   12.3262  -16.4084 C   0  0  0  0  0  0  0  0  0  0  0  0
   39.0445   12.7691  -15.6229 N   0  0  0  0  0  0  0  0  0  0  0  0
   37.8945   12.2189  -16.0030 C   0  0  0  0  0  0  0  0  0  0  0  0
   36.5726   12.4183  -15.3876 C   0  0  0  0  0  0  0  0  0  0  0  0
   36.6197   13.2082  -14.2645 C   0  0  0  0  0  0  0  0  0  0  0  0
   41.4440   12.6811  -16.2900 C   0  0  0  0  0  0  0  0  0  0  0  0
   42.3599   12.2286  -17.2618 N   0  0  0  0  0  0  0  0  0  0  0  0
   41.8192   13.3739  -15.3362 O   0  0  0  0  0  0  0  0  0  0  0  0
   42.0783   11.4842  -17.9343 H   0  0  0  0  0  0  0  0  0  0  0  0
   43.3275   12.6509  -17.2924 H   0  0  0  0  0  0  0  0  0  0  0  0
   35.5952   14.9891  -11.3475 C   0  0  0  0  0  0  0  0  0  0  0  0
   35.5595   14.3138  -12.3429 C   0  0  0  0  0  0  0  0  0  0  0  0
   36.5046   15.1689   -9.0728 C   0  0  0  0  0  0  0  0  0  0  0  0
   35.6091   15.8279  -10.1214 C   0  0  0  0  0  0  0  0  0  0  0  0
   36.1892   17.0422  -10.5114 O   0  0  0  0  0  0  0  0  0  0  0  0
   37.0305   17.1373  -10.0210 H   0  0  0  0  0  0  0  0  0  0  0  0
   34.2612   15.9839   -9.5413 C   0  0  0  0  0  0  0  0  0  0  0  0
   33.9995   16.2181   -8.2484 N   0  0  0  0  0  0  0  0  0  0  0  0
   32.6566   16.3015   -8.0967 C   0  0  0  0  0  0  0  0  0  0  0  0
   32.0941   16.1158   -9.3020 N   0  0  0  0  0  0  0  0  0  0  0  0
   33.0790   15.9254  -10.1628 N   0  0  0  0  0  0  0  0  0  0  0  0
   31.0898   16.1145   -9.5474 H   0  0  0  0  0  0  0  0  0  0  0  0
 23 24  1  0  0  0
 24 25  1  0  0  0
 24 21  1  0  0  0
 21 22  3  0  0  0
 22  1  1  0  0  0
  1  2  2  0  0  0
  2  3  1  0  0  0
  3  4  2  0  0  0
  4  5  1  0  0  0
  5  6  1  0  0  0
  6  7  1  0  0  0
  7  8  1  0  0  0
  7  9  1  0  0  0
  9 10  1  0  0  0
 10 11  2  0  0  0
 11 12  1  0  0  0
 12 13  2  0  0  0
 13 14  1  0  0  0
 14 15  2  0  0  0
 11 16  1  0  0  0
 16 17  1  0  0  0
 16 18  2  0  0  0
 24 27  1  0  0  0
 27 28  1  0  0  0
 28 29  2  0  0  0
 29 30  1  0  0  0
 30 31  1  0  0  0
 15  1  1  0  0  0
 31 27  2  0  0  0
 14  4  1  0  0  0
  8  5  1  0  0  0
 13  9  1  0  0  0
 25 26  1  0  0  0
 17 19  1  0  0  0
 17 20  1  0  0  0
 30 32  1  0  0  0
M  END
> <minimizedAffinity>
-8.48520

> <CNNscore>
0.2543433011

> <CNNaffinity>
6.6884598732

> <CNN_VS>
1.7011649609

> <CNNaffinity_variance>
0.2086367905

$$$$
[H]OC(C#Cc1c([H])c([H])c2c(c1[H])-c1nc(C(=O)N([H])[H])c([H])n1C1([H])C([H])([H])C2([H])C1([H])[H])(c1nc([H])n([H])n1)C([H])([H])[H]


 32 36  0  0  0  0  0  0  0  0999 V2000
   40.5623   15.3827  -12.8941 C   0  0  0  0  0  0  0  0  0  0  0  0
   39.5402   15.6288  -11.9888 C   0  0  0  0  0  0  0  0  0  0  0  0
   38.2835   15.0743  -12.1177 C   0  0  0  0  0  0  0  0  0  0  0  0
   38.0471   14.2513  -13.1847 C   0  0  0  0  0  0  0  0  0  0  0  0
   36.6524   13.6838  -13.2063 C   0  0  0  0  0  0  0  0  0  0  0  0
   36.0973   13.7282  -14.6078 C   0  0  0  0  0  0  0  0  0  0  0  0
   36.5739   12.2904  -14.9020 C   0  0  0  0  0  0  0  0  0  0  0  0
   36.7392   12.1592  -13.4128 C   0  0  0  0  0  0  0  0  0  0  0  0
   37.8356   12.3442  -15.6192 N   0  0  0  0  0  0  0  0  0  0  0  0
   38.1374   11.6793  -16.7354 C   0  0  0  0  0  0  0  0  0  0  0  0
   39.4360   12.0242  -17.1212 C   0  0  0  0  0  0  0  0  0  0  0  0
   39.8795   12.8963  -16.2142 N   0  0  0  0  0  0  0  0  0  0  0  0
   38.9340   13.1026  -15.3014 C   0  0  0  0  0  0  0  0  0  0  0  0
   39.0229   13.9712  -14.1166 C   0  0  0  0  0  0  0  0  0  0  0  0
   40.2648   14.5378  -13.9614 C   0  0  0  0  0  0  0  0  0  0  0  0
   40.1951   11.5221  -18.2691 C   0  0  0  0  0  0  0  0  0  0  0  0
   39.5102   10.9613  -19.3665 N   0  0  0  0  0  0  0  0  0  0  0  0
   41.4300   11.5958  -18.2601 O   0  0  0  0  0  0  0  0  0  0  0  0
   38.5017   10.7146  -19.2785 H   0  0  0  0  0  0  0  0  0  0  0  0
   40.0340   10.7941  -20.2683 H   0  0  0  0  0  0  0  0  0  0  0  0
   42.9880   16.3767  -12.6189 C   0  0  0  0  0  0  0  0  0  0  0  0
   41.8737   15.9395  -12.7425 C   0  0  0  0  0  0  0  0  0  0  0  0
   45.3575   15.8383  -12.9780 C   0  0  0  0  0  0  0  0  0  0  0  0
   44.3740   16.8880  -12.4616 C   0  0  0  0  0  0  0  0  0  0  0  0
   44.4463   18.0185  -13.2861 O   0  0  0  0  0  0  0  0  0  0  0  0
   45.0968   17.8271  -13.9914 H   0  0  0  0  0  0  0  0  0  0  0  0
   44.7035   17.1711  -11.0513 C   0  0  0  0  0  0  0  0  0  0  0  0
   44.0883   16.6303   -9.9911 N   0  0  0  0  0  0  0  0  0  0  0  0
   44.6628   17.1262   -8.8698 C   0  0  0  0  0  0  0  0  0  0  0  0
   45.6328   17.9757   -9.2457 N   0  0  0  0  0  0  0  0  0  0  0  0
   45.6428   17.9901  -10.5674 N   0  0  0  0  0  0  0  0  0  0  0  0
   46.2679   18.5291   -8.6464 H   0  0  0  0  0  0  0  0  0  0  0  0
 23 24  1  0  0  0
 24 25  1  0  0  0
 24 21  1  0  0  0
 21 22  3  0  0  0
 22  1  1  0  0  0
  1  2  2  0  0  0
  2  3  1  0  0  0
  3  4  2  0  0  0
  4  5  1  0  0  0
  5  6  1  0  0  0
  6  7  1  0  0  0
  7  8  1  0  0  0
  7  9  1  0  0  0
  9 10  1  0  0  0
 10 11  2  0  0  0
 11 12  1  0  0  0
 12 13  2  0  0  0
 13 14  1  0  0  0
 14 15  2  0  0  0
 11 16  1  0  0  0
 16 17  1  0  0  0
 16 18  2  0  0  0
 24 27  1  0  0  0
 27 28  1  0  0  0
 28 29  2  0  0  0
 29 30  1  0  0  0
 30 31  1  0  0  0
 15  1  1  0  0  0
 31 27  2  0  0  0
 14  4  1  0  0  0
  8  5  1  0  0  0
 13  9  1  0  0  0
 25 26  1  0  0  0
 17 19  1  0  0  0
 17 20  1  0  0  0
 30 32  1  0  0  0
M  END
> <minimizedAffinity>
-8.21779

> <CNNscore>
0.2541192472

> <CNNaffinity>
6.3932704926

> <CNN_VS>
1.6246531010

> <CNNaffinity_variance>
0.2422539741

$$$$
[H]OC(C#Cc1c([H])c([H])c2c(c1[H])-c1nc(C(=O)N([H])[H])c([H])n1C1([H])C([H])([H])C2([H])C1([H])[H])(c1nc([H])n([H])n1)C([H])([H])[H]


 32 36  0  0  0  0  0  0  0  0999 V2000
   36.4911   13.7202  -12.9662 C   0  0  0  0  0  0  0  0  0  0  0  0
   35.1541   13.5546  -12.6348 C   0  0  0  0  0  0  0  0  0  0  0  0
   34.2819   12.8179  -13.4093 C   0  0  0  0  0  0  0  0  0  0  0  0
   34.7656   12.2323  -14.5473 C   0  0  0  0  0  0  0  0  0  0  0  0
   33.7321   11.4326  -15.2954 C   0  0  0  0  0  0  0  0  0  0  0  0
   33.8492   11.6920  -16.7765 C   0  0  0  0  0  0  0  0  0  0  0  0
   34.7793   10.4765  -16.9725 C   0  0  0  0  0  0  0  0  0  0  0  0
   34.3130   10.0405  -15.6106 C   0  0  0  0  0  0  0  0  0  0  0  0
   36.1587   10.9304  -16.9911 N   0  0  0  0  0  0  0  0  0  0  0  0
   37.0828   10.6086  -17.8977 C   0  0  0  0  0  0  0  0  0  0  0  0
   38.2709   11.2714  -17.5763 C   0  0  0  0  0  0  0  0  0  0  0  0
   38.0210   11.9795  -16.4735 N   0  0  0  0  0  0  0  0  0  0  0  0
   36.7574   11.7886  -16.1037 C   0  0  0  0  0  0  0  0  0  0  0  0
   36.0836   12.3628  -14.9279 C   0  0  0  0  0  0  0  0  0  0  0  0
   36.9284   13.1023  -14.1361 C   0  0  0  0  0  0  0  0  0  0  0  0
   39.5568   11.1986  -18.2740 C   0  0  0  0  0  0  0  0  0  0  0  0
   39.5855   10.9226  -19.6563 N   0  0  0  0  0  0  0  0  0  0  0  0
   40.6034   11.3794  -17.6396 O   0  0  0  0  0  0  0  0  0  0  0  0
   38.7292   10.5695  -20.1335 H   0  0  0  0  0  0  0  0  0  0  0  0
   40.4827   11.0750  -20.1924 H   0  0  0  0  0  0  0  0  0  0  0  0
   38.1600   15.0659  -11.4329 C   0  0  0  0  0  0  0  0  0  0  0  0
   37.3998   14.4642  -12.1456 C   0  0  0  0  0  0  0  0  0  0  0  0
   38.4645   17.1303  -10.1370 C   0  0  0  0  0  0  0  0  0  0  0  0
   39.0893   15.7918  -10.5291 C   0  0  0  0  0  0  0  0  0  0  0  0
   39.1932   14.9898   -9.3849 O   0  0  0  0  0  0  0  0  0  0  0  0
   38.8163   15.4949   -8.6365 H   0  0  0  0  0  0  0  0  0  0  0  0
   40.3893   16.0631  -11.1727 C   0  0  0  0  0  0  0  0  0  0  0  0
   40.5561   16.4385  -12.4478 N   0  0  0  0  0  0  0  0  0  0  0  0
   41.8820   16.5939  -12.6735 C   0  0  0  0  0  0  0  0  0  0  0  0
   42.5296   16.3106  -11.5315 N   0  0  0  0  0  0  0  0  0  0  0  0
   41.6115   15.9919  -10.6356 N   0  0  0  0  0  0  0  0  0  0  0  0
   43.5474   16.3269  -11.3506 H   0  0  0  0  0  0  0  0  0  0  0  0
 23 24  1  0  0  0
 24 25  1  0  0  0
 24 21  1  0  0  0
 21 22  3  0  0  0
 22  1  1  0  0  0
  1  2  2  0  0  0
  2  3  1  0  0  0
  3  4  2  0  0  0
  4  5  1  0  0  0
  5  6  1  0  0  0
  6  7  1  0  0  0
  7  8  1  0  0  0
  7  9  1  0  0  0
  9 10  1  0  0  0
 10 11  2  0  0  0
 11 12  1  0  0  0
 12 13  2  0  0  0
 13 14  1  0  0  0
 14 15  2  0  0  0
 11 16  1  0  0  0
 16 17  1  0  0  0
 16 18  2  0  0  0
 24 27  1  0  0  0
 27 28  1  0  0  0
 28 29  2  0  0  0
 29 30  1  0  0  0
 30 31  1  0  0  0
 15  1  1  0  0  0
 31 27  2  0  0  0
 14  4  1  0  0  0
  8  5  1  0  0  0
 13  9  1  0  0  0
 25 26  1  0  0  0
 17 19  1  0  0  0
 17 20  1  0  0  0
 30 32  1  0  0  0
M  END
> <minimizedAffinity>
-8.47378

> <CNNscore>
0.2419464886

> <CNNaffinity>
6.7243871689

> <CNN_VS>
1.6269419193

> <CNNaffinity_variance>
0.1984075159

$$$$
[H]OC(C#Cc1c([H])c([H])c2c(c1[H])-c1nc(C(=O)N([H])[H])c([H])n1C1([H])C([H])([H])C2([H])C1([H])[H])(c1nc([H])n([H])n1)C([H])([H])[H]


 32 36  0  0  0  0  0  0  0  0999 V2000
   37.9811   14.0682  -13.6294 C   0  0  0  0  0  0  0  0  0  0  0  0
   36.5969   13.9835  -13.6707 C   0  0  0  0  0  0  0  0  0  0  0  0
   35.7966   14.3705  -12.6157 C   0  0  0  0  0  0  0  0  0  0  0  0
   36.4030   14.8551  -11.4889 C   0  0  0  0  0  0  0  0  0  0  0  0
   35.4307   15.2711  -10.4170 C   0  0  0  0  0  0  0  0  0  0  0  0
   35.9177   14.8058   -9.0676 C   0  0  0  0  0  0  0  0  0  0  0  0
   36.6275   16.1492   -8.7984 C   0  0  0  0  0  0  0  0  0  0  0  0
   35.7998   16.6869   -9.9333 C   0  0  0  0  0  0  0  0  0  0  0  0
   38.0365   16.0173   -9.1249 N   0  0  0  0  0  0  0  0  0  0  0  0
   39.0621   16.3844   -8.3552 C   0  0  0  0  0  0  0  0  0  0  0  0
   40.2514   16.0648   -9.0168 C   0  0  0  0  0  0  0  0  0  0  0  0
   39.8993   15.5088  -10.1773 N   0  0  0  0  0  0  0  0  0  0  0  0
   38.5722   15.4710  -10.2637 C   0  0  0  0  0  0  0  0  0  0  0  0
   37.7734   14.9612  -11.3897 C   0  0  0  0  0  0  0  0  0  0  0  0
   38.5441   14.5682  -12.4570 C   0  0  0  0  0  0  0  0  0  0  0  0
   41.6235   16.3073   -8.5650 C   0  0  0  0  0  0  0  0  0  0  0  0
   41.8657   16.6334   -7.2149 N   0  0  0  0  0  0  0  0  0  0  0  0
   42.5540   16.2238   -9.3760 O   0  0  0  0  0  0  0  0  0  0  0  0
   41.0728   16.9040   -6.5954 H   0  0  0  0  0  0  0  0  0  0  0  0
   42.8558   16.6026   -6.8482 H   0  0  0  0  0  0  0  0  0  0  0  0
   39.5158   13.3485  -15.6479 C   0  0  0  0  0  0  0  0  0  0  0  0
   38.8075   13.6897  -14.7369 C   0  0  0  0  0  0  0  0  0  0  0  0
   40.8735   14.1392  -17.5360 C   0  0  0  0  0  0  0  0  0  0  0  0
   40.4080   12.9122  -16.7527 C   0  0  0  0  0  0  0  0  0  0  0  0
   41.5170   12.3307  -16.1240 O   0  0  0  0  0  0  0  0  0  0  0  0
   42.2978   12.8802  -16.3375 H   0  0  0  0  0  0  0  0  0  0  0  0
   39.7238   12.0013  -17.6907 C   0  0  0  0  0  0  0  0  0  0  0  0
   38.6027   11.3180  -17.4240 N   0  0  0  0  0  0  0  0  0  0  0  0
   38.2766   10.5946  -18.5211 C   0  0  0  0  0  0  0  0  0  0  0  0
   39.2035   10.8350  -19.4628 N   0  0  0  0  0  0  0  0  0  0  0  0
   40.0700   11.6873  -18.9433 N   0  0  0  0  0  0  0  0  0  0  0  0
   39.2614   10.4468  -20.4192 H   0  0  0  0  0  0  0  0  0  0  0  0
 23 24  1  0  0  0
 24 25  1  0  0  0
 24 21  1  0  0  0
 21 22  3  0  0  0
 22  1  1  0  0  0
  1  2  2  0  0  0
  2  3  1  0  0  0
  3  4  2  0  0  0
  4  5  1  0  0  0
  5  6  1  0  0  0
  6  7  1  0  0  0
  7  8  1  0  0  0
  7  9  1  0  0  0
  9 10  1  0  0  0
 10 11  2  0  0  0
 11 12  1  0  0  0
 12 13  2  0  0  0
 13 14  1  0  0  0
 14 15  2  0  0  0
 11 16  1  0  0  0
 16 17  1  0  0  0
 16 18  2  0  0  0
 24 27  1  0  0  0
 27 28  1  0  0  0
 28 29  2  0  0  0
 29 30  1  0  0  0
 30 31  1  0  0  0
 15  1  1  0  0  0
 31 27  2  0  0  0
 14  4  1  0  0  0
  8  5  1  0  0  0
 13  9  1  0  0  0
 25 26  1  0  0  0
 17 19  1  0  0  0
 17 20  1  0  0  0
 30 32  1  0  0  0
M  END
> <minimizedAffinity>
-6.91345

> <CNNscore>
0.2390239686

> <CNNaffinity>
6.1347436905

> <CNN_VS>
1.4663507938

> <CNNaffinity_variance>
0.4402228296

$$$$
[H]OC(C#Cc1c([H])c([H])c2c(c1[H])-c1nc(C(=O)N([H])[H])c([H])n1C1([H])C([H])([H])C2([H])C1([H])[H])(c1nc([H])n([H])n1)C([H])([H])[H]


 32 36  0  0  0  0  0  0  0  0999 V2000
   41.4126   15.8464  -11.2451 C   0  0  0  0  0  0  0  0  0  0  0  0
   42.6356   16.1874  -10.6858 C   0  0  0  0  0  0  0  0  0  0  0  0
   43.8396   15.8187  -11.2496 C   0  0  0  0  0  0  0  0  0  0  0  0
   43.8143   15.0875  -12.4057 C   0  0  0  0  0  0  0  0  0  0  0  0
   45.1844   14.7677  -12.9425 C   0  0  0  0  0  0  0  0  0  0  0  0
   45.2345   13.3359  -13.4135 C   0  0  0  0  0  0  0  0  0  0  0  0
   44.8774   13.7404  -14.8591 C   0  0  0  0  0  0  0  0  0  0  0  0
   45.2321   15.1398  -14.4371 C   0  0  0  0  0  0  0  0  0  0  0  0
   43.4539   13.5457  -15.0704 N   0  0  0  0  0  0  0  0  0  0  0  0
   42.8887   12.9087  -16.0971 C   0  0  0  0  0  0  0  0  0  0  0  0
   41.5026   12.9159  -15.9164 C   0  0  0  0  0  0  0  0  0  0  0  0
   41.2750   13.5646  -14.7730 N   0  0  0  0  0  0  0  0  0  0  0  0
   42.4340   13.9529  -14.2479 C   0  0  0  0  0  0  0  0  0  0  0  0
   42.6302   14.7186  -13.0065 C   0  0  0  0  0  0  0  0  0  0  0  0
   41.4472   15.1008  -12.4217 C   0  0  0  0  0  0  0  0  0  0  0  0
   40.4785   12.3580  -16.8028 C   0  0  0  0  0  0  0  0  0  0  0  0
   40.6670   12.4001  -18.1994 N   0  0  0  0  0  0  0  0  0  0  0  0
   39.4586   11.8570  -16.3134 O   0  0  0  0  0  0  0  0  0  0  0  0
   41.4156   13.0009  -18.6047 H   0  0  0  0  0  0  0  0  0  0  0  0
   40.0393   11.8206  -18.8205 H   0  0  0  0  0  0  0  0  0  0  0  0
   39.1162   16.5672  -10.1706 C   0  0  0  0  0  0  0  0  0  0  0  0
   40.1647   16.2534  -10.6708 C   0  0  0  0  0  0  0  0  0  0  0  0
   36.7339   16.9626  -10.6201 C   0  0  0  0  0  0  0  0  0  0  0  0
   37.8180   16.9256   -9.5435 C   0  0  0  0  0  0  0  0  0  0  0  0
   37.5360   15.8797   -8.6548 O   0  0  0  0  0  0  0  0  0  0  0  0
   36.7254   15.4338   -8.9731 H   0  0  0  0  0  0  0  0  0  0  0  0
   37.8638   18.2492   -8.8926 C   0  0  0  0  0  0  0  0  0  0  0  0
   37.7917   18.4631   -7.5720 N   0  0  0  0  0  0  0  0  0  0  0  0
   37.8682   19.7973   -7.3543 C   0  0  0  0  0  0  0  0  0  0  0  0
   37.9859   20.4026   -8.5474 N   0  0  0  0  0  0  0  0  0  0  0  0
   37.9814   19.4515   -9.4653 N   0  0  0  0  0  0  0  0  0  0  0  0
   38.0660   21.4136   -8.7482 H   0  0  0  0  0  0  0  0  0  0  0  0
 23 24  1  0  0  0
 24 25  1  0  0  0
 24 21  1  0  0  0
 21 22  3  0  0  0
 22  1  1  0  0  0
  1  2  2  0  0  0
  2  3  1  0  0  0
  3  4  2  0  0  0
  4  5  1  0  0  0
  5  6  1  0  0  0
  6  7  1  0  0  0
  7  8  1  0  0  0
  7  9  1  0  0  0
  9 10  1  0  0  0
 10 11  2  0  0  0
 11 12  1  0  0  0
 12 13  2  0  0  0
 13 14  1  0  0  0
 14 15  2  0  0  0
 11 16  1  0  0  0
 16 17  1  0  0  0
 16 18  2  0  0  0
 24 27  1  0  0  0
 27 28  1  0  0  0
 28 29  2  0  0  0
 29 30  1  0  0  0
 30 31  1  0  0  0
 15  1  1  0  0  0
 31 27  2  0  0  0
 14  4  1  0  0  0
  8  5  1  0  0  0
 13  9  1  0  0  0
 25 26  1  0  0  0
 17 19  1  0  0  0
 17 20  1  0  0  0
 30 32  1  0  0  0
M  END
> <minimizedAffinity>
-7.27586

> <CNNscore>
0.1720895022

> <CNNaffinity>
5.5324454308

> <CNN_VS>
0.9520757794

> <CNNaffinity_variance>
0.0927183852

$$$$
[H]O[C@@]1(C#Cc2c([H])c([H])c3c(c2[H])-n2nc(C(=O)N([H])[H])c([H])c2C(F)(F)C([H])([H])O3)C(=O)N(C([H])([H])[H])C([H])([H])C1([H])[H]


 32 35  0  0  0  0  0  0  0  0999 V2000
   35.7549   13.0865  -13.1563 C   0  0  0  0  0  0  0  0  0  0  0  0
   34.4698   12.7477  -13.5773 C   0  0  0  0  0  0  0  0  0  0  0  0
   34.2914   12.1745  -14.8201 C   0  0  0  0  0  0  0  0  0  0  0  0
   35.4147   11.9581  -15.6056 C   0  0  0  0  0  0  0  0  0  0  0  0
   35.1009   11.3707  -16.8445 O   0  0  0  0  0  0  0  0  0  0  0  0
   35.8633   11.4043  -18.0380 C   0  0  0  0  0  0  0  0  0  0  0  0
   37.1321   10.6175  -17.7968 C   0  0  0  0  0  0  0  0  0  0  0  0
   36.7869    9.4652  -17.0851 F   0  0  0  0  0  0  0  0  0  0  0  0
   37.6923   10.1768  -18.9853 F   0  0  0  0  0  0  0  0  0  0  0  0
   38.1210   11.4024  -17.0280 C   0  0  0  0  0  0  0  0  0  0  0  0
   39.4504   11.5252  -17.3516 C   0  0  0  0  0  0  0  0  0  0  0  0
   40.0545   12.3440  -16.3864 C   0  0  0  0  0  0  0  0  0  0  0  0
   39.0610   12.6630  -15.5461 N   0  0  0  0  0  0  0  0  0  0  0  0
   37.9131   12.1165  -15.9088 N   0  0  0  0  0  0  0  0  0  0  0  0
   36.6825   12.2962  -15.1815 C   0  0  0  0  0  0  0  0  0  0  0  0
   36.8649   12.8669  -13.9457 C   0  0  0  0  0  0  0  0  0  0  0  0
   41.4635   12.7447  -16.3347 C   0  0  0  0  0  0  0  0  0  0  0  0
   42.3239   12.2083  -17.3200 N   0  0  0  0  0  0  0  0  0  0  0  0
   41.8979   13.5210  -15.4686 O   0  0  0  0  0  0  0  0  0  0  0  0
   43.0633   12.7770  -17.7282 H   0  0  0  0  0  0  0  0  0  0  0  0
   42.1923   11.2271  -17.6220 H   0  0  0  0  0  0  0  0  0  0  0  0
   36.2096   14.1968  -10.7876 C   0  0  0  0  0  0  0  0  0  0  0  0
   35.9914   13.6883  -11.8650 C   0  0  0  0  0  0  0  0  0  0  0  0
   36.6994   18.3147   -8.2352 C   0  0  0  0  0  0  0  0  0  0  0  0
   36.8432   16.9218   -8.6010 N   0  0  0  0  0  0  0  0  0  0  0  0
   37.9455   16.0822   -8.1746 C   0  0  0  0  0  0  0  0  0  0  0  0
   37.9762   15.0470   -9.2835 C   0  0  0  0  0  0  0  0  0  0  0  0
   36.4817   14.7891   -9.4755 C   0  0  0  0  0  0  0  0  0  0  0  0
   35.9965   13.9807   -8.4589 O   0  0  0  0  0  0  0  0  0  0  0  0
   35.9459   16.1699   -9.4193 C   0  0  0  0  0  0  0  0  0  0  0  0
   34.9191   16.6316   -9.9622 O   0  0  0  0  0  0  0  0  0  0  0  0
   36.6515   13.2244   -8.3584 H   0  0  0  0  0  0  0  0  0  0  0  0
 24 25  1  0  0  0
 25 26  1  0  0  0
 26 27  1  0  0  0
 27 28  1  0  0  0
 28 29  1  0  0  0
 28 22  1  0  0  0
 22 23  3  0  0  0
 23  1  1  0  0  0
  1  2  2  0  0  0
  2  3  1  0  0  0
  3  4  2  0  0  0
  4  5  1  0  0  0
  5  6  1  0  0  0
  6  7  1  0  0  0
  7  8  1  0  0  0
  7  9  1  0  0  0
  7 10  1  0  0  0
 10 11  2  0  0  0
 11 12  1  0  0  0
 12 13  2  0  0  0
 13 14  1  0  0  0
 14 15  1  0  0  0
 15 16  2  0  0  0
 12 17  1  0  0  0
 17 18  1  0  0  0
 17 19  2  0  0  0
 28 30  1  0  0  0
 30 31  2  0  0  0
 30 25  1  0  0  0
 16  1  1  0  0  0
 15  4  1  0  0  0
 14 10  1  0  0  0
 29 32  1  0  0  0
 18 20  1  0  0  0
 18 21  1  0  0  0
M  END
> <minimizedAffinity>
-9.11808

> <CNNscore>
0.6884042621

> <CNNaffinity>
6.9867615700

> <CNN_VS>
4.8097162247

> <CNNaffinity_variance>
0.3560101390

$$$$
[H]O[C@@]1(C#Cc2c([H])c([H])c3c(c2[H])-n2nc(C(=O)N([H])[H])c([H])c2C(F)(F)C([H])([H])O3)C(=O)N(C([H])([H])[H])C([H])([H])C1([H])[H]


 32 35  0  0  0  0  0  0  0  0999 V2000
   35.6620   13.3469  -13.0175 C   0  0  0  0  0  0  0  0  0  0  0  0
   34.3653   13.0190  -13.4105 C   0  0  0  0  0  0  0  0  0  0  0  0
   34.1605   12.3988  -14.6264 C   0  0  0  0  0  0  0  0  0  0  0  0
   35.2698   12.1257  -15.4141 C   0  0  0  0  0  0  0  0  0  0  0  0
   34.9294   11.4945  -16.6240 O   0  0  0  0  0  0  0  0  0  0  0  0
   35.6786   11.4621  -17.8259 C   0  0  0  0  0  0  0  0  0  0  0  0
   36.9330   10.6586  -17.5656 C   0  0  0  0  0  0  0  0  0  0  0  0
   36.5716    9.5445  -16.8029 F   0  0  0  0  0  0  0  0  0  0  0  0
   37.4701   10.1570  -18.7406 F   0  0  0  0  0  0  0  0  0  0  0  0
   37.9472   11.4530  -16.8406 C   0  0  0  0  0  0  0  0  0  0  0  0
   39.2751   11.5334  -17.1832 C   0  0  0  0  0  0  0  0  0  0  0  0
   39.9075   12.3782  -16.2594 C   0  0  0  0  0  0  0  0  0  0  0  0
   38.9307   12.7531  -15.4226 N   0  0  0  0  0  0  0  0  0  0  0  0
   37.7674   12.2171  -15.7500 N   0  0  0  0  0  0  0  0  0  0  0  0
   36.5493   12.4534  -15.0178 C   0  0  0  0  0  0  0  0  0  0  0  0
   36.7580   13.0707  -13.8088 C   0  0  0  0  0  0  0  0  0  0  0  0
   41.3251   12.7499  -16.2393 C   0  0  0  0  0  0  0  0  0  0  0  0
   42.1298   12.2848  -17.3048 N   0  0  0  0  0  0  0  0  0  0  0  0
   41.8134   13.4430  -15.3322 O   0  0  0  0  0  0  0  0  0  0  0  0
   42.8616   12.8739  -17.6975 H   0  0  0  0  0  0  0  0  0  0  0  0
   41.9651   11.3350  -17.6815 H   0  0  0  0  0  0  0  0  0  0  0  0
   36.1432   14.5595  -10.7049 C   0  0  0  0  0  0  0  0  0  0  0  0
   35.9261   13.9964  -11.7550 C   0  0  0  0  0  0  0  0  0  0  0  0
   39.2338   15.0260   -6.9709 C   0  0  0  0  0  0  0  0  0  0  0  0
   37.9978   15.0801   -7.7220 N   0  0  0  0  0  0  0  0  0  0  0  0
   36.6805   15.0454   -7.1173 C   0  0  0  0  0  0  0  0  0  0  0  0
   35.8475   14.4808   -8.2529 C   0  0  0  0  0  0  0  0  0  0  0  0
   36.4300   15.2447   -9.4421 C   0  0  0  0  0  0  0  0  0  0  0  0
   35.9469   16.5441   -9.4649 O   0  0  0  0  0  0  0  0  0  0  0  0
   37.8798   15.1739   -9.1423 C   0  0  0  0  0  0  0  0  0  0  0  0
   38.8433   15.1895   -9.9384 O   0  0  0  0  0  0  0  0  0  0  0  0
   34.9545   16.4824   -9.3152 H   0  0  0  0  0  0  0  0  0  0  0  0
 24 25  1  0  0  0
 25 26  1  0  0  0
 26 27  1  0  0  0
 27 28  1  0  0  0
 28 29  1  0  0  0
 28 22  1  0  0  0
 22 23  3  0  0  0
 23  1  1  0  0  0
  1  2  2  0  0  0
  2  3  1  0  0  0
  3  4  2  0  0  0
  4  5  1  0  0  0
  5  6  1  0  0  0
  6  7  1  0  0  0
  7  8  1  0  0  0
  7  9  1  0  0  0
  7 10  1  0  0  0
 10 11  2  0  0  0
 11 12  1  0  0  0
 12 13  2  0  0  0
 13 14  1  0  0  0
 14 15  1  0  0  0
 15 16  2  0  0  0
 12 17  1  0  0  0
 17 18  1  0  0  0
 17 19  2  0  0  0
 28 30  1  0  0  0
 30 31  2  0  0  0
 30 25  1  0  0  0
 16  1  1  0  0  0
 15  4  1  0  0  0
 14 10  1  0  0  0
 29 32  1  0  0  0
 18 20  1  0  0  0
 18 21  1  0  0  0
M  END
> <minimizedAffinity>
-8.75682

> <CNNscore>
0.5472673178

> <CNNaffinity>
6.7181105614

> <CNN_VS>
3.6766023636

> <CNNaffinity_variance>
0.3256172240

$$$$
[H]O[C@@]1(C#Cc2c([H])c([H])c3c(c2[H])-n2nc(C(=O)N([H])[H])c([H])c2C(F)(F)C([H])([H])O3)C(=O)N(C([H])([H])[H])C([H])([H])C1([H])[H]


 32 35  0  0  0  0  0  0  0  0999 V2000
   40.8444   15.6433  -12.7076 C   0  0  0  0  0  0  0  0  0  0  0  0
   39.8517   15.9959  -11.7945 C   0  0  0  0  0  0  0  0  0  0  0  0
   38.5875   15.4575  -11.9243 C   0  0  0  0  0  0  0  0  0  0  0  0
   38.3580   14.5773  -12.9722 C   0  0  0  0  0  0  0  0  0  0  0  0
   37.0351   14.1001  -12.9953 O   0  0  0  0  0  0  0  0  0  0  0  0
   36.3234   13.5710  -14.1000 C   0  0  0  0  0  0  0  0  0  0  0  0
   36.9789   12.2645  -14.4877 C   0  0  0  0  0  0  0  0  0  0  0  0
   37.2797   11.5757  -13.3094 F   0  0  0  0  0  0  0  0  0  0  0  0
   36.1099   11.4481  -15.1941 F   0  0  0  0  0  0  0  0  0  0  0  0
   38.2155   12.4865  -15.2666 C   0  0  0  0  0  0  0  0  0  0  0  0
   38.5370   11.8368  -16.4335 C   0  0  0  0  0  0  0  0  0  0  0  0
   39.7818   12.3177  -16.8650 C   0  0  0  0  0  0  0  0  0  0  0  0
   40.1328   13.2210  -15.9398 N   0  0  0  0  0  0  0  0  0  0  0  0
   39.2208   13.3339  -14.9893 N   0  0  0  0  0  0  0  0  0  0  0  0
   39.3457   14.2337  -13.8711 C   0  0  0  0  0  0  0  0  0  0  0  0
   40.6052   14.7669  -13.7460 C   0  0  0  0  0  0  0  0  0  0  0  0
   40.5124   11.9043  -18.0665 C   0  0  0  0  0  0  0  0  0  0  0  0
   41.9228   11.8556  -17.9798 N   0  0  0  0  0  0  0  0  0  0  0  0
   39.9318   11.6066  -19.1228 O   0  0  0  0  0  0  0  0  0  0  0  0
   42.4459   11.1174  -18.4468 H   0  0  0  0  0  0  0  0  0  0  0  0
   42.4182   12.5823  -17.4341 H   0  0  0  0  0  0  0  0  0  0  0  0
   43.3013   16.6384  -12.5529 C   0  0  0  0  0  0  0  0  0  0  0  0
   42.1816   16.1804  -12.6129 C   0  0  0  0  0  0  0  0  0  0  0  0
   48.0071   15.8192  -13.4996 C   0  0  0  0  0  0  0  0  0  0  0  0
   46.8278   16.3899  -12.8845 N   0  0  0  0  0  0  0  0  0  0  0  0
   46.8072   16.9682  -11.5552 C   0  0  0  0  0  0  0  0  0  0  0  0
   45.3483   16.7916  -11.1773 C   0  0  0  0  0  0  0  0  0  0  0  0
   44.6647   17.1709  -12.4910 C   0  0  0  0  0  0  0  0  0  0  0  0
   44.6647   18.5476  -12.6557 O   0  0  0  0  0  0  0  0  0  0  0  0
   45.5289   16.4730  -13.4725 C   0  0  0  0  0  0  0  0  0  0  0  0
   45.2271   16.0280  -14.6009 O   0  0  0  0  0  0  0  0  0  0  0  0
   44.3705   18.9400  -11.7779 H   0  0  0  0  0  0  0  0  0  0  0  0
 24 25  1  0  0  0
 25 26  1  0  0  0
 26 27  1  0  0  0
 27 28  1  0  0  0
 28 29  1  0  0  0
 28 22  1  0  0  0
 22 23  3  0  0  0
 23  1  1  0  0  0
  1  2  2  0  0  0
  2  3  1  0  0  0
  3  4  2  0  0  0
  4  5  1  0  0  0
  5  6  1  0  0  0
  6  7  1  0  0  0
  7  8  1  0  0  0
  7  9  1  0  0  0
  7 10  1  0  0  0
 10 11  2  0  0  0
 11 12  1  0  0  0
 12 13  2  0  0  0
 13 14  1  0  0  0
 14 15  1  0  0  0
 15 16  2  0  0  0
 12 17  1  0  0  0
 17 18  1  0  0  0
 17 19  2  0  0  0
 28 30  1  0  0  0
 30 31  2  0  0  0
 30 25  1  0  0  0
 16  1  1  0  0  0
 15  4  1  0  0  0
 14 10  1  0  0  0
 29 32  1  0  0  0
 18 20  1  0  0  0
 18 21  1  0  0  0
M  END
> <minimizedAffinity>
-8.95161

> <CNNscore>
0.4865727425

> <CNNaffinity>
6.2069649696

> <CNN_VS>
3.0201399326

> <CNNaffinity_variance>
0.2441761494

$$$$
[H]O[C@@]1(C#Cc2c([H])c([H])c3c(c2[H])-n2nc(C(=O)N([H])[H])c([H])c2C(F)(F)C([H])([H])O3)C(=O)N(C([H])([H])[H])C([H])([H])C1([H])[H]


 32 35  0  0  0  0  0  0  0  0999 V2000
   36.4323   14.5029  -12.6970 C   0  0  0  0  0  0  0  0  0  0  0  0
   35.0987   14.6690  -12.3260 C   0  0  0  0  0  0  0  0  0  0  0  0
   34.1090   14.0323  -13.0469 C   0  0  0  0  0  0  0  0  0  0  0  0
   34.4908   13.2445  -14.1236 C   0  0  0  0  0  0  0  0  0  0  0  0
   33.3932   12.6522  -14.7740 O   0  0  0  0  0  0  0  0  0  0  0  0
   33.3295   12.1736  -16.1058 C   0  0  0  0  0  0  0  0  0  0  0  0
   34.2505   10.9786  -16.2107 C   0  0  0  0  0  0  0  0  0  0  0  0
   34.0737   10.2055  -15.0599 F   0  0  0  0  0  0  0  0  0  0  0  0
   33.9052   10.1608  -17.2750 F   0  0  0  0  0  0  0  0  0  0  0  0
   35.6656   11.3908  -16.3235 C   0  0  0  0  0  0  0  0  0  0  0  0
   36.5584   10.8941  -17.2419 C   0  0  0  0  0  0  0  0  0  0  0  0
   37.7911   11.5285  -17.0304 C   0  0  0  0  0  0  0  0  0  0  0  0
   37.5691   12.3627  -16.0058 N   0  0  0  0  0  0  0  0  0  0  0  0
   36.3207   12.2950  -15.5758 N   0  0  0  0  0  0  0  0  0  0  0  0
   35.8123   13.0854  -14.4839 C   0  0  0  0  0  0  0  0  0  0  0  0
   36.8007   13.7172  -13.7695 C   0  0  0  0  0  0  0  0  0  0  0  0
   39.0308   11.3071  -17.7805 C   0  0  0  0  0  0  0  0  0  0  0  0
   40.2340   11.7496  -17.1844 N   0  0  0  0  0  0  0  0  0  0  0  0
   39.0400   10.7561  -18.8931 O   0  0  0  0  0  0  0  0  0  0  0  0
   41.0889   11.2040  -17.2749 H   0  0  0  0  0  0  0  0  0  0  0  0
   40.2348   12.6379  -16.6532 H   0  0  0  0  0  0  0  0  0  0  0  0
   38.3989   15.7065  -11.3802 C   0  0  0  0  0  0  0  0  0  0  0  0
   37.5025   15.1487  -11.9737 C   0  0  0  0  0  0  0  0  0  0  0  0
   43.2234   16.2847  -11.0599 C   0  0  0  0  0  0  0  0  0  0  0  0
   41.8310   16.2700  -10.6650 N   0  0  0  0  0  0  0  0  0  0  0  0
   41.3791   16.1182   -9.2958 C   0  0  0  0  0  0  0  0  0  0  0  0
   39.9963   15.5290   -9.5033 C   0  0  0  0  0  0  0  0  0  0  0  0
   39.5001   16.3712  -10.6786 C   0  0  0  0  0  0  0  0  0  0  0  0
   39.1187   17.6311  -10.2431 O   0  0  0  0  0  0  0  0  0  0  0  0
   40.7076   16.3993  -11.5376 C   0  0  0  0  0  0  0  0  0  0  0  0
   40.7793   16.5117  -12.7804 O   0  0  0  0  0  0  0  0  0  0  0  0
   38.5551   17.4909   -9.4223 H   0  0  0  0  0  0  0  0  0  0  0  0
 24 25  1  0  0  0
 25 26  1  0  0  0
 26 27  1  0  0  0
 27 28  1  0  0  0
 28 29  1  0  0  0
 28 22  1  0  0  0
 22 23  3  0  0  0
 23  1  1  0  0  0
  1  2  2  0  0  0
  2  3  1  0  0  0
  3  4  2  0  0  0
  4  5  1  0  0  0
  5  6  1  0  0  0
  6  7  1  0  0  0
  7  8  1  0  0  0
  7  9  1  0  0  0
  7 10  1  0  0  0
 10 11  2  0  0  0
 11 12  1  0  0  0
 12 13  2  0  0  0
 13 14  1  0  0  0
 14 15  1  0  0  0
 15 16  2  0  0  0
 12 17  1  0  0  0
 17 18  1  0  0  0
 17 19  2  0  0  0
 28 30  1  0  0  0
 30 31  2  0  0  0
 30 25  1  0  0  0
 16  1  1  0  0  0
 15  4  1  0  0  0
 14 10  1  0  0  0
 29 32  1  0  0  0
 18 20  1  0  0  0
 18 21  1  0  0  0
M  END
> <minimizedAffinity>
-8.55463

> <CNNscore>
0.4601010382

> <CNNaffinity>
6.6750922203

> <CNN_VS>
3.0712168217

> <CNNaffinity_variance>
0.2934200168

$$$$
[H]O[C@@]1(C#Cc2c([H])c([H])c3c(c2[H])-n2nc(C(=O)N([H])[H])c([H])c2C(F)(F)C([H])([H])O3)C(=O)N(C([H])([H])[H])C([H])([H])C1([H])[H]


 32 35  0  0  0  0  0  0  0  0999 V2000
   35.9335   13.9601  -12.3858 C   0  0  0  0  0  0  0  0  0  0  0  0
   34.6202   13.7155  -12.7843 C   0  0  0  0  0  0  0  0  0  0  0  0
   34.3809   13.1241  -14.0082 C   0  0  0  0  0  0  0  0  0  0  0  0
   35.4733   12.7949  -14.7981 C   0  0  0  0  0  0  0  0  0  0  0  0
   35.0979   12.2005  -16.0163 O   0  0  0  0  0  0  0  0  0  0  0  0
   35.8461   12.1384  -17.2177 C   0  0  0  0  0  0  0  0  0  0  0  0
   37.0496   11.2579  -16.9662 C   0  0  0  0  0  0  0  0  0  0  0  0
   36.6206   10.1580  -16.2181 F   0  0  0  0  0  0  0  0  0  0  0  0
   37.5578   10.7398  -18.1469 F   0  0  0  0  0  0  0  0  0  0  0  0
   38.1082   11.9809  -16.2301 C   0  0  0  0  0  0  0  0  0  0  0  0
   39.4392   11.9858  -16.5701 C   0  0  0  0  0  0  0  0  0  0  0  0
   40.1194   12.7794  -15.6350 C   0  0  0  0  0  0  0  0  0  0  0  0
   39.1653   13.2017  -14.7945 N   0  0  0  0  0  0  0  0  0  0  0  0
   37.9725   12.7406  -15.1300 N   0  0  0  0  0  0  0  0  0  0  0  0
   36.7694   13.0403  -14.3963 C   0  0  0  0  0  0  0  0  0  0  0  0
   37.0125   13.6287  -13.1793 C   0  0  0  0  0  0  0  0  0  0  0  0
   41.5567   13.0651  -15.6086 C   0  0  0  0  0  0  0  0  0  0  0  0
   42.2507   13.0001  -16.8387 N   0  0  0  0  0  0  0  0  0  0  0  0
   42.1536   13.3534  -14.5587 O   0  0  0  0  0  0  0  0  0  0  0  0
   42.9909   13.6658  -17.0524 H   0  0  0  0  0  0  0  0  0  0  0  0
   41.9960   12.2648  -17.5211 H   0  0  0  0  0  0  0  0  0  0  0  0
   36.4946   15.0758  -10.0426 C   0  0  0  0  0  0  0  0  0  0  0  0
   36.2338   14.5766  -11.1149 C   0  0  0  0  0  0  0  0  0  0  0  0
   35.1300   15.4749   -5.3853 C   0  0  0  0  0  0  0  0  0  0  0  0
   35.7603   15.8044   -6.6458 N   0  0  0  0  0  0  0  0  0  0  0  0
   36.0910   17.1546   -7.0574 C   0  0  0  0  0  0  0  0  0  0  0  0
   36.0807   17.0152   -8.5683 C   0  0  0  0  0  0  0  0  0  0  0  0
   36.7880   15.6704   -8.7361 C   0  0  0  0  0  0  0  0  0  0  0  0
   38.1550   15.8179   -8.5570 O   0  0  0  0  0  0  0  0  0  0  0  0
   36.1480   14.8767   -7.6603 C   0  0  0  0  0  0  0  0  0  0  0  0
   35.9619   13.6419   -7.6063 O   0  0  0  0  0  0  0  0  0  0  0  0
   38.4274   16.6251   -9.0911 H   0  0  0  0  0  0  0  0  0  0  0  0
 24 25  1  0  0  0
 25 26  1  0  0  0
 26 27  1  0  0  0
 27 28  1  0  0  0
 28 29  1  0  0  0
 28 22  1  0  0  0
 22 23  3  0  0  0
 23  1  1  0  0  0
  1  2  2  0  0  0
  2  3  1  0  0  0
  3  4  2  0  0  0
  4  5  1  0  0  0
  5  6  1  0  0  0
  6  7  1  0  0  0
  7  8  1  0  0  0
  7  9  1  0  0  0
  7 10  1  0  0  0
 10 11  2  0  0  0
 11 12  1  0  0  0
 12 13  2  0  0  0
 13 14  1  0  0  0
 14 15  1  0  0  0
 15 16  2  0  0  0
 12 17  1  0  0  0
 17 18  1  0  0  0
 17 19  2  0  0  0
 28 30  1  0  0  0
 30 31  2  0  0  0
 30 25  1  0  0  0
 16  1  1  0  0  0
 15  4  1  0  0  0
 14 10  1  0  0  0
 29 32  1  0  0  0
 18 20  1  0  0  0
 18 21  1  0  0  0
M  END
> <minimizedAffinity>
-7.72426

> <CNNscore>
0.4316608012

> <CNNaffinity>
6.5002961159

> <CNN_VS>
2.8059229851

> <CNNaffinity_variance>
0.3836586475

$$$$
[H]O[C@@]1(C#Cc2c([H])c([H])c3c(c2[H])-n2nc(C(=O)N([H])[H])c([H])c2C(F)(F)C([H])([H])O3)C(=O)N(C([H])([H])[H])C([H])([H])C1([H])[H]


 32 35  0  0  0  0  0  0  0  0999 V2000
   36.9952   13.1042  -13.6108 C   0  0  0  0  0  0  0  0  0  0  0  0
   35.8803   12.6073  -14.2843 C   0  0  0  0  0  0  0  0  0  0  0  0
   36.0371   12.0461  -15.5355 C   0  0  0  0  0  0  0  0  0  0  0  0
   37.3151   12.0010  -16.0743 C   0  0  0  0  0  0  0  0  0  0  0  0
   37.3417   11.4077  -17.3493 O   0  0  0  0  0  0  0  0  0  0  0  0
   38.3185   11.5721  -18.3620 C   0  0  0  0  0  0  0  0  0  0  0  0
   39.6068   10.9560  -17.8643 C   0  0  0  0  0  0  0  0  0  0  0  0
   39.2841    9.7508  -17.2344 F   0  0  0  0  0  0  0  0  0  0  0  0
   40.4509   10.6234  -18.9119 F   0  0  0  0  0  0  0  0  0  0  0  0
   40.3034   11.8468  -16.9122 C   0  0  0  0  0  0  0  0  0  0  0  0
   41.6416   12.1538  -16.9579 C   0  0  0  0  0  0  0  0  0  0  0  0
   41.9206   13.0220  -15.8923 C   0  0  0  0  0  0  0  0  0  0  0  0
   40.7435   13.1847  -15.2736 N   0  0  0  0  0  0  0  0  0  0  0  0
   39.7780   12.4989  -15.8613 N   0  0  0  0  0  0  0  0  0  0  0  0
   38.4127   12.4948  -15.4013 C   0  0  0  0  0  0  0  0  0  0  0  0
   38.2615   13.0542  -14.1561 C   0  0  0  0  0  0  0  0  0  0  0  0
   43.2221   13.6057  -15.5552 C   0  0  0  0  0  0  0  0  0  0  0  0
   44.1948   13.6504  -16.5803 N   0  0  0  0  0  0  0  0  0  0  0  0
   43.4748   14.0463  -14.4222 O   0  0  0  0  0  0  0  0  0  0  0  0
   44.8183   14.4505  -16.6692 H   0  0  0  0  0  0  0  0  0  0  0  0
   44.2653   12.8570  -17.2412 H   0  0  0  0  0  0  0  0  0  0  0  0
   36.7685   14.2106  -11.2077 C   0  0  0  0  0  0  0  0  0  0  0  0
   36.8811   13.7002  -12.3003 C   0  0  0  0  0  0  0  0  0  0  0  0
   37.3505   18.3007   -8.6300 C   0  0  0  0  0  0  0  0  0  0  0  0
   37.2216   16.8887   -8.9207 N   0  0  0  0  0  0  0  0  0  0  0  0
   37.7650   15.8368   -8.0839 C   0  0  0  0  0  0  0  0  0  0  0  0
   37.9408   14.7166   -9.0921 C   0  0  0  0  0  0  0  0  0  0  0  0
   36.6461   14.8479   -9.8942 C   0  0  0  0  0  0  0  0  0  0  0  0
   35.5816   14.3142   -9.1840 O   0  0  0  0  0  0  0  0  0  0  0  0
   36.5559   16.3193  -10.0488 C   0  0  0  0  0  0  0  0  0  0  0  0
   36.0163   16.9765  -10.9648 O   0  0  0  0  0  0  0  0  0  0  0  0
   35.8920   13.4260   -8.8291 H   0  0  0  0  0  0  0  0  0  0  0  0
 24 25  1  0  0  0
 25 26  1  0  0  0
 26 27  1  0  0  0
 27 28  1  0  0  0
 28 29  1  0  0  0
 28 22  1  0  0  0
 22 23  3  0  0  0
 23  1  1  0  0  0
  1  2  2  0  0  0
  2  3  1  0  0  0
  3  4  2  0  0  0
  4  5  1  0  0  0
  5  6  1  0  0  0
  6  7  1  0  0  0
  7  8  1  0  0  0
  7  9  1  0  0  0
  7 10  1  0  0  0
 10 11  2  0  0  0
 11 12  1  0  0  0
 12 13  2  0  0  0
 13 14  1  0  0  0
 14 15  1  0  0  0
 15 16  2  0  0  0
 12 17  1  0  0  0
 17 18  1  0  0  0
 17 19  2  0  0  0
 28 30  1  0  0  0
 30 31  2  0  0  0
 30 25  1  0  0  0
 16  1  1  0  0  0
 15  4  1  0  0  0
 14 10  1  0  0  0
 29 32  1  0  0  0
 18 20  1  0  0  0
 18 21  1  0  0  0
M  END
> <minimizedAffinity>
-8.50715

> <CNNscore>
0.4165283740

> <CNNaffinity>
6.4254164696

> <CNN_VS>
2.6763682365

> <CNNaffinity_variance>
0.2931607664

$$$$
[H]O[C@@]1(C#Cc2c([H])c([H])c3c(c2[H])-n2nc(C(=O)N([H])[H])c([H])c2C(F)(F)C([H])([H])O3)C(=O)N(C([H])([H])[H])C([H])([H])C1([H])[H]


 32 35  0  0  0  0  0  0  0  0999 V2000
   42.5359   14.2948  -13.8687 C   0  0  0  0  0  0  0  0  0  0  0  0
   42.2197   15.2102  -12.8659 C   0  0  0  0  0  0  0  0  0  0  0  0
   40.8956   15.4569  -12.5646 C   0  0  0  0  0  0  0  0  0  0  0  0
   39.9250   14.7735  -13.2833 C   0  0  0  0  0  0  0  0  0  0  0  0
   38.6199   15.1119  -12.8831 O   0  0  0  0  0  0  0  0  0  0  0  0
   37.4229   14.9826  -13.6298 C   0  0  0  0  0  0  0  0  0  0  0  0
   37.1597   13.5065  -13.8268 C   0  0  0  0  0  0  0  0  0  0  0  0
   37.4372   12.8619  -12.6181 F   0  0  0  0  0  0  0  0  0  0  0  0
   35.8223   13.2581  -14.0918 F   0  0  0  0  0  0  0  0  0  0  0  0
   38.0049   12.9418  -14.9001 C   0  0  0  0  0  0  0  0  0  0  0  0
   37.5519   12.1336  -15.9144 C   0  0  0  0  0  0  0  0  0  0  0  0
   38.6481   11.8059  -16.7256 C   0  0  0  0  0  0  0  0  0  0  0  0
   39.6871   12.4312  -16.1562 N   0  0  0  0  0  0  0  0  0  0  0  0
   39.3266   13.1063  -15.0781 N   0  0  0  0  0  0  0  0  0  0  0  0
   40.2464   13.8695  -14.2739 C   0  0  0  0  0  0  0  0  0  0  0  0
   41.5627   13.6208  -14.5772 C   0  0  0  0  0  0  0  0  0  0  0  0
   38.6300   10.9632  -17.9248 C   0  0  0  0  0  0  0  0  0  0  0  0
   37.4551   10.2164  -18.1716 N   0  0  0  0  0  0  0  0  0  0  0  0
   39.5973   10.8974  -18.7004 O   0  0  0  0  0  0  0  0  0  0  0  0
   37.1086   10.0934  -19.1210 H   0  0  0  0  0  0  0  0  0  0  0  0
   36.9503    9.7950  -17.3723 H   0  0  0  0  0  0  0  0  0  0  0  0
   45.0587   13.7522  -14.4945 C   0  0  0  0  0  0  0  0  0  0  0  0
   43.9062   14.0037  -14.2196 C   0  0  0  0  0  0  0  0  0  0  0  0
   49.3675   12.2290  -12.8135 C   0  0  0  0  0  0  0  0  0  0  0  0
   48.4025   12.8968  -13.6605 N   0  0  0  0  0  0  0  0  0  0  0  0
   48.7059   14.0571  -14.4752 C   0  0  0  0  0  0  0  0  0  0  0  0
   47.3376   14.7021  -14.5943 C   0  0  0  0  0  0  0  0  0  0  0  0
   46.4596   13.4708  -14.8179 C   0  0  0  0  0  0  0  0  0  0  0  0
   46.5837   13.0196  -16.1231 O   0  0  0  0  0  0  0  0  0  0  0  0
   47.0320   12.5300  -13.8259 C   0  0  0  0  0  0  0  0  0  0  0  0
   46.4686   11.5886  -13.2270 O   0  0  0  0  0  0  0  0  0  0  0  0
   46.5118   13.8304  -16.7135 H   0  0  0  0  0  0  0  0  0  0  0  0
 24 25  1  0  0  0
 25 26  1  0  0  0
 26 27  1  0  0  0
 27 28  1  0  0  0
 28 29  1  0  0  0
 28 22  1  0  0  0
 22 23  3  0  0  0
 23  1  1  0  0  0
  1  2  2  0  0  0
  2  3  1  0  0  0
  3  4  2  0  0  0
  4  5  1  0  0  0
  5  6  1  0  0  0
  6  7  1  0  0  0
  7  8  1  0  0  0
  7  9  1  0  0  0
  7 10  1  0  0  0
 10 11  2  0  0  0
 11 12  1  0  0  0
 12 13  2  0  0  0
 13 14  1  0  0  0
 14 15  1  0  0  0
 15 16  2  0  0  0
 12 17  1  0  0  0
 17 18  1  0  0  0
 17 19  2  0  0  0
 28 30  1  0  0  0
 30 31  2  0  0  0
 30 25  1  0  0  0
 16  1  1  0  0  0
 15  4  1  0  0  0
 14 10  1  0  0  0
 29 32  1  0  0  0
 18 20  1  0  0  0
 18 21  1  0  0  0
M  END
> <minimizedAffinity>
-8.33654

> <CNNscore>
0.3739629686

> <CNNaffinity>
6.2565488815

> <CNN_VS>
2.3397176266

> <CNNaffinity_variance>
0.1889767498

$$$$
[H]O[C@@]1(C#Cc2c([H])c([H])c3c(c2[H])-n2nc(C(=O)N([H])[H])c([H])c2C(F)(F)C([H])([H])O3)C(=O)N(C([H])([H])[H])C([H])([H])C1([H])[H]


 32 35  0  0  0  0  0  0  0  0999 V2000
   35.4432   14.3899  -13.0301 C   0  0  0  0  0  0  0  0  0  0  0  0
   34.1028   14.1105  -13.2923 C   0  0  0  0  0  0  0  0  0  0  0  0
   33.7754   13.2827  -14.3471 C   0  0  0  0  0  0  0  0  0  0  0  0
   34.8094   12.7584  -15.1097 C   0  0  0  0  0  0  0  0  0  0  0  0
   34.3464   11.9334  -16.1506 O   0  0  0  0  0  0  0  0  0  0  0  0
   35.0166   11.5947  -17.3519 C   0  0  0  0  0  0  0  0  0  0  0  0
   36.2153   10.7475  -16.9879 C   0  0  0  0  0  0  0  0  0  0  0  0
   35.8116    9.8449  -16.0002 F   0  0  0  0  0  0  0  0  0  0  0  0
   36.6380    9.9757  -18.0585 F   0  0  0  0  0  0  0  0  0  0  0  0
   37.3324   11.5739  -16.4835 C   0  0  0  0  0  0  0  0  0  0  0  0
   38.6393   11.4629  -16.8918 C   0  0  0  0  0  0  0  0  0  0  0  0
   39.3927   12.4128  -16.1867 C   0  0  0  0  0  0  0  0  0  0  0  0
   38.5018   13.0341  -15.4024 N   0  0  0  0  0  0  0  0  0  0  0  0
   37.2812   12.5525  -15.5640 N   0  0  0  0  0  0  0  0  0  0  0  0
   36.1328   13.0398  -14.8435 C   0  0  0  0  0  0  0  0  0  0  0  0
   36.4634   13.8631  -13.7951 C   0  0  0  0  0  0  0  0  0  0  0  0
   40.8344   12.6498  -16.3034 C   0  0  0  0  0  0  0  0  0  0  0  0
   41.4365   12.3671  -17.5510 N   0  0  0  0  0  0  0  0  0  0  0  0
   41.5117   13.0803  -15.3559 O   0  0  0  0  0  0  0  0  0  0  0  0
   42.1745   12.9648  -17.9181 H   0  0  0  0  0  0  0  0  0  0  0  0
   41.1166   11.5421  -18.0879 H   0  0  0  0  0  0  0  0  0  0  0  0
   36.1831   15.9655  -11.0251 C   0  0  0  0  0  0  0  0  0  0  0  0
   35.8348   15.2501  -11.9383 C   0  0  0  0  0  0  0  0  0  0  0  0
   38.3211   16.1140   -6.6525 C   0  0  0  0  0  0  0  0  0  0  0  0
   37.4838   16.5070   -7.7657 N   0  0  0  0  0  0  0  0  0  0  0  0
   36.3098   17.3482   -7.6386 C   0  0  0  0  0  0  0  0  0  0  0  0
   35.5019   16.9148   -8.8477 C   0  0  0  0  0  0  0  0  0  0  0  0
   36.6018   16.8111   -9.9043 C   0  0  0  0  0  0  0  0  0  0  0  0
   36.9663   18.0733  -10.3476 O   0  0  0  0  0  0  0  0  0  0  0  0
   37.6743   16.1393   -9.1327 C   0  0  0  0  0  0  0  0  0  0  0  0
   38.5850   15.3916   -9.5497 O   0  0  0  0  0  0  0  0  0  0  0  0
   36.1111   18.5709  -10.5266 H   0  0  0  0  0  0  0  0  0  0  0  0
 24 25  1  0  0  0
 25 26  1  0  0  0
 26 27  1  0  0  0
 27 28  1  0  0  0
 28 29  1  0  0  0
 28 22  1  0  0  0
 22 23  3  0  0  0
 23  1  1  0  0  0
  1  2  2  0  0  0
  2  3  1  0  0  0
  3  4  2  0  0  0
  4  5  1  0  0  0
  5  6  1  0  0  0
  6  7  1  0  0  0
  7  8  1  0  0  0
  7  9  1  0  0  0
  7 10  1  0  0  0
 10 11  2  0  0  0
 11 12  1  0  0  0
 12 13  2  0  0  0
 13 14  1  0  0  0
 14 15  1  0  0  0
 15 16  2  0  0  0
 12 17  1  0  0  0
 17 18  1  0  0  0
 17 19  2  0  0  0
 28 30  1  0  0  0
 30 31  2  0  0  0
 30 25  1  0  0  0
 16  1  1  0  0  0
 15  4  1  0  0  0
 14 10  1  0  0  0
 29 32  1  0  0  0
 18 20  1  0  0  0
 18 21  1  0  0  0
M  END
> <minimizedAffinity>
-8.12792

> <CNNscore>
0.3575329781

> <CNNaffinity>
6.5290193558

> <CNN_VS>
2.3343396187

> <CNNaffinity_variance>
0.3314346373

$$$$
[H]O[C@@]1(C#Cc2c([H])c([H])c3c(c2[H])-n2nc(C(=O)N([H])[H])c([H])c2C(F)(F)C([H])([H])O3)C(=O)N(C([H])([H])[H])C([H])([H])C1([H])[H]


 32 35  0  0  0  0  0  0  0  0999 V2000
   41.0366   12.4748  -16.0952 C   0  0  0  0  0  0  0  0  0  0  0  0
   41.2840   11.7823  -17.2797 C   0  0  0  0  0  0  0  0  0  0  0  0
   40.2361   11.1788  -17.9450 C   0  0  0  0  0  0  0  0  0  0  0  0
   38.9658   11.2898  -17.3975 C   0  0  0  0  0  0  0  0  0  0  0  0
   37.9882   10.6339  -18.1671 O   0  0  0  0  0  0  0  0  0  0  0  0
   36.7240   10.1578  -17.7402 C   0  0  0  0  0  0  0  0  0  0  0  0
   35.8766   11.3579  -17.3815 C   0  0  0  0  0  0  0  0  0  0  0  0
   36.0898   12.3341  -18.3587 F   0  0  0  0  0  0  0  0  0  0  0  0
   34.5241   11.0599  -17.4304 F   0  0  0  0  0  0  0  0  0  0  0  0
   36.2316   11.8963  -16.0513 C   0  0  0  0  0  0  0  0  0  0  0  0
   35.3286   12.2252  -15.0697 C   0  0  0  0  0  0  0  0  0  0  0  0
   36.0489   12.6989  -13.9635 C   0  0  0  0  0  0  0  0  0  0  0  0
   37.3322   12.6275  -14.3417 N   0  0  0  0  0  0  0  0  0  0  0  0
   37.4592   12.1563  -15.5705 N   0  0  0  0  0  0  0  0  0  0  0  0
   38.7297   11.9766  -16.2253 C   0  0  0  0  0  0  0  0  0  0  0  0
   39.7694   12.5787  -15.5597 C   0  0  0  0  0  0  0  0  0  0  0  0
   35.4930   13.1627  -12.6890 C   0  0  0  0  0  0  0  0  0  0  0  0
   34.1333   13.5502  -12.6805 N   0  0  0  0  0  0  0  0  0  0  0  0
   36.1744   13.2187  -11.6526 O   0  0  0  0  0  0  0  0  0  0  0  0
   33.5380   13.3362  -11.8826 H   0  0  0  0  0  0  0  0  0  0  0  0
   33.7497   14.0558  -13.4981 H   0  0  0  0  0  0  0  0  0  0  0  0
   42.9906   13.6507  -14.7353 C   0  0  0  0  0  0  0  0  0  0  0  0
   42.1003   13.1222  -15.3638 C   0  0  0  0  0  0  0  0  0  0  0  0
   44.5473   17.7965  -12.7102 C   0  0  0  0  0  0  0  0  0  0  0  0
   44.5919   16.4709  -13.2895 N   0  0  0  0  0  0  0  0  0  0  0  0
   45.7574   15.9135  -13.9475 C   0  0  0  0  0  0  0  0  0  0  0  0
   45.1165   14.9020  -14.8794 C   0  0  0  0  0  0  0  0  0  0  0  0
   44.0501   14.3035  -13.9621 C   0  0  0  0  0  0  0  0  0  0  0  0
   44.6263   13.4153  -13.0668 O   0  0  0  0  0  0  0  0  0  0  0  0
   43.5232   15.5234  -13.3056 C   0  0  0  0  0  0  0  0  0  0  0  0
   42.3806   15.7294  -12.8427 O   0  0  0  0  0  0  0  0  0  0  0  0
   45.2462   12.8321  -13.6022 H   0  0  0  0  0  0  0  0  0  0  0  0
 24 25  1  0  0  0
 25 26  1  0  0  0
 26 27  1  0  0  0
 27 28  1  0  0  0
 28 29  1  0  0  0
 28 22  1  0  0  0
 22 23  3  0  0  0
 23  1  1  0  0  0
  1  2  2  0  0  0
  2  3  1  0  0  0
  3  4  2  0  0  0
  4  5  1  0  0  0
  5  6  1  0  0  0
  6  7  1  0  0  0
  7  8  1  0  0  0
  7  9  1  0  0  0
  7 10  1  0  0  0
 10 11  2  0  0  0
 11 12  1  0  0  0
 12 13  2  0  0  0
 13 14  1  0  0  0
 14 15  1  0  0  0
 15 16  2  0  0  0
 12 17  1  0  0  0
 17 18  1  0  0  0
 17 19  2  0  0  0
 28 30  1  0  0  0
 30 31  2  0  0  0
 30 25  1  0  0  0
 16  1  1  0  0  0
 15  4  1  0  0  0
 14 10  1  0  0  0
 29 32  1  0  0  0
 18 20  1  0  0  0
 18 21  1  0  0  0
M  END
> <minimizedAffinity>
-8.79133

> <CNNscore>
0.3197582364

> <CNNaffinity>
6.4099707603

> <CNN_VS>
2.0496408939

> <CNNaffinity_variance>
0.1793419272

$$$$
[H]OC(C#Cc1c([H])c2c(c([H])c1F)C1([H])C([H])([H])C([H])(n3c-2nc(C(=O)N([H])[H])c3C([H])([H])N([H])C(=O)C2([H])C([H])([H])C([H])([H])C2([H])[H])C1([H])[H])(C([H])([H])[H])C([H])([H])[H]


 37 41  0  0  0  0  0  0  0  0999 V2000
   41.7535   16.0096  -12.3285 C   0  0  0  0  0  0  0  0  0  0  0  0
   41.4603   15.3050  -13.4695 C   0  0  0  0  0  0  0  0  0  0  0  0
   40.1982   14.7224  -13.5644 C   0  0  0  0  0  0  0  0  0  0  0  0
   40.0194   13.9117  -14.7764 C   0  0  0  0  0  0  0  0  0  0  0  0
   41.0442   13.4435  -15.5207 N   0  0  0  0  0  0  0  0  0  0  0  0
   40.5678   12.6541  -16.4468 C   0  0  0  0  0  0  0  0  0  0  0  0
   39.1764   12.6012  -16.3044 C   0  0  0  0  0  0  0  0  0  0  0  0
   38.8378   13.4020  -15.2465 N   0  0  0  0  0  0  0  0  0  0  0  0
   37.5435   13.5935  -14.6416 C   0  0  0  0  0  0  0  0  0  0  0  0
   37.3560   14.9430  -13.9888 C   0  0  0  0  0  0  0  0  0  0  0  0
   37.8697   14.3883  -12.6132 C   0  0  0  0  0  0  0  0  0  0  0  0
   37.6453   13.0248  -13.1914 C   0  0  0  0  0  0  0  0  0  0  0  0
   39.2709   14.8605  -12.5337 C   0  0  0  0  0  0  0  0  0  0  0  0
   39.5445   15.5519  -11.3962 C   0  0  0  0  0  0  0  0  0  0  0  0
   40.8128   16.1275  -11.3144 C   0  0  0  0  0  0  0  0  0  0  0  0
   41.1926   16.8062  -10.2168 F   0  0  0  0  0  0  0  0  0  0  0  0
   41.3655   11.9965  -17.5161 C   0  0  0  0  0  0  0  0  0  0  0  0
   42.7744   11.8254  -17.4377 N   0  0  0  0  0  0  0  0  0  0  0  0
   40.7480   11.5868  -18.5203 O   0  0  0  0  0  0  0  0  0  0  0  0
   43.1849   10.8863  -17.3028 H   0  0  0  0  0  0  0  0  0  0  0  0
   43.3743   12.6377  -17.5050 H   0  0  0  0  0  0  0  0  0  0  0  0
   44.0929   17.2609  -12.0967 C   0  0  0  0  0  0  0  0  0  0  0  0
   43.0349   16.6715  -12.1877 C   0  0  0  0  0  0  0  0  0  0  0  0
   46.4454   17.1096  -12.5291 C   0  0  0  0  0  0  0  0  0  0  0  0
   45.3333   18.0066  -12.0015 C   0  0  0  0  0  0  0  0  0  0  0  0
   45.3193   19.2376  -12.8826 C   0  0  0  0  0  0  0  0  0  0  0  0
   45.6473   18.4195  -10.7263 O   0  0  0  0  0  0  0  0  0  0  0  0
   45.0348   19.0895  -10.3463 H   0  0  0  0  0  0  0  0  0  0  0  0
   38.3010   11.6628  -17.0091 C   0  0  0  0  0  0  0  0  0  0  0  0
   37.1967   11.1377  -16.2455 N   0  0  0  0  0  0  0  0  0  0  0  0
   35.9483   11.0308  -16.9042 C   0  0  0  0  0  0  0  0  0  0  0  0
   35.8288   11.2882  -18.1230 O   0  0  0  0  0  0  0  0  0  0  0  0
   37.2428   10.8582  -15.2340 H   0  0  0  0  0  0  0  0  0  0  0  0
   34.6730   10.6308  -16.2076 C   0  0  0  0  0  0  0  0  0  0  0  0
   33.4296   11.3626  -16.5386 C   0  0  0  0  0  0  0  0  0  0  0  0
   33.4637   12.0883  -15.2344 C   0  0  0  0  0  0  0  0  0  0  0  0
   34.6462   11.2779  -14.8022 C   0  0  0  0  0  0  0  0  0  0  0  0
 24 25  1  0  0  0
 25 26  1  0  0  0
 25 27  1  0  0  0
 25 22  1  0  0  0
 22 23  3  0  0  0
 23  1  1  0  0  0
  1  2  1  0  0  0
  2  3  2  0  0  0
  3  4  1  0  0  0
  4  5  2  0  0  0
  5  6  1  0  0  0
  6 17  1  0  0  0
 17 18  1  0  0  0
 17 19  2  0  0  0
  6  7  2  0  0  0
  7 29  1  0  0  0
 29 30  1  0  0  0
 30 31  1  0  0  0
 31 32  2  0  0  0
 31 34  1  0  0  0
 34 35  1  0  0  0
 35 36  1  0  0  0
 36 37  1  0  0  0
  7  8  1  0  0  0
  8  9  1  0  0  0
  9 10  1  0  0  0
 10 11  1  0  0  0
 11 12  1  0  0  0
 11 13  1  0  0  0
 13 14  2  0  0  0
 14 15  1  0  0  0
 15 16  1  0  0  0
 15  1  2  0  0  0
 13  3  1  0  0  0
  8  4  1  0  0  0
 12  9  1  0  0  0
 37 34  1  0  0  0
 27 28  1  0  0  0
 18 20  1  0  0  0
 18 21  1  0  0  0
 30 33  1  0  0  0
M  END
> <minimizedAffinity>
-7.67415

> <CNNscore>
0.4571854770

> <CNNaffinity>
7.1418581009

> <CNN_VS>
3.2651538849

> <CNNaffinity_variance>
0.2208361626

$$$$
[H]OC(C#Cc1c([H])c2c(c([H])c1F)C1([H])C([H])([H])C([H])(n3c-2nc(C(=O)N([H])[H])c3C([H])([H])N([H])C(=O)C2([H])C([H])([H])C([H])([H])C2([H])[H])C1([H])[H])(C([H])([H])[H])C([H])([H])[H]


 37 41  0  0  0  0  0  0  0  0999 V2000
   40.7008   15.6457   -8.3261 C   0  0  0  0  0  0  0  0  0  0  0  0
   39.3582   15.7929   -8.0807 C   0  0  0  0  0  0  0  0  0  0  0  0
   38.9156   15.6123   -6.7720 C   0  0  0  0  0  0  0  0  0  0  0  0
   37.4554   15.6948   -6.6333 C   0  0  0  0  0  0  0  0  0  0  0  0
   36.5975   15.5627   -7.6675 N   0  0  0  0  0  0  0  0  0  0  0  0
   35.3755   15.5521   -7.2043 C   0  0  0  0  0  0  0  0  0  0  0  0
   35.4336   15.6811   -5.8118 C   0  0  0  0  0  0  0  0  0  0  0  0
   36.7535   15.7734   -5.4593 N   0  0  0  0  0  0  0  0  0  0  0  0
   37.3312   15.8140   -4.1393 C   0  0  0  0  0  0  0  0  0  0  0  0
   38.6484   16.5493   -4.0596 C   0  0  0  0  0  0  0  0  0  0  0  0
   39.4453   15.2226   -4.3213 C   0  0  0  0  0  0  0  0  0  0  0  0
   38.1725   14.5080   -3.9852 C   0  0  0  0  0  0  0  0  0  0  0  0
   39.8133   15.2986   -5.7536 C   0  0  0  0  0  0  0  0  0  0  0  0
   41.1448   15.1465   -5.9784 C   0  0  0  0  0  0  0  0  0  0  0  0
   41.5729   15.3279   -7.2938 C   0  0  0  0  0  0  0  0  0  0  0  0
   42.8668   15.1693   -7.6261 F   0  0  0  0  0  0  0  0  0  0  0  0
   34.1390   15.4971   -8.0291 C   0  0  0  0  0  0  0  0  0  0  0  0
   33.1446   14.4942   -7.8690 N   0  0  0  0  0  0  0  0  0  0  0  0
   33.9910   16.3812   -8.8975 O   0  0  0  0  0  0  0  0  0  0  0  0
   32.2201   14.7273   -7.4694 H   0  0  0  0  0  0  0  0  0  0  0  0
   33.3555   13.5426   -8.1416 H   0  0  0  0  0  0  0  0  0  0  0  0
   41.6879   15.9965  -10.7745 C   0  0  0  0  0  0  0  0  0  0  0  0
   41.2275   15.8597   -9.6590 C   0  0  0  0  0  0  0  0  0  0  0  0
   43.6888   16.5648  -11.9651 C   0  0  0  0  0  0  0  0  0  0  0  0
   42.2423   16.1105  -12.1099 C   0  0  0  0  0  0  0  0  0  0  0  0
   42.2803   14.7740  -12.8198 C   0  0  0  0  0  0  0  0  0  0  0  0
   41.5684   16.9893  -12.9278 O   0  0  0  0  0  0  0  0  0  0  0  0
   40.6531   16.7155  -13.1635 H   0  0  0  0  0  0  0  0  0  0  0  0
   34.2958   15.4970   -4.9090 C   0  0  0  0  0  0  0  0  0  0  0  0
   33.5163   16.6772   -4.6302 N   0  0  0  0  0  0  0  0  0  0  0  0
   32.1620   16.6694   -5.0423 C   0  0  0  0  0  0  0  0  0  0  0  0
   31.6362   15.6482   -5.5389 O   0  0  0  0  0  0  0  0  0  0  0  0
   33.8846   17.5483   -4.1734 H   0  0  0  0  0  0  0  0  0  0  0  0
   31.2574   17.8712   -4.9460 C   0  0  0  0  0  0  0  0  0  0  0  0
   30.5850   18.3476   -6.1757 C   0  0  0  0  0  0  0  0  0  0  0  0
   31.5011   19.5226   -6.2678 C   0  0  0  0  0  0  0  0  0  0  0  0
   32.1248   19.1526   -4.9579 C   0  0  0  0  0  0  0  0  0  0  0  0
 24 25  1  0  0  0
 25 26  1  0  0  0
 25 27  1  0  0  0
 25 22  1  0  0  0
 22 23  3  0  0  0
 23  1  1  0  0  0
  1  2  1  0  0  0
  2  3  2  0  0  0
  3  4  1  0  0  0
  4  5  2  0  0  0
  5  6  1  0  0  0
  6 17  1  0  0  0
 17 18  1  0  0  0
 17 19  2  0  0  0
  6  7  2  0  0  0
  7 29  1  0  0  0
 29 30  1  0  0  0
 30 31  1  0  0  0
 31 32  2  0  0  0
 31 34  1  0  0  0
 34 35  1  0  0  0
 35 36  1  0  0  0
 36 37  1  0  0  0
  7  8  1  0  0  0
  8  9  1  0  0  0
  9 10  1  0  0  0
 10 11  1  0  0  0
 11 12  1  0  0  0
 11 13  1  0  0  0
 13 14  2  0  0  0
 14 15  1  0  0  0
 15 16  1  0  0  0
 15  1  2  0  0  0
 13  3  1  0  0  0
  8  4  1  0  0  0
 12  9  1  0  0  0
 37 34  1  0  0  0
 27 28  1  0  0  0
 18 20  1  0  0  0
 18 21  1  0  0  0
 30 33  1  0  0  0
M  END
> <minimizedAffinity>
-5.93995

> <CNNscore>
0.3368183076

> <CNNaffinity>
5.9462361336

> <CNN_VS>
2.0028011799

> <CNNaffinity_variance>
0.4559608102

$$$$
[H]OC(C#Cc1c([H])c2c(c([H])c1F)C1([H])C([H])([H])C([H])(n3c-2nc(C(=O)N([H])[H])c3C([H])([H])N([H])C(=O)C2([H])C([H])([H])C([H])([H])C2([H])[H])C1([H])[H])(C([H])([H])[H])C([H])([H])[H]


 37 41  0  0  0  0  0  0  0  0999 V2000
   42.7575   14.0147  -14.3627 C   0  0  0  0  0  0  0  0  0  0  0  0
   41.5415   14.1839  -13.7486 C   0  0  0  0  0  0  0  0  0  0  0  0
   40.4238   13.6182  -14.3586 C   0  0  0  0  0  0  0  0  0  0  0  0
   39.1624   13.9383  -13.6769 C   0  0  0  0  0  0  0  0  0  0  0  0
   39.0203   14.9638  -12.8102 N   0  0  0  0  0  0  0  0  0  0  0  0
   37.7600   15.0665  -12.4799 C   0  0  0  0  0  0  0  0  0  0  0  0
   37.0470   14.0703  -13.1568 C   0  0  0  0  0  0  0  0  0  0  0  0
   37.9427   13.3594  -13.9101 N   0  0  0  0  0  0  0  0  0  0  0  0
   37.6835   12.3055  -14.8588 C   0  0  0  0  0  0  0  0  0  0  0  0
   38.8161   11.3182  -15.0158 C   0  0  0  0  0  0  0  0  0  0  0  0
   39.4357   12.1612  -16.1860 C   0  0  0  0  0  0  0  0  0  0  0  0
   38.1100   12.8548  -16.2564 C   0  0  0  0  0  0  0  0  0  0  0  0
   40.5473   12.9028  -15.5478 C   0  0  0  0  0  0  0  0  0  0  0  0
   41.7421   12.7274  -16.1710 C   0  0  0  0  0  0  0  0  0  0  0  0
   42.8517   13.3014  -15.5500 C   0  0  0  0  0  0  0  0  0  0  0  0
   44.0749   13.2112  -16.1027 F   0  0  0  0  0  0  0  0  0  0  0  0
   37.2015   16.0254  -11.4895 C   0  0  0  0  0  0  0  0  0  0  0  0
   36.2401   17.0163  -11.8274 N   0  0  0  0  0  0  0  0  0  0  0  0
   37.6130   15.9387  -10.3146 O   0  0  0  0  0  0  0  0  0  0  0  0
   35.2643   16.9395  -11.4948 H   0  0  0  0  0  0  0  0  0  0  0  0
   36.5193   17.7964  -12.4087 H   0  0  0  0  0  0  0  0  0  0  0  0
   44.9717   14.9541  -13.2195 C   0  0  0  0  0  0  0  0  0  0  0  0
   43.9620   14.5455  -13.7567 C   0  0  0  0  0  0  0  0  0  0  0  0
   46.2779   14.6559  -11.2323 C   0  0  0  0  0  0  0  0  0  0  0  0
   46.1856   15.3962  -12.5601 C   0  0  0  0  0  0  0  0  0  0  0  0
   47.4228   15.0220  -13.3480 C   0  0  0  0  0  0  0  0  0  0  0  0
   46.2412   16.7525  -12.3303 O   0  0  0  0  0  0  0  0  0  0  0  0
   46.2953   17.3071  -13.1414 H   0  0  0  0  0  0  0  0  0  0  0  0
   35.5867   13.9877  -13.2216 C   0  0  0  0  0  0  0  0  0  0  0  0
   35.0307   13.6801  -14.5157 N   0  0  0  0  0  0  0  0  0  0  0  0
   34.3566   12.4428  -14.6519 C   0  0  0  0  0  0  0  0  0  0  0  0
   34.1658   11.6914  -13.6696 O   0  0  0  0  0  0  0  0  0  0  0  0
   35.1140   14.2893  -15.3673 H   0  0  0  0  0  0  0  0  0  0  0  0
   33.8415   11.9178  -15.9675 C   0  0  0  0  0  0  0  0  0  0  0  0
   33.2324   10.5690  -15.9983 C   0  0  0  0  0  0  0  0  0  0  0  0
   34.4335   10.0000  -16.6783 C   0  0  0  0  0  0  0  0  0  0  0  0
   35.0328   11.3677  -16.7878 C   0  0  0  0  0  0  0  0  0  0  0  0
 24 25  1  0  0  0
 25 26  1  0  0  0
 25 27  1  0  0  0
 25 22  1  0  0  0
 22 23  3  0  0  0
 23  1  1  0  0  0
  1  2  1  0  0  0
  2  3  2  0  0  0
  3  4  1  0  0  0
  4  5  2  0  0  0
  5  6  1  0  0  0
  6 17  1  0  0  0
 17 18  1  0  0  0
 17 19  2  0  0  0
  6  7  2  0  0  0
  7 29  1  0  0  0
 29 30  1  0  0  0
 30 31  1  0  0  0
 31 32  2  0  0  0
 31 34  1  0  0  0
 34 35  1  0  0  0
 35 36  1  0  0  0
 36 37  1  0  0  0
  7  8  1  0  0  0
  8  9  1  0  0  0
  9 10  1  0  0  0
 10 11  1  0  0  0
 11 12  1  0  0  0
 11 13  1  0  0  0
 13 14  2  0  0  0
 14 15  1  0  0  0
 15 16  1  0  0  0
 15  1  2  0  0  0
 13  3  1  0  0  0
  8  4  1  0  0  0
 12  9  1  0  0  0
 37 34  1  0  0  0
 27 28  1  0  0  0
 18 20  1  0  0  0
 18 21  1  0  0  0
 30 33  1  0  0  0
M  END
> <minimizedAffinity>
-8.13560

> <CNNscore>
0.2279618233

> <CNNaffinity>
6.7782249451

> <CNN_VS>
1.5451765060

> <CNNaffinity_variance>
0.2306981385

$$$$
[H]OC(C#Cc1c([H])c2c(c([H])c1F)C1([H])C([H])([H])C([H])(n3c-2nc(C(=O)N([H])[H])c3C([H])([H])N([H])C(=O)C2([H])C([H])([H])C([H])([H])C2([H])[H])C1([H])[H])(C([H])([H])[H])C([H])([H])[H]


 37 41  0  0  0  0  0  0  0  0999 V2000
   39.7733   12.9968  -15.1943 C   0  0  0  0  0  0  0  0  0  0  0  0
   39.3725   13.5755  -14.0157 C   0  0  0  0  0  0  0  0  0  0  0  0
   38.0147   13.5386  -13.7051 C   0  0  0  0  0  0  0  0  0  0  0  0
   37.6774   14.2680  -12.4754 C   0  0  0  0  0  0  0  0  0  0  0  0
   38.4806   15.1958  -11.9122 N   0  0  0  0  0  0  0  0  0  0  0  0
   37.8475   15.7531  -10.9140 C   0  0  0  0  0  0  0  0  0  0  0  0
   36.5790   15.1692  -10.8188 C   0  0  0  0  0  0  0  0  0  0  0  0
   36.4808   14.2287  -11.8092 N   0  0  0  0  0  0  0  0  0  0  0  0
   35.3371   13.4372  -12.1877 C   0  0  0  0  0  0  0  0  0  0  0  0
   35.6820   12.1034  -12.8077 C   0  0  0  0  0  0  0  0  0  0  0  0
   35.6714   12.7299  -14.2469 C   0  0  0  0  0  0  0  0  0  0  0  0
   34.9469   13.8871  -13.6307 C   0  0  0  0  0  0  0  0  0  0  0  0
   37.1039   12.9284  -14.5651 C   0  0  0  0  0  0  0  0  0  0  0  0
   37.4821   12.3530  -15.7367 C   0  0  0  0  0  0  0  0  0  0  0  0
   38.8441   12.3998  -16.0354 C   0  0  0  0  0  0  0  0  0  0  0  0
   39.3160   11.8861  -17.1856 F   0  0  0  0  0  0  0  0  0  0  0  0
   38.4156   16.7716   -9.9908 C   0  0  0  0  0  0  0  0  0  0  0  0
   38.2016   18.1677  -10.1509 N   0  0  0  0  0  0  0  0  0  0  0  0
   39.1113   16.3578   -9.0410 O   0  0  0  0  0  0  0  0  0  0  0  0
   37.6020   18.6885   -9.4891 H   0  0  0  0  0  0  0  0  0  0  0  0
   38.6358   18.6471  -10.9293 H   0  0  0  0  0  0  0  0  0  0  0  0
   42.3587   12.9850  -15.8328 C   0  0  0  0  0  0  0  0  0  0  0  0
   41.1768   12.9683  -15.5537 C   0  0  0  0  0  0  0  0  0  0  0  0
   44.5201   13.0565  -14.7998 C   0  0  0  0  0  0  0  0  0  0  0  0
   43.7774   13.0378  -16.1294 C   0  0  0  0  0  0  0  0  0  0  0  0
   44.2452   11.8007  -16.8659 C   0  0  0  0  0  0  0  0  0  0  0  0
   44.1573   14.1285  -16.8788 O   0  0  0  0  0  0  0  0  0  0  0  0
   43.8068   14.1404  -17.7983 H   0  0  0  0  0  0  0  0  0  0  0  0
   35.4939   15.6655   -9.9704 C   0  0  0  0  0  0  0  0  0  0  0  0
   34.2293   15.8810  -10.6280 N   0  0  0  0  0  0  0  0  0  0  0  0
   33.0701   15.8811   -9.8155 C   0  0  0  0  0  0  0  0  0  0  0  0
   33.1460   15.7956   -8.5693 O   0  0  0  0  0  0  0  0  0  0  0  0
   34.1024   16.0075  -11.6630 H   0  0  0  0  0  0  0  0  0  0  0  0
   31.6693   15.9568  -10.3666 C   0  0  0  0  0  0  0  0  0  0  0  0
   30.7667   14.8021  -10.1589 C   0  0  0  0  0  0  0  0  0  0  0  0
   30.8970   14.3937  -11.5889 C   0  0  0  0  0  0  0  0  0  0  0  0
   31.7066   15.6199  -11.8765 C   0  0  0  0  0  0  0  0  0  0  0  0
 24 25  1  0  0  0
 25 26  1  0  0  0
 25 27  1  0  0  0
 25 22  1  0  0  0
 22 23  3  0  0  0
 23  1  1  0  0  0
  1  2  1  0  0  0
  2  3  2  0  0  0
  3  4  1  0  0  0
  4  5  2  0  0  0
  5  6  1  0  0  0
  6 17  1  0  0  0
 17 18  1  0  0  0
 17 19  2  0  0  0
  6  7  2  0  0  0
  7 29  1  0  0  0
 29 30  1  0  0  0
 30 31  1  0  0  0
 31 32  2  0  0  0
 31 34  1  0  0  0
 34 35  1  0  0  0
 35 36  1  0  0  0
 36 37  1  0  0  0
  7  8  1  0  0  0
  8  9  1  0  0  0
  9 10  1  0  0  0
 10 11  1  0  0  0
 11 12  1  0  0  0
 11 13  1  0  0  0
 13 14  2  0  0  0
 14 15  1  0  0  0
 15 16  1  0  0  0
 15  1  2  0  0  0
 13  3  1  0  0  0
  8  4  1  0  0  0
 12  9  1  0  0  0
 37 34  1  0  0  0
 27 28  1  0  0  0
 18 20  1  0  0  0
 18 21  1  0  0  0
 30 33  1  0  0  0
M  END
> <minimizedAffinity>
-9.79577

> <CNNscore>
0.2021261305

> <CNNaffinity>
6.4592905045

> <CNN_VS>
1.3055913448

> <CNNaffinity_variance>
0.2435652316

$$$$
[H]OC(C#Cc1c([H])c2c(c([H])c1F)C1([H])C([H])([H])C([H])(n3c-2nc(C(=O)N([H])[H])c3C([H])([H])N([H])C(=O)C2([H])C([H])([H])C([H])([H])C2([H])[H])C1([H])[H])(C([H])([H])[H])C([H])([H])[H]


 37 41  0  0  0  0  0  0  0  0999 V2000
   39.7217   12.9201  -15.3099 C   0  0  0  0  0  0  0  0  0  0  0  0
   39.2046   13.5340  -14.1963 C   0  0  0  0  0  0  0  0  0  0  0  0
   37.8243   13.4863  -14.0127 C   0  0  0  0  0  0  0  0  0  0  0  0
   37.3637   14.2537  -12.8478 C   0  0  0  0  0  0  0  0  0  0  0  0
   38.0986   15.2139  -12.2469 N   0  0  0  0  0  0  0  0  0  0  0  0
   37.3675   15.7963  -11.3335 C   0  0  0  0  0  0  0  0  0  0  0  0
   36.1032   15.1958  -11.3356 C   0  0  0  0  0  0  0  0  0  0  0  0
   36.1105   14.2189  -12.2952 N   0  0  0  0  0  0  0  0  0  0  0  0
   35.0175   13.3960  -12.7493 C   0  0  0  0  0  0  0  0  0  0  0  0
   35.4360   12.0467  -13.2845 C   0  0  0  0  0  0  0  0  0  0  0  0
   35.5527   12.6210  -14.7406 C   0  0  0  0  0  0  0  0  0  0  0  0
   34.7589   13.7877  -14.2381 C   0  0  0  0  0  0  0  0  0  0  0  0
   37.0062   12.8311  -14.9308 C   0  0  0  0  0  0  0  0  0  0  0  0
   37.5000   12.2204  -16.0398 C   0  0  0  0  0  0  0  0  0  0  0  0
   38.8833   12.2784  -16.2114 C   0  0  0  0  0  0  0  0  0  0  0  0
   39.4677   11.7315  -17.2927 F   0  0  0  0  0  0  0  0  0  0  0  0
   37.8334   16.8562  -10.3999 C   0  0  0  0  0  0  0  0  0  0  0  0
   37.3054   18.1759  -10.4001 N   0  0  0  0  0  0  0  0  0  0  0  0
   38.7321   16.5501   -9.5898 O   0  0  0  0  0  0  0  0  0  0  0  0
   36.7113   18.5063   -9.6212 H   0  0  0  0  0  0  0  0  0  0  0  0
   37.5091   18.7884  -11.1795 H   0  0  0  0  0  0  0  0  0  0  0  0
   42.3488   12.9267  -15.7462 C   0  0  0  0  0  0  0  0  0  0  0  0
   41.1530   12.9014  -15.5354 C   0  0  0  0  0  0  0  0  0  0  0  0
   44.4809   13.0306  -14.6566 C   0  0  0  0  0  0  0  0  0  0  0  0
   43.7737   13.0060  -16.0053 C   0  0  0  0  0  0  0  0  0  0  0  0
   44.2824   11.7814  -16.7354 C   0  0  0  0  0  0  0  0  0  0  0  0
   44.1535   14.1073  -16.7390 O   0  0  0  0  0  0  0  0  0  0  0  0
   43.8270   14.1180  -17.6673 H   0  0  0  0  0  0  0  0  0  0  0  0
   34.9370   15.7045  -10.6113 C   0  0  0  0  0  0  0  0  0  0  0  0
   34.7552   15.1957   -9.2748 N   0  0  0  0  0  0  0  0  0  0  0  0
   34.9228   16.1098   -8.2069 C   0  0  0  0  0  0  0  0  0  0  0  0
   35.1236   17.3273   -8.4148 O   0  0  0  0  0  0  0  0  0  0  0  0
   34.5381   14.1964   -9.0351 H   0  0  0  0  0  0  0  0  0  0  0  0
   34.9004   15.7047   -6.7554 C   0  0  0  0  0  0  0  0  0  0  0  0
   34.8784   14.2615   -6.4266 C   0  0  0  0  0  0  0  0  0  0  0  0
   33.4402   14.3337   -6.0328 C   0  0  0  0  0  0  0  0  0  0  0  0
   33.4506   15.8183   -6.2263 C   0  0  0  0  0  0  0  0  0  0  0  0
 24 25  1  0  0  0
 25 26  1  0  0  0
 25 27  1  0  0  0
 25 22  1  0  0  0
 22 23  3  0  0  0
 23  1  1  0  0  0
  1  2  1  0  0  0
  2  3  2  0  0  0
  3  4  1  0  0  0
  4  5  2  0  0  0
  5  6  1  0  0  0
  6 17  1  0  0  0
 17 18  1  0  0  0
 17 19  2  0  0  0
  6  7  2  0  0  0
  7 29  1  0  0  0
 29 30  1  0  0  0
 30 31  1  0  0  0
 31 32  2  0  0  0
 31 34  1  0  0  0
 34 35  1  0  0  0
 35 36  1  0  0  0
 36 37  1  0  0  0
  7  8  1  0  0  0
  8  9  1  0  0  0
  9 10  1  0  0  0
 10 11  1  0  0  0
 11 12  1  0  0  0
 11 13  1  0  0  0
 13 14  2  0  0  0
 14 15  1  0  0  0
 15 16  1  0  0  0
 15  1  2  0  0  0
 13  3  1  0  0  0
  8  4  1  0  0  0
 12  9  1  0  0  0
 37 34  1  0  0  0
 27 28  1  0  0  0
 18 20  1  0  0  0
 18 21  1  0  0  0
 30 33  1  0  0  0
M  END
> <minimizedAffinity>
-9.97407

> <CNNscore>
0.1879896075

> <CNNaffinity>
6.4240827560

> <CNN_VS>
1.2076607943

> <CNNaffinity_variance>
0.2164180577

$$$$
[H]OC(C#Cc1c([H])c2c(c([H])c1F)C1([H])C([H])([H])C([H])(n3c-2nc(C(=O)N([H])[H])c3C([H])([H])N([H])C(=O)C2([H])C([H])([H])C([H])([H])C2([H])[H])C1([H])[H])(C([H])([H])[H])C([H])([H])[H]


 37 41  0  0  0  0  0  0  0  0999 V2000
   36.4627   13.0023  -13.8710 C   0  0  0  0  0  0  0  0  0  0  0  0
   35.3059   13.5545  -13.3799 C   0  0  0  0  0  0  0  0  0  0  0  0
   35.3983   14.3341  -12.2287 C   0  0  0  0  0  0  0  0  0  0  0  0
   34.0958   14.7963  -11.7308 C   0  0  0  0  0  0  0  0  0  0  0  0
   32.9192   14.2336  -12.0805 N   0  0  0  0  0  0  0  0  0  0  0  0
   31.9639   14.7782  -11.3743 C   0  0  0  0  0  0  0  0  0  0  0  0
   32.5357   15.7347  -10.5274 C   0  0  0  0  0  0  0  0  0  0  0  0
   33.8848   15.7413  -10.7615 N   0  0  0  0  0  0  0  0  0  0  0  0
   34.9144   16.4746  -10.0686 C   0  0  0  0  0  0  0  0  0  0  0  0
   36.1262   16.7927  -10.9127 C   0  0  0  0  0  0  0  0  0  0  0  0
   36.8309   15.4635  -10.4650 C   0  0  0  0  0  0  0  0  0  0  0  0
   35.8157   15.4119   -9.3648 C   0  0  0  0  0  0  0  0  0  0  0  0
   36.6279   14.5442  -11.6081 C   0  0  0  0  0  0  0  0  0  0  0  0
   37.7826   14.0036  -12.0784 C   0  0  0  0  0  0  0  0  0  0  0  0
   37.6740   13.2236  -13.2301 C   0  0  0  0  0  0  0  0  0  0  0  0
   38.7536   12.6188  -13.7577 F   0  0  0  0  0  0  0  0  0  0  0  0
   30.5122   14.4857  -11.5133 C   0  0  0  0  0  0  0  0  0  0  0  0
   29.8102   14.6138  -12.7426 N   0  0  0  0  0  0  0  0  0  0  0  0
   29.9029   14.1152  -10.4892 O   0  0  0  0  0  0  0  0  0  0  0  0
   29.4757   13.7767  -13.2485 H   0  0  0  0  0  0  0  0  0  0  0  0
   29.6495   15.5371  -13.1248 H   0  0  0  0  0  0  0  0  0  0  0  0
   36.3691   11.5543  -16.1041 C   0  0  0  0  0  0  0  0  0  0  0  0
   36.4371   12.2146  -15.0870 C   0  0  0  0  0  0  0  0  0  0  0  0
   35.1171    9.7749  -17.1092 C   0  0  0  0  0  0  0  0  0  0  0  0
   36.2407   10.7804  -17.3240 C   0  0  0  0  0  0  0  0  0  0  0  0
   35.8273   11.6431  -18.4972 C   0  0  0  0  0  0  0  0  0  0  0  0
   37.3865   10.1115  -17.6915 O   0  0  0  0  0  0  0  0  0  0  0  0
   38.1370   10.6911  -17.9546 H   0  0  0  0  0  0  0  0  0  0  0  0
   31.8325   16.4065   -9.4330 C   0  0  0  0  0  0  0  0  0  0  0  0
   32.3955   16.2255   -8.1183 N   0  0  0  0  0  0  0  0  0  0  0  0
   31.5555   15.6632   -7.1273 C   0  0  0  0  0  0  0  0  0  0  0  0
   30.4065   15.2507   -7.4023 O   0  0  0  0  0  0  0  0  0  0  0  0
   33.3676   16.5057   -7.8355 H   0  0  0  0  0  0  0  0  0  0  0  0
   31.9500   15.5363   -5.6782 C   0  0  0  0  0  0  0  0  0  0  0  0
   33.2827   16.0303   -5.2646 C   0  0  0  0  0  0  0  0  0  0  0  0
   33.8007   14.6365   -5.1312 C   0  0  0  0  0  0  0  0  0  0  0  0
   32.4361   14.0906   -5.4166 C   0  0  0  0  0  0  0  0  0  0  0  0
 24 25  1  0  0  0
 25 26  1  0  0  0
 25 27  1  0  0  0
 25 22  1  0  0  0
 22 23  3  0  0  0
 23  1  1  0  0  0
  1  2  1  0  0  0
  2  3  2  0  0  0
  3  4  1  0  0  0
  4  5  2  0  0  0
  5  6  1  0  0  0
  6 17  1  0  0  0
 17 18  1  0  0  0
 17 19  2  0  0  0
  6  7  2  0  0  0
  7 29  1  0  0  0
 29 30  1  0  0  0
 30 31  1  0  0  0
 31 32  2  0  0  0
 31 34  1  0  0  0
 34 35  1  0  0  0
 35 36  1  0  0  0
 36 37  1  0  0  0
  7  8  1  0  0  0
  8  9  1  0  0  0
  9 10  1  0  0  0
 10 11  1  0  0  0
 11 12  1  0  0  0
 11 13  1  0  0  0
 13 14  2  0  0  0
 14 15  1  0  0  0
 15 16  1  0  0  0
 15  1  2  0  0  0
 13  3  1  0  0  0
  8  4  1  0  0  0
 12  9  1  0  0  0
 37 34  1  0  0  0
 27 28  1  0  0  0
 18 20  1  0  0  0
 18 21  1  0  0  0
 30 33  1  0  0  0
M  END
> <minimizedAffinity>
-6.91148

> <CNNscore>
0.1779383421

> <CNNaffinity>
6.4076704979

> <CNN_VS>
1.1401702166

> <CNNaffinity_variance>
0.0788388476

$$$$
[H]OC(C#Cc1c([H])c2c(c([H])c1F)C1([H])C([H])([H])C([H])(n3c-2nc(C(=O)N([H])[H])c3C([H])([H])N([H])C(=O)C2([H])C([H])([H])C([H])([H])C2([H])[H])C1([H])[H])(C([H])([H])[H])C([H])([H])[H]


 37 41  0  0  0  0  0  0  0  0999 V2000
   37.6311   11.5400  -16.4124 C   0  0  0  0  0  0  0  0  0  0  0  0
   37.9291   12.5266  -15.5057 C   0  0  0  0  0  0  0  0  0  0  0  0
   39.2615   12.9166  -15.3877 C   0  0  0  0  0  0  0  0  0  0  0  0
   39.4882   13.9054  -14.3252 C   0  0  0  0  0  0  0  0  0  0  0  0
   38.6200   14.1308  -13.3160 N   0  0  0  0  0  0  0  0  0  0  0  0
   39.1632   14.9652  -12.4695 C   0  0  0  0  0  0  0  0  0  0  0  0
   40.4380   15.2997  -12.9407 C   0  0  0  0  0  0  0  0  0  0  0  0
   40.6344   14.6265  -14.1169 N   0  0  0  0  0  0  0  0  0  0  0  0
   41.8248   14.5596  -14.9269 C   0  0  0  0  0  0  0  0  0  0  0  0
   41.5644   14.3258  -16.3965 C   0  0  0  0  0  0  0  0  0  0  0  0
   41.6602   12.7712  -16.2024 C   0  0  0  0  0  0  0  0  0  0  0  0
   42.3046   13.0746  -14.8848 C   0  0  0  0  0  0  0  0  0  0  0  0
   40.2491   12.3233  -16.1713 C   0  0  0  0  0  0  0  0  0  0  0  0
   39.9730   11.3437  -17.0718 C   0  0  0  0  0  0  0  0  0  0  0  0
   38.6352   10.9620  -17.1771 C   0  0  0  0  0  0  0  0  0  0  0  0
   38.2623    9.9796  -18.0171 F   0  0  0  0  0  0  0  0  0  0  0  0
   38.5009   15.5233  -11.2603 C   0  0  0  0  0  0  0  0  0  0  0  0
   38.6954   14.9932   -9.9559 N   0  0  0  0  0  0  0  0  0  0  0  0
   37.7416   16.5001  -11.4236 O   0  0  0  0  0  0  0  0  0  0  0  0
   39.2287   15.5223   -9.2457 H   0  0  0  0  0  0  0  0  0  0  0  0
   38.3136   14.0832   -9.7314 H   0  0  0  0  0  0  0  0  0  0  0  0
   35.0952   10.7951  -16.7395 C   0  0  0  0  0  0  0  0  0  0  0  0
   36.2584   11.1191  -16.6090 C   0  0  0  0  0  0  0  0  0  0  0  0
   33.6132    8.9454  -17.0944 C   0  0  0  0  0  0  0  0  0  0  0  0
   33.6927   10.4499  -16.8715 C   0  0  0  0  0  0  0  0  0  0  0  0
   32.9199   10.7380  -15.6021 C   0  0  0  0  0  0  0  0  0  0  0  0
   33.0464   11.0976  -17.9002 O   0  0  0  0  0  0  0  0  0  0  0  0
   32.9556   12.0706  -17.7835 H   0  0  0  0  0  0  0  0  0  0  0  0
   41.4444   16.0356  -12.1731 C   0  0  0  0  0  0  0  0  0  0  0  0
   42.3186   15.2356  -11.3521 N   0  0  0  0  0  0  0  0  0  0  0  0
   43.6858   15.1914  -11.7162 C   0  0  0  0  0  0  0  0  0  0  0  0
   44.1360   15.8921  -12.6502 O   0  0  0  0  0  0  0  0  0  0  0  0
   42.0124   14.6629  -10.5265 H   0  0  0  0  0  0  0  0  0  0  0  0
   44.6961   14.2976  -11.0438 C   0  0  0  0  0  0  0  0  0  0  0  0
   45.3465   13.2389  -11.8483 C   0  0  0  0  0  0  0  0  0  0  0  0
   44.5338   12.1790  -11.1815 C   0  0  0  0  0  0  0  0  0  0  0  0
   43.9452   13.1979  -10.2556 C   0  0  0  0  0  0  0  0  0  0  0  0
 24 25  1  0  0  0
 25 26  1  0  0  0
 25 27  1  0  0  0
 25 22  1  0  0  0
 22 23  3  0  0  0
 23  1  1  0  0  0
  1  2  1  0  0  0
  2  3  2  0  0  0
  3  4  1  0  0  0
  4  5  2  0  0  0
  5  6  1  0  0  0
  6 17  1  0  0  0
 17 18  1  0  0  0
 17 19  2  0  0  0
  6  7  2  0  0  0
  7 29  1  0  0  0
 29 30  1  0  0  0
 30 31  1  0  0  0
 31 32  2  0  0  0
 31 34  1  0  0  0
 34 35  1  0  0  0
 35 36  1  0  0  0
 36 37  1  0  0  0
  7  8  1  0  0  0
  8  9  1  0  0  0
  9 10  1  0  0  0
 10 11  1  0  0  0
 11 12  1  0  0  0
 11 13  1  0  0  0
 13 14  2  0  0  0
 14 15  1  0  0  0
 15 16  1  0  0  0
 15  1  2  0  0  0
 13  3  1  0  0  0
  8  4  1  0  0  0
 12  9  1  0  0  0
 37 34  1  0  0  0
 27 28  1  0  0  0
 18 20  1  0  0  0
 18 21  1  0  0  0
 30 33  1  0  0  0
M  END
> <minimizedAffinity>
-6.61212

> <CNNscore>
0.1724316776

> <CNNaffinity>
6.7022066116

> <CNN_VS>
1.1556727886

> <CNNaffinity_variance>
0.2322714329

$$$$
[H]OC(C#Cc1c([H])c2c(c([H])c1F)C1([H])C([H])([H])C([H])(n3c-2nc(C(=O)N([H])[H])c3C([H])([H])N([H])C(=O)C2([H])C([H])([H])C([H])([H])C2([H])[H])C1([H])[H])(C([H])([H])[H])C([H])([H])[H]


 37 41  0  0  0  0  0  0  0  0999 V2000
   37.4721   13.3687  -14.0283 C   0  0  0  0  0  0  0  0  0  0  0  0
   38.8283   13.5705  -14.0958 C   0  0  0  0  0  0  0  0  0  0  0  0
   39.5138   13.0088  -15.1710 C   0  0  0  0  0  0  0  0  0  0  0  0
   40.9687   13.1989  -15.0988 C   0  0  0  0  0  0  0  0  0  0  0  0
   41.6257   13.5179  -13.9631 N   0  0  0  0  0  0  0  0  0  0  0  0
   42.9114   13.4855  -14.1952 C   0  0  0  0  0  0  0  0  0  0  0  0
   43.1060   13.1303  -15.5350 C   0  0  0  0  0  0  0  0  0  0  0  0
   41.8713   12.9533  -16.0999 N   0  0  0  0  0  0  0  0  0  0  0  0
   41.5468   12.4830  -17.4233 C   0  0  0  0  0  0  0  0  0  0  0  0
   40.2332   12.9996  -17.9619 C   0  0  0  0  0  0  0  0  0  0  0  0
   39.4664   11.7601  -17.3794 C   0  0  0  0  0  0  0  0  0  0  0  0
   40.8123   11.1179  -17.2390 C   0  0  0  0  0  0  0  0  0  0  0  0
   38.8363   12.2739  -16.1417 C   0  0  0  0  0  0  0  0  0  0  0  0
   37.4950   12.0618  -16.0898 C   0  0  0  0  0  0  0  0  0  0  0  0
   36.8226   12.6281  -15.0065 C   0  0  0  0  0  0  0  0  0  0  0  0
   35.4987   12.4502  -14.8471 F   0  0  0  0  0  0  0  0  0  0  0  0
   43.9749   13.8475  -13.2205 C   0  0  0  0  0  0  0  0  0  0  0  0
   44.6864   12.8830  -12.4562 N   0  0  0  0  0  0  0  0  0  0  0  0
   44.2352   15.0601  -13.0822 O   0  0  0  0  0  0  0  0  0  0  0  0
   45.6830   12.6878  -12.6496 H   0  0  0  0  0  0  0  0  0  0  0  0
   44.2022   12.3793  -11.7241 H   0  0  0  0  0  0  0  0  0  0  0  0
   36.0433   14.4945  -12.0833 C   0  0  0  0  0  0  0  0  0  0  0  0
   36.6981   13.9606  -12.9558 C   0  0  0  0  0  0  0  0  0  0  0  0
   35.8296   16.5541  -10.8764 C   0  0  0  0  0  0  0  0  0  0  0  0
   35.2424   15.1630  -11.0757 C   0  0  0  0  0  0  0  0  0  0  0  0
   33.8129   15.3611  -11.5328 C   0  0  0  0  0  0  0  0  0  0  0  0
   35.1982   14.5094   -9.8648 O   0  0  0  0  0  0  0  0  0  0  0  0
   34.7341   13.6417   -9.8803 H   0  0  0  0  0  0  0  0  0  0  0  0
   44.3988   12.7782  -16.1251 C   0  0  0  0  0  0  0  0  0  0  0  0
   45.4529   13.7468  -15.9549 N   0  0  0  0  0  0  0  0  0  0  0  0
   46.6116   13.3253  -15.2594 C   0  0  0  0  0  0  0  0  0  0  0  0
   46.7578   12.1378  -14.8930 O   0  0  0  0  0  0  0  0  0  0  0  0
   45.4126   14.7445  -16.2809 H   0  0  0  0  0  0  0  0  0  0  0  0
   47.7381   14.2533  -14.8830 C   0  0  0  0  0  0  0  0  0  0  0  0
   48.3311   14.1305  -13.5323 C   0  0  0  0  0  0  0  0  0  0  0  0
   47.6577   15.3839  -13.0805 C   0  0  0  0  0  0  0  0  0  0  0  0
   47.1430   15.6197  -14.4665 C   0  0  0  0  0  0  0  0  0  0  0  0
 24 25  1  0  0  0
 25 26  1  0  0  0
 25 27  1  0  0  0
 25 22  1  0  0  0
 22 23  3  0  0  0
 23  1  1  0  0  0
  1  2  1  0  0  0
  2  3  2  0  0  0
  3  4  1  0  0  0
  4  5  2  0  0  0
  5  6  1  0  0  0
  6 17  1  0  0  0
 17 18  1  0  0  0
 17 19  2  0  0  0
  6  7  2  0  0  0
  7 29  1  0  0  0
 29 30  1  0  0  0
 30 31  1  0  0  0
 31 32  2  0  0  0
 31 34  1  0  0  0
 34 35  1  0  0  0
 35 36  1  0  0  0
 36 37  1  0  0  0
  7  8  1  0  0  0
  8  9  1  0  0  0
  9 10  1  0  0  0
 10 11  1  0  0  0
 11 12  1  0  0  0
 11 13  1  0  0  0
 13 14  2  0  0  0
 14 15  1  0  0  0
 15 16  1  0  0  0
 15  1  2  0  0  0
 13  3  1  0  0  0
  8  4  1  0  0  0
 12  9  1  0  0  0
 37 34  1  0  0  0
 27 28  1  0  0  0
 18 20  1  0  0  0
 18 21  1  0  0  0
 30 33  1  0  0  0
M  END
> <minimizedAffinity>
-8.21073

> <CNNscore>
0.1518879533

> <CNNaffinity>
6.8085184097

> <CNN_VS>
1.0341318846

> <CNNaffinity_variance>
0.1028766260

$$$$
[H]OC(C#Cc1c([H])c2c(c([H])c1F)C1([H])C([H])([H])C([H])(n3c-2nc(C(=O)N([H])[H])c3C([H])([H])N([H])C(=O)C2([H])C([H])([H])C([H])([H])C2([H])[H])C1([H])[H])(C([H])([H])[H])C([H])([H])[H]


 37 41  0  0  0  0  0  0  0  0999 V2000
   43.0984   15.4487  -10.2579 C   0  0  0  0  0  0  0  0  0  0  0  0
   42.0222   15.9278   -9.5532 C   0  0  0  0  0  0  0  0  0  0  0  0
   41.5147   15.1337   -8.5270 C   0  0  0  0  0  0  0  0  0  0  0  0
   40.3073   15.6898   -7.9015 C   0  0  0  0  0  0  0  0  0  0  0  0
   39.5344   16.6351   -8.4779 N   0  0  0  0  0  0  0  0  0  0  0  0
   38.4731   16.8219   -7.7386 C   0  0  0  0  0  0  0  0  0  0  0  0
   38.5518   15.9652   -6.6345 C   0  0  0  0  0  0  0  0  0  0  0  0
   39.7170   15.2543   -6.7444 N   0  0  0  0  0  0  0  0  0  0  0  0
   40.1952   14.1774   -5.9142 C   0  0  0  0  0  0  0  0  0  0  0  0
   41.7000   14.0547   -5.8609 C   0  0  0  0  0  0  0  0  0  0  0  0
   41.6974   13.0605   -7.0755 C   0  0  0  0  0  0  0  0  0  0  0  0
   40.2300   12.9050   -6.8180 C   0  0  0  0  0  0  0  0  0  0  0  0
   42.0901   13.8999   -8.2304 C   0  0  0  0  0  0  0  0  0  0  0  0
   43.1539   13.4086   -8.9188 C   0  0  0  0  0  0  0  0  0  0  0  0
   43.6495   14.2135   -9.9448 C   0  0  0  0  0  0  0  0  0  0  0  0
   44.6805   13.8041  -10.7058 F   0  0  0  0  0  0  0  0  0  0  0  0
   37.4115   17.8327   -7.9902 C   0  0  0  0  0  0  0  0  0  0  0  0
   37.4540   19.1501   -7.4581 N   0  0  0  0  0  0  0  0  0  0  0  0
   36.4473   17.4844   -8.7019 O   0  0  0  0  0  0  0  0  0  0  0  0
   37.6199   19.9629   -8.0749 H   0  0  0  0  0  0  0  0  0  0  0  0
   37.3301   19.2840   -6.4626 H   0  0  0  0  0  0  0  0  0  0  0  0
   44.2257   16.9313  -12.1613 C   0  0  0  0  0  0  0  0  0  0  0  0
   43.6957   16.2456  -11.3105 C   0  0  0  0  0  0  0  0  0  0  0  0
   45.9943   18.5271  -12.4250 C   0  0  0  0  0  0  0  0  0  0  0  0
   44.8984   17.7548  -13.1477 C   0  0  0  0  0  0  0  0  0  0  0  0
   45.5875   16.9181  -14.2044 C   0  0  0  0  0  0  0  0  0  0  0  0
   44.0721   18.6408  -13.8016 O   0  0  0  0  0  0  0  0  0  0  0  0
   43.3968   18.2237  -14.3834 H   0  0  0  0  0  0  0  0  0  0  0  0
   37.4601   15.7187   -5.6906 C   0  0  0  0  0  0  0  0  0  0  0  0
   36.1650   15.4765   -6.2756 N   0  0  0  0  0  0  0  0  0  0  0  0
   35.0730   16.2114   -5.7548 C   0  0  0  0  0  0  0  0  0  0  0  0
   35.2376   17.1027   -4.8920 O   0  0  0  0  0  0  0  0  0  0  0  0
   35.9682   14.7779   -7.0349 H   0  0  0  0  0  0  0  0  0  0  0  0
   33.6418   15.9750   -6.1642 C   0  0  0  0  0  0  0  0  0  0  0  0
   32.6617   15.6036   -5.1189 C   0  0  0  0  0  0  0  0  0  0  0  0
   32.6304   14.1895   -5.5962 C   0  0  0  0  0  0  0  0  0  0  0  0
   33.5175   14.5473   -6.7480 C   0  0  0  0  0  0  0  0  0  0  0  0
 24 25  1  0  0  0
 25 26  1  0  0  0
 25 27  1  0  0  0
 25 22  1  0  0  0
 22 23  3  0  0  0
 23  1  1  0  0  0
  1  2  1  0  0  0
  2  3  2  0  0  0
  3  4  1  0  0  0
  4  5  2  0  0  0
  5  6  1  0  0  0
  6 17  1  0  0  0
 17 18  1  0  0  0
 17 19  2  0  0  0
  6  7  2  0  0  0
  7 29  1  0  0  0
 29 30  1  0  0  0
 30 31  1  0  0  0
 31 32  2  0  0  0
 31 34  1  0  0  0
 34 35  1  0  0  0
 35 36  1  0  0  0
 36 37  1  0  0  0
  7  8  1  0  0  0
  8  9  1  0  0  0
  9 10  1  0  0  0
 10 11  1  0  0  0
 11 12  1  0  0  0
 11 13  1  0  0  0
 13 14  2  0  0  0
 14 15  1  0  0  0
 15 16  1  0  0  0
 15  1  2  0  0  0
 13  3  1  0  0  0
  8  4  1  0  0  0
 12  9  1  0  0  0
 37 34  1  0  0  0
 27 28  1  0  0  0
 18 20  1  0  0  0
 18 21  1  0  0  0
 30 33  1  0  0  0
M  END
> <minimizedAffinity>
-5.82474

> <CNNscore>
0.1485962123

> <CNNaffinity>
5.4854354858

> <CNN_VS>
0.8151149154

> <CNNaffinity_variance>
0.2094792426

$$$$
[H]O[C@](C#Cc1c([H])c([H])c2c(c1[H])-c1nc(C(=O)N([H])[H])sc1C1([H])C([H])([H])C2([H])C1([H])[H])(c1noc(C([H])([H])[H])c1[H])C([H])([H])[H]


 32 36  0  0  0  0  0  0  0  0999 V2000
   36.2473   13.5556  -13.5517 C   0  0  0  0  0  0  0  0  0  0  0  0
   34.9514   13.1835  -13.9348 C   0  0  0  0  0  0  0  0  0  0  0  0
   34.6979   12.4430  -15.0638 C   0  0  0  0  0  0  0  0  0  0  0  0
   35.7905   12.0685  -15.8289 C   0  0  0  0  0  0  0  0  0  0  0  0
   35.4025   11.2167  -16.9922 C   0  0  0  0  0  0  0  0  0  0  0  0
   36.2820    9.9470  -16.9496 C   0  0  0  0  0  0  0  0  0  0  0  0
   37.2157   10.5087  -17.9675 C   0  0  0  0  0  0  0  0  0  0  0  0
   36.1131   11.5456  -18.2823 C   0  0  0  0  0  0  0  0  0  0  0  0
   38.3625   11.2302  -17.3144 C   0  0  0  0  0  0  0  0  0  0  0  0
   40.0149   11.2204  -17.7415 S   0  0  0  0  0  0  0  0  0  0  0  0
   40.5849   12.2858  -16.5301 C   0  0  0  0  0  0  0  0  0  0  0  0
   39.4811   12.5881  -15.8670 N   0  0  0  0  0  0  0  0  0  0  0  0
   38.3437   12.0805  -16.2266 C   0  0  0  0  0  0  0  0  0  0  0  0
   37.0812   12.4209  -15.4849 C   0  0  0  0  0  0  0  0  0  0  0  0
   37.2943   13.1559  -14.3554 C   0  0  0  0  0  0  0  0  0  0  0  0
   41.9757   12.7443  -16.2989 C   0  0  0  0  0  0  0  0  0  0  0  0
   42.9874   12.2419  -17.1375 N   0  0  0  0  0  0  0  0  0  0  0  0
   42.2201   13.5463  -15.3935 O   0  0  0  0  0  0  0  0  0  0  0  0
   43.0636   12.5381  -18.1468 H   0  0  0  0  0  0  0  0  0  0  0  0
   43.6784   11.5527  -16.7771 H   0  0  0  0  0  0  0  0  0  0  0  0
   36.5401   14.9564  -11.3046 C   0  0  0  0  0  0  0  0  0  0  0  0
   36.4298   14.2992  -12.3279 C   0  0  0  0  0  0  0  0  0  0  0  0
   36.6170   15.7688  -10.1058 C   0  0  0  0  0  0  0  0  0  0  0  0
   38.0676   16.1234   -9.7636 C   0  0  0  0  0  0  0  0  0  0  0  0
   36.0218   17.0258  -10.3801 O   0  0  0  0  0  0  0  0  0  0  0  0
   36.5232   17.4092  -11.1146 H   0  0  0  0  0  0  0  0  0  0  0  0
   33.4176   14.4989   -6.3782 C   0  0  0  0  0  0  0  0  0  0  0  0
   34.5819   14.5924   -7.3070 C   0  0  0  0  0  0  0  0  0  0  0  0
   34.7693   15.4357   -8.3744 C   0  0  0  0  0  0  0  0  0  0  0  0
   36.0096   15.1385   -8.9389 C   0  0  0  0  0  0  0  0  0  0  0  0
   36.5020   14.1325   -8.1810 N   0  0  0  0  0  0  0  0  0  0  0  0
   35.6564   13.8311   -7.2403 O   0  0  0  0  0  0  0  0  0  0  0  0
 27 28  1  0  0  0
 28 29  2  0  0  0
 29 30  1  0  0  0
 30 31  2  0  0  0
 31 32  1  0  0  0
 30 23  1  0  0  0
 23 24  1  0  0  0
 23 25  1  0  0  0
 23 21  1  0  0  0
 21 22  3  0  0  0
 22  1  1  0  0  0
  1  2  2  0  0  0
  2  3  1  0  0  0
  3  4  2  0  0  0
  4  5  1  0  0  0
  5  6  1  0  0  0
  6  7  1  0  0  0
  7  8  1  0  0  0
  7  9  1  0  0  0
  9 10  1  0  0  0
 10 11  1  0  0  0
 11 12  2  0  0  0
 12 13  1  0  0  0
 13 14  1  0  0  0
 14 15  2  0  0  0
 11 16  1  0  0  0
 16 17  1  0  0  0
 16 18  2  0  0  0
 32 28  1  0  0  0
 15  1  1  0  0  0
 14  4  1  0  0  0
  8  5  1  0  0  0
 13  9  2  0  0  0
 25 26  1  0  0  0
 17 19  1  0  0  0
 17 20  1  0  0  0
M  END
> <minimizedAffinity>
-8.70019

> <CNNscore>
0.5934914947

> <CNNaffinity>
7.2253980637

> <CNN_VS>
4.2882122993

> <CNNaffinity_variance>
0.2790799141

$$$$
[H]O[C@](C#Cc1c([H])c([H])c2c(c1[H])-c1nc(C(=O)N([H])[H])sc1C1([H])C([H])([H])C2([H])C1([H])[H])(c1noc(C([H])([H])[H])c1[H])C([H])([H])[H]


 32 36  0  0  0  0  0  0  0  0999 V2000
   36.1161   13.0805  -13.4241 C   0  0  0  0  0  0  0  0  0  0  0  0
   34.8510   12.6798  -13.8753 C   0  0  0  0  0  0  0  0  0  0  0  0
   34.6625   12.0416  -15.0771 C   0  0  0  0  0  0  0  0  0  0  0  0
   35.7898   11.8025  -15.8461 C   0  0  0  0  0  0  0  0  0  0  0  0
   35.4739   11.0498  -17.0963 C   0  0  0  0  0  0  0  0  0  0  0  0
   36.4211    9.8305  -17.1542 C   0  0  0  0  0  0  0  0  0  0  0  0
   37.3434   10.5382  -18.0879 C   0  0  0  0  0  0  0  0  0  0  0  0
   36.1921   11.5412  -18.3294 C   0  0  0  0  0  0  0  0  0  0  0  0
   38.4347   11.2517  -17.3380 C   0  0  0  0  0  0  0  0  0  0  0  0
   40.0937   11.3714  -17.7206 S   0  0  0  0  0  0  0  0  0  0  0  0
   40.5785   12.3412  -16.3970 C   0  0  0  0  0  0  0  0  0  0  0  0
   39.4461   12.5180  -15.7368 N   0  0  0  0  0  0  0  0  0  0  0  0
   38.3462   11.9887  -16.1737 C   0  0  0  0  0  0  0  0  0  0  0  0
   37.0516   12.1871  -15.4358 C   0  0  0  0  0  0  0  0  0  0  0  0
   37.2001   12.8178  -14.2351 C   0  0  0  0  0  0  0  0  0  0  0  0
   41.9367   12.8477  -16.0860 C   0  0  0  0  0  0  0  0  0  0  0  0
   43.0029   12.4316  -16.9041 N   0  0  0  0  0  0  0  0  0  0  0  0
   42.1081   13.6142  -15.1343 O   0  0  0  0  0  0  0  0  0  0  0  0
   43.1058   12.7800  -17.8942 H   0  0  0  0  0  0  0  0  0  0  0  0
   43.7095   11.7561  -16.5480 H   0  0  0  0  0  0  0  0  0  0  0  0
   36.2800   14.2600  -11.0410 C   0  0  0  0  0  0  0  0  0  0  0  0
   36.2316   13.7088  -12.1296 C   0  0  0  0  0  0  0  0  0  0  0  0
   36.2770   14.9366   -9.7583 C   0  0  0  0  0  0  0  0  0  0  0  0
   35.4593   16.2310   -9.8116 C   0  0  0  0  0  0  0  0  0  0  0  0
   35.5682   14.1318   -8.8313 O   0  0  0  0  0  0  0  0  0  0  0  0
   34.6753   14.0257   -9.1909 H   0  0  0  0  0  0  0  0  0  0  0  0
   40.5367   15.1050   -7.0069 C   0  0  0  0  0  0  0  0  0  0  0  0
   39.4827   15.3112   -8.0429 C   0  0  0  0  0  0  0  0  0  0  0  0
   38.2211   14.7731   -8.1101 C   0  0  0  0  0  0  0  0  0  0  0  0
   37.6135   15.2562   -9.2689 C   0  0  0  0  0  0  0  0  0  0  0  0
   38.5419   16.0591   -9.8367 N   0  0  0  0  0  0  0  0  0  0  0  0
   39.6192   16.0755   -9.1087 O   0  0  0  0  0  0  0  0  0  0  0  0
 27 28  1  0  0  0
 28 29  2  0  0  0
 29 30  1  0  0  0
 30 31  2  0  0  0
 31 32  1  0  0  0
 30 23  1  0  0  0
 23 24  1  0  0  0
 23 25  1  0  0  0
 23 21  1  0  0  0
 21 22  3  0  0  0
 22  1  1  0  0  0
  1  2  2  0  0  0
  2  3  1  0  0  0
  3  4  2  0  0  0
  4  5  1  0  0  0
  5  6  1  0  0  0
  6  7  1  0  0  0
  7  8  1  0  0  0
  7  9  1  0  0  0
  9 10  1  0  0  0
 10 11  1  0  0  0
 11 12  2  0  0  0
 12 13  1  0  0  0
 13 14  1  0  0  0
 14 15  2  0  0  0
 11 16  1  0  0  0
 16 17  1  0  0  0
 16 18  2  0  0  0
 32 28  1  0  0  0
 15  1  1  0  0  0
 14  4  1  0  0  0
  8  5  1  0  0  0
 13  9  2  0  0  0
 25 26  1  0  0  0
 17 19  1  0  0  0
 17 20  1  0  0  0
M  END
> <minimizedAffinity>
-8.87493

> <CNNscore>
0.5340465903

> <CNNaffinity>
7.2090425491

> <CNN_VS>
3.8499646187

> <CNNaffinity_variance>
0.2999550402

$$$$
[H]O[C@](C#Cc1c([H])c([H])c2c(c1[H])-c1nc(C(=O)N([H])[H])sc1C1([H])C([H])([H])C2([H])C1([H])[H])(c1noc(C([H])([H])[H])c1[H])C([H])([H])[H]


 32 36  0  0  0  0  0  0  0  0999 V2000
   35.6979   13.4216  -13.7074 C   0  0  0  0  0  0  0  0  0  0  0  0
   34.4892   12.9479  -14.2358 C   0  0  0  0  0  0  0  0  0  0  0  0
   34.4275   12.2020  -15.3877 C   0  0  0  0  0  0  0  0  0  0  0  0
   35.6269   11.9279  -16.0247 C   0  0  0  0  0  0  0  0  0  0  0  0
   35.4452   11.0603  -17.2262 C   0  0  0  0  0  0  0  0  0  0  0  0
   36.4172    9.8673  -17.0866 C   0  0  0  0  0  0  0  0  0  0  0  0
   37.4096   10.5161  -17.9910 C   0  0  0  0  0  0  0  0  0  0  0  0
   36.2669   11.4617  -18.4267 C   0  0  0  0  0  0  0  0  0  0  0  0
   38.4111   11.3225  -17.2105 C   0  0  0  0  0  0  0  0  0  0  0  0
   40.0961   11.4544  -17.4474 S   0  0  0  0  0  0  0  0  0  0  0  0
   40.4348   12.5494  -16.1771 C   0  0  0  0  0  0  0  0  0  0  0  0
   39.2418   12.7517  -15.6429 N   0  0  0  0  0  0  0  0  0  0  0  0
   38.1986   12.1558  -16.1302 C   0  0  0  0  0  0  0  0  0  0  0  0
   36.8365   12.3820  -15.5358 C   0  0  0  0  0  0  0  0  0  0  0  0
   36.8586   13.1192  -14.3879 C   0  0  0  0  0  0  0  0  0  0  0  0
   41.7473   13.1188  -15.7888 C   0  0  0  0  0  0  0  0  0  0  0  0
   42.8342   12.9359  -16.6632 N   0  0  0  0  0  0  0  0  0  0  0  0
   41.8642   13.7351  -14.7262 O   0  0  0  0  0  0  0  0  0  0  0  0
   42.8918   13.4461  -17.5843 H   0  0  0  0  0  0  0  0  0  0  0  0
   43.6026   12.2779  -16.4202 H   0  0  0  0  0  0  0  0  0  0  0  0
   35.6430   14.7478  -11.3975 C   0  0  0  0  0  0  0  0  0  0  0  0
   35.6784   14.1637  -12.4694 C   0  0  0  0  0  0  0  0  0  0  0  0
   35.5792   15.3867  -10.0972 C   0  0  0  0  0  0  0  0  0  0  0  0
   34.1497   15.8209   -9.7579 C   0  0  0  0  0  0  0  0  0  0  0  0
   35.8768   14.4156   -9.1082 O   0  0  0  0  0  0  0  0  0  0  0  0
   35.2134   13.7169   -9.2054 H   0  0  0  0  0  0  0  0  0  0  0  0
   37.8869   19.5863   -8.4296 C   0  0  0  0  0  0  0  0  0  0  0  0
   37.4594   18.3964   -9.2221 C   0  0  0  0  0  0  0  0  0  0  0  0
   36.4698   17.4853   -8.9459 C   0  0  0  0  0  0  0  0  0  0  0  0
   36.4535   16.5483   -9.9790 C   0  0  0  0  0  0  0  0  0  0  0  0
   37.4340   16.9458  -10.8213 N   0  0  0  0  0  0  0  0  0  0  0  0
   38.0052   18.0199  -10.3618 O   0  0  0  0  0  0  0  0  0  0  0  0
 27 28  1  0  0  0
 28 29  2  0  0  0
 29 30  1  0  0  0
 30 31  2  0  0  0
 31 32  1  0  0  0
 30 23  1  0  0  0
 23 24  1  0  0  0
 23 25  1  0  0  0
 23 21  1  0  0  0
 21 22  3  0  0  0
 22  1  1  0  0  0
  1  2  2  0  0  0
  2  3  1  0  0  0
  3  4  2  0  0  0
  4  5  1  0  0  0
  5  6  1  0  0  0
  6  7  1  0  0  0
  7  8  1  0  0  0
  7  9  1  0  0  0
  9 10  1  0  0  0
 10 11  1  0  0  0
 11 12  2  0  0  0
 12 13  1  0  0  0
 13 14  1  0  0  0
 14 15  2  0  0  0
 11 16  1  0  0  0
 16 17  1  0  0  0
 16 18  2  0  0  0
 32 28  1  0  0  0
 15  1  1  0  0  0
 14  4  1  0  0  0
  8  5  1  0  0  0
 13  9  2  0  0  0
 25 26  1  0  0  0
 17 19  1  0  0  0
 17 20  1  0  0  0
M  END
> <minimizedAffinity>
-9.13307

> <CNNscore>
0.5028569102

> <CNNaffinity>
7.2216062546

> <CNN_VS>
3.6314346790

> <CNNaffinity_variance>
0.2883456349

$$$$
[H]O[C@](C#Cc1c([H])c([H])c2c(c1[H])-c1nc(C(=O)N([H])[H])sc1C1([H])C([H])([H])C2([H])C1([H])[H])(c1noc(C([H])([H])[H])c1[H])C([H])([H])[H]


 32 36  0  0  0  0  0  0  0  0999 V2000
   38.7024   14.3406  -13.4522 C   0  0  0  0  0  0  0  0  0  0  0  0
   40.0867   14.3736  -13.6694 C   0  0  0  0  0  0  0  0  0  0  0  0
   40.6913   13.6855  -14.6932 C   0  0  0  0  0  0  0  0  0  0  0  0
   39.8686   12.9402  -15.5221 C   0  0  0  0  0  0  0  0  0  0  0  0
   40.6239   12.2885  -16.6331 C   0  0  0  0  0  0  0  0  0  0  0  0
   39.9139   12.6584  -17.9546 C   0  0  0  0  0  0  0  0  0  0  0  0
   39.1971   11.3511  -17.9842 C   0  0  0  0  0  0  0  0  0  0  0  0
   40.2152   10.8657  -16.9269 C   0  0  0  0  0  0  0  0  0  0  0  0
   37.8502   11.4541  -17.3228 C   0  0  0  0  0  0  0  0  0  0  0  0
   36.3639   10.7716  -17.8106 S   0  0  0  0  0  0  0  0  0  0  0  0
   35.3968   11.3511  -16.5236 C   0  0  0  0  0  0  0  0  0  0  0  0
   36.2635   12.0341  -15.7943 N   0  0  0  0  0  0  0  0  0  0  0  0
   37.5052   12.1120  -16.1588 C   0  0  0  0  0  0  0  0  0  0  0  0
   38.5011   12.8803  -15.3356 C   0  0  0  0  0  0  0  0  0  0  0  0
   37.9360   13.5784  -14.3086 C   0  0  0  0  0  0  0  0  0  0  0  0
   33.9480   11.1300  -16.2995 C   0  0  0  0  0  0  0  0  0  0  0  0
   33.4536   11.2532  -14.9882 N   0  0  0  0  0  0  0  0  0  0  0  0
   33.2111   10.8493  -17.2487 O   0  0  0  0  0  0  0  0  0  0  0  0
   33.3778   12.1923  -14.5143 H   0  0  0  0  0  0  0  0  0  0  0  0
   33.1624   10.4104  -14.4521 H   0  0  0  0  0  0  0  0  0  0  0  0
   37.6206   15.7798  -11.4886 C   0  0  0  0  0  0  0  0  0  0  0  0
   38.1428   15.1261  -12.3781 C   0  0  0  0  0  0  0  0  0  0  0  0
   36.9423   16.5406  -10.4570 C   0  0  0  0  0  0  0  0  0  0  0  0
   37.5736   16.3028   -9.0815 C   0  0  0  0  0  0  0  0  0  0  0  0
   37.1716   17.9189  -10.6959 O   0  0  0  0  0  0  0  0  0  0  0  0
   38.1317   18.0429  -10.6703 H   0  0  0  0  0  0  0  0  0  0  0  0
   32.1770   15.1815  -11.5474 C   0  0  0  0  0  0  0  0  0  0  0  0
   33.4235   15.6412  -10.8679 C   0  0  0  0  0  0  0  0  0  0  0  0
   34.6806   15.8119  -11.3934 C   0  0  0  0  0  0  0  0  0  0  0  0
   35.5159   16.2490  -10.3655 C   0  0  0  0  0  0  0  0  0  0  0  0
   34.7167   16.3180   -9.2767 N   0  0  0  0  0  0  0  0  0  0  0  0
   33.5068   15.9600   -9.5911 O   0  0  0  0  0  0  0  0  0  0  0  0
 27 28  1  0  0  0
 28 29  2  0  0  0
 29 30  1  0  0  0
 30 31  2  0  0  0
 31 32  1  0  0  0
 30 23  1  0  0  0
 23 24  1  0  0  0
 23 25  1  0  0  0
 23 21  1  0  0  0
 21 22  3  0  0  0
 22  1  1  0  0  0
  1  2  2  0  0  0
  2  3  1  0  0  0
  3  4  2  0  0  0
  4  5  1  0  0  0
  5  6  1  0  0  0
  6  7  1  0  0  0
  7  8  1  0  0  0
  7  9  1  0  0  0
  9 10  1  0  0  0
 10 11  1  0  0  0
 11 12  2  0  0  0
 12 13  1  0  0  0
 13 14  1  0  0  0
 14 15  2  0  0  0
 11 16  1  0  0  0
 16 17  1  0  0  0
 16 18  2  0  0  0
 32 28  1  0  0  0
 15  1  1  0  0  0
 14  4  1  0  0  0
  8  5  1  0  0  0
 13  9  2  0  0  0
 25 26  1  0  0  0
 17 19  1  0  0  0
 17 20  1  0  0  0
M  END
> <minimizedAffinity>
-9.16420

> <CNNscore>
0.3854678571

> <CNNaffinity>
7.0785026550

> <CNN_VS>
2.7285351753

> <CNNaffinity_variance>
0.0922534168

$$$$
[H]O[C@](C#Cc1c([H])c([H])c2c(c1[H])-c1nc(C(=O)N([H])[H])sc1C1([H])C([H])([H])C2([H])C1([H])[H])(c1noc(C([H])([H])[H])c1[H])C([H])([H])[H]


 32 36  0  0  0  0  0  0  0  0999 V2000
   38.9595   14.2889  -13.6243 C   0  0  0  0  0  0  0  0  0  0  0  0
   40.3347   14.3134  -13.8942 C   0  0  0  0  0  0  0  0  0  0  0  0
   40.8965   13.6153  -14.9355 C   0  0  0  0  0  0  0  0  0  0  0  0
   40.0392   12.8686  -15.7273 C   0  0  0  0  0  0  0  0  0  0  0  0
   40.7485   12.2056  -16.8617 C   0  0  0  0  0  0  0  0  0  0  0  0
   39.9905   12.5703  -18.1578 C   0  0  0  0  0  0  0  0  0  0  0  0
   39.2668   11.2666  -18.1511 C   0  0  0  0  0  0  0  0  0  0  0  0
   40.3220   10.7831  -17.1300 C   0  0  0  0  0  0  0  0  0  0  0  0
   37.9466   11.3809  -17.4396 C   0  0  0  0  0  0  0  0  0  0  0  0
   36.4394   10.7027  -17.8658 S   0  0  0  0  0  0  0  0  0  0  0  0
   35.5249   11.2957  -16.5470 C   0  0  0  0  0  0  0  0  0  0  0  0
   36.4220   11.9792  -15.8560 N   0  0  0  0  0  0  0  0  0  0  0  0
   37.6493   12.0484  -16.2680 C   0  0  0  0  0  0  0  0  0  0  0  0
   38.6795   12.8170  -15.4886 C   0  0  0  0  0  0  0  0  0  0  0  0
   38.1573   13.5249  -14.4456 C   0  0  0  0  0  0  0  0  0  0  0  0
   34.0847   11.0836  -16.2665 C   0  0  0  0  0  0  0  0  0  0  0  0
   33.6064   11.3969  -14.9810 N   0  0  0  0  0  0  0  0  0  0  0  0
   33.3406   10.6464  -17.1485 O   0  0  0  0  0  0  0  0  0  0  0  0
   33.5169   12.3959  -14.6552 H   0  0  0  0  0  0  0  0  0  0  0  0
   33.3414   10.6408  -14.3173 H   0  0  0  0  0  0  0  0  0  0  0  0
   38.0431   15.7315  -11.5807 C   0  0  0  0  0  0  0  0  0  0  0  0
   38.4451   15.0844  -12.5351 C   0  0  0  0  0  0  0  0  0  0  0  0
   37.6077   16.4676  -10.4095 C   0  0  0  0  0  0  0  0  0  0  0  0
   38.7590   17.2691   -9.7937 C   0  0  0  0  0  0  0  0  0  0  0  0
   36.6910   17.4657  -10.8255 O   0  0  0  0  0  0  0  0  0  0  0  0
   37.1678   18.0273  -11.4541 H   0  0  0  0  0  0  0  0  0  0  0  0
   36.2525   14.4974   -5.9346 C   0  0  0  0  0  0  0  0  0  0  0  0
   36.4429   14.7705   -7.3892 C   0  0  0  0  0  0  0  0  0  0  0  0
   37.1594   15.7746   -7.9925 C   0  0  0  0  0  0  0  0  0  0  0  0
   37.0317   15.6185   -9.3726 C   0  0  0  0  0  0  0  0  0  0  0  0
   36.2453   14.5289   -9.5257 N   0  0  0  0  0  0  0  0  0  0  0  0
   35.9146   14.0535   -8.3615 O   0  0  0  0  0  0  0  0  0  0  0  0
 27 28  1  0  0  0
 28 29  2  0  0  0
 29 30  1  0  0  0
 30 31  2  0  0  0
 31 32  1  0  0  0
 30 23  1  0  0  0
 23 24  1  0  0  0
 23 25  1  0  0  0
 23 21  1  0  0  0
 21 22  3  0  0  0
 22  1  1  0  0  0
  1  2  2  0  0  0
  2  3  1  0  0  0
  3  4  2  0  0  0
  4  5  1  0  0  0
  5  6  1  0  0  0
  6  7  1  0  0  0
  7  8  1  0  0  0
  7  9  1  0  0  0
  9 10  1  0  0  0
 10 11  1  0  0  0
 11 12  2  0  0  0
 12 13  1  0  0  0
 13 14  1  0  0  0
 14 15  2  0  0  0
 11 16  1  0  0  0
 16 17  1  0  0  0
 16 18  2  0  0  0
 32 28  1  0  0  0
 15  1  1  0  0  0
 14  4  1  0  0  0
  8  5  1  0  0  0
 13  9  2  0  0  0
 25 26  1  0  0  0
 17 19  1  0  0  0
 17 20  1  0  0  0
M  END
> <minimizedAffinity>
-9.43614

> <CNNscore>
0.3312563002

> <CNNaffinity>
6.9277715683

> <CNN_VS>
2.2948679924

> <CNNaffinity_variance>
0.0770311281

$$$$
[H]O[C@](C#Cc1c([H])c([H])c2c(c1[H])-c1nc(C(=O)N([H])[H])sc1C1([H])C([H])([H])C2([H])C1([H])[H])(c1noc(C([H])([H])[H])c1[H])C([H])([H])[H]


 32 36  0  0  0  0  0  0  0  0999 V2000
   41.0601   13.0942  -15.3253 C   0  0  0  0  0  0  0  0  0  0  0  0
   41.9600   12.6914  -16.3215 C   0  0  0  0  0  0  0  0  0  0  0  0
   41.5666   11.9837  -17.4312 C   0  0  0  0  0  0  0  0  0  0  0  0
   40.2203   11.6735  -17.5349 C   0  0  0  0  0  0  0  0  0  0  0  0
   39.8991   10.9611  -18.8071 C   0  0  0  0  0  0  0  0  0  0  0  0
   38.7335   11.7195  -19.4805 C   0  0  0  0  0  0  0  0  0  0  0  0
   37.7378   10.7432  -18.9524 C   0  0  0  0  0  0  0  0  0  0  0  0
   38.9349    9.8093  -18.6614 C   0  0  0  0  0  0  0  0  0  0  0  0
   37.1722   11.2013  -17.6361 C   0  0  0  0  0  0  0  0  0  0  0  0
   35.5602   11.1260  -17.0802 S   0  0  0  0  0  0  0  0  0  0  0  0
   35.8040   11.8184  -15.5347 C   0  0  0  0  0  0  0  0  0  0  0  0
   37.1027   12.0691  -15.5308 N   0  0  0  0  0  0  0  0  0  0  0  0
   37.8275   11.7754  -16.5648 C   0  0  0  0  0  0  0  0  0  0  0  0
   39.3055   12.0498  -16.5705 C   0  0  0  0  0  0  0  0  0  0  0  0
   39.7332   12.7532  -15.4825 C   0  0  0  0  0  0  0  0  0  0  0  0
   34.7957   12.0664  -14.4765 C   0  0  0  0  0  0  0  0  0  0  0  0
   33.4376   12.0742  -14.8436 N   0  0  0  0  0  0  0  0  0  0  0  0
   35.1555   12.2559  -13.3115 O   0  0  0  0  0  0  0  0  0  0  0  0
   32.9336   11.1864  -15.1079 H   0  0  0  0  0  0  0  0  0  0  0  0
   32.9036   12.9666  -14.8733 H   0  0  0  0  0  0  0  0  0  0  0  0
   41.9273   14.5657  -13.2808 C   0  0  0  0  0  0  0  0  0  0  0  0
   41.5497   13.8711  -14.2114 C   0  0  0  0  0  0  0  0  0  0  0  0
   42.3301   15.4342  -12.1914 C   0  0  0  0  0  0  0  0  0  0  0  0
   41.1950   16.3772  -11.7801 C   0  0  0  0  0  0  0  0  0  0  0  0
   42.5359   14.6363  -11.0379 O   0  0  0  0  0  0  0  0  0  0  0  0
   41.6933   14.1934  -10.8602 H   0  0  0  0  0  0  0  0  0  0  0  0
   47.1109   16.9946  -12.8641 C   0  0  0  0  0  0  0  0  0  0  0  0
   45.6234   16.9023  -12.7901 C   0  0  0  0  0  0  0  0  0  0  0  0
   44.8431   15.8498  -12.3787 C   0  0  0  0  0  0  0  0  0  0  0  0
   43.5086   16.2378  -12.4967 C   0  0  0  0  0  0  0  0  0  0  0  0
   43.5574   17.5028  -12.9726 N   0  0  0  0  0  0  0  0  0  0  0  0
   44.7948   17.8677  -13.1363 O   0  0  0  0  0  0  0  0  0  0  0  0
 27 28  1  0  0  0
 28 29  2  0  0  0
 29 30  1  0  0  0
 30 31  2  0  0  0
 31 32  1  0  0  0
 30 23  1  0  0  0
 23 24  1  0  0  0
 23 25  1  0  0  0
 23 21  1  0  0  0
 21 22  3  0  0  0
 22  1  1  0  0  0
  1  2  2  0  0  0
  2  3  1  0  0  0
  3  4  2  0  0  0
  4  5  1  0  0  0
  5  6  1  0  0  0
  6  7  1  0  0  0
  7  8  1  0  0  0
  7  9  1  0  0  0
  9 10  1  0  0  0
 10 11  1  0  0  0
 11 12  2  0  0  0
 12 13  1  0  0  0
 13 14  1  0  0  0
 14 15  2  0  0  0
 11 16  1  0  0  0
 16 17  1  0  0  0
 16 18  2  0  0  0
 32 28  1  0  0  0
 15  1  1  0  0  0
 14  4  1  0  0  0
  8  5  1  0  0  0
 13  9  2  0  0  0
 25 26  1  0  0  0
 17 19  1  0  0  0
 17 20  1  0  0  0
M  END
> <minimizedAffinity>
-8.03742

> <CNNscore>
0.3034572005

> <CNNaffinity>
6.7473349571

> <CNN_VS>
2.0475273132

> <CNNaffinity_variance>
0.2162136137

$$$$
[H]O[C@](C#Cc1c([H])c([H])c2c(c1[H])-c1nc(C(=O)N([H])[H])sc1C1([H])C([H])([H])C2([H])C1([H])[H])(c1noc(C([H])([H])[H])c1[H])C([H])([H])[H]


 32 36  0  0  0  0  0  0  0  0999 V2000
   38.8150   14.3072  -13.3340 C   0  0  0  0  0  0  0  0  0  0  0  0
   40.1769   14.5771  -13.5262 C   0  0  0  0  0  0  0  0  0  0  0  0
   40.8917   14.0605  -14.5794 C   0  0  0  0  0  0  0  0  0  0  0  0
   40.2064   13.2446  -15.4649 C   0  0  0  0  0  0  0  0  0  0  0  0
   41.0646   12.7936  -16.6005 C   0  0  0  0  0  0  0  0  0  0  0  0
   40.3124   13.1248  -17.9088 C   0  0  0  0  0  0  0  0  0  0  0  0
   39.8177   11.7232  -18.0285 C   0  0  0  0  0  0  0  0  0  0  0  0
   40.8944   11.3445  -16.9858 C   0  0  0  0  0  0  0  0  0  0  0  0
   38.4678   11.5658  -17.3842 C   0  0  0  0  0  0  0  0  0  0  0  0
   37.1152   10.6833  -17.9362 S   0  0  0  0  0  0  0  0  0  0  0  0
   36.0587   11.0179  -16.6327 C   0  0  0  0  0  0  0  0  0  0  0  0
   36.7982   11.7858  -15.8498 N   0  0  0  0  0  0  0  0  0  0  0  0
   38.0130   12.0860  -16.1886 C   0  0  0  0  0  0  0  0  0  0  0  0
   38.8656   12.9529  -15.3047 C   0  0  0  0  0  0  0  0  0  0  0  0
   38.1881   13.4854  -14.2469 C   0  0  0  0  0  0  0  0  0  0  0  0
   34.6637   10.5519  -16.4460 C   0  0  0  0  0  0  0  0  0  0  0  0
   33.7785   11.3792  -15.7310 N   0  0  0  0  0  0  0  0  0  0  0  0
   34.3060    9.4676  -16.9138 O   0  0  0  0  0  0  0  0  0  0  0  0
   33.4164   12.2814  -16.1397 H   0  0  0  0  0  0  0  0  0  0  0  0
   33.4715   11.1196  -14.7714 H   0  0  0  0  0  0  0  0  0  0  0  0
   37.5076   15.4105  -11.2917 C   0  0  0  0  0  0  0  0  0  0  0  0
   38.1284   14.9238  -12.2240 C   0  0  0  0  0  0  0  0  0  0  0  0
   36.7238   15.9441  -10.1945 C   0  0  0  0  0  0  0  0  0  0  0  0
   35.2336   15.9962  -10.5462 C   0  0  0  0  0  0  0  0  0  0  0  0
   36.7806   15.0243   -9.1173 O   0  0  0  0  0  0  0  0  0  0  0  0
   36.4200   14.1905   -9.4528 H   0  0  0  0  0  0  0  0  0  0  0  0
   37.5095   20.1753   -7.5070 C   0  0  0  0  0  0  0  0  0  0  0  0
   37.4828   19.1298   -8.5713 C   0  0  0  0  0  0  0  0  0  0  0  0
   36.8864   17.8930   -8.5519 C   0  0  0  0  0  0  0  0  0  0  0  0
   37.1449   17.2765   -9.7760 C   0  0  0  0  0  0  0  0  0  0  0  0
   37.8829   18.1753  -10.4664 N   0  0  0  0  0  0  0  0  0  0  0  0
   38.0676   19.2431   -9.7476 O   0  0  0  0  0  0  0  0  0  0  0  0
 27 28  1  0  0  0
 28 29  2  0  0  0
 29 30  1  0  0  0
 30 31  2  0  0  0
 31 32  1  0  0  0
 30 23  1  0  0  0
 23 24  1  0  0  0
 23 25  1  0  0  0
 23 21  1  0  0  0
 21 22  3  0  0  0
 22  1  1  0  0  0
  1  2  2  0  0  0
  2  3  1  0  0  0
  3  4  2  0  0  0
  4  5  1  0  0  0
  5  6  1  0  0  0
  6  7  1  0  0  0
  7  8  1  0  0  0
  7  9  1  0  0  0
  9 10  1  0  0  0
 10 11  1  0  0  0
 11 12  2  0  0  0
 12 13  1  0  0  0
 13 14  1  0  0  0
 14 15  2  0  0  0
 11 16  1  0  0  0
 16 17  1  0  0  0
 16 18  2  0  0  0
 32 28  1  0  0  0
 15  1  1  0  0  0
 14  4  1  0  0  0
  8  5  1  0  0  0
 13  9  2  0  0  0
 25 26  1  0  0  0
 17 19  1  0  0  0
 17 20  1  0  0  0
M  END
> <minimizedAffinity>
-9.00307

> <CNNscore>
0.2713420689

> <CNNaffinity>
6.7695059776

> <CNN_VS>
1.8368517160

> <CNNaffinity_variance>
0.0616677515

$$$$
[H]O[C@](C#Cc1c([H])c([H])c2c(c1[H])-c1nc(C(=O)N([H])[H])sc1C1([H])C([H])([H])C2([H])C1([H])[H])(c1noc(C([H])([H])[H])c1[H])C([H])([H])[H]


 32 36  0  0  0  0  0  0  0  0999 V2000
   41.8696   13.6511  -14.2662 C   0  0  0  0  0  0  0  0  0  0  0  0
   42.8347   13.3409  -15.2342 C   0  0  0  0  0  0  0  0  0  0  0  0
   42.5244   12.7006  -16.4092 C   0  0  0  0  0  0  0  0  0  0  0  0
   41.1957   12.3632  -16.6099 C   0  0  0  0  0  0  0  0  0  0  0  0
   40.9665   11.7311  -17.9431 C   0  0  0  0  0  0  0  0  0  0  0  0
   39.8176   12.5030  -18.6297 C   0  0  0  0  0  0  0  0  0  0  0  0
   38.8239   11.4673  -18.2255 C   0  0  0  0  0  0  0  0  0  0  0  0
   40.0306   10.5473  -17.9297 C   0  0  0  0  0  0  0  0  0  0  0  0
   38.1732   11.8195  -16.9160 C   0  0  0  0  0  0  0  0  0  0  0  0
   36.5361   11.6644  -16.4591 S   0  0  0  0  0  0  0  0  0  0  0  0
   36.6736   12.2557  -14.8595 C   0  0  0  0  0  0  0  0  0  0  0  0
   37.9620   12.5393  -14.7648 N   0  0  0  0  0  0  0  0  0  0  0  0
   38.7511   12.3360  -15.7732 C   0  0  0  0  0  0  0  0  0  0  0  0
   40.2183   12.6487  -15.6763 C   0  0  0  0  0  0  0  0  0  0  0  0
   40.5642   13.2871  -14.5212 C   0  0  0  0  0  0  0  0  0  0  0  0
   35.6015   12.4045  -13.8463 C   0  0  0  0  0  0  0  0  0  0  0  0
   34.3439   12.8673  -14.2747 N   0  0  0  0  0  0  0  0  0  0  0  0
   35.8231   12.1229  -12.6655 O   0  0  0  0  0  0  0  0  0  0  0  0
   33.7035   12.2633  -14.8555 H   0  0  0  0  0  0  0  0  0  0  0  0
   34.0248   13.8280  -14.0346 H   0  0  0  0  0  0  0  0  0  0  0  0
   42.6409   14.9203  -12.0545 C   0  0  0  0  0  0  0  0  0  0  0  0
   42.2736   14.3625  -13.0769 C   0  0  0  0  0  0  0  0  0  0  0  0
   43.1081   15.5279  -10.8234 C   0  0  0  0  0  0  0  0  0  0  0  0
   41.9546   16.1667  -10.0433 C   0  0  0  0  0  0  0  0  0  0  0  0
   43.5634   14.4978   -9.9625 O   0  0  0  0  0  0  0  0  0  0  0  0
   42.8066   13.9114   -9.8168 H   0  0  0  0  0  0  0  0  0  0  0  0
   46.1333   19.0333  -12.8980 C   0  0  0  0  0  0  0  0  0  0  0  0
   45.4578   18.0840  -11.9656 C   0  0  0  0  0  0  0  0  0  0  0  0
   44.4356   17.2034  -12.2211 C   0  0  0  0  0  0  0  0  0  0  0  0
   44.1389   16.5389  -11.0312 C   0  0  0  0  0  0  0  0  0  0  0  0
   44.9985   17.0551  -10.1237 N   0  0  0  0  0  0  0  0  0  0  0  0
   45.7539   17.9508  -10.6877 O   0  0  0  0  0  0  0  0  0  0  0  0
 27 28  1  0  0  0
 28 29  2  0  0  0
 29 30  1  0  0  0
 30 31  2  0  0  0
 31 32  1  0  0  0
 30 23  1  0  0  0
 23 24  1  0  0  0
 23 25  1  0  0  0
 23 21  1  0  0  0
 21 22  3  0  0  0
 22  1  1  0  0  0
  1  2  2  0  0  0
  2  3  1  0  0  0
  3  4  2  0  0  0
  4  5  1  0  0  0
  5  6  1  0  0  0
  6  7  1  0  0  0
  7  8  1  0  0  0
  7  9  1  0  0  0
  9 10  1  0  0  0
 10 11  1  0  0  0
 11 12  2  0  0  0
 12 13  1  0  0  0
 13 14  1  0  0  0
 14 15  2  0  0  0
 11 16  1  0  0  0
 16 17  1  0  0  0
 16 18  2  0  0  0
 32 28  1  0  0  0
 15  1  1  0  0  0
 14  4  1  0  0  0
  8  5  1  0  0  0
 13  9  2  0  0  0
 25 26  1  0  0  0
 17 19  1  0  0  0
 17 20  1  0  0  0
M  END
> <minimizedAffinity>
-8.20460

> <CNNscore>
0.2704485953

> <CNNaffinity>
6.4642076492

> <CNN_VS>
1.7482358217

> <CNNaffinity_variance>
0.2402823418

$$$$
[H]O[C@](C#Cc1c([H])c([H])c2c(c1[H])-c1nc(C(=O)N([H])[H])sc1C1([H])C([H])([H])C2([H])C1([H])[H])(c1noc(C([H])([H])[H])c1[H])C([H])([H])[H]


 32 36  0  0  0  0  0  0  0  0999 V2000
   39.5072   14.9225  -13.0963 C   0  0  0  0  0  0  0  0  0  0  0  0
   39.5770   15.7950  -12.0015 C   0  0  0  0  0  0  0  0  0  0  0  0
   40.7689   16.2584  -11.5000 C   0  0  0  0  0  0  0  0  0  0  0  0
   41.9261   15.8241  -12.1259 C   0  0  0  0  0  0  0  0  0  0  0  0
   43.1533   16.4394  -11.5386 C   0  0  0  0  0  0  0  0  0  0  0  0
   43.9666   17.0503  -12.7016 C   0  0  0  0  0  0  0  0  0  0  0  0
   44.8663   15.8622  -12.7521 C   0  0  0  0  0  0  0  0  0  0  0  0
   44.3125   15.4902  -11.3575 C   0  0  0  0  0  0  0  0  0  0  0  0
   44.3672   14.8434  -13.7396 C   0  0  0  0  0  0  0  0  0  0  0  0
   45.2591   13.9062  -14.8528 S   0  0  0  0  0  0  0  0  0  0  0  0
   43.9550   13.0338  -15.5352 C   0  0  0  0  0  0  0  0  0  0  0  0
   42.9116   13.5084  -14.8751 N   0  0  0  0  0  0  0  0  0  0  0  0
   43.0731   14.4178  -13.9654 C   0  0  0  0  0  0  0  0  0  0  0  0
   41.8962   14.9610  -13.2041 C   0  0  0  0  0  0  0  0  0  0  0  0
   40.6932   14.5228  -13.6755 C   0  0  0  0  0  0  0  0  0  0  0  0
   44.0041   12.0046  -16.6011 C   0  0  0  0  0  0  0  0  0  0  0  0
   42.9311   11.9382  -17.5086 N   0  0  0  0  0  0  0  0  0  0  0  0
   44.9680   11.2379  -16.6766 O   0  0  0  0  0  0  0  0  0  0  0  0
   42.7830   12.6820  -18.2414 H   0  0  0  0  0  0  0  0  0  0  0  0
   42.2501   11.1529  -17.4648 H   0  0  0  0  0  0  0  0  0  0  0  0
   37.1171   14.1309  -13.9671 C   0  0  0  0  0  0  0  0  0  0  0  0
   38.2118   14.5159  -13.5867 C   0  0  0  0  0  0  0  0  0  0  0  0
   35.8207   13.6254  -14.3755 C   0  0  0  0  0  0  0  0  0  0  0  0
   35.0380   13.0671  -13.1827 C   0  0  0  0  0  0  0  0  0  0  0  0
   35.0318   14.7202  -14.8096 O   0  0  0  0  0  0  0  0  0  0  0  0
   34.9678   15.3246  -14.0557 H   0  0  0  0  0  0  0  0  0  0  0  0
   37.4735   10.5045  -18.0185 C   0  0  0  0  0  0  0  0  0  0  0  0
   36.6508   11.2221  -17.0012 C   0  0  0  0  0  0  0  0  0  0  0  0
   37.0058   12.2683  -16.1857 C   0  0  0  0  0  0  0  0  0  0  0  0
   35.8992   12.5899  -15.3999 C   0  0  0  0  0  0  0  0  0  0  0  0
   34.9377   11.7202  -15.7849 N   0  0  0  0  0  0  0  0  0  0  0  0
   35.3962   10.9351  -16.7145 O   0  0  0  0  0  0  0  0  0  0  0  0
 27 28  1  0  0  0
 28 29  2  0  0  0
 29 30  1  0  0  0
 30 31  2  0  0  0
 31 32  1  0  0  0
 30 23  1  0  0  0
 23 24  1  0  0  0
 23 25  1  0  0  0
 23 21  1  0  0  0
 21 22  3  0  0  0
 22  1  1  0  0  0
  1  2  2  0  0  0
  2  3  1  0  0  0
  3  4  2  0  0  0
  4  5  1  0  0  0
  5  6  1  0  0  0
  6  7  1  0  0  0
  7  8  1  0  0  0
  7  9  1  0  0  0
  9 10  1  0  0  0
 10 11  1  0  0  0
 11 12  2  0  0  0
 12 13  1  0  0  0
 13 14  1  0  0  0
 14 15  2  0  0  0
 11 16  1  0  0  0
 16 17  1  0  0  0
 16 18  2  0  0  0
 32 28  1  0  0  0
 15  1  1  0  0  0
 14  4  1  0  0  0
  8  5  1  0  0  0
 13  9  2  0  0  0
 25 26  1  0  0  0
 17 19  1  0  0  0
 17 20  1  0  0  0
M  END
> <minimizedAffinity>
-9.08478

> <CNNscore>
0.2610070705

> <CNNaffinity>
6.5366134644

> <CNN_VS>
1.7061023712

> <CNNaffinity_variance>
0.1196794286

$$$$
[H]OC([H])([H])C(C#Cc1c([H])c2c(c([H])c1F)OC([H])([H])C([H])([H])n1c-2nc(C(=O)N([H])[H])c1[H])(O[H])C([H])([H])[H]


 29 31  0  0  0  0  0  0  0  0999 V2000
   35.9808   12.9774  -14.2489 C   0  0  0  0  0  0  0  0  0  0  0  0
   37.2713   12.9335  -14.7350 C   0  0  0  0  0  0  0  0  0  0  0  0
   37.4917   12.2431  -15.9010 C   0  0  0  0  0  0  0  0  0  0  0  0
   38.9078   12.2702  -16.3166 C   0  0  0  0  0  0  0  0  0  0  0  0
   39.8495   12.8103  -15.5408 N   0  0  0  0  0  0  0  0  0  0  0  0
   41.0216   12.6719  -16.2114 C   0  0  0  0  0  0  0  0  0  0  0  0
   40.7436   12.0262  -17.4218 C   0  0  0  0  0  0  0  0  0  0  0  0
   39.4236   11.7875  -17.4628 N   0  0  0  0  0  0  0  0  0  0  0  0
   38.8055   11.1264  -18.5923 C   0  0  0  0  0  0  0  0  0  0  0  0
   37.6785   10.2016  -18.1863 C   0  0  0  0  0  0  0  0  0  0  0  0
   36.5353   10.8918  -17.7356 O   0  0  0  0  0  0  0  0  0  0  0  0
   36.4432   11.6175  -16.5549 C   0  0  0  0  0  0  0  0  0  0  0  0
   35.1512   11.6719  -16.0521 C   0  0  0  0  0  0  0  0  0  0  0  0
   34.9177   12.3602  -14.8850 C   0  0  0  0  0  0  0  0  0  0  0  0
   33.6891   12.4663  -14.3204 F   0  0  0  0  0  0  0  0  0  0  0  0
   42.3105   13.1233  -15.7308 C   0  0  0  0  0  0  0  0  0  0  0  0
   43.4261   13.1461  -16.5901 N   0  0  0  0  0  0  0  0  0  0  0  0
   42.4294   13.4938  -14.5465 O   0  0  0  0  0  0  0  0  0  0  0  0
   44.1570   12.4145  -16.5253 H   0  0  0  0  0  0  0  0  0  0  0  0
   43.5492   13.8891  -17.3077 H   0  0  0  0  0  0  0  0  0  0  0  0
   35.6596   14.3428  -11.9885 C   0  0  0  0  0  0  0  0  0  0  0  0
   35.7951   13.7176  -13.0151 C   0  0  0  0  0  0  0  0  0  0  0  0
   34.1142   15.6878  -10.6241 C   0  0  0  0  0  0  0  0  0  0  0  0
   35.5124   15.1158  -10.7553 C   0  0  0  0  0  0  0  0  0  0  0  0
   35.8162   14.3315   -9.6688 O   0  0  0  0  0  0  0  0  0  0  0  0
   36.7434   14.4902   -9.3994 H   0  0  0  0  0  0  0  0  0  0  0  0
   36.4637   16.3184  -10.7556 C   0  0  0  0  0  0  0  0  0  0  0  0
   36.1779   17.1881  -11.8049 O   0  0  0  0  0  0  0  0  0  0  0  0
   35.6071   17.9448  -11.4626 H   0  0  0  0  0  0  0  0  0  0  0  0
 23 24  1  0  0  0
 24 25  1  0  0  0
 24 27  1  0  0  0
 27 28  1  0  0  0
 24 21  1  0  0  0
 21 22  3  0  0  0
 22  1  1  0  0  0
  1  2  2  0  0  0
  2  3  1  0  0  0
  3  4  1  0  0  0
  4  5  2  0  0  0
  5  6  1  0  0  0
  6  7  2  0  0  0
  7  8  1  0  0  0
  8  9  1  0  0  0
  9 10  1  0  0  0
 10 11  1  0  0  0
 11 12  1  0  0  0
 12 13  1  0  0  0
 13 14  2  0  0  0
 14 15  1  0  0  0
  6 16  1  0  0  0
 16 17  1  0  0  0
 16 18  2  0  0  0
 14  1  1  0  0  0
 12  3  2  0  0  0
  8  4  1  0  0  0
 25 26  1  0  0  0
 28 29  1  0  0  0
 17 19  1  0  0  0
 17 20  1  0  0  0
M  END
> <minimizedAffinity>
-9.01416

> <CNNscore>
0.7490308285

> <CNNaffinity>
6.7861723900

> <CNN_VS>
5.0830521584

> <CNNaffinity_variance>
0.0892092362

$$$$
[H]OC([H])([H])C(C#Cc1c([H])c2c(c([H])c1F)OC([H])([H])C([H])([H])n1c-2nc(C(=O)N([H])[H])c1[H])(O[H])C([H])([H])[H]


 29 31  0  0  0  0  0  0  0  0999 V2000
   39.4420   11.8805  -16.6586 C   0  0  0  0  0  0  0  0  0  0  0  0
   38.5260   12.3168  -15.7235 C   0  0  0  0  0  0  0  0  0  0  0  0
   37.2167   11.9375  -15.8864 C   0  0  0  0  0  0  0  0  0  0  0  0
   36.3376   12.4650  -14.8245 C   0  0  0  0  0  0  0  0  0  0  0  0
   36.7934   13.3173  -13.9046 N   0  0  0  0  0  0  0  0  0  0  0  0
   35.7435   13.5978  -13.0911 C   0  0  0  0  0  0  0  0  0  0  0  0
   34.6390   12.8780  -13.5615 C   0  0  0  0  0  0  0  0  0  0  0  0
   35.0343   12.1825  -14.6390 N   0  0  0  0  0  0  0  0  0  0  0  0
   34.1224   11.3268  -15.3679 C   0  0  0  0  0  0  0  0  0  0  0  0
   34.3661   11.3466  -16.8614 C   0  0  0  0  0  0  0  0  0  0  0  0
   35.5589   10.6945  -17.2331 O   0  0  0  0  0  0  0  0  0  0  0  0
   36.8443   11.1436  -16.9585 C   0  0  0  0  0  0  0  0  0  0  0  0
   37.7787   10.7136  -17.8898 C   0  0  0  0  0  0  0  0  0  0  0  0
   39.0932   11.0869  -17.7376 C   0  0  0  0  0  0  0  0  0  0  0  0
   40.0736   10.7143  -18.5974 F   0  0  0  0  0  0  0  0  0  0  0  0
   35.7928   14.4871  -11.9497 C   0  0  0  0  0  0  0  0  0  0  0  0
   35.4756   15.8517  -12.0922 N   0  0  0  0  0  0  0  0  0  0  0  0
   36.1191   14.0371  -10.8339 O   0  0  0  0  0  0  0  0  0  0  0  0
   36.2245   16.5674  -12.1189 H   0  0  0  0  0  0  0  0  0  0  0  0
   34.4917   16.1793  -12.1742 H   0  0  0  0  0  0  0  0  0  0  0  0
   41.9551   12.6517  -16.2503 C   0  0  0  0  0  0  0  0  0  0  0  0
   40.8128   12.3055  -16.4465 C   0  0  0  0  0  0  0  0  0  0  0  0
   44.3099   11.9422  -16.3505 C   0  0  0  0  0  0  0  0  0  0  0  0
   43.3390   13.0518  -15.9960 C   0  0  0  0  0  0  0  0  0  0  0  0
   43.6355   14.1945  -16.6989 O   0  0  0  0  0  0  0  0  0  0  0  0
   43.5333   14.9735  -16.1156 H   0  0  0  0  0  0  0  0  0  0  0  0
   43.5519   13.3406  -14.5053 C   0  0  0  0  0  0  0  0  0  0  0  0
   42.3554   13.6855  -13.8818 O   0  0  0  0  0  0  0  0  0  0  0  0
   41.9739   12.8730  -13.4237 H   0  0  0  0  0  0  0  0  0  0  0  0
 23 24  1  0  0  0
 24 25  1  0  0  0
 24 27  1  0  0  0
 27 28  1  0  0  0
 24 21  1  0  0  0
 21 22  3  0  0  0
 22  1  1  0  0  0
  1  2  2  0  0  0
  2  3  1  0  0  0
  3  4  1  0  0  0
  4  5  2  0  0  0
  5  6  1  0  0  0
  6  7  2  0  0  0
  7  8  1  0  0  0
  8  9  1  0  0  0
  9 10  1  0  0  0
 10 11  1  0  0  0
 11 12  1  0  0  0
 12 13  1  0  0  0
 13 14  2  0  0  0
 14 15  1  0  0  0
  6 16  1  0  0  0
 16 17  1  0  0  0
 16 18  2  0  0  0
 14  1  1  0  0  0
 12  3  2  0  0  0
  8  4  1  0  0  0
 25 26  1  0  0  0
 28 29  1  0  0  0
 17 19  1  0  0  0
 17 20  1  0  0  0
M  END
> <minimizedAffinity>
-9.61524

> <CNNscore>
0.5276774168

> <CNNaffinity>
6.4606580734

> <CNN_VS>
3.4091434479

> <CNNaffinity_variance>
0.0292836931

$$$$
[H]OC([H])([H])C(C#Cc1c([H])c2c(c([H])c1F)OC([H])([H])C([H])([H])n1c-2nc(C(=O)N([H])[H])c1[H])(O[H])C([H])([H])[H]


 29 31  0  0  0  0  0  0  0  0999 V2000
   40.8462   13.2706  -15.2654 C   0  0  0  0  0  0  0  0  0  0  0  0
   39.5160   12.9187  -15.3666 C   0  0  0  0  0  0  0  0  0  0  0  0
   39.1359   12.1615  -16.4469 C   0  0  0  0  0  0  0  0  0  0  0  0
   37.6929   11.8507  -16.4414 C   0  0  0  0  0  0  0  0  0  0  0  0
   36.8714   12.3802  -15.5331 N   0  0  0  0  0  0  0  0  0  0  0  0
   35.6343   11.8940  -15.8082 C   0  0  0  0  0  0  0  0  0  0  0  0
   35.7481   11.0506  -16.9196 C   0  0  0  0  0  0  0  0  0  0  0  0
   37.0368   11.0409  -17.2938 N   0  0  0  0  0  0  0  0  0  0  0  0
   37.4947   10.2587  -18.4223 C   0  0  0  0  0  0  0  0  0  0  0  0
   38.5828   10.9515  -19.2137 C   0  0  0  0  0  0  0  0  0  0  0  0
   39.8116   11.0095  -18.5260 O   0  0  0  0  0  0  0  0  0  0  0  0
   40.0685   11.7723  -17.3940 C   0  0  0  0  0  0  0  0  0  0  0  0
   41.4026   12.1350  -17.2766 C   0  0  0  0  0  0  0  0  0  0  0  0
   41.7957   12.8933  -16.1992 C   0  0  0  0  0  0  0  0  0  0  0  0
   43.0764   13.2939  -16.0027 F   0  0  0  0  0  0  0  0  0  0  0  0
   34.4336   12.2118  -15.0643 C   0  0  0  0  0  0  0  0  0  0  0  0
   33.3477   11.3153  -15.0422 N   0  0  0  0  0  0  0  0  0  0  0  0
   34.3647   13.2885  -14.4399 O   0  0  0  0  0  0  0  0  0  0  0  0
   32.5039   11.4945  -15.6163 H   0  0  0  0  0  0  0  0  0  0  0  0
   33.3591   10.4561  -14.4560 H   0  0  0  0  0  0  0  0  0  0  0  0
   41.5110   14.7491  -13.1560 C   0  0  0  0  0  0  0  0  0  0  0  0
   41.2020   14.0704  -14.1084 C   0  0  0  0  0  0  0  0  0  0  0  0
   40.7061   16.3811  -11.4985 C   0  0  0  0  0  0  0  0  0  0  0  0
   41.8895   15.5891  -12.0198 C   0  0  0  0  0  0  0  0  0  0  0  0
   42.4289   14.8151  -11.0210 O   0  0  0  0  0  0  0  0  0  0  0  0
   43.4054   14.8362  -11.0815 H   0  0  0  0  0  0  0  0  0  0  0  0
   42.9398   16.6241  -12.4402 C   0  0  0  0  0  0  0  0  0  0  0  0
   44.1296   16.4502  -11.7378 O   0  0  0  0  0  0  0  0  0  0  0  0
   44.7743   15.9208  -12.3033 H   0  0  0  0  0  0  0  0  0  0  0  0
 23 24  1  0  0  0
 24 25  1  0  0  0
 24 27  1  0  0  0
 27 28  1  0  0  0
 24 21  1  0  0  0
 21 22  3  0  0  0
 22  1  1  0  0  0
  1  2  2  0  0  0
  2  3  1  0  0  0
  3  4  1  0  0  0
  4  5  2  0  0  0
  5  6  1  0  0  0
  6  7  2  0  0  0
  7  8  1  0  0  0
  8  9  1  0  0  0
  9 10  1  0  0  0
 10 11  1  0  0  0
 11 12  1  0  0  0
 12 13  1  0  0  0
 13 14  2  0  0  0
 14 15  1  0  0  0
  6 16  1  0  0  0
 16 17  1  0  0  0
 16 18  2  0  0  0
 14  1  1  0  0  0
 12  3  2  0  0  0
  8  4  1  0  0  0
 25 26  1  0  0  0
 28 29  1  0  0  0
 17 19  1  0  0  0
 17 20  1  0  0  0
M  END
> <minimizedAffinity>
-8.55193

> <CNNscore>
0.5009067655

> <CNNaffinity>
6.5314812660

> <CNN_VS>
3.2716631889

> <CNNaffinity_variance>
0.2405387163

$$$$
[H]OC([H])([H])C(C#Cc1c([H])c2c(c([H])c1F)OC([H])([H])C([H])([H])n1c-2nc(C(=O)N([H])[H])c1[H])(O[H])C([H])([H])[H]


 29 31  0  0  0  0  0  0  0  0999 V2000
   38.7774   12.3553  -15.6930 C   0  0  0  0  0  0  0  0  0  0  0  0
   39.8131   12.9338  -14.9885 C   0  0  0  0  0  0  0  0  0  0  0  0
   41.0733   12.8585  -15.5281 C   0  0  0  0  0  0  0  0  0  0  0  0
   42.0914   13.5131  -14.6833 C   0  0  0  0  0  0  0  0  0  0  0  0
   41.7877   13.9958  -13.4771 N   0  0  0  0  0  0  0  0  0  0  0  0
   42.9342   14.5240  -12.9779 C   0  0  0  0  0  0  0  0  0  0  0  0
   43.9383   14.3380  -13.9352 C   0  0  0  0  0  0  0  0  0  0  0  0
   43.3890   13.7077  -14.9850 N   0  0  0  0  0  0  0  0  0  0  0  0
   44.1660   13.3641  -16.1569 C   0  0  0  0  0  0  0  0  0  0  0  0
   43.7624   12.0360  -16.7599 C   0  0  0  0  0  0  0  0  0  0  0  0
   42.5011   12.0771  -17.3874 O   0  0  0  0  0  0  0  0  0  0  0  0
   41.2809   12.2200  -16.7395 C   0  0  0  0  0  0  0  0  0  0  0  0
   40.2276   11.6435  -17.4349 C   0  0  0  0  0  0  0  0  0  0  0  0
   38.9609   11.7122  -16.9048 C   0  0  0  0  0  0  0  0  0  0  0  0
   37.8730   11.1780  -17.5134 F   0  0  0  0  0  0  0  0  0  0  0  0
   43.0601   15.1590  -11.6829 C   0  0  0  0  0  0  0  0  0  0  0  0
   41.9922   15.1298  -10.7653 N   0  0  0  0  0  0  0  0  0  0  0  0
   44.1240   15.7349  -11.3819 O   0  0  0  0  0  0  0  0  0  0  0  0
   41.3977   15.9662  -10.6210 H   0  0  0  0  0  0  0  0  0  0  0  0
   41.7700   14.2782  -10.2109 H   0  0  0  0  0  0  0  0  0  0  0  0
   36.3776   12.5405  -14.5599 C   0  0  0  0  0  0  0  0  0  0  0  0
   37.4641   12.4592  -15.0852 C   0  0  0  0  0  0  0  0  0  0  0  0
   33.9768   12.0317  -14.7507 C   0  0  0  0  0  0  0  0  0  0  0  0
   35.0748   12.6438  -13.9026 C   0  0  0  0  0  0  0  0  0  0  0  0
   35.1215   12.0430  -12.6678 O   0  0  0  0  0  0  0  0  0  0  0  0
   35.2780   12.7209  -11.9796 H   0  0  0  0  0  0  0  0  0  0  0  0
   34.6862   14.1135  -13.7029 C   0  0  0  0  0  0  0  0  0  0  0  0
   33.6052   14.4639  -14.5080 O   0  0  0  0  0  0  0  0  0  0  0  0
   32.7578   14.4157  -13.9648 H   0  0  0  0  0  0  0  0  0  0  0  0
 23 24  1  0  0  0
 24 25  1  0  0  0
 24 27  1  0  0  0
 27 28  1  0  0  0
 24 21  1  0  0  0
 21 22  3  0  0  0
 22  1  1  0  0  0
  1  2  2  0  0  0
  2  3  1  0  0  0
  3  4  1  0  0  0
  4  5  2  0  0  0
  5  6  1  0  0  0
  6  7  2  0  0  0
  7  8  1  0  0  0
  8  9  1  0  0  0
  9 10  1  0  0  0
 10 11  1  0  0  0
 11 12  1  0  0  0
 12 13  1  0  0  0
 13 14  2  0  0  0
 14 15  1  0  0  0
  6 16  1  0  0  0
 16 17  1  0  0  0
 16 18  2  0  0  0
 14  1  1  0  0  0
 12  3  2  0  0  0
  8  4  1  0  0  0
 25 26  1  0  0  0
 28 29  1  0  0  0
 17 19  1  0  0  0
 17 20  1  0  0  0
M  END
> <minimizedAffinity>
-8.45567

> <CNNscore>
0.4863210022

> <CNNaffinity>
6.2453126907

> <CNN_VS>
3.0372266769

> <CNNaffinity_variance>
0.1915294081

$$$$
[H]OC([H])([H])C(C#Cc1c([H])c2c(c([H])c1F)OC([H])([H])C([H])([H])n1c-2nc(C(=O)N([H])[H])c1[H])(O[H])C([H])([H])[H]


 29 31  0  0  0  0  0  0  0  0999 V2000
   39.0667   12.4255  -16.0679 C   0  0  0  0  0  0  0  0  0  0  0  0
   40.0603   12.9934  -15.2973 C   0  0  0  0  0  0  0  0  0  0  0  0
   41.3572   12.8602  -15.7274 C   0  0  0  0  0  0  0  0  0  0  0  0
   42.3244   13.5094  -14.8208 C   0  0  0  0  0  0  0  0  0  0  0  0
   41.9393   14.0409  -13.6591 N   0  0  0  0  0  0  0  0  0  0  0  0
   43.0584   14.5483  -13.0822 C   0  0  0  0  0  0  0  0  0  0  0  0
   44.1309   14.2989  -13.9465 C   0  0  0  0  0  0  0  0  0  0  0  0
   43.6484   13.6524  -15.0190 N   0  0  0  0  0  0  0  0  0  0  0  0
   44.5069   13.2457  -16.1111 C   0  0  0  0  0  0  0  0  0  0  0  0
   44.1086   11.9121  -16.7054 C   0  0  0  0  0  0  0  0  0  0  0  0
   42.9054   11.9728  -17.4368 O   0  0  0  0  0  0  0  0  0  0  0  0
   41.6417   12.1759  -16.8974 C   0  0  0  0  0  0  0  0  0  0  0  0
   40.6300   11.6108  -17.6605 C   0  0  0  0  0  0  0  0  0  0  0  0
   39.3270   11.7374  -17.2403 C   0  0  0  0  0  0  0  0  0  0  0  0
   38.2751   11.2185  -17.9211 F   0  0  0  0  0  0  0  0  0  0  0  0
   43.0992   15.2211  -11.8009 C   0  0  0  0  0  0  0  0  0  0  0  0
   42.6179   14.5820  -10.6420 N   0  0  0  0  0  0  0  0  0  0  0  0
   43.5649   16.3752  -11.7276 O   0  0  0  0  0  0  0  0  0  0  0  0
   41.6954   14.8359  -10.2441 H   0  0  0  0  0  0  0  0  0  0  0  0
   43.1669   13.8444  -10.1556 H   0  0  0  0  0  0  0  0  0  0  0  0
   36.5903   12.7291  -15.1445 C   0  0  0  0  0  0  0  0  0  0  0  0
   37.7123   12.5912  -15.5751 C   0  0  0  0  0  0  0  0  0  0  0  0
   35.1417   12.3761  -13.1861 C   0  0  0  0  0  0  0  0  0  0  0  0
   35.2431   12.9067  -14.6030 C   0  0  0  0  0  0  0  0  0  0  0  0
   34.8889   14.2335  -14.6472 O   0  0  0  0  0  0  0  0  0  0  0  0
   34.3528   14.4028  -15.4482 H   0  0  0  0  0  0  0  0  0  0  0  0
   34.2216   12.1133  -15.4265 C   0  0  0  0  0  0  0  0  0  0  0  0
   33.2426   11.5513  -14.6111 O   0  0  0  0  0  0  0  0  0  0  0  0
   32.4271   12.1434  -14.6156 H   0  0  0  0  0  0  0  0  0  0  0  0
 23 24  1  0  0  0
 24 25  1  0  0  0
 24 27  1  0  0  0
 27 28  1  0  0  0
 24 21  1  0  0  0
 21 22  3  0  0  0
 22  1  1  0  0  0
  1  2  2  0  0  0
  2  3  1  0  0  0
  3  4  1  0  0  0
  4  5  2  0  0  0
  5  6  1  0  0  0
  6  7  2  0  0  0
  7  8  1  0  0  0
  8  9  1  0  0  0
  9 10  1  0  0  0
 10 11  1  0  0  0
 11 12  1  0  0  0
 12 13  1  0  0  0
 13 14  2  0  0  0
 14 15  1  0  0  0
  6 16  1  0  0  0
 16 17  1  0  0  0
 16 18  2  0  0  0
 14  1  1  0  0  0
 12  3  2  0  0  0
  8  4  1  0  0  0
 25 26  1  0  0  0
 28 29  1  0  0  0
 17 19  1  0  0  0
 17 20  1  0  0  0
M  END
> <minimizedAffinity>
-8.36100

> <CNNscore>
0.4361420274

> <CNNaffinity>
6.1436853409

> <CNN_VS>
2.6795194149

> <CNNaffinity_variance>
0.0884626359

$$$$
[H]OC([H])([H])C(C#Cc1c([H])c2c(c([H])c1F)OC([H])([H])C([H])([H])n1c-2nc(C(=O)N([H])[H])c1[H])(O[H])C([H])([H])[H]


 29 31  0  0  0  0  0  0  0  0999 V2000
   35.7400   14.3536  -13.1430 C   0  0  0  0  0  0  0  0  0  0  0  0
   36.6891   13.8347  -13.9995 C   0  0  0  0  0  0  0  0  0  0  0  0
   36.2736   12.9198  -14.9349 C   0  0  0  0  0  0  0  0  0  0  0  0
   37.3782   12.4413  -15.7891 C   0  0  0  0  0  0  0  0  0  0  0  0
   38.6431   12.7935  -15.5518 N   0  0  0  0  0  0  0  0  0  0  0  0
   39.3930   12.1905  -16.5092 C   0  0  0  0  0  0  0  0  0  0  0  0
   38.5250   11.4619  -17.3308 C   0  0  0  0  0  0  0  0  0  0  0  0
   37.2793   11.6341  -16.8622 N   0  0  0  0  0  0  0  0  0  0  0  0
   36.1366   11.0088  -17.4933 C   0  0  0  0  0  0  0  0  0  0  0  0
   35.0907   10.5566  -16.4974 C   0  0  0  0  0  0  0  0  0  0  0  0
   34.3997   11.6297  -15.8995 O   0  0  0  0  0  0  0  0  0  0  0  0
   34.9432   12.5411  -15.0033 C   0  0  0  0  0  0  0  0  0  0  0  0
   34.0016   13.0730  -14.1341 C   0  0  0  0  0  0  0  0  0  0  0  0
   34.4054   13.9902  -13.1927 C   0  0  0  0  0  0  0  0  0  0  0  0
   33.5561   14.5620  -12.3032 F   0  0  0  0  0  0  0  0  0  0  0  0
   40.8314   12.3027  -16.6295 C   0  0  0  0  0  0  0  0  0  0  0  0
   41.4796   11.9385  -17.8255 N   0  0  0  0  0  0  0  0  0  0  0  0
   41.4975   12.7257  -15.6643 O   0  0  0  0  0  0  0  0  0  0  0  0
   41.9908   11.0399  -17.8958 H   0  0  0  0  0  0  0  0  0  0  0  0
   41.4652   12.5527  -18.6649 H   0  0  0  0  0  0  0  0  0  0  0  0
   36.6231   16.1056  -11.3464 C   0  0  0  0  0  0  0  0  0  0  0  0
   36.2242   15.3163  -12.1717 C   0  0  0  0  0  0  0  0  0  0  0  0
   38.5320   16.7159   -9.9173 C   0  0  0  0  0  0  0  0  0  0  0  0
   37.1102   17.0409  -10.3326 C   0  0  0  0  0  0  0  0  0  0  0  0
   37.0279   18.3294  -10.8023 O   0  0  0  0  0  0  0  0  0  0  0  0
   36.2043   18.7450  -10.4758 H   0  0  0  0  0  0  0  0  0  0  0  0
   36.2639   16.9436   -9.0577 C   0  0  0  0  0  0  0  0  0  0  0  0
   34.9030   16.9834   -9.3507 O   0  0  0  0  0  0  0  0  0  0  0  0
   34.5413   16.0431   -9.3748 H   0  0  0  0  0  0  0  0  0  0  0  0
 23 24  1  0  0  0
 24 25  1  0  0  0
 24 27  1  0  0  0
 27 28  1  0  0  0
 24 21  1  0  0  0
 21 22  3  0  0  0
 22  1  1  0  0  0
  1  2  2  0  0  0
  2  3  1  0  0  0
  3  4  1  0  0  0
  4  5  2  0  0  0
  5  6  1  0  0  0
  6  7  2  0  0  0
  7  8  1  0  0  0
  8  9  1  0  0  0
  9 10  1  0  0  0
 10 11  1  0  0  0
 11 12  1  0  0  0
 12 13  1  0  0  0
 13 14  2  0  0  0
 14 15  1  0  0  0
  6 16  1  0  0  0
 16 17  1  0  0  0
 16 18  2  0  0  0
 14  1  1  0  0  0
 12  3  2  0  0  0
  8  4  1  0  0  0
 25 26  1  0  0  0
 28 29  1  0  0  0
 17 19  1  0  0  0
 17 20  1  0  0  0
M  END
> <minimizedAffinity>
-8.42522

> <CNNscore>
0.4068710804

> <CNNaffinity>
6.4461770058

> <CNN_VS>
2.6227629185

> <CNNaffinity_variance>
0.1886231899

$$$$
[H]OC([H])([H])C(C#Cc1c([H])c2c(c([H])c1F)OC([H])([H])C([H])([H])n1c-2nc(C(=O)N([H])[H])c1[H])(O[H])C([H])([H])[H]


 29 31  0  0  0  0  0  0  0  0999 V2000
   40.5065   12.3260  -16.3712 C   0  0  0  0  0  0  0  0  0  0  0  0
   39.3828   12.5326  -15.5976 C   0  0  0  0  0  0  0  0  0  0  0  0
   38.1864   12.0501  -16.0670 C   0  0  0  0  0  0  0  0  0  0  0  0
   37.0632   12.3327  -15.1519 C   0  0  0  0  0  0  0  0  0  0  0  0
   37.2258   13.0892  -14.0649 N   0  0  0  0  0  0  0  0  0  0  0  0
   36.0145   13.1460  -13.4551 C   0  0  0  0  0  0  0  0  0  0  0  0
   35.1184   12.3918  -14.2216 C   0  0  0  0  0  0  0  0  0  0  0  0
   35.7946   11.8973  -15.2700 N   0  0  0  0  0  0  0  0  0  0  0  0
   35.1522   11.0648  -16.2646 C   0  0  0  0  0  0  0  0  0  0  0  0
   35.6689   11.3179  -17.6643 C   0  0  0  0  0  0  0  0  0  0  0  0
   36.9831   10.8476  -17.8593 O   0  0  0  0  0  0  0  0  0  0  0  0
   38.1263   11.3808  -17.2780 C   0  0  0  0  0  0  0  0  0  0  0  0
   39.2663   11.1816  -18.0435 C   0  0  0  0  0  0  0  0  0  0  0  0
   40.4706   11.6602  -17.5841 C   0  0  0  0  0  0  0  0  0  0  0  0
   41.6348   11.5122  -18.2640 F   0  0  0  0  0  0  0  0  0  0  0  0
   35.7348   13.8672  -12.2312 C   0  0  0  0  0  0  0  0  0  0  0  0
   34.4399   14.3544  -11.9683 N   0  0  0  0  0  0  0  0  0  0  0  0
   36.6503   14.0560  -11.4065 O   0  0  0  0  0  0  0  0  0  0  0  0
   34.2209   15.3604  -12.0857 H   0  0  0  0  0  0  0  0  0  0  0  0
   33.6728   13.7271  -11.6520 H   0  0  0  0  0  0  0  0  0  0  0  0
   42.7928   13.2752  -15.3972 C   0  0  0  0  0  0  0  0  0  0  0  0
   41.7478   12.8528  -15.8360 C   0  0  0  0  0  0  0  0  0  0  0  0
   45.0741   12.6497  -14.7164 C   0  0  0  0  0  0  0  0  0  0  0  0
   44.0692   13.7729  -14.8842 C   0  0  0  0  0  0  0  0  0  0  0  0
   44.5664   14.7434  -15.7200 O   0  0  0  0  0  0  0  0  0  0  0  0
   44.3314   15.6272  -15.3718 H   0  0  0  0  0  0  0  0  0  0  0  0
   43.8875   14.3901  -13.4925 C   0  0  0  0  0  0  0  0  0  0  0  0
   42.9784   13.6600  -12.7310 O   0  0  0  0  0  0  0  0  0  0  0  0
   43.4823   13.0333  -12.1236 H   0  0  0  0  0  0  0  0  0  0  0  0
 23 24  1  0  0  0
 24 25  1  0  0  0
 24 27  1  0  0  0
 27 28  1  0  0  0
 24 21  1  0  0  0
 21 22  3  0  0  0
 22  1  1  0  0  0
  1  2  2  0  0  0
  2  3  1  0  0  0
  3  4  1  0  0  0
  4  5  2  0  0  0
  5  6  1  0  0  0
  6  7  2  0  0  0
  7  8  1  0  0  0
  8  9  1  0  0  0
  9 10  1  0  0  0
 10 11  1  0  0  0
 11 12  1  0  0  0
 12 13  1  0  0  0
 13 14  2  0  0  0
 14 15  1  0  0  0
  6 16  1  0  0  0
 16 17  1  0  0  0
 16 18  2  0  0  0
 14  1  1  0  0  0
 12  3  2  0  0  0
  8  4  1  0  0  0
 25 26  1  0  0  0
 28 29  1  0  0  0
 17 19  1  0  0  0
 17 20  1  0  0  0
M  END
> <minimizedAffinity>
-8.83669

> <CNNscore>
0.3373915255

> <CNNaffinity>
6.0470147133

> <CNN_VS>
2.0402114391

> <CNNaffinity_variance>
0.0850944743

$$$$
[H]OC([H])([H])C(C#Cc1c([H])c2c(c([H])c1F)OC([H])([H])C([H])([H])n1c-2nc(C(=O)N([H])[H])c1[H])(O[H])C([H])([H])[H]


 29 31  0  0  0  0  0  0  0  0999 V2000
   39.7900   12.5719  -15.7097 C   0  0  0  0  0  0  0  0  0  0  0  0
   39.1869   13.2748  -14.6870 C   0  0  0  0  0  0  0  0  0  0  0  0
   37.8291   13.1414  -14.5340 C   0  0  0  0  0  0  0  0  0  0  0  0
   37.3046   13.9397  -13.4088 C   0  0  0  0  0  0  0  0  0  0  0  0
   38.0865   14.7808  -12.7293 N   0  0  0  0  0  0  0  0  0  0  0  0
   37.3021   15.3447  -11.7758 C   0  0  0  0  0  0  0  0  0  0  0  0
   36.0170   14.8068  -11.9116 C   0  0  0  0  0  0  0  0  0  0  0  0
   36.0450   13.9368  -12.9331 N   0  0  0  0  0  0  0  0  0  0  0  0
   34.8659   13.2013  -13.3376 C   0  0  0  0  0  0  0  0  0  0  0  0
   34.7767   13.0139  -14.8367 C   0  0  0  0  0  0  0  0  0  0  0  0
   35.7331   12.1070  -15.3358 O   0  0  0  0  0  0  0  0  0  0  0  0
   37.1039   12.3250  -15.3859 C   0  0  0  0  0  0  0  0  0  0  0  0
   37.7265   11.6250  -16.4094 C   0  0  0  0  0  0  0  0  0  0  0  0
   39.0859   11.7504  -16.5729 C   0  0  0  0  0  0  0  0  0  0  0  0
   39.7781   11.1051  -17.5445 F   0  0  0  0  0  0  0  0  0  0  0  0
   37.7479   16.3243  -10.8074 C   0  0  0  0  0  0  0  0  0  0  0  0
   37.1574   17.6019  -10.7588 N   0  0  0  0  0  0  0  0  0  0  0  0
   38.6618   16.0303  -10.0122 O   0  0  0  0  0  0  0  0  0  0  0  0
   37.6479   18.4251  -11.1533 H   0  0  0  0  0  0  0  0  0  0  0  0
   36.2221   17.7567  -10.3307 H   0  0  0  0  0  0  0  0  0  0  0  0
   42.4227   12.8925  -15.9170 C   0  0  0  0  0  0  0  0  0  0  0  0
   41.2253   12.7432  -15.8336 C   0  0  0  0  0  0  0  0  0  0  0  0
   44.5327   11.9225  -16.7332 C   0  0  0  0  0  0  0  0  0  0  0  0
   43.8728   13.0697  -15.9928 C   0  0  0  0  0  0  0  0  0  0  0  0
   44.1699   14.2674  -16.5968 O   0  0  0  0  0  0  0  0  0  0  0  0
   44.3425   14.9454  -15.9125 H   0  0  0  0  0  0  0  0  0  0  0  0
   44.4895   13.0782  -14.5890 C   0  0  0  0  0  0  0  0  0  0  0  0
   45.8188   12.6643  -14.6188 O   0  0  0  0  0  0  0  0  0  0  0  0
   46.4184   13.4743  -14.6258 H   0  0  0  0  0  0  0  0  0  0  0  0
 23 24  1  0  0  0
 24 25  1  0  0  0
 24 27  1  0  0  0
 27 28  1  0  0  0
 24 21  1  0  0  0
 21 22  3  0  0  0
 22  1  1  0  0  0
  1  2  2  0  0  0
  2  3  1  0  0  0
  3  4  1  0  0  0
  4  5  2  0  0  0
  5  6  1  0  0  0
  6  7  2  0  0  0
  7  8  1  0  0  0
  8  9  1  0  0  0
  9 10  1  0  0  0
 10 11  1  0  0  0
 11 12  1  0  0  0
 12 13  1  0  0  0
 13 14  2  0  0  0
 14 15  1  0  0  0
  6 16  1  0  0  0
 16 17  1  0  0  0
 16 18  2  0  0  0
 14  1  1  0  0  0
 12  3  2  0  0  0
  8  4  1  0  0  0
 25 26  1  0  0  0
 28 29  1  0  0  0
 17 19  1  0  0  0
 17 20  1  0  0  0
M  END
> <minimizedAffinity>
-8.90297

> <CNNscore>
0.3345945179

> <CNNaffinity>
5.8344335556

> <CNN_VS>
1.9521695375

> <CNNaffinity_variance>
0.0737150460

$$$$
[H]OC([H])([H])C(C#Cc1c([H])c2c(c([H])c1F)OC([H])([H])C([H])([H])n1c-2nc(C(=O)N([H])[H])c1[H])(O[H])C([H])([H])[H]


 29 31  0  0  0  0  0  0  0  0999 V2000
   39.7572   13.2845  -14.9567 C   0  0  0  0  0  0  0  0  0  0  0  0
   38.4104   13.3210  -14.6594 C   0  0  0  0  0  0  0  0  0  0  0  0
   37.5670   12.5501  -15.4204 C   0  0  0  0  0  0  0  0  0  0  0  0
   36.1561   12.6744  -15.0049 C   0  0  0  0  0  0  0  0  0  0  0  0
   35.7811   13.5512  -14.0717 N   0  0  0  0  0  0  0  0  0  0  0  0
   34.4387   13.4072  -13.9306 C   0  0  0  0  0  0  0  0  0  0  0  0
   34.0242   12.4074  -14.8181 C   0  0  0  0  0  0  0  0  0  0  0  0
   35.1098   11.9684  -15.4737 N   0  0  0  0  0  0  0  0  0  0  0  0
   35.0242   10.9243  -16.4724 C   0  0  0  0  0  0  0  0  0  0  0  0
   35.9701   11.1434  -17.6332 C   0  0  0  0  0  0  0  0  0  0  0  0
   37.3220   10.9482  -17.2859 O   0  0  0  0  0  0  0  0  0  0  0  0
   38.0672   11.7679  -16.4481 C   0  0  0  0  0  0  0  0  0  0  0  0
   39.4248   11.7430  -16.7335 C   0  0  0  0  0  0  0  0  0  0  0  0
   40.2797   12.5107  -15.9784 C   0  0  0  0  0  0  0  0  0  0  0  0
   41.6196   12.5490  -16.1850 F   0  0  0  0  0  0  0  0  0  0  0  0
   33.6144   14.1684  -13.0157 C   0  0  0  0  0  0  0  0  0  0  0  0
   32.2132   14.0281  -13.0299 N   0  0  0  0  0  0  0  0  0  0  0  0
   34.1533   14.9530  -12.2107 O   0  0  0  0  0  0  0  0  0  0  0  0
   31.6150   14.7518  -13.4682 H   0  0  0  0  0  0  0  0  0  0  0  0
   31.7413   13.2037  -12.6060 H   0  0  0  0  0  0  0  0  0  0  0  0
   41.3232   14.8200  -13.4510 C   0  0  0  0  0  0  0  0  0  0  0  0
   40.6102   14.1144  -14.1269 C   0  0  0  0  0  0  0  0  0  0  0  0
   43.6440   15.4912  -12.9797 C   0  0  0  0  0  0  0  0  0  0  0  0
   42.1784   15.6934  -12.6473 C   0  0  0  0  0  0  0  0  0  0  0  0
   41.8185   17.0062  -12.8339 O   0  0  0  0  0  0  0  0  0  0  0  0
   41.2230   17.2884  -12.1105 H   0  0  0  0  0  0  0  0  0  0  0  0
   42.0333   15.3669  -11.1562 C   0  0  0  0  0  0  0  0  0  0  0  0
   42.6948   14.1853  -10.8312 O   0  0  0  0  0  0  0  0  0  0  0  0
   43.6004   14.4065  -10.4486 H   0  0  0  0  0  0  0  0  0  0  0  0
 23 24  1  0  0  0
 24 25  1  0  0  0
 24 27  1  0  0  0
 27 28  1  0  0  0
 24 21  1  0  0  0
 21 22  3  0  0  0
 22  1  1  0  0  0
  1  2  2  0  0  0
  2  3  1  0  0  0
  3  4  1  0  0  0
  4  5  2  0  0  0
  5  6  1  0  0  0
  6  7  2  0  0  0
  7  8  1  0  0  0
  8  9  1  0  0  0
  9 10  1  0  0  0
 10 11  1  0  0  0
 11 12  1  0  0  0
 12 13  1  0  0  0
 13 14  2  0  0  0
 14 15  1  0  0  0
  6 16  1  0  0  0
 16 17  1  0  0  0
 16 18  2  0  0  0
 14  1  1  0  0  0
 12  3  2  0  0  0
  8  4  1  0  0  0
 25 26  1  0  0  0
 28 29  1  0  0  0
 17 19  1  0  0  0
 17 20  1  0  0  0
M  END
> <minimizedAffinity>
-8.78983

> <CNNscore>
0.3222704232

> <CNNaffinity>
6.2066946030

> <CNN_VS>
2.0002341270

> <CNNaffinity_variance>
0.1679909080

$$$$
[H]OC(C#Cc1c([H])c2c(c([H])c1F)OC([H])([H])C([H])([H])n1c-2nc(C(=O)N([H])[H])c1C(=O)N([H])C([H])([H])[H])(C([H])([H])[H])C([H])([H])OC([H])([H])[H]


 34 36  0  0  0  0  0  0  0  0999 V2000
   37.3199   12.1243  -16.1255 C   0  0  0  0  0  0  0  0  0  0  0  0
   37.1969   12.9461  -15.0212 C   0  0  0  0  0  0  0  0  0  0  0  0
   38.4861   13.2897  -14.6816 N   0  0  0  0  0  0  0  0  0  0  0  0
   39.3309   12.7131  -15.5303 C   0  0  0  0  0  0  0  0  0  0  0  0
   40.7822   12.8687  -15.4617 C   0  0  0  0  0  0  0  0  0  0  0  0
   41.1792   13.4284  -14.2714 C   0  0  0  0  0  0  0  0  0  0  0  0
   42.5163   13.6439  -14.0452 C   0  0  0  0  0  0  0  0  0  0  0  0
   43.4125   13.2840  -15.0364 C   0  0  0  0  0  0  0  0  0  0  0  0
   44.7250   13.5002  -14.8041 F   0  0  0  0  0  0  0  0  0  0  0  0
   43.0393   12.7217  -16.2373 C   0  0  0  0  0  0  0  0  0  0  0  0
   41.6961   12.5082  -16.4575 C   0  0  0  0  0  0  0  0  0  0  0  0
   41.4088   11.9410  -17.6860 O   0  0  0  0  0  0  0  0  0  0  0  0
   40.1550   11.9270  -18.3442 C   0  0  0  0  0  0  0  0  0  0  0  0
   39.1133   11.1838  -17.5298 C   0  0  0  0  0  0  0  0  0  0  0  0
   38.6195   11.9787  -16.4432 N   0  0  0  0  0  0  0  0  0  0  0  0
   33.8681   10.5329  -16.9009 C   0  0  0  0  0  0  0  0  0  0  0  0
   34.9380   11.2082  -16.2080 N   0  0  0  0  0  0  0  0  0  0  0  0
   36.2029   11.4359  -16.7822 C   0  0  0  0  0  0  0  0  0  0  0  0
   36.3376   10.9790  -17.9719 O   0  0  0  0  0  0  0  0  0  0  0  0
   34.7577   11.5082  -15.2308 H   0  0  0  0  0  0  0  0  0  0  0  0
   36.0044   13.4692  -14.3530 C   0  0  0  0  0  0  0  0  0  0  0  0
   35.7088   14.8683  -14.6240 N   0  0  0  0  0  0  0  0  0  0  0  0
   35.2546   12.8361  -13.6017 O   0  0  0  0  0  0  0  0  0  0  0  0
   35.9015   15.2888  -15.5592 H   0  0  0  0  0  0  0  0  0  0  0  0
   35.2990   15.4870  -13.8973 H   0  0  0  0  0  0  0  0  0  0  0  0
   42.9845   14.2344  -12.7991 C   0  0  0  0  0  0  0  0  0  0  0  0
   43.3598   14.7088  -11.7583 C   0  0  0  0  0  0  0  0  0  0  0  0
   43.8202   15.3062  -10.5073 C   0  0  0  0  0  0  0  0  0  0  0  0
   44.4342   16.6641  -10.7078 C   0  0  0  0  0  0  0  0  0  0  0  0
   44.7484   14.5087   -9.8538 O   0  0  0  0  0  0  0  0  0  0  0  0
   45.6113   14.5716  -10.3570 H   0  0  0  0  0  0  0  0  0  0  0  0
   42.5944   15.4699   -9.6216 C   0  0  0  0  0  0  0  0  0  0  0  0
   41.7393   16.3566  -10.3049 O   0  0  0  0  0  0  0  0  0  0  0  0
   40.4464   16.1811   -9.8001 C   0  0  0  0  0  0  0  0  0  0  0  0
 16 17  1  0  0  0
 17 18  1  0  0  0
 18 19  2  0  0  0
 18  1  1  0  0  0
  1  2  2  0  0  0
  2  3  1  0  0  0
  3  4  2  0  0  0
  4  5  1  0  0  0
  5  6  2  0  0  0
  6  7  1  0  0  0
  7 26  1  0  0  0
 26 27  3  0  0  0
 27 28  1  0  0  0
 28 29  1  0  0  0
 28 30  1  0  0  0
 28 32  1  0  0  0
 32 33  1  0  0  0
 33 34  1  0  0  0
  7  8  2  0  0  0
  8  9  1  0  0  0
  8 10  1  0  0  0
 10 11  2  0  0  0
 11 12  1  0  0  0
 12 13  1  0  0  0
 13 14  1  0  0  0
 14 15  1  0  0  0
  2 21  1  0  0  0
 21 22  1  0  0  0
 21 23  2  0  0  0
 15  1  1  0  0  0
 15  4  1  0  0  0
 11  5  1  0  0  0
 17 20  1  0  0  0
 30 31  1  0  0  0
 22 24  1  0  0  0
 22 25  1  0  0  0
M  END
> <minimizedAffinity>
-8.31182

> <CNNscore>
0.5808695555

> <CNNaffinity>
6.8347115517

> <CNN_VS>
3.9700758457

> <CNNaffinity_variance>
0.0340506062

$$$$
[H]OC(C#Cc1c([H])c2c(c([H])c1F)OC([H])([H])C([H])([H])n1c-2nc(C(=O)N([H])[H])c1C(=O)N([H])C([H])([H])[H])(C([H])([H])[H])C([H])([H])OC([H])([H])[H]


 34 36  0  0  0  0  0  0  0  0999 V2000
   43.8666   14.3050  -14.0805 C   0  0  0  0  0  0  0  0  0  0  0  0
   42.9624   14.3994  -13.0397 C   0  0  0  0  0  0  0  0  0  0  0  0
   41.7998   13.8395  -13.5196 N   0  0  0  0  0  0  0  0  0  0  0  0
   41.9939   13.4312  -14.7693 C   0  0  0  0  0  0  0  0  0  0  0  0
   40.9644   12.7862  -15.5811 C   0  0  0  0  0  0  0  0  0  0  0  0
   39.7175   12.9126  -15.0179 C   0  0  0  0  0  0  0  0  0  0  0  0
   38.6346   12.3603  -15.6565 C   0  0  0  0  0  0  0  0  0  0  0  0
   38.8503   11.6945  -16.8503 C   0  0  0  0  0  0  0  0  0  0  0  0
   37.7788   11.1549  -17.4702 F   0  0  0  0  0  0  0  0  0  0  0  0
   40.0898   11.5544  -17.4347 C   0  0  0  0  0  0  0  0  0  0  0  0
   41.1719   12.1111  -16.7887 C   0  0  0  0  0  0  0  0  0  0  0  0
   42.3766   11.9247  -17.4424 O   0  0  0  0  0  0  0  0  0  0  0  0
   43.6737   12.0514  -16.8883 C   0  0  0  0  0  0  0  0  0  0  0  0
   43.9272   13.4635  -16.3959 C   0  0  0  0  0  0  0  0  0  0  0  0
   43.2833   13.7136  -15.1392 N   0  0  0  0  0  0  0  0  0  0  0  0
   46.9652   16.5776  -14.6122 C   0  0  0  0  0  0  0  0  0  0  0  0
   45.6168   16.0684  -14.6694 N   0  0  0  0  0  0  0  0  0  0  0  0
   45.2240   14.8618  -14.0601 C   0  0  0  0  0  0  0  0  0  0  0  0
   46.1678   14.2369  -13.4592 O   0  0  0  0  0  0  0  0  0  0  0  0
   44.9235   16.6165  -15.2138 H   0  0  0  0  0  0  0  0  0  0  0  0
   43.1376   14.8797  -11.6681 C   0  0  0  0  0  0  0  0  0  0  0  0
   43.1423   13.8425  -10.6470 N   0  0  0  0  0  0  0  0  0  0  0  0
   43.2769   16.0578  -11.3219 O   0  0  0  0  0  0  0  0  0  0  0  0
   43.5569   12.9035  -10.8341 H   0  0  0  0  0  0  0  0  0  0  0  0
   42.7347   14.0058   -9.7058 H   0  0  0  0  0  0  0  0  0  0  0  0
   37.2942   12.4687  -15.0979 C   0  0  0  0  0  0  0  0  0  0  0  0
   36.1786   12.5626  -14.6553 C   0  0  0  0  0  0  0  0  0  0  0  0
   34.8346   12.6818  -14.0955 C   0  0  0  0  0  0  0  0  0  0  0  0
   34.1695   13.9795  -14.4627 C   0  0  0  0  0  0  0  0  0  0  0  0
   34.8293   12.5741  -12.7124 O   0  0  0  0  0  0  0  0  0  0  0  0
   35.2046   13.4237  -12.3397 H   0  0  0  0  0  0  0  0  0  0  0  0
   34.0109   11.5472  -14.6856 C   0  0  0  0  0  0  0  0  0  0  0  0
   33.6287   11.9754  -15.9721 O   0  0  0  0  0  0  0  0  0  0  0  0
   33.6623   10.8647  -16.8220 C   0  0  0  0  0  0  0  0  0  0  0  0
 16 17  1  0  0  0
 17 18  1  0  0  0
 18 19  2  0  0  0
 18  1  1  0  0  0
  1  2  2  0  0  0
  2  3  1  0  0  0
  3  4  2  0  0  0
  4  5  1  0  0  0
  5  6  2  0  0  0
  6  7  1  0  0  0
  7 26  1  0  0  0
 26 27  3  0  0  0
 27 28  1  0  0  0
 28 29  1  0  0  0
 28 30  1  0  0  0
 28 32  1  0  0  0
 32 33  1  0  0  0
 33 34  1  0  0  0
  7  8  2  0  0  0
  8  9  1  0  0  0
  8 10  1  0  0  0
 10 11  2  0  0  0
 11 12  1  0  0  0
 12 13  1  0  0  0
 13 14  1  0  0  0
 14 15  1  0  0  0
  2 21  1  0  0  0
 21 22  1  0  0  0
 21 23  2  0  0  0
 15  1  1  0  0  0
 15  4  1  0  0  0
 11  5  1  0  0  0
 17 20  1  0  0  0
 30 31  1  0  0  0
 22 24  1  0  0  0
 22 25  1  0  0  0
M  END
> <minimizedAffinity>
-8.29985

> <CNNscore>
0.4767633677

> <CNNaffinity>
6.6363706589

> <CNN_VS>
3.1639783382

> <CNNaffinity_variance>
0.3477300107

$$$$
[H]OC(C#Cc1c([H])c2c(c([H])c1F)OC([H])([H])C([H])([H])n1c-2nc(C(=O)N([H])[H])c1C(=O)N([H])C([H])([H])[H])(C([H])([H])[H])C([H])([H])OC([H])([H])[H]


 34 36  0  0  0  0  0  0  0  0999 V2000
   37.7493   12.6255  -15.2313 C   0  0  0  0  0  0  0  0  0  0  0  0
   37.9322   13.5376  -14.2092 C   0  0  0  0  0  0  0  0  0  0  0  0
   39.2896   13.7634  -14.1655 N   0  0  0  0  0  0  0  0  0  0  0  0
   39.8850   13.0352  -15.1044 C   0  0  0  0  0  0  0  0  0  0  0  0
   41.3272   13.0364  -15.3389 C   0  0  0  0  0  0  0  0  0  0  0  0
   42.0105   13.6385  -14.3101 C   0  0  0  0  0  0  0  0  0  0  0  0
   43.3795   13.7236  -14.3742 C   0  0  0  0  0  0  0  0  0  0  0  0
   44.0154   13.1937  -15.4832 C   0  0  0  0  0  0  0  0  0  0  0  0
   45.3618   13.2825  -15.5365 F   0  0  0  0  0  0  0  0  0  0  0  0
   43.3530   12.5856  -16.5268 C   0  0  0  0  0  0  0  0  0  0  0  0
   41.9795   12.5037  -16.4559 C   0  0  0  0  0  0  0  0  0  0  0  0
   41.3946   11.8793  -17.5429 O   0  0  0  0  0  0  0  0  0  0  0  0
   40.0361   11.9520  -17.9362 C   0  0  0  0  0  0  0  0  0  0  0  0
   39.1212   11.3910  -16.8644 C   0  0  0  0  0  0  0  0  0  0  0  0
   38.9366   12.3153  -15.7836 N   0  0  0  0  0  0  0  0  0  0  0  0
   34.8636   10.8650  -17.1344 C   0  0  0  0  0  0  0  0  0  0  0  0
   36.1428   11.4630  -16.8398 N   0  0  0  0  0  0  0  0  0  0  0  0
   36.4628   12.0150  -15.5851 C   0  0  0  0  0  0  0  0  0  0  0  0
   35.5170   11.9596  -14.7222 O   0  0  0  0  0  0  0  0  0  0  0  0
   36.8376   11.5048  -17.6098 H   0  0  0  0  0  0  0  0  0  0  0  0
   36.9558   14.2368  -13.3725 C   0  0  0  0  0  0  0  0  0  0  0  0
   36.0333   15.1021  -14.0927 N   0  0  0  0  0  0  0  0  0  0  0  0
   36.8577   14.1524  -12.1435 O   0  0  0  0  0  0  0  0  0  0  0  0
   35.6869   14.8483  -15.0436 H   0  0  0  0  0  0  0  0  0  0  0  0
   35.6939   15.9941  -13.6831 H   0  0  0  0  0  0  0  0  0  0  0  0
   44.1464   14.3527  -13.3080 C   0  0  0  0  0  0  0  0  0  0  0  0
   44.7975   14.8721  -12.4388 C   0  0  0  0  0  0  0  0  0  0  0  0
   45.5709   15.4938  -11.3669 C   0  0  0  0  0  0  0  0  0  0  0  0
   44.8205   15.5380  -10.0645 C   0  0  0  0  0  0  0  0  0  0  0  0
   45.9599   16.7879  -11.6811 O   0  0  0  0  0  0  0  0  0  0  0  0
   45.1502   17.3727  -11.6177 H   0  0  0  0  0  0  0  0  0  0  0  0
   46.8115   14.6367  -11.1665 C   0  0  0  0  0  0  0  0  0  0  0  0
   46.3489   13.3890  -10.7041 O   0  0  0  0  0  0  0  0  0  0  0  0
   47.3299   12.4339  -10.9914 C   0  0  0  0  0  0  0  0  0  0  0  0
 16 17  1  0  0  0
 17 18  1  0  0  0
 18 19  2  0  0  0
 18  1  1  0  0  0
  1  2  2  0  0  0
  2  3  1  0  0  0
  3  4  2  0  0  0
  4  5  1  0  0  0
  5  6  2  0  0  0
  6  7  1  0  0  0
  7 26  1  0  0  0
 26 27  3  0  0  0
 27 28  1  0  0  0
 28 29  1  0  0  0
 28 30  1  0  0  0
 28 32  1  0  0  0
 32 33  1  0  0  0
 33 34  1  0  0  0
  7  8  2  0  0  0
  8  9  1  0  0  0
  8 10  1  0  0  0
 10 11  2  0  0  0
 11 12  1  0  0  0
 12 13  1  0  0  0
 13 14  1  0  0  0
 14 15  1  0  0  0
  2 21  1  0  0  0
 21 22  1  0  0  0
 21 23  2  0  0  0
 15  1  1  0  0  0
 15  4  1  0  0  0
 11  5  1  0  0  0
 17 20  1  0  0  0
 30 31  1  0  0  0
 22 24  1  0  0  0
 22 25  1  0  0  0
M  END
> <minimizedAffinity>
-7.46312

> <CNNscore>
0.4155849814

> <CNNaffinity>
6.5779180527

> <CNN_VS>
2.7336840630

> <CNNaffinity_variance>
0.1875599623

$$$$
[H]OC(C#Cc1c([H])c2c(c([H])c1F)OC([H])([H])C([H])([H])n1c-2nc(C(=O)N([H])[H])c1C(=O)N([H])C([H])([H])[H])(C([H])([H])[H])C([H])([H])OC([H])([H])[H]


 34 36  0  0  0  0  0  0  0  0999 V2000
   44.0894   14.3175  -14.0626 C   0  0  0  0  0  0  0  0  0  0  0  0
   43.1375   14.5003  -13.0775 C   0  0  0  0  0  0  0  0  0  0  0  0
   41.9759   13.9738  -13.5959 N   0  0  0  0  0  0  0  0  0  0  0  0
   42.2151   13.5014  -14.8149 C   0  0  0  0  0  0  0  0  0  0  0  0
   41.1994   12.8689  -15.6536 C   0  0  0  0  0  0  0  0  0  0  0  0
   39.9324   13.0781  -15.1649 C   0  0  0  0  0  0  0  0  0  0  0  0
   38.8589   12.5484  -15.8376 C   0  0  0  0  0  0  0  0  0  0  0  0
   39.1042   11.8205  -16.9888 C   0  0  0  0  0  0  0  0  0  0  0  0
   38.0417   11.3039  -17.6427 F   0  0  0  0  0  0  0  0  0  0  0  0
   40.3643   11.5972  -17.4983 C   0  0  0  0  0  0  0  0  0  0  0  0
   41.4369   12.1316  -16.8184 C   0  0  0  0  0  0  0  0  0  0  0  0
   42.6637   11.8605  -17.3970 O   0  0  0  0  0  0  0  0  0  0  0  0
   43.9345   11.9517  -16.7789 C   0  0  0  0  0  0  0  0  0  0  0  0
   44.2302   13.3712  -16.3337 C   0  0  0  0  0  0  0  0  0  0  0  0
   43.5343   13.7069  -15.1256 N   0  0  0  0  0  0  0  0  0  0  0  0
   47.3295   16.3925  -14.5576 C   0  0  0  0  0  0  0  0  0  0  0  0
   45.9635   15.9426  -14.6682 N   0  0  0  0  0  0  0  0  0  0  0  0
   45.4694   14.8113  -13.9918 C   0  0  0  0  0  0  0  0  0  0  0  0
   46.3375   14.1970  -13.2769 O   0  0  0  0  0  0  0  0  0  0  0  0
   45.3372   16.4737  -15.3030 H   0  0  0  0  0  0  0  0  0  0  0  0
   43.2638   15.0329  -11.7200 C   0  0  0  0  0  0  0  0  0  0  0  0
   43.0388   14.0669  -10.6548 N   0  0  0  0  0  0  0  0  0  0  0  0
   43.5371   16.1998  -11.4187 O   0  0  0  0  0  0  0  0  0  0  0  0
   43.3323   13.0711  -10.7590 H   0  0  0  0  0  0  0  0  0  0  0  0
   42.5814   14.3392   -9.7630 H   0  0  0  0  0  0  0  0  0  0  0  0
   37.4978   12.7436  -15.3580 C   0  0  0  0  0  0  0  0  0  0  0  0
   36.3776   12.8946  -14.9439 C   0  0  0  0  0  0  0  0  0  0  0  0
   35.0100   13.0805  -14.4652 C   0  0  0  0  0  0  0  0  0  0  0  0
   34.0471   12.0990  -15.0740 C   0  0  0  0  0  0  0  0  0  0  0  0
   34.5341   14.3592  -14.7160 O   0  0  0  0  0  0  0  0  0  0  0  0
   34.3424   14.4257  -15.6960 H   0  0  0  0  0  0  0  0  0  0  0  0
   35.0350   12.8452  -12.9626 C   0  0  0  0  0  0  0  0  0  0  0  0
   35.1360   14.1205  -12.3731 O   0  0  0  0  0  0  0  0  0  0  0  0
   36.1791   14.0818  -11.4418 C   0  0  0  0  0  0  0  0  0  0  0  0
 16 17  1  0  0  0
 17 18  1  0  0  0
 18 19  2  0  0  0
 18  1  1  0  0  0
  1  2  2  0  0  0
  2  3  1  0  0  0
  3  4  2  0  0  0
  4  5  1  0  0  0
  5  6  2  0  0  0
  6  7  1  0  0  0
  7 26  1  0  0  0
 26 27  3  0  0  0
 27 28  1  0  0  0
 28 29  1  0  0  0
 28 30  1  0  0  0
 28 32  1  0  0  0
 32 33  1  0  0  0
 33 34  1  0  0  0
  7  8  2  0  0  0
  8  9  1  0  0  0
  8 10  1  0  0  0
 10 11  2  0  0  0
 11 12  1  0  0  0
 12 13  1  0  0  0
 13 14  1  0  0  0
 14 15  1  0  0  0
  2 21  1  0  0  0
 21 22  1  0  0  0
 21 23  2  0  0  0
 15  1  1  0  0  0
 15  4  1  0  0  0
 11  5  1  0  0  0
 17 20  1  0  0  0
 30 31  1  0  0  0
 22 24  1  0  0  0
 22 25  1  0  0  0
M  END
> <minimizedAffinity>
-8.40994

> <CNNscore>
0.3285105526

> <CNNaffinity>
6.2853698730

> <CNN_VS>
2.0648102760

> <CNNaffinity_variance>
0.1863885671

$$$$
[H]OC(C#Cc1c([H])c2c(c([H])c1F)OC([H])([H])C([H])([H])n1c-2nc(C(=O)N([H])[H])c1C(=O)N([H])C([H])([H])[H])(C([H])([H])[H])C([H])([H])OC([H])([H])[H]


 34 36  0  0  0  0  0  0  0  0999 V2000
   36.5727   13.5854  -13.6880 C   0  0  0  0  0  0  0  0  0  0  0  0
   37.5463   14.3839  -13.1186 C   0  0  0  0  0  0  0  0  0  0  0  0
   38.6928   14.1208  -13.8339 N   0  0  0  0  0  0  0  0  0  0  0  0
   38.4245   13.2229  -14.7762 C   0  0  0  0  0  0  0  0  0  0  0  0
   39.4176   12.7174  -15.7214 C   0  0  0  0  0  0  0  0  0  0  0  0
   40.6961   13.0505  -15.3443 C   0  0  0  0  0  0  0  0  0  0  0  0
   41.7512   12.6506  -16.1268 C   0  0  0  0  0  0  0  0  0  0  0  0
   41.4763   11.9228  -17.2713 C   0  0  0  0  0  0  0  0  0  0  0  0
   42.5209   11.5345  -18.0338 F   0  0  0  0  0  0  0  0  0  0  0  0
   40.2041   11.5767  -17.6703 C   0  0  0  0  0  0  0  0  0  0  0  0
   39.1502   11.9812  -16.8804 C   0  0  0  0  0  0  0  0  0  0  0  0
   37.9095   11.5923  -17.3525 O   0  0  0  0  0  0  0  0  0  0  0  0
   36.6526   12.1326  -16.9869 C   0  0  0  0  0  0  0  0  0  0  0  0
   36.3771   11.9358  -15.5084 C   0  0  0  0  0  0  0  0  0  0  0  0
   37.1007   12.8749  -14.7016 N   0  0  0  0  0  0  0  0  0  0  0  0
   32.9046   14.3224  -12.6629 C   0  0  0  0  0  0  0  0  0  0  0  0
   34.2487   14.4994  -13.1556 N   0  0  0  0  0  0  0  0  0  0  0  0
   35.1983   13.4609  -13.1893 C   0  0  0  0  0  0  0  0  0  0  0  0
   34.7787   12.3406  -12.7299 O   0  0  0  0  0  0  0  0  0  0  0  0
   34.5193   15.4511  -13.4695 H   0  0  0  0  0  0  0  0  0  0  0  0
   37.4525   15.3873  -12.0571 C   0  0  0  0  0  0  0  0  0  0  0  0
   38.4248   15.2427  -10.9837 N   0  0  0  0  0  0  0  0  0  0  0  0
   36.6390   16.3161  -12.0034 O   0  0  0  0  0  0  0  0  0  0  0  0
   39.3925   14.9027  -11.1748 H   0  0  0  0  0  0  0  0  0  0  0  0
   38.1851   15.4727   -9.9996 H   0  0  0  0  0  0  0  0  0  0  0  0
   43.1235   12.9801  -15.7675 C   0  0  0  0  0  0  0  0  0  0  0  0
   44.2622   13.2319  -15.4691 C   0  0  0  0  0  0  0  0  0  0  0  0
   45.6366   13.5602  -15.0987 C   0  0  0  0  0  0  0  0  0  0  0  0
   45.7793   14.9735  -14.6051 C   0  0  0  0  0  0  0  0  0  0  0  0
   46.5220   13.3830  -16.1519 O   0  0  0  0  0  0  0  0  0  0  0  0
   46.3765   14.1310  -16.8007 H   0  0  0  0  0  0  0  0  0  0  0  0
   46.0210   12.6239  -13.9632 C   0  0  0  0  0  0  0  0  0  0  0  0
   47.3589   12.2540  -14.2031 O   0  0  0  0  0  0  0  0  0  0  0  0
   48.0162   12.1961  -12.9696 C   0  0  0  0  0  0  0  0  0  0  0  0
 16 17  1  0  0  0
 17 18  1  0  0  0
 18 19  2  0  0  0
 18  1  1  0  0  0
  1  2  2  0  0  0
  2  3  1  0  0  0
  3  4  2  0  0  0
  4  5  1  0  0  0
  5  6  2  0  0  0
  6  7  1  0  0  0
  7 26  1  0  0  0
 26 27  3  0  0  0
 27 28  1  0  0  0
 28 29  1  0  0  0
 28 30  1  0  0  0
 28 32  1  0  0  0
 32 33  1  0  0  0
 33 34  1  0  0  0
  7  8  2  0  0  0
  8  9  1  0  0  0
  8 10  1  0  0  0
 10 11  2  0  0  0
 11 12  1  0  0  0
 12 13  1  0  0  0
 13 14  1  0  0  0
 14 15  1  0  0  0
  2 21  1  0  0  0
 21 22  1  0  0  0
 21 23  2  0  0  0
 15  1  1  0  0  0
 15  4  1  0  0  0
 11  5  1  0  0  0
 17 20  1  0  0  0
 30 31  1  0  0  0
 22 24  1  0  0  0
 22 25  1  0  0  0
M  END
> <minimizedAffinity>
-8.53786

> <CNNscore>
0.3238783181

> <CNNaffinity>
6.4446992874

> <CNN_VS>
2.0872983932

> <CNNaffinity_variance>
0.0843318924

$$$$
[H]OC(C#Cc1c([H])c2c(c([H])c1F)OC([H])([H])C([H])([H])n1c-2nc(C(=O)N([H])[H])c1C(=O)N([H])C([H])([H])[H])(C([H])([H])[H])C([H])([H])OC([H])([H])[H]


 34 36  0  0  0  0  0  0  0  0999 V2000
   36.6513   13.7281  -13.5166 C   0  0  0  0  0  0  0  0  0  0  0  0
   37.5084   14.6227  -12.9044 C   0  0  0  0  0  0  0  0  0  0  0  0
   38.7307   14.4200  -13.5046 N   0  0  0  0  0  0  0  0  0  0  0  0
   38.6149   13.4657  -14.4223 C   0  0  0  0  0  0  0  0  0  0  0  0
   39.7234   13.0001  -15.2528 C   0  0  0  0  0  0  0  0  0  0  0  0
   40.9348   13.4469  -14.7832 C   0  0  0  0  0  0  0  0  0  0  0  0
   42.0825   13.0981  -15.4516 C   0  0  0  0  0  0  0  0  0  0  0  0
   41.9658   12.3043  -16.5791 C   0  0  0  0  0  0  0  0  0  0  0  0
   43.1003   11.9670  -17.2291 F   0  0  0  0  0  0  0  0  0  0  0  0
   40.7635   11.8441  -17.0693 C   0  0  0  0  0  0  0  0  0  0  0  0
   39.6160   12.1979  -16.3937 C   0  0  0  0  0  0  0  0  0  0  0  0
   38.4547   11.6946  -16.9518 O   0  0  0  0  0  0  0  0  0  0  0  0
   37.1337   12.1503  -16.7225 C   0  0  0  0  0  0  0  0  0  0  0  0
   36.7419   11.9942  -15.2655 C   0  0  0  0  0  0  0  0  0  0  0  0
   37.3191   13.0193  -14.4455 N   0  0  0  0  0  0  0  0  0  0  0  0
   32.8794   14.2436  -12.7709 C   0  0  0  0  0  0  0  0  0  0  0  0
   34.2466   14.5044  -13.1497 N   0  0  0  0  0  0  0  0  0  0  0  0
   35.2506   13.5179  -13.1330 C   0  0  0  0  0  0  0  0  0  0  0  0
   34.8573   12.3645  -12.7366 O   0  0  0  0  0  0  0  0  0  0  0  0
   34.4893   15.4775  -13.4172 H   0  0  0  0  0  0  0  0  0  0  0  0
   37.2461   15.6590  -11.9045 C   0  0  0  0  0  0  0  0  0  0  0  0
   38.0693   15.5831  -10.7067 N   0  0  0  0  0  0  0  0  0  0  0  0
   36.4078   16.5625  -11.9956 O   0  0  0  0  0  0  0  0  0  0  0  0
   39.0627   15.2678  -10.7542 H   0  0  0  0  0  0  0  0  0  0  0  0
   37.6937   15.8394   -9.7729 H   0  0  0  0  0  0  0  0  0  0  0  0
   43.3889   13.5477  -14.9916 C   0  0  0  0  0  0  0  0  0  0  0  0
   44.4595   13.9335  -14.5987 C   0  0  0  0  0  0  0  0  0  0  0  0
   45.7692   14.3930  -14.1434 C   0  0  0  0  0  0  0  0  0  0  0  0
   46.9014   13.7155  -14.8647 C   0  0  0  0  0  0  0  0  0  0  0  0
   45.9511   14.1982  -12.7820 O   0  0  0  0  0  0  0  0  0  0  0  0
   46.0937   13.2191  -12.6312 H   0  0  0  0  0  0  0  0  0  0  0  0
   45.8419   15.8819  -14.4465 C   0  0  0  0  0  0  0  0  0  0  0  0
   45.1448   16.5233  -13.4039 O   0  0  0  0  0  0  0  0  0  0  0  0
   45.3242   17.9027  -13.5523 C   0  0  0  0  0  0  0  0  0  0  0  0
 16 17  1  0  0  0
 17 18  1  0  0  0
 18 19  2  0  0  0
 18  1  1  0  0  0
  1  2  2  0  0  0
  2  3  1  0  0  0
  3  4  2  0  0  0
  4  5  1  0  0  0
  5  6  2  0  0  0
  6  7  1  0  0  0
  7 26  1  0  0  0
 26 27  3  0  0  0
 27 28  1  0  0  0
 28 29  1  0  0  0
 28 30  1  0  0  0
 28 32  1  0  0  0
 32 33  1  0  0  0
 33 34  1  0  0  0
  7  8  2  0  0  0
  8  9  1  0  0  0
  8 10  1  0  0  0
 10 11  2  0  0  0
 11 12  1  0  0  0
 12 13  1  0  0  0
 13 14  1  0  0  0
 14 15  1  0  0  0
  2 21  1  0  0  0
 21 22  1  0  0  0
 21 23  2  0  0  0
 15  1  1  0  0  0
 15  4  1  0  0  0
 11  5  1  0  0  0
 17 20  1  0  0  0
 30 31  1  0  0  0
 22 24  1  0  0  0
 22 25  1  0  0  0
M  END
> <minimizedAffinity>
-8.17978

> <CNNscore>
0.2993319929

> <CNNaffinity>
6.1757893562

> <CNN_VS>
1.8486113548

> <CNNaffinity_variance>
0.2040133178

$$$$
[H]OC(C#Cc1c([H])c2c(c([H])c1F)OC([H])([H])C([H])([H])n1c-2nc(C(=O)N([H])[H])c1C(=O)N([H])C([H])([H])[H])(C([H])([H])[H])C([H])([H])OC([H])([H])[H]


 34 36  0  0  0  0  0  0  0  0999 V2000
   38.8848   13.8293  -13.8697 C   0  0  0  0  0  0  0  0  0  0  0  0
   39.6772   14.6275  -13.0666 C   0  0  0  0  0  0  0  0  0  0  0  0
   40.9608   14.4439  -13.5294 N   0  0  0  0  0  0  0  0  0  0  0  0
   40.9408   13.5914  -14.5488 C   0  0  0  0  0  0  0  0  0  0  0  0
   42.1347   13.1736  -15.2804 C   0  0  0  0  0  0  0  0  0  0  0  0
   43.2868   13.5285  -14.6211 C   0  0  0  0  0  0  0  0  0  0  0  0
   44.5017   13.2091  -15.1757 C   0  0  0  0  0  0  0  0  0  0  0  0
   44.5108   12.5375  -16.3856 C   0  0  0  0  0  0  0  0  0  0  0  0
   45.7106   12.2282  -16.9224 F   0  0  0  0  0  0  0  0  0  0  0  0
   43.3702   12.1711  -17.0655 C   0  0  0  0  0  0  0  0  0  0  0  0
   42.1546   12.4947  -16.5033 C   0  0  0  0  0  0  0  0  0  0  0  0
   41.0623   12.0908  -17.2496 O   0  0  0  0  0  0  0  0  0  0  0  0
   39.7332   12.5667  -17.1386 C   0  0  0  0  0  0  0  0  0  0  0  0
   39.1575   12.2783  -15.7653 C   0  0  0  0  0  0  0  0  0  0  0  0
   39.6488   13.1950  -14.7780 N   0  0  0  0  0  0  0  0  0  0  0  0
   35.0265   14.0210  -14.2239 C   0  0  0  0  0  0  0  0  0  0  0  0
   36.4330   14.2583  -14.4390 N   0  0  0  0  0  0  0  0  0  0  0  0
   37.4427   13.6304  -13.6856 C   0  0  0  0  0  0  0  0  0  0  0  0
   37.0128   12.8372  -12.7755 O   0  0  0  0  0  0  0  0  0  0  0  0
   36.6931   14.9491  -15.1687 H   0  0  0  0  0  0  0  0  0  0  0  0
   39.3136   15.5662  -12.0041 C   0  0  0  0  0  0  0  0  0  0  0  0
   38.4170   15.0325  -10.9894 N   0  0  0  0  0  0  0  0  0  0  0  0
   39.6958   16.7373  -11.9055 O   0  0  0  0  0  0  0  0  0  0  0  0
   38.4784   14.0362  -10.6857 H   0  0  0  0  0  0  0  0  0  0  0  0
   37.6924   15.6252  -10.5395 H   0  0  0  0  0  0  0  0  0  0  0  0
   45.7492   13.5646  -14.5138 C   0  0  0  0  0  0  0  0  0  0  0  0
   46.7814   13.8759  -13.9782 C   0  0  0  0  0  0  0  0  0  0  0  0
   48.0381   14.2294  -13.3228 C   0  0  0  0  0  0  0  0  0  0  0  0
   48.6114   13.0925  -12.5228 C   0  0  0  0  0  0  0  0  0  0  0  0
   47.9020   15.3216  -12.4782 O   0  0  0  0  0  0  0  0  0  0  0  0
   47.4080   15.0161  -11.6632 H   0  0  0  0  0  0  0  0  0  0  0  0
   49.0268   14.5744  -14.4261 C   0  0  0  0  0  0  0  0  0  0  0  0
   49.1673   13.4050  -15.1989 O   0  0  0  0  0  0  0  0  0  0  0  0
   49.3498   13.7901  -16.5313 C   0  0  0  0  0  0  0  0  0  0  0  0
 16 17  1  0  0  0
 17 18  1  0  0  0
 18 19  2  0  0  0
 18  1  1  0  0  0
  1  2  2  0  0  0
  2  3  1  0  0  0
  3  4  2  0  0  0
  4  5  1  0  0  0
  5  6  2  0  0  0
  6  7  1  0  0  0
  7 26  1  0  0  0
 26 27  3  0  0  0
 27 28  1  0  0  0
 28 29  1  0  0  0
 28 30  1  0  0  0
 28 32  1  0  0  0
 32 33  1  0  0  0
 33 34  1  0  0  0
  7  8  2  0  0  0
  8  9  1  0  0  0
  8 10  1  0  0  0
 10 11  2  0  0  0
 11 12  1  0  0  0
 12 13  1  0  0  0
 13 14  1  0  0  0
 14 15  1  0  0  0
  2 21  1  0  0  0
 21 22  1  0  0  0
 21 23  2  0  0  0
 15  1  1  0  0  0
 15  4  1  0  0  0
 11  5  1  0  0  0
 17 20  1  0  0  0
 30 31  1  0  0  0
 22 24  1  0  0  0
 22 25  1  0  0  0
M  END
> <minimizedAffinity>
-6.69374

> <CNNscore>
0.2363063097

> <CNNaffinity>
5.9270796776

> <CNN_VS>
1.4006062746

> <CNNaffinity_variance>
0.1669877917

$$$$
[H]OC(C#Cc1c([H])c2c(c([H])c1F)OC([H])([H])C([H])([H])n1c-2nc(C(=O)N([H])[H])c1C(=O)N([H])C([H])([H])[H])(C([H])([H])[H])C([H])([H])OC([H])([H])[H]


 34 36  0  0  0  0  0  0  0  0999 V2000
   37.1445   14.6355  -12.3393 C   0  0  0  0  0  0  0  0  0  0  0  0
   38.3075   15.2829  -11.9676 C   0  0  0  0  0  0  0  0  0  0  0  0
   39.2601   14.8580  -12.8661 N   0  0  0  0  0  0  0  0  0  0  0  0
   38.7040   14.0108  -13.7259 C   0  0  0  0  0  0  0  0  0  0  0  0
   39.4320   13.3689  -14.8182 C   0  0  0  0  0  0  0  0  0  0  0  0
   40.7913   13.5121  -14.6784 C   0  0  0  0  0  0  0  0  0  0  0  0
   41.6235   12.9653  -15.6239 C   0  0  0  0  0  0  0  0  0  0  0  0
   41.0496   12.2879  -16.6854 C   0  0  0  0  0  0  0  0  0  0  0  0
   41.8767   11.7540  -17.6097 F   0  0  0  0  0  0  0  0  0  0  0  0
   39.6907   12.1310  -16.8476 C   0  0  0  0  0  0  0  0  0  0  0  0
   38.8616   12.6821  -15.8952 C   0  0  0  0  0  0  0  0  0  0  0  0
   37.5144   12.4786  -16.1338 O   0  0  0  0  0  0  0  0  0  0  0  0
   36.4323   13.1946  -15.5667 C   0  0  0  0  0  0  0  0  0  0  0  0
   36.3966   13.0362  -14.0586 C   0  0  0  0  0  0  0  0  0  0  0  0
   37.3782   13.8584  -13.4128 N   0  0  0  0  0  0  0  0  0  0  0  0
   33.4830   15.3901  -11.3036 C   0  0  0  0  0  0  0  0  0  0  0  0
   34.7098   15.3528  -12.0615 N   0  0  0  0  0  0  0  0  0  0  0  0
   35.8762   14.7105  -11.6052 C   0  0  0  0  0  0  0  0  0  0  0  0
   35.7688   14.1706  -10.4479 O   0  0  0  0  0  0  0  0  0  0  0  0
   34.7229   15.8528  -12.9710 H   0  0  0  0  0  0  0  0  0  0  0  0
   38.5472   16.2867  -10.9296 C   0  0  0  0  0  0  0  0  0  0  0  0
   39.5080   15.8998   -9.9072 N   0  0  0  0  0  0  0  0  0  0  0  0
   38.0145   17.3995  -10.8566 O   0  0  0  0  0  0  0  0  0  0  0  0
   40.3374   15.3116  -10.1416 H   0  0  0  0  0  0  0  0  0  0  0  0
   39.3971   16.1964   -8.9181 H   0  0  0  0  0  0  0  0  0  0  0  0
   43.0704   13.0913  -15.5179 C   0  0  0  0  0  0  0  0  0  0  0  0
   44.2677   13.1753  -15.4245 C   0  0  0  0  0  0  0  0  0  0  0  0
   45.7182   13.3022  -15.3078 C   0  0  0  0  0  0  0  0  0  0  0  0
   46.1484   14.6978  -14.9491 C   0  0  0  0  0  0  0  0  0  0  0  0
   46.3738   12.9387  -16.4751 O   0  0  0  0  0  0  0  0  0  0  0  0
   46.2297   13.6683  -17.1448 H   0  0  0  0  0  0  0  0  0  0  0  0
   46.1513   12.3728  -14.1843 C   0  0  0  0  0  0  0  0  0  0  0  0
   45.5754   12.8927  -13.0085 O   0  0  0  0  0  0  0  0  0  0  0  0
   46.0097   12.1087  -11.9344 C   0  0  0  0  0  0  0  0  0  0  0  0
 16 17  1  0  0  0
 17 18  1  0  0  0
 18 19  2  0  0  0
 18  1  1  0  0  0
  1  2  2  0  0  0
  2  3  1  0  0  0
  3  4  2  0  0  0
  4  5  1  0  0  0
  5  6  2  0  0  0
  6  7  1  0  0  0
  7 26  1  0  0  0
 26 27  3  0  0  0
 27 28  1  0  0  0
 28 29  1  0  0  0
 28 30  1  0  0  0
 28 32  1  0  0  0
 32 33  1  0  0  0
 33 34  1  0  0  0
  7  8  2  0  0  0
  8  9  1  0  0  0
  8 10  1  0  0  0
 10 11  2  0  0  0
 11 12  1  0  0  0
 12 13  1  0  0  0
 13 14  1  0  0  0
 14 15  1  0  0  0
  2 21  1  0  0  0
 21 22  1  0  0  0
 21 23  2  0  0  0
 15  1  1  0  0  0
 15  4  1  0  0  0
 11  5  1  0  0  0
 17 20  1  0  0  0
 30 31  1  0  0  0
 22 24  1  0  0  0
 22 25  1  0  0  0
M  END
> <minimizedAffinity>
-8.13008

> <CNNscore>
0.2229317427

> <CNNaffinity>
5.8736791611

> <CNN_VS>
1.3094295263

> <CNNaffinity_variance>
0.1617460549

$$$$
[H]OC(C#Cc1c([H])c2c(c([H])c1F)OC([H])([H])C([H])([H])n1c-2nc(C(=O)N([H])[H])c1C(=O)N([H])C([H])([H])[H])(C([H])([H])[H])C([H])([H])OC([H])([H])[H]


 34 36  0  0  0  0  0  0  0  0999 V2000
   41.4463   13.1103  -15.4610 C   0  0  0  0  0  0  0  0  0  0  0  0
   41.1303   13.7975  -14.3044 C   0  0  0  0  0  0  0  0  0  0  0  0
   42.3034   13.8539  -13.5860 N   0  0  0  0  0  0  0  0  0  0  0  0
   43.2650   13.2418  -14.2694 C   0  0  0  0  0  0  0  0  0  0  0  0
   44.6427   13.1186  -13.7982 C   0  0  0  0  0  0  0  0  0  0  0  0
   44.7576   13.4442  -12.4683 C   0  0  0  0  0  0  0  0  0  0  0  0
   45.9905   13.3810  -11.8671 C   0  0  0  0  0  0  0  0  0  0  0  0
   47.0723   12.9883  -12.6355 C   0  0  0  0  0  0  0  0  0  0  0  0
   48.2802   12.9295  -12.0348 F   0  0  0  0  0  0  0  0  0  0  0  0
   46.9826   12.6572  -13.9696 C   0  0  0  0  0  0  0  0  0  0  0  0
   45.7426   12.7227  -14.5665 C   0  0  0  0  0  0  0  0  0  0  0  0
   45.7415   12.3745  -15.9052 O   0  0  0  0  0  0  0  0  0  0  0  0
   44.7399   12.6725  -16.8609 C   0  0  0  0  0  0  0  0  0  0  0  0
   43.4142   12.0380  -16.4859 C   0  0  0  0  0  0  0  0  0  0  0  0
   42.7480   12.7692  -15.4476 N   0  0  0  0  0  0  0  0  0  0  0  0
   38.6783   11.2803  -17.4704 C   0  0  0  0  0  0  0  0  0  0  0  0
   39.6208   11.6107  -16.4297 N   0  0  0  0  0  0  0  0  0  0  0  0
   40.4781   12.7253  -16.4941 C   0  0  0  0  0  0  0  0  0  0  0  0
   40.3675   13.4208  -17.5647 O   0  0  0  0  0  0  0  0  0  0  0  0
   39.6754   10.9690  -15.6155 H   0  0  0  0  0  0  0  0  0  0  0  0
   39.8832   14.4436  -13.8925 C   0  0  0  0  0  0  0  0  0  0  0  0
   38.8204   13.5340  -13.4906 N   0  0  0  0  0  0  0  0  0  0  0  0
   39.6699   15.6605  -13.8611 O   0  0  0  0  0  0  0  0  0  0  0  0
   39.0333   12.6435  -12.9903 H   0  0  0  0  0  0  0  0  0  0  0  0
   37.8227   13.7435  -13.6892 H   0  0  0  0  0  0  0  0  0  0  0  0
   46.1612   13.7165  -10.4603 C   0  0  0  0  0  0  0  0  0  0  0  0
   46.2818   13.9905   -9.2943 C   0  0  0  0  0  0  0  0  0  0  0  0
   46.4488   14.3365   -7.8850 C   0  0  0  0  0  0  0  0  0  0  0  0
   47.8731   14.2008   -7.4222 C   0  0  0  0  0  0  0  0  0  0  0  0
   45.6530   13.5605   -7.0548 O   0  0  0  0  0  0  0  0  0  0  0  0
   46.0559   12.6452   -7.0159 H   0  0  0  0  0  0  0  0  0  0  0  0
   46.0438   15.7955   -7.7401 C   0  0  0  0  0  0  0  0  0  0  0  0
   44.6560   15.8371   -7.9780 O   0  0  0  0  0  0  0  0  0  0  0  0
   44.1818   17.0776   -7.5384 C   0  0  0  0  0  0  0  0  0  0  0  0
 16 17  1  0  0  0
 17 18  1  0  0  0
 18 19  2  0  0  0
 18  1  1  0  0  0
  1  2  2  0  0  0
  2  3  1  0  0  0
  3  4  2  0  0  0
  4  5  1  0  0  0
  5  6  2  0  0  0
  6  7  1  0  0  0
  7 26  1  0  0  0
 26 27  3  0  0  0
 27 28  1  0  0  0
 28 29  1  0  0  0
 28 30  1  0  0  0
 28 32  1  0  0  0
 32 33  1  0  0  0
 33 34  1  0  0  0
  7  8  2  0  0  0
  8  9  1  0  0  0
  8 10  1  0  0  0
 10 11  2  0  0  0
 11 12  1  0  0  0
 12 13  1  0  0  0
 13 14  1  0  0  0
 14 15  1  0  0  0
  2 21  1  0  0  0
 21 22  1  0  0  0
 21 23  2  0  0  0
 15  1  1  0  0  0
 15  4  1  0  0  0
 11  5  1  0  0  0
 17 20  1  0  0  0
 30 31  1  0  0  0
 22 24  1  0  0  0
 22 25  1  0  0  0
M  END
> <minimizedAffinity>
-5.99691

> <CNNscore>
0.2043260634

> <CNNaffinity>
5.4411449432

> <CNN_VS>
1.1117677689

> <CNNaffinity_variance>
0.0608582795

$$$$
[H]OC([H])([H])C(C#Cc1c([H])c2c(c([H])c1F)OC([H])([H])C([H])([H])n1c-2nc(C(=O)N([H])[H])c1C(=O)N([H])C([H])([H])[H])(O[H])C([H])([H])[H]


 34 36  0  0  0  0  0  0  0  0999 V2000
   41.1515   16.3009   -6.8503 C   0  0  0  0  0  0  0  0  0  0  0  0
   40.9142   15.2851   -7.7639 C   0  0  0  0  0  0  0  0  0  0  0  0
   42.1093   14.9001   -8.2962 N   0  0  0  0  0  0  0  0  0  0  0  0
   43.0408   15.6583   -7.7219 C   0  0  0  0  0  0  0  0  0  0  0  0
   44.4784   15.5583   -8.0202 C   0  0  0  0  0  0  0  0  0  0  0  0
   44.8250   14.3330   -8.5381 C   0  0  0  0  0  0  0  0  0  0  0  0
   46.1657   14.1037   -8.8697 C   0  0  0  0  0  0  0  0  0  0  0  0
   47.1031   15.0923   -8.6757 C   0  0  0  0  0  0  0  0  0  0  0  0
   48.3848   14.8400   -9.0050 F   0  0  0  0  0  0  0  0  0  0  0  0
   46.7695   16.3241   -8.1579 C   0  0  0  0  0  0  0  0  0  0  0  0
   45.4397   16.5428   -7.8322 C   0  0  0  0  0  0  0  0  0  0  0  0
   45.1475   17.7900   -7.3170 O   0  0  0  0  0  0  0  0  0  0  0  0
   44.3396   18.1635   -6.2690 C   0  0  0  0  0  0  0  0  0  0  0  0
   43.0545   17.5295   -5.9935 C   0  0  0  0  0  0  0  0  0  0  0  0
   42.5077   16.5310   -6.8307 N   0  0  0  0  0  0  0  0  0  0  0  0
   38.4464   18.7994   -5.7350 C   0  0  0  0  0  0  0  0  0  0  0  0
   39.4955   18.1903   -6.5737 N   0  0  0  0  0  0  0  0  0  0  0  0
   40.1072   17.0149   -6.1336 C   0  0  0  0  0  0  0  0  0  0  0  0
   39.7469   16.4995   -5.0086 O   0  0  0  0  0  0  0  0  0  0  0  0
   39.7408   18.6718   -7.4473 H   0  0  0  0  0  0  0  0  0  0  0  0
   39.6760   14.6221   -8.1347 C   0  0  0  0  0  0  0  0  0  0  0  0
   39.1709   14.8340   -9.4779 N   0  0  0  0  0  0  0  0  0  0  0  0
   38.9890   13.8825   -7.4202 O   0  0  0  0  0  0  0  0  0  0  0  0
   39.8147   15.0550  -10.2617 H   0  0  0  0  0  0  0  0  0  0  0  0
   38.1530   14.7707   -9.6929 H   0  0  0  0  0  0  0  0  0  0  0  0
   46.4828   12.8146   -9.4059 C   0  0  0  0  0  0  0  0  0  0  0  0
   46.7536   11.7269   -9.8537 C   0  0  0  0  0  0  0  0  0  0  0  0
   47.0712   10.3995  -10.4190 C   0  0  0  0  0  0  0  0  0  0  0  0
   46.6181   10.4170  -11.8510 C   0  0  0  0  0  0  0  0  0  0  0  0
   46.4859    9.3968   -9.6748 O   0  0  0  0  0  0  0  0  0  0  0  0
   46.0424    9.7236   -8.8603 H   0  0  0  0  0  0  0  0  0  0  0  0
   48.5866   10.1911  -10.3477 C   0  0  0  0  0  0  0  0  0  0  0  0
   49.1588   11.1142  -11.2198 O   0  0  0  0  0  0  0  0  0  0  0  0
   48.6671   11.1958  -12.0647 H   0  0  0  0  0  0  0  0  0  0  0  0
 16 17  1  0  0  0
 17 18  1  0  0  0
 18 19  2  0  0  0
 18  1  1  0  0  0
  1  2  2  0  0  0
  2  3  1  0  0  0
  3  4  2  0  0  0
  4  5  1  0  0  0
  5  6  2  0  0  0
  6  7  1  0  0  0
  7 26  1  0  0  0
 26 27  3  0  0  0
 27 28  1  0  0  0
 28 29  1  0  0  0
 28 30  1  0  0  0
 28 32  1  0  0  0
 32 33  1  0  0  0
  7  8  2  0  0  0
  8  9  1  0  0  0
  8 10  1  0  0  0
 10 11  2  0  0  0
 11 12  1  0  0  0
 12 13  1  0  0  0
 13 14  1  0  0  0
 14 15  1  0  0  0
  2 21  1  0  0  0
 21 22  1  0  0  0
 21 23  2  0  0  0
 15  1  1  0  0  0
 15  4  1  0  0  0
 11  5  1  0  0  0
 17 20  1  0  0  0
 30 31  1  0  0  0
 33 34  1  0  0  0
 22 24  1  0  0  0
 22 25  1  0  0  0
M  END
> <minimizedAffinity>
-3.86725

> <CNNscore>
0.5881676674

> <CNNaffinity>
5.1690635681

> <CNN_VS>
3.0402760506

> <CNNaffinity_variance>
0.5994275808

$$$$
[H]OC([H])([H])C(C#Cc1c([H])c2c(c([H])c1F)OC([H])([H])C([H])([H])n1c-2nc(C(=O)N([H])[H])c1C(=O)N([H])C([H])([H])[H])(O[H])C([H])([H])[H]


 34 36  0  0  0  0  0  0  0  0999 V2000
   43.4831   13.9846  -14.1809 C   0  0  0  0  0  0  0  0  0  0  0  0
   42.4458   14.6895  -13.5894 C   0  0  0  0  0  0  0  0  0  0  0  0
   41.2762   14.3006  -14.1733 N   0  0  0  0  0  0  0  0  0  0  0  0
   41.5958   13.3883  -15.0887 C   0  0  0  0  0  0  0  0  0  0  0  0
   40.6128   12.7095  -15.9482 C   0  0  0  0  0  0  0  0  0  0  0  0
   39.3481   12.7164  -15.4092 C   0  0  0  0  0  0  0  0  0  0  0  0
   38.3134   12.1050  -16.1272 C   0  0  0  0  0  0  0  0  0  0  0  0
   38.5724   11.5149  -17.3431 C   0  0  0  0  0  0  0  0  0  0  0  0
   37.5550   10.9350  -18.0089 F   0  0  0  0  0  0  0  0  0  0  0  0
   39.8345   11.5008  -17.8944 C   0  0  0  0  0  0  0  0  0  0  0  0
   40.8533   12.1086  -17.1768 C   0  0  0  0  0  0  0  0  0  0  0  0
   42.1022   12.0730  -17.7645 O   0  0  0  0  0  0  0  0  0  0  0  0
   43.3425   11.8224  -17.2266 C   0  0  0  0  0  0  0  0  0  0  0  0
   43.7539   12.3183  -15.9173 C   0  0  0  0  0  0  0  0  0  0  0  0
   42.9320   13.1592  -15.1336 N   0  0  0  0  0  0  0  0  0  0  0  0
   47.1727   15.0763  -14.1717 C   0  0  0  0  0  0  0  0  0  0  0  0
   45.7710   14.9669  -14.6170 N   0  0  0  0  0  0  0  0  0  0  0  0
   44.8890   14.1851  -13.8684 C   0  0  0  0  0  0  0  0  0  0  0  0
   45.3217   13.5764  -12.8179 O   0  0  0  0  0  0  0  0  0  0  0  0
   45.5076   15.4658  -15.4755 H   0  0  0  0  0  0  0  0  0  0  0  0
   42.4607   15.6495  -12.4993 C   0  0  0  0  0  0  0  0  0  0  0  0
   42.3270   15.1405  -11.1475 N   0  0  0  0  0  0  0  0  0  0  0  0
   42.5764   16.8771  -12.5949 O   0  0  0  0  0  0  0  0  0  0  0  0
   42.6387   14.1805  -10.9053 H   0  0  0  0  0  0  0  0  0  0  0  0
   41.9166   15.7212  -10.3854 H   0  0  0  0  0  0  0  0  0  0  0  0
   37.0127   12.1351  -15.5298 C   0  0  0  0  0  0  0  0  0  0  0  0
   35.9182   12.1593  -15.0212 C   0  0  0  0  0  0  0  0  0  0  0  0
   34.5698   12.1936  -14.4187 C   0  0  0  0  0  0  0  0  0  0  0  0
   33.9917   13.5461  -14.7235 C   0  0  0  0  0  0  0  0  0  0  0  0
   34.6288   11.9182  -13.0687 O   0  0  0  0  0  0  0  0  0  0  0  0
   35.5271   11.6618  -12.7618 H   0  0  0  0  0  0  0  0  0  0  0  0
   33.7195   11.0980  -15.0680 C   0  0  0  0  0  0  0  0  0  0  0  0
   33.5962   11.4325  -16.4145 O   0  0  0  0  0  0  0  0  0  0  0  0
   33.4376   12.3902  -16.5562 H   0  0  0  0  0  0  0  0  0  0  0  0
 16 17  1  0  0  0
 17 18  1  0  0  0
 18 19  2  0  0  0
 18  1  1  0  0  0
  1  2  2  0  0  0
  2  3  1  0  0  0
  3  4  2  0  0  0
  4  5  1  0  0  0
  5  6  2  0  0  0
  6  7  1  0  0  0
  7 26  1  0  0  0
 26 27  3  0  0  0
 27 28  1  0  0  0
 28 29  1  0  0  0
 28 30  1  0  0  0
 28 32  1  0  0  0
 32 33  1  0  0  0
  7  8  2  0  0  0
  8  9  1  0  0  0
  8 10  1  0  0  0
 10 11  2  0  0  0
 11 12  1  0  0  0
 12 13  1  0  0  0
 13 14  1  0  0  0
 14 15  1  0  0  0
  2 21  1  0  0  0
 21 22  1  0  0  0
 21 23  2  0  0  0
 15  1  1  0  0  0
 15  4  1  0  0  0
 11  5  1  0  0  0
 17 20  1  0  0  0
 30 31  1  0  0  0
 33 34  1  0  0  0
 22 24  1  0  0  0
 22 25  1  0  0  0
M  END
> <minimizedAffinity>
-8.04764

> <CNNscore>
0.5085250735

> <CNNaffinity>
6.6704902649

> <CNN_VS>
3.3921115398

> <CNNaffinity_variance>
0.1724258512

$$$$
[H]OC([H])([H])C(C#Cc1c([H])c2c(c([H])c1F)OC([H])([H])C([H])([H])n1c-2nc(C(=O)N([H])[H])c1C(=O)N([H])C([H])([H])[H])(O[H])C([H])([H])[H]


 34 36  0  0  0  0  0  0  0  0999 V2000
   35.6024   14.5229  -12.5300 C   0  0  0  0  0  0  0  0  0  0  0  0
   36.8310   14.6096  -11.8930 C   0  0  0  0  0  0  0  0  0  0  0  0
   37.7605   13.9810  -12.6682 N   0  0  0  0  0  0  0  0  0  0  0  0
   37.1148   13.5290  -13.7411 C   0  0  0  0  0  0  0  0  0  0  0  0
   37.7614   12.7877  -14.8356 C   0  0  0  0  0  0  0  0  0  0  0  0
   39.1131   13.0275  -14.9078 C   0  0  0  0  0  0  0  0  0  0  0  0
   39.8531   12.3816  -15.9055 C   0  0  0  0  0  0  0  0  0  0  0  0
   39.2272   11.5292  -16.7860 C   0  0  0  0  0  0  0  0  0  0  0  0
   39.9675   10.9232  -17.7344 F   0  0  0  0  0  0  0  0  0  0  0  0
   37.8740   11.2802  -16.7248 C   0  0  0  0  0  0  0  0  0  0  0  0
   37.1488   11.9239  -15.7339 C   0  0  0  0  0  0  0  0  0  0  0  0
   35.7964   11.6465  -15.7068 O   0  0  0  0  0  0  0  0  0  0  0  0
   34.7123   12.4726  -15.5259 C   0  0  0  0  0  0  0  0  0  0  0  0
   34.7071   13.5765  -14.5716 C   0  0  0  0  0  0  0  0  0  0  0  0
   35.7935   13.8337  -13.7052 N   0  0  0  0  0  0  0  0  0  0  0  0
   31.9142   15.1038  -11.6004 C   0  0  0  0  0  0  0  0  0  0  0  0
   33.0903   14.4962  -12.2504 N   0  0  0  0  0  0  0  0  0  0  0  0
   34.3551   15.0165  -11.9690 C   0  0  0  0  0  0  0  0  0  0  0  0
   34.4609   16.0137  -11.1592 O   0  0  0  0  0  0  0  0  0  0  0  0
   32.9222   13.7173  -12.8986 H   0  0  0  0  0  0  0  0  0  0  0  0
   37.2054   15.2707  -10.6549 C   0  0  0  0  0  0  0  0  0  0  0  0
   37.5365   16.6817  -10.7146 N   0  0  0  0  0  0  0  0  0  0  0  0
   37.2758   14.7564   -9.5324 O   0  0  0  0  0  0  0  0  0  0  0  0
   37.1294   17.2951  -11.4465 H   0  0  0  0  0  0  0  0  0  0  0  0
   38.1887   17.1173  -10.0281 H   0  0  0  0  0  0  0  0  0  0  0  0
   41.2570   12.6595  -15.9447 C   0  0  0  0  0  0  0  0  0  0  0  0
   42.4400   12.8963  -15.9826 C   0  0  0  0  0  0  0  0  0  0  0  0
   43.8904   13.1757  -16.0094 C   0  0  0  0  0  0  0  0  0  0  0  0
   44.3413   13.2713  -14.5798 C   0  0  0  0  0  0  0  0  0  0  0  0
   44.1572   14.3133  -16.7419 O   0  0  0  0  0  0  0  0  0  0  0  0
   43.3636   14.6852  -17.1878 H   0  0  0  0  0  0  0  0  0  0  0  0
   44.5968   12.0106  -16.7084 C   0  0  0  0  0  0  0  0  0  0  0  0
   45.8456   12.4812  -17.1072 O   0  0  0  0  0  0  0  0  0  0  0  0
   45.8102   13.3884  -17.4787 H   0  0  0  0  0  0  0  0  0  0  0  0
 16 17  1  0  0  0
 17 18  1  0  0  0
 18 19  2  0  0  0
 18  1  1  0  0  0
  1  2  2  0  0  0
  2  3  1  0  0  0
  3  4  2  0  0  0
  4  5  1  0  0  0
  5  6  2  0  0  0
  6  7  1  0  0  0
  7 26  1  0  0  0
 26 27  3  0  0  0
 27 28  1  0  0  0
 28 29  1  0  0  0
 28 30  1  0  0  0
 28 32  1  0  0  0
 32 33  1  0  0  0
  7  8  2  0  0  0
  8  9  1  0  0  0
  8 10  1  0  0  0
 10 11  2  0  0  0
 11 12  1  0  0  0
 12 13  1  0  0  0
 13 14  1  0  0  0
 14 15  1  0  0  0
  2 21  1  0  0  0
 21 22  1  0  0  0
 21 23  2  0  0  0
 15  1  1  0  0  0
 15  4  1  0  0  0
 11  5  1  0  0  0
 17 20  1  0  0  0
 30 31  1  0  0  0
 33 34  1  0  0  0
 22 24  1  0  0  0
 22 25  1  0  0  0
M  END
> <minimizedAffinity>
-9.80511

> <CNNscore>
0.5034833550

> <CNNaffinity>
6.6477217674

> <CNN_VS>
3.3470172882

> <CNNaffinity_variance>
0.0853150189

$$$$
[H]OC([H])([H])C(C#Cc1c([H])c2c(c([H])c1F)OC([H])([H])C([H])([H])n1c-2nc(C(=O)N([H])[H])c1C(=O)N([H])C([H])([H])[H])(O[H])C([H])([H])[H]


 34 36  0  0  0  0  0  0  0  0999 V2000
   35.9216   13.7346  -13.2454 C   0  0  0  0  0  0  0  0  0  0  0  0
   36.9972   13.8244  -12.3748 C   0  0  0  0  0  0  0  0  0  0  0  0
   38.1198   13.4256  -13.0387 N   0  0  0  0  0  0  0  0  0  0  0  0
   37.7357   13.1056  -14.2726 C   0  0  0  0  0  0  0  0  0  0  0  0
   38.6528   12.6245  -15.3181 C   0  0  0  0  0  0  0  0  0  0  0  0
   39.9560   12.9967  -15.0879 C   0  0  0  0  0  0  0  0  0  0  0  0
   40.9352   12.6013  -16.0070 C   0  0  0  0  0  0  0  0  0  0  0  0
   40.5853   11.8574  -17.1106 C   0  0  0  0  0  0  0  0  0  0  0  0
   41.5513   11.4929  -17.9760 F   0  0  0  0  0  0  0  0  0  0  0  0
   39.2838   11.4779  -17.3532 C   0  0  0  0  0  0  0  0  0  0  0  0
   38.3204   11.8736  -16.4380 C   0  0  0  0  0  0  0  0  0  0  0  0
   37.0292   11.4721  -16.7178 O   0  0  0  0  0  0  0  0  0  0  0  0
   35.8372   12.1518  -16.6305 C   0  0  0  0  0  0  0  0  0  0  0  0
   35.5269   13.0716  -15.5409 C   0  0  0  0  0  0  0  0  0  0  0  0
   36.4018   13.2764  -14.4503 N   0  0  0  0  0  0  0  0  0  0  0  0
   32.6539   15.3394  -11.9999 C   0  0  0  0  0  0  0  0  0  0  0  0
   34.0860   15.2103  -12.3278 N   0  0  0  0  0  0  0  0  0  0  0  0
   34.5434   14.0083  -12.8714 C   0  0  0  0  0  0  0  0  0  0  0  0
   33.7088   13.0453  -13.0642 O   0  0  0  0  0  0  0  0  0  0  0  0
   34.6913   16.0155  -12.1264 H   0  0  0  0  0  0  0  0  0  0  0  0
   37.0613   14.2965  -11.0025 C   0  0  0  0  0  0  0  0  0  0  0  0
   38.2932   14.9206  -10.5585 N   0  0  0  0  0  0  0  0  0  0  0  0
   36.1665   14.2248  -10.1519 O   0  0  0  0  0  0  0  0  0  0  0  0
   38.9182   15.4057  -11.2305 H   0  0  0  0  0  0  0  0  0  0  0  0
   38.5840   14.8997   -9.5578 H   0  0  0  0  0  0  0  0  0  0  0  0
   42.2788   13.0101  -15.7289 C   0  0  0  0  0  0  0  0  0  0  0  0
   43.4122   13.3564  -15.4996 C   0  0  0  0  0  0  0  0  0  0  0  0
   44.7970   13.7734  -15.1979 C   0  0  0  0  0  0  0  0  0  0  0  0
   45.0116   13.5388  -13.7299 C   0  0  0  0  0  0  0  0  0  0  0  0
   45.0085   15.0823  -15.5770 O   0  0  0  0  0  0  0  0  0  0  0  0
   44.2463   15.4778  -16.0560 H   0  0  0  0  0  0  0  0  0  0  0  0
   45.7554   12.9039  -16.0166 C   0  0  0  0  0  0  0  0  0  0  0  0
   46.5799   12.2493  -15.1046 O   0  0  0  0  0  0  0  0  0  0  0  0
   46.8754   12.8312  -14.3721 H   0  0  0  0  0  0  0  0  0  0  0  0
 16 17  1  0  0  0
 17 18  1  0  0  0
 18 19  2  0  0  0
 18  1  1  0  0  0
  1  2  2  0  0  0
  2  3  1  0  0  0
  3  4  2  0  0  0
  4  5  1  0  0  0
  5  6  2  0  0  0
  6  7  1  0  0  0
  7 26  1  0  0  0
 26 27  3  0  0  0
 27 28  1  0  0  0
 28 29  1  0  0  0
 28 30  1  0  0  0
 28 32  1  0  0  0
 32 33  1  0  0  0
  7  8  2  0  0  0
  8  9  1  0  0  0
  8 10  1  0  0  0
 10 11  2  0  0  0
 11 12  1  0  0  0
 12 13  1  0  0  0
 13 14  1  0  0  0
 14 15  1  0  0  0
  2 21  1  0  0  0
 21 22  1  0  0  0
 21 23  2  0  0  0
 15  1  1  0  0  0
 15  4  1  0  0  0
 11  5  1  0  0  0
 17 20  1  0  0  0
 30 31  1  0  0  0
 33 34  1  0  0  0
 22 24  1  0  0  0
 22 25  1  0  0  0
M  END
> <minimizedAffinity>
-9.30953

> <CNNscore>
0.3770670593

> <CNNaffinity>
6.3912959099

> <CNN_VS>
2.4099471569

> <CNNaffinity_variance>
0.0534216762

$$$$
[H]OC([H])([H])C(C#Cc1c([H])c2c(c([H])c1F)OC([H])([H])C([H])([H])n1c-2nc(C(=O)N([H])[H])c1C(=O)N([H])C([H])([H])[H])(O[H])C([H])([H])[H]


 34 36  0  0  0  0  0  0  0  0999 V2000
   37.6650   12.3161  -15.5020 C   0  0  0  0  0  0  0  0  0  0  0  0
   38.7372   12.0141  -16.3279 C   0  0  0  0  0  0  0  0  0  0  0  0
   39.8373   12.6692  -15.8581 N   0  0  0  0  0  0  0  0  0  0  0  0
   39.4433   13.3456  -14.7812 C   0  0  0  0  0  0  0  0  0  0  0  0
   40.3360   14.1891  -13.9705 C   0  0  0  0  0  0  0  0  0  0  0  0
   41.6585   13.8388  -14.1060 C   0  0  0  0  0  0  0  0  0  0  0  0
   42.6177   14.5644  -13.3894 C   0  0  0  0  0  0  0  0  0  0  0  0
   42.2298   15.6015  -12.5724 C   0  0  0  0  0  0  0  0  0  0  0  0
   43.1773   16.2799  -11.8964 F   0  0  0  0  0  0  0  0  0  0  0  0
   40.9087   15.9627  -12.4276 C   0  0  0  0  0  0  0  0  0  0  0  0
   39.9653   15.2391  -13.1408 C   0  0  0  0  0  0  0  0  0  0  0  0
   38.6534   15.6336  -12.9681 O   0  0  0  0  0  0  0  0  0  0  0  0
   37.5065   14.8940  -12.8001 C   0  0  0  0  0  0  0  0  0  0  0  0
   37.2470   13.6568  -13.5290 C   0  0  0  0  0  0  0  0  0  0  0  0
   38.1245   13.1638  -14.5209 N   0  0  0  0  0  0  0  0  0  0  0  0
   34.3366   11.1727  -17.0572 C   0  0  0  0  0  0  0  0  0  0  0  0
   35.7329   11.6421  -16.9858 N   0  0  0  0  0  0  0  0  0  0  0  0
   36.3042   11.8575  -15.7301 C   0  0  0  0  0  0  0  0  0  0  0  0
   35.5984   11.6492  -14.6720 O   0  0  0  0  0  0  0  0  0  0  0  0
   36.2229   11.8042  -17.8740 H   0  0  0  0  0  0  0  0  0  0  0  0
   38.8205   11.1311  -17.4783 C   0  0  0  0  0  0  0  0  0  0  0  0
   39.9887   11.2397  -18.3314 N   0  0  0  0  0  0  0  0  0  0  0  0
   37.9911   10.2800  -17.8205 O   0  0  0  0  0  0  0  0  0  0  0  0
   40.8964   11.5728  -17.9538 H   0  0  0  0  0  0  0  0  0  0  0  0
   39.9500   10.9875  -19.3420 H   0  0  0  0  0  0  0  0  0  0  0  0
   43.9824   14.1666  -13.5596 C   0  0  0  0  0  0  0  0  0  0  0  0
   45.1337   13.8311  -13.6977 C   0  0  0  0  0  0  0  0  0  0  0  0
   46.5400   13.4209  -13.8889 C   0  0  0  0  0  0  0  0  0  0  0  0
   46.7653   12.2202  -13.0149 C   0  0  0  0  0  0  0  0  0  0  0  0
   47.3974   14.4649  -13.6117 O   0  0  0  0  0  0  0  0  0  0  0  0
   46.9336   15.3119  -13.4265 H   0  0  0  0  0  0  0  0  0  0  0  0
   46.7415   13.0475  -15.3602 C   0  0  0  0  0  0  0  0  0  0  0  0
   45.8915   11.9752  -15.6208 O   0  0  0  0  0  0  0  0  0  0  0  0
   45.8785   11.3143  -14.8960 H   0  0  0  0  0  0  0  0  0  0  0  0
 16 17  1  0  0  0
 17 18  1  0  0  0
 18 19  2  0  0  0
 18  1  1  0  0  0
  1  2  2  0  0  0
  2  3  1  0  0  0
  3  4  2  0  0  0
  4  5  1  0  0  0
  5  6  2  0  0  0
  6  7  1  0  0  0
  7 26  1  0  0  0
 26 27  3  0  0  0
 27 28  1  0  0  0
 28 29  1  0  0  0
 28 30  1  0  0  0
 28 32  1  0  0  0
 32 33  1  0  0  0
  7  8  2  0  0  0
  8  9  1  0  0  0
  8 10  1  0  0  0
 10 11  2  0  0  0
 11 12  1  0  0  0
 12 13  1  0  0  0
 13 14  1  0  0  0
 14 15  1  0  0  0
  2 21  1  0  0  0
 21 22  1  0  0  0
 21 23  2  0  0  0
 15  1  1  0  0  0
 15  4  1  0  0  0
 11  5  1  0  0  0
 17 20  1  0  0  0
 30 31  1  0  0  0
 33 34  1  0  0  0
 22 24  1  0  0  0
 22 25  1  0  0  0
M  END
> <minimizedAffinity>
-8.07535

> <CNNscore>
0.3188396394

> <CNNaffinity>
6.2814536095

> <CNN_VS>
2.0027763844

> <CNNaffinity_variance>
0.1093441024

$$$$
[H]OC([H])([H])C(C#Cc1c([H])c2c(c([H])c1F)OC([H])([H])C([H])([H])n1c-2nc(C(=O)N([H])[H])c1C(=O)N([H])C([H])([H])[H])(O[H])C([H])([H])[H]


 34 36  0  0  0  0  0  0  0  0999 V2000
   41.8638   16.3855   -7.2565 C   0  0  0  0  0  0  0  0  0  0  0  0
   41.3324   15.7433   -8.3646 C   0  0  0  0  0  0  0  0  0  0  0  0
   42.2765   15.7358   -9.3488 N   0  0  0  0  0  0  0  0  0  0  0  0
   43.3461   16.3532   -8.8514 C   0  0  0  0  0  0  0  0  0  0  0  0
   44.5970   16.5571   -9.5991 C   0  0  0  0  0  0  0  0  0  0  0  0
   44.7498   15.6561  -10.6261 C   0  0  0  0  0  0  0  0  0  0  0  0
   45.8986   15.7397  -11.4218 C   0  0  0  0  0  0  0  0  0  0  0  0
   46.8440   16.7072  -11.1690 C   0  0  0  0  0  0  0  0  0  0  0  0
   47.9382   16.7609  -11.9530 F   0  0  0  0  0  0  0  0  0  0  0  0
   46.7035   17.6157  -10.1436 C   0  0  0  0  0  0  0  0  0  0  0  0
   45.5629   17.5259   -9.3605 C   0  0  0  0  0  0  0  0  0  0  0  0
   45.4604   18.4553   -8.3444 O   0  0  0  0  0  0  0  0  0  0  0  0
   45.0557   18.3181   -7.0376 C   0  0  0  0  0  0  0  0  0  0  0  0
   43.9420   17.4641   -6.6379 C   0  0  0  0  0  0  0  0  0  0  0  0
   43.1455   16.7697   -7.5761 N   0  0  0  0  0  0  0  0  0  0  0  0
   39.7076   17.9456   -4.4777 C   0  0  0  0  0  0  0  0  0  0  0  0
   40.4131   17.8230   -5.7670 N   0  0  0  0  0  0  0  0  0  0  0  0
   41.1234   16.6508   -6.0335 C   0  0  0  0  0  0  0  0  0  0  0  0
   41.1506   15.7147   -5.1479 O   0  0  0  0  0  0  0  0  0  0  0  0
   40.3604   18.6205   -6.4123 H   0  0  0  0  0  0  0  0  0  0  0  0
   40.0433   15.1006   -8.5526 C   0  0  0  0  0  0  0  0  0  0  0  0
   39.8968   13.7316   -8.0957 N   0  0  0  0  0  0  0  0  0  0  0  0
   39.0358   15.5982   -9.0689 O   0  0  0  0  0  0  0  0  0  0  0  0
   40.4716   13.3657   -7.3127 H   0  0  0  0  0  0  0  0  0  0  0  0
   39.2139   13.0803   -8.5383 H   0  0  0  0  0  0  0  0  0  0  0  0
   46.0175   14.7826  -12.4799 C   0  0  0  0  0  0  0  0  0  0  0  0
   46.1218   13.9785  -13.3741 C   0  0  0  0  0  0  0  0  0  0  0  0
   46.2328   12.9826  -14.4596 C   0  0  0  0  0  0  0  0  0  0  0  0
   44.9830   13.0976  -15.2848 C   0  0  0  0  0  0  0  0  0  0  0  0
   46.4322   11.7182  -13.9464 O   0  0  0  0  0  0  0  0  0  0  0  0
   46.5550   11.7080  -12.9708 H   0  0  0  0  0  0  0  0  0  0  0  0
   47.4595   13.3252  -15.3097 C   0  0  0  0  0  0  0  0  0  0  0  0
   47.1092   13.0787  -16.6351 O   0  0  0  0  0  0  0  0  0  0  0  0
   46.5934   12.2516  -16.7454 H   0  0  0  0  0  0  0  0  0  0  0  0
 16 17  1  0  0  0
 17 18  1  0  0  0
 18 19  2  0  0  0
 18  1  1  0  0  0
  1  2  2  0  0  0
  2  3  1  0  0  0
  3  4  2  0  0  0
  4  5  1  0  0  0
  5  6  2  0  0  0
  6  7  1  0  0  0
  7 26  1  0  0  0
 26 27  3  0  0  0
 27 28  1  0  0  0
 28 29  1  0  0  0
 28 30  1  0  0  0
 28 32  1  0  0  0
 32 33  1  0  0  0
  7  8  2  0  0  0
  8  9  1  0  0  0
  8 10  1  0  0  0
 10 11  2  0  0  0
 11 12  1  0  0  0
 12 13  1  0  0  0
 13 14  1  0  0  0
 14 15  1  0  0  0
  2 21  1  0  0  0
 21 22  1  0  0  0
 21 23  2  0  0  0
 15  1  1  0  0  0
 15  4  1  0  0  0
 11  5  1  0  0  0
 17 20  1  0  0  0
 30 31  1  0  0  0
 33 34  1  0  0  0
 22 24  1  0  0  0
 22 25  1  0  0  0
M  END
> <minimizedAffinity>
-5.13564

> <CNNscore>
0.3073373735

> <CNNaffinity>
5.0079917908

> <CNN_VS>
1.5391430855

> <CNNaffinity_variance>
0.5937420130

$$$$
[H]OC([H])([H])C(C#Cc1c([H])c2c(c([H])c1F)OC([H])([H])C([H])([H])n1c-2nc(C(=O)N([H])[H])c1C(=O)N([H])C([H])([H])[H])(O[H])C([H])([H])[H]


 34 36  0  0  0  0  0  0  0  0999 V2000
   41.6456   16.0479   -7.8650 C   0  0  0  0  0  0  0  0  0  0  0  0
   41.1271   16.2455   -6.5941 C   0  0  0  0  0  0  0  0  0  0  0  0
   39.7728   16.3683   -6.6986 N   0  0  0  0  0  0  0  0  0  0  0  0
   39.4809   16.2477   -7.9919 C   0  0  0  0  0  0  0  0  0  0  0  0
   38.1148   16.3190   -8.5344 C   0  0  0  0  0  0  0  0  0  0  0  0
   37.1577   16.0255   -7.5922 C   0  0  0  0  0  0  0  0  0  0  0  0
   35.8116   16.0593   -7.9755 C   0  0  0  0  0  0  0  0  0  0  0  0
   35.4705   16.3806   -9.2693 C   0  0  0  0  0  0  0  0  0  0  0  0
   34.1663   16.4042   -9.6061 F   0  0  0  0  0  0  0  0  0  0  0  0
   36.4191   16.6766  -10.2229 C   0  0  0  0  0  0  0  0  0  0  0  0
   37.7497   16.6410   -9.8350 C   0  0  0  0  0  0  0  0  0  0  0  0
   38.6681   16.9445  -10.8203 O   0  0  0  0  0  0  0  0  0  0  0  0
   39.8708   16.3598  -11.1398 C   0  0  0  0  0  0  0  0  0  0  0  0
   40.8119   15.8809  -10.1326 C   0  0  0  0  0  0  0  0  0  0  0  0
   40.5902   16.0507   -8.7474 N   0  0  0  0  0  0  0  0  0  0  0  0
   45.2095   14.8075   -8.6162 C   0  0  0  0  0  0  0  0  0  0  0  0
   43.7670   14.7493   -8.3149 N   0  0  0  0  0  0  0  0  0  0  0  0
   43.0656   15.9467   -8.1608 C   0  0  0  0  0  0  0  0  0  0  0  0
   43.6947   17.0656   -8.2774 O   0  0  0  0  0  0  0  0  0  0  0  0
   43.3417   13.8193   -8.2175 H   0  0  0  0  0  0  0  0  0  0  0  0
   41.7889   16.2776   -5.3014 C   0  0  0  0  0  0  0  0  0  0  0  0
   42.3455   15.0374   -4.7953 N   0  0  0  0  0  0  0  0  0  0  0  0
   41.9342   17.2626   -4.5679 O   0  0  0  0  0  0  0  0  0  0  0  0
   42.6605   14.2899   -5.4431 H   0  0  0  0  0  0  0  0  0  0  0  0
   42.4445   14.8626   -3.7725 H   0  0  0  0  0  0  0  0  0  0  0  0
   34.8482   15.7473   -6.9634 C   0  0  0  0  0  0  0  0  0  0  0  0
   34.0326   15.4822   -6.1139 C   0  0  0  0  0  0  0  0  0  0  0  0
   33.0481   15.1663   -5.0588 C   0  0  0  0  0  0  0  0  0  0  0  0
   33.6197   15.6721   -3.7652 C   0  0  0  0  0  0  0  0  0  0  0  0
   32.7667   13.8163   -5.0390 O   0  0  0  0  0  0  0  0  0  0  0  0
   33.1906   13.3187   -5.7735 H   0  0  0  0  0  0  0  0  0  0  0  0
   31.7410   15.8969   -5.3794 C   0  0  0  0  0  0  0  0  0  0  0  0
   32.0062   17.2596   -5.2654 O   0  0  0  0  0  0  0  0  0  0  0  0
   32.5655   17.4753   -4.4889 H   0  0  0  0  0  0  0  0  0  0  0  0
 16 17  1  0  0  0
 17 18  1  0  0  0
 18 19  2  0  0  0
 18  1  1  0  0  0
  1  2  2  0  0  0
  2  3  1  0  0  0
  3  4  2  0  0  0
  4  5  1  0  0  0
  5  6  2  0  0  0
  6  7  1  0  0  0
  7 26  1  0  0  0
 26 27  3  0  0  0
 27 28  1  0  0  0
 28 29  1  0  0  0
 28 30  1  0  0  0
 28 32  1  0  0  0
 32 33  1  0  0  0
  7  8  2  0  0  0
  8  9  1  0  0  0
  8 10  1  0  0  0
 10 11  2  0  0  0
 11 12  1  0  0  0
 12 13  1  0  0  0
 13 14  1  0  0  0
 14 15  1  0  0  0
  2 21  1  0  0  0
 21 22  1  0  0  0
 21 23  2  0  0  0
 15  1  1  0  0  0
 15  4  1  0  0  0
 11  5  1  0  0  0
 17 20  1  0  0  0
 30 31  1  0  0  0
 33 34  1  0  0  0
 22 24  1  0  0  0
 22 25  1  0  0  0
M  END
> <minimizedAffinity>
-5.38644

> <CNNscore>
0.2824823558

> <CNNaffinity>
5.1378526688

> <CNN_VS>
1.4513527155

> <CNNaffinity_variance>
0.6223055124

$$$$
[H]OC([H])([H])C(C#Cc1c([H])c2c(c([H])c1F)OC([H])([H])C([H])([H])n1c-2nc(C(=O)N([H])[H])c1C(=O)N([H])C([H])([H])[H])(O[H])C([H])([H])[H]


 34 36  0  0  0  0  0  0  0  0999 V2000
   41.1716   14.9613  -12.8429 C   0  0  0  0  0  0  0  0  0  0  0  0
   39.8232   15.2725  -12.7537 C   0  0  0  0  0  0  0  0  0  0  0  0
   39.1625   14.6003  -13.7394 N   0  0  0  0  0  0  0  0  0  0  0  0
   40.0821   13.9032  -14.4035 C   0  0  0  0  0  0  0  0  0  0  0  0
   39.7811   13.0337  -15.5520 C   0  0  0  0  0  0  0  0  0  0  0  0
   38.4709   12.6177  -15.5686 C   0  0  0  0  0  0  0  0  0  0  0  0
   38.0484   11.7851  -16.6119 C   0  0  0  0  0  0  0  0  0  0  0  0
   38.9362   11.4008  -17.5905 C   0  0  0  0  0  0  0  0  0  0  0  0
   38.4981   10.5992  -18.5806 F   0  0  0  0  0  0  0  0  0  0  0  0
   40.2511   11.8102  -17.5858 C   0  0  0  0  0  0  0  0  0  0  0  0
   40.6612   12.6346  -16.5492 C   0  0  0  0  0  0  0  0  0  0  0  0
   41.9860   13.0226  -16.5821 O   0  0  0  0  0  0  0  0  0  0  0  0
   42.9221   13.1119  -15.5790 C   0  0  0  0  0  0  0  0  0  0  0  0
   42.6061   13.5998  -14.2406 C   0  0  0  0  0  0  0  0  0  0  0  0
   41.3261   14.0893  -13.8956 N   0  0  0  0  0  0  0  0  0  0  0  0
   43.5559   15.8527   -9.9576 C   0  0  0  0  0  0  0  0  0  0  0  0
   42.4741   15.1642  -10.6862 N   0  0  0  0  0  0  0  0  0  0  0  0
   42.2022   15.5473  -12.0010 C   0  0  0  0  0  0  0  0  0  0  0  0
   42.8942   16.4925  -12.5385 O   0  0  0  0  0  0  0  0  0  0  0  0
   41.9549   14.4348  -10.1826 H   0  0  0  0  0  0  0  0  0  0  0  0
   39.1090   16.1008  -11.7978 C   0  0  0  0  0  0  0  0  0  0  0  0
   37.6625   15.9985  -11.7617 N   0  0  0  0  0  0  0  0  0  0  0  0
   39.6044   16.9003  -10.9947 O   0  0  0  0  0  0  0  0  0  0  0  0
   37.1819   15.1232  -12.0453 H   0  0  0  0  0  0  0  0  0  0  0  0
   37.0679   16.7965  -11.4515 H   0  0  0  0  0  0  0  0  0  0  0  0
   36.6767   11.3757  -16.5907 C   0  0  0  0  0  0  0  0  0  0  0  0
   35.5186   11.0356  -16.5740 C   0  0  0  0  0  0  0  0  0  0  0  0
   34.1076   10.5986  -16.5487 C   0  0  0  0  0  0  0  0  0  0  0  0
   34.1126    9.1040  -16.6990 C   0  0  0  0  0  0  0  0  0  0  0  0
   33.3774   11.2418  -17.5258 O   0  0  0  0  0  0  0  0  0  0  0  0
   33.8882   11.9336  -18.0027 H   0  0  0  0  0  0  0  0  0  0  0  0
   33.5017   10.9908  -15.1982 C   0  0  0  0  0  0  0  0  0  0  0  0
   33.4773   12.3830  -15.1599 O   0  0  0  0  0  0  0  0  0  0  0  0
   34.2948   12.7884  -15.5198 H   0  0  0  0  0  0  0  0  0  0  0  0
 16 17  1  0  0  0
 17 18  1  0  0  0
 18 19  2  0  0  0
 18  1  1  0  0  0
  1  2  2  0  0  0
  2  3  1  0  0  0
  3  4  2  0  0  0
  4  5  1  0  0  0
  5  6  2  0  0  0
  6  7  1  0  0  0
  7 26  1  0  0  0
 26 27  3  0  0  0
 27 28  1  0  0  0
 28 29  1  0  0  0
 28 30  1  0  0  0
 28 32  1  0  0  0
 32 33  1  0  0  0
  7  8  2  0  0  0
  8  9  1  0  0  0
  8 10  1  0  0  0
 10 11  2  0  0  0
 11 12  1  0  0  0
 12 13  1  0  0  0
 13 14  1  0  0  0
 14 15  1  0  0  0
  2 21  1  0  0  0
 21 22  1  0  0  0
 21 23  2  0  0  0
 15  1  1  0  0  0
 15  4  1  0  0  0
 11  5  1  0  0  0
 17 20  1  0  0  0
 30 31  1  0  0  0
 33 34  1  0  0  0
 22 24  1  0  0  0
 22 25  1  0  0  0
M  END
> <minimizedAffinity>
-8.94985

> <CNNscore>
0.1864114553

> <CNNaffinity>
6.2232165337

> <CNN_VS>
1.1600788832

> <CNNaffinity_variance>
0.0462736413

$$$$
[H]OC([H])([H])C(C#Cc1c([H])c2c(c([H])c1F)OC([H])([H])C([H])([H])n1c-2nc(C(=O)N([H])[H])c1C(=O)N([H])C([H])([H])[H])(O[H])C([H])([H])[H]


 34 36  0  0  0  0  0  0  0  0999 V2000
   35.9131   13.9786  -13.0747 C   0  0  0  0  0  0  0  0  0  0  0  0
   36.8757   14.1075  -12.0849 C   0  0  0  0  0  0  0  0  0  0  0  0
   38.0831   13.7576  -12.6139 N   0  0  0  0  0  0  0  0  0  0  0  0
   37.8583   13.4284  -13.8841 C   0  0  0  0  0  0  0  0  0  0  0  0
   38.9094   12.9899  -14.8161 C   0  0  0  0  0  0  0  0  0  0  0  0
   40.1608   13.4133  -14.4358 C   0  0  0  0  0  0  0  0  0  0  0  0
   41.2554   13.0622  -15.2350 C   0  0  0  0  0  0  0  0  0  0  0  0
   41.0666   12.3103  -16.3719 C   0  0  0  0  0  0  0  0  0  0  0  0
   42.1406   11.9893  -17.1192 F   0  0  0  0  0  0  0  0  0  0  0  0
   39.8186   11.8797  -16.7642 C   0  0  0  0  0  0  0  0  0  0  0  0
   38.7402   12.2317  -15.9672 C   0  0  0  0  0  0  0  0  0  0  0  0
   37.5076   11.7798  -16.3952 O   0  0  0  0  0  0  0  0  0  0  0  0
   36.2869   12.4103  -16.4469 C   0  0  0  0  0  0  0  0  0  0  0  0
   35.8150   13.3115  -15.4007 C   0  0  0  0  0  0  0  0  0  0  0  0
   36.5483   13.5461  -14.2157 N   0  0  0  0  0  0  0  0  0  0  0  0
   32.4736   15.3584  -12.0398 C   0  0  0  0  0  0  0  0  0  0  0  0
   33.9403   15.2745  -12.1703 N   0  0  0  0  0  0  0  0  0  0  0  0
   34.4908   14.1946  -12.8633 C   0  0  0  0  0  0  0  0  0  0  0  0
   33.7082   13.2999  -13.3616 O   0  0  0  0  0  0  0  0  0  0  0  0
   34.4972   16.0160  -11.7285 H   0  0  0  0  0  0  0  0  0  0  0  0
   36.7608   14.5750  -10.7144 C   0  0  0  0  0  0  0  0  0  0  0  0
   37.7015   15.5823  -10.2620 N   0  0  0  0  0  0  0  0  0  0  0  0
   35.9352   14.2037   -9.8719 O   0  0  0  0  0  0  0  0  0  0  0  0
   38.1306   16.2506  -10.9304 H   0  0  0  0  0  0  0  0  0  0  0  0
   37.9715   15.6632   -9.2585 H   0  0  0  0  0  0  0  0  0  0  0  0
   42.5399   13.5236  -14.8025 C   0  0  0  0  0  0  0  0  0  0  0  0
   43.6224   13.9095  -14.4333 C   0  0  0  0  0  0  0  0  0  0  0  0
   44.9488   14.3945  -13.9998 C   0  0  0  0  0  0  0  0  0  0  0  0
   45.9536   13.8344  -14.9657 C   0  0  0  0  0  0  0  0  0  0  0  0
   45.1963   14.0405  -12.6901 O   0  0  0  0  0  0  0  0  0  0  0  0
   44.4276   13.6144  -12.2492 H   0  0  0  0  0  0  0  0  0  0  0  0
   44.9514   15.9244  -14.0639 C   0  0  0  0  0  0  0  0  0  0  0  0
   45.7490   16.2779  -15.1498 O   0  0  0  0  0  0  0  0  0  0  0  0
   46.5642   15.7363  -15.2162 H   0  0  0  0  0  0  0  0  0  0  0  0
 16 17  1  0  0  0
 17 18  1  0  0  0
 18 19  2  0  0  0
 18  1  1  0  0  0
  1  2  2  0  0  0
  2  3  1  0  0  0
  3  4  2  0  0  0
  4  5  1  0  0  0
  5  6  2  0  0  0
  6  7  1  0  0  0
  7 26  1  0  0  0
 26 27  3  0  0  0
 27 28  1  0  0  0
 28 29  1  0  0  0
 28 30  1  0  0  0
 28 32  1  0  0  0
 32 33  1  0  0  0
  7  8  2  0  0  0
  8  9  1  0  0  0
  8 10  1  0  0  0
 10 11  2  0  0  0
 11 12  1  0  0  0
 12 13  1  0  0  0
 13 14  1  0  0  0
 14 15  1  0  0  0
  2 21  1  0  0  0
 21 22  1  0  0  0
 21 23  2  0  0  0
 15  1  1  0  0  0
 15  4  1  0  0  0
 11  5  1  0  0  0
 17 20  1  0  0  0
 30 31  1  0  0  0
 33 34  1  0  0  0
 22 24  1  0  0  0
 22 25  1  0  0  0
M  END
> <minimizedAffinity>
-8.40550

> <CNNscore>
0.1794669628

> <CNNaffinity>
5.8516845703

> <CNN_VS>
1.0501840115

> <CNNaffinity_variance>
0.1186105460

$$$$
[H]O[C@]1(C#Cc2c([H])c([H])c3c(c2[H])-c2nc(C(=O)N([H])[H])n(C([H])([H])[H])c2C2([H])C([H])([H])C3([H])C2([H])[H])C(=O)N(C([H])([H])[H])C([H])([H])C1([H])[H]


 32 36  0  0  0  0  0  0  0  0999 V2000
   35.4992   13.3277  -13.4308 C   0  0  0  0  0  0  0  0  0  0  0  0
   34.3132   12.7759  -13.8802 C   0  0  0  0  0  0  0  0  0  0  0  0
   34.2666   12.0083  -15.0251 C   0  0  0  0  0  0  0  0  0  0  0  0
   35.4561   11.8224  -15.6913 C   0  0  0  0  0  0  0  0  0  0  0  0
   35.3053   10.9737  -16.9248 C   0  0  0  0  0  0  0  0  0  0  0  0
   36.4192    9.9179  -16.9478 C   0  0  0  0  0  0  0  0  0  0  0  0
   37.2657   10.7832  -17.8948 C   0  0  0  0  0  0  0  0  0  0  0  0
   36.0036   11.6066  -18.1136 C   0  0  0  0  0  0  0  0  0  0  0  0
   38.2485   11.5271  -17.0636 C   0  0  0  0  0  0  0  0  0  0  0  0
   37.9932   12.2316  -15.8955 C   0  0  0  0  0  0  0  0  0  0  0  0
   39.1437   12.7566  -15.4557 N   0  0  0  0  0  0  0  0  0  0  0  0
   40.1242   12.3932  -16.3309 C   0  0  0  0  0  0  0  0  0  0  0  0
   39.5487   11.6426  -17.3031 N   0  0  0  0  0  0  0  0  0  0  0  0
   40.2556   11.0711  -18.4117 C   0  0  0  0  0  0  0  0  0  0  0  0
   36.6607   12.3701  -15.2541 C   0  0  0  0  0  0  0  0  0  0  0  0
   36.6530   13.1174  -14.1224 C   0  0  0  0  0  0  0  0  0  0  0  0
   41.5383   12.7425  -16.2466 C   0  0  0  0  0  0  0  0  0  0  0  0
   42.5149   12.2451  -17.1362 N   0  0  0  0  0  0  0  0  0  0  0  0
   41.9087   13.5265  -15.3360 O   0  0  0  0  0  0  0  0  0  0  0  0
   42.7055   12.7481  -18.0092 H   0  0  0  0  0  0  0  0  0  0  0  0
   43.0463   11.3776  -16.9243 H   0  0  0  0  0  0  0  0  0  0  0  0
   35.5942   14.8111  -11.2271 C   0  0  0  0  0  0  0  0  0  0  0  0
   35.5405   14.1334  -12.2265 C   0  0  0  0  0  0  0  0  0  0  0  0
   38.7485   15.0203   -7.9186 C   0  0  0  0  0  0  0  0  0  0  0  0
   37.7292   15.3628   -8.8972 N   0  0  0  0  0  0  0  0  0  0  0  0
   37.9484   16.3002  -10.0048 C   0  0  0  0  0  0  0  0  0  0  0  0
   36.5783   16.8590  -10.2658 C   0  0  0  0  0  0  0  0  0  0  0  0
   35.6803   15.6431  -10.0252 C   0  0  0  0  0  0  0  0  0  0  0  0
   34.4300   16.0689   -9.5954 O   0  0  0  0  0  0  0  0  0  0  0  0
   36.3911   14.8965   -8.9878 C   0  0  0  0  0  0  0  0  0  0  0  0
   35.9181   13.9816   -8.2734 O   0  0  0  0  0  0  0  0  0  0  0  0
   33.9532   16.4228  -10.3952 H   0  0  0  0  0  0  0  0  0  0  0  0
 24 25  1  0  0  0
 25 26  1  0  0  0
 26 27  1  0  0  0
 27 28  1  0  0  0
 28 29  1  0  0  0
 28 22  1  0  0  0
 22 23  3  0  0  0
 23  1  1  0  0  0
  1  2  2  0  0  0
  2  3  1  0  0  0
  3  4  2  0  0  0
  4  5  1  0  0  0
  5  6  1  0  0  0
  6  7  1  0  0  0
  7  8  1  0  0  0
  7  9  1  0  0  0
  9 10  2  0  0  0
 10 11  1  0  0  0
 11 12  2  0  0  0
 12 17  1  0  0  0
 17 18  1  0  0  0
 17 19  2  0  0  0
 12 13  1  0  0  0
 13 14  1  0  0  0
 10 15  1  0  0  0
 15 16  2  0  0  0
 28 30  1  0  0  0
 30 31  2  0  0  0
 30 25  1  0  0  0
 16  1  1  0  0  0
 15  4  1  0  0  0
  8  5  1  0  0  0
 13  9  1  0  0  0
 29 32  1  0  0  0
 18 20  1  0  0  0
 18 21  1  0  0  0
M  END
> <minimizedAffinity>
-9.32633

> <CNNscore>
0.6642267108

> <CNNaffinity>
7.1333723068

> <CNN_VS>
4.7381763458

> <CNNaffinity_variance>
0.1224756986

$$$$
[H]O[C@]1(C#Cc2c([H])c([H])c3c(c2[H])-c2nc(C(=O)N([H])[H])n(C([H])([H])[H])c2C2([H])C([H])([H])C3([H])C2([H])[H])C(=O)N(C([H])([H])[H])C([H])([H])C1([H])[H]


 32 36  0  0  0  0  0  0  0  0999 V2000
   40.6978   15.4089  -12.9554 C   0  0  0  0  0  0  0  0  0  0  0  0
   39.7319   15.6504  -11.9954 C   0  0  0  0  0  0  0  0  0  0  0  0
   38.4844   15.0667  -12.0689 C   0  0  0  0  0  0  0  0  0  0  0  0
   38.2547   14.2366  -13.1420 C   0  0  0  0  0  0  0  0  0  0  0  0
   36.8697   13.6481  -13.1359 C   0  0  0  0  0  0  0  0  0  0  0  0
   36.9617   12.1432  -13.4233 C   0  0  0  0  0  0  0  0  0  0  0  0
   36.6367   12.3728  -14.9078 C   0  0  0  0  0  0  0  0  0  0  0  0
   36.2141   13.7772  -14.4979 C   0  0  0  0  0  0  0  0  0  0  0  0
   37.9249   12.4003  -15.6494 C   0  0  0  0  0  0  0  0  0  0  0  0
   39.0705   13.1068  -15.3109 C   0  0  0  0  0  0  0  0  0  0  0  0
   40.0082   12.8642  -16.2352 N   0  0  0  0  0  0  0  0  0  0  0  0
   39.4706   12.0129  -17.1548 C   0  0  0  0  0  0  0  0  0  0  0  0
   38.1970   11.7464  -16.7717 N   0  0  0  0  0  0  0  0  0  0  0  0
   37.2986   10.8865  -17.4852 C   0  0  0  0  0  0  0  0  0  0  0  0
   39.2151   13.9812  -14.1190 C   0  0  0  0  0  0  0  0  0  0  0  0
   40.4263   14.5799  -14.0008 C   0  0  0  0  0  0  0  0  0  0  0  0
   40.1352   11.4793  -18.3390 C   0  0  0  0  0  0  0  0  0  0  0  0
   39.4400   11.0190  -19.4780 N   0  0  0  0  0  0  0  0  0  0  0  0
   41.3914   11.4257  -18.3482 O   0  0  0  0  0  0  0  0  0  0  0  0
   39.2000   11.6800  -20.2243 H   0  0  0  0  0  0  0  0  0  0  0  0
   39.1656   10.0216  -19.5763 H   0  0  0  0  0  0  0  0  0  0  0  0
   43.0986   16.5421  -12.8221 C   0  0  0  0  0  0  0  0  0  0  0  0
   42.0067   16.0261  -12.8714 C   0  0  0  0  0  0  0  0  0  0  0  0
   46.9859   15.3002  -10.7518 C   0  0  0  0  0  0  0  0  0  0  0  0
   46.0176   15.8277  -11.6994 N   0  0  0  0  0  0  0  0  0  0  0  0
   45.8829   15.3438  -13.0781 C   0  0  0  0  0  0  0  0  0  0  0  0
   45.3556   16.5402  -13.8185 C   0  0  0  0  0  0  0  0  0  0  0  0
   44.4191   17.1738  -12.7867 C   0  0  0  0  0  0  0  0  0  0  0  0
   44.3477   18.5435  -13.0061 O   0  0  0  0  0  0  0  0  0  0  0  0
   45.0570   16.8561  -11.5096 C   0  0  0  0  0  0  0  0  0  0  0  0
   44.8139   17.3922  -10.4029 O   0  0  0  0  0  0  0  0  0  0  0  0
   43.7680   18.6797  -13.8045 H   0  0  0  0  0  0  0  0  0  0  0  0
 24 25  1  0  0  0
 25 26  1  0  0  0
 26 27  1  0  0  0
 27 28  1  0  0  0
 28 29  1  0  0  0
 28 22  1  0  0  0
 22 23  3  0  0  0
 23  1  1  0  0  0
  1  2  2  0  0  0
  2  3  1  0  0  0
  3  4  2  0  0  0
  4  5  1  0  0  0
  5  6  1  0  0  0
  6  7  1  0  0  0
  7  8  1  0  0  0
  7  9  1  0  0  0
  9 10  2  0  0  0
 10 11  1  0  0  0
 11 12  2  0  0  0
 12 17  1  0  0  0
 17 18  1  0  0  0
 17 19  2  0  0  0
 12 13  1  0  0  0
 13 14  1  0  0  0
 10 15  1  0  0  0
 15 16  2  0  0  0
 28 30  1  0  0  0
 30 31  2  0  0  0
 30 25  1  0  0  0
 16  1  1  0  0  0
 15  4  1  0  0  0
  8  5  1  0  0  0
 13  9  1  0  0  0
 29 32  1  0  0  0
 18 20  1  0  0  0
 18 21  1  0  0  0
M  END
> <minimizedAffinity>
-8.87933

> <CNNscore>
0.6084155440

> <CNNaffinity>
6.9139823914

> <CNN_VS>
4.2065744400

> <CNNaffinity_variance>
0.4754391611

$$$$
[H]O[C@]1(C#Cc2c([H])c([H])c3c(c2[H])-c2nc(C(=O)N([H])[H])n(C([H])([H])[H])c2C2([H])C([H])([H])C3([H])C2([H])[H])C(=O)N(C([H])([H])[H])C([H])([H])C1([H])[H]


 32 36  0  0  0  0  0  0  0  0999 V2000
   36.3572   13.4263  -12.5612 C   0  0  0  0  0  0  0  0  0  0  0  0
   35.0648   13.0410  -12.8683 C   0  0  0  0  0  0  0  0  0  0  0  0
   34.7671   12.4096  -14.0578 C   0  0  0  0  0  0  0  0  0  0  0  0
   35.8186   12.1853  -14.9165 C   0  0  0  0  0  0  0  0  0  0  0  0
   35.3966   11.4930  -16.1843 C   0  0  0  0  0  0  0  0  0  0  0  0
   36.3723   10.3453  -16.4790 C   0  0  0  0  0  0  0  0  0  0  0  0
   37.1611   11.2240  -17.4628 C   0  0  0  0  0  0  0  0  0  0  0  0
   35.9788   12.1819  -17.4041 C   0  0  0  0  0  0  0  0  0  0  0  0
   38.3307   11.7774  -16.7306 C   0  0  0  0  0  0  0  0  0  0  0  0
   38.3280   12.3724  -15.4768 C   0  0  0  0  0  0  0  0  0  0  0  0
   39.5811   12.7357  -15.1761 N   0  0  0  0  0  0  0  0  0  0  0  0
   40.3772   12.3781  -16.2239 C   0  0  0  0  0  0  0  0  0  0  0  0
   39.5866   11.7948  -17.1591 N   0  0  0  0  0  0  0  0  0  0  0  0
   40.0566   11.2822  -18.4129 C   0  0  0  0  0  0  0  0  0  0  0  0
   37.1271   12.5661  -14.6247 C   0  0  0  0  0  0  0  0  0  0  0  0
   37.3672   13.1840  -13.4415 C   0  0  0  0  0  0  0  0  0  0  0  0
   41.8180   12.5809  -16.3302 C   0  0  0  0  0  0  0  0  0  0  0  0
   42.5559   13.3890  -15.4385 N   0  0  0  0  0  0  0  0  0  0  0  0
   42.4367   12.0077  -17.2628 O   0  0  0  0  0  0  0  0  0  0  0  0
   42.9352   12.9767  -14.5796 H   0  0  0  0  0  0  0  0  0  0  0  0
   42.7233   14.3956  -15.6348 H   0  0  0  0  0  0  0  0  0  0  0  0
   36.9223   14.6244  -10.2566 C   0  0  0  0  0  0  0  0  0  0  0  0
   36.6624   14.0896  -11.3089 C   0  0  0  0  0  0  0  0  0  0  0  0
   37.7682   18.9841   -9.1539 C   0  0  0  0  0  0  0  0  0  0  0  0
   37.3228   17.6003   -9.1279 N   0  0  0  0  0  0  0  0  0  0  0  0
   35.9174   17.2013   -8.9905 C   0  0  0  0  0  0  0  0  0  0  0  0
   35.9995   15.8553   -8.3279 C   0  0  0  0  0  0  0  0  0  0  0  0
   37.2485   15.2509   -8.9740 C   0  0  0  0  0  0  0  0  0  0  0  0
   37.8387   14.3551   -8.0915 O   0  0  0  0  0  0  0  0  0  0  0  0
   38.0984   16.4147   -9.2232 C   0  0  0  0  0  0  0  0  0  0  0  0
   39.3245   16.3986   -9.4830 O   0  0  0  0  0  0  0  0  0  0  0  0
   37.2803   13.5304   -8.0984 H   0  0  0  0  0  0  0  0  0  0  0  0
 24 25  1  0  0  0
 25 26  1  0  0  0
 26 27  1  0  0  0
 27 28  1  0  0  0
 28 29  1  0  0  0
 28 22  1  0  0  0
 22 23  3  0  0  0
 23  1  1  0  0  0
  1  2  2  0  0  0
  2  3  1  0  0  0
  3  4  2  0  0  0
  4  5  1  0  0  0
  5  6  1  0  0  0
  6  7  1  0  0  0
  7  8  1  0  0  0
  7  9  1  0  0  0
  9 10  2  0  0  0
 10 11  1  0  0  0
 11 12  2  0  0  0
 12 17  1  0  0  0
 17 18  1  0  0  0
 17 19  2  0  0  0
 12 13  1  0  0  0
 13 14  1  0  0  0
 10 15  1  0  0  0
 15 16  2  0  0  0
 28 30  1  0  0  0
 30 31  2  0  0  0
 30 25  1  0  0  0
 16  1  1  0  0  0
 15  4  1  0  0  0
  8  5  1  0  0  0
 13  9  1  0  0  0
 29 32  1  0  0  0
 18 20  1  0  0  0
 18 21  1  0  0  0
M  END
> <minimizedAffinity>
-7.75462

> <CNNscore>
0.4600313306

> <CNNaffinity>
6.7336249352

> <CNN_VS>
3.0976784229

> <CNNaffinity_variance>
0.3171888292

$$$$
[H]O[C@]1(C#Cc2c([H])c([H])c3c(c2[H])-c2nc(C(=O)N([H])[H])n(C([H])([H])[H])c2C2([H])C([H])([H])C3([H])C2([H])[H])C(=O)N(C([H])([H])[H])C([H])([H])C1([H])[H]


 32 36  0  0  0  0  0  0  0  0999 V2000
   42.3409   13.6881  -14.2508 C   0  0  0  0  0  0  0  0  0  0  0  0
   43.2298   13.2734  -15.2259 C   0  0  0  0  0  0  0  0  0  0  0  0
   42.7948   12.6429  -16.3729 C   0  0  0  0  0  0  0  0  0  0  0  0
   41.4378   12.4503  -16.4935 C   0  0  0  0  0  0  0  0  0  0  0  0
   41.0605   11.7567  -17.7746 C   0  0  0  0  0  0  0  0  0  0  0  0
   39.8804   12.4974  -18.4186 C   0  0  0  0  0  0  0  0  0  0  0  0
   38.8812   11.4946  -17.8203 C   0  0  0  0  0  0  0  0  0  0  0  0
   40.0899   10.6197  -17.5163 C   0  0  0  0  0  0  0  0  0  0  0  0
   38.3336   12.0961  -16.5758 C   0  0  0  0  0  0  0  0  0  0  0  0
   39.0505   12.7023  -15.5537 C   0  0  0  0  0  0  0  0  0  0  0  0
   38.1882   13.1126  -14.6152 N   0  0  0  0  0  0  0  0  0  0  0  0
   36.9343   12.7736  -15.0304 C   0  0  0  0  0  0  0  0  0  0  0  0
   37.0534   12.1540  -16.2311 N   0  0  0  0  0  0  0  0  0  0  0  0
   35.9512   11.6463  -16.9945 C   0  0  0  0  0  0  0  0  0  0  0  0
   40.5269   12.8610  -15.5221 C   0  0  0  0  0  0  0  0  0  0  0  0
   41.0056   13.4765  -14.4124 C   0  0  0  0  0  0  0  0  0  0  0  0
   35.6851   13.0266  -14.3204 C   0  0  0  0  0  0  0  0  0  0  0  0
   34.9225   14.2028  -14.4866 N   0  0  0  0  0  0  0  0  0  0  0  0
   35.2639   12.1540  -13.5190 O   0  0  0  0  0  0  0  0  0  0  0  0
   34.2132   14.2443  -15.2260 H   0  0  0  0  0  0  0  0  0  0  0  0
   35.0651   15.0296  -13.8736 H   0  0  0  0  0  0  0  0  0  0  0  0
   43.1905   14.8846  -12.0344 C   0  0  0  0  0  0  0  0  0  0  0  0
   42.8054   14.3502  -13.0478 C   0  0  0  0  0  0  0  0  0  0  0  0
   41.9181   14.2847   -7.6800 C   0  0  0  0  0  0  0  0  0  0  0  0
   42.6948   14.5246   -8.8854 N   0  0  0  0  0  0  0  0  0  0  0  0
   43.8148   13.6781   -9.3126 C   0  0  0  0  0  0  0  0  0  0  0  0
   44.6879   14.6206  -10.0915 C   0  0  0  0  0  0  0  0  0  0  0  0
   43.6595   15.5090  -10.7958 C   0  0  0  0  0  0  0  0  0  0  0  0
   44.2094   16.7645  -11.0208 O   0  0  0  0  0  0  0  0  0  0  0  0
   42.5484   15.5599   -9.8462 C   0  0  0  0  0  0  0  0  0  0  0  0
   41.5999   16.3792   -9.8542 O   0  0  0  0  0  0  0  0  0  0  0  0
   44.8417   16.6717  -11.7849 H   0  0  0  0  0  0  0  0  0  0  0  0
 24 25  1  0  0  0
 25 26  1  0  0  0
 26 27  1  0  0  0
 27 28  1  0  0  0
 28 29  1  0  0  0
 28 22  1  0  0  0
 22 23  3  0  0  0
 23  1  1  0  0  0
  1  2  2  0  0  0
  2  3  1  0  0  0
  3  4  2  0  0  0
  4  5  1  0  0  0
  5  6  1  0  0  0
  6  7  1  0  0  0
  7  8  1  0  0  0
  7  9  1  0  0  0
  9 10  2  0  0  0
 10 11  1  0  0  0
 11 12  2  0  0  0
 12 17  1  0  0  0
 17 18  1  0  0  0
 17 19  2  0  0  0
 12 13  1  0  0  0
 13 14  1  0  0  0
 10 15  1  0  0  0
 15 16  2  0  0  0
 28 30  1  0  0  0
 30 31  2  0  0  0
 30 25  1  0  0  0
 16  1  1  0  0  0
 15  4  1  0  0  0
  8  5  1  0  0  0
 13  9  1  0  0  0
 29 32  1  0  0  0
 18 20  1  0  0  0
 18 21  1  0  0  0
M  END
> <minimizedAffinity>
-8.67256

> <CNNscore>
0.3193699718

> <CNNaffinity>
6.5642938614

> <CNN_VS>
2.0964384079

> <CNNaffinity_variance>
0.2597075999

$$$$
[H]O[C@]1(C#Cc2c([H])c([H])c3c(c2[H])-c2nc(C(=O)N([H])[H])n(C([H])([H])[H])c2C2([H])C([H])([H])C3([H])C2([H])[H])C(=O)N(C([H])([H])[H])C([H])([H])C1([H])[H]


 32 36  0  0  0  0  0  0  0  0999 V2000
   41.5092   15.3515  -12.6101 C   0  0  0  0  0  0  0  0  0  0  0  0
   40.7312   16.0013  -11.6692 C   0  0  0  0  0  0  0  0  0  0  0  0
   39.3583   15.8696  -11.6578 C   0  0  0  0  0  0  0  0  0  0  0  0
   38.8085   15.0620  -12.6267 C   0  0  0  0  0  0  0  0  0  0  0  0
   37.3088   14.9804  -12.5336 C   0  0  0  0  0  0  0  0  0  0  0  0
   36.8770   13.5121  -12.6506 C   0  0  0  0  0  0  0  0  0  0  0  0
   36.5706   13.6866  -14.1466 C   0  0  0  0  0  0  0  0  0  0  0  0
   36.6641   15.1850  -13.8915 C   0  0  0  0  0  0  0  0  0  0  0  0
   37.7533   13.2016  -14.9057 C   0  0  0  0  0  0  0  0  0  0  0  0
   39.0852   13.5095  -14.6661 C   0  0  0  0  0  0  0  0  0  0  0  0
   39.8382   12.8718  -15.5710 N   0  0  0  0  0  0  0  0  0  0  0  0
   38.9997   12.1640  -16.3806 C   0  0  0  0  0  0  0  0  0  0  0  0
   37.7321   12.3842  -15.9509 N   0  0  0  0  0  0  0  0  0  0  0  0
   36.5620   11.8113  -16.5493 C   0  0  0  0  0  0  0  0  0  0  0  0
   39.5759   14.3993  -13.5829 C   0  0  0  0  0  0  0  0  0  0  0  0
   40.9220   14.5619  -13.5511 C   0  0  0  0  0  0  0  0  0  0  0  0
   39.3849   11.3202  -17.5067 C   0  0  0  0  0  0  0  0  0  0  0  0
   40.4357   11.6409  -18.3931 N   0  0  0  0  0  0  0  0  0  0  0  0
   38.7502   10.2521  -17.6999 O   0  0  0  0  0  0  0  0  0  0  0  0
   41.3914   11.3421  -18.1722 H   0  0  0  0  0  0  0  0  0  0  0  0
   40.2604   12.1749  -19.2672 H   0  0  0  0  0  0  0  0  0  0  0  0
   44.1541   15.6148  -12.6414 C   0  0  0  0  0  0  0  0  0  0  0  0
   42.9517   15.4947  -12.6159 C   0  0  0  0  0  0  0  0  0  0  0  0
   46.7983   19.3471  -12.7723 C   0  0  0  0  0  0  0  0  0  0  0  0
   46.2746   18.0180  -12.5022 N   0  0  0  0  0  0  0  0  0  0  0  0
   46.0137   17.5062  -11.1519 C   0  0  0  0  0  0  0  0  0  0  0  0
   46.1857   16.0210  -11.3019 C   0  0  0  0  0  0  0  0  0  0  0  0
   45.6094   15.7666  -12.6969 C   0  0  0  0  0  0  0  0  0  0  0  0
   46.2282   14.6567  -13.2579 O   0  0  0  0  0  0  0  0  0  0  0  0
   45.9255   16.9957  -13.4238 C   0  0  0  0  0  0  0  0  0  0  0  0
   45.9008   17.1519  -14.6672 O   0  0  0  0  0  0  0  0  0  0  0  0
   45.8426   13.8535  -12.8125 H   0  0  0  0  0  0  0  0  0  0  0  0
 24 25  1  0  0  0
 25 26  1  0  0  0
 26 27  1  0  0  0
 27 28  1  0  0  0
 28 29  1  0  0  0
 28 22  1  0  0  0
 22 23  3  0  0  0
 23  1  1  0  0  0
  1  2  2  0  0  0
  2  3  1  0  0  0
  3  4  2  0  0  0
  4  5  1  0  0  0
  5  6  1  0  0  0
  6  7  1  0  0  0
  7  8  1  0  0  0
  7  9  1  0  0  0
  9 10  2  0  0  0
 10 11  1  0  0  0
 11 12  2  0  0  0
 12 17  1  0  0  0
 17 18  1  0  0  0
 17 19  2  0  0  0
 12 13  1  0  0  0
 13 14  1  0  0  0
 10 15  1  0  0  0
 15 16  2  0  0  0
 28 30  1  0  0  0
 30 31  2  0  0  0
 30 25  1  0  0  0
 16  1  1  0  0  0
 15  4  1  0  0  0
  8  5  1  0  0  0
 13  9  1  0  0  0
 29 32  1  0  0  0
 18 20  1  0  0  0
 18 21  1  0  0  0
M  END
> <minimizedAffinity>
-7.58546

> <CNNscore>
0.3167863488

> <CNNaffinity>
6.2222189903

> <CNN_VS>
1.9711140394

> <CNNaffinity_variance>
0.1478548199

$$$$
[H]O[C@]1(C#Cc2c([H])c([H])c3c(c2[H])-c2nc(C(=O)N([H])[H])n(C([H])([H])[H])c2C2([H])C([H])([H])C3([H])C2([H])[H])C(=O)N(C([H])([H])[H])C([H])([H])C1([H])[H]


 32 36  0  0  0  0  0  0  0  0999 V2000
   41.6144   15.6338   -8.6549 C   0  0  0  0  0  0  0  0  0  0  0  0
   41.9852   15.1086   -7.4303 C   0  0  0  0  0  0  0  0  0  0  0  0
   43.2966   15.1372   -7.0040 C   0  0  0  0  0  0  0  0  0  0  0  0
   44.2096   15.7128   -7.8574 C   0  0  0  0  0  0  0  0  0  0  0  0
   45.6101   15.6976   -7.3069 C   0  0  0  0  0  0  0  0  0  0  0  0
   46.2404   17.0841   -7.4978 C   0  0  0  0  0  0  0  0  0  0  0  0
   46.9563   16.6195   -8.7760 C   0  0  0  0  0  0  0  0  0  0  0  0
   46.6007   15.2032   -8.3441 C   0  0  0  0  0  0  0  0  0  0  0  0
   46.1273   17.0462   -9.9341 C   0  0  0  0  0  0  0  0  0  0  0  0
   44.7571   16.8872  -10.0862 C   0  0  0  0  0  0  0  0  0  0  0  0
   44.3976   17.4052  -11.2673 N   0  0  0  0  0  0  0  0  0  0  0  0
   45.5232   17.8902  -11.8649 C   0  0  0  0  0  0  0  0  0  0  0  0
   46.5648   17.6572  -11.0279 N   0  0  0  0  0  0  0  0  0  0  0  0
   47.9235   18.0233  -11.3026 C   0  0  0  0  0  0  0  0  0  0  0  0
   43.8551   16.2472   -9.0948 C   0  0  0  0  0  0  0  0  0  0  0  0
   42.5522   16.1941   -9.4675 C   0  0  0  0  0  0  0  0  0  0  0  0
   45.6040   18.5428  -13.1673 C   0  0  0  0  0  0  0  0  0  0  0  0
   45.8654   17.8486  -14.3683 N   0  0  0  0  0  0  0  0  0  0  0  0
   45.4324   19.7870  -13.2259 O   0  0  0  0  0  0  0  0  0  0  0  0
   45.0851   17.4507  -14.9015 H   0  0  0  0  0  0  0  0  0  0  0  0
   46.8346   17.7322  -14.7245 H   0  0  0  0  0  0  0  0  0  0  0  0
   39.0888   15.5805   -9.4823 C   0  0  0  0  0  0  0  0  0  0  0  0
   40.2340   15.6001   -9.0963 C   0  0  0  0  0  0  0  0  0  0  0  0
   35.1288   16.5438   -7.4015 C   0  0  0  0  0  0  0  0  0  0  0  0
   36.1908   16.4110   -8.3856 N   0  0  0  0  0  0  0  0  0  0  0  0
   36.8069   17.5505   -9.0752 C   0  0  0  0  0  0  0  0  0  0  0  0
   37.2567   16.9652  -10.3839 C   0  0  0  0  0  0  0  0  0  0  0  0
   37.7095   15.5619   -9.9735 C   0  0  0  0  0  0  0  0  0  0  0  0
   37.5495   14.6922  -11.0447 O   0  0  0  0  0  0  0  0  0  0  0  0
   36.8199   15.2302   -8.8611 C   0  0  0  0  0  0  0  0  0  0  0  0
   36.6231   14.0894   -8.3805 O   0  0  0  0  0  0  0  0  0  0  0  0
   38.2882   14.8819  -11.6853 H   0  0  0  0  0  0  0  0  0  0  0  0
 24 25  1  0  0  0
 25 26  1  0  0  0
 26 27  1  0  0  0
 27 28  1  0  0  0
 28 29  1  0  0  0
 28 22  1  0  0  0
 22 23  3  0  0  0
 23  1  1  0  0  0
  1  2  2  0  0  0
  2  3  1  0  0  0
  3  4  2  0  0  0
  4  5  1  0  0  0
  5  6  1  0  0  0
  6  7  1  0  0  0
  7  8  1  0  0  0
  7  9  1  0  0  0
  9 10  2  0  0  0
 10 11  1  0  0  0
 11 12  2  0  0  0
 12 17  1  0  0  0
 17 18  1  0  0  0
 17 19  2  0  0  0
 12 13  1  0  0  0
 13 14  1  0  0  0
 10 15  1  0  0  0
 15 16  2  0  0  0
 28 30  1  0  0  0
 30 31  2  0  0  0
 30 25  1  0  0  0
 16  1  1  0  0  0
 15  4  1  0  0  0
  8  5  1  0  0  0
 13  9  1  0  0  0
 29 32  1  0  0  0
 18 20  1  0  0  0
 18 21  1  0  0  0
M  END
> <minimizedAffinity>
-5.40002

> <CNNscore>
0.3111974001

> <CNNaffinity>
5.2225732803

> <CNN_VS>
1.6252511740

> <CNNaffinity_variance>
0.2006863654

$$$$
[H]O[C@]1(C#Cc2c([H])c([H])c3c(c2[H])-c2nc(C(=O)N([H])[H])n(C([H])([H])[H])c2C2([H])C([H])([H])C3([H])C2([H])[H])C(=O)N(C([H])([H])[H])C([H])([H])C1([H])[H]


 32 36  0  0  0  0  0  0  0  0999 V2000
   40.9775   13.1263  -15.2309 C   0  0  0  0  0  0  0  0  0  0  0  0
   41.7145   12.6331  -16.2923 C   0  0  0  0  0  0  0  0  0  0  0  0
   41.1165   11.9276  -17.3155 C   0  0  0  0  0  0  0  0  0  0  0  0
   39.7562   11.7425  -17.2237 C   0  0  0  0  0  0  0  0  0  0  0  0
   39.1956   10.9640  -18.3831 C   0  0  0  0  0  0  0  0  0  0  0  0
   37.9351   11.6705  -18.9006 C   0  0  0  0  0  0  0  0  0  0  0  0
   37.0326   10.7243  -18.0928 C   0  0  0  0  0  0  0  0  0  0  0  0
   38.2718    9.8595  -17.9053 C   0  0  0  0  0  0  0  0  0  0  0  0
   36.6728   11.4191  -16.8286 C   0  0  0  0  0  0  0  0  0  0  0  0
   37.5314   12.0882  -15.9678 C   0  0  0  0  0  0  0  0  0  0  0  0
   36.8155   12.5741  -14.9461 N   0  0  0  0  0  0  0  0  0  0  0  0
   35.5142   12.2209  -15.1493 C   0  0  0  0  0  0  0  0  0  0  0  0
   35.4565   11.5161  -16.3068 N   0  0  0  0  0  0  0  0  0  0  0  0
   34.2543   10.9682  -16.8635 C   0  0  0  0  0  0  0  0  0  0  0  0
   38.9969   12.2318  -16.1624 C   0  0  0  0  0  0  0  0  0  0  0  0
   39.6327   12.9191  -15.1813 C   0  0  0  0  0  0  0  0  0  0  0  0
   34.3819   12.5381  -14.2856 C   0  0  0  0  0  0  0  0  0  0  0  0
   33.3070   13.3609  -14.6859 N   0  0  0  0  0  0  0  0  0  0  0  0
   34.3599   12.0552  -13.1248 O   0  0  0  0  0  0  0  0  0  0  0  0
   32.4999   12.9419  -15.1598 H   0  0  0  0  0  0  0  0  0  0  0  0
   33.3164   14.3849  -14.5098 H   0  0  0  0  0  0  0  0  0  0  0  0
   42.1241   14.4896  -13.2580 C   0  0  0  0  0  0  0  0  0  0  0  0
   41.6129   13.8669  -14.1590 C   0  0  0  0  0  0  0  0  0  0  0  0
   46.4836   15.0261  -11.9750 C   0  0  0  0  0  0  0  0  0  0  0  0
   45.0744   15.2501  -12.2536 N   0  0  0  0  0  0  0  0  0  0  0  0
   44.5820   16.2801  -13.1756 C   0  0  0  0  0  0  0  0  0  0  0  0
   43.2196   16.6106  -12.6349 C   0  0  0  0  0  0  0  0  0  0  0  0
   42.7208   15.2455  -12.1549 C   0  0  0  0  0  0  0  0  0  0  0  0
   41.8314   15.4215  -11.1026 O   0  0  0  0  0  0  0  0  0  0  0  0
   43.9449   14.5674  -11.7298 C   0  0  0  0  0  0  0  0  0  0  0  0
   44.0166   13.5410  -11.0139 O   0  0  0  0  0  0  0  0  0  0  0  0
   40.9737   15.7386  -11.4976 H   0  0  0  0  0  0  0  0  0  0  0  0
 24 25  1  0  0  0
 25 26  1  0  0  0
 26 27  1  0  0  0
 27 28  1  0  0  0
 28 29  1  0  0  0
 28 22  1  0  0  0
 22 23  3  0  0  0
 23  1  1  0  0  0
  1  2  2  0  0  0
  2  3  1  0  0  0
  3  4  2  0  0  0
  4  5  1  0  0  0
  5  6  1  0  0  0
  6  7  1  0  0  0
  7  8  1  0  0  0
  7  9  1  0  0  0
  9 10  2  0  0  0
 10 11  1  0  0  0
 11 12  2  0  0  0
 12 17  1  0  0  0
 17 18  1  0  0  0
 17 19  2  0  0  0
 12 13  1  0  0  0
 13 14  1  0  0  0
 10 15  1  0  0  0
 15 16  2  0  0  0
 28 30  1  0  0  0
 30 31  2  0  0  0
 30 25  1  0  0  0
 16  1  1  0  0  0
 15  4  1  0  0  0
  8  5  1  0  0  0
 13  9  1  0  0  0
 29 32  1  0  0  0
 18 20  1  0  0  0
 18 21  1  0  0  0
M  END
> <minimizedAffinity>
-8.68224

> <CNNscore>
0.2971334755

> <CNNaffinity>
6.6158499718

> <CNN_VS>
1.9657905102

> <CNNaffinity_variance>
0.0915433019

$$$$
[H]O[C@]1(C#Cc2c([H])c([H])c3c(c2[H])-c2nc(C(=O)N([H])[H])n(C([H])([H])[H])c2C2([H])C([H])([H])C3([H])C2([H])[H])C(=O)N(C([H])([H])[H])C([H])([H])C1([H])[H]


 32 36  0  0  0  0  0  0  0  0999 V2000
   42.3884   16.1890  -11.5538 C   0  0  0  0  0  0  0  0  0  0  0  0
   42.7355   16.9635  -12.6459 C   0  0  0  0  0  0  0  0  0  0  0  0
   43.9171   16.7566  -13.3266 C   0  0  0  0  0  0  0  0  0  0  0  0
   44.7262   15.7447  -12.8634 C   0  0  0  0  0  0  0  0  0  0  0  0
   45.9891   15.5954  -13.6680 C   0  0  0  0  0  0  0  0  0  0  0  0
   46.2111   14.1099  -13.9841 C   0  0  0  0  0  0  0  0  0  0  0  0
   47.1879   13.9707  -12.8056 C   0  0  0  0  0  0  0  0  0  0  0  0
   47.2043   15.4929  -12.7656 C   0  0  0  0  0  0  0  0  0  0  0  0
   46.4260   13.4167  -11.6554 C   0  0  0  0  0  0  0  0  0  0  0  0
   45.1912   13.8426  -11.1865 C   0  0  0  0  0  0  0  0  0  0  0  0
   44.8514   13.0855  -10.1358 N   0  0  0  0  0  0  0  0  0  0  0  0
   45.8557   12.1855   -9.9336 C   0  0  0  0  0  0  0  0  0  0  0  0
   46.8044   12.4110  -10.8765 N   0  0  0  0  0  0  0  0  0  0  0  0
   48.0229   11.6650  -10.9955 C   0  0  0  0  0  0  0  0  0  0  0  0
   44.3936   14.9539  -11.7651 C   0  0  0  0  0  0  0  0  0  0  0  0
   43.2203   15.1979  -11.1301 C   0  0  0  0  0  0  0  0  0  0  0  0
   45.9103   11.1620   -8.8954 C   0  0  0  0  0  0  0  0  0  0  0  0
   45.9051    9.7773   -9.1696 N   0  0  0  0  0  0  0  0  0  0  0  0
   45.9649   11.5292   -7.6940 O   0  0  0  0  0  0  0  0  0  0  0  0
   46.7931    9.2924   -9.3365 H   0  0  0  0  0  0  0  0  0  0  0  0
   45.0179    9.2376   -9.2060 H   0  0  0  0  0  0  0  0  0  0  0  0
   40.1144   16.6174  -10.2457 C   0  0  0  0  0  0  0  0  0  0  0  0
   41.1448   16.4123  -10.8433 C   0  0  0  0  0  0  0  0  0  0  0  0
   36.0723   14.4727  -10.2653 C   0  0  0  0  0  0  0  0  0  0  0  0
   37.2591   15.2072   -9.8585 N   0  0  0  0  0  0  0  0  0  0  0  0
   38.1889   14.7403   -8.8236 C   0  0  0  0  0  0  0  0  0  0  0  0
   38.7645   16.0134   -8.2709 C   0  0  0  0  0  0  0  0  0  0  0  0
   38.8719   16.8906   -9.5206 C   0  0  0  0  0  0  0  0  0  0  0  0
   38.7628   18.2272   -9.1587 O   0  0  0  0  0  0  0  0  0  0  0  0
   37.7437   16.4516  -10.3412 C   0  0  0  0  0  0  0  0  0  0  0  0
   37.2579   17.0589  -11.3242 O   0  0  0  0  0  0  0  0  0  0  0  0
   39.6309   18.4877   -8.7455 H   0  0  0  0  0  0  0  0  0  0  0  0
 24 25  1  0  0  0
 25 26  1  0  0  0
 26 27  1  0  0  0
 27 28  1  0  0  0
 28 29  1  0  0  0
 28 22  1  0  0  0
 22 23  3  0  0  0
 23  1  1  0  0  0
  1  2  2  0  0  0
  2  3  1  0  0  0
  3  4  2  0  0  0
  4  5  1  0  0  0
  5  6  1  0  0  0
  6  7  1  0  0  0
  7  8  1  0  0  0
  7  9  1  0  0  0
  9 10  2  0  0  0
 10 11  1  0  0  0
 11 12  2  0  0  0
 12 17  1  0  0  0
 17 18  1  0  0  0
 17 19  2  0  0  0
 12 13  1  0  0  0
 13 14  1  0  0  0
 10 15  1  0  0  0
 15 16  2  0  0  0
 28 30  1  0  0  0
 30 31  2  0  0  0
 30 25  1  0  0  0
 16  1  1  0  0  0
 15  4  1  0  0  0
  8  5  1  0  0  0
 13  9  1  0  0  0
 29 32  1  0  0  0
 18 20  1  0  0  0
 18 21  1  0  0  0
M  END
> <minimizedAffinity>
-5.48392

> <CNNscore>
0.2855205536

> <CNNaffinity>
5.2703447342

> <CNN_VS>
1.5047917366

> <CNNaffinity_variance>
0.6488879919

$$$$
[H]O[C@]1(C#Cc2c([H])c([H])c3c(c2[H])-c2nc(C(=O)N([H])[H])n(C([H])([H])[H])c2C2([H])C([H])([H])C3([H])C2([H])[H])C(=O)N(C([H])([H])[H])C([H])([H])C1([H])[H]


 32 36  0  0  0  0  0  0  0  0999 V2000
   41.0708   12.4796  -16.3627 C   0  0  0  0  0  0  0  0  0  0  0  0
   41.1774   11.7539  -17.5352 C   0  0  0  0  0  0  0  0  0  0  0  0
   40.0735   11.1720  -18.1226 C   0  0  0  0  0  0  0  0  0  0  0  0
   38.8685   11.3515  -17.4830 C   0  0  0  0  0  0  0  0  0  0  0  0
   37.7256   10.6818  -18.1971 C   0  0  0  0  0  0  0  0  0  0  0  0
   36.5475   11.6613  -18.2893 C   0  0  0  0  0  0  0  0  0  0  0  0
   35.8812   11.0281  -17.0576 C   0  0  0  0  0  0  0  0  0  0  0  0
   36.8699    9.8831  -17.2321 C   0  0  0  0  0  0  0  0  0  0  0  0
   36.2354   11.8615  -15.8785 C   0  0  0  0  0  0  0  0  0  0  0  0
   37.4948   12.3317  -15.5340 C   0  0  0  0  0  0  0  0  0  0  0  0
   37.3888   13.0427  -14.4045 N   0  0  0  0  0  0  0  0  0  0  0  0
   36.0779   13.0285  -14.0295 C   0  0  0  0  0  0  0  0  0  0  0  0
   35.3964   12.2996  -14.9483 N   0  0  0  0  0  0  0  0  0  0  0  0
   33.9849   12.0522  -14.9023 C   0  0  0  0  0  0  0  0  0  0  0  0
   38.7413   12.0792  -16.3012 C   0  0  0  0  0  0  0  0  0  0  0  0
   39.8574   12.6314  -15.7640 C   0  0  0  0  0  0  0  0  0  0  0  0
   35.5020   13.6760  -12.8557 C   0  0  0  0  0  0  0  0  0  0  0  0
   34.6091   14.7667  -12.9309 N   0  0  0  0  0  0  0  0  0  0  0  0
   35.8153   13.2424  -11.7178 O   0  0  0  0  0  0  0  0  0  0  0  0
   33.6022   14.5902  -13.0109 H   0  0  0  0  0  0  0  0  0  0  0  0
   34.9518   15.7474  -12.9066 H   0  0  0  0  0  0  0  0  0  0  0  0
   43.2013   13.5878  -15.2230 C   0  0  0  0  0  0  0  0  0  0  0  0
   42.2356   13.0883  -15.7511 C   0  0  0  0  0  0  0  0  0  0  0  0
   44.1496   14.2541  -10.7963 C   0  0  0  0  0  0  0  0  0  0  0  0
   44.2578   13.9729  -12.2186 N   0  0  0  0  0  0  0  0  0  0  0  0
   44.7519   12.7018  -12.7604 C   0  0  0  0  0  0  0  0  0  0  0  0
   45.3354   13.0916  -14.0891 C   0  0  0  0  0  0  0  0  0  0  0  0
   44.3672   14.1783  -14.5628 C   0  0  0  0  0  0  0  0  0  0  0  0
   45.0396   15.0684  -15.3904 O   0  0  0  0  0  0  0  0  0  0  0  0
   43.9313   14.8103  -13.3180 C   0  0  0  0  0  0  0  0  0  0  0  0
   43.3563   15.9186  -13.2079 O   0  0  0  0  0  0  0  0  0  0  0  0
   45.1600   14.6139  -16.2684 H   0  0  0  0  0  0  0  0  0  0  0  0
 24 25  1  0  0  0
 25 26  1  0  0  0
 26 27  1  0  0  0
 27 28  1  0  0  0
 28 29  1  0  0  0
 28 22  1  0  0  0
 22 23  3  0  0  0
 23  1  1  0  0  0
  1  2  2  0  0  0
  2  3  1  0  0  0
  3  4  2  0  0  0
  4  5  1  0  0  0
  5  6  1  0  0  0
  6  7  1  0  0  0
  7  8  1  0  0  0
  7  9  1  0  0  0
  9 10  2  0  0  0
 10 11  1  0  0  0
 11 12  2  0  0  0
 12 17  1  0  0  0
 17 18  1  0  0  0
 17 19  2  0  0  0
 12 13  1  0  0  0
 13 14  1  0  0  0
 10 15  1  0  0  0
 15 16  2  0  0  0
 28 30  1  0  0  0
 30 31  2  0  0  0
 30 25  1  0  0  0
 16  1  1  0  0  0
 15  4  1  0  0  0
  8  5  1  0  0  0
 13  9  1  0  0  0
 29 32  1  0  0  0
 18 20  1  0  0  0
 18 21  1  0  0  0
M  END
> <minimizedAffinity>
-9.74169

> <CNNscore>
0.2753289342

> <CNNaffinity>
6.6545524597

> <CNN_VS>
1.8321908712

> <CNNaffinity_variance>
0.1142657027

$$$$
[H]OC(C#Cc1c([H])c2c(c([H])c1F)C1([H])C([H])([H])C([H])(n3c-2nc(C(=O)N([H])[H])c3-c2nc(C3([H])C([H])([H])C3([H])[H])no2)C1([H])[H])(C([H])([H])[H])C([H])([H])[H]


 36 41  0  0  0  0  0  0  0  0999 V2000
   38.9401   14.7541   -7.0240 C   0  0  0  0  0  0  0  0  0  0  0  0
   40.1181   14.6326   -7.7395 C   0  0  0  0  0  0  0  0  0  0  0  0
   41.1547   13.9024   -7.2266 C   0  0  0  0  0  0  0  0  0  0  0  0
   42.3443   13.8595   -8.0948 C   0  0  0  0  0  0  0  0  0  0  0  0
   42.4392   14.4551   -9.2751 N   0  0  0  0  0  0  0  0  0  0  0  0
   43.6916   14.2127   -9.8215 C   0  0  0  0  0  0  0  0  0  0  0  0
   44.3484   13.4361   -8.9032 C   0  0  0  0  0  0  0  0  0  0  0  0
   43.5250   13.2197   -7.8470 N   0  0  0  0  0  0  0  0  0  0  0  0
   43.8011   12.4571   -6.6528 C   0  0  0  0  0  0  0  0  0  0  0  0
   43.3527   13.2426   -5.4028 C   0  0  0  0  0  0  0  0  0  0  0  0
   42.0561   12.4678   -5.3155 C   0  0  0  0  0  0  0  0  0  0  0  0
   42.6285   11.5071   -6.3403 C   0  0  0  0  0  0  0  0  0  0  0  0
   40.9767   13.3001   -5.9807 C   0  0  0  0  0  0  0  0  0  0  0  0
   39.8262   13.4041   -5.2548 C   0  0  0  0  0  0  0  0  0  0  0  0
   38.7907   14.1427   -5.7840 C   0  0  0  0  0  0  0  0  0  0  0  0
   37.6452   14.2617   -5.0897 F   0  0  0  0  0  0  0  0  0  0  0  0
   44.1020   14.7302  -11.1078 C   0  0  0  0  0  0  0  0  0  0  0  0
   43.7218   13.9522  -12.2687 N   0  0  0  0  0  0  0  0  0  0  0  0
   44.7399   15.7625  -11.3145 O   0  0  0  0  0  0  0  0  0  0  0  0
   43.7460   12.9275  -12.2241 H   0  0  0  0  0  0  0  0  0  0  0  0
   43.4347   14.4550  -13.1152 H   0  0  0  0  0  0  0  0  0  0  0  0
   45.7200   12.8989   -8.9968 C   0  0  0  0  0  0  0  0  0  0  0  0
   46.1157   11.7019   -9.4288 N   0  0  0  0  0  0  0  0  0  0  0  0
   47.4499   11.5902   -9.3601 C   0  0  0  0  0  0  0  0  0  0  0  0
   47.8446   12.7719   -8.8676 N   0  0  0  0  0  0  0  0  0  0  0  0
   46.8249   13.5092   -8.6667 O   0  0  0  0  0  0  0  0  0  0  0  0
   48.3127   10.4187   -9.7429 C   0  0  0  0  0  0  0  0  0  0  0  0
   48.1772    9.1952   -8.9403 C   0  0  0  0  0  0  0  0  0  0  0  0
   47.6531    9.2163  -10.3363 C   0  0  0  0  0  0  0  0  0  0  0  0
   36.9694   16.1944   -8.0752 C   0  0  0  0  0  0  0  0  0  0  0  0
   37.8559   15.5351   -7.5919 C   0  0  0  0  0  0  0  0  0  0  0  0
   35.3536   18.0110   -7.6912 C   0  0  0  0  0  0  0  0  0  0  0  0
   35.8939   16.9688   -8.6653 C   0  0  0  0  0  0  0  0  0  0  0  0
   34.7310   16.1323   -9.1060 C   0  0  0  0  0  0  0  0  0  0  0  0
   36.3986   17.6519   -9.7534 O   0  0  0  0  0  0  0  0  0  0  0  0
   37.2518   17.2612  -10.0720 H   0  0  0  0  0  0  0  0  0  0  0  0
 32 33  1  0  0  0
 33 34  1  0  0  0
 33 35  1  0  0  0
 33 30  1  0  0  0
 30 31  3  0  0  0
 31  1  1  0  0  0
  1  2  1  0  0  0
  2  3  2  0  0  0
  3  4  1  0  0  0
  4  5  2  0  0  0
  5  6  1  0  0  0
  6 17  1  0  0  0
 17 18  1  0  0  0
 17 19  2  0  0  0
  6  7  2  0  0  0
  7 22  1  0  0  0
 22 23  2  0  0  0
 23 24  1  0  0  0
 24 25  2  0  0  0
 25 26  1  0  0  0
 24 27  1  0  0  0
 27 28  1  0  0  0
 28 29  1  0  0  0
  7  8  1  0  0  0
  8  9  1  0  0  0
  9 10  1  0  0  0
 10 11  1  0  0  0
 11 12  1  0  0  0
 11 13  1  0  0  0
 13 14  2  0  0  0
 14 15  1  0  0  0
 15 16  1  0  0  0
 15  1  2  0  0  0
 13  3  1  0  0  0
  8  4  1  0  0  0
 12  9  1  0  0  0
 26 22  1  0  0  0
 29 27  1  0  0  0
 35 36  1  0  0  0
 18 20  1  0  0  0
 18 21  1  0  0  0
M  END
> <minimizedAffinity>
-5.53060

> <CNNscore>
0.3252632916

> <CNNaffinity>
5.8306045532

> <CNN_VS>
1.8964816332

> <CNNaffinity_variance>
0.5963839293

$$$$
[H]OC(C#Cc1c([H])c2c(c([H])c1F)C1([H])C([H])([H])C([H])(n3c-2nc(C(=O)N([H])[H])c3-c2nc(C3([H])C([H])([H])C3([H])[H])no2)C1([H])[H])(C([H])([H])[H])C([H])([H])[H]


 36 41  0  0  0  0  0  0  0  0999 V2000
   34.8213   12.8706  -14.1997 C   0  0  0  0  0  0  0  0  0  0  0  0
   36.1395   13.1619  -13.8964 C   0  0  0  0  0  0  0  0  0  0  0  0
   36.4289   14.0371  -12.8859 C   0  0  0  0  0  0  0  0  0  0  0  0
   37.8710   14.2526  -12.6747 C   0  0  0  0  0  0  0  0  0  0  0  0
   38.8321   13.6661  -13.3742 N   0  0  0  0  0  0  0  0  0  0  0  0
   40.0706   14.0929  -12.9159 C   0  0  0  0  0  0  0  0  0  0  0  0
   39.8025   14.9713  -11.8988 C   0  0  0  0  0  0  0  0  0  0  0  0
   38.4575   15.0694  -11.7508 N   0  0  0  0  0  0  0  0  0  0  0  0
   37.7294   15.8776  -10.8019 C   0  0  0  0  0  0  0  0  0  0  0  0
   36.5760   16.6203  -11.5080 C   0  0  0  0  0  0  0  0  0  0  0  0
   35.5641   15.5917  -11.0532 C   0  0  0  0  0  0  0  0  0  0  0  0
   36.6272   15.0427  -10.1211 C   0  0  0  0  0  0  0  0  0  0  0  0
   35.3627   14.6094  -12.1912 C   0  0  0  0  0  0  0  0  0  0  0  0
   34.0547   14.3396  -12.4699 C   0  0  0  0  0  0  0  0  0  0  0  0
   33.7785   13.4562  -13.4903 C   0  0  0  0  0  0  0  0  0  0  0  0
   32.4978   13.1722  -13.7862 F   0  0  0  0  0  0  0  0  0  0  0  0
   41.3194   13.6312  -13.4795 C   0  0  0  0  0  0  0  0  0  0  0  0
   42.5051   14.3850  -13.1281 N   0  0  0  0  0  0  0  0  0  0  0  0
   41.4756   12.6646  -14.2256 O   0  0  0  0  0  0  0  0  0  0  0  0
   42.4541   15.4069  -13.0532 H   0  0  0  0  0  0  0  0  0  0  0  0
   43.3752   13.8682  -12.9613 H   0  0  0  0  0  0  0  0  0  0  0  0
   40.7744   15.7130  -11.0718 C   0  0  0  0  0  0  0  0  0  0  0  0
   41.5355   15.2590  -10.0765 N   0  0  0  0  0  0  0  0  0  0  0  0
   42.2913   16.2439   -9.5704 C   0  0  0  0  0  0  0  0  0  0  0  0
   41.9544   17.3139  -10.3028 N   0  0  0  0  0  0  0  0  0  0  0  0
   41.0760   16.9790  -11.1630 O   0  0  0  0  0  0  0  0  0  0  0  0
   43.2872   16.1762   -8.4448 C   0  0  0  0  0  0  0  0  0  0  0  0
   42.8780   15.4588   -7.2293 C   0  0  0  0  0  0  0  0  0  0  0  0
   43.9064   14.8544   -8.1245 C   0  0  0  0  0  0  0  0  0  0  0  0
   34.3050   11.1800  -16.1842 C   0  0  0  0  0  0  0  0  0  0  0  0
   34.5426   11.9382  -15.2771 C   0  0  0  0  0  0  0  0  0  0  0  0
   32.5466   10.1414  -17.5581 C   0  0  0  0  0  0  0  0  0  0  0  0
   34.0408   10.2616  -17.2757 C   0  0  0  0  0  0  0  0  0  0  0  0
   34.5554    8.8764  -17.0255 C   0  0  0  0  0  0  0  0  0  0  0  0
   34.6314   10.7647  -18.4174 O   0  0  0  0  0  0  0  0  0  0  0  0
   35.3261   11.4396  -18.2077 H   0  0  0  0  0  0  0  0  0  0  0  0
 32 33  1  0  0  0
 33 34  1  0  0  0
 33 35  1  0  0  0
 33 30  1  0  0  0
 30 31  3  0  0  0
 31  1  1  0  0  0
  1  2  1  0  0  0
  2  3  2  0  0  0
  3  4  1  0  0  0
  4  5  2  0  0  0
  5  6  1  0  0  0
  6 17  1  0  0  0
 17 18  1  0  0  0
 17 19  2  0  0  0
  6  7  2  0  0  0
  7 22  1  0  0  0
 22 23  2  0  0  0
 23 24  1  0  0  0
 24 25  2  0  0  0
 25 26  1  0  0  0
 24 27  1  0  0  0
 27 28  1  0  0  0
 28 29  1  0  0  0
  7  8  1  0  0  0
  8  9  1  0  0  0
  9 10  1  0  0  0
 10 11  1  0  0  0
 11 12  1  0  0  0
 11 13  1  0  0  0
 13 14  2  0  0  0
 14 15  1  0  0  0
 15 16  1  0  0  0
 15  1  2  0  0  0
 13  3  1  0  0  0
  8  4  1  0  0  0
 12  9  1  0  0  0
 26 22  1  0  0  0
 29 27  1  0  0  0
 35 36  1  0  0  0
 18 20  1  0  0  0
 18 21  1  0  0  0
M  END
> <minimizedAffinity>
0.53305

> <CNNscore>
0.2333406806

> <CNNaffinity>
6.5376596451

> <CNN_VS>
1.5255019665

> <CNNaffinity_variance>
1.2984300852

$$$$
[H]OC(C#Cc1c([H])c2c(c([H])c1F)C1([H])C([H])([H])C([H])(n3c-2nc(C(=O)N([H])[H])c3-c2nc(C3([H])C([H])([H])C3([H])[H])no2)C1([H])[H])(C([H])([H])[H])C([H])([H])[H]


 36 41  0  0  0  0  0  0  0  0999 V2000
   38.4979   16.5515   -6.5762 C   0  0  0  0  0  0  0  0  0  0  0  0
   39.5364   16.2431   -7.4370 C   0  0  0  0  0  0  0  0  0  0  0  0
   40.2326   15.0770   -7.2747 C   0  0  0  0  0  0  0  0  0  0  0  0
   41.3092   14.8799   -8.2610 C   0  0  0  0  0  0  0  0  0  0  0  0
   41.6040   15.7279   -9.2361 N   0  0  0  0  0  0  0  0  0  0  0  0
   42.6687   15.2355   -9.9777 C   0  0  0  0  0  0  0  0  0  0  0  0
   43.0004   14.0407   -9.3945 C   0  0  0  0  0  0  0  0  0  0  0  0
   42.1694   13.8226   -8.3446 N   0  0  0  0  0  0  0  0  0  0  0  0
   42.1567   12.6917   -7.4475 C   0  0  0  0  0  0  0  0  0  0  0  0
   42.0495   13.1720   -5.9852 C   0  0  0  0  0  0  0  0  0  0  0  0
   40.5588   12.9154   -5.9541 C   0  0  0  0  0  0  0  0  0  0  0  0
   40.7185   12.1686   -7.2646 C   0  0  0  0  0  0  0  0  0  0  0  0
   39.8590   14.2327   -6.2286 C   0  0  0  0  0  0  0  0  0  0  0  0
   38.8397   14.5128   -5.3661 C   0  0  0  0  0  0  0  0  0  0  0  0
   38.1474   15.6908   -5.5418 C   0  0  0  0  0  0  0  0  0  0  0  0
   37.1380   15.9919   -4.7060 F   0  0  0  0  0  0  0  0  0  0  0  0
   43.2257   15.9349  -11.1140 C   0  0  0  0  0  0  0  0  0  0  0  0
   42.3109   16.2480  -12.1922 N   0  0  0  0  0  0  0  0  0  0  0  0
   44.3958   16.2899  -11.2564 O   0  0  0  0  0  0  0  0  0  0  0  0
   41.5851   15.5724  -12.4555 H   0  0  0  0  0  0  0  0  0  0  0  0
   42.4159   17.1498  -12.6693 H   0  0  0  0  0  0  0  0  0  0  0  0
   44.0716   13.1093   -9.7992 C   0  0  0  0  0  0  0  0  0  0  0  0
   45.1480   12.7315   -9.1103 N   0  0  0  0  0  0  0  0  0  0  0  0
   45.8875   11.8686   -9.8216 C   0  0  0  0  0  0  0  0  0  0  0  0
   45.2116   11.7407  -10.9713 N   0  0  0  0  0  0  0  0  0  0  0  0
   44.1664   12.4684  -10.9316 O   0  0  0  0  0  0  0  0  0  0  0  0
   47.1752   11.1955   -9.4319 C   0  0  0  0  0  0  0  0  0  0  0  0
   47.1825   10.4398   -8.1715 C   0  0  0  0  0  0  0  0  0  0  0  0
   47.2338    9.7027   -9.4669 C   0  0  0  0  0  0  0  0  0  0  0  0
   37.1938   18.8400   -6.9294 C   0  0  0  0  0  0  0  0  0  0  0  0
   37.7758   17.7958   -6.7714 C   0  0  0  0  0  0  0  0  0  0  0  0
   37.2443   21.0041   -8.1009 C   0  0  0  0  0  0  0  0  0  0  0  0
   36.4891   20.0904   -7.1409 C   0  0  0  0  0  0  0  0  0  0  0  0
   36.2630   20.8666   -5.8790 C   0  0  0  0  0  0  0  0  0  0  0  0
   35.2700   19.8073   -7.7230 O   0  0  0  0  0  0  0  0  0  0  0  0
   35.0135   18.8578   -7.6009 H   0  0  0  0  0  0  0  0  0  0  0  0
 32 33  1  0  0  0
 33 34  1  0  0  0
 33 35  1  0  0  0
 33 30  1  0  0  0
 30 31  3  0  0  0
 31  1  1  0  0  0
  1  2  1  0  0  0
  2  3  2  0  0  0
  3  4  1  0  0  0
  4  5  2  0  0  0
  5  6  1  0  0  0
  6 17  1  0  0  0
 17 18  1  0  0  0
 17 19  2  0  0  0
  6  7  2  0  0  0
  7 22  1  0  0  0
 22 23  2  0  0  0
 23 24  1  0  0  0
 24 25  2  0  0  0
 25 26  1  0  0  0
 24 27  1  0  0  0
 27 28  1  0  0  0
 28 29  1  0  0  0
  7  8  1  0  0  0
  8  9  1  0  0  0
  9 10  1  0  0  0
 10 11  1  0  0  0
 11 12  1  0  0  0
 11 13  1  0  0  0
 13 14  2  0  0  0
 14 15  1  0  0  0
 15 16  1  0  0  0
 15  1  2  0  0  0
 13  3  1  0  0  0
  8  4  1  0  0  0
 12  9  1  0  0  0
 26 22  1  0  0  0
 29 27  1  0  0  0
 35 36  1  0  0  0
 18 20  1  0  0  0
 18 21  1  0  0  0
M  END
> <minimizedAffinity>
-6.12203

> <CNNscore>
0.2248391211

> <CNNaffinity>
5.6765871048

> <CNN_VS>
1.2763189077

> <CNNaffinity_variance>
0.4394308925

$$$$
[H]OC(C#Cc1c([H])c2c(c([H])c1F)C1([H])C([H])([H])C([H])(n3c-2nc(C(=O)N([H])[H])c3-c2nc(C3([H])C([H])([H])C3([H])[H])no2)C1([H])[H])(C([H])([H])[H])C([H])([H])[H]


 36 41  0  0  0  0  0  0  0  0999 V2000
   39.8306   12.6494  -15.6260 C   0  0  0  0  0  0  0  0  0  0  0  0
   39.2029   13.3567  -14.6160 C   0  0  0  0  0  0  0  0  0  0  0  0
   37.8503   13.2463  -14.4457 C   0  0  0  0  0  0  0  0  0  0  0  0
   37.3185   14.0543  -13.3344 C   0  0  0  0  0  0  0  0  0  0  0  0
   38.0514   14.8258  -12.5441 N   0  0  0  0  0  0  0  0  0  0  0  0
   37.2355   15.4434  -11.6066 C   0  0  0  0  0  0  0  0  0  0  0  0
   35.9669   15.0006  -11.8760 C   0  0  0  0  0  0  0  0  0  0  0  0
   36.0170   14.1511  -12.9325 N   0  0  0  0  0  0  0  0  0  0  0  0
   34.9197   13.4504  -13.5560 C   0  0  0  0  0  0  0  0  0  0  0  0
   35.0099   13.5762  -15.0911 C   0  0  0  0  0  0  0  0  0  0  0  0
   35.6476   12.2101  -15.2189 C   0  0  0  0  0  0  0  0  0  0  0  0
   35.2815   11.9672  -13.7672 C   0  0  0  0  0  0  0  0  0  0  0  0
   37.1482   12.4096  -15.3139 C   0  0  0  0  0  0  0  0  0  0  0  0
   37.7423   11.7015  -16.3174 C   0  0  0  0  0  0  0  0  0  0  0  0
   39.1052   11.8226  -16.4769 C   0  0  0  0  0  0  0  0  0  0  0  0
   39.7166   11.1358  -17.4581 F   0  0  0  0  0  0  0  0  0  0  0  0
   37.7407   16.3502  -10.6001 C   0  0  0  0  0  0  0  0  0  0  0  0
   37.1502   17.6723  -10.5663 N   0  0  0  0  0  0  0  0  0  0  0  0
   38.6195   16.1121   -9.7717 O   0  0  0  0  0  0  0  0  0  0  0  0
   36.9098   18.1443  -11.4448 H   0  0  0  0  0  0  0  0  0  0  0  0
   36.9866   18.1057   -9.6513 H   0  0  0  0  0  0  0  0  0  0  0  0
   34.7213   15.3561  -11.1683 C   0  0  0  0  0  0  0  0  0  0  0  0
   33.4622   15.2200  -11.5835 N   0  0  0  0  0  0  0  0  0  0  0  0
   32.6053   15.6599  -10.6510 C   0  0  0  0  0  0  0  0  0  0  0  0
   33.4007   16.0683   -9.6533 N   0  0  0  0  0  0  0  0  0  0  0  0
   34.6184   15.8813   -9.9785 O   0  0  0  0  0  0  0  0  0  0  0  0
   31.1021   15.6927  -10.7013 C   0  0  0  0  0  0  0  0  0  0  0  0
   30.4377   14.7021  -11.5597 C   0  0  0  0  0  0  0  0  0  0  0  0
   30.3470   14.5639  -10.0776 C   0  0  0  0  0  0  0  0  0  0  0  0
   42.4633   12.8923  -15.8955 C   0  0  0  0  0  0  0  0  0  0  0  0
   41.2674   12.7851  -15.7843 C   0  0  0  0  0  0  0  0  0  0  0  0
   44.4791   11.8253  -16.8210 C   0  0  0  0  0  0  0  0  0  0  0  0
   43.9019   13.0050  -16.0451 C   0  0  0  0  0  0  0  0  0  0  0  0
   44.6324   13.0732  -14.7382 C   0  0  0  0  0  0  0  0  0  0  0  0
   44.1734   14.1444  -16.7755 O   0  0  0  0  0  0  0  0  0  0  0  0
   43.4062   14.7716  -16.7811 H   0  0  0  0  0  0  0  0  0  0  0  0
 32 33  1  0  0  0
 33 34  1  0  0  0
 33 35  1  0  0  0
 33 30  1  0  0  0
 30 31  3  0  0  0
 31  1  1  0  0  0
  1  2  1  0  0  0
  2  3  2  0  0  0
  3  4  1  0  0  0
  4  5  2  0  0  0
  5  6  1  0  0  0
  6 17  1  0  0  0
 17 18  1  0  0  0
 17 19  2  0  0  0
  6  7  2  0  0  0
  7 22  1  0  0  0
 22 23  2  0  0  0
 23 24  1  0  0  0
 24 25  2  0  0  0
 25 26  1  0  0  0
 24 27  1  0  0  0
 27 28  1  0  0  0
 28 29  1  0  0  0
  7  8  1  0  0  0
  8  9  1  0  0  0
  9 10  1  0  0  0
 10 11  1  0  0  0
 11 12  1  0  0  0
 11 13  1  0  0  0
 13 14  2  0  0  0
 14 15  1  0  0  0
 15 16  1  0  0  0
 15  1  2  0  0  0
 13  3  1  0  0  0
  8  4  1  0  0  0
 12  9  1  0  0  0
 26 22  1  0  0  0
 29 27  1  0  0  0
 35 36  1  0  0  0
 18 20  1  0  0  0
 18 21  1  0  0  0
M  END
> <minimizedAffinity>
-10.78789

> <CNNscore>
0.2081292272

> <CNNaffinity>
6.7081031799

> <CNN_VS>
1.3961523771

> <CNNaffinity_variance>
0.1874099523

$$$$
[H]OC(C#Cc1c([H])c2c(c([H])c1F)C1([H])C([H])([H])C([H])(n3c-2nc(C(=O)N([H])[H])c3-c2nc(C3([H])C([H])([H])C3([H])[H])no2)C1([H])[H])(C([H])([H])[H])C([H])([H])[H]


 36 41  0  0  0  0  0  0  0  0999 V2000
   36.4855   14.2967  -13.4904 C   0  0  0  0  0  0  0  0  0  0  0  0
   36.4631   14.7333  -12.1776 C   0  0  0  0  0  0  0  0  0  0  0  0
   35.2684   15.0085  -11.5712 C   0  0  0  0  0  0  0  0  0  0  0  0
   35.3958   15.4636  -10.1758 C   0  0  0  0  0  0  0  0  0  0  0  0
   36.5443   15.6008   -9.5285 N   0  0  0  0  0  0  0  0  0  0  0  0
   36.3024   16.0472   -8.2369 C   0  0  0  0  0  0  0  0  0  0  0  0
   34.9412   16.1719   -8.1409 C   0  0  0  0  0  0  0  0  0  0  0  0
   34.3861   15.8151   -9.3262 N   0  0  0  0  0  0  0  0  0  0  0  0
   32.9856   15.7939   -9.6756 C   0  0  0  0  0  0  0  0  0  0  0  0
   32.7697   16.4516  -11.0544 C   0  0  0  0  0  0  0  0  0  0  0  0
   32.7224   15.1076  -11.7476 C   0  0  0  0  0  0  0  0  0  0  0  0
   32.6277   14.4682  -10.3754 C   0  0  0  0  0  0  0  0  0  0  0  0
   34.1016   14.8339  -12.3161 C   0  0  0  0  0  0  0  0  0  0  0  0
   34.0957   14.4050  -13.6113 C   0  0  0  0  0  0  0  0  0  0  0  0
   35.3064   14.1317  -14.2089 C   0  0  0  0  0  0  0  0  0  0  0  0
   35.3297   13.7074  -15.4847 F   0  0  0  0  0  0  0  0  0  0  0  0
   37.3575   16.2940   -7.2797 C   0  0  0  0  0  0  0  0  0  0  0  0
   37.4127   17.6230   -6.7067 N   0  0  0  0  0  0  0  0  0  0  0  0
   38.2110   15.4904   -6.9039 O   0  0  0  0  0  0  0  0  0  0  0  0
   37.2072   18.4387   -7.2940 H   0  0  0  0  0  0  0  0  0  0  0  0
   37.6591   17.7125   -5.7152 H   0  0  0  0  0  0  0  0  0  0  0  0
   34.1593   16.6153   -6.9701 C   0  0  0  0  0  0  0  0  0  0  0  0
   33.7818   17.8508   -6.6428 N   0  0  0  0  0  0  0  0  0  0  0  0
   33.0812   17.8455   -5.4998 C   0  0  0  0  0  0  0  0  0  0  0  0
   33.0511   16.5527   -5.1495 N   0  0  0  0  0  0  0  0  0  0  0  0
   33.6815   15.8639   -6.0165 O   0  0  0  0  0  0  0  0  0  0  0  0
   32.4680   19.0103   -4.7716 C   0  0  0  0  0  0  0  0  0  0  0  0
   31.6858   18.7102   -3.5642 C   0  0  0  0  0  0  0  0  0  0  0  0
   33.0143   19.3743   -3.4291 C   0  0  0  0  0  0  0  0  0  0  0  0
   38.8354   13.7962  -14.6264 C   0  0  0  0  0  0  0  0  0  0  0  0
   37.7675   14.0119  -14.1095 C   0  0  0  0  0  0  0  0  0  0  0  0
   41.2655   13.7499  -14.2383 C   0  0  0  0  0  0  0  0  0  0  0  0
   40.1272   13.5270  -15.2291 C   0  0  0  0  0  0  0  0  0  0  0  0
   40.4133   14.3789  -16.4285 C   0  0  0  0  0  0  0  0  0  0  0  0
   40.1640   12.1976  -15.5987 O   0  0  0  0  0  0  0  0  0  0  0  0
   39.2562   11.8046  -15.6567 H   0  0  0  0  0  0  0  0  0  0  0  0
 32 33  1  0  0  0
 33 34  1  0  0  0
 33 35  1  0  0  0
 33 30  1  0  0  0
 30 31  3  0  0  0
 31  1  1  0  0  0
  1  2  1  0  0  0
  2  3  2  0  0  0
  3  4  1  0  0  0
  4  5  2  0  0  0
  5  6  1  0  0  0
  6 17  1  0  0  0
 17 18  1  0  0  0
 17 19  2  0  0  0
  6  7  2  0  0  0
  7 22  1  0  0  0
 22 23  2  0  0  0
 23 24  1  0  0  0
 24 25  2  0  0  0
 25 26  1  0  0  0
 24 27  1  0  0  0
 27 28  1  0  0  0
 28 29  1  0  0  0
  7  8  1  0  0  0
  8  9  1  0  0  0
  9 10  1  0  0  0
 10 11  1  0  0  0
 11 12  1  0  0  0
 11 13  1  0  0  0
 13 14  2  0  0  0
 14 15  1  0  0  0
 15 16  1  0  0  0
 15  1  2  0  0  0
 13  3  1  0  0  0
  8  4  1  0  0  0
 12  9  1  0  0  0
 26 22  1  0  0  0
 29 27  1  0  0  0
 35 36  1  0  0  0
 18 20  1  0  0  0
 18 21  1  0  0  0
M  END
> <minimizedAffinity>
-3.62178

> <CNNscore>
0.1479136944

> <CNNaffinity>
6.2189583778

> <CNN_VS>
0.9198691249

> <CNNaffinity_variance>
0.7240561843

$$$$
[H]OC(C#Cc1c([H])c2c(c([H])c1F)C1([H])C([H])([H])C([H])(n3c-2nc(C(=O)N([H])[H])c3-c2nc(C3([H])C([H])([H])C3([H])[H])no2)C1([H])[H])(C([H])([H])[H])C([H])([H])[H]


 36 41  0  0  0  0  0  0  0  0999 V2000
   34.9201   13.4143  -14.0691 C   0  0  0  0  0  0  0  0  0  0  0  0
   36.2516   13.7592  -13.9187 C   0  0  0  0  0  0  0  0  0  0  0  0
   37.2037   13.1552  -14.6931 C   0  0  0  0  0  0  0  0  0  0  0  0
   38.5762   13.6189  -14.4253 C   0  0  0  0  0  0  0  0  0  0  0  0
   38.9003   14.5401  -13.5290 N   0  0  0  0  0  0  0  0  0  0  0  0
   40.2742   14.7356  -13.5355 C   0  0  0  0  0  0  0  0  0  0  0  0
   40.7620   13.8793  -14.4877 C   0  0  0  0  0  0  0  0  0  0  0  0
   39.7241   13.1961  -15.0322 N   0  0  0  0  0  0  0  0  0  0  0  0
   39.7731   12.1931  -16.0693 C   0  0  0  0  0  0  0  0  0  0  0  0
   38.9031   10.9800  -15.6796 C   0  0  0  0  0  0  0  0  0  0  0  0
   37.7499   11.4664  -16.5296 C   0  0  0  0  0  0  0  0  0  0  0  0
   38.7020   12.4768  -17.1405 C   0  0  0  0  0  0  0  0  0  0  0  0
   36.7837   12.1994  -15.6187 C   0  0  0  0  0  0  0  0  0  0  0  0
   35.4781   11.8411  -15.7870 C   0  0  0  0  0  0  0  0  0  0  0  0
   34.5303   12.4578  -15.0002 C   0  0  0  0  0  0  0  0  0  0  0  0
   33.2359   12.1237  -15.1452 F   0  0  0  0  0  0  0  0  0  0  0  0
   40.9382   15.6807  -12.6658 C   0  0  0  0  0  0  0  0  0  0  0  0
   41.8609   15.1286  -11.6956 N   0  0  0  0  0  0  0  0  0  0  0  0
   40.7985   16.9038  -12.6674 O   0  0  0  0  0  0  0  0  0  0  0  0
   41.6367   14.2438  -11.2271 H   0  0  0  0  0  0  0  0  0  0  0  0
   42.7252   15.6453  -11.5013 H   0  0  0  0  0  0  0  0  0  0  0  0
   42.1691   13.6915  -14.8920 C   0  0  0  0  0  0  0  0  0  0  0  0
   43.2184   13.3840  -14.1301 N   0  0  0  0  0  0  0  0  0  0  0  0
   44.3335   13.3013  -14.8697 C   0  0  0  0  0  0  0  0  0  0  0  0
   43.9133   13.5723  -16.1127 N   0  0  0  0  0  0  0  0  0  0  0  0
   42.6586   13.7939  -16.0970 O   0  0  0  0  0  0  0  0  0  0  0  0
   45.7333   12.9807  -14.4213 C   0  0  0  0  0  0  0  0  0  0  0  0
   46.8007   13.0889  -15.4255 C   0  0  0  0  0  0  0  0  0  0  0  0
   46.7218   14.0976  -14.3299 C   0  0  0  0  0  0  0  0  0  0  0  0
   33.1142   14.6042  -12.5245 C   0  0  0  0  0  0  0  0  0  0  0  0
   33.9304   14.0711  -13.2342 C   0  0  0  0  0  0  0  0  0  0  0  0
   32.7569   15.6829  -10.3411 C   0  0  0  0  0  0  0  0  0  0  0  0
   32.1428   15.2653  -11.6736 C   0  0  0  0  0  0  0  0  0  0  0  0
   30.9487   14.4150  -11.3618 C   0  0  0  0  0  0  0  0  0  0  0  0
   31.7249   16.4178  -12.3079 O   0  0  0  0  0  0  0  0  0  0  0  0
   31.9245   16.3990  -13.2784 H   0  0  0  0  0  0  0  0  0  0  0  0
 32 33  1  0  0  0
 33 34  1  0  0  0
 33 35  1  0  0  0
 33 30  1  0  0  0
 30 31  3  0  0  0
 31  1  1  0  0  0
  1  2  1  0  0  0
  2  3  2  0  0  0
  3  4  1  0  0  0
  4  5  2  0  0  0
  5  6  1  0  0  0
  6 17  1  0  0  0
 17 18  1  0  0  0
 17 19  2  0  0  0
  6  7  2  0  0  0
  7 22  1  0  0  0
 22 23  2  0  0  0
 23 24  1  0  0  0
 24 25  2  0  0  0
 25 26  1  0  0  0
 24 27  1  0  0  0
 27 28  1  0  0  0
 28 29  1  0  0  0
  7  8  1  0  0  0
  8  9  1  0  0  0
  9 10  1  0  0  0
 10 11  1  0  0  0
 11 12  1  0  0  0
 11 13  1  0  0  0
 13 14  2  0  0  0
 14 15  1  0  0  0
 15 16  1  0  0  0
 15  1  2  0  0  0
 13  3  1  0  0  0
  8  4  1  0  0  0
 12  9  1  0  0  0
 26 22  1  0  0  0
 29 27  1  0  0  0
 35 36  1  0  0  0
 18 20  1  0  0  0
 18 21  1  0  0  0
M  END
> <minimizedAffinity>
-8.94604

> <CNNscore>
0.1452120245

> <CNNaffinity>
6.8362417221

> <CNN_VS>
0.9927045107

> <CNNaffinity_variance>
0.1035020128

$$$$
[H]OC(C#Cc1c([H])c2c(c([H])c1F)C1([H])C([H])([H])C([H])(n3c-2nc(C(=O)N([H])[H])c3-c2nc(C3([H])C([H])([H])C3([H])[H])no2)C1([H])[H])(C([H])([H])[H])C([H])([H])[H]


 36 41  0  0  0  0  0  0  0  0999 V2000
   43.8993   13.0208  -14.9755 C   0  0  0  0  0  0  0  0  0  0  0  0
   43.7557   13.4174  -13.6577 C   0  0  0  0  0  0  0  0  0  0  0  0
   44.8597   13.5452  -12.8604 C   0  0  0  0  0  0  0  0  0  0  0  0
   44.5578   13.9736  -11.4835 C   0  0  0  0  0  0  0  0  0  0  0  0
   43.3416   14.2285  -11.0219 N   0  0  0  0  0  0  0  0  0  0  0  0
   43.4174   14.6058   -9.6885 C   0  0  0  0  0  0  0  0  0  0  0  0
   44.7498   14.5643   -9.3708 C   0  0  0  0  0  0  0  0  0  0  0  0
   45.4477   14.1778  -10.4681 N   0  0  0  0  0  0  0  0  0  0  0  0
   46.8750   14.0002  -10.5904 C   0  0  0  0  0  0  0  0  0  0  0  0
   47.1875   12.6707  -11.3082 C   0  0  0  0  0  0  0  0  0  0  0  0
   47.3977   13.3730  -12.6317 C   0  0  0  0  0  0  0  0  0  0  0  0
   47.3927   14.6849  -11.8705 C   0  0  0  0  0  0  0  0  0  0  0  0
   46.1066   13.2650  -13.4203 C   0  0  0  0  0  0  0  0  0  0  0  0
   46.2759   12.8723  -14.7159 C   0  0  0  0  0  0  0  0  0  0  0  0
   45.1550   12.7479  -15.5070 C   0  0  0  0  0  0  0  0  0  0  0  0
   45.2929   12.3624  -16.7879 F   0  0  0  0  0  0  0  0  0  0  0  0
   42.2545   14.9493   -8.9011 C   0  0  0  0  0  0  0  0  0  0  0  0
   41.9546   16.3604   -8.7727 N   0  0  0  0  0  0  0  0  0  0  0  0
   41.4959   14.1652   -8.3308 O   0  0  0  0  0  0  0  0  0  0  0  0
   42.7202   17.0355   -8.6701 H   0  0  0  0  0  0  0  0  0  0  0  0
   40.9706   16.6492   -8.7884 H   0  0  0  0  0  0  0  0  0  0  0  0
   45.3742   14.8769   -8.0704 C   0  0  0  0  0  0  0  0  0  0  0  0
   45.3306   14.1756   -6.9380 N   0  0  0  0  0  0  0  0  0  0  0  0
   46.0261   14.7917   -5.9715 C   0  0  0  0  0  0  0  0  0  0  0  0
   46.4925   15.8967   -6.5684 N   0  0  0  0  0  0  0  0  0  0  0  0
   46.1009   15.9209   -7.7807 O   0  0  0  0  0  0  0  0  0  0  0  0
   46.2398   14.3553   -4.5478 C   0  0  0  0  0  0  0  0  0  0  0  0
   45.7149   13.0374   -4.1640 C   0  0  0  0  0  0  0  0  0  0  0  0
   47.1886   13.2308   -4.2857 C   0  0  0  0  0  0  0  0  0  0  0  0
   41.7293   12.7674  -16.4887 C   0  0  0  0  0  0  0  0  0  0  0  0
   42.7107   12.8931  -15.7995 C   0  0  0  0  0  0  0  0  0  0  0  0
   39.2800   12.5294  -16.4381 C   0  0  0  0  0  0  0  0  0  0  0  0
   40.5355   12.6194  -17.2998 C   0  0  0  0  0  0  0  0  0  0  0  0
   40.5580   11.4030  -18.1750 C   0  0  0  0  0  0  0  0  0  0  0  0
   40.4069   13.7436  -18.0902 O   0  0  0  0  0  0  0  0  0  0  0  0
   41.2593   14.2437  -18.1635 H   0  0  0  0  0  0  0  0  0  0  0  0
 32 33  1  0  0  0
 33 34  1  0  0  0
 33 35  1  0  0  0
 33 30  1  0  0  0
 30 31  3  0  0  0
 31  1  1  0  0  0
  1  2  1  0  0  0
  2  3  2  0  0  0
  3  4  1  0  0  0
  4  5  2  0  0  0
  5  6  1  0  0  0
  6 17  1  0  0  0
 17 18  1  0  0  0
 17 19  2  0  0  0
  6  7  2  0  0  0
  7 22  1  0  0  0
 22 23  2  0  0  0
 23 24  1  0  0  0
 24 25  2  0  0  0
 25 26  1  0  0  0
 24 27  1  0  0  0
 27 28  1  0  0  0
 28 29  1  0  0  0
  7  8  1  0  0  0
  8  9  1  0  0  0
  9 10  1  0  0  0
 10 11  1  0  0  0
 11 12  1  0  0  0
 11 13  1  0  0  0
 13 14  2  0  0  0
 14 15  1  0  0  0
 15 16  1  0  0  0
 15  1  2  0  0  0
 13  3  1  0  0  0
  8  4  1  0  0  0
 12  9  1  0  0  0
 26 22  1  0  0  0
 29 27  1  0  0  0
 35 36  1  0  0  0
 18 20  1  0  0  0
 18 21  1  0  0  0
M  END
> <minimizedAffinity>
-6.46054

> <CNNscore>
0.1284783334

> <CNNaffinity>
6.0310492516

> <CNN_VS>
0.7748591304

> <CNNaffinity_variance>
0.4816729426

$$$$
[H]OC(C#Cc1c([H])c2c(c([H])c1F)C1([H])C([H])([H])C([H])(n3c-2nc(C(=O)N([H])[H])c3-c2nc(C3([H])C([H])([H])C3([H])[H])no2)C1([H])[H])(C([H])([H])[H])C([H])([H])[H]


 36 41  0  0  0  0  0  0  0  0999 V2000
   33.7956   16.5296   -7.9625 C   0  0  0  0  0  0  0  0  0  0  0  0
   34.2472   16.0259   -9.1695 C   0  0  0  0  0  0  0  0  0  0  0  0
   35.5768   16.0958   -9.4825 C   0  0  0  0  0  0  0  0  0  0  0  0
   35.9137   15.5221  -10.7970 C   0  0  0  0  0  0  0  0  0  0  0  0
   35.0387   14.9729  -11.6275 N   0  0  0  0  0  0  0  0  0  0  0  0
   35.6911   14.5359  -12.7718 C   0  0  0  0  0  0  0  0  0  0  0  0
   37.0112   14.8527  -12.5850 C   0  0  0  0  0  0  0  0  0  0  0  0
   37.1480   15.4558  -11.3775 N   0  0  0  0  0  0  0  0  0  0  0  0
   38.3592   15.9548  -10.7710 C   0  0  0  0  0  0  0  0  0  0  0  0
   38.1231   17.3644  -10.1898 C   0  0  0  0  0  0  0  0  0  0  0  0
   37.9289   16.8144   -8.7938 C   0  0  0  0  0  0  0  0  0  0  0  0
   38.4567   15.4877   -9.3055 C   0  0  0  0  0  0  0  0  0  0  0  0
   36.4370   16.6829   -8.5541 C   0  0  0  0  0  0  0  0  0  0  0  0
   36.0181   17.1871   -7.3575 C   0  0  0  0  0  0  0  0  0  0  0  0
   34.6761   17.1097   -7.0559 C   0  0  0  0  0  0  0  0  0  0  0  0
   34.2358   17.5988   -5.8832 F   0  0  0  0  0  0  0  0  0  0  0  0
   35.0061   13.8911  -13.8698 C   0  0  0  0  0  0  0  0  0  0  0  0
   33.8707   14.5967  -14.4271 N   0  0  0  0  0  0  0  0  0  0  0  0
   35.2904   12.8061  -14.3770 O   0  0  0  0  0  0  0  0  0  0  0  0
   33.2354   15.1087  -13.8054 H   0  0  0  0  0  0  0  0  0  0  0  0
   33.7319   14.5642  -15.4427 H   0  0  0  0  0  0  0  0  0  0  0  0
   38.1351   14.6032  -13.5086 C   0  0  0  0  0  0  0  0  0  0  0  0
   38.4538   13.4757  -14.1437 N   0  0  0  0  0  0  0  0  0  0  0  0
   39.5493   13.6490  -14.8968 C   0  0  0  0  0  0  0  0  0  0  0  0
   39.8799   14.9308  -14.6898 N   0  0  0  0  0  0  0  0  0  0  0  0
   39.0461   15.4585  -13.8837 O   0  0  0  0  0  0  0  0  0  0  0  0
   40.2520   12.6478  -15.7726 C   0  0  0  0  0  0  0  0  0  0  0  0
   39.4111   11.7908  -16.6200 C   0  0  0  0  0  0  0  0  0  0  0  0
   40.2334   12.8629  -17.2513 C   0  0  0  0  0  0  0  0  0  0  0  0
   31.1999   16.3888   -7.4101 C   0  0  0  0  0  0  0  0  0  0  0  0
   32.3792   16.4423   -7.6558 C   0  0  0  0  0  0  0  0  0  0  0  0
   29.0464   15.4759   -8.1765 C   0  0  0  0  0  0  0  0  0  0  0  0
   29.7794   16.3059   -7.1273 C   0  0  0  0  0  0  0  0  0  0  0  0
   29.1047   17.6431   -7.0725 C   0  0  0  0  0  0  0  0  0  0  0  0
   29.6157   15.6661   -5.9153 O   0  0  0  0  0  0  0  0  0  0  0  0
   30.4488   15.6718   -5.3786 H   0  0  0  0  0  0  0  0  0  0  0  0
 32 33  1  0  0  0
 33 34  1  0  0  0
 33 35  1  0  0  0
 33 30  1  0  0  0
 30 31  3  0  0  0
 31  1  1  0  0  0
  1  2  1  0  0  0
  2  3  2  0  0  0
  3  4  1  0  0  0
  4  5  2  0  0  0
  5  6  1  0  0  0
  6 17  1  0  0  0
 17 18  1  0  0  0
 17 19  2  0  0  0
  6  7  2  0  0  0
  7 22  1  0  0  0
 22 23  2  0  0  0
 23 24  1  0  0  0
 24 25  2  0  0  0
 25 26  1  0  0  0
 24 27  1  0  0  0
 27 28  1  0  0  0
 28 29  1  0  0  0
  7  8  1  0  0  0
  8  9  1  0  0  0
  9 10  1  0  0  0
 10 11  1  0  0  0
 11 12  1  0  0  0
 11 13  1  0  0  0
 13 14  2  0  0  0
 14 15  1  0  0  0
 15 16  1  0  0  0
 15  1  2  0  0  0
 13  3  1  0  0  0
  8  4  1  0  0  0
 12  9  1  0  0  0
 26 22  1  0  0  0
 29 27  1  0  0  0
 35 36  1  0  0  0
 18 20  1  0  0  0
 18 21  1  0  0  0
M  END
> <minimizedAffinity>
-8.88599

> <CNNscore>
0.1075128168

> <CNNaffinity>
5.8846926689

> <CNN_VS>
0.6326798797

> <CNNaffinity_variance>
0.4478998780

$$$$
[H]OC(C#Cc1c([H])c2c(c([H])c1F)C1([H])C([H])([H])C([H])(n3c-2nc(C(=O)N([H])[H])c3-c2nc(C3([H])C([H])([H])C3([H])[H])no2)C1([H])[H])(C([H])([H])[H])C([H])([H])[H]


 36 41  0  0  0  0  0  0  0  0999 V2000
   35.2846   16.1241  -10.3360 C   0  0  0  0  0  0  0  0  0  0  0  0
   36.4716   15.8789  -11.0034 C   0  0  0  0  0  0  0  0  0  0  0  0
   36.4789   15.0693  -12.1058 C   0  0  0  0  0  0  0  0  0  0  0  0
   37.8098   14.8971  -12.7138 C   0  0  0  0  0  0  0  0  0  0  0  0
   38.9223   15.4631  -12.2676 N   0  0  0  0  0  0  0  0  0  0  0  0
   39.9910   15.0899  -13.0705 C   0  0  0  0  0  0  0  0  0  0  0  0
   39.4602   14.2655  -14.0278 C   0  0  0  0  0  0  0  0  0  0  0  0
   38.1263   14.1472  -13.8103 N   0  0  0  0  0  0  0  0  0  0  0  0
   37.1711   13.3792  -14.5728 C   0  0  0  0  0  0  0  0  0  0  0  0
   36.2578   12.5728  -13.6263 C   0  0  0  0  0  0  0  0  0  0  0  0
   35.1550   13.6038  -13.7253 C   0  0  0  0  0  0  0  0  0  0  0  0
   35.9209   14.2278  -14.8763 C   0  0  0  0  0  0  0  0  0  0  0  0
   35.2666   14.5149  -12.5179 C   0  0  0  0  0  0  0  0  0  0  0  0
   34.0828   14.7403  -11.8782 C   0  0  0  0  0  0  0  0  0  0  0  0
   34.0908   15.5578  -10.7695 C   0  0  0  0  0  0  0  0  0  0  0  0
   32.9380   15.7970  -10.1198 F   0  0  0  0  0  0  0  0  0  0  0  0
   41.3439   15.5453  -12.8407 C   0  0  0  0  0  0  0  0  0  0  0  0
   42.3341   14.5221  -12.5757 N   0  0  0  0  0  0  0  0  0  0  0  0
   41.7374   16.7117  -12.8477 O   0  0  0  0  0  0  0  0  0  0  0  0
   42.0837   13.7086  -12.0031 H   0  0  0  0  0  0  0  0  0  0  0  0
   43.2717   14.6416  -12.9740 H   0  0  0  0  0  0  0  0  0  0  0  0
   40.1734   13.5932  -15.1314 C   0  0  0  0  0  0  0  0  0  0  0  0
   39.6847   12.7642  -16.0534 N   0  0  0  0  0  0  0  0  0  0  0  0
   40.6523   12.3606  -16.8889 C   0  0  0  0  0  0  0  0  0  0  0  0
   41.7482   12.9814  -16.4323 N   0  0  0  0  0  0  0  0  0  0  0  0
   41.4431   13.6872  -15.4162 O   0  0  0  0  0  0  0  0  0  0  0  0
   40.5455   11.4296  -18.0658 C   0  0  0  0  0  0  0  0  0  0  0  0
   39.2063   10.9291  -18.4059 C   0  0  0  0  0  0  0  0  0  0  0  0
   39.8649   11.9237  -19.3011 C   0  0  0  0  0  0  0  0  0  0  0  0
   35.3349   17.7180   -8.2100 C   0  0  0  0  0  0  0  0  0  0  0  0
   35.3056   16.9872   -9.1688 C   0  0  0  0  0  0  0  0  0  0  0  0
   36.7611   18.7987   -6.5200 C   0  0  0  0  0  0  0  0  0  0  0  0
   35.3476   18.5991   -7.0576 C   0  0  0  0  0  0  0  0  0  0  0  0
   34.5089   18.1019   -5.9194 C   0  0  0  0  0  0  0  0  0  0  0  0
   34.8844   19.8375   -7.4541 O   0  0  0  0  0  0  0  0  0  0  0  0
   34.3820   19.7887   -8.3069 H   0  0  0  0  0  0  0  0  0  0  0  0
 32 33  1  0  0  0
 33 34  1  0  0  0
 33 35  1  0  0  0
 33 30  1  0  0  0
 30 31  3  0  0  0
 31  1  1  0  0  0
  1  2  1  0  0  0
  2  3  2  0  0  0
  3  4  1  0  0  0
  4  5  2  0  0  0
  5  6  1  0  0  0
  6 17  1  0  0  0
 17 18  1  0  0  0
 17 19  2  0  0  0
  6  7  2  0  0  0
  7 22  1  0  0  0
 22 23  2  0  0  0
 23 24  1  0  0  0
 24 25  2  0  0  0
 25 26  1  0  0  0
 24 27  1  0  0  0
 27 28  1  0  0  0
 28 29  1  0  0  0
  7  8  1  0  0  0
  8  9  1  0  0  0
  9 10  1  0  0  0
 10 11  1  0  0  0
 11 12  1  0  0  0
 11 13  1  0  0  0
 13 14  2  0  0  0
 14 15  1  0  0  0
 15 16  1  0  0  0
 15  1  2  0  0  0
 13  3  1  0  0  0
  8  4  1  0  0  0
 12  9  1  0  0  0
 26 22  1  0  0  0
 29 27  1  0  0  0
 35 36  1  0  0  0
 18 20  1  0  0  0
 18 21  1  0  0  0
M  END
> <minimizedAffinity>
-8.84419

> <CNNscore>
0.1058263928

> <CNNaffinity>
6.1664557457

> <CNN_VS>
0.6525737643

> <CNNaffinity_variance>
0.2629708946

$$$$
[H]O[C@]1(C([H])([H])[H])c2sc(C(=O)N([H])[H])nc2-c2c([H])c(C#C[C@@]3(O[H])C(=O)N(C([H])([H])[H])C([H])([H])C3([H])[H])c([H])c([H])c2OC1([H])[H]


 33 36  0  0  0  0  0  0  0  0999 V2000
   38.3636   14.2519  -13.0668 C   0  0  0  0  0  0  0  0  0  0  0  0
   39.6447   14.6803  -13.3477 C   0  0  0  0  0  0  0  0  0  0  0  0
   40.2456   14.3150  -14.5358 C   0  0  0  0  0  0  0  0  0  0  0  0
   39.5778   13.5212  -15.4540 C   0  0  0  0  0  0  0  0  0  0  0  0
   40.3330   13.2503  -16.5959 O   0  0  0  0  0  0  0  0  0  0  0  0
   39.8736   12.7422  -17.8326 C   0  0  0  0  0  0  0  0  0  0  0  0
   39.2304   11.3822  -17.7041 C   0  0  0  0  0  0  0  0  0  0  0  0
   40.0995   10.4370  -16.9456 C   0  0  0  0  0  0  0  0  0  0  0  0
   39.0337   10.8946  -18.9976 O   0  0  0  0  0  0  0  0  0  0  0  0
   37.8634   11.5205  -17.0991 C   0  0  0  0  0  0  0  0  0  0  0  0
   36.4344   10.7634  -17.6458 S   0  0  0  0  0  0  0  0  0  0  0  0
   35.3531   11.3954  -16.4846 C   0  0  0  0  0  0  0  0  0  0  0  0
   36.1456   12.1529  -15.7400 N   0  0  0  0  0  0  0  0  0  0  0  0
   37.4055   12.2355  -16.0226 C   0  0  0  0  0  0  0  0  0  0  0  0
   38.2978   13.0839  -15.1906 C   0  0  0  0  0  0  0  0  0  0  0  0
   37.7240   13.4623  -14.0010 C   0  0  0  0  0  0  0  0  0  0  0  0
   38.1151   10.5130  -19.1194 H   0  0  0  0  0  0  0  0  0  0  0  0
   33.8958   11.1664  -16.3322 C   0  0  0  0  0  0  0  0  0  0  0  0
   33.3771   11.2264  -15.0222 N   0  0  0  0  0  0  0  0  0  0  0  0
   33.2433   10.9406  -17.3585 O   0  0  0  0  0  0  0  0  0  0  0  0
   32.9006   12.0823  -14.6806 H   0  0  0  0  0  0  0  0  0  0  0  0
   33.4719   10.4121  -14.3976 H   0  0  0  0  0  0  0  0  0  0  0  0
   37.1218   14.8872  -10.8043 C   0  0  0  0  0  0  0  0  0  0  0  0
   37.6902   14.6092  -11.8327 C   0  0  0  0  0  0  0  0  0  0  0  0
   37.7365   17.4250   -6.8112 C   0  0  0  0  0  0  0  0  0  0  0  0
   36.9602   16.7399   -7.8207 N   0  0  0  0  0  0  0  0  0  0  0  0
   35.6690   17.1311   -8.3578 C   0  0  0  0  0  0  0  0  0  0  0  0
   35.6531   16.4910   -9.7113 C   0  0  0  0  0  0  0  0  0  0  0  0
   36.4255   15.1999   -9.5543 C   0  0  0  0  0  0  0  0  0  0  0  0
   35.6051   14.1564   -9.1315 O   0  0  0  0  0  0  0  0  0  0  0  0
   37.3600   15.5403   -8.4591 C   0  0  0  0  0  0  0  0  0  0  0  0
   38.3660   14.8683   -8.1345 O   0  0  0  0  0  0  0  0  0  0  0  0
   34.7375   14.4780   -8.7836 H   0  0  0  0  0  0  0  0  0  0  0  0
 25 26  1  0  0  0
 26 27  1  0  0  0
 27 28  1  0  0  0
 28 29  1  0  0  0
 29 30  1  0  0  0
 29 23  1  0  0  0
 23 24  3  0  0  0
 24  1  1  0  0  0
  1  2  2  0  0  0
  2  3  1  0  0  0
  3  4  2  0  0  0
  4  5  1  0  0  0
  5  6  1  0  0  0
  6  7  1  0  0  0
  7  8  1  0  0  0
  7  9  1  0  0  0
  7 10  1  0  0  0
 10 11  1  0  0  0
 11 12  1  0  0  0
 12 13  2  0  0  0
 13 14  1  0  0  0
 14 15  1  0  0  0
 15 16  2  0  0  0
 12 18  1  0  0  0
 18 19  1  0  0  0
 18 20  2  0  0  0
 29 31  1  0  0  0
 31 32  2  0  0  0
 31 26  1  0  0  0
 16  1  1  0  0  0
 15  4  1  0  0  0
 14 10  2  0  0  0
 30 33  1  0  0  0
  9 17  1  0  0  0
 19 21  1  0  0  0
 19 22  1  0  0  0
M  END
> <minimizedAffinity>
-8.54204

> <CNNscore>
0.6878088117

> <CNNaffinity>
6.9157547951

> <CNN_VS>
4.7567172050

> <CNNaffinity_variance>
0.3234902024

$$$$
[H]O[C@]1(C([H])([H])[H])c2sc(C(=O)N([H])[H])nc2-c2c([H])c(C#C[C@@]3(O[H])C(=O)N(C([H])([H])[H])C([H])([H])C3([H])[H])c([H])c([H])c2OC1([H])[H]


 33 36  0  0  0  0  0  0  0  0999 V2000
   36.0435   12.7634  -13.2567 C   0  0  0  0  0  0  0  0  0  0  0  0
   34.8652   12.1127  -13.5595 C   0  0  0  0  0  0  0  0  0  0  0  0
   34.7710   11.3666  -14.7173 C   0  0  0  0  0  0  0  0  0  0  0  0
   35.8473   11.2616  -15.5832 C   0  0  0  0  0  0  0  0  0  0  0  0
   35.5765   10.4706  -16.7006 O   0  0  0  0  0  0  0  0  0  0  0  0
   36.5064    9.9146  -17.6089 C   0  0  0  0  0  0  0  0  0  0  0  0
   37.3335   10.9623  -18.3146 C   0  0  0  0  0  0  0  0  0  0  0  0
   36.4747   12.0299  -18.9036 C   0  0  0  0  0  0  0  0  0  0  0  0
   38.0350   10.3165  -19.3345 O   0  0  0  0  0  0  0  0  0  0  0  0
   38.3710   11.5087  -17.3771 C   0  0  0  0  0  0  0  0  0  0  0  0
   40.0219   11.7598  -17.7314 S   0  0  0  0  0  0  0  0  0  0  0  0
   40.5146   12.3769  -16.2170 C   0  0  0  0  0  0  0  0  0  0  0  0
   39.3871   12.3573  -15.5209 N   0  0  0  0  0  0  0  0  0  0  0  0
   38.2987   11.9286  -16.0740 C   0  0  0  0  0  0  0  0  0  0  0  0
   37.0321   11.9046  -15.2972 C   0  0  0  0  0  0  0  0  0  0  0  0
   37.0980   12.6400  -14.1386 C   0  0  0  0  0  0  0  0  0  0  0  0
   39.0002   10.5852  -19.3549 H   0  0  0  0  0  0  0  0  0  0  0  0
   41.8572   12.8254  -15.7747 C   0  0  0  0  0  0  0  0  0  0  0  0
   42.9382   12.5356  -16.6328 N   0  0  0  0  0  0  0  0  0  0  0  0
   41.9328   13.4181  -14.6916 O   0  0  0  0  0  0  0  0  0  0  0  0
   43.3161   13.2609  -17.2711 H   0  0  0  0  0  0  0  0  0  0  0  0
   43.3574   11.5940  -16.6261 H   0  0  0  0  0  0  0  0  0  0  0  0
   36.3056   14.2373  -11.0604 C   0  0  0  0  0  0  0  0  0  0  0  0
   36.1912   13.5589  -12.0527 C   0  0  0  0  0  0  0  0  0  0  0  0
   38.0089   18.4983   -9.7542 C   0  0  0  0  0  0  0  0  0  0  0  0
   37.1696   17.3280   -9.6244 N   0  0  0  0  0  0  0  0  0  0  0  0
   35.7991   17.2731   -9.1476 C   0  0  0  0  0  0  0  0  0  0  0  0
   35.2610   16.0345   -9.7943 C   0  0  0  0  0  0  0  0  0  0  0  0
   36.4313   15.0789   -9.8683 C   0  0  0  0  0  0  0  0  0  0  0  0
   36.5578   14.3273   -8.7023 O   0  0  0  0  0  0  0  0  0  0  0  0
   37.5758   16.0121   -9.9559 C   0  0  0  0  0  0  0  0  0  0  0  0
   38.7437   15.6928  -10.2771 O   0  0  0  0  0  0  0  0  0  0  0  0
   36.0299   14.7016   -7.9550 H   0  0  0  0  0  0  0  0  0  0  0  0
 25 26  1  0  0  0
 26 27  1  0  0  0
 27 28  1  0  0  0
 28 29  1  0  0  0
 29 30  1  0  0  0
 29 23  1  0  0  0
 23 24  3  0  0  0
 24  1  1  0  0  0
  1  2  2  0  0  0
  2  3  1  0  0  0
  3  4  2  0  0  0
  4  5  1  0  0  0
  5  6  1  0  0  0
  6  7  1  0  0  0
  7  8  1  0  0  0
  7  9  1  0  0  0
  7 10  1  0  0  0
 10 11  1  0  0  0
 11 12  1  0  0  0
 12 13  2  0  0  0
 13 14  1  0  0  0
 14 15  1  0  0  0
 15 16  2  0  0  0
 12 18  1  0  0  0
 18 19  1  0  0  0
 18 20  2  0  0  0
 29 31  1  0  0  0
 31 32  2  0  0  0
 31 26  1  0  0  0
 16  1  1  0  0  0
 15  4  1  0  0  0
 14 10  2  0  0  0
 30 33  1  0  0  0
  9 17  1  0  0  0
 19 21  1  0  0  0
 19 22  1  0  0  0
M  END
> <minimizedAffinity>
-6.52211

> <CNNscore>
0.6252144575

> <CNNaffinity>
6.8725767136

> <CNN_VS>
4.2968344688

> <CNNaffinity_variance>
0.6054557562

$$$$
[H]O[C@]1(C([H])([H])[H])c2sc(C(=O)N([H])[H])nc2-c2c([H])c(C#C[C@@]3(O[H])C(=O)N(C([H])([H])[H])C([H])([H])C3([H])[H])c([H])c([H])c2OC1([H])[H]


 33 36  0  0  0  0  0  0  0  0999 V2000
   40.7894   15.7744  -12.6221 C   0  0  0  0  0  0  0  0  0  0  0  0
   39.9723   16.0252  -11.5390 C   0  0  0  0  0  0  0  0  0  0  0  0
   38.7401   15.4085  -11.4514 C   0  0  0  0  0  0  0  0  0  0  0  0
   38.3107   14.5377  -12.4395 C   0  0  0  0  0  0  0  0  0  0  0  0
   37.0444   14.0069  -12.1896 O   0  0  0  0  0  0  0  0  0  0  0  0
   36.4406   12.8892  -12.8101 C   0  0  0  0  0  0  0  0  0  0  0  0
   36.2823   13.0623  -14.3017 C   0  0  0  0  0  0  0  0  0  0  0  0
   35.6345   14.3638  -14.6342 C   0  0  0  0  0  0  0  0  0  0  0  0
   35.4783   12.0150  -14.7558 O   0  0  0  0  0  0  0  0  0  0  0  0
   37.6114   12.8902  -14.9782 C   0  0  0  0  0  0  0  0  0  0  0  0
   37.9209   11.9635  -16.3780 S   0  0  0  0  0  0  0  0  0  0  0  0
   39.5977   12.2596  -16.5117 C   0  0  0  0  0  0  0  0  0  0  0  0
   39.8303   13.0530  -15.4761 N   0  0  0  0  0  0  0  0  0  0  0  0
   38.8570   13.3859  -14.6912 C   0  0  0  0  0  0  0  0  0  0  0  0
   39.1132   14.2751  -13.5285 C   0  0  0  0  0  0  0  0  0  0  0  0
   40.3341   14.9023  -13.5902 C   0  0  0  0  0  0  0  0  0  0  0  0
   35.8529   11.5838  -15.5792 H   0  0  0  0  0  0  0  0  0  0  0  0
   40.5636   11.7640  -17.5221 C   0  0  0  0  0  0  0  0  0  0  0  0
   41.8964   12.2080  -17.3978 N   0  0  0  0  0  0  0  0  0  0  0  0
   40.1342   11.0014  -18.3962 O   0  0  0  0  0  0  0  0  0  0  0  0
   42.6163   11.6041  -16.9582 H   0  0  0  0  0  0  0  0  0  0  0  0
   42.1584   13.1416  -17.7472 H   0  0  0  0  0  0  0  0  0  0  0  0
   43.1837   16.8991  -12.8811 C   0  0  0  0  0  0  0  0  0  0  0  0
   42.0919   16.3979  -12.7589 C   0  0  0  0  0  0  0  0  0  0  0  0
   47.5862   16.5291  -11.0799 C   0  0  0  0  0  0  0  0  0  0  0  0
   46.6085   16.8776  -12.0867 N   0  0  0  0  0  0  0  0  0  0  0  0
   46.7467   16.7650  -13.5278 C   0  0  0  0  0  0  0  0  0  0  0  0
   45.3306   16.6448  -13.9992 C   0  0  0  0  0  0  0  0  0  0  0  0
   44.5157   17.4863  -13.0421 C   0  0  0  0  0  0  0  0  0  0  0  0
   44.4602   18.8185  -13.4458 O   0  0  0  0  0  0  0  0  0  0  0  0
   45.3224   17.4003  -11.8050 C   0  0  0  0  0  0  0  0  0  0  0  0
   44.9317   17.7395  -10.6642 O   0  0  0  0  0  0  0  0  0  0  0  0
   45.1388   19.0315  -14.1323 H   0  0  0  0  0  0  0  0  0  0  0  0
 25 26  1  0  0  0
 26 27  1  0  0  0
 27 28  1  0  0  0
 28 29  1  0  0  0
 29 30  1  0  0  0
 29 23  1  0  0  0
 23 24  3  0  0  0
 24  1  1  0  0  0
  1  2  2  0  0  0
  2  3  1  0  0  0
  3  4  2  0  0  0
  4  5  1  0  0  0
  5  6  1  0  0  0
  6  7  1  0  0  0
  7  8  1  0  0  0
  7  9  1  0  0  0
  7 10  1  0  0  0
 10 11  1  0  0  0
 11 12  1  0  0  0
 12 13  2  0  0  0
 13 14  1  0  0  0
 14 15  1  0  0  0
 15 16  2  0  0  0
 12 18  1  0  0  0
 18 19  1  0  0  0
 18 20  2  0  0  0
 29 31  1  0  0  0
 31 32  2  0  0  0
 31 26  1  0  0  0
 16  1  1  0  0  0
 15  4  1  0  0  0
 14 10  2  0  0  0
 30 33  1  0  0  0
  9 17  1  0  0  0
 19 21  1  0  0  0
 19 22  1  0  0  0
M  END
> <minimizedAffinity>
-8.26576

> <CNNscore>
0.4373145103

> <CNNaffinity>
6.1494531631

> <CNN_VS>
2.6892449856

> <CNNaffinity_variance>
0.1348599195

$$$$
[H]O[C@]1(C([H])([H])[H])c2sc(C(=O)N([H])[H])nc2-c2c([H])c(C#C[C@@]3(O[H])C(=O)N(C([H])([H])[H])C([H])([H])C3([H])[H])c([H])c([H])c2OC1([H])[H]


 33 36  0  0  0  0  0  0  0  0999 V2000
   36.6391   13.3167  -14.5856 C   0  0  0  0  0  0  0  0  0  0  0  0
   35.5725   12.6100  -15.1018 C   0  0  0  0  0  0  0  0  0  0  0  0
   35.7699   11.7438  -16.1586 C   0  0  0  0  0  0  0  0  0  0  0  0
   37.0291   11.5733  -16.7105 C   0  0  0  0  0  0  0  0  0  0  0  0
   37.0451   10.6625  -17.7678 O   0  0  0  0  0  0  0  0  0  0  0  0
   38.1716   10.0358  -18.3484 C   0  0  0  0  0  0  0  0  0  0  0  0
   39.1537   11.0223  -18.9334 C   0  0  0  0  0  0  0  0  0  0  0  0
   38.4748   12.0012  -19.8307 C   0  0  0  0  0  0  0  0  0  0  0  0
   40.0868   10.2891  -19.6690 O   0  0  0  0  0  0  0  0  0  0  0  0
   39.9239   11.6889  -17.8306 C   0  0  0  0  0  0  0  0  0  0  0  0
   41.6118   11.9400  -17.7849 S   0  0  0  0  0  0  0  0  0  0  0  0
   41.7098   12.7250  -16.2712 C   0  0  0  0  0  0  0  0  0  0  0  0
   40.4434   12.7525  -15.8821 N   0  0  0  0  0  0  0  0  0  0  0  0
   39.5276   12.2422  -16.6405 C   0  0  0  0  0  0  0  0  0  0  0  0
   38.1062   12.2706  -16.2080 C   0  0  0  0  0  0  0  0  0  0  0  0
   37.8812   13.1256  -15.1564 C   0  0  0  0  0  0  0  0  0  0  0  0
   41.0271   10.5768  -19.4757 H   0  0  0  0  0  0  0  0  0  0  0  0
   42.8997   13.2493  -15.5579 C   0  0  0  0  0  0  0  0  0  0  0  0
   43.9987   13.6341  -16.3534 N   0  0  0  0  0  0  0  0  0  0  0  0
   42.8437   13.3112  -14.3237 O   0  0  0  0  0  0  0  0  0  0  0  0
   44.1603   14.6324  -16.5850 H   0  0  0  0  0  0  0  0  0  0  0  0
   44.6482   12.9169  -16.7085 H   0  0  0  0  0  0  0  0  0  0  0  0
   36.3561   15.0210  -12.5657 C   0  0  0  0  0  0  0  0  0  0  0  0
   36.4821   14.2381  -13.4763 C   0  0  0  0  0  0  0  0  0  0  0  0
   34.3488   15.3968   -8.2538 C   0  0  0  0  0  0  0  0  0  0  0  0
   35.2890   15.7465   -9.2952 N   0  0  0  0  0  0  0  0  0  0  0  0
   36.6767   16.1429   -9.1350 C   0  0  0  0  0  0  0  0  0  0  0  0
   37.2926   15.7719  -10.4484 C   0  0  0  0  0  0  0  0  0  0  0  0
   36.2059   15.9900  -11.4777 C   0  0  0  0  0  0  0  0  0  0  0  0
   36.1893   17.3042  -11.9396 O   0  0  0  0  0  0  0  0  0  0  0  0
   34.9835   15.7542  -10.6784 C   0  0  0  0  0  0  0  0  0  0  0  0
   33.8354   15.5841  -11.1495 O   0  0  0  0  0  0  0  0  0  0  0  0
   36.7121   17.9121  -11.3614 H   0  0  0  0  0  0  0  0  0  0  0  0
 25 26  1  0  0  0
 26 27  1  0  0  0
 27 28  1  0  0  0
 28 29  1  0  0  0
 29 30  1  0  0  0
 29 23  1  0  0  0
 23 24  3  0  0  0
 24  1  1  0  0  0
  1  2  2  0  0  0
  2  3  1  0  0  0
  3  4  2  0  0  0
  4  5  1  0  0  0
  5  6  1  0  0  0
  6  7  1  0  0  0
  7  8  1  0  0  0
  7  9  1  0  0  0
  7 10  1  0  0  0
 10 11  1  0  0  0
 11 12  1  0  0  0
 12 13  2  0  0  0
 13 14  1  0  0  0
 14 15  1  0  0  0
 15 16  2  0  0  0
 12 18  1  0  0  0
 18 19  1  0  0  0
 18 20  2  0  0  0
 29 31  1  0  0  0
 31 32  2  0  0  0
 31 26  1  0  0  0
 16  1  1  0  0  0
 15  4  1  0  0  0
 14 10  2  0  0  0
 30 33  1  0  0  0
  9 17  1  0  0  0
 19 21  1  0  0  0
 19 22  1  0  0  0
M  END
> <minimizedAffinity>
-8.29507

> <CNNscore>
0.4280069470

> <CNNaffinity>
6.6827583313

> <CNN_VS>
2.8602669239

> <CNNaffinity_variance>
0.1882951707

$$$$
[H]O[C@]1(C([H])([H])[H])c2sc(C(=O)N([H])[H])nc2-c2c([H])c(C#C[C@@]3(O[H])C(=O)N(C([H])([H])[H])C([H])([H])C3([H])[H])c([H])c([H])c2OC1([H])[H]


 33 36  0  0  0  0  0  0  0  0999 V2000
   39.8046   12.6569  -15.5311 C   0  0  0  0  0  0  0  0  0  0  0  0
   40.0821   12.0137  -16.7197 C   0  0  0  0  0  0  0  0  0  0  0  0
   39.0488   11.5172  -17.4891 C   0  0  0  0  0  0  0  0  0  0  0  0
   37.7317   11.6561  -17.0830 C   0  0  0  0  0  0  0  0  0  0  0  0
   36.8200   11.0968  -17.9794 O   0  0  0  0  0  0  0  0  0  0  0  0
   35.4240   11.3130  -18.0363 C   0  0  0  0  0  0  0  0  0  0  0  0
   34.7161   10.9043  -16.7668 C   0  0  0  0  0  0  0  0  0  0  0  0
   35.0996    9.5253  -16.3480 C   0  0  0  0  0  0  0  0  0  0  0  0
   33.3450   10.9453  -17.0271 O   0  0  0  0  0  0  0  0  0  0  0  0
   34.9666   11.9235  -15.6933 C   0  0  0  0  0  0  0  0  0  0  0  0
   33.7983   12.5987  -14.6477 S   0  0  0  0  0  0  0  0  0  0  0  0
   34.8247   13.6312  -13.7547 C   0  0  0  0  0  0  0  0  0  0  0  0
   36.0080   13.4030  -14.3060 N   0  0  0  0  0  0  0  0  0  0  0  0
   36.1105   12.5544  -15.2774 C   0  0  0  0  0  0  0  0  0  0  0  0
   37.4353   12.2955  -15.8988 C   0  0  0  0  0  0  0  0  0  0  0  0
   38.4827   12.7798  -15.1531 C   0  0  0  0  0  0  0  0  0  0  0  0
   32.8381   11.4101  -16.2982 H   0  0  0  0  0  0  0  0  0  0  0  0
   34.4944   14.5549  -12.6424 C   0  0  0  0  0  0  0  0  0  0  0  0
   33.2429   15.2019  -12.7046 N   0  0  0  0  0  0  0  0  0  0  0  0
   35.3349   14.6912  -11.7451 O   0  0  0  0  0  0  0  0  0  0  0  0
   32.4368   14.8485  -12.1555 H   0  0  0  0  0  0  0  0  0  0  0  0
   33.1274   16.0344  -13.3013 H   0  0  0  0  0  0  0  0  0  0  0  0
   41.7170   13.6588  -13.9808 C   0  0  0  0  0  0  0  0  0  0  0  0
   40.8553   13.1954  -14.6885 C   0  0  0  0  0  0  0  0  0  0  0  0
   45.5758   16.4525  -14.2419 C   0  0  0  0  0  0  0  0  0  0  0  0
   44.4564   15.8251  -13.5755 N   0  0  0  0  0  0  0  0  0  0  0  0
   43.6061   16.3990  -12.5478 C   0  0  0  0  0  0  0  0  0  0  0  0
   42.3298   15.6290  -12.6898 C   0  0  0  0  0  0  0  0  0  0  0  0
   42.7451   14.2374  -13.1129 C   0  0  0  0  0  0  0  0  0  0  0  0
   43.0265   13.4272  -12.0151 O   0  0  0  0  0  0  0  0  0  0  0  0
   44.0066   14.5075  -13.8369 C   0  0  0  0  0  0  0  0  0  0  0  0
   44.6010   13.6921  -14.5792 O   0  0  0  0  0  0  0  0  0  0  0  0
   43.1389   13.9483  -11.1826 H   0  0  0  0  0  0  0  0  0  0  0  0
 25 26  1  0  0  0
 26 27  1  0  0  0
 27 28  1  0  0  0
 28 29  1  0  0  0
 29 30  1  0  0  0
 29 23  1  0  0  0
 23 24  3  0  0  0
 24  1  1  0  0  0
  1  2  2  0  0  0
  2  3  1  0  0  0
  3  4  2  0  0  0
  4  5  1  0  0  0
  5  6  1  0  0  0
  6  7  1  0  0  0
  7  8  1  0  0  0
  7  9  1  0  0  0
  7 10  1  0  0  0
 10 11  1  0  0  0
 11 12  1  0  0  0
 12 13  2  0  0  0
 13 14  1  0  0  0
 14 15  1  0  0  0
 15 16  2  0  0  0
 12 18  1  0  0  0
 18 19  1  0  0  0
 18 20  2  0  0  0
 29 31  1  0  0  0
 31 32  2  0  0  0
 31 26  1  0  0  0
 16  1  1  0  0  0
 15  4  1  0  0  0
 14 10  2  0  0  0
 30 33  1  0  0  0
  9 17  1  0  0  0
 19 21  1  0  0  0
 19 22  1  0  0  0
M  END
> <minimizedAffinity>
-8.92816

> <CNNscore>
0.3636169732

> <CNNaffinity>
6.6383538246

> <CNN_VS>
2.4138181210

> <CNNaffinity_variance>
0.2276289165

$$$$
[H]O[C@]1(C([H])([H])[H])c2sc(C(=O)N([H])[H])nc2-c2c([H])c(C#C[C@@]3(O[H])C(=O)N(C([H])([H])[H])C([H])([H])C3([H])[H])c([H])c([H])c2OC1([H])[H]


 33 36  0  0  0  0  0  0  0  0999 V2000
   41.7191   13.3789   -7.5434 C   0  0  0  0  0  0  0  0  0  0  0  0
   41.6694   12.4977   -6.4830 C   0  0  0  0  0  0  0  0  0  0  0  0
   40.7200   12.6658   -5.4947 C   0  0  0  0  0  0  0  0  0  0  0  0
   39.8127   13.7110   -5.5529 C   0  0  0  0  0  0  0  0  0  0  0  0
   38.9276   13.7289   -4.4741 O   0  0  0  0  0  0  0  0  0  0  0  0
   37.7156   14.4487   -4.3655 C   0  0  0  0  0  0  0  0  0  0  0  0
   37.9096   15.9420   -4.4759 C   0  0  0  0  0  0  0  0  0  0  0  0
   38.9840   16.4218   -3.5595 C   0  0  0  0  0  0  0  0  0  0  0  0
   36.6990   16.5427   -4.1254 O   0  0  0  0  0  0  0  0  0  0  0  0
   38.1620   16.3183   -5.9072 C   0  0  0  0  0  0  0  0  0  0  0  0
   37.4348   17.6080   -6.7568 S   0  0  0  0  0  0  0  0  0  0  0  0
   38.2081   17.3862   -8.2635 C   0  0  0  0  0  0  0  0  0  0  0  0
   38.9823   16.3353   -8.0343 N   0  0  0  0  0  0  0  0  0  0  0  0
   38.9809   15.7797   -6.8658 C   0  0  0  0  0  0  0  0  0  0  0  0
   39.8472   14.6010   -6.6044 C   0  0  0  0  0  0  0  0  0  0  0  0
   40.8021   14.4101   -7.5736 C   0  0  0  0  0  0  0  0  0  0  0  0
   36.4356   17.2619   -4.7717 H   0  0  0  0  0  0  0  0  0  0  0  0
   38.0631   18.1615   -9.5193 C   0  0  0  0  0  0  0  0  0  0  0  0
   37.4341   19.4198   -9.4198 N   0  0  0  0  0  0  0  0  0  0  0  0
   38.5013   17.6525  -10.5581 O   0  0  0  0  0  0  0  0  0  0  0  0
   37.9964   20.2910   -9.3853 H   0  0  0  0  0  0  0  0  0  0  0  0
   36.4057   19.4752   -9.3811 H   0  0  0  0  0  0  0  0  0  0  0  0
   43.5275   13.1361   -9.4761 C   0  0  0  0  0  0  0  0  0  0  0  0
   42.6976   13.2441   -8.6056 C   0  0  0  0  0  0  0  0  0  0  0  0
   45.2239   15.5042  -13.2547 C   0  0  0  0  0  0  0  0  0  0  0  0
   45.2886   14.5488  -12.1712 N   0  0  0  0  0  0  0  0  0  0  0  0
   46.4356   14.2361  -11.3373 C   0  0  0  0  0  0  0  0  0  0  0  0
   45.8123   13.7210  -10.0771 C   0  0  0  0  0  0  0  0  0  0  0  0
   44.5524   13.0073  -10.5144 C   0  0  0  0  0  0  0  0  0  0  0  0
   44.8021   11.6780  -10.8480 O   0  0  0  0  0  0  0  0  0  0  0  0
   44.2013   13.7462  -11.7471 C   0  0  0  0  0  0  0  0  0  0  0  0
   43.0997   13.6781  -12.3396 O   0  0  0  0  0  0  0  0  0  0  0  0
   45.7659   11.4965  -10.9715 H   0  0  0  0  0  0  0  0  0  0  0  0
 25 26  1  0  0  0
 26 27  1  0  0  0
 27 28  1  0  0  0
 28 29  1  0  0  0
 29 30  1  0  0  0
 29 23  1  0  0  0
 23 24  3  0  0  0
 24  1  1  0  0  0
  1  2  2  0  0  0
  2  3  1  0  0  0
  3  4  2  0  0  0
  4  5  1  0  0  0
  5  6  1  0  0  0
  6  7  1  0  0  0
  7  8  1  0  0  0
  7  9  1  0  0  0
  7 10  1  0  0  0
 10 11  1  0  0  0
 11 12  1  0  0  0
 12 13  2  0  0  0
 13 14  1  0  0  0
 14 15  1  0  0  0
 15 16  2  0  0  0
 12 18  1  0  0  0
 18 19  1  0  0  0
 18 20  2  0  0  0
 29 31  1  0  0  0
 31 32  2  0  0  0
 31 26  1  0  0  0
 16  1  1  0  0  0
 15  4  1  0  0  0
 14 10  2  0  0  0
 30 33  1  0  0  0
  9 17  1  0  0  0
 19 21  1  0  0  0
 19 22  1  0  0  0
M  END
> <minimizedAffinity>
-6.11043

> <CNNscore>
0.3535170853

> <CNNaffinity>
4.9714293480

> <CNN_VS>
1.7574852705

> <CNNaffinity_variance>
0.6135849357

$$$$
[H]O[C@]1(C([H])([H])[H])c2sc(C(=O)N([H])[H])nc2-c2c([H])c(C#C[C@@]3(O[H])C(=O)N(C([H])([H])[H])C([H])([H])C3([H])[H])c([H])c([H])c2OC1([H])[H]


 33 36  0  0  0  0  0  0  0  0999 V2000
   42.3332   13.6010  -14.2404 C   0  0  0  0  0  0  0  0  0  0  0  0
   43.2058   13.2123  -15.2359 C   0  0  0  0  0  0  0  0  0  0  0  0
   42.7150   12.6544  -16.3995 C   0  0  0  0  0  0  0  0  0  0  0  0
   41.3531   12.4786  -16.5827 C   0  0  0  0  0  0  0  0  0  0  0  0
   41.0356   11.9023  -17.8134 O   0  0  0  0  0  0  0  0  0  0  0  0
   39.7708   11.8578  -18.4436 C   0  0  0  0  0  0  0  0  0  0  0  0
   38.7324   11.1327  -17.6216 C   0  0  0  0  0  0  0  0  0  0  0  0
   39.2293    9.8029  -17.1646 C   0  0  0  0  0  0  0  0  0  0  0  0
   37.6122   10.9543  -18.4357 O   0  0  0  0  0  0  0  0  0  0  0  0
   38.2851   12.0034  -16.4833 C   0  0  0  0  0  0  0  0  0  0  0  0
   36.6732   12.2774  -15.9927 S   0  0  0  0  0  0  0  0  0  0  0  0
   36.9822   13.3349  -14.6876 C   0  0  0  0  0  0  0  0  0  0  0  0
   38.3046   13.4212  -14.6979 N   0  0  0  0  0  0  0  0  0  0  0  0
   38.9836   12.7668  -15.5839 C   0  0  0  0  0  0  0  0  0  0  0  0
   40.4666   12.8609  -15.5993 C   0  0  0  0  0  0  0  0  0  0  0  0
   40.9822   13.4132  -14.4519 C   0  0  0  0  0  0  0  0  0  0  0  0
   36.7624   11.1975  -17.9637 H   0  0  0  0  0  0  0  0  0  0  0  0
   36.0275   13.9976  -13.7663 C   0  0  0  0  0  0  0  0  0  0  0  0
   34.7855   14.3855  -14.3102 N   0  0  0  0  0  0  0  0  0  0  0  0
   36.3863   14.1618  -12.5940 O   0  0  0  0  0  0  0  0  0  0  0  0
   33.9401   13.8011  -14.1683 H   0  0  0  0  0  0  0  0  0  0  0  0
   34.7163   15.2583  -14.8540 H   0  0  0  0  0  0  0  0  0  0  0  0
   43.1754   14.6989  -11.9711 C   0  0  0  0  0  0  0  0  0  0  0  0
   42.8003   14.1917  -13.0006 C   0  0  0  0  0  0  0  0  0  0  0  0
   47.0812   15.1456   -9.2675 C   0  0  0  0  0  0  0  0  0  0  0  0
   45.7770   15.5324   -9.7578 N   0  0  0  0  0  0  0  0  0  0  0  0
   45.2838   16.8787   -9.9874 C   0  0  0  0  0  0  0  0  0  0  0  0
   44.2221   16.6821  -11.0249 C   0  0  0  0  0  0  0  0  0  0  0  0
   43.6115   15.3313  -10.7240 C   0  0  0  0  0  0  0  0  0  0  0  0
   42.5806   15.4275   -9.7920 O   0  0  0  0  0  0  0  0  0  0  0  0
   44.7486   14.6202  -10.0996 C   0  0  0  0  0  0  0  0  0  0  0  0
   44.8035   13.3851   -9.8974 O   0  0  0  0  0  0  0  0  0  0  0  0
   42.5818   16.2954   -9.3188 H   0  0  0  0  0  0  0  0  0  0  0  0
 25 26  1  0  0  0
 26 27  1  0  0  0
 27 28  1  0  0  0
 28 29  1  0  0  0
 29 30  1  0  0  0
 29 23  1  0  0  0
 23 24  3  0  0  0
 24  1  1  0  0  0
  1  2  2  0  0  0
  2  3  1  0  0  0
  3  4  2  0  0  0
  4  5  1  0  0  0
  5  6  1  0  0  0
  6  7  1  0  0  0
  7  8  1  0  0  0
  7  9  1  0  0  0
  7 10  1  0  0  0
 10 11  1  0  0  0
 11 12  1  0  0  0
 12 13  2  0  0  0
 13 14  1  0  0  0
 14 15  1  0  0  0
 15 16  2  0  0  0
 12 18  1  0  0  0
 18 19  1  0  0  0
 18 20  2  0  0  0
 29 31  1  0  0  0
 31 32  2  0  0  0
 31 26  1  0  0  0
 16  1  1  0  0  0
 15  4  1  0  0  0
 14 10  2  0  0  0
 30 33  1  0  0  0
  9 17  1  0  0  0
 19 21  1  0  0  0
 19 22  1  0  0  0
M  END
> <minimizedAffinity>
-7.09422

> <CNNscore>
0.3213500679

> <CNNaffinity>
6.2848162651

> <CNN_VS>
2.0196261406

> <CNNaffinity_variance>
0.3166543841

$$$$
[H]O[C@]1(C([H])([H])[H])c2sc(C(=O)N([H])[H])nc2-c2c([H])c(C#C[C@@]3(O[H])C(=O)N(C([H])([H])[H])C([H])([H])C3([H])[H])c([H])c([H])c2OC1([H])[H]


 33 36  0  0  0  0  0  0  0  0999 V2000
   37.0597   13.7470  -13.8007 C   0  0  0  0  0  0  0  0  0  0  0  0
   36.1732   13.0798  -14.6208 C   0  0  0  0  0  0  0  0  0  0  0  0
   36.6450   12.3623  -15.7018 C   0  0  0  0  0  0  0  0  0  0  0  0
   38.0016   12.3023  -15.9761 C   0  0  0  0  0  0  0  0  0  0  0  0
   38.2993   11.5351  -17.1032 O   0  0  0  0  0  0  0  0  0  0  0  0
   39.5594   11.0225  -17.4886 C   0  0  0  0  0  0  0  0  0  0  0  0
   40.5859   12.1053  -17.7201 C   0  0  0  0  0  0  0  0  0  0  0  0
   40.0621   13.1696  -18.6240 C   0  0  0  0  0  0  0  0  0  0  0  0
   41.6973   11.5010  -18.3110 O   0  0  0  0  0  0  0  0  0  0  0  0
   41.0587   12.6487  -16.4029 C   0  0  0  0  0  0  0  0  0  0  0  0
   42.6791   12.9434  -15.9538 S   0  0  0  0  0  0  0  0  0  0  0  0
   42.4009   13.5311  -14.3744 C   0  0  0  0  0  0  0  0  0  0  0  0
   41.0807   13.4698  -14.2761 N   0  0  0  0  0  0  0  0  0  0  0  0
   40.3824   13.0330  -15.2740 C   0  0  0  0  0  0  0  0  0  0  0  0
   38.9019   12.9623  -15.1681 C   0  0  0  0  0  0  0  0  0  0  0  0
   38.4050   13.6685  -14.0995 C   0  0  0  0  0  0  0  0  0  0  0  0
   42.5550   11.7903  -17.8809 H   0  0  0  0  0  0  0  0  0  0  0  0
   43.3752   13.9960  -13.3576 C   0  0  0  0  0  0  0  0  0  0  0  0
   43.0010   13.8497  -12.0058 N   0  0  0  0  0  0  0  0  0  0  0  0
   44.4400   14.4759  -13.7650 O   0  0  0  0  0  0  0  0  0  0  0  0
   43.3563   13.0549  -11.4415 H   0  0  0  0  0  0  0  0  0  0  0  0
   42.3683   14.5390  -11.5735 H   0  0  0  0  0  0  0  0  0  0  0  0
   36.2548   15.1421  -11.6864 C   0  0  0  0  0  0  0  0  0  0  0  0
   36.6127   14.5137  -12.6534 C   0  0  0  0  0  0  0  0  0  0  0  0
   37.6041   15.8874   -7.1712 C   0  0  0  0  0  0  0  0  0  0  0  0
   36.9210   16.2109   -8.4039 N   0  0  0  0  0  0  0  0  0  0  0  0
   36.7512   17.5238   -9.0008 C   0  0  0  0  0  0  0  0  0  0  0  0
   36.5711   17.2178  -10.4554 C   0  0  0  0  0  0  0  0  0  0  0  0
   35.8399   15.8944  -10.5002 C   0  0  0  0  0  0  0  0  0  0  0  0
   34.4588   16.0660  -10.4400 O   0  0  0  0  0  0  0  0  0  0  0  0
   36.2926   15.2586   -9.2434 C   0  0  0  0  0  0  0  0  0  0  0  0
   36.1454   14.0489   -8.9534 O   0  0  0  0  0  0  0  0  0  0  0  0
   34.2057   16.9746  -10.1441 H   0  0  0  0  0  0  0  0  0  0  0  0
 25 26  1  0  0  0
 26 27  1  0  0  0
 27 28  1  0  0  0
 28 29  1  0  0  0
 29 30  1  0  0  0
 29 23  1  0  0  0
 23 24  3  0  0  0
 24  1  1  0  0  0
  1  2  2  0  0  0
  2  3  1  0  0  0
  3  4  2  0  0  0
  4  5  1  0  0  0
  5  6  1  0  0  0
  6  7  1  0  0  0
  7  8  1  0  0  0
  7  9  1  0  0  0
  7 10  1  0  0  0
 10 11  1  0  0  0
 11 12  1  0  0  0
 12 13  2  0  0  0
 13 14  1  0  0  0
 14 15  1  0  0  0
 15 16  2  0  0  0
 12 18  1  0  0  0
 18 19  1  0  0  0
 18 20  2  0  0  0
 29 31  1  0  0  0
 31 32  2  0  0  0
 31 26  1  0  0  0
 16  1  1  0  0  0
 15  4  1  0  0  0
 14 10  2  0  0  0
 30 33  1  0  0  0
  9 17  1  0  0  0
 19 21  1  0  0  0
 19 22  1  0  0  0
M  END
> <minimizedAffinity>
-8.70317

> <CNNscore>
0.2882279158

> <CNNaffinity>
6.2279405594

> <CNN_VS>
1.7950663567

> <CNNaffinity_variance>
0.0855384767

$$$$
[H]O[C@]1(C([H])([H])[H])c2sc(C(=O)N([H])[H])nc2-c2c([H])c(C#C[C@@]3(O[H])C(=O)N(C([H])([H])[H])C([H])([H])C3([H])[H])c([H])c([H])c2OC1([H])[H]


 33 36  0  0  0  0  0  0  0  0999 V2000
   40.8695   12.2774  -16.7552 C   0  0  0  0  0  0  0  0  0  0  0  0
   40.8851   11.7022  -18.0091 C   0  0  0  0  0  0  0  0  0  0  0  0
   39.7014   11.2981  -18.5937 C   0  0  0  0  0  0  0  0  0  0  0  0
   38.4931   11.4625  -17.9364 C   0  0  0  0  0  0  0  0  0  0  0  0
   37.4015   10.9992  -18.6723 O   0  0  0  0  0  0  0  0  0  0  0  0
   36.0327   11.2739  -18.4493 C   0  0  0  0  0  0  0  0  0  0  0  0
   35.5563   10.8121  -17.0930 C   0  0  0  0  0  0  0  0  0  0  0  0
   35.9405    9.3947  -16.8332 C   0  0  0  0  0  0  0  0  0  0  0  0
   34.1647   10.9243  -17.0840 O   0  0  0  0  0  0  0  0  0  0  0  0
   36.0563   11.7488  -16.0316 C   0  0  0  0  0  0  0  0  0  0  0  0
   35.1418   12.4006  -14.7459 S   0  0  0  0  0  0  0  0  0  0  0  0
   36.3695   13.3315  -14.0088 C   0  0  0  0  0  0  0  0  0  0  0  0
   37.4146   13.0927  -14.7878 N   0  0  0  0  0  0  0  0  0  0  0  0
   37.2889   12.3055  -15.8070 C   0  0  0  0  0  0  0  0  0  0  0  0
   38.4580   12.0351  -16.6834 C   0  0  0  0  0  0  0  0  0  0  0  0
   39.6505   12.4280  -16.1255 C   0  0  0  0  0  0  0  0  0  0  0  0
   33.8285   11.3606  -16.2468 H   0  0  0  0  0  0  0  0  0  0  0  0
   36.3022   14.1935  -12.8039 C   0  0  0  0  0  0  0  0  0  0  0  0
   36.2978   15.5872  -13.0195 N   0  0  0  0  0  0  0  0  0  0  0  0
   36.2551   13.6322  -11.7026 O   0  0  0  0  0  0  0  0  0  0  0  0
   35.4099   16.1233  -12.9958 H   0  0  0  0  0  0  0  0  0  0  0  0
   37.1851   16.0785  -13.2024 H   0  0  0  0  0  0  0  0  0  0  0  0
   43.1079   13.0877  -15.5731 C   0  0  0  0  0  0  0  0  0  0  0  0
   42.0862   12.7180  -16.0998 C   0  0  0  0  0  0  0  0  0  0  0  0
   45.5574   12.6314  -11.5042 C   0  0  0  0  0  0  0  0  0  0  0  0
   45.4015   12.9120  -12.9142 N   0  0  0  0  0  0  0  0  0  0  0  0
   46.3274   12.5913  -13.9858 C   0  0  0  0  0  0  0  0  0  0  0  0
   45.4430   12.5168  -15.1917 C   0  0  0  0  0  0  0  0  0  0  0  0
   44.3564   13.5426  -14.9570 C   0  0  0  0  0  0  0  0  0  0  0  0
   44.7355   14.8066  -15.4034 O   0  0  0  0  0  0  0  0  0  0  0  0
   44.2796   13.5662  -13.4798 C   0  0  0  0  0  0  0  0  0  0  0  0
   43.3562   14.0887  -12.8139 O   0  0  0  0  0  0  0  0  0  0  0  0
   45.7078   14.8699  -15.5706 H   0  0  0  0  0  0  0  0  0  0  0  0
 25 26  1  0  0  0
 26 27  1  0  0  0
 27 28  1  0  0  0
 28 29  1  0  0  0
 29 30  1  0  0  0
 29 23  1  0  0  0
 23 24  3  0  0  0
 24  1  1  0  0  0
  1  2  2  0  0  0
  2  3  1  0  0  0
  3  4  2  0  0  0
  4  5  1  0  0  0
  5  6  1  0  0  0
  6  7  1  0  0  0
  7  8  1  0  0  0
  7  9  1  0  0  0
  7 10  1  0  0  0
 10 11  1  0  0  0
 11 12  1  0  0  0
 12 13  2  0  0  0
 13 14  1  0  0  0
 14 15  1  0  0  0
 15 16  2  0  0  0
 12 18  1  0  0  0
 18 19  1  0  0  0
 18 20  2  0  0  0
 29 31  1  0  0  0
 31 32  2  0  0  0
 31 26  1  0  0  0
 16  1  1  0  0  0
 15  4  1  0  0  0
 14 10  2  0  0  0
 30 33  1  0  0  0
  9 17  1  0  0  0
 19 21  1  0  0  0
 19 22  1  0  0  0
M  END
> <minimizedAffinity>
-8.46092

> <CNNscore>
0.2770783901

> <CNNaffinity>
6.4099578857

> <CNN_VS>
1.7760608196

> <CNNaffinity_variance>
0.1090673432

$$$$
[H]O[C@](C#Cc1c([H])c([H])c2c(c1[H])-c1nc(C(=O)N([H])[H])c([H])n1C([H])([H])C([H])([H])O2)(c1noc(C([H])([H])[H])c1[H])C([H])([H])[H]


 31 34  0  0  0  0  0  0  0  0999 V2000
   41.0577   12.9879  -15.4446 C   0  0  0  0  0  0  0  0  0  0  0  0
   41.6507   12.5242  -16.6200 C   0  0  0  0  0  0  0  0  0  0  0  0
   40.9481   11.9258  -17.6413 C   0  0  0  0  0  0  0  0  0  0  0  0
   39.5764   11.7715  -17.5016 C   0  0  0  0  0  0  0  0  0  0  0  0
   38.9456   11.1568  -18.5729 O   0  0  0  0  0  0  0  0  0  0  0  0
   37.5947   10.7795  -18.7659 C   0  0  0  0  0  0  0  0  0  0  0  0
   36.9188   10.2458  -17.5368 C   0  0  0  0  0  0  0  0  0  0  0  0
   36.6396   11.2909  -16.5489 N   0  0  0  0  0  0  0  0  0  0  0  0
   35.4556   11.5709  -15.9914 C   0  0  0  0  0  0  0  0  0  0  0  0
   35.5979   12.6282  -15.0990 C   0  0  0  0  0  0  0  0  0  0  0  0
   36.9082   12.9657  -15.1453 N   0  0  0  0  0  0  0  0  0  0  0  0
   37.5442   12.1621  -16.0192 C   0  0  0  0  0  0  0  0  0  0  0  0
   38.9584   12.2201  -16.3510 C   0  0  0  0  0  0  0  0  0  0  0  0
   39.6790   12.8161  -15.3425 C   0  0  0  0  0  0  0  0  0  0  0  0
   34.5455   13.2295  -14.3002 C   0  0  0  0  0  0  0  0  0  0  0  0
   33.9199   14.4305  -14.6624 N   0  0  0  0  0  0  0  0  0  0  0  0
   34.1798   12.6420  -13.2379 O   0  0  0  0  0  0  0  0  0  0  0  0
   33.2201   14.4332  -15.4632 H   0  0  0  0  0  0  0  0  0  0  0  0
   34.0785   15.3592  -14.2063 H   0  0  0  0  0  0  0  0  0  0  0  0
   42.4186   14.0991  -13.4763 C   0  0  0  0  0  0  0  0  0  0  0  0
   41.8062   13.5946  -14.3851 C   0  0  0  0  0  0  0  0  0  0  0  0
   43.1494   14.7098  -12.3410 C   0  0  0  0  0  0  0  0  0  0  0  0
   43.7000   16.0776  -12.7621 C   0  0  0  0  0  0  0  0  0  0  0  0
   42.3834   14.8186  -11.2094 O   0  0  0  0  0  0  0  0  0  0  0  0
   41.7002   14.0978  -11.1598 H   0  0  0  0  0  0  0  0  0  0  0  0
   45.7297   10.7213  -10.7710 C   0  0  0  0  0  0  0  0  0  0  0  0
   45.4604   12.0597  -11.3852 C   0  0  0  0  0  0  0  0  0  0  0  0
   44.1917   12.6045  -11.4664 C   0  0  0  0  0  0  0  0  0  0  0  0
   44.3184   13.8508  -12.0937 C   0  0  0  0  0  0  0  0  0  0  0  0
   45.6154   13.9754  -12.3422 N   0  0  0  0  0  0  0  0  0  0  0  0
   46.2719   12.9134  -11.9196 O   0  0  0  0  0  0  0  0  0  0  0  0
 26 27  1  0  0  0
 27 28  2  0  0  0
 28 29  1  0  0  0
 29 30  2  0  0  0
 30 31  1  0  0  0
 29 22  1  0  0  0
 22 23  1  0  0  0
 22 24  1  0  0  0
 22 20  1  0  0  0
 20 21  3  0  0  0
 21  1  1  0  0  0
  1  2  2  0  0  0
  2  3  1  0  0  0
  3  4  2  0  0  0
  4  5  1  0  0  0
  5  6  1  0  0  0
  6  7  1  0  0  0
  7  8  1  0  0  0
  8  9  1  0  0  0
  9 10  2  0  0  0
 10 11  1  0  0  0
 11 12  2  0  0  0
 12 13  1  0  0  0
 13 14  2  0  0  0
 10 15  1  0  0  0
 15 16  1  0  0  0
 15 17  2  0  0  0
 31 27  1  0  0  0
 14  1  1  0  0  0
 13  4  1  0  0  0
 12  8  1  0  0  0
 24 25  1  0  0  0
 16 18  1  0  0  0
 16 19  1  0  0  0
M  END
> <minimizedAffinity>
-9.10851

> <CNNscore>
0.4374358654

> <CNNaffinity>
6.6857213974

> <CNN_VS>
2.9245743752

> <CNNaffinity_variance>
0.1146535873

$$$$
[H]O[C@](C#Cc1c([H])c([H])c2c(c1[H])-c1nc(C(=O)N([H])[H])c([H])n1C([H])([H])C([H])([H])O2)(c1noc(C([H])([H])[H])c1[H])C([H])([H])[H]


 31 34  0  0  0  0  0  0  0  0999 V2000
   36.3860   13.2196  -14.5202 C   0  0  0  0  0  0  0  0  0  0  0  0
   35.3537   12.4500  -15.0593 C   0  0  0  0  0  0  0  0  0  0  0  0
   35.5265   11.5720  -16.1053 C   0  0  0  0  0  0  0  0  0  0  0  0
   36.7919   11.4399  -16.6587 C   0  0  0  0  0  0  0  0  0  0  0  0
   36.8788   10.5386  -17.7092 O   0  0  0  0  0  0  0  0  0  0  0  0
   37.9650   10.1873  -18.5467 C   0  0  0  0  0  0  0  0  0  0  0  0
   38.8534   11.3365  -18.9239 C   0  0  0  0  0  0  0  0  0  0  0  0
   39.6758   11.8035  -17.8050 N   0  0  0  0  0  0  0  0  0  0  0  0
   41.0069   11.9413  -17.7917 C   0  0  0  0  0  0  0  0  0  0  0  0
   41.4152   12.4134  -16.5488 C   0  0  0  0  0  0  0  0  0  0  0  0
   40.2797   12.5521  -15.8245 N   0  0  0  0  0  0  0  0  0  0  0  0
   39.2244   12.1854  -16.5769 C   0  0  0  0  0  0  0  0  0  0  0  0
   37.8354   12.1865  -16.1481 C   0  0  0  0  0  0  0  0  0  0  0  0
   37.6414   13.0579  -15.1018 C   0  0  0  0  0  0  0  0  0  0  0  0
   42.7797   12.6877  -16.1366 C   0  0  0  0  0  0  0  0  0  0  0  0
   43.8828   12.4094  -16.9557 N   0  0  0  0  0  0  0  0  0  0  0  0
   42.9765   13.2007  -14.9941 O   0  0  0  0  0  0  0  0  0  0  0  0
   44.0819   13.0346  -17.7926 H   0  0  0  0  0  0  0  0  0  0  0  0
   44.5549   11.6183  -16.8205 H   0  0  0  0  0  0  0  0  0  0  0  0
   36.0396   14.9244  -12.5366 C   0  0  0  0  0  0  0  0  0  0  0  0
   36.1854   14.1398  -13.4414 C   0  0  0  0  0  0  0  0  0  0  0  0
   35.8878   15.8992  -11.4308 C   0  0  0  0  0  0  0  0  0  0  0  0
   36.7536   15.4649  -10.2421 C   0  0  0  0  0  0  0  0  0  0  0  0
   36.1832   17.1839  -11.8072 O   0  0  0  0  0  0  0  0  0  0  0  0
   35.9839   17.3378  -12.7691 H   0  0  0  0  0  0  0  0  0  0  0  0
   31.9990   16.0428   -8.2863 C   0  0  0  0  0  0  0  0  0  0  0  0
   32.7585   15.8670   -9.5644 C   0  0  0  0  0  0  0  0  0  0  0  0
   34.1275   16.0440   -9.6521 C   0  0  0  0  0  0  0  0  0  0  0  0
   34.4894   15.7998  -10.9833 C   0  0  0  0  0  0  0  0  0  0  0  0
   33.3514   15.4990  -11.5948 N   0  0  0  0  0  0  0  0  0  0  0  0
   32.3439   15.5437  -10.7461 O   0  0  0  0  0  0  0  0  0  0  0  0
 26 27  1  0  0  0
 27 28  2  0  0  0
 28 29  1  0  0  0
 29 30  2  0  0  0
 30 31  1  0  0  0
 29 22  1  0  0  0
 22 23  1  0  0  0
 22 24  1  0  0  0
 22 20  1  0  0  0
 20 21  3  0  0  0
 21  1  1  0  0  0
  1  2  2  0  0  0
  2  3  1  0  0  0
  3  4  2  0  0  0
  4  5  1  0  0  0
  5  6  1  0  0  0
  6  7  1  0  0  0
  7  8  1  0  0  0
  8  9  1  0  0  0
  9 10  2  0  0  0
 10 11  1  0  0  0
 11 12  2  0  0  0
 12 13  1  0  0  0
 13 14  2  0  0  0
 10 15  1  0  0  0
 15 16  1  0  0  0
 15 17  2  0  0  0
 31 27  1  0  0  0
 14  1  1  0  0  0
 13  4  1  0  0  0
 12  8  1  0  0  0
 24 25  1  0  0  0
 16 18  1  0  0  0
 16 19  1  0  0  0
M  END
> <minimizedAffinity>
-9.11346

> <CNNscore>
0.4109522998

> <CNNaffinity>
6.7403779030

> <CNN_VS>
2.7699737549

> <CNNaffinity_variance>
0.1969328523

$$$$
[H]O[C@](C#Cc1c([H])c([H])c2c(c1[H])-c1nc(C(=O)N([H])[H])c([H])n1C([H])([H])C([H])([H])O2)(c1noc(C([H])([H])[H])c1[H])C([H])([H])[H]


 31 34  0  0  0  0  0  0  0  0999 V2000
   39.0843   14.2913  -13.9440 C   0  0  0  0  0  0  0  0  0  0  0  0
   40.3306   14.4120  -14.5609 C   0  0  0  0  0  0  0  0  0  0  0  0
   40.6706   13.7568  -15.7227 C   0  0  0  0  0  0  0  0  0  0  0  0
   39.7289   12.9300  -16.3182 C   0  0  0  0  0  0  0  0  0  0  0  0
   40.1524   12.3056  -17.4819 O   0  0  0  0  0  0  0  0  0  0  0  0
   39.5086   11.3631  -18.3197 C   0  0  0  0  0  0  0  0  0  0  0  0
   38.6877   10.3423  -17.5875 C   0  0  0  0  0  0  0  0  0  0  0  0
   37.4567   10.9058  -17.0276 N   0  0  0  0  0  0  0  0  0  0  0  0
   36.2102   10.4598  -17.2226 C   0  0  0  0  0  0  0  0  0  0  0  0
   35.3134   11.2575  -16.5198 C   0  0  0  0  0  0  0  0  0  0  0  0
   36.0712   12.1925  -15.8997 N   0  0  0  0  0  0  0  0  0  0  0  0
   37.3676   11.9865  -16.2018 C   0  0  0  0  0  0  0  0  0  0  0  0
   38.4857   12.7891  -15.7338 C   0  0  0  0  0  0  0  0  0  0  0  0
   38.1659   13.4534  -14.5727 C   0  0  0  0  0  0  0  0  0  0  0  0
   33.8706   11.1028  -16.4793 C   0  0  0  0  0  0  0  0  0  0  0  0
   33.1515   11.0704  -15.2764 N   0  0  0  0  0  0  0  0  0  0  0  0
   33.2412   10.9961  -17.5746 O   0  0  0  0  0  0  0  0  0  0  0  0
   33.0018   11.9728  -14.7339 H   0  0  0  0  0  0  0  0  0  0  0  0
   32.7315   10.2151  -14.8431 H   0  0  0  0  0  0  0  0  0  0  0  0
   38.4969   15.5369  -11.6936 C   0  0  0  0  0  0  0  0  0  0  0  0
   38.7524   14.9685  -12.7267 C   0  0  0  0  0  0  0  0  0  0  0  0
   38.2118   16.2328  -10.4167 C   0  0  0  0  0  0  0  0  0  0  0  0
   38.8262   15.4435   -9.2545 C   0  0  0  0  0  0  0  0  0  0  0  0
   38.6466   17.5329  -10.4084 O   0  0  0  0  0  0  0  0  0  0  0  0
   38.6300   17.9296  -11.3201 H   0  0  0  0  0  0  0  0  0  0  0  0
   33.8179   16.5197   -8.0413 C   0  0  0  0  0  0  0  0  0  0  0  0
   34.7938   16.3053   -9.1561 C   0  0  0  0  0  0  0  0  0  0  0  0
   36.1599   16.4482   -8.9931 C   0  0  0  0  0  0  0  0  0  0  0  0
   36.7530   16.1740  -10.2324 C   0  0  0  0  0  0  0  0  0  0  0  0
   35.7388   15.8905  -11.0389 N   0  0  0  0  0  0  0  0  0  0  0  0
   34.5943   15.9729  -10.3901 O   0  0  0  0  0  0  0  0  0  0  0  0
 26 27  1  0  0  0
 27 28  2  0  0  0
 28 29  1  0  0  0
 29 30  2  0  0  0
 30 31  1  0  0  0
 29 22  1  0  0  0
 22 23  1  0  0  0
 22 24  1  0  0  0
 22 20  1  0  0  0
 20 21  3  0  0  0
 21  1  1  0  0  0
  1  2  2  0  0  0
  2  3  1  0  0  0
  3  4  2  0  0  0
  4  5  1  0  0  0
  5  6  1  0  0  0
  6  7  1  0  0  0
  7  8  1  0  0  0
  8  9  1  0  0  0
  9 10  2  0  0  0
 10 11  1  0  0  0
 11 12  2  0  0  0
 12 13  1  0  0  0
 13 14  2  0  0  0
 10 15  1  0  0  0
 15 16  1  0  0  0
 15 17  2  0  0  0
 31 27  1  0  0  0
 14  1  1  0  0  0
 13  4  1  0  0  0
 12  8  1  0  0  0
 24 25  1  0  0  0
 16 18  1  0  0  0
 16 19  1  0  0  0
M  END
> <minimizedAffinity>
-8.75565

> <CNNscore>
0.4094541371

> <CNNaffinity>
6.7387619019

> <CNN_VS>
2.7592139244

> <CNNaffinity_variance>
0.1554937065

$$$$
[H]O[C@](C#Cc1c([H])c([H])c2c(c1[H])-c1nc(C(=O)N([H])[H])c([H])n1C([H])([H])C([H])([H])O2)(c1noc(C([H])([H])[H])c1[H])C([H])([H])[H]


 31 34  0  0  0  0  0  0  0  0999 V2000
   41.1185   13.0030  -15.4737 C   0  0  0  0  0  0  0  0  0  0  0  0
   41.7476   12.5036  -16.6154 C   0  0  0  0  0  0  0  0  0  0  0  0
   41.0754   11.8824  -17.6436 C   0  0  0  0  0  0  0  0  0  0  0  0
   39.6986   11.7412  -17.5466 C   0  0  0  0  0  0  0  0  0  0  0  0
   39.0998   11.1019  -18.6219 O   0  0  0  0  0  0  0  0  0  0  0  0
   37.7534   10.7285  -18.8506 C   0  0  0  0  0  0  0  0  0  0  0  0
   37.0322   10.2329  -17.6314 C   0  0  0  0  0  0  0  0  0  0  0  0
   36.7276   11.3063  -16.6820 N   0  0  0  0  0  0  0  0  0  0  0  0
   35.5276   11.6092  -16.1730 C   0  0  0  0  0  0  0  0  0  0  0  0
   35.6476   12.6893  -15.3050 C   0  0  0  0  0  0  0  0  0  0  0  0
   36.9613   13.0168  -15.3156 N   0  0  0  0  0  0  0  0  0  0  0  0
   37.6204   12.1854  -16.1455 C   0  0  0  0  0  0  0  0  0  0  0  0
   39.0454   12.2250  -16.4303 C   0  0  0  0  0  0  0  0  0  0  0  0
   39.7359   12.8433  -15.4141 C   0  0  0  0  0  0  0  0  0  0  0  0
   34.5733   13.3192  -14.5590 C   0  0  0  0  0  0  0  0  0  0  0  0
   34.7825   14.4358  -13.7377 N   0  0  0  0  0  0  0  0  0  0  0  0
   33.4038   12.8402  -14.6591 O   0  0  0  0  0  0  0  0  0  0  0  0
   34.9402   15.3885  -14.1831 H   0  0  0  0  0  0  0  0  0  0  0  0
   34.7992   14.4248  -12.6912 H   0  0  0  0  0  0  0  0  0  0  0  0
   42.4539   14.1437  -13.5048 C   0  0  0  0  0  0  0  0  0  0  0  0
   41.8353   13.6332  -14.4061 C   0  0  0  0  0  0  0  0  0  0  0  0
   43.2311   14.7463  -12.3963 C   0  0  0  0  0  0  0  0  0  0  0  0
   42.2781   15.4632  -11.4324 C   0  0  0  0  0  0  0  0  0  0  0  0
   44.0056   13.8330  -11.7289 O   0  0  0  0  0  0  0  0  0  0  0  0
   44.2955   13.0934  -12.3269 H   0  0  0  0  0  0  0  0  0  0  0  0
   45.2143   19.2874  -13.0870 C   0  0  0  0  0  0  0  0  0  0  0  0
   44.9494   17.8296  -13.3010 C   0  0  0  0  0  0  0  0  0  0  0  0
   44.0638   17.1073  -12.5216 C   0  0  0  0  0  0  0  0  0  0  0  0
   44.0708   15.7916  -13.0029 C   0  0  0  0  0  0  0  0  0  0  0  0
   44.9321   15.8036  -14.0115 N   0  0  0  0  0  0  0  0  0  0  0  0
   45.4397   17.0094  -14.1727 O   0  0  0  0  0  0  0  0  0  0  0  0
 26 27  1  0  0  0
 27 28  2  0  0  0
 28 29  1  0  0  0
 29 30  2  0  0  0
 30 31  1  0  0  0
 29 22  1  0  0  0
 22 23  1  0  0  0
 22 24  1  0  0  0
 22 20  1  0  0  0
 20 21  3  0  0  0
 21  1  1  0  0  0
  1  2  2  0  0  0
  2  3  1  0  0  0
  3  4  2  0  0  0
  4  5  1  0  0  0
  5  6  1  0  0  0
  6  7  1  0  0  0
  7  8  1  0  0  0
  8  9  1  0  0  0
  9 10  2  0  0  0
 10 11  1  0  0  0
 11 12  2  0  0  0
 12 13  1  0  0  0
 13 14  2  0  0  0
 10 15  1  0  0  0
 15 16  1  0  0  0
 15 17  2  0  0  0
 31 27  1  0  0  0
 14  1  1  0  0  0
 13  4  1  0  0  0
 12  8  1  0  0  0
 24 25  1  0  0  0
 16 18  1  0  0  0
 16 19  1  0  0  0
M  END
> <minimizedAffinity>
-9.20807

> <CNNscore>
0.3617462516

> <CNNaffinity>
6.6100411415

> <CNN_VS>
2.3911576271

> <CNNaffinity_variance>
0.3408142030

$$$$
[H]O[C@](C#Cc1c([H])c([H])c2c(c1[H])-c1nc(C(=O)N([H])[H])c([H])n1C([H])([H])C([H])([H])O2)(c1noc(C([H])([H])[H])c1[H])C([H])([H])[H]


 31 34  0  0  0  0  0  0  0  0999 V2000
   40.9245   13.0246  -15.4534 C   0  0  0  0  0  0  0  0  0  0  0  0
   41.4857   12.5294  -16.6317 C   0  0  0  0  0  0  0  0  0  0  0  0
   40.7551   11.9082  -17.6193 C   0  0  0  0  0  0  0  0  0  0  0  0
   39.3870   11.7627  -17.4406 C   0  0  0  0  0  0  0  0  0  0  0  0
   38.7269   11.1238  -18.4796 O   0  0  0  0  0  0  0  0  0  0  0  0
   37.3703   10.7469  -18.6284 C   0  0  0  0  0  0  0  0  0  0  0  0
   36.7246   10.2467  -17.3694 C   0  0  0  0  0  0  0  0  0  0  0  0
   36.4742   11.3172  -16.4012 N   0  0  0  0  0  0  0  0  0  0  0  0
   35.3059   11.6156  -15.8207 C   0  0  0  0  0  0  0  0  0  0  0  0
   35.4743   12.6943  -14.9591 C   0  0  0  0  0  0  0  0  0  0  0  0
   36.7841   13.0256  -15.0474 N   0  0  0  0  0  0  0  0  0  0  0  0
   37.3949   12.1980  -15.9169 C   0  0  0  0  0  0  0  0  0  0  0  0
   38.8002   12.2423  -16.2862 C   0  0  0  0  0  0  0  0  0  0  0  0
   39.5484   12.8606  -15.3118 C   0  0  0  0  0  0  0  0  0  0  0  0
   34.4448   13.3194  -14.1489 C   0  0  0  0  0  0  0  0  0  0  0  0
   33.1595   13.5862  -14.6410 N   0  0  0  0  0  0  0  0  0  0  0  0
   34.7214   13.6314  -12.9517 O   0  0  0  0  0  0  0  0  0  0  0  0
   32.4741   12.7836  -14.7715 H   0  0  0  0  0  0  0  0  0  0  0  0
   32.7938   14.5315  -14.9023 H   0  0  0  0  0  0  0  0  0  0  0  0
   42.3450   14.1717  -13.5488 C   0  0  0  0  0  0  0  0  0  0  0  0
   41.7020   13.6548  -14.4291 C   0  0  0  0  0  0  0  0  0  0  0  0
   43.1207   14.7892  -12.4476 C   0  0  0  0  0  0  0  0  0  0  0  0
   42.8103   16.2894  -12.3803 C   0  0  0  0  0  0  0  0  0  0  0  0
   42.8976   14.1891  -11.2353 O   0  0  0  0  0  0  0  0  0  0  0  0
   42.6745   13.2258  -11.3400 H   0  0  0  0  0  0  0  0  0  0  0  0
   47.5367   12.5980  -13.3009 C   0  0  0  0  0  0  0  0  0  0  0  0
   46.5085   13.6818  -13.2048 C   0  0  0  0  0  0  0  0  0  0  0  0
   45.2081   13.4460  -12.7967 C   0  0  0  0  0  0  0  0  0  0  0  0
   44.5377   14.6758  -12.8280 C   0  0  0  0  0  0  0  0  0  0  0  0
   45.4483   15.5484  -13.2388 N   0  0  0  0  0  0  0  0  0  0  0  0
   46.6010   14.9472  -13.4562 O   0  0  0  0  0  0  0  0  0  0  0  0
 26 27  1  0  0  0
 27 28  2  0  0  0
 28 29  1  0  0  0
 29 30  2  0  0  0
 30 31  1  0  0  0
 29 22  1  0  0  0
 22 23  1  0  0  0
 22 24  1  0  0  0
 22 20  1  0  0  0
 20 21  3  0  0  0
 21  1  1  0  0  0
  1  2  2  0  0  0
  2  3  1  0  0  0
  3  4  2  0  0  0
  4  5  1  0  0  0
  5  6  1  0  0  0
  6  7  1  0  0  0
  7  8  1  0  0  0
  8  9  1  0  0  0
  9 10  2  0  0  0
 10 11  1  0  0  0
 11 12  2  0  0  0
 12 13  1  0  0  0
 13 14  2  0  0  0
 10 15  1  0  0  0
 15 16  1  0  0  0
 15 17  2  0  0  0
 31 27  1  0  0  0
 14  1  1  0  0  0
 13  4  1  0  0  0
 12  8  1  0  0  0
 24 25  1  0  0  0
 16 18  1  0  0  0
 16 19  1  0  0  0
M  END
> <minimizedAffinity>
-8.89774

> <CNNscore>
0.3405392170

> <CNNaffinity>
6.5429315567

> <CNN_VS>
2.2281248569

> <CNNaffinity_variance>
0.2215864658

$$$$
[H]O[C@](C#Cc1c([H])c([H])c2c(c1[H])-c1nc(C(=O)N([H])[H])c([H])n1C([H])([H])C([H])([H])O2)(c1noc(C([H])([H])[H])c1[H])C([H])([H])[H]


 31 34  0  0  0  0  0  0  0  0999 V2000
   37.3047   13.1219  -13.8993 C   0  0  0  0  0  0  0  0  0  0  0  0
   36.4379   12.3469  -14.6718 C   0  0  0  0  0  0  0  0  0  0  0  0
   36.8284   11.6709  -15.8055 C   0  0  0  0  0  0  0  0  0  0  0  0
   38.1531   11.7604  -16.2083 C   0  0  0  0  0  0  0  0  0  0  0  0
   38.4622   11.0533  -17.3607 O   0  0  0  0  0  0  0  0  0  0  0  0
   39.6674   10.9548  -18.0971 C   0  0  0  0  0  0  0  0  0  0  0  0
   40.4457   12.2348  -18.1857 C   0  0  0  0  0  0  0  0  0  0  0  0
   41.0791   12.5980  -16.9156 N   0  0  0  0  0  0  0  0  0  0  0  0
   42.3742   12.8681  -16.7144 C   0  0  0  0  0  0  0  0  0  0  0  0
   42.5849   13.1738  -15.3740 C   0  0  0  0  0  0  0  0  0  0  0  0
   41.3690   13.0767  -14.7863 N   0  0  0  0  0  0  0  0  0  0  0  0
   40.4540   12.7291  -15.7115 C   0  0  0  0  0  0  0  0  0  0  0  0
   39.0367   12.5184  -15.4658 C   0  0  0  0  0  0  0  0  0  0  0  0
   38.6262   13.1857  -14.3354 C   0  0  0  0  0  0  0  0  0  0  0  0
   43.8532   13.5172  -14.7572 C   0  0  0  0  0  0  0  0  0  0  0  0
   44.9247   14.0496  -15.4877 N   0  0  0  0  0  0  0  0  0  0  0  0
   43.9919   13.3296  -13.5110 O   0  0  0  0  0  0  0  0  0  0  0  0
   44.8844   15.0625  -15.8092 H   0  0  0  0  0  0  0  0  0  0  0  0
   45.7926   13.5305  -15.7579 H   0  0  0  0  0  0  0  0  0  0  0  0
   36.4962   14.4173  -11.7477 C   0  0  0  0  0  0  0  0  0  0  0  0
   36.8781   13.8312  -12.7306 C   0  0  0  0  0  0  0  0  0  0  0  0
   36.0010   15.1227  -10.5422 C   0  0  0  0  0  0  0  0  0  0  0  0
   34.6057   15.6947  -10.8200 C   0  0  0  0  0  0  0  0  0  0  0  0
   35.9901   14.3281   -9.4252 O   0  0  0  0  0  0  0  0  0  0  0  0
   36.7054   13.6383   -9.4604 H   0  0  0  0  0  0  0  0  0  0  0  0
   37.6656   19.4238   -8.6029 C   0  0  0  0  0  0  0  0  0  0  0  0
   37.6235   18.2041   -9.4699 C   0  0  0  0  0  0  0  0  0  0  0  0
   36.6033   17.2725   -9.4025 C   0  0  0  0  0  0  0  0  0  0  0  0
   36.8911   16.2781  -10.3464 C   0  0  0  0  0  0  0  0  0  0  0  0
   38.0305   16.6617  -10.9069 N   0  0  0  0  0  0  0  0  0  0  0  0
   38.4473   17.7956  -10.3796 O   0  0  0  0  0  0  0  0  0  0  0  0
 26 27  1  0  0  0
 27 28  2  0  0  0
 28 29  1  0  0  0
 29 30  2  0  0  0
 30 31  1  0  0  0
 29 22  1  0  0  0
 22 23  1  0  0  0
 22 24  1  0  0  0
 22 20  1  0  0  0
 20 21  3  0  0  0
 21  1  1  0  0  0
  1  2  2  0  0  0
  2  3  1  0  0  0
  3  4  2  0  0  0
  4  5  1  0  0  0
  5  6  1  0  0  0
  6  7  1  0  0  0
  7  8  1  0  0  0
  8  9  1  0  0  0
  9 10  2  0  0  0
 10 11  1  0  0  0
 11 12  2  0  0  0
 12 13  1  0  0  0
 13 14  2  0  0  0
 10 15  1  0  0  0
 15 16  1  0  0  0
 15 17  2  0  0  0
 31 27  1  0  0  0
 14  1  1  0  0  0
 13  4  1  0  0  0
 12  8  1  0  0  0
 24 25  1  0  0  0
 16 18  1  0  0  0
 16 19  1  0  0  0
M  END
> <minimizedAffinity>
-9.06783

> <CNNscore>
0.3155764937

> <CNNaffinity>
6.3079009056

> <CNN_VS>
1.9906252623

> <CNNaffinity_variance>
0.2608948648

$$$$
[H]O[C@](C#Cc1c([H])c([H])c2c(c1[H])-c1nc(C(=O)N([H])[H])c([H])n1C([H])([H])C([H])([H])O2)(c1noc(C([H])([H])[H])c1[H])C([H])([H])[H]


 31 34  0  0  0  0  0  0  0  0999 V2000
   39.7635   12.4752  -15.9457 C   0  0  0  0  0  0  0  0  0  0  0  0
   39.0404   11.7106  -16.8627 C   0  0  0  0  0  0  0  0  0  0  0  0
   37.6799   11.5161  -16.7850 C   0  0  0  0  0  0  0  0  0  0  0  0
   36.9834   12.1085  -15.7416 C   0  0  0  0  0  0  0  0  0  0  0  0
   35.6189   11.8601  -15.7347 O   0  0  0  0  0  0  0  0  0  0  0  0
   34.6093   12.2349  -14.8156 C   0  0  0  0  0  0  0  0  0  0  0  0
   35.0357   12.1966  -13.3772 C   0  0  0  0  0  0  0  0  0  0  0  0
   35.9572   13.2825  -13.0338 N   0  0  0  0  0  0  0  0  0  0  0  0
   35.8176   14.1678  -12.0401 C   0  0  0  0  0  0  0  0  0  0  0  0
   36.9017   15.0391  -12.0349 C   0  0  0  0  0  0  0  0  0  0  0  0
   37.6908   14.6395  -13.0599 N   0  0  0  0  0  0  0  0  0  0  0  0
   37.1267   13.5785  -13.6684 C   0  0  0  0  0  0  0  0  0  0  0  0
   37.6688   12.8721  -14.8174 C   0  0  0  0  0  0  0  0  0  0  0  0
   39.0287   13.0544  -14.9136 C   0  0  0  0  0  0  0  0  0  0  0  0
   37.1172   16.1415  -11.1155 C   0  0  0  0  0  0  0  0  0  0  0  0
   36.5312   17.4013  -11.3017 N   0  0  0  0  0  0  0  0  0  0  0  0
   37.8614   15.9530  -10.1065 O   0  0  0  0  0  0  0  0  0  0  0  0
   35.4940   17.5283  -11.1040 H   0  0  0  0  0  0  0  0  0  0  0  0
   37.0312   18.2611  -11.6278 H   0  0  0  0  0  0  0  0  0  0  0  0
   42.3748   12.8244  -16.0890 C   0  0  0  0  0  0  0  0  0  0  0  0
   41.1816   12.6547  -16.0329 C   0  0  0  0  0  0  0  0  0  0  0  0
   43.8380   13.0540  -16.1369 C   0  0  0  0  0  0  0  0  0  0  0  0
   44.5231   11.8568  -16.8067 C   0  0  0  0  0  0  0  0  0  0  0  0
   44.1744   14.2246  -16.7660 O   0  0  0  0  0  0  0  0  0  0  0  0
   43.4661   14.9141  -16.6583 H   0  0  0  0  0  0  0  0  0  0  0  0
   43.6551   13.8168  -11.1957 C   0  0  0  0  0  0  0  0  0  0  0  0
   44.2031   13.4145  -12.5294 C   0  0  0  0  0  0  0  0  0  0  0  0
   43.4805   13.5342  -13.7028 C   0  0  0  0  0  0  0  0  0  0  0  0
   44.2988   13.0668  -14.7394 C   0  0  0  0  0  0  0  0  0  0  0  0
   45.4285   12.7073  -14.1444 N   0  0  0  0  0  0  0  0  0  0  0  0
   45.3549   12.9179  -12.8453 O   0  0  0  0  0  0  0  0  0  0  0  0
 26 27  1  0  0  0
 27 28  2  0  0  0
 28 29  1  0  0  0
 29 30  2  0  0  0
 30 31  1  0  0  0
 29 22  1  0  0  0
 22 23  1  0  0  0
 22 24  1  0  0  0
 22 20  1  0  0  0
 20 21  3  0  0  0
 21  1  1  0  0  0
  1  2  2  0  0  0
  2  3  1  0  0  0
  3  4  2  0  0  0
  4  5  1  0  0  0
  5  6  1  0  0  0
  6  7  1  0  0  0
  7  8  1  0  0  0
  8  9  1  0  0  0
  9 10  2  0  0  0
 10 11  1  0  0  0
 11 12  2  0  0  0
 12 13  1  0  0  0
 13 14  2  0  0  0
 10 15  1  0  0  0
 15 16  1  0  0  0
 15 17  2  0  0  0
 31 27  1  0  0  0
 14  1  1  0  0  0
 13  4  1  0  0  0
 12  8  1  0  0  0
 24 25  1  0  0  0
 16 18  1  0  0  0
 16 19  1  0  0  0
M  END
> <minimizedAffinity>
-9.81949

> <CNNscore>
0.2623998821

> <CNNaffinity>
6.1520318985

> <CNN_VS>
1.6142925024

> <CNNaffinity_variance>
0.1173842326

$$$$
[H]O[C@](C#Cc1c([H])c([H])c2c(c1[H])-c1nc(C(=O)N([H])[H])c([H])n1C([H])([H])C([H])([H])O2)(c1noc(C([H])([H])[H])c1[H])C([H])([H])[H]


 31 34  0  0  0  0  0  0  0  0999 V2000
   37.8007   13.7998  -13.8579 C   0  0  0  0  0  0  0  0  0  0  0  0
   36.7838   13.0644  -14.4691 C   0  0  0  0  0  0  0  0  0  0  0  0
   36.9934   12.2146  -15.5316 C   0  0  0  0  0  0  0  0  0  0  0  0
   38.2820   12.0770  -16.0271 C   0  0  0  0  0  0  0  0  0  0  0  0
   38.4057   11.2055  -17.0988 O   0  0  0  0  0  0  0  0  0  0  0  0
   39.5257   10.8602  -17.8932 C   0  0  0  0  0  0  0  0  0  0  0  0
   40.4495   12.0043  -18.1922 C   0  0  0  0  0  0  0  0  0  0  0  0
   41.2238   12.4240  -17.0215 N   0  0  0  0  0  0  0  0  0  0  0  0
   42.5546   12.5383  -16.9399 C   0  0  0  0  0  0  0  0  0  0  0  0
   42.9093   12.9666  -15.6650 C   0  0  0  0  0  0  0  0  0  0  0  0
   41.7423   13.1036  -14.9925 N   0  0  0  0  0  0  0  0  0  0  0  0
   40.7192   12.7774  -15.8056 C   0  0  0  0  0  0  0  0  0  0  0  0
   39.3111   12.7900  -15.4444 C   0  0  0  0  0  0  0  0  0  0  0  0
   39.0803   13.6336  -14.3829 C   0  0  0  0  0  0  0  0  0  0  0  0
   44.2564   13.2050  -15.1795 C   0  0  0  0  0  0  0  0  0  0  0  0
   45.3454   13.3880  -16.0430 N   0  0  0  0  0  0  0  0  0  0  0  0
   44.4502   13.2515  -13.9275 O   0  0  0  0  0  0  0  0  0  0  0  0
   45.4453   14.3069  -16.5689 H   0  0  0  0  0  0  0  0  0  0  0  0
   46.0979   12.6844  -16.2285 H   0  0  0  0  0  0  0  0  0  0  0  0
   37.3850   15.4520  -11.8433 C   0  0  0  0  0  0  0  0  0  0  0  0
   37.5625   14.6913  -12.7628 C   0  0  0  0  0  0  0  0  0  0  0  0
   37.1943   16.3977  -10.7184 C   0  0  0  0  0  0  0  0  0  0  0  0
   38.5530   16.7238  -10.0869 C   0  0  0  0  0  0  0  0  0  0  0  0
   36.5400   17.5438  -11.0895 O   0  0  0  0  0  0  0  0  0  0  0  0
   35.9118   17.3786  -11.8423 H   0  0  0  0  0  0  0  0  0  0  0  0
   33.5156   15.4889   -7.4516 C   0  0  0  0  0  0  0  0  0  0  0  0
   34.7729   15.2782   -8.2363 C   0  0  0  0  0  0  0  0  0  0  0  0
   35.2402   16.1939   -9.1617 C   0  0  0  0  0  0  0  0  0  0  0  0
   36.4254   15.6712   -9.6954 C   0  0  0  0  0  0  0  0  0  0  0  0
   36.5934   14.5102   -9.0764 N   0  0  0  0  0  0  0  0  0  0  0  0
   35.6127   14.2946   -8.2224 O   0  0  0  0  0  0  0  0  0  0  0  0
 26 27  1  0  0  0
 27 28  2  0  0  0
 28 29  1  0  0  0
 29 30  2  0  0  0
 30 31  1  0  0  0
 29 22  1  0  0  0
 22 23  1  0  0  0
 22 24  1  0  0  0
 22 20  1  0  0  0
 20 21  3  0  0  0
 21  1  1  0  0  0
  1  2  2  0  0  0
  2  3  1  0  0  0
  3  4  2  0  0  0
  4  5  1  0  0  0
  5  6  1  0  0  0
  6  7  1  0  0  0
  7  8  1  0  0  0
  8  9  1  0  0  0
  9 10  2  0  0  0
 10 11  1  0  0  0
 11 12  2  0  0  0
 12 13  1  0  0  0
 13 14  2  0  0  0
 10 15  1  0  0  0
 15 16  1  0  0  0
 15 17  2  0  0  0
 31 27  1  0  0  0
 14  1  1  0  0  0
 13  4  1  0  0  0
 12  8  1  0  0  0
 24 25  1  0  0  0
 16 18  1  0  0  0
 16 19  1  0  0  0
M  END
> <minimizedAffinity>
-8.75759

> <CNNscore>
0.2534634173

> <CNNaffinity>
6.0871415138

> <CNN_VS>
1.5428676605

> <CNNaffinity_variance>
0.1184771284

$$$$
[H]O[C@](C#Cc1c([H])c([H])c2c(c1[H])-c1nc(C(=O)N([H])[H])c([H])n1C([H])([H])C([H])([H])O2)(c1noc(C([H])([H])[H])c1[H])C([H])([H])[H]


 31 34  0  0  0  0  0  0  0  0999 V2000
   36.9287   14.7847  -10.4865 C   0  0  0  0  0  0  0  0  0  0  0  0
   38.2523   15.1398  -10.2213 C   0  0  0  0  0  0  0  0  0  0  0  0
   38.6888   15.5849   -8.9940 C   0  0  0  0  0  0  0  0  0  0  0  0
   37.7692   15.6891   -7.9604 C   0  0  0  0  0  0  0  0  0  0  0  0
   38.2896   16.1481   -6.7596 O   0  0  0  0  0  0  0  0  0  0  0  0
   37.6627   16.4369   -5.5234 C   0  0  0  0  0  0  0  0  0  0  0  0
   36.3097   17.0737   -5.6487 C   0  0  0  0  0  0  0  0  0  0  0  0
   35.2865   16.1352   -6.1163 N   0  0  0  0  0  0  0  0  0  0  0  0
   34.1170   15.8646   -5.5248 C   0  0  0  0  0  0  0  0  0  0  0  0
   33.4208   14.9230   -6.2753 C   0  0  0  0  0  0  0  0  0  0  0  0
   34.2175   14.6446   -7.3340 N   0  0  0  0  0  0  0  0  0  0  0  0
   35.3468   15.3733   -7.2449 C   0  0  0  0  0  0  0  0  0  0  0  0
   36.4516   15.3449   -8.1894 C   0  0  0  0  0  0  0  0  0  0  0  0
   36.0361   14.9016   -9.4233 C   0  0  0  0  0  0  0  0  0  0  0  0
   32.1163   14.3670   -5.9651 C   0  0  0  0  0  0  0  0  0  0  0  0
   30.9369   15.1187   -6.0597 N   0  0  0  0  0  0  0  0  0  0  0  0
   32.0453   13.1555   -5.5981 O   0  0  0  0  0  0  0  0  0  0  0  0
   30.5374   15.3436   -7.0193 H   0  0  0  0  0  0  0  0  0  0  0  0
   30.3899   15.4942   -5.2501 H   0  0  0  0  0  0  0  0  0  0  0  0
   36.0941   13.9592  -12.8493 C   0  0  0  0  0  0  0  0  0  0  0  0
   36.4884   14.3378  -11.7738 C   0  0  0  0  0  0  0  0  0  0  0  0
   35.5819   13.4925  -14.1592 C   0  0  0  0  0  0  0  0  0  0  0  0
   34.4413   12.4921  -13.9367 C   0  0  0  0  0  0  0  0  0  0  0  0
   35.1789   14.5203  -14.9720 O   0  0  0  0  0  0  0  0  0  0  0  0
   35.6978   15.3501  -14.7962 H   0  0  0  0  0  0  0  0  0  0  0  0
   37.9954   10.8522  -17.6570 C   0  0  0  0  0  0  0  0  0  0  0  0
   37.7467   11.5561  -16.3594 C   0  0  0  0  0  0  0  0  0  0  0  0
   36.5554   12.1972  -16.0718 C   0  0  0  0  0  0  0  0  0  0  0  0
   36.6791   12.7376  -14.7852 C   0  0  0  0  0  0  0  0  0  0  0  0
   37.8988   12.3976  -14.3900 N   0  0  0  0  0  0  0  0  0  0  0  0
   38.5127   11.7038  -15.3277 O   0  0  0  0  0  0  0  0  0  0  0  0
 26 27  1  0  0  0
 27 28  2  0  0  0
 28 29  1  0  0  0
 29 30  2  0  0  0
 30 31  1  0  0  0
 29 22  1  0  0  0
 22 23  1  0  0  0
 22 24  1  0  0  0
 22 20  1  0  0  0
 20 21  3  0  0  0
 21  1  1  0  0  0
  1  2  2  0  0  0
  2  3  1  0  0  0
  3  4  2  0  0  0
  4  5  1  0  0  0
  5  6  1  0  0  0
  6  7  1  0  0  0
  7  8  1  0  0  0
  8  9  1  0  0  0
  9 10  2  0  0  0
 10 11  1  0  0  0
 11 12  2  0  0  0
 12 13  1  0  0  0
 13 14  2  0  0  0
 10 15  1  0  0  0
 15 16  1  0  0  0
 15 17  2  0  0  0
 31 27  1  0  0  0
 14  1  1  0  0  0
 13  4  1  0  0  0
 12  8  1  0  0  0
 24 25  1  0  0  0
 16 18  1  0  0  0
 16 19  1  0  0  0
M  END
> <minimizedAffinity>
-7.72078

> <CNNscore>
0.2396177948

> <CNNaffinity>
5.4331817627

> <CNN_VS>
1.3018870354

> <CNNaffinity_variance>
0.2651835382

$$$$
[H]O[C@](C#Cc1c([H])c([H])c2c(c1[H])-c1nc(C(=O)N([H])[H])c(C(F)(F)F)n1C1([H])C([H])([H])C2([H])C1([H])[H])(c1noc(C([H])([H])[H])n1)C([H])([H])[H]


 36 40  0  0  0  0  0  0  0  0999 V2000
   40.5992   15.1473  -12.9668 C   0  0  0  0  0  0  0  0  0  0  0  0
   39.6203   15.5676  -12.0551 C   0  0  0  0  0  0  0  0  0  0  0  0
   38.3126   15.1563  -12.1906 C   0  0  0  0  0  0  0  0  0  0  0  0
   38.0324   14.3358  -13.2505 C   0  0  0  0  0  0  0  0  0  0  0  0
   36.5491   14.0340  -13.3109 C   0  0  0  0  0  0  0  0  0  0  0  0
   36.3667   12.5404  -13.4421 C   0  0  0  0  0  0  0  0  0  0  0  0
   36.2938   12.6055  -14.9357 C   0  0  0  0  0  0  0  0  0  0  0  0
   36.1123   14.1566  -14.7734 C   0  0  0  0  0  0  0  0  0  0  0  0
   37.5422   12.3785  -15.6428 N   0  0  0  0  0  0  0  0  0  0  0  0
   38.7316   13.0027  -15.3368 C   0  0  0  0  0  0  0  0  0  0  0  0
   39.6090   12.6601  -16.2745 N   0  0  0  0  0  0  0  0  0  0  0  0
   39.0100   11.8303  -17.1799 C   0  0  0  0  0  0  0  0  0  0  0  0
   37.7153   11.6559  -16.7664 C   0  0  0  0  0  0  0  0  0  0  0  0
   38.9561   13.8913  -14.1724 C   0  0  0  0  0  0  0  0  0  0  0  0
   40.2512   14.3203  -13.9999 C   0  0  0  0  0  0  0  0  0  0  0  0
   39.6554   11.2416  -18.3238 C   0  0  0  0  0  0  0  0  0  0  0  0
   39.0448   11.1834  -19.5894 N   0  0  0  0  0  0  0  0  0  0  0  0
   40.8084   10.7631  -18.2077 O   0  0  0  0  0  0  0  0  0  0  0  0
   39.4506   11.8873  -20.2996 H   0  0  0  0  0  0  0  0  0  0  0  0
   38.2905   10.6127  -19.9627 H   0  0  0  0  0  0  0  0  0  0  0  0
   36.6724   10.8151  -17.4142 C   0  0  0  0  0  0  0  0  0  0  0  0
   37.0859    9.6129  -17.9040 F   0  0  0  0  0  0  0  0  0  0  0  0
   35.9850   11.5089  -18.3788 F   0  0  0  0  0  0  0  0  0  0  0  0
   35.7241   10.4097  -16.4226 F   0  0  0  0  0  0  0  0  0  0  0  0
   43.0633   16.0936  -12.6085 C   0  0  0  0  0  0  0  0  0  0  0  0
   41.9296   15.7028  -12.7716 C   0  0  0  0  0  0  0  0  0  0  0  0
   44.4567   16.4855  -12.4503 C   0  0  0  0  0  0  0  0  0  0  0  0
   45.0399   16.0319  -11.1235 C   0  0  0  0  0  0  0  0  0  0  0  0
   45.2255   15.7201  -13.4158 O   0  0  0  0  0  0  0  0  0  0  0  0
   44.6996   15.8208  -14.2575 H   0  0  0  0  0  0  0  0  0  0  0  0
   43.5517   21.0601  -14.1996 C   0  0  0  0  0  0  0  0  0  0  0  0
   44.2791   19.9050  -13.5887 C   0  0  0  0  0  0  0  0  0  0  0  0
   43.7858   18.6881  -13.3715 N   0  0  0  0  0  0  0  0  0  0  0  0
   44.7567   17.8856  -12.7758 C   0  0  0  0  0  0  0  0  0  0  0  0
   45.7712   18.6926  -12.6810 N   0  0  0  0  0  0  0  0  0  0  0  0
   45.5079   19.8837  -13.1594 O   0  0  0  0  0  0  0  0  0  0  0  0
 31 32  1  0  0  0
 32 33  2  0  0  0
 33 34  1  0  0  0
 34 35  2  0  0  0
 35 36  1  0  0  0
 34 27  1  0  0  0
 27 28  1  0  0  0
 27 29  1  0  0  0
 27 25  1  0  0  0
 25 26  3  0  0  0
 26  1  1  0  0  0
  1  2  2  0  0  0
  2  3  1  0  0  0
  3  4  2  0  0  0
  4  5  1  0  0  0
  5  6  1  0  0  0
  6  7  1  0  0  0
  7  8  1  0  0  0
  7  9  1  0  0  0
  9 10  1  0  0  0
 10 11  2  0  0  0
 11 12  1  0  0  0
 12 16  1  0  0  0
 16 17  1  0  0  0
 16 18  2  0  0  0
 12 13  2  0  0  0
 13 21  1  0  0  0
 21 22  1  0  0  0
 21 23  1  0  0  0
 21 24  1  0  0  0
 10 14  1  0  0  0
 14 15  2  0  0  0
 36 32  1  0  0  0
 15  1  1  0  0  0
 14  4  1  0  0  0
  8  5  1  0  0  0
 13  9  1  0  0  0
 29 30  1  0  0  0
 17 19  1  0  0  0
 17 20  1  0  0  0
M  END
> <minimizedAffinity>
-9.45915

> <CNNscore>
0.7308501601

> <CNNaffinity>
7.4646377563

> <CNN_VS>
5.4555315971

> <CNNaffinity_variance>
0.1880376637

$$$$
[H]O[C@](C#Cc1c([H])c([H])c2c(c1[H])-c1nc(C(=O)N([H])[H])c(C(F)(F)F)n1C1([H])C([H])([H])C2([H])C1([H])[H])(c1noc(C([H])([H])[H])n1)C([H])([H])[H]


 36 40  0  0  0  0  0  0  0  0999 V2000
   40.4774   15.2132  -12.9995 C   0  0  0  0  0  0  0  0  0  0  0  0
   39.4942   15.5769  -12.0683 C   0  0  0  0  0  0  0  0  0  0  0  0
   38.2084   15.0954  -12.1814 C   0  0  0  0  0  0  0  0  0  0  0  0
   37.9537   14.2640  -13.2392 C   0  0  0  0  0  0  0  0  0  0  0  0
   36.4881   13.8820  -13.2735 C   0  0  0  0  0  0  0  0  0  0  0  0
   36.3849   12.3811  -13.4072 C   0  0  0  0  0  0  0  0  0  0  0  0
   36.2808   12.4464  -14.8989 C   0  0  0  0  0  0  0  0  0  0  0  0
   36.0183   13.9849  -14.7273 C   0  0  0  0  0  0  0  0  0  0  0  0
   37.5265   12.2898  -15.6297 N   0  0  0  0  0  0  0  0  0  0  0  0
   38.6856   12.9770  -15.3432 C   0  0  0  0  0  0  0  0  0  0  0  0
   39.5628   12.6854  -16.2981 N   0  0  0  0  0  0  0  0  0  0  0  0
   38.9931   11.8269  -17.1957 C   0  0  0  0  0  0  0  0  0  0  0  0
   37.7177   11.5810  -16.7591 C   0  0  0  0  0  0  0  0  0  0  0  0
   38.8830   13.8731  -14.1796 C   0  0  0  0  0  0  0  0  0  0  0  0
   40.1558   14.3715  -14.0292 C   0  0  0  0  0  0  0  0  0  0  0  0
   39.6483   11.2775  -18.3535 C   0  0  0  0  0  0  0  0  0  0  0  0
   39.0480   11.2616  -19.6252 N   0  0  0  0  0  0  0  0  0  0  0  0
   40.8008   10.7961  -18.2443 O   0  0  0  0  0  0  0  0  0  0  0  0
   39.4587   11.9893  -20.3080 H   0  0  0  0  0  0  0  0  0  0  0  0
   38.2972   10.7034  -20.0237 H   0  0  0  0  0  0  0  0  0  0  0  0
   36.7103   10.6865  -17.3909 C   0  0  0  0  0  0  0  0  0  0  0  0
   35.6541   10.3226  -16.6111 F   0  0  0  0  0  0  0  0  0  0  0  0
   37.2932    9.5756  -17.9481 F   0  0  0  0  0  0  0  0  0  0  0  0
   36.0561   11.3992  -18.4449 F   0  0  0  0  0  0  0  0  0  0  0  0
   42.8931   16.2983  -12.7127 C   0  0  0  0  0  0  0  0  0  0  0  0
   41.7790   15.8397  -12.8265 C   0  0  0  0  0  0  0  0  0  0  0  0
   44.2602   16.7948  -12.6441 C   0  0  0  0  0  0  0  0  0  0  0  0
   44.4002   18.1909  -13.2253 C   0  0  0  0  0  0  0  0  0  0  0  0
   44.5675   17.0008  -11.2398 O   0  0  0  0  0  0  0  0  0  0  0  0
   44.2471   16.1593  -10.8104 H   0  0  0  0  0  0  0  0  0  0  0  0
   46.1493   13.0374  -15.3124 C   0  0  0  0  0  0  0  0  0  0  0  0
   46.0612   14.1609  -14.3292 C   0  0  0  0  0  0  0  0  0  0  0  0
   44.9868   14.9041  -14.0750 N   0  0  0  0  0  0  0  0  0  0  0  0
   45.2927   15.8594  -13.1079 C   0  0  0  0  0  0  0  0  0  0  0  0
   46.5429   15.6122  -12.8521 N   0  0  0  0  0  0  0  0  0  0  0  0
   47.0088   14.6124  -13.5593 O   0  0  0  0  0  0  0  0  0  0  0  0
 31 32  1  0  0  0
 32 33  2  0  0  0
 33 34  1  0  0  0
 34 35  2  0  0  0
 35 36  1  0  0  0
 34 27  1  0  0  0
 27 28  1  0  0  0
 27 29  1  0  0  0
 27 25  1  0  0  0
 25 26  3  0  0  0
 26  1  1  0  0  0
  1  2  2  0  0  0
  2  3  1  0  0  0
  3  4  2  0  0  0
  4  5  1  0  0  0
  5  6  1  0  0  0
  6  7  1  0  0  0
  7  8  1  0  0  0
  7  9  1  0  0  0
  9 10  1  0  0  0
 10 11  2  0  0  0
 11 12  1  0  0  0
 12 16  1  0  0  0
 16 17  1  0  0  0
 16 18  2  0  0  0
 12 13  2  0  0  0
 13 21  1  0  0  0
 21 22  1  0  0  0
 21 23  1  0  0  0
 21 24  1  0  0  0
 10 14  1  0  0  0
 14 15  2  0  0  0
 36 32  1  0  0  0
 15  1  1  0  0  0
 14  4  1  0  0  0
  8  5  1  0  0  0
 13  9  1  0  0  0
 29 30  1  0  0  0
 17 19  1  0  0  0
 17 20  1  0  0  0
M  END
> <minimizedAffinity>
-9.05553

> <CNNscore>
0.6242980361

> <CNNaffinity>
7.5486478806

> <CNN_VS>
4.7126059532

> <CNNaffinity_variance>
0.2857139111

$$$$
[H]O[C@](C#Cc1c([H])c([H])c2c(c1[H])-c1nc(C(=O)N([H])[H])c(C(F)(F)F)n1C1([H])C([H])([H])C2([H])C1([H])[H])(c1noc(C([H])([H])[H])n1)C([H])([H])[H]


 36 40  0  0  0  0  0  0  0  0999 V2000
   40.5021   15.2323  -12.9704 C   0  0  0  0  0  0  0  0  0  0  0  0
   39.5137   15.6201  -12.0546 C   0  0  0  0  0  0  0  0  0  0  0  0
   38.2186   15.1699  -12.1876 C   0  0  0  0  0  0  0  0  0  0  0  0
   37.9601   14.3446  -13.2492 C   0  0  0  0  0  0  0  0  0  0  0  0
   36.4865   13.9982  -13.3063 C   0  0  0  0  0  0  0  0  0  0  0  0
   36.3489   12.5002  -13.4415 C   0  0  0  0  0  0  0  0  0  0  0  0
   36.2696   12.5676  -14.9347 C   0  0  0  0  0  0  0  0  0  0  0  0
   36.0419   14.1120  -14.7672 C   0  0  0  0  0  0  0  0  0  0  0  0
   37.5222   12.3805  -15.6461 N   0  0  0  0  0  0  0  0  0  0  0  0
   38.6931   13.0394  -15.3416 C   0  0  0  0  0  0  0  0  0  0  0  0
   39.5777   12.7262  -16.2829 N   0  0  0  0  0  0  0  0  0  0  0  0
   39.0013   11.8815  -17.1891 C   0  0  0  0  0  0  0  0  0  0  0  0
   37.7137   11.6667  -16.7724 C   0  0  0  0  0  0  0  0  0  0  0  0
   38.8942   13.9308  -14.1751 C   0  0  0  0  0  0  0  0  0  0  0  0
   40.1762   14.3982  -14.0050 C   0  0  0  0  0  0  0  0  0  0  0  0
   39.6608   11.3159  -18.3366 C   0  0  0  0  0  0  0  0  0  0  0  0
   39.1378   11.4224  -19.6378 N   0  0  0  0  0  0  0  0  0  0  0  0
   40.7470   10.7070  -18.1906 O   0  0  0  0  0  0  0  0  0  0  0  0
   39.6631   12.1306  -20.2599 H   0  0  0  0  0  0  0  0  0  0  0  0
   38.3564   10.9680  -20.1035 H   0  0  0  0  0  0  0  0  0  0  0  0
   36.6948   10.7968  -17.4198 C   0  0  0  0  0  0  0  0  0  0  0  0
   36.0925   11.3000  -18.5334 F   0  0  0  0  0  0  0  0  0  0  0  0
   35.7490   10.3656  -16.5231 F   0  0  0  0  0  0  0  0  0  0  0  0
   37.3451    9.6360  -17.9455 F   0  0  0  0  0  0  0  0  0  0  0  0
   42.9189   16.2739  -12.5583 C   0  0  0  0  0  0  0  0  0  0  0  0
   41.8158   15.8271  -12.7772 C   0  0  0  0  0  0  0  0  0  0  0  0
   44.2678   16.7312  -12.2559 C   0  0  0  0  0  0  0  0  0  0  0  0
   45.3334   15.8555  -12.8917 C   0  0  0  0  0  0  0  0  0  0  0  0
   44.4489   18.0008  -12.9376 O   0  0  0  0  0  0  0  0  0  0  0  0
   43.6160   18.5014  -12.7122 H   0  0  0  0  0  0  0  0  0  0  0  0
   43.5136   16.5580   -7.3359 C   0  0  0  0  0  0  0  0  0  0  0  0
   44.1169   16.9197   -8.6556 C   0  0  0  0  0  0  0  0  0  0  0  0
   43.7108   16.4975   -9.8507 N   0  0  0  0  0  0  0  0  0  0  0  0
   44.5256   17.0380  -10.8433 C   0  0  0  0  0  0  0  0  0  0  0  0
   45.3683   17.7529  -10.1589 N   0  0  0  0  0  0  0  0  0  0  0  0
   45.1383   17.6977   -8.8702 O   0  0  0  0  0  0  0  0  0  0  0  0
 31 32  1  0  0  0
 32 33  2  0  0  0
 33 34  1  0  0  0
 34 35  2  0  0  0
 35 36  1  0  0  0
 34 27  1  0  0  0
 27 28  1  0  0  0
 27 29  1  0  0  0
 27 25  1  0  0  0
 25 26  3  0  0  0
 26  1  1  0  0  0
  1  2  2  0  0  0
  2  3  1  0  0  0
  3  4  2  0  0  0
  4  5  1  0  0  0
  5  6  1  0  0  0
  6  7  1  0  0  0
  7  8  1  0  0  0
  7  9  1  0  0  0
  9 10  1  0  0  0
 10 11  2  0  0  0
 11 12  1  0  0  0
 12 16  1  0  0  0
 16 17  1  0  0  0
 16 18  2  0  0  0
 12 13  2  0  0  0
 13 21  1  0  0  0
 21 22  1  0  0  0
 21 23  1  0  0  0
 21 24  1  0  0  0
 10 14  1  0  0  0
 14 15  2  0  0  0
 36 32  1  0  0  0
 15  1  1  0  0  0
 14  4  1  0  0  0
  8  5  1  0  0  0
 13  9  1  0  0  0
 29 30  1  0  0  0
 17 19  1  0  0  0
 17 20  1  0  0  0
M  END
> <minimizedAffinity>
-8.63352

> <CNNscore>
0.6188378334

> <CNNaffinity>
7.3891057968

> <CNN_VS>
4.5726580620

> <CNNaffinity_variance>
0.4012145102

$$$$
[H]O[C@](C#Cc1c([H])c([H])c2c(c1[H])-c1nc(C(=O)N([H])[H])c(C(F)(F)F)n1C1([H])C([H])([H])C2([H])C1([H])[H])(c1noc(C([H])([H])[H])n1)C([H])([H])[H]


 36 40  0  0  0  0  0  0  0  0999 V2000
   42.0744   13.5235  -14.9812 C   0  0  0  0  0  0  0  0  0  0  0  0
   42.8214   12.9946  -16.0434 C   0  0  0  0  0  0  0  0  0  0  0  0
   42.2124   12.2403  -17.0222 C   0  0  0  0  0  0  0  0  0  0  0  0
   40.8643   12.0376  -16.8931 C   0  0  0  0  0  0  0  0  0  0  0  0
   40.3557   11.1310  -17.9951 C   0  0  0  0  0  0  0  0  0  0  0  0
   39.1476   11.7772  -18.6308 C   0  0  0  0  0  0  0  0  0  0  0  0
   38.1936   11.0385  -17.7449 C   0  0  0  0  0  0  0  0  0  0  0  0
   39.4034   10.1167  -17.3554 C   0  0  0  0  0  0  0  0  0  0  0  0
   37.7685   11.7394  -16.5456 N   0  0  0  0  0  0  0  0  0  0  0  0
   38.6260   12.3656  -15.6680 C   0  0  0  0  0  0  0  0  0  0  0  0
   37.9016   12.7681  -14.6289 N   0  0  0  0  0  0  0  0  0  0  0  0
   36.5957   12.4125  -14.8167 C   0  0  0  0  0  0  0  0  0  0  0  0
   36.5255   11.7748  -16.0275 C   0  0  0  0  0  0  0  0  0  0  0  0
   40.0837   12.5366  -15.8721 C   0  0  0  0  0  0  0  0  0  0  0  0
   40.7280   13.2881  -14.9176 C   0  0  0  0  0  0  0  0  0  0  0  0
   35.5161   12.6984  -13.9087 C   0  0  0  0  0  0  0  0  0  0  0  0
   34.7321   13.8617  -14.0090 N   0  0  0  0  0  0  0  0  0  0  0  0
   35.2459   11.8879  -12.9912 O   0  0  0  0  0  0  0  0  0  0  0  0
   33.7430   13.6856  -14.4030 H   0  0  0  0  0  0  0  0  0  0  0  0
   34.9188   14.8370  -13.7901 H   0  0  0  0  0  0  0  0  0  0  0  0
   35.3079   11.2238  -16.6818 C   0  0  0  0  0  0  0  0  0  0  0  0
   34.1142   11.7099  -16.2404 F   0  0  0  0  0  0  0  0  0  0  0  0
   35.2966    9.8512  -16.6641 F   0  0  0  0  0  0  0  0  0  0  0  0
   35.2946   11.6332  -18.0526 F   0  0  0  0  0  0  0  0  0  0  0  0
   43.5015   14.8682  -13.1782 C   0  0  0  0  0  0  0  0  0  0  0  0
   42.8321   14.2395  -13.9662 C   0  0  0  0  0  0  0  0  0  0  0  0
   44.3214   15.6868  -12.2962 C   0  0  0  0  0  0  0  0  0  0  0  0
   43.5330   16.2468  -11.1253 C   0  0  0  0  0  0  0  0  0  0  0  0
   45.2677   14.7961  -11.6478 O   0  0  0  0  0  0  0  0  0  0  0  0
   45.6196   14.2481  -12.4033 H   0  0  0  0  0  0  0  0  0  0  0  0
   47.4815   19.5235  -12.6128 C   0  0  0  0  0  0  0  0  0  0  0  0
   46.5701   18.4125  -13.0273 C   0  0  0  0  0  0  0  0  0  0  0  0
   45.8968   17.6004  -12.2158 N   0  0  0  0  0  0  0  0  0  0  0  0
   45.1640   16.6844  -12.9678 C   0  0  0  0  0  0  0  0  0  0  0  0
   45.4570   17.0221  -14.1883 N   0  0  0  0  0  0  0  0  0  0  0  0
   46.2797   18.0406  -14.2405 O   0  0  0  0  0  0  0  0  0  0  0  0
 31 32  1  0  0  0
 32 33  2  0  0  0
 33 34  1  0  0  0
 34 35  2  0  0  0
 35 36  1  0  0  0
 34 27  1  0  0  0
 27 28  1  0  0  0
 27 29  1  0  0  0
 27 25  1  0  0  0
 25 26  3  0  0  0
 26  1  1  0  0  0
  1  2  2  0  0  0
  2  3  1  0  0  0
  3  4  2  0  0  0
  4  5  1  0  0  0
  5  6  1  0  0  0
  6  7  1  0  0  0
  7  8  1  0  0  0
  7  9  1  0  0  0
  9 10  1  0  0  0
 10 11  2  0  0  0
 11 12  1  0  0  0
 12 16  1  0  0  0
 16 17  1  0  0  0
 16 18  2  0  0  0
 12 13  2  0  0  0
 13 21  1  0  0  0
 21 22  1  0  0  0
 21 23  1  0  0  0
 21 24  1  0  0  0
 10 14  1  0  0  0
 14 15  2  0  0  0
 36 32  1  0  0  0
 15  1  1  0  0  0
 14  4  1  0  0  0
  8  5  1  0  0  0
 13  9  1  0  0  0
 29 30  1  0  0  0
 17 19  1  0  0  0
 17 20  1  0  0  0
M  END
> <minimizedAffinity>
-8.81490

> <CNNscore>
0.3587523699

> <CNNaffinity>
7.1523313522

> <CNN_VS>
2.5659158230

> <CNNaffinity_variance>
0.2264623195

$$$$
[H]O[C@](C#Cc1c([H])c([H])c2c(c1[H])-c1nc(C(=O)N([H])[H])c(C(F)(F)F)n1C1([H])C([H])([H])C2([H])C1([H])[H])(c1noc(C([H])([H])[H])n1)C([H])([H])[H]


 36 40  0  0  0  0  0  0  0  0999 V2000
   35.8258   13.2530  -12.8310 C   0  0  0  0  0  0  0  0  0  0  0  0
   34.5335   12.7811  -13.1015 C   0  0  0  0  0  0  0  0  0  0  0  0
   34.2620   12.1123  -14.2748 C   0  0  0  0  0  0  0  0  0  0  0  0
   35.3068   11.9465  -15.1443 C   0  0  0  0  0  0  0  0  0  0  0  0
   34.8381   11.2669  -16.4144 C   0  0  0  0  0  0  0  0  0  0  0  0
   35.7627   10.1100  -16.7108 C   0  0  0  0  0  0  0  0  0  0  0  0
   36.6273   10.9350  -17.6120 C   0  0  0  0  0  0  0  0  0  0  0  0
   35.4771   12.0037  -17.5949 C   0  0  0  0  0  0  0  0  0  0  0  0
   37.7971   11.5353  -16.9946 N   0  0  0  0  0  0  0  0  0  0  0  0
   37.7737   12.2417  -15.8121 C   0  0  0  0  0  0  0  0  0  0  0  0
   38.9867   12.7557  -15.6362 N   0  0  0  0  0  0  0  0  0  0  0  0
   39.7910   12.3979  -16.6813 C   0  0  0  0  0  0  0  0  0  0  0  0
   39.0334   11.6254  -17.5221 C   0  0  0  0  0  0  0  0  0  0  0  0
   36.5949   12.3871  -14.9261 C   0  0  0  0  0  0  0  0  0  0  0  0
   36.8261   13.0460  -13.7415 C   0  0  0  0  0  0  0  0  0  0  0  0
   41.1778   12.7550  -16.8248 C   0  0  0  0  0  0  0  0  0  0  0  0
   41.6126   14.0915  -16.8782 N   0  0  0  0  0  0  0  0  0  0  0  0
   42.0461   11.8538  -16.9002 O   0  0  0  0  0  0  0  0  0  0  0  0
   42.0955   14.4271  -15.9734 H   0  0  0  0  0  0  0  0  0  0  0  0
   41.5532   14.8050  -17.6003 H   0  0  0  0  0  0  0  0  0  0  0  0
   39.4747   10.9791  -18.7876 C   0  0  0  0  0  0  0  0  0  0  0  0
   38.5078   10.3493  -19.5119 F   0  0  0  0  0  0  0  0  0  0  0  0
   40.5397   10.1368  -18.5853 F   0  0  0  0  0  0  0  0  0  0  0  0
   39.9011   11.9945  -19.7008 F   0  0  0  0  0  0  0  0  0  0  0  0
   36.1819   14.6529  -10.5929 C   0  0  0  0  0  0  0  0  0  0  0  0
   35.9808   14.0100  -11.5983 C   0  0  0  0  0  0  0  0  0  0  0  0
   36.4914   15.4700   -9.4281 C   0  0  0  0  0  0  0  0  0  0  0  0
   35.3565   15.4954   -8.4192 C   0  0  0  0  0  0  0  0  0  0  0  0
   37.5497   14.7906   -8.7016 O   0  0  0  0  0  0  0  0  0  0  0  0
   38.2021   14.5534   -9.4180 H   0  0  0  0  0  0  0  0  0  0  0  0
   37.9300   20.1352   -8.4422 C   0  0  0  0  0  0  0  0  0  0  0  0
   37.6566   18.8777   -9.2041 C   0  0  0  0  0  0  0  0  0  0  0  0
   37.1425   17.7532   -8.7117 N   0  0  0  0  0  0  0  0  0  0  0  0
   37.0468   16.7973   -9.7210 C   0  0  0  0  0  0  0  0  0  0  0  0
   37.5160   17.4301  -10.7549 N   0  0  0  0  0  0  0  0  0  0  0  0
   37.8748   18.6573  -10.4684 O   0  0  0  0  0  0  0  0  0  0  0  0
 31 32  1  0  0  0
 32 33  2  0  0  0
 33 34  1  0  0  0
 34 35  2  0  0  0
 35 36  1  0  0  0
 34 27  1  0  0  0
 27 28  1  0  0  0
 27 29  1  0  0  0
 27 25  1  0  0  0
 25 26  3  0  0  0
 26  1  1  0  0  0
  1  2  2  0  0  0
  2  3  1  0  0  0
  3  4  2  0  0  0
  4  5  1  0  0  0
  5  6  1  0  0  0
  6  7  1  0  0  0
  7  8  1  0  0  0
  7  9  1  0  0  0
  9 10  1  0  0  0
 10 11  2  0  0  0
 11 12  1  0  0  0
 12 16  1  0  0  0
 16 17  1  0  0  0
 16 18  2  0  0  0
 12 13  2  0  0  0
 13 21  1  0  0  0
 21 22  1  0  0  0
 21 23  1  0  0  0
 21 24  1  0  0  0
 10 14  1  0  0  0
 14 15  2  0  0  0
 36 32  1  0  0  0
 15  1  1  0  0  0
 14  4  1  0  0  0
  8  5  1  0  0  0
 13  9  1  0  0  0
 29 30  1  0  0  0
 17 19  1  0  0  0
 17 20  1  0  0  0
M  END
> <minimizedAffinity>
-8.81233

> <CNNscore>
0.3481063545

> <CNNaffinity>
7.1569914818

> <CNN_VS>
2.4913942814

> <CNNaffinity_variance>
0.1206168979

$$$$
[H]O[C@](C#Cc1c([H])c([H])c2c(c1[H])-c1nc(C(=O)N([H])[H])c(C(F)(F)F)n1C1([H])C([H])([H])C2([H])C1([H])[H])(c1noc(C([H])([H])[H])n1)C([H])([H])[H]


 36 40  0  0  0  0  0  0  0  0999 V2000
   35.6858   13.1765  -12.8720 C   0  0  0  0  0  0  0  0  0  0  0  0
   34.4127   12.6768  -13.1813 C   0  0  0  0  0  0  0  0  0  0  0  0
   34.1899   12.0086  -14.3651 C   0  0  0  0  0  0  0  0  0  0  0  0
   35.2622   11.8716  -15.2056 C   0  0  0  0  0  0  0  0  0  0  0  0
   34.8451   11.1886  -16.4918 C   0  0  0  0  0  0  0  0  0  0  0  0
   35.8040   10.0549  -16.7677 C   0  0  0  0  0  0  0  0  0  0  0  0
   36.6745   10.9045  -17.6401 C   0  0  0  0  0  0  0  0  0  0  0  0
   35.5000   11.9465  -17.6501 C   0  0  0  0  0  0  0  0  0  0  0  0
   37.8124   11.5279  -16.9868 N   0  0  0  0  0  0  0  0  0  0  0  0
   37.7395   12.2269  -15.8020 C   0  0  0  0  0  0  0  0  0  0  0  0
   38.9349   12.7674  -15.5892 N   0  0  0  0  0  0  0  0  0  0  0  0
   39.7762   12.4340  -16.6130 C   0  0  0  0  0  0  0  0  0  0  0  0
   39.0606   11.6492  -17.4788 C   0  0  0  0  0  0  0  0  0  0  0  0
   36.5332   12.3403  -14.9489 C   0  0  0  0  0  0  0  0  0  0  0  0
   36.7157   12.9976  -13.7549 C   0  0  0  0  0  0  0  0  0  0  0  0
   41.1580   12.8235  -16.7155 C   0  0  0  0  0  0  0  0  0  0  0  0
   41.5539   14.1564  -16.9270 N   0  0  0  0  0  0  0  0  0  0  0  0
   42.0569   11.9561  -16.6083 O   0  0  0  0  0  0  0  0  0  0  0  0
   41.9624   14.6322  -16.0488 H   0  0  0  0  0  0  0  0  0  0  0  0
   41.5227   14.7610  -17.7440 H   0  0  0  0  0  0  0  0  0  0  0  0
   39.5521   11.0202  -18.7345 C   0  0  0  0  0  0  0  0  0  0  0  0
   38.6153   10.3986  -19.5040 F   0  0  0  0  0  0  0  0  0  0  0  0
   40.6101   10.1770  -18.5020 F   0  0  0  0  0  0  0  0  0  0  0  0
   40.0115   12.0483  -19.6170 F   0  0  0  0  0  0  0  0  0  0  0  0
   35.9498   14.5535  -10.6072 C   0  0  0  0  0  0  0  0  0  0  0  0
   35.7886   13.9299  -11.6316 C   0  0  0  0  0  0  0  0  0  0  0  0
   36.2255   15.3307   -9.4071 C   0  0  0  0  0  0  0  0  0  0  0  0
   37.6068   15.9616   -9.4290 C   0  0  0  0  0  0  0  0  0  0  0  0
   35.3459   16.4860   -9.4376 O   0  0  0  0  0  0  0  0  0  0  0  0
   34.4589   16.0912   -9.6669 H   0  0  0  0  0  0  0  0  0  0  0  0
   33.4574   14.1719   -5.4321 C   0  0  0  0  0  0  0  0  0  0  0  0
   34.6111   14.2038   -6.3831 C   0  0  0  0  0  0  0  0  0  0  0  0
   34.6784   14.8949   -7.5185 N   0  0  0  0  0  0  0  0  0  0  0  0
   35.9044   14.6639   -8.1388 C   0  0  0  0  0  0  0  0  0  0  0  0
   36.4865   13.8421   -7.3170 N   0  0  0  0  0  0  0  0  0  0  0  0
   35.7404   13.5651   -6.2762 O   0  0  0  0  0  0  0  0  0  0  0  0
 31 32  1  0  0  0
 32 33  2  0  0  0
 33 34  1  0  0  0
 34 35  2  0  0  0
 35 36  1  0  0  0
 34 27  1  0  0  0
 27 28  1  0  0  0
 27 29  1  0  0  0
 27 25  1  0  0  0
 25 26  3  0  0  0
 26  1  1  0  0  0
  1  2  2  0  0  0
  2  3  1  0  0  0
  3  4  2  0  0  0
  4  5  1  0  0  0
  5  6  1  0  0  0
  6  7  1  0  0  0
  7  8  1  0  0  0
  7  9  1  0  0  0
  9 10  1  0  0  0
 10 11  2  0  0  0
 11 12  1  0  0  0
 12 16  1  0  0  0
 16 17  1  0  0  0
 16 18  2  0  0  0
 12 13  2  0  0  0
 13 21  1  0  0  0
 21 22  1  0  0  0
 21 23  1  0  0  0
 21 24  1  0  0  0
 10 14  1  0  0  0
 14 15  2  0  0  0
 36 32  1  0  0  0
 15  1  1  0  0  0
 14  4  1  0  0  0
  8  5  1  0  0  0
 13  9  1  0  0  0
 29 30  1  0  0  0
 17 19  1  0  0  0
 17 20  1  0  0  0
M  END
> <minimizedAffinity>
-8.17422

> <CNNscore>
0.3088769913

> <CNNaffinity>
7.0493063927

> <CNN_VS>
2.1773686409

> <CNNaffinity_variance>
0.0881860629

$$$$
[H]O[C@](C#Cc1c([H])c([H])c2c(c1[H])-c1nc(C(=O)N([H])[H])c(C(F)(F)F)n1C1([H])C([H])([H])C2([H])C1([H])[H])(c1noc(C([H])([H])[H])n1)C([H])([H])[H]


 36 40  0  0  0  0  0  0  0  0999 V2000
   41.9353   13.7441  -14.2572 C   0  0  0  0  0  0  0  0  0  0  0  0
   42.8135   13.3287  -15.2683 C   0  0  0  0  0  0  0  0  0  0  0  0
   42.3454   12.6363  -16.3633 C   0  0  0  0  0  0  0  0  0  0  0  0
   41.0011   12.3784  -16.3996 C   0  0  0  0  0  0  0  0  0  0  0  0
   40.6523   11.5477  -17.6174 C   0  0  0  0  0  0  0  0  0  0  0  0
   39.4930   12.2023  -18.3307 C   0  0  0  0  0  0  0  0  0  0  0  0
   38.4817   11.3624  -17.6149 C   0  0  0  0  0  0  0  0  0  0  0  0
   39.6808   10.4532  -17.1667 C   0  0  0  0  0  0  0  0  0  0  0  0
   37.9012   11.9489  -16.4194 N   0  0  0  0  0  0  0  0  0  0  0  0
   38.6325   12.5303  -15.4070 C   0  0  0  0  0  0  0  0  0  0  0  0
   37.7845   12.8225  -14.4262 N   0  0  0  0  0  0  0  0  0  0  0  0
   36.5224   12.4396  -14.7836 C   0  0  0  0  0  0  0  0  0  0  0  0
   36.6095   11.9002  -16.0403 C   0  0  0  0  0  0  0  0  0  0  0  0
   40.0951   12.7663  -15.4355 C   0  0  0  0  0  0  0  0  0  0  0  0
   40.6010   13.4592  -14.3608 C   0  0  0  0  0  0  0  0  0  0  0  0
   35.3407   12.6143  -13.9808 C   0  0  0  0  0  0  0  0  0  0  0  0
   34.4821   13.7182  -14.1298 N   0  0  0  0  0  0  0  0  0  0  0  0
   35.0462   11.7566  -13.1151 O   0  0  0  0  0  0  0  0  0  0  0  0
   33.5528   13.4814  -14.6245 H   0  0  0  0  0  0  0  0  0  0  0  0
   34.5702   14.6972  -13.8693 H   0  0  0  0  0  0  0  0  0  0  0  0
   35.4934   11.3635  -16.8652 C   0  0  0  0  0  0  0  0  0  0  0  0
   35.5438   11.6376  -18.1988 F   0  0  0  0  0  0  0  0  0  0  0  0
   34.2682   11.7142  -16.3551 F   0  0  0  0  0  0  0  0  0  0  0  0
   35.5634    9.9346  -16.8636 F   0  0  0  0  0  0  0  0  0  0  0  0
   42.9890   14.9611  -12.1349 C   0  0  0  0  0  0  0  0  0  0  0  0
   42.5488   14.4004  -13.1129 C   0  0  0  0  0  0  0  0  0  0  0  0
   43.4401   15.6159  -10.9151 C   0  0  0  0  0  0  0  0  0  0  0  0
   44.4131   16.7489  -11.1906 C   0  0  0  0  0  0  0  0  0  0  0  0
   42.2928   16.3086  -10.3556 O   0  0  0  0  0  0  0  0  0  0  0  0
   41.5696   15.6228  -10.3976 H   0  0  0  0  0  0  0  0  0  0  0  0
   42.9097   12.5985   -6.9882 C   0  0  0  0  0  0  0  0  0  0  0  0
   43.5600   13.3853   -8.0812 C   0  0  0  0  0  0  0  0  0  0  0  0
   42.9415   14.1508   -8.9772 N   0  0  0  0  0  0  0  0  0  0  0  0
   43.8776   14.7137   -9.8423 C   0  0  0  0  0  0  0  0  0  0  0  0
   45.0003   14.2373   -9.3926 N   0  0  0  0  0  0  0  0  0  0  0  0
   44.8309   13.4574   -8.3534 O   0  0  0  0  0  0  0  0  0  0  0  0
 31 32  1  0  0  0
 32 33  2  0  0  0
 33 34  1  0  0  0
 34 35  2  0  0  0
 35 36  1  0  0  0
 34 27  1  0  0  0
 27 28  1  0  0  0
 27 29  1  0  0  0
 27 25  1  0  0  0
 25 26  3  0  0  0
 26  1  1  0  0  0
  1  2  2  0  0  0
  2  3  1  0  0  0
  3  4  2  0  0  0
  4  5  1  0  0  0
  5  6  1  0  0  0
  6  7  1  0  0  0
  7  8  1  0  0  0
  7  9  1  0  0  0
  9 10  1  0  0  0
 10 11  2  0  0  0
 11 12  1  0  0  0
 12 16  1  0  0  0
 16 17  1  0  0  0
 16 18  2  0  0  0
 12 13  2  0  0  0
 13 21  1  0  0  0
 21 22  1  0  0  0
 21 23  1  0  0  0
 21 24  1  0  0  0
 10 14  1  0  0  0
 14 15  2  0  0  0
 36 32  1  0  0  0
 15  1  1  0  0  0
 14  4  1  0  0  0
  8  5  1  0  0  0
 13  9  1  0  0  0
 29 30  1  0  0  0
 17 19  1  0  0  0
 17 20  1  0  0  0
M  END
> <minimizedAffinity>
-8.75059

> <CNNscore>
0.2563526630

> <CNNaffinity>
7.0470595360

> <CNN_VS>
1.8065325022

> <CNNaffinity_variance>
0.1387620866

$$$$
[H]O[C@](C#Cc1c([H])c([H])c2c(c1[H])-c1nc(C(=O)N([H])[H])c(C(F)(F)F)n1C1([H])C([H])([H])C2([H])C1([H])[H])(c1noc(C([H])([H])[H])n1)C([H])([H])[H]


 36 40  0  0  0  0  0  0  0  0999 V2000
   41.0681   12.3841  -16.7063 C   0  0  0  0  0  0  0  0  0  0  0  0
   41.1388   11.6472  -17.8971 C   0  0  0  0  0  0  0  0  0  0  0  0
   40.0057   11.0851  -18.4427 C   0  0  0  0  0  0  0  0  0  0  0  0
   38.8335   11.2799  -17.7623 C   0  0  0  0  0  0  0  0  0  0  0  0
   37.6973   10.5413  -18.4393 C   0  0  0  0  0  0  0  0  0  0  0  0
   36.5426   11.4976  -18.6220 C   0  0  0  0  0  0  0  0  0  0  0  0
   35.8946   11.0773  -17.3399 C   0  0  0  0  0  0  0  0  0  0  0  0
   36.8773    9.8528  -17.3446 C   0  0  0  0  0  0  0  0  0  0  0  0
   36.2055   11.8886  -16.1757 N   0  0  0  0  0  0  0  0  0  0  0  0
   37.4802   12.2551  -15.8036 C   0  0  0  0  0  0  0  0  0  0  0  0
   37.3872   12.8642  -14.6260 N   0  0  0  0  0  0  0  0  0  0  0  0
   36.0799   12.8959  -14.2296 C   0  0  0  0  0  0  0  0  0  0  0  0
   35.3486   12.2871  -15.2157 C   0  0  0  0  0  0  0  0  0  0  0  0
   38.7084   11.9973  -16.5915 C   0  0  0  0  0  0  0  0  0  0  0  0
   39.8615   12.5463  -16.0816 C   0  0  0  0  0  0  0  0  0  0  0  0
   35.5927   13.4932  -13.0141 C   0  0  0  0  0  0  0  0  0  0  0  0
   34.9742   14.7561  -12.9876 N   0  0  0  0  0  0  0  0  0  0  0  0
   35.7098   12.8762  -11.9290 O   0  0  0  0  0  0  0  0  0  0  0  0
   33.9045   14.7124  -12.8522 H   0  0  0  0  0  0  0  0  0  0  0  0
   35.3378   15.7013  -13.0792 H   0  0  0  0  0  0  0  0  0  0  0  0
   33.8729   12.0993  -15.2518 C   0  0  0  0  0  0  0  0  0  0  0  0
   33.3639   11.5414  -16.3856 F   0  0  0  0  0  0  0  0  0  0  0  0
   33.2040   13.2603  -14.9531 F   0  0  0  0  0  0  0  0  0  0  0  0
   33.5063   11.1297  -14.2658 F   0  0  0  0  0  0  0  0  0  0  0  0
   43.4022   13.2003  -15.7158 C   0  0  0  0  0  0  0  0  0  0  0  0
   42.3362   12.8674  -16.1818 C   0  0  0  0  0  0  0  0  0  0  0  0
   44.7100   13.5124  -15.1567 C   0  0  0  0  0  0  0  0  0  0  0  0
   45.8366   12.7972  -15.8818 C   0  0  0  0  0  0  0  0  0  0  0  0
   44.9759   14.9093  -15.4519 O   0  0  0  0  0  0  0  0  0  0  0  0
   44.1255   15.3626  -15.1941 H   0  0  0  0  0  0  0  0  0  0  0  0
   46.6062   12.0712  -10.7826 C   0  0  0  0  0  0  0  0  0  0  0  0
   45.7051   12.7303  -11.7775 C   0  0  0  0  0  0  0  0  0  0  0  0
   45.8222   12.6801  -13.1023 N   0  0  0  0  0  0  0  0  0  0  0  0
   44.8050   13.4263  -13.6940 C   0  0  0  0  0  0  0  0  0  0  0  0
   44.1467   13.8718  -12.6656 N   0  0  0  0  0  0  0  0  0  0  0  0
   44.6608   13.4672  -11.5303 O   0  0  0  0  0  0  0  0  0  0  0  0
 31 32  1  0  0  0
 32 33  2  0  0  0
 33 34  1  0  0  0
 34 35  2  0  0  0
 35 36  1  0  0  0
 34 27  1  0  0  0
 27 28  1  0  0  0
 27 29  1  0  0  0
 27 25  1  0  0  0
 25 26  3  0  0  0
 26  1  1  0  0  0
  1  2  2  0  0  0
  2  3  1  0  0  0
  3  4  2  0  0  0
  4  5  1  0  0  0
  5  6  1  0  0  0
  6  7  1  0  0  0
  7  8  1  0  0  0
  7  9  1  0  0  0
  9 10  1  0  0  0
 10 11  2  0  0  0
 11 12  1  0  0  0
 12 16  1  0  0  0
 16 17  1  0  0  0
 16 18  2  0  0  0
 12 13  2  0  0  0
 13 21  1  0  0  0
 21 22  1  0  0  0
 21 23  1  0  0  0
 21 24  1  0  0  0
 10 14  1  0  0  0
 14 15  2  0  0  0
 36 32  1  0  0  0
 15  1  1  0  0  0
 14  4  1  0  0  0
  8  5  1  0  0  0
 13  9  1  0  0  0
 29 30  1  0  0  0
 17 19  1  0  0  0
 17 20  1  0  0  0
M  END
> <minimizedAffinity>
-10.24891

> <CNNscore>
0.2377866209

> <CNNaffinity>
7.0982856750

> <CNN_VS>
1.6878774166

> <CNNaffinity_variance>
0.0846891105

$$$$
[H]O[C@](C#Cc1c([H])c([H])c2c(c1[H])-c1nc(C(=O)N([H])[H])c(C(F)(F)F)n1C1([H])C([H])([H])C2([H])C1([H])[H])(c1noc(C([H])([H])[H])n1)C([H])([H])[H]


 36 40  0  0  0  0  0  0  0  0999 V2000
   41.1419   12.3857  -16.5050 C   0  0  0  0  0  0  0  0  0  0  0  0
   41.3022   11.7550  -17.7470 C   0  0  0  0  0  0  0  0  0  0  0  0
   40.2175   11.2231  -18.4089 C   0  0  0  0  0  0  0  0  0  0  0  0
   39.0015   11.3395  -17.7901 C   0  0  0  0  0  0  0  0  0  0  0  0
   37.9257   10.6430  -18.5979 C   0  0  0  0  0  0  0  0  0  0  0  0
   36.7639   11.5922  -18.7718 C   0  0  0  0  0  0  0  0  0  0  0  0
   36.0473   11.0528  -17.5735 C   0  0  0  0  0  0  0  0  0  0  0  0
   37.0549    9.8496  -17.6196 C   0  0  0  0  0  0  0  0  0  0  0  0
   36.2678   11.7661  -16.3275 N   0  0  0  0  0  0  0  0  0  0  0  0
   37.5089   12.1204  -15.8457 C   0  0  0  0  0  0  0  0  0  0  0  0
   37.3300   12.6245  -14.6290 N   0  0  0  0  0  0  0  0  0  0  0  0
   36.0003   12.6004  -14.3150 C   0  0  0  0  0  0  0  0  0  0  0  0
   35.3448   12.0666  -15.3935 C   0  0  0  0  0  0  0  0  0  0  0  0
   38.7887   11.9515  -16.5732 C   0  0  0  0  0  0  0  0  0  0  0  0
   39.8958   12.4737  -15.9466 C   0  0  0  0  0  0  0  0  0  0  0  0
   35.4260   13.0831  -13.0867 C   0  0  0  0  0  0  0  0  0  0  0  0
   34.8680   14.3685  -12.9670 N   0  0  0  0  0  0  0  0  0  0  0  0
   35.4081   12.3410  -12.0763 O   0  0  0  0  0  0  0  0  0  0  0  0
   33.7894   14.3720  -12.9356 H   0  0  0  0  0  0  0  0  0  0  0  0
   35.2830   15.2953  -12.9124 H   0  0  0  0  0  0  0  0  0  0  0  0
   33.8787   11.8582  -15.5388 C   0  0  0  0  0  0  0  0  0  0  0  0
   33.4589   11.3343  -16.7243 F   0  0  0  0  0  0  0  0  0  0  0  0
   33.1705   12.9974  -15.2467 F   0  0  0  0  0  0  0  0  0  0  0  0
   33.4618   10.8480  -14.6155 F   0  0  0  0  0  0  0  0  0  0  0  0
   43.3378   13.2617  -15.2779 C   0  0  0  0  0  0  0  0  0  0  0  0
   42.3643   12.8431  -15.8622 C   0  0  0  0  0  0  0  0  0  0  0  0
   44.4567   13.7747  -14.4999 C   0  0  0  0  0  0  0  0  0  0  0  0
   44.3373   15.2633  -14.2239 C   0  0  0  0  0  0  0  0  0  0  0  0
   44.3530   13.1942  -13.1727 O   0  0  0  0  0  0  0  0  0  0  0  0
   44.1864   12.2284  -13.3587 H   0  0  0  0  0  0  0  0  0  0  0  0
   49.3662   14.1969  -15.2244 C   0  0  0  0  0  0  0  0  0  0  0  0
   47.9803   13.6363  -15.2651 C   0  0  0  0  0  0  0  0  0  0  0  0
   46.8893   14.1914  -14.7427 N   0  0  0  0  0  0  0  0  0  0  0  0
   45.7874   13.3694  -14.9700 C   0  0  0  0  0  0  0  0  0  0  0  0
   46.3084   12.3719  -15.6205 N   0  0  0  0  0  0  0  0  0  0  0  0
   47.5974   12.5160  -15.8064 O   0  0  0  0  0  0  0  0  0  0  0  0
 31 32  1  0  0  0
 32 33  2  0  0  0
 33 34  1  0  0  0
 34 35  2  0  0  0
 35 36  1  0  0  0
 34 27  1  0  0  0
 27 28  1  0  0  0
 27 29  1  0  0  0
 27 25  1  0  0  0
 25 26  3  0  0  0
 26  1  1  0  0  0
  1  2  2  0  0  0
  2  3  1  0  0  0
  3  4  2  0  0  0
  4  5  1  0  0  0
  5  6  1  0  0  0
  6  7  1  0  0  0
  7  8  1  0  0  0
  7  9  1  0  0  0
  9 10  1  0  0  0
 10 11  2  0  0  0
 11 12  1  0  0  0
 12 16  1  0  0  0
 16 17  1  0  0  0
 16 18  2  0  0  0
 12 13  2  0  0  0
 13 21  1  0  0  0
 21 22  1  0  0  0
 21 23  1  0  0  0
 21 24  1  0  0  0
 10 14  1  0  0  0
 14 15  2  0  0  0
 36 32  1  0  0  0
 15  1  1  0  0  0
 14  4  1  0  0  0
  8  5  1  0  0  0
 13  9  1  0  0  0
 29 30  1  0  0  0
 17 19  1  0  0  0
 17 20  1  0  0  0
M  END
> <minimizedAffinity>
-9.91365

> <CNNscore>
0.2323519737

> <CNNaffinity>
6.9252710342

> <CNN_VS>
1.6091003418

> <CNNaffinity_variance>
0.1783412695

$$$$
[H]O[C@](C#Cc1c([H])c([H])c2c(c1[H])-n1nc(C(=O)N([H])[H])c([H])c1[C@]([H])(C([H])([H])[H])C([H])([H])O2)(c1nc([H])c([H])c([H])n1)C([H])([H])[H]


 32 35  0  0  0  0  0  0  0  0999 V2000
   35.9404    9.5997  -16.9670 C   0  0  0  0  0  0  0  0  0  0  0  0
   36.4668   10.9213  -17.5679 C   0  0  0  0  0  0  0  0  0  0  0  0
   37.6812   10.6104  -18.3402 C   0  0  0  0  0  0  0  0  0  0  0  0
   38.7638   11.4882  -18.3057 O   0  0  0  0  0  0  0  0  0  0  0  0
   39.4720   12.0233  -17.2550 C   0  0  0  0  0  0  0  0  0  0  0  0
   40.8204   12.1446  -17.3988 C   0  0  0  0  0  0  0  0  0  0  0  0
   41.5819   12.6742  -16.3756 C   0  0  0  0  0  0  0  0  0  0  0  0
   41.0224   13.1017  -15.1745 C   0  0  0  0  0  0  0  0  0  0  0  0
   39.6476   12.9775  -15.0217 C   0  0  0  0  0  0  0  0  0  0  0  0
   38.9064   12.4543  -16.0476 C   0  0  0  0  0  0  0  0  0  0  0  0
   37.5049   12.4893  -15.7489 N   0  0  0  0  0  0  0  0  0  0  0  0
   37.0386   13.2533  -14.7849 N   0  0  0  0  0  0  0  0  0  0  0  0
   35.6679   13.1659  -14.8147 C   0  0  0  0  0  0  0  0  0  0  0  0
   35.3666   12.3053  -15.8445 C   0  0  0  0  0  0  0  0  0  0  0  0
   36.5557   11.8686  -16.4462 C   0  0  0  0  0  0  0  0  0  0  0  0
   34.7323   13.8261  -13.9284 C   0  0  0  0  0  0  0  0  0  0  0  0
   33.5869   14.4355  -14.5228 N   0  0  0  0  0  0  0  0  0  0  0  0
   34.9276   13.8721  -12.7166 O   0  0  0  0  0  0  0  0  0  0  0  0
   33.4095   15.4833  -14.4623 H   0  0  0  0  0  0  0  0  0  0  0  0
   32.9056   13.8275  -15.0313 H   0  0  0  0  0  0  0  0  0  0  0  0
   41.8385   13.6785  -14.1383 C   0  0  0  0  0  0  0  0  0  0  0  0
   42.5191   14.1969  -13.2557 C   0  0  0  0  0  0  0  0  0  0  0  0
   43.3221   14.8668  -12.2313 C   0  0  0  0  0  0  0  0  0  0  0  0
   42.4069   15.5906  -11.2287 C   0  0  0  0  0  0  0  0  0  0  0  0
   43.9900   13.8975  -11.4255 O   0  0  0  0  0  0  0  0  0  0  0  0
   44.1179   13.0974  -12.0085 H   0  0  0  0  0  0  0  0  0  0  0  0
   44.2658   15.7686  -12.8507 C   0  0  0  0  0  0  0  0  0  0  0  0
   45.2856   15.2944  -13.6173 N   0  0  0  0  0  0  0  0  0  0  0  0
   46.1482   16.0893  -14.2682 C   0  0  0  0  0  0  0  0  0  0  0  0
   46.0197   17.4703  -14.1759 C   0  0  0  0  0  0  0  0  0  0  0  0
   44.9933   17.9577  -13.4011 C   0  0  0  0  0  0  0  0  0  0  0  0
   44.1591   17.0933  -12.7708 N   0  0  0  0  0  0  0  0  0  0  0  0
  1  2  1  0  0  0
  2  3  1  0  0  0
  3  4  1  0  0  0
  4  5  1  0  0  0
  5  6  2  0  0  0
  6  7  1  0  0  0
  7  8  2  0  0  0
  8  9  1  0  0  0
  9 10  2  0  0  0
 10 11  1  0  0  0
 11 12  1  0  0  0
 12 13  2  0  0  0
 13 14  1  0  0  0
 14 15  2  0  0  0
 13 16  1  0  0  0
 16 17  1  0  0  0
 16 18  2  0  0  0
  8 21  1  0  0  0
 21 22  3  0  0  0
 23 22  1  0  0  0
 23 24  1  0  0  0
 23 25  1  0  0  0
 23 27  1  0  0  0
 27 28  2  0  0  0
 28 29  1  0  0  0
 29 30  2  0  0  0
 30 31  1  0  0  0
 31 32  2  0  0  0
 15  2  1  0  0  0
 32 27  1  0  0  0
 10  5  1  0  0  0
 15 11  1  0  0  0
 17 19  1  0  0  0
 17 20  1  0  0  0
 25 26  1  0  0  0
M  END
> <minimizedAffinity>
-8.76081

> <CNNscore>
0.3838514388

> <CNNaffinity>
6.8955140114

> <CNN_VS>
2.6468529701

> <CNNaffinity_variance>
0.3347474933

$$$$
[H]O[C@](C#Cc1c([H])c([H])c2c(c1[H])-n1nc(C(=O)N([H])[H])c([H])c1[C@]([H])(C([H])([H])[H])C([H])([H])O2)(c1nc([H])c([H])c([H])n1)C([H])([H])[H]


 32 35  0  0  0  0  0  0  0  0999 V2000
   39.4489   11.9340  -20.0877 C   0  0  0  0  0  0  0  0  0  0  0  0
   39.1842   10.9800  -18.9026 C   0  0  0  0  0  0  0  0  0  0  0  0
   37.7599   10.6081  -18.9358 C   0  0  0  0  0  0  0  0  0  0  0  0
   37.0483   10.4970  -17.7420 O   0  0  0  0  0  0  0  0  0  0  0  0
   36.8779   11.3736  -16.6959 C   0  0  0  0  0  0  0  0  0  0  0  0
   35.6477   11.4331  -16.1158 C   0  0  0  0  0  0  0  0  0  0  0  0
   35.4190   12.2960  -15.0621 C   0  0  0  0  0  0  0  0  0  0  0  0
   36.4116   13.1281  -14.5513 C   0  0  0  0  0  0  0  0  0  0  0  0
   37.6676   13.0733  -15.1415 C   0  0  0  0  0  0  0  0  0  0  0  0
   37.8789   12.2090  -16.1825 C   0  0  0  0  0  0  0  0  0  0  0  0
   39.2499   12.2219  -16.6008 N   0  0  0  0  0  0  0  0  0  0  0  0
   40.1870   12.7274  -15.8284 N   0  0  0  0  0  0  0  0  0  0  0  0
   41.3957   12.4934  -16.4380 C   0  0  0  0  0  0  0  0  0  0  0  0
   41.1067   11.8302  -17.6078 C   0  0  0  0  0  0  0  0  0  0  0  0
   39.7190   11.6566  -17.7112 C   0  0  0  0  0  0  0  0  0  0  0  0
   42.7047   12.8854  -15.9586 C   0  0  0  0  0  0  0  0  0  0  0  0
   43.8032   12.7316  -16.8566 N   0  0  0  0  0  0  0  0  0  0  0  0
   42.8624   13.3172  -14.8196 O   0  0  0  0  0  0  0  0  0  0  0  0
   44.6176   12.0794  -16.6457 H   0  0  0  0  0  0  0  0  0  0  0  0
   43.8008   13.2799  -17.7463 H   0  0  0  0  0  0  0  0  0  0  0  0
   36.1513   13.9946  -13.4316 C   0  0  0  0  0  0  0  0  0  0  0  0
   35.9264   14.7579  -12.4948 C   0  0  0  0  0  0  0  0  0  0  0  0
   35.6852   15.7105  -11.4096 C   0  0  0  0  0  0  0  0  0  0  0  0
   36.6465   15.4372  -10.2400 C   0  0  0  0  0  0  0  0  0  0  0  0
   36.0435   17.0262  -11.8284 O   0  0  0  0  0  0  0  0  0  0  0  0
   35.9209   17.0418  -12.8189 H   0  0  0  0  0  0  0  0  0  0  0  0
   34.3017   15.6541  -10.9971 C   0  0  0  0  0  0  0  0  0  0  0  0
   33.9407   15.9529   -9.7193 N   0  0  0  0  0  0  0  0  0  0  0  0
   32.6661   15.9809   -9.3020 C   0  0  0  0  0  0  0  0  0  0  0  0
   31.6402   15.6960  -10.1956 C   0  0  0  0  0  0  0  0  0  0  0  0
   31.9966   15.3905  -11.4883 C   0  0  0  0  0  0  0  0  0  0  0  0
   33.3071   15.3810  -11.8390 N   0  0  0  0  0  0  0  0  0  0  0  0
  1  2  1  0  0  0
  2  3  1  0  0  0
  3  4  1  0  0  0
  4  5  1  0  0  0
  5  6  2  0  0  0
  6  7  1  0  0  0
  7  8  2  0  0  0
  8  9  1  0  0  0
  9 10  2  0  0  0
 10 11  1  0  0  0
 11 12  1  0  0  0
 12 13  2  0  0  0
 13 14  1  0  0  0
 14 15  2  0  0  0
 13 16  1  0  0  0
 16 17  1  0  0  0
 16 18  2  0  0  0
  8 21  1  0  0  0
 21 22  3  0  0  0
 23 22  1  0  0  0
 23 24  1  0  0  0
 23 25  1  0  0  0
 23 27  1  0  0  0
 27 28  2  0  0  0
 28 29  1  0  0  0
 29 30  2  0  0  0
 30 31  1  0  0  0
 31 32  2  0  0  0
 15  2  1  0  0  0
 32 27  1  0  0  0
 10  5  1  0  0  0
 15 11  1  0  0  0
 17 19  1  0  0  0
 17 20  1  0  0  0
 25 26  1  0  0  0
M  END
> <minimizedAffinity>
-9.67675

> <CNNscore>
0.3543254137

> <CNNaffinity>
6.8783903122

> <CNN_VS>
2.4371883869

> <CNNaffinity_variance>
0.0512305275

$$$$
[H]O[C@](C#Cc1c([H])c([H])c2c(c1[H])-n1nc(C(=O)N([H])[H])c([H])c1[C@]([H])(C([H])([H])[H])C([H])([H])O2)(c1nc([H])c([H])c([H])n1)C([H])([H])[H]


 32 35  0  0  0  0  0  0  0  0999 V2000
   36.5693   11.6371  -18.8261 C   0  0  0  0  0  0  0  0  0  0  0  0
   36.6379   10.9401  -17.4498 C   0  0  0  0  0  0  0  0  0  0  0  0
   35.2707   10.8856  -16.9061 C   0  0  0  0  0  0  0  0  0  0  0  0
   35.0609   11.1010  -15.5447 O   0  0  0  0  0  0  0  0  0  0  0  0
   35.4360   12.1321  -14.7153 C   0  0  0  0  0  0  0  0  0  0  0  0
   34.5444   12.5385  -13.7701 C   0  0  0  0  0  0  0  0  0  0  0  0
   34.8670   13.5702  -12.9106 C   0  0  0  0  0  0  0  0  0  0  0  0
   36.0917   14.2304  -12.9652 C   0  0  0  0  0  0  0  0  0  0  0  0
   37.0036   13.8214  -13.9295 C   0  0  0  0  0  0  0  0  0  0  0  0
   36.6698   12.7940  -14.7712 C   0  0  0  0  0  0  0  0  0  0  0  0
   37.7623   12.4498  -15.6328 N   0  0  0  0  0  0  0  0  0  0  0  0
   38.9876   12.8434  -15.3601 N   0  0  0  0  0  0  0  0  0  0  0  0
   39.8223   12.2690  -16.2878 C   0  0  0  0  0  0  0  0  0  0  0  0
   39.0129   11.5263  -17.1156 C   0  0  0  0  0  0  0  0  0  0  0  0
   37.6817   11.6454  -16.6907 C   0  0  0  0  0  0  0  0  0  0  0  0
   41.2577   12.4309  -16.3881 C   0  0  0  0  0  0  0  0  0  0  0  0
   41.8732   12.0601  -17.6212 N   0  0  0  0  0  0  0  0  0  0  0  0
   41.9180   12.8551  -15.4433 O   0  0  0  0  0  0  0  0  0  0  0  0
   42.5923   11.2775  -17.6803 H   0  0  0  0  0  0  0  0  0  0  0  0
   41.6046   12.5779  -18.4884 H   0  0  0  0  0  0  0  0  0  0  0  0
   36.4113   15.2816  -12.0352 C   0  0  0  0  0  0  0  0  0  0  0  0
   36.7069   16.1620  -11.2300 C   0  0  0  0  0  0  0  0  0  0  0  0
   37.0763   17.1684  -10.2329 C   0  0  0  0  0  0  0  0  0  0  0  0
   38.5280   16.9514   -9.7724 C   0  0  0  0  0  0  0  0  0  0  0  0
   37.1129   18.4605  -10.8362 O   0  0  0  0  0  0  0  0  0  0  0  0
   36.4670   18.4268  -11.5964 H   0  0  0  0  0  0  0  0  0  0  0  0
   36.1474   17.1363   -9.1268 C   0  0  0  0  0  0  0  0  0  0  0  0
   36.3790   17.8613   -7.9985 N   0  0  0  0  0  0  0  0  0  0  0  0
   35.5181   17.9194   -6.9713 C   0  0  0  0  0  0  0  0  0  0  0  0
   34.3208   17.2160   -7.0328 C   0  0  0  0  0  0  0  0  0  0  0  0
   34.0801   16.4787   -8.1685 C   0  0  0  0  0  0  0  0  0  0  0  0
   34.9975   16.4664   -9.1678 N   0  0  0  0  0  0  0  0  0  0  0  0
  1  2  1  0  0  0
  2  3  1  0  0  0
  3  4  1  0  0  0
  4  5  1  0  0  0
  5  6  2  0  0  0
  6  7  1  0  0  0
  7  8  2  0  0  0
  8  9  1  0  0  0
  9 10  2  0  0  0
 10 11  1  0  0  0
 11 12  1  0  0  0
 12 13  2  0  0  0
 13 14  1  0  0  0
 14 15  2  0  0  0
 13 16  1  0  0  0
 16 17  1  0  0  0
 16 18  2  0  0  0
  8 21  1  0  0  0
 21 22  3  0  0  0
 23 22  1  0  0  0
 23 24  1  0  0  0
 23 25  1  0  0  0
 23 27  1  0  0  0
 27 28  2  0  0  0
 28 29  1  0  0  0
 29 30  2  0  0  0
 30 31  1  0  0  0
 31 32  2  0  0  0
 15  2  1  0  0  0
 32 27  1  0  0  0
 10  5  1  0  0  0
 15 11  1  0  0  0
 17 19  1  0  0  0
 17 20  1  0  0  0
 25 26  1  0  0  0
M  END
> <minimizedAffinity>
-8.25150

> <CNNscore>
0.3179090917

> <CNNaffinity>
6.6292638779

> <CNN_VS>
2.1075031757

> <CNNaffinity_variance>
0.2279211581

$$$$
[H]O[C@](C#Cc1c([H])c([H])c2c(c1[H])-n1nc(C(=O)N([H])[H])c([H])c1[C@]([H])(C([H])([H])[H])C([H])([H])O2)(c1nc([H])c([H])c([H])n1)C([H])([H])[H]


 32 35  0  0  0  0  0  0  0  0999 V2000
   35.7318    9.5614  -16.8610 C   0  0  0  0  0  0  0  0  0  0  0  0
   36.2494   10.8711  -17.4947 C   0  0  0  0  0  0  0  0  0  0  0  0
   37.4508   10.5446  -18.2808 C   0  0  0  0  0  0  0  0  0  0  0  0
   38.5346   11.4217  -18.2800 O   0  0  0  0  0  0  0  0  0  0  0  0
   39.2600   11.9755  -17.2510 C   0  0  0  0  0  0  0  0  0  0  0  0
   40.6060   12.0926  -17.4188 C   0  0  0  0  0  0  0  0  0  0  0  0
   41.3844   12.6403  -16.4182 C   0  0  0  0  0  0  0  0  0  0  0  0
   40.8448   13.0906  -15.2163 C   0  0  0  0  0  0  0  0  0  0  0  0
   39.4726   12.9707  -15.0390 C   0  0  0  0  0  0  0  0  0  0  0  0
   38.7144   12.4294  -16.0429 C   0  0  0  0  0  0  0  0  0  0  0  0
   37.3180   12.4714  -15.7222 N   0  0  0  0  0  0  0  0  0  0  0  0
   36.8679   13.2537  -14.7652 N   0  0  0  0  0  0  0  0  0  0  0  0
   35.4969   13.1672  -14.7712 C   0  0  0  0  0  0  0  0  0  0  0  0
   35.1783   12.2879  -15.7798 C   0  0  0  0  0  0  0  0  0  0  0  0
   36.3571   11.8389  -16.3925 C   0  0  0  0  0  0  0  0  0  0  0  0
   34.5763   13.8448  -13.8823 C   0  0  0  0  0  0  0  0  0  0  0  0
   33.1828   13.7181  -14.1633 N   0  0  0  0  0  0  0  0  0  0  0  0
   34.9818   14.5138  -12.9354 O   0  0  0  0  0  0  0  0  0  0  0  0
   32.5772   14.5590  -14.4062 H   0  0  0  0  0  0  0  0  0  0  0  0
   32.7510   12.7670  -14.1271 H   0  0  0  0  0  0  0  0  0  0  0  0
   41.6780   13.6857  -14.2044 C   0  0  0  0  0  0  0  0  0  0  0  0
   42.4075   14.1693  -13.3414 C   0  0  0  0  0  0  0  0  0  0  0  0
   43.2879   14.6902  -12.2940 C   0  0  0  0  0  0  0  0  0  0  0  0
   43.1549   16.2200  -12.2012 C   0  0  0  0  0  0  0  0  0  0  0  0
   42.8403   14.2435  -11.0154 O   0  0  0  0  0  0  0  0  0  0  0  0
   42.3741   13.3756  -11.1757 H   0  0  0  0  0  0  0  0  0  0  0  0
   44.6510   14.2798  -12.5412 C   0  0  0  0  0  0  0  0  0  0  0  0
   45.6973   15.0431  -12.1230 N   0  0  0  0  0  0  0  0  0  0  0  0
   46.9797   14.6767  -12.2674 C   0  0  0  0  0  0  0  0  0  0  0  0
   47.2876   13.4621  -12.8692 C   0  0  0  0  0  0  0  0  0  0  0  0
   46.2361   12.6858  -13.2969 C   0  0  0  0  0  0  0  0  0  0  0  0
   44.9638   13.1213  -13.1179 N   0  0  0  0  0  0  0  0  0  0  0  0
  1  2  1  0  0  0
  2  3  1  0  0  0
  3  4  1  0  0  0
  4  5  1  0  0  0
  5  6  2  0  0  0
  6  7  1  0  0  0
  7  8  2  0  0  0
  8  9  1  0  0  0
  9 10  2  0  0  0
 10 11  1  0  0  0
 11 12  1  0  0  0
 12 13  2  0  0  0
 13 14  1  0  0  0
 14 15  2  0  0  0
 13 16  1  0  0  0
 16 17  1  0  0  0
 16 18  2  0  0  0
  8 21  1  0  0  0
 21 22  3  0  0  0
 23 22  1  0  0  0
 23 24  1  0  0  0
 23 25  1  0  0  0
 23 27  1  0  0  0
 27 28  2  0  0  0
 28 29  1  0  0  0
 29 30  2  0  0  0
 30 31  1  0  0  0
 31 32  2  0  0  0
 15  2  1  0  0  0
 32 27  1  0  0  0
 10  5  1  0  0  0
 15 11  1  0  0  0
 17 19  1  0  0  0
 17 20  1  0  0  0
 25 26  1  0  0  0
M  END
> <minimizedAffinity>
-8.58648

> <CNNscore>
0.2744656801

> <CNNaffinity>
6.7043237686

> <CNN_VS>
1.8401067257

> <CNNaffinity_variance>
0.2885921299

$$$$
[H]O[C@](C#Cc1c([H])c([H])c2c(c1[H])-n1nc(C(=O)N([H])[H])c([H])c1[C@]([H])(C([H])([H])[H])C([H])([H])O2)(c1nc([H])c([H])c([H])n1)C([H])([H])[H]


 32 35  0  0  0  0  0  0  0  0999 V2000
   39.2747   11.8063  -19.7528 C   0  0  0  0  0  0  0  0  0  0  0  0
   39.1087   10.9711  -18.4645 C   0  0  0  0  0  0  0  0  0  0  0  0
   37.6721   10.7015  -18.2869 C   0  0  0  0  0  0  0  0  0  0  0  0
   37.1168   10.7373  -17.0086 O   0  0  0  0  0  0  0  0  0  0  0  0
   37.1384   11.7042  -16.0307 C   0  0  0  0  0  0  0  0  0  0  0  0
   36.0003   11.8983  -15.3091 C   0  0  0  0  0  0  0  0  0  0  0  0
   35.9643   12.8565  -14.3153 C   0  0  0  0  0  0  0  0  0  0  0  0
   37.0642   13.6528  -14.0076 C   0  0  0  0  0  0  0  0  0  0  0  0
   38.2267   13.4608  -14.7427 C   0  0  0  0  0  0  0  0  0  0  0  0
   38.2471   12.5034  -15.7218 C   0  0  0  0  0  0  0  0  0  0  0  0
   39.5500   12.3841  -16.3073 N   0  0  0  0  0  0  0  0  0  0  0  0
   40.6091   12.8806  -15.7054 N   0  0  0  0  0  0  0  0  0  0  0  0
   41.7114   12.5123  -16.4380 C   0  0  0  0  0  0  0  0  0  0  0  0
   41.2322   11.7808  -17.4996 C   0  0  0  0  0  0  0  0  0  0  0  0
   39.8348   11.7000  -17.4134 C   0  0  0  0  0  0  0  0  0  0  0  0
   43.0932   12.8457  -16.1620 C   0  0  0  0  0  0  0  0  0  0  0  0
   44.0857   12.2829  -17.0194 N   0  0  0  0  0  0  0  0  0  0  0  0
   43.3968   13.5706  -15.2181 O   0  0  0  0  0  0  0  0  0  0  0  0
   44.8334   11.6177  -16.6569 H   0  0  0  0  0  0  0  0  0  0  0  0
   44.0714   12.5369  -18.0331 H   0  0  0  0  0  0  0  0  0  0  0  0
   37.0058   14.6221  -12.9449 C   0  0  0  0  0  0  0  0  0  0  0  0
   36.9805   15.4367  -12.0248 C   0  0  0  0  0  0  0  0  0  0  0  0
   36.9723   16.3651  -10.8928 C   0  0  0  0  0  0  0  0  0  0  0  0
   38.4055   16.5916  -10.3817 C   0  0  0  0  0  0  0  0  0  0  0  0
   36.5709   17.6622  -11.3302 O   0  0  0  0  0  0  0  0  0  0  0  0
   35.9837   17.5146  -12.1238 H   0  0  0  0  0  0  0  0  0  0  0  0
   36.0986   15.8728   -9.8528 C   0  0  0  0  0  0  0  0  0  0  0  0
   36.5235   14.9240   -8.9743 N   0  0  0  0  0  0  0  0  0  0  0  0
   35.7772   14.4815   -7.9511 C   0  0  0  0  0  0  0  0  0  0  0  0
   34.5028   14.9990   -7.7510 C   0  0  0  0  0  0  0  0  0  0  0  0
   34.0648   15.9563   -8.6358 C   0  0  0  0  0  0  0  0  0  0  0  0
   34.8747   16.3554   -9.6483 N   0  0  0  0  0  0  0  0  0  0  0  0
  1  2  1  0  0  0
  2  3  1  0  0  0
  3  4  1  0  0  0
  4  5  1  0  0  0
  5  6  2  0  0  0
  6  7  1  0  0  0
  7  8  2  0  0  0
  8  9  1  0  0  0
  9 10  2  0  0  0
 10 11  1  0  0  0
 11 12  1  0  0  0
 12 13  2  0  0  0
 13 14  1  0  0  0
 14 15  2  0  0  0
 13 16  1  0  0  0
 16 17  1  0  0  0
 16 18  2  0  0  0
  8 21  1  0  0  0
 21 22  3  0  0  0
 23 22  1  0  0  0
 23 24  1  0  0  0
 23 25  1  0  0  0
 23 27  1  0  0  0
 27 28  2  0  0  0
 28 29  1  0  0  0
 29 30  2  0  0  0
 30 31  1  0  0  0
 31 32  2  0  0  0
 15  2  1  0  0  0
 32 27  1  0  0  0
 10  5  1  0  0  0
 15 11  1  0  0  0
 17 19  1  0  0  0
 17 20  1  0  0  0
 25 26  1  0  0  0
M  END
> <minimizedAffinity>
-8.98084

> <CNNscore>
0.2616432905

> <CNNaffinity>
6.6075234413

> <CNN_VS>
1.7288141251

> <CNNaffinity_variance>
0.0249450058

$$$$
[H]O[C@](C#Cc1c([H])c([H])c2c(c1[H])-n1nc(C(=O)N([H])[H])c([H])c1[C@]([H])(C([H])([H])[H])C([H])([H])O2)(c1nc([H])c([H])c([H])n1)C([H])([H])[H]


 32 35  0  0  0  0  0  0  0  0999 V2000
   39.3018   12.0206  -20.2331 C   0  0  0  0  0  0  0  0  0  0  0  0
   39.1039   10.9807  -19.1086 C   0  0  0  0  0  0  0  0  0  0  0  0
   37.6711   10.6459  -19.0546 C   0  0  0  0  0  0  0  0  0  0  0  0
   37.0536   10.4556  -17.8192 O   0  0  0  0  0  0  0  0  0  0  0  0
   36.9929   11.2489  -16.6973 C   0  0  0  0  0  0  0  0  0  0  0  0
   35.8149   11.2901  -16.0159 C   0  0  0  0  0  0  0  0  0  0  0  0
   35.6962   12.0706  -14.8828 C   0  0  0  0  0  0  0  0  0  0  0  0
   36.7504   12.8357  -14.3910 C   0  0  0  0  0  0  0  0  0  0  0  0
   37.9534   12.7994  -15.0841 C   0  0  0  0  0  0  0  0  0  0  0  0
   38.0557   12.0169  -16.2034 C   0  0  0  0  0  0  0  0  0  0  0  0
   39.3889   12.0316  -16.7297 N   0  0  0  0  0  0  0  0  0  0  0  0
   40.3990   12.4515  -15.9990 N   0  0  0  0  0  0  0  0  0  0  0  0
   41.5480   12.2393  -16.7216 C   0  0  0  0  0  0  0  0  0  0  0  0
   41.1476   11.6793  -17.9123 C   0  0  0  0  0  0  0  0  0  0  0  0
   39.7514   11.5468  -17.9155 C   0  0  0  0  0  0  0  0  0  0  0  0
   42.9020   12.5610  -16.3213 C   0  0  0  0  0  0  0  0  0  0  0  0
   43.9589   12.1105  -17.1678 N   0  0  0  0  0  0  0  0  0  0  0  0
   43.1291   13.1825  -15.2865 O   0  0  0  0  0  0  0  0  0  0  0  0
   44.6965   11.4208  -16.8315 H   0  0  0  0  0  0  0  0  0  0  0  0
   44.0033   12.4739  -18.1468 H   0  0  0  0  0  0  0  0  0  0  0  0
   36.6057   13.6151  -13.1894 C   0  0  0  0  0  0  0  0  0  0  0  0
   36.5101   14.2720  -12.1549 C   0  0  0  0  0  0  0  0  0  0  0  0
   36.4306   15.0142  -10.8955 C   0  0  0  0  0  0  0  0  0  0  0  0
   35.4653   16.2033  -11.0403 C   0  0  0  0  0  0  0  0  0  0  0  0
   35.8114   14.2087   -9.8942 O   0  0  0  0  0  0  0  0  0  0  0  0
   36.0095   13.2624  -10.1423 H   0  0  0  0  0  0  0  0  0  0  0  0
   37.7495   15.4355  -10.4829 C   0  0  0  0  0  0  0  0  0  0  0  0
   38.2572   15.0612   -9.2768 N   0  0  0  0  0  0  0  0  0  0  0  0
   39.4993   15.3684   -8.8738 C   0  0  0  0  0  0  0  0  0  0  0  0
   40.3340   16.1037   -9.7072 C   0  0  0  0  0  0  0  0  0  0  0  0
   39.8278   16.4881  -10.9268 C   0  0  0  0  0  0  0  0  0  0  0  0
   38.5612   16.1415  -11.2673 N   0  0  0  0  0  0  0  0  0  0  0  0
  1  2  1  0  0  0
  2  3  1  0  0  0
  3  4  1  0  0  0
  4  5  1  0  0  0
  5  6  2  0  0  0
  6  7  1  0  0  0
  7  8  2  0  0  0
  8  9  1  0  0  0
  9 10  2  0  0  0
 10 11  1  0  0  0
 11 12  1  0  0  0
 12 13  2  0  0  0
 13 14  1  0  0  0
 14 15  2  0  0  0
 13 16  1  0  0  0
 16 17  1  0  0  0
 16 18  2  0  0  0
  8 21  1  0  0  0
 21 22  3  0  0  0
 23 22  1  0  0  0
 23 24  1  0  0  0
 23 25  1  0  0  0
 23 27  1  0  0  0
 27 28  2  0  0  0
 28 29  1  0  0  0
 29 30  2  0  0  0
 30 31  1  0  0  0
 31 32  2  0  0  0
 15  2  1  0  0  0
 32 27  1  0  0  0
 10  5  1  0  0  0
 15 11  1  0  0  0
 17 19  1  0  0  0
 17 20  1  0  0  0
 25 26  1  0  0  0
M  END
> <minimizedAffinity>
-9.18036

> <CNNscore>
0.2326413095

> <CNNaffinity>
6.6583685875

> <CNN_VS>
1.5490115881

> <CNNaffinity_variance>
0.0566653199

$$$$
[H]O[C@](C#Cc1c([H])c([H])c2c(c1[H])-n1nc(C(=O)N([H])[H])c([H])c1[C@]([H])(C([H])([H])[H])C([H])([H])O2)(c1nc([H])c([H])c([H])n1)C([H])([H])[H]


 32 35  0  0  0  0  0  0  0  0999 V2000
   35.7650    9.6681  -16.8857 C   0  0  0  0  0  0  0  0  0  0  0  0
   36.3306   10.9458  -17.5433 C   0  0  0  0  0  0  0  0  0  0  0  0
   37.4904   10.5534  -18.3611 C   0  0  0  0  0  0  0  0  0  0  0  0
   38.6173   11.3735  -18.3977 O   0  0  0  0  0  0  0  0  0  0  0  0
   39.3998   11.8949  -17.3939 C   0  0  0  0  0  0  0  0  0  0  0  0
   40.7446   11.9415  -17.6011 C   0  0  0  0  0  0  0  0  0  0  0  0
   41.5788   12.4539  -16.6271 C   0  0  0  0  0  0  0  0  0  0  0  0
   41.0981   12.9382  -15.4134 C   0  0  0  0  0  0  0  0  0  0  0  0
   39.7273   12.8902  -15.1960 C   0  0  0  0  0  0  0  0  0  0  0  0
   38.9135   12.3831  -16.1738 C   0  0  0  0  0  0  0  0  0  0  0  0
   37.5310   12.4988  -15.8136 N   0  0  0  0  0  0  0  0  0  0  0  0
   37.1497   13.3087  -14.8495 N   0  0  0  0  0  0  0  0  0  0  0  0
   35.7764   13.2929  -14.8156 C   0  0  0  0  0  0  0  0  0  0  0  0
   35.3839   12.4256  -15.8084 C   0  0  0  0  0  0  0  0  0  0  0  0
   36.5198   11.9130  -16.4515 C   0  0  0  0  0  0  0  0  0  0  0  0
   34.9180   14.0220  -13.9055 C   0  0  0  0  0  0  0  0  0  0  0  0
   33.6304   14.4058  -14.3867 N   0  0  0  0  0  0  0  0  0  0  0  0
   35.2918   14.3109  -12.7717 O   0  0  0  0  0  0  0  0  0  0  0  0
   33.3420   15.4266  -14.4750 H   0  0  0  0  0  0  0  0  0  0  0  0
   32.9553   13.6557  -14.6583 H   0  0  0  0  0  0  0  0  0  0  0  0
   41.9898   13.4952  -14.4301 C   0  0  0  0  0  0  0  0  0  0  0  0
   42.7328   13.9951  -13.5881 C   0  0  0  0  0  0  0  0  0  0  0  0
   43.6026   14.6443  -12.6057 C   0  0  0  0  0  0  0  0  0  0  0  0
   44.7242   13.6842  -12.1733 C   0  0  0  0  0  0  0  0  0  0  0  0
   44.3100   15.7209  -13.2183 O   0  0  0  0  0  0  0  0  0  0  0  0
   43.7299   16.0408  -13.9649 H   0  0  0  0  0  0  0  0  0  0  0  0
   42.8230   15.1068  -11.4806 C   0  0  0  0  0  0  0  0  0  0  0  0
   41.7234   15.8871  -11.6659 N   0  0  0  0  0  0  0  0  0  0  0  0
   40.9277   16.2877  -10.6630 C   0  0  0  0  0  0  0  0  0  0  0  0
   41.2133   15.9023   -9.3584 C   0  0  0  0  0  0  0  0  0  0  0  0
   42.3242   15.1157   -9.1621 C   0  0  0  0  0  0  0  0  0  0  0  0
   43.0836   14.7493  -10.2248 N   0  0  0  0  0  0  0  0  0  0  0  0
  1  2  1  0  0  0
  2  3  1  0  0  0
  3  4  1  0  0  0
  4  5  1  0  0  0
  5  6  2  0  0  0
  6  7  1  0  0  0
  7  8  2  0  0  0
  8  9  1  0  0  0
  9 10  2  0  0  0
 10 11  1  0  0  0
 11 12  1  0  0  0
 12 13  2  0  0  0
 13 14  1  0  0  0
 14 15  2  0  0  0
 13 16  1  0  0  0
 16 17  1  0  0  0
 16 18  2  0  0  0
  8 21  1  0  0  0
 21 22  3  0  0  0
 23 22  1  0  0  0
 23 24  1  0  0  0
 23 25  1  0  0  0
 23 27  1  0  0  0
 27 28  2  0  0  0
 28 29  1  0  0  0
 29 30  2  0  0  0
 30 31  1  0  0  0
 31 32  2  0  0  0
 15  2  1  0  0  0
 32 27  1  0  0  0
 10  5  1  0  0  0
 15 11  1  0  0  0
 17 19  1  0  0  0
 17 20  1  0  0  0
 25 26  1  0  0  0
M  END
> <minimizedAffinity>
-8.76890

> <CNNscore>
0.2303552330

> <CNNaffinity>
6.7626013756

> <CNN_VS>
1.5578006506

> <CNNaffinity_variance>
0.2090585232

$$$$
[H]O[C@](C#Cc1c([H])c([H])c2c(c1[H])-n1nc(C(=O)N([H])[H])c([H])c1[C@]([H])(C([H])([H])[H])C([H])([H])O2)(c1nc([H])c([H])c([H])n1)C([H])([H])[H]


 32 35  0  0  0  0  0  0  0  0999 V2000
   36.4723   11.7473  -18.6299 C   0  0  0  0  0  0  0  0  0  0  0  0
   36.5880   11.0075  -17.2793 C   0  0  0  0  0  0  0  0  0  0  0  0
   35.2396   10.9314  -16.6928 C   0  0  0  0  0  0  0  0  0  0  0  0
   35.0745   11.1032  -15.3191 O   0  0  0  0  0  0  0  0  0  0  0  0
   35.4743   12.1089  -14.4704 C   0  0  0  0  0  0  0  0  0  0  0  0
   34.6135   12.4824  -13.4839 C   0  0  0  0  0  0  0  0  0  0  0  0
   34.9621   13.4876  -12.6034 C   0  0  0  0  0  0  0  0  0  0  0  0
   36.1827   14.1532  -12.6775 C   0  0  0  0  0  0  0  0  0  0  0  0
   37.0632   13.7779  -13.6838 C   0  0  0  0  0  0  0  0  0  0  0  0
   36.7041   12.7763  -14.5460 C   0  0  0  0  0  0  0  0  0  0  0  0
   37.7684   12.4630  -15.4536 N   0  0  0  0  0  0  0  0  0  0  0  0
   39.0011   12.8519  -15.2092 N   0  0  0  0  0  0  0  0  0  0  0  0
   39.8059   12.3098  -16.1815 C   0  0  0  0  0  0  0  0  0  0  0  0
   38.9713   11.5908  -17.0052 C   0  0  0  0  0  0  0  0  0  0  0  0
   37.6547   11.6921  -16.5331 C   0  0  0  0  0  0  0  0  0  0  0  0
   41.2369   12.4795  -16.3240 C   0  0  0  0  0  0  0  0  0  0  0  0
   41.8182   12.1100  -17.5738 N   0  0  0  0  0  0  0  0  0  0  0  0
   41.9220   12.9091  -15.3995 O   0  0  0  0  0  0  0  0  0  0  0  0
   42.5397   11.3313  -17.6526 H   0  0  0  0  0  0  0  0  0  0  0  0
   41.5215   12.6247  -18.4337 H   0  0  0  0  0  0  0  0  0  0  0  0
   36.5305   15.1757  -11.7258 C   0  0  0  0  0  0  0  0  0  0  0  0
   36.8234   16.0287  -10.8906 C   0  0  0  0  0  0  0  0  0  0  0  0
   37.1349   17.0183   -9.8577 C   0  0  0  0  0  0  0  0  0  0  0  0
   37.7425   18.2790  -10.4966 C   0  0  0  0  0  0  0  0  0  0  0  0
   35.9297   17.4989   -9.2650 O   0  0  0  0  0  0  0  0  0  0  0  0
   35.2664   16.7583   -9.3530 H   0  0  0  0  0  0  0  0  0  0  0  0
   38.0097   16.4405   -8.8636 C   0  0  0  0  0  0  0  0  0  0  0  0
   38.6576   15.2671   -9.1001 N   0  0  0  0  0  0  0  0  0  0  0  0
   39.5308   14.7222   -8.2398 C   0  0  0  0  0  0  0  0  0  0  0  0
   39.8100   15.3643   -7.0391 C   0  0  0  0  0  0  0  0  0  0  0  0
   39.1577   16.5494   -6.7912 C   0  0  0  0  0  0  0  0  0  0  0  0
   38.2865   17.0406   -7.7078 N   0  0  0  0  0  0  0  0  0  0  0  0
  1  2  1  0  0  0
  2  3  1  0  0  0
  3  4  1  0  0  0
  4  5  1  0  0  0
  5  6  2  0  0  0
  6  7  1  0  0  0
  7  8  2  0  0  0
  8  9  1  0  0  0
  9 10  2  0  0  0
 10 11  1  0  0  0
 11 12  1  0  0  0
 12 13  2  0  0  0
 13 14  1  0  0  0
 14 15  2  0  0  0
 13 16  1  0  0  0
 16 17  1  0  0  0
 16 18  2  0  0  0
  8 21  1  0  0  0
 21 22  3  0  0  0
 23 22  1  0  0  0
 23 24  1  0  0  0
 23 25  1  0  0  0
 23 27  1  0  0  0
 27 28  2  0  0  0
 28 29  1  0  0  0
 29 30  2  0  0  0
 30 31  1  0  0  0
 31 32  2  0  0  0
 15  2  1  0  0  0
 32 27  1  0  0  0
 10  5  1  0  0  0
 15 11  1  0  0  0
 17 19  1  0  0  0
 17 20  1  0  0  0
 25 26  1  0  0  0
M  END
> <minimizedAffinity>
-7.17711

> <CNNscore>
0.2301181555

> <CNNaffinity>
6.5418624878

> <CNN_VS>
1.5054013729

> <CNNaffinity_variance>
0.2473455220

$$$$
[H]O[C@](C#Cc1c([H])c([H])c2c(c1[H])-n1nc(C(=O)N([H])[H])c([H])c1[C@]([H])(C([H])([H])[H])C([H])([H])O2)(c1nc([H])c([H])c([H])n1)C([H])([H])[H]


 32 35  0  0  0  0  0  0  0  0999 V2000
   33.7003   10.5904  -14.5548 C   0  0  0  0  0  0  0  0  0  0  0  0
   34.1226   11.5372  -15.6994 C   0  0  0  0  0  0  0  0  0  0  0  0
   34.5365   10.7041  -16.8407 C   0  0  0  0  0  0  0  0  0  0  0  0
   35.6325   11.0874  -17.6126 O   0  0  0  0  0  0  0  0  0  0  0  0
   36.9268   11.4003  -17.2682 C   0  0  0  0  0  0  0  0  0  0  0  0
   37.9213   10.9702  -18.0926 C   0  0  0  0  0  0  0  0  0  0  0  0
   39.2397   11.2544  -17.7956 C   0  0  0  0  0  0  0  0  0  0  0  0
   39.6096   11.9789  -16.6656 C   0  0  0  0  0  0  0  0  0  0  0  0
   38.5991   12.4174  -15.8199 C   0  0  0  0  0  0  0  0  0  0  0  0
   37.2966   12.1308  -16.1311 C   0  0  0  0  0  0  0  0  0  0  0  0
   36.3921   12.7395  -15.2005 N   0  0  0  0  0  0  0  0  0  0  0  0
   36.7899   13.7130  -14.4102 N   0  0  0  0  0  0  0  0  0  0  0  0
   35.6881   14.1662  -13.7261 C   0  0  0  0  0  0  0  0  0  0  0  0
   34.6323   13.3983  -14.1592 C   0  0  0  0  0  0  0  0  0  0  0  0
   35.0900   12.4762  -15.1115 C   0  0  0  0  0  0  0  0  0  0  0  0
   35.6499   15.2209  -12.7347 C   0  0  0  0  0  0  0  0  0  0  0  0
   34.3865   15.5132  -12.1389 N   0  0  0  0  0  0  0  0  0  0  0  0
   36.6623   15.8474  -12.4326 O   0  0  0  0  0  0  0  0  0  0  0  0
   33.9173   16.4625  -12.2474 H   0  0  0  0  0  0  0  0  0  0  0  0
   33.9138   14.7672  -11.5800 H   0  0  0  0  0  0  0  0  0  0  0  0
   40.9905   12.2862  -16.3992 C   0  0  0  0  0  0  0  0  0  0  0  0
   42.1630   12.5784  -16.1742 C   0  0  0  0  0  0  0  0  0  0  0  0
   43.5532   12.9739  -15.9413 C   0  0  0  0  0  0  0  0  0  0  0  0
   44.5076   11.8672  -16.4219 C   0  0  0  0  0  0  0  0  0  0  0  0
   43.8899   14.0822  -16.7740 O   0  0  0  0  0  0  0  0  0  0  0  0
   43.0360   14.5731  -16.9357 H   0  0  0  0  0  0  0  0  0  0  0  0
   43.7524   13.2915  -14.5461 C   0  0  0  0  0  0  0  0  0  0  0  0
   44.9837   13.1896  -13.9750 N   0  0  0  0  0  0  0  0  0  0  0  0
   45.2362   13.5353  -12.7036 C   0  0  0  0  0  0  0  0  0  0  0  0
   44.2105   14.0264  -11.9044 C   0  0  0  0  0  0  0  0  0  0  0  0
   42.9626   14.1302  -12.4730 C   0  0  0  0  0  0  0  0  0  0  0  0
   42.7811   13.7608  -13.7657 N   0  0  0  0  0  0  0  0  0  0  0  0
  1  2  1  0  0  0
  2  3  1  0  0  0
  3  4  1  0  0  0
  4  5  1  0  0  0
  5  6  2  0  0  0
  6  7  1  0  0  0
  7  8  2  0  0  0
  8  9  1  0  0  0
  9 10  2  0  0  0
 10 11  1  0  0  0
 11 12  1  0  0  0
 12 13  2  0  0  0
 13 14  1  0  0  0
 14 15  2  0  0  0
 13 16  1  0  0  0
 16 17  1  0  0  0
 16 18  2  0  0  0
  8 21  1  0  0  0
 21 22  3  0  0  0
 23 22  1  0  0  0
 23 24  1  0  0  0
 23 25  1  0  0  0
 23 27  1  0  0  0
 27 28  2  0  0  0
 28 29  1  0  0  0
 29 30  2  0  0  0
 30 31  1  0  0  0
 31 32  2  0  0  0
 15  2  1  0  0  0
 32 27  1  0  0  0
 10  5  1  0  0  0
 15 11  1  0  0  0
 17 19  1  0  0  0
 17 20  1  0  0  0
 25 26  1  0  0  0
M  END
> <minimizedAffinity>
-9.59711

> <CNNscore>
0.2023054063

> <CNNaffinity>
6.8311700821

> <CNN_VS>
1.3819826841

> <CNNaffinity_variance>
0.0771309137

$$$$
[H]OC(c1c(C(=O)N([H])[H])nc2n1C1([H])C([H])([H])C([H])(c3c([H])c(F)c([H])c([H])c3-2)C1([H])[H])(C([H])([H])[H])C([H])([H])[H]


 26 29  0  0  0  0  0  0  0  0999 V2000
   39.6865   12.7494  -16.1973 C   0  0  0  0  0  0  0  0  0  0  0  0
   39.5552   11.9560  -17.3468 C   0  0  0  0  0  0  0  0  0  0  0  0
   38.2732   11.5044  -17.3039 N   0  0  0  0  0  0  0  0  0  0  0  0
   37.6766   11.9778  -16.2227 C   0  0  0  0  0  0  0  0  0  0  0  0
   36.2530   11.6933  -15.8962 C   0  0  0  0  0  0  0  0  0  0  0  0
   35.6661   10.8609  -16.8307 C   0  0  0  0  0  0  0  0  0  0  0  0
   34.3534   10.5159  -16.6768 C   0  0  0  0  0  0  0  0  0  0  0  0
   33.6139   10.9929  -15.5969 C   0  0  0  0  0  0  0  0  0  0  0  0
   32.3378   10.6291  -15.4897 F   0  0  0  0  0  0  0  0  0  0  0  0
   34.1909   11.8228  -14.6605 C   0  0  0  0  0  0  0  0  0  0  0  0
   35.5062   12.1548  -14.8345 C   0  0  0  0  0  0  0  0  0  0  0  0
   36.0695   13.0548  -13.7602 C   0  0  0  0  0  0  0  0  0  0  0  0
   37.3939   12.3936  -13.3640 C   0  0  0  0  0  0  0  0  0  0  0  0
   38.1872   13.3879  -14.2576 C   0  0  0  0  0  0  0  0  0  0  0  0
   36.8729   14.1606  -14.3534 C   0  0  0  0  0  0  0  0  0  0  0  0
   38.5393   12.7549  -15.5145 N   0  0  0  0  0  0  0  0  0  0  0  0
   42.1296   12.7604  -15.4574 C   0  0  0  0  0  0  0  0  0  0  0  0
   40.9098   13.4703  -15.9182 C   0  0  0  0  0  0  0  0  0  0  0  0
   40.6256   14.4620  -14.7573 C   0  0  0  0  0  0  0  0  0  0  0  0
   41.2282   14.2675  -17.0486 O   0  0  0  0  0  0  0  0  0  0  0  0
   41.8846   14.9634  -16.8066 H   0  0  0  0  0  0  0  0  0  0  0  0
   40.4978   11.5622  -18.3827 C   0  0  0  0  0  0  0  0  0  0  0  0
   39.9290   10.9726  -19.5752 N   0  0  0  0  0  0  0  0  0  0  0  0
   41.7286   11.6507  -18.4127 O   0  0  0  0  0  0  0  0  0  0  0  0
   39.9318   11.4565  -20.4825 H   0  0  0  0  0  0  0  0  0  0  0  0
   39.5135   10.0350  -19.4839 H   0  0  0  0  0  0  0  0  0  0  0  0
 17 18  1  0  0  0
 18 19  1  0  0  0
 18 20  1  0  0  0
 18  1  1  0  0  0
  1  2  2  0  0  0
  2  3  1  0  0  0
  3  4  2  0  0  0
  4  5  1  0  0  0
  5  6  2  0  0  0
  6  7  1  0  0  0
  7  8  2  0  0  0
  8  9  1  0  0  0
  8 10  1  0  0  0
 10 11  2  0  0  0
 11 12  1  0  0  0
 12 13  1  0  0  0
 13 14  1  0  0  0
 14 15  1  0  0  0
 14 16  1  0  0  0
  2 22  1  0  0  0
 22 23  1  0  0  0
 22 24  2  0  0  0
 16  1  1  0  0  0
 16  4  1  0  0  0
 11  5  1  0  0  0
 15 12  1  0  0  0
 20 21  1  0  0  0
 23 25  1  0  0  0
 23 26  1  0  0  0
M  END
> <minimizedAffinity>
-8.60999

> <CNNscore>
0.7828583121

> <CNNaffinity>
6.7899270058

> <CNN_VS>
5.3155508041

> <CNNaffinity_variance>
0.0720491707

$$$$
[H]OC(c1c(C(=O)N([H])[H])nc2n1C1([H])C([H])([H])C([H])(c3c([H])c(F)c([H])c([H])c3-2)C1([H])[H])(C([H])([H])[H])C([H])([H])[H]


 26 29  0  0  0  0  0  0  0  0999 V2000
   38.9924   13.7328  -14.3383 C   0  0  0  0  0  0  0  0  0  0  0  0
   39.4821   13.1978  -15.5391 C   0  0  0  0  0  0  0  0  0  0  0  0
   38.4192   12.5429  -16.0783 N   0  0  0  0  0  0  0  0  0  0  0  0
   37.3750   12.6649  -15.2760 C   0  0  0  0  0  0  0  0  0  0  0  0
   36.0414   12.0857  -15.5928 C   0  0  0  0  0  0  0  0  0  0  0  0
   36.0517   11.3915  -16.7880 C   0  0  0  0  0  0  0  0  0  0  0  0
   34.8954   10.8098  -17.2246 C   0  0  0  0  0  0  0  0  0  0  0  0
   33.7221   10.9120  -16.4807 C   0  0  0  0  0  0  0  0  0  0  0  0
   32.6203   10.3285  -16.9473 F   0  0  0  0  0  0  0  0  0  0  0  0
   33.7028   11.6019  -15.2881 C   0  0  0  0  0  0  0  0  0  0  0  0
   34.8719   12.1758  -14.8704 C   0  0  0  0  0  0  0  0  0  0  0  0
   34.7733   12.9009  -13.5491 C   0  0  0  0  0  0  0  0  0  0  0  0
   35.9773   12.3968  -12.7462 C   0  0  0  0  0  0  0  0  0  0  0  0
   36.7826   13.6784  -13.1005 C   0  0  0  0  0  0  0  0  0  0  0  0
   35.4516   14.2261  -13.6122 C   0  0  0  0  0  0  0  0  0  0  0  0
   37.7088   13.4007  -14.1819 N   0  0  0  0  0  0  0  0  0  0  0  0
   41.2026   14.1603  -13.1347 C   0  0  0  0  0  0  0  0  0  0  0  0
   39.8209   14.5672  -13.4949 C   0  0  0  0  0  0  0  0  0  0  0  0
   39.1237   14.6908  -12.1126 C   0  0  0  0  0  0  0  0  0  0  0  0
   39.8438   15.8762  -14.0432 O   0  0  0  0  0  0  0  0  0  0  0  0
   40.1631   16.5260  -13.3727 H   0  0  0  0  0  0  0  0  0  0  0  0
   40.8025   13.1996  -16.1501 C   0  0  0  0  0  0  0  0  0  0  0  0
   40.9538   14.0012  -17.3450 N   0  0  0  0  0  0  0  0  0  0  0  0
   41.8367   12.6182  -15.8095 O   0  0  0  0  0  0  0  0  0  0  0  0
   41.5146   14.8629  -17.3613 H   0  0  0  0  0  0  0  0  0  0  0  0
   40.4725   13.6744  -18.1944 H   0  0  0  0  0  0  0  0  0  0  0  0
 17 18  1  0  0  0
 18 19  1  0  0  0
 18 20  1  0  0  0
 18  1  1  0  0  0
  1  2  2  0  0  0
  2  3  1  0  0  0
  3  4  2  0  0  0
  4  5  1  0  0  0
  5  6  2  0  0  0
  6  7  1  0  0  0
  7  8  2  0  0  0
  8  9  1  0  0  0
  8 10  1  0  0  0
 10 11  2  0  0  0
 11 12  1  0  0  0
 12 13  1  0  0  0
 13 14  1  0  0  0
 14 15  1  0  0  0
 14 16  1  0  0  0
  2 22  1  0  0  0
 22 23  1  0  0  0
 22 24  2  0  0  0
 16  1  1  0  0  0
 16  4  1  0  0  0
 11  5  1  0  0  0
 15 12  1  0  0  0
 20 21  1  0  0  0
 23 25  1  0  0  0
 23 26  1  0  0  0
M  END
> <minimizedAffinity>
-7.48956

> <CNNscore>
0.6654996276

> <CNNaffinity>
6.6275901794

> <CNN_VS>
4.4106588364

> <CNNaffinity_variance>
0.1945237666

$$$$
[H]OC(c1c(C(=O)N([H])[H])nc2n1C1([H])C([H])([H])C([H])(c3c([H])c(F)c([H])c([H])c3-2)C1([H])[H])(C([H])([H])[H])C([H])([H])[H]


 26 29  0  0  0  0  0  0  0  0999 V2000
   35.5060   12.1970  -15.2928 C   0  0  0  0  0  0  0  0  0  0  0  0
   35.3516   11.3086  -16.3675 C   0  0  0  0  0  0  0  0  0  0  0  0
   36.5965   11.2050  -16.9048 N   0  0  0  0  0  0  0  0  0  0  0  0
   37.4350   11.9650  -16.2206 C   0  0  0  0  0  0  0  0  0  0  0  0
   38.8867   12.0521  -16.5359 C   0  0  0  0  0  0  0  0  0  0  0  0
   39.2231   11.2810  -17.6326 C   0  0  0  0  0  0  0  0  0  0  0  0
   40.5261   11.2459  -18.0412 C   0  0  0  0  0  0  0  0  0  0  0  0
   41.5036   11.9738  -17.3667 C   0  0  0  0  0  0  0  0  0  0  0  0
   42.7598   11.9076  -17.8024 F   0  0  0  0  0  0  0  0  0  0  0  0
   41.1771   12.7453  -16.2728 C   0  0  0  0  0  0  0  0  0  0  0  0
   39.8667   12.7658  -15.8816 C   0  0  0  0  0  0  0  0  0  0  0  0
   39.5867   13.6445  -14.6855 C   0  0  0  0  0  0  0  0  0  0  0  0
   38.3669   14.4748  -15.0990 C   0  0  0  0  0  0  0  0  0  0  0  0
   37.4220   13.5288  -14.3061 C   0  0  0  0  0  0  0  0  0  0  0  0
   38.7029   12.9520  -13.7060 C   0  0  0  0  0  0  0  0  0  0  0  0
   36.7773   12.5966  -15.2115 N   0  0  0  0  0  0  0  0  0  0  0  0
   33.7114   13.8301  -14.4997 C   0  0  0  0  0  0  0  0  0  0  0  0
   34.3987   12.5167  -14.4176 C   0  0  0  0  0  0  0  0  0  0  0  0
   34.9220   12.4891  -12.9557 C   0  0  0  0  0  0  0  0  0  0  0  0
   33.4380   11.4761  -14.5120 O   0  0  0  0  0  0  0  0  0  0  0  0
   32.8116   11.5144  -13.7505 H   0  0  0  0  0  0  0  0  0  0  0  0
   34.1886   10.6416  -16.9324 C   0  0  0  0  0  0  0  0  0  0  0  0
   34.1453    9.2022  -16.7920 N   0  0  0  0  0  0  0  0  0  0  0  0
   33.2120   11.1111  -17.5234 O   0  0  0  0  0  0  0  0  0  0  0  0
   33.4705    8.7301  -16.1764 H   0  0  0  0  0  0  0  0  0  0  0  0
   34.8251    8.6558  -17.3392 H   0  0  0  0  0  0  0  0  0  0  0  0
 17 18  1  0  0  0
 18 19  1  0  0  0
 18 20  1  0  0  0
 18  1  1  0  0  0
  1  2  2  0  0  0
  2  3  1  0  0  0
  3  4  2  0  0  0
  4  5  1  0  0  0
  5  6  2  0  0  0
  6  7  1  0  0  0
  7  8  2  0  0  0
  8  9  1  0  0  0
  8 10  1  0  0  0
 10 11  2  0  0  0
 11 12  1  0  0  0
 12 13  1  0  0  0
 13 14  1  0  0  0
 14 15  1  0  0  0
 14 16  1  0  0  0
  2 22  1  0  0  0
 22 23  1  0  0  0
 22 24  2  0  0  0
 16  1  1  0  0  0
 16  4  1  0  0  0
 11  5  1  0  0  0
 15 12  1  0  0  0
 20 21  1  0  0  0
 23 25  1  0  0  0
 23 26  1  0  0  0
M  END
> <minimizedAffinity>
-8.46288

> <CNNscore>
0.6095789075

> <CNNaffinity>
6.8124070168

> <CNN_VS>
4.1526994705

> <CNNaffinity_variance>
0.1857935190

$$$$
[H]OC(c1c(C(=O)N([H])[H])nc2n1C1([H])C([H])([H])C([H])(c3c([H])c(F)c([H])c([H])c3-2)C1([H])[H])(C([H])([H])[H])C([H])([H])[H]


 26 29  0  0  0  0  0  0  0  0999 V2000
   37.8457   15.0574  -12.2690 C   0  0  0  0  0  0  0  0  0  0  0  0
   39.1496   15.1408  -12.7800 C   0  0  0  0  0  0  0  0  0  0  0  0
   39.1549   14.2881  -13.8394 N   0  0  0  0  0  0  0  0  0  0  0  0
   37.9614   13.7318  -13.9616 C   0  0  0  0  0  0  0  0  0  0  0  0
   37.6266   12.7689  -15.0456 C   0  0  0  0  0  0  0  0  0  0  0  0
   38.7123   12.5143  -15.8623 C   0  0  0  0  0  0  0  0  0  0  0  0
   38.5610   11.6569  -16.9150 C   0  0  0  0  0  0  0  0  0  0  0  0
   37.3340   11.0467  -17.1653 C   0  0  0  0  0  0  0  0  0  0  0  0
   37.2355   10.2189  -18.2033 F   0  0  0  0  0  0  0  0  0  0  0  0
   36.2466   11.2945  -16.3562 C   0  0  0  0  0  0  0  0  0  0  0  0
   36.4212   12.1558  -15.3083 C   0  0  0  0  0  0  0  0  0  0  0  0
   35.1886   12.3645  -14.4607 C   0  0  0  0  0  0  0  0  0  0  0  0
   35.6835   12.1989  -13.0199 C   0  0  0  0  0  0  0  0  0  0  0  0
   35.7581   13.7412  -12.8409 C   0  0  0  0  0  0  0  0  0  0  0  0
   34.9847   13.8088  -14.1566 C   0  0  0  0  0  0  0  0  0  0  0  0
   37.1281   14.1938  -12.9911 N   0  0  0  0  0  0  0  0  0  0  0  0
   37.1314   15.2858   -9.8289 C   0  0  0  0  0  0  0  0  0  0  0  0
   37.4207   15.8813  -11.1578 C   0  0  0  0  0  0  0  0  0  0  0  0
   36.0697   16.5432  -11.5434 C   0  0  0  0  0  0  0  0  0  0  0  0
   38.3504   16.9428  -11.0054 O   0  0  0  0  0  0  0  0  0  0  0  0
   37.9647   17.6630  -10.4519 H   0  0  0  0  0  0  0  0  0  0  0  0
   40.3333   15.8639  -12.3412 C   0  0  0  0  0  0  0  0  0  0  0  0
   41.0069   15.3399  -11.1728 N   0  0  0  0  0  0  0  0  0  0  0  0
   40.8691   16.8714  -12.8116 O   0  0  0  0  0  0  0  0  0  0  0  0
   41.9329   14.8959  -11.2253 H   0  0  0  0  0  0  0  0  0  0  0  0
   40.5196   15.4279  -10.2702 H   0  0  0  0  0  0  0  0  0  0  0  0
 17 18  1  0  0  0
 18 19  1  0  0  0
 18 20  1  0  0  0
 18  1  1  0  0  0
  1  2  2  0  0  0
  2  3  1  0  0  0
  3  4  2  0  0  0
  4  5  1  0  0  0
  5  6  2  0  0  0
  6  7  1  0  0  0
  7  8  2  0  0  0
  8  9  1  0  0  0
  8 10  1  0  0  0
 10 11  2  0  0  0
 11 12  1  0  0  0
 12 13  1  0  0  0
 13 14  1  0  0  0
 14 15  1  0  0  0
 14 16  1  0  0  0
  2 22  1  0  0  0
 22 23  1  0  0  0
 22 24  2  0  0  0
 16  1  1  0  0  0
 16  4  1  0  0  0
 11  5  1  0  0  0
 15 12  1  0  0  0
 20 21  1  0  0  0
 23 25  1  0  0  0
 23 26  1  0  0  0
M  END
> <minimizedAffinity>
-9.55551

> <CNNscore>
0.4739734530

> <CNNaffinity>
6.0386366844

> <CNN_VS>
2.8621535301

> <CNNaffinity_variance>
0.1403978914

$$$$
[H]OC(c1c(C(=O)N([H])[H])nc2n1C1([H])C([H])([H])C([H])(c3c([H])c(F)c([H])c([H])c3-2)C1([H])[H])(C([H])([H])[H])C([H])([H])[H]


 26 29  0  0  0  0  0  0  0  0999 V2000
   36.9901   14.1042  -13.6640 C   0  0  0  0  0  0  0  0  0  0  0  0
   35.8806   13.4162  -14.1777 C   0  0  0  0  0  0  0  0  0  0  0  0
   36.3741   12.7145  -15.2328 N   0  0  0  0  0  0  0  0  0  0  0  0
   37.6688   12.9556  -15.3538 C   0  0  0  0  0  0  0  0  0  0  0  0
   38.5151   12.3158  -16.3973 C   0  0  0  0  0  0  0  0  0  0  0  0
   37.7779   11.4872  -17.2222 C   0  0  0  0  0  0  0  0  0  0  0  0
   38.4165   10.8154  -18.2257 C   0  0  0  0  0  0  0  0  0  0  0  0
   39.7885   10.9599  -18.4184 C   0  0  0  0  0  0  0  0  0  0  0  0
   40.3661   10.2844  -19.4095 F   0  0  0  0  0  0  0  0  0  0  0  0
   40.5311   11.7840  -17.6010 C   0  0  0  0  0  0  0  0  0  0  0  0
   39.8709   12.4468  -16.6033 C   0  0  0  0  0  0  0  0  0  0  0  0
   40.7499   13.3403  -15.7606 C   0  0  0  0  0  0  0  0  0  0  0  0
   39.9882   14.6681  -15.6897 C   0  0  0  0  0  0  0  0  0  0  0  0
   39.4387   14.3073  -14.2810 C   0  0  0  0  0  0  0  0  0  0  0  0
   40.4562   13.1683  -14.3099 C   0  0  0  0  0  0  0  0  0  0  0  0
   38.0757   13.8224  -14.3880 N   0  0  0  0  0  0  0  0  0  0  0  0
   38.0895   15.4777  -11.8144 C   0  0  0  0  0  0  0  0  0  0  0  0
   36.8816   14.9231  -12.4758 C   0  0  0  0  0  0  0  0  0  0  0  0
   36.2388   14.0588  -11.3571 C   0  0  0  0  0  0  0  0  0  0  0  0
   35.9643   15.9741  -12.7380 O   0  0  0  0  0  0  0  0  0  0  0  0
   35.6598   16.3852  -11.8942 H   0  0  0  0  0  0  0  0  0  0  0  0
   34.4710   13.4155  -13.8176 C   0  0  0  0  0  0  0  0  0  0  0  0
   33.7102   14.5827  -14.2076 N   0  0  0  0  0  0  0  0  0  0  0  0
   33.8031   12.5652  -13.2223 O   0  0  0  0  0  0  0  0  0  0  0  0
   32.9896   14.5494  -14.9403 H   0  0  0  0  0  0  0  0  0  0  0  0
   33.9178   15.4644  -13.7181 H   0  0  0  0  0  0  0  0  0  0  0  0
 17 18  1  0  0  0
 18 19  1  0  0  0
 18 20  1  0  0  0
 18  1  1  0  0  0
  1  2  2  0  0  0
  2  3  1  0  0  0
  3  4  2  0  0  0
  4  5  1  0  0  0
  5  6  2  0  0  0
  6  7  1  0  0  0
  7  8  2  0  0  0
  8  9  1  0  0  0
  8 10  1  0  0  0
 10 11  2  0  0  0
 11 12  1  0  0  0
 12 13  1  0  0  0
 13 14  1  0  0  0
 14 15  1  0  0  0
 14 16  1  0  0  0
  2 22  1  0  0  0
 22 23  1  0  0  0
 22 24  2  0  0  0
 16  1  1  0  0  0
 16  4  1  0  0  0
 11  5  1  0  0  0
 15 12  1  0  0  0
 20 21  1  0  0  0
 23 25  1  0  0  0
 23 26  1  0  0  0
M  END
> <minimizedAffinity>
-8.34340

> <CNNscore>
0.3891706765

> <CNNaffinity>
6.3764462471

> <CNN_VS>
2.4815258980

> <CNNaffinity_variance>
0.1316047311

$$$$
[H]OC(c1c(C(=O)N([H])[H])nc2n1C1([H])C([H])([H])C([H])(c3c([H])c(F)c([H])c([H])c3-2)C1([H])[H])(C([H])([H])[H])C([H])([H])[H]


 26 29  0  0  0  0  0  0  0  0999 V2000
   38.2089   11.9325  -16.6827 C   0  0  0  0  0  0  0  0  0  0  0  0
   39.5445   12.2570  -16.9634 C   0  0  0  0  0  0  0  0  0  0  0  0
   39.9036   13.1110  -15.9679 N   0  0  0  0  0  0  0  0  0  0  0  0
   38.8772   13.2937  -15.1543 C   0  0  0  0  0  0  0  0  0  0  0  0
   38.9510   14.1534  -13.9419 C   0  0  0  0  0  0  0  0  0  0  0  0
   40.1918   14.7470  -13.8058 C   0  0  0  0  0  0  0  0  0  0  0  0
   40.4218   15.5590  -12.7316 C   0  0  0  0  0  0  0  0  0  0  0  0
   39.4249   15.7880  -11.7859 C   0  0  0  0  0  0  0  0  0  0  0  0
   39.6966   16.5868  -10.7562 F   0  0  0  0  0  0  0  0  0  0  0  0
   38.1852   15.2005  -11.9139 C   0  0  0  0  0  0  0  0  0  0  0  0
   37.9772   14.3918  -12.9971 C   0  0  0  0  0  0  0  0  0  0  0  0
   36.5908   13.7975  -13.0745 C   0  0  0  0  0  0  0  0  0  0  0  0
   36.1475   14.0495  -14.5195 C   0  0  0  0  0  0  0  0  0  0  0  0
   36.5188   12.5927  -14.9147 C   0  0  0  0  0  0  0  0  0  0  0  0
   36.6467   12.3473  -13.4124 C   0  0  0  0  0  0  0  0  0  0  0  0
   37.8070   12.5711  -15.5814 N   0  0  0  0  0  0  0  0  0  0  0  0
   37.0156   11.3332  -18.8583 C   0  0  0  0  0  0  0  0  0  0  0  0
   37.4811   10.9801  -17.4935 C   0  0  0  0  0  0  0  0  0  0  0  0
   36.1598   10.6346  -16.7542 C   0  0  0  0  0  0  0  0  0  0  0  0
   38.2287    9.7748  -17.5486 O   0  0  0  0  0  0  0  0  0  0  0  0
   37.6593    9.0289  -17.8538 H   0  0  0  0  0  0  0  0  0  0  0  0
   40.4337   11.9006  -18.0584 C   0  0  0  0  0  0  0  0  0  0  0  0
   41.8519   11.9980  -17.7890 N   0  0  0  0  0  0  0  0  0  0  0  0
   40.1721   11.5203  -19.2032 O   0  0  0  0  0  0  0  0  0  0  0  0
   42.4555   11.1689  -17.7156 H   0  0  0  0  0  0  0  0  0  0  0  0
   42.2442   12.9425  -17.6709 H   0  0  0  0  0  0  0  0  0  0  0  0
 17 18  1  0  0  0
 18 19  1  0  0  0
 18 20  1  0  0  0
 18  1  1  0  0  0
  1  2  2  0  0  0
  2  3  1  0  0  0
  3  4  2  0  0  0
  4  5  1  0  0  0
  5  6  2  0  0  0
  6  7  1  0  0  0
  7  8  2  0  0  0
  8  9  1  0  0  0
  8 10  1  0  0  0
 10 11  2  0  0  0
 11 12  1  0  0  0
 12 13  1  0  0  0
 13 14  1  0  0  0
 14 15  1  0  0  0
 14 16  1  0  0  0
  2 22  1  0  0  0
 22 23  1  0  0  0
 22 24  2  0  0  0
 16  1  1  0  0  0
 16  4  1  0  0  0
 11  5  1  0  0  0
 15 12  1  0  0  0
 20 21  1  0  0  0
 23 25  1  0  0  0
 23 26  1  0  0  0
M  END
> <minimizedAffinity>
-7.48835

> <CNNscore>
0.3873433769

> <CNNaffinity>
6.1393003464

> <CNN_VS>
2.3780174255

> <CNNaffinity_variance>
0.1143821925

$$$$
[H]OC(c1c(C(=O)N([H])[H])nc2n1C1([H])C([H])([H])C([H])(c3c([H])c(F)c([H])c([H])c3-2)C1([H])[H])(C([H])([H])[H])C([H])([H])[H]


 26 29  0  0  0  0  0  0  0  0999 V2000
   40.4970   14.8709  -13.0355 C   0  0  0  0  0  0  0  0  0  0  0  0
   41.6003   14.3375  -13.7183 C   0  0  0  0  0  0  0  0  0  0  0  0
   41.0579   13.4825  -14.6260 N   0  0  0  0  0  0  0  0  0  0  0  0
   39.7409   13.4913  -14.5053 C   0  0  0  0  0  0  0  0  0  0  0  0
   38.8450   12.6829  -15.3761 C   0  0  0  0  0  0  0  0  0  0  0  0
   39.5579   11.9157  -16.2782 C   0  0  0  0  0  0  0  0  0  0  0  0
   38.8750   11.1251  -17.1583 C   0  0  0  0  0  0  0  0  0  0  0  0
   37.4825   11.0893  -17.1506 C   0  0  0  0  0  0  0  0  0  0  0  0
   36.8617   10.3035  -18.0277 F   0  0  0  0  0  0  0  0  0  0  0  0
   36.7639   11.8506  -16.2547 C   0  0  0  0  0  0  0  0  0  0  0  0
   37.4683   12.6343  -15.3828 C   0  0  0  0  0  0  0  0  0  0  0  0
   36.6111   13.4266  -14.4244 C   0  0  0  0  0  0  0  0  0  0  0  0
   37.2475   13.1826  -13.0519 C   0  0  0  0  0  0  0  0  0  0  0  0
   37.9857   14.5487  -13.1227 C   0  0  0  0  0  0  0  0  0  0  0  0
   37.0833   14.8360  -14.3213 C   0  0  0  0  0  0  0  0  0  0  0  0
   39.3671   14.3477  -13.5171 N   0  0  0  0  0  0  0  0  0  0  0  0
   41.6883   15.7448  -10.9538 C   0  0  0  0  0  0  0  0  0  0  0  0
   40.6628   15.8865  -12.0180 C   0  0  0  0  0  0  0  0  0  0  0  0
   39.3376   15.9774  -11.2135 C   0  0  0  0  0  0  0  0  0  0  0  0
   40.8212   17.1425  -12.6599 O   0  0  0  0  0  0  0  0  0  0  0  0
   40.6677   17.8786  -12.0210 H   0  0  0  0  0  0  0  0  0  0  0  0
   43.0356   14.5089  -13.5530 C   0  0  0  0  0  0  0  0  0  0  0  0
   43.7623   13.3659  -13.0443 N   0  0  0  0  0  0  0  0  0  0  0  0
   43.7505   15.4891  -13.7807 O   0  0  0  0  0  0  0  0  0  0  0  0
   44.4175   12.8279  -13.6262 H   0  0  0  0  0  0  0  0  0  0  0  0
   43.5990   13.1041  -12.0621 H   0  0  0  0  0  0  0  0  0  0  0  0
 17 18  1  0  0  0
 18 19  1  0  0  0
 18 20  1  0  0  0
 18  1  1  0  0  0
  1  2  2  0  0  0
  2  3  1  0  0  0
  3  4  2  0  0  0
  4  5  1  0  0  0
  5  6  2  0  0  0
  6  7  1  0  0  0
  7  8  2  0  0  0
  8  9  1  0  0  0
  8 10  1  0  0  0
 10 11  2  0  0  0
 11 12  1  0  0  0
 12 13  1  0  0  0
 13 14  1  0  0  0
 14 15  1  0  0  0
 14 16  1  0  0  0
  2 22  1  0  0  0
 22 23  1  0  0  0
 22 24  2  0  0  0
 16  1  1  0  0  0
 16  4  1  0  0  0
 11  5  1  0  0  0
 15 12  1  0  0  0
 20 21  1  0  0  0
 23 25  1  0  0  0
 23 26  1  0  0  0
M  END
> <minimizedAffinity>
-8.18644

> <CNNscore>
0.3786771595

> <CNNaffinity>
5.8370676041

> <CNN_VS>
2.2103641033

> <CNNaffinity_variance>
0.1527299732

$$$$
[H]OC(c1c(C(=O)N([H])[H])nc2n1C1([H])C([H])([H])C([H])(c3c([H])c(F)c([H])c([H])c3-2)C1([H])[H])(C([H])([H])[H])C([H])([H])[H]


 26 29  0  0  0  0  0  0  0  0999 V2000
   38.5245   14.8122  -12.8212 C   0  0  0  0  0  0  0  0  0  0  0  0
   39.8391   15.2299  -13.0769 C   0  0  0  0  0  0  0  0  0  0  0  0
   40.2170   14.5142  -14.1696 N   0  0  0  0  0  0  0  0  0  0  0  0
   39.2225   13.7275  -14.5450 C   0  0  0  0  0  0  0  0  0  0  0  0
   39.3042   12.8334  -15.7317 C   0  0  0  0  0  0  0  0  0  0  0  0
   40.5386   12.9076  -16.3491 C   0  0  0  0  0  0  0  0  0  0  0  0
   40.7664   12.1525  -17.4644 C   0  0  0  0  0  0  0  0  0  0  0  0
   39.7735   11.3196  -17.9752 C   0  0  0  0  0  0  0  0  0  0  0  0
   40.0426   10.6032  -19.0645 F   0  0  0  0  0  0  0  0  0  0  0  0
   38.5402   11.2393  -17.3660 C   0  0  0  0  0  0  0  0  0  0  0  0
   38.3346   12.0037  -16.2507 C   0  0  0  0  0  0  0  0  0  0  0  0
   36.9649   11.8497  -15.6331 C   0  0  0  0  0  0  0  0  0  0  0  0
   37.2403   11.6462  -14.1395 C   0  0  0  0  0  0  0  0  0  0  0  0
   36.9236   13.1405  -13.8512 C   0  0  0  0  0  0  0  0  0  0  0  0
   36.3834   13.1753  -15.2797 C   0  0  0  0  0  0  0  0  0  0  0  0
   38.1564   13.8933  -13.7170 N   0  0  0  0  0  0  0  0  0  0  0  0
   37.3903   14.6259  -10.5418 C   0  0  0  0  0  0  0  0  0  0  0  0
   37.7423   15.4033  -11.7567 C   0  0  0  0  0  0  0  0  0  0  0  0
   36.3542   15.7849  -12.3393 C   0  0  0  0  0  0  0  0  0  0  0  0
   38.3575   16.6234  -11.3728 O   0  0  0  0  0  0  0  0  0  0  0  0
   37.7281   17.1796  -10.8550 H   0  0  0  0  0  0  0  0  0  0  0  0
   40.7332   16.1433  -12.3820 C   0  0  0  0  0  0  0  0  0  0  0  0
   41.2776   15.6745  -11.1261 N   0  0  0  0  0  0  0  0  0  0  0  0
   41.1124   17.2757  -12.6941 O   0  0  0  0  0  0  0  0  0  0  0  0
   42.2717   15.4379  -11.0122 H   0  0  0  0  0  0  0  0  0  0  0  0
   40.6246   15.5839  -10.3352 H   0  0  0  0  0  0  0  0  0  0  0  0
 17 18  1  0  0  0
 18 19  1  0  0  0
 18 20  1  0  0  0
 18  1  1  0  0  0
  1  2  2  0  0  0
  2  3  1  0  0  0
  3  4  2  0  0  0
  4  5  1  0  0  0
  5  6  2  0  0  0
  6  7  1  0  0  0
  7  8  2  0  0  0
  8  9  1  0  0  0
  8 10  1  0  0  0
 10 11  2  0  0  0
 11 12  1  0  0  0
 12 13  1  0  0  0
 13 14  1  0  0  0
 14 15  1  0  0  0
 14 16  1  0  0  0
  2 22  1  0  0  0
 22 23  1  0  0  0
 22 24  2  0  0  0
 16  1  1  0  0  0
 16  4  1  0  0  0
 11  5  1  0  0  0
 15 12  1  0  0  0
 20 21  1  0  0  0
 23 25  1  0  0  0
 23 26  1  0  0  0
M  END
> <minimizedAffinity>
-9.41596

> <CNNscore>
0.3690981865

> <CNNaffinity>
5.8844327927

> <CNN_VS>
2.1719334126

> <CNNaffinity_variance>
0.1539569497

$$$$
[H]OC(c1c(C(=O)N([H])[H])nc2n1C1([H])C([H])([H])C([H])(c3c([H])c(F)c([H])c([H])c3-2)C1([H])[H])(C([H])([H])[H])C([H])([H])[H]


 26 29  0  0  0  0  0  0  0  0999 V2000
   37.8971   16.2263   -7.4024 C   0  0  0  0  0  0  0  0  0  0  0  0
   37.4291   15.0502   -8.0073 C   0  0  0  0  0  0  0  0  0  0  0  0
   38.3790   14.1198   -7.7221 N   0  0  0  0  0  0  0  0  0  0  0  0
   39.3421   14.6794   -7.0093 C   0  0  0  0  0  0  0  0  0  0  0  0
   40.5205   13.9212   -6.5084 C   0  0  0  0  0  0  0  0  0  0  0  0
   40.4907   12.5986   -6.9089 C   0  0  0  0  0  0  0  0  0  0  0  0
   41.5006   11.7664   -6.5171 C   0  0  0  0  0  0  0  0  0  0  0  0
   42.5458   12.2385   -5.7265 C   0  0  0  0  0  0  0  0  0  0  0  0
   43.5071   11.3894   -5.3698 F   0  0  0  0  0  0  0  0  0  0  0  0
   42.5836   13.5554   -5.3229 C   0  0  0  0  0  0  0  0  0  0  0  0
   41.5624   14.3704   -5.7271 C   0  0  0  0  0  0  0  0  0  0  0  0
   41.6827   15.8007   -5.2569 C   0  0  0  0  0  0  0  0  0  0  0  0
   41.4256   16.6387   -6.5139 C   0  0  0  0  0  0  0  0  0  0  0  0
   39.9539   16.8864   -6.0789 C   0  0  0  0  0  0  0  0  0  0  0  0
   40.3821   16.3046   -4.7329 C   0  0  0  0  0  0  0  0  0  0  0  0
   39.0655   15.9944   -6.7996 N   0  0  0  0  0  0  0  0  0  0  0  0
   37.7731   18.7756   -7.3587 C   0  0  0  0  0  0  0  0  0  0  0  0
   37.1176   17.4453   -7.4280 C   0  0  0  0  0  0  0  0  0  0  0  0
   36.1936   17.4478   -6.1798 C   0  0  0  0  0  0  0  0  0  0  0  0
   36.2567   17.4032   -8.5557 O   0  0  0  0  0  0  0  0  0  0  0  0
   35.5341   18.0689   -8.4635 H   0  0  0  0  0  0  0  0  0  0  0  0
   36.2659   14.7650   -8.8333 C   0  0  0  0  0  0  0  0  0  0  0  0
   35.0209   14.5427   -8.1306 N   0  0  0  0  0  0  0  0  0  0  0  0
   36.1639   14.6804  -10.0605 O   0  0  0  0  0  0  0  0  0  0  0  0
   34.2399   15.2102   -8.1716 H   0  0  0  0  0  0  0  0  0  0  0  0
   34.9410   13.6778   -7.5778 H   0  0  0  0  0  0  0  0  0  0  0  0
 17 18  1  0  0  0
 18 19  1  0  0  0
 18 20  1  0  0  0
 18  1  1  0  0  0
  1  2  2  0  0  0
  2  3  1  0  0  0
  3  4  2  0  0  0
  4  5  1  0  0  0
  5  6  2  0  0  0
  6  7  1  0  0  0
  7  8  2  0  0  0
  8  9  1  0  0  0
  8 10  1  0  0  0
 10 11  2  0  0  0
 11 12  1  0  0  0
 12 13  1  0  0  0
 13 14  1  0  0  0
 14 15  1  0  0  0
 14 16  1  0  0  0
  2 22  1  0  0  0
 22 23  1  0  0  0
 22 24  2  0  0  0
 16  1  1  0  0  0
 16  4  1  0  0  0
 11  5  1  0  0  0
 15 12  1  0  0  0
 20 21  1  0  0  0
 23 25  1  0  0  0
 23 26  1  0  0  0
M  END
> <minimizedAffinity>
-4.73488

> <CNNscore>
0.3280101418

> <CNNaffinity>
4.6716766357

> <CNN_VS>
1.5323573351

> <CNNaffinity_variance>
0.3545063138

$$$$
